=
 OpenBabel10222416513D

 41 45  0  0  1  0  0  0  0  0999 V2000
  184.1070  177.9260  141.0760 C   0  0  1  0  0  3  0  0  0  0  0  0
  184.0650  178.8850  145.7750 C   0  0  0  0  0  3  0  0  0  0  0  0
  184.6960  178.7120  139.9450 C   0  0  0  0  0  3  0  0  0  0  0  0
  183.9180  179.4790  139.1760 C   0  0  0  0  0  3  0  0  0  0  0  0
  184.2500  178.3770  143.3440 C   0  0  0  0  0  0  0  0  0  0  0  0
  186.0840  178.0920  144.9170 N   0  0  0  0  0  0  0  0  0  0  0  0
  184.7560  178.4500  144.5730 C   0  0  2  0  0  3  0  0  0  0  0  0
  182.4740  179.6600  139.4590 C   0  0  0  0  0  0  0  0  0  0  0  0
  184.9970  177.9240  142.2240 N   0  0  0  0  0  0  0  0  0  0  0  0
  182.8560  178.5340  141.5360 N   0  0  0  0  0  0  0  0  0  0  0  0
  181.9680  179.2200  140.6350 C   0  0  0  0  0  0  0  0  0  0  0  0
  186.1300  178.3220  146.1900 C   0  0  0  0  0  0  0  0  0  0  0  0
  182.8690  178.7640  142.9730 C   0  0  0  0  0  2  0  0  0  0  0  0
  184.9060  178.8000  146.7520 N   0  0  0  0  0  0  0  0  0  0  0  0
  180.5540  179.4310  141.0420 C   0  0  0  0  0  0  0  0  0  0  0  0
  180.1680  180.5380  141.5070 O   0  0  0  0  0  0  0  0  0  0  0  0
  179.6520  178.3740  140.9200 O   0  0  0  0  0  0  0  0  0  0  0  0
  179.0980  177.9900  139.6700 C   0  0  0  0  0  2  0  0  0  0  0  0
  179.4530  176.5440  139.3800 C   0  0  0  0  0  2  0  0  0  0  0  0
  180.6010  176.4830  138.4920 N   0  0  0  0  0  0  0  0  0  0  0  0
  181.6800  175.8300  139.2460 C   0  0  0  0  0  2  0  0  0  0  0  0
  180.9010  175.0600  138.2860 C   0  0  0  0  0  2  0  0  0  0  0  0
  181.6560  180.3410  138.5050 N   0  0  0  0  0  2  0  0  0  0  0  0
  181.7460  181.7280  138.3200 N   0  0  0  0  0  2  0  0  0  0  0  0
  180.8680  182.0500  137.3410 O   0  0  0  0  0  0  0  0  0  0  0  0
  180.2240  183.1450  137.8100 N   0  0  0  0  0  2  0  0  0  0  0  0
  179.5680  185.7900  136.9480 C   0  0  0  0  0  1  0  0  0  0  0  0
  182.0770  185.0060  137.4760 O   0  0  0  0  0  0  0  0  0  0  0  0
  181.0100  184.0840  135.4660 O   0  0  0  0  0  0  0  0  0  0  0  0
  180.7880  184.4990  136.8930 S   0  0  0  0  0  0  0  0  0  0  0  0
  187.3400  178.0420  147.0080 C   0  0  0  0  0  2  0  0  0  0  0  0
  188.3390  177.3780  146.1890 N   0  0  0  0  0  2  0  0  0  0  0  0
  191.2630  176.2620  146.9920 C   0  0  0  0  0  2  0  0  0  0  0  0
  190.6570  177.7450  145.4460 C   0  0  2  0  0  3  0  0  0  0  0  0
  191.2330  176.4800  145.6050 O   0  0  0  0  0  0  0  0  0  0  0  0
  190.2150  177.1330  147.6640 C   0  0  0  0  0  2  0  0  0  0  0  0
  189.6280  177.9460  146.5500 C   0  0  2  0  0  3  0  0  0  0  0  0
  190.1850  177.9720  144.0010 C   0  0  1  0  0  3  0  0  0  0  0  0
  190.8320  179.0660  143.4230 O   0  0  0  0  0  1  0  0  0  0  0  0
  190.3680  176.7380  143.1290 C   0  0  0  0  0  2  0  0  0  0  0  0
  189.0520  176.0000  142.9670 C   0  0  0  0  0  1  0  0  0  0  0  0
  1  3  1  6  0  0  0
  1 10  1  0  0  0  0
  1  9  1  0  0  0  0
  2 14  2  0  0  0  0
  4  8  1  0  0  0  0
  4  3  2  0  0  0  0
  6 12  2  0  0  0  0
  7  5  1  1  0  0  0
  7  6  1  0  0  0  0
  7  2  1  0  0  0  0
  8 11  2  0  0  0  0
  9  5  2  0  0  0  0
 10 13  1  0  0  0  0
 11 15  1  0  0  0  0
 11 10  1  0  0  0  0
 12 14  1  0  0  0  0
 12 31  1  0  0  0  0
 13  5  1  0  0  0  0
 15 16  2  0  0  0  0
 17 15  1  0  0  0  0
 18 17  1  0  0  0  0
 19 18  1  0  0  0  0
 20 21  1  0  0  0  0
 20 19  1  0  0  0  0
 22 20  1  0  0  0  0
 22 21  1  0  0  0  0
 23  8  1  0  0  0  0
 24 23  1  0  0  0  0
 25 26  1  0  0  0  0
 25 24  1  0  0  0  0
 29 30  2  0  0  0  0
 30 27  1  0  0  0  0
 30 28  2  0  0  0  0
 30 26  1  0  0  0  0
 32 31  1  0  0  0  0
 33 36  1  0  0  0  0
 34 38  1  6  0  0  0
 34 35  1  0  0  0  0
 34 37  1  0  0  0  0
 35 33  1  0  0  0  0
 37 32  1  6  0  0  0
 37 36  1  0  0  0  0
 38 39  1  6  0  0  0
 40 38  1  0  0  0  0
 41 40  1  0  0  0  0
M  END
>  <MODEL>
1

>  <REMARK>
 VINA RESULT:      -7.2      0.000      0.000
  Name = 
  15 active torsions:
  status: ('A' for Active; 'I' for Inactive)
    1  A    between atoms: C_1  and  O_27
    2  A    between atoms: C_1  and  C_28
    3  A    between atoms: N_5  and  O_30
    4  A    between atoms: N_5  and  S_36
    5  A    between atoms: N_6  and  C_11
    6  A    between atoms: C_10  and  C_11
    7  A    between atoms: C_10  and  O_27
    8  A    between atoms: C_16  and  C_38
    9  A    between atoms: C_21  and  N_23
   10  A    between atoms: N_22  and  N_23
   11  A    between atoms: N_22  and  O_30
   12  A    between atoms: C_31  and  C_38
   13  A    between atoms: N_32  and  C_35
   14  A    between atoms: N_32  and  C_37
   15  A    between atoms: C_33  and  C_35
                            x       y       z     vdW  Elec       q    Type
                         _______ _______ _______ _____ _____    ______ ____

>  <TORSDO>
F 15

$$$$
=
 OpenBabel10222416513D

 41 45  0  0  1  0  0  0  0  0999 V2000
  187.8960  178.5350  139.7000 C   0  0  1  0  0  3  0  0  0  0  0  0
  185.7370  178.1740  143.9660 C   0  0  0  0  0  3  0  0  0  0  0  0
  187.8390  177.6150  138.5180 C   0  0  0  0  0  3  0  0  0  0  0  0
  188.8330  176.7550  138.2820 C   0  0  0  0  0  3  0  0  0  0  0  0
  186.7090  178.3730  141.6830 C   0  0  0  0  0  0  0  0  0  0  0  0
  184.3820  178.8610  142.1970 N   0  0  0  0  0  0  0  0  0  0  0  0
  185.6960  178.4570  142.5420 C   0  0  2  0  0  3  0  0  0  0  0  0
  189.9760  176.6060  139.2150 C   0  0  0  0  0  0  0  0  0  0  0  0
  186.5830  178.6850  140.3030 N   0  0  0  0  0  0  0  0  0  0  0  0
  188.7610  177.9850  140.7460 N   0  0  0  0  0  0  0  0  0  0  0  0
  189.9180  177.1880  140.4350 C   0  0  0  0  0  0  0  0  0  0  0  0
  183.7480  178.7930  143.3230 C   0  0  0  0  0  0  0  0  0  0  0  0
  188.0810  177.9370  142.0320 C   0  0  0  0  0  2  0  0  0  0  0  0
  184.5500  178.3850  144.4330 N   0  0  0  0  0  0  0  0  0  0  0  0
  190.9760  177.0240  141.4660 C   0  0  0  0  0  0  0  0  0  0  0  0
  192.0720  177.6430  141.3800 O   0  0  0  0  0  0  0  0  0  0  0  0
  190.7490  176.1550  142.5330 O   0  0  0  0  0  0  0  0  0  0  0  0
  191.5280  176.1920  143.7190 C   0  0  0  0  0  2  0  0  0  0  0  0
  190.9590  177.2300  144.6680 C   0  0  0  0  0  2  0  0  0  0  0  0
  189.6690  176.7890  145.1710 N   0  0  0  0  0  0  0  0  0  0  0  0
  189.6850  177.0130  146.6230 C   0  0  0  0  0  2  0  0  0  0  0  0
  189.0170  177.9700  145.7520 C   0  0  0  0  0  2  0  0  0  0  0  0
  191.0960  175.8060  138.8240 N   0  0  0  0  0  2  0  0  0  0  0  0
  192.0190  176.2560  137.8690 N   0  0  0  0  0  2  0  0  0  0  0  0
  192.8940  175.2430  137.6640 O   0  0  0  0  0  0  0  0  0  0  0  0
  194.0300  175.6460  138.2800 N   0  0  0  0  0  2  0  0  0  0  0  0
  194.5230  173.1510  136.9750 C   0  0  0  0  0  1  0  0  0  0  0  0
  196.4140  175.0200  137.3150 O   0  0  0  0  0  0  0  0  0  0  0  0
  195.6430  173.8240  139.3160 O   0  0  0  0  0  0  0  0  0  0  0  0
  195.2200  174.4220  138.0040 S   0  0  0  0  0  0  0  0  0  0  0  0
  182.3180  179.1780  143.4580 C   0  0  0  0  0  2  0  0  0  0  0  0
  181.6320  178.9550  142.1970 N   0  0  0  0  0  2  0  0  0  0  0  0
  179.0640  180.4080  140.8810 C   0  0  0  0  0  2  0  0  0  0  0  0
  179.3920  178.2760  141.4340 C   0  0  2  0  0  3  0  0  0  0  0  0
  179.1750  179.1170  140.3370 O   0  0  0  0  0  0  0  0  0  0  0  0
  179.7550  180.4480  142.2330 C   0  0  0  0  0  2  0  0  0  0  0  0
  180.2060  179.0390  142.4700 C   0  0  2  0  0  3  0  0  0  0  0  0
  179.9290  176.9040  140.9950 C   0  0  1  0  0  3  0  0  0  0  0  0
  179.0810  175.8730  141.4050 O   0  0  0  0  0  1  0  0  0  0  0  0
  180.1580  176.8230  139.4930 C   0  0  0  0  0  2  0  0  0  0  0  0
  180.8060  175.5010  139.1240 C   0  0  0  0  0  1  0  0  0  0  0  0
  1  3  1  6  0  0  0
  1  9  1  0  0  0  0
  1 10  1  0  0  0  0
  2 14  2  0  0  0  0
  4  3  2  0  0  0  0
  4  8  1  0  0  0  0
  5 13  1  0  0  0  0
  6  7  1  0  0  0  0
  6 12  2  0  0  0  0
  7  5  1  1  0  0  0
  7  2  1  0  0  0  0
  8 11  2  0  0  0  0
  9  5  2  0  0  0  0
 10 13  1  0  0  0  0
 11 10  1  0  0  0  0
 11 15  1  0  0  0  0
 12 31  1  0  0  0  0
 12 14  1  0  0  0  0
 15 17  1  0  0  0  0
 16 15  2  0  0  0  0
 17 18  1  0  0  0  0
 18 19  1  0  0  0  0
 19 20  1  0  0  0  0
 20 22  1  0  0  0  0
 20 21  1  0  0  0  0
 22 21  1  0  0  0  0
 23  8  1  0  0  0  0
 24 23  1  0  0  0  0
 25 24  1  0  0  0  0
 25 26  1  0  0  0  0
 27 30  1  0  0  0  0
 28 30  2  0  0  0  0
 30 26  1  0  0  0  0
 30 29  2  0  0  0  0
 32 31  1  0  0  0  0
 33 36  1  0  0  0  0
 34 38  1  6  0  0  0
 34 37  1  0  0  0  0
 35 33  1  0  0  0  0
 35 34  1  0  0  0  0
 36 37  1  0  0  0  0
 37 32  1  6  0  0  0
 38 39  1  6  0  0  0
 40 38  1  0  0  0  0
 41 40  1  0  0  0  0
M  END
>  <MODEL>
2

>  <REMARK>
 VINA RESULT:      -7.0      4.870     10.816
  Name = 
  15 active torsions:
  status: ('A' for Active; 'I' for Inactive)
    1  A    between atoms: C_1  and  O_27
    2  A    between atoms: C_1  and  C_28
    3  A    between atoms: N_5  and  O_30
    4  A    between atoms: N_5  and  S_36
    5  A    between atoms: N_6  and  C_11
    6  A    between atoms: C_10  and  C_11
    7  A    between atoms: C_10  and  O_27
    8  A    between atoms: C_16  and  C_38
    9  A    between atoms: C_21  and  N_23
   10  A    between atoms: N_22  and  N_23
   11  A    between atoms: N_22  and  O_30
   12  A    between atoms: C_31  and  C_38
   13  A    between atoms: N_32  and  C_35
   14  A    between atoms: N_32  and  C_37
   15  A    between atoms: C_33  and  C_35
                            x       y       z     vdW  Elec       q    Type
                         _______ _______ _______ _____ _____    ______ ____

>  <TORSDO>
F 15

$$$$
=
 OpenBabel10222416513D

 41 45  0  0  1  0  0  0  0  0999 V2000
  183.5210  178.0920  143.7020 C   0  0  1  0  0  3  0  0  0  0  0  0
  183.3390  179.1310  139.0240 C   0  0  0  0  0  3  0  0  0  0  0  0
  183.6610  179.0070  144.8810 C   0  0  0  0  0  3  0  0  0  0  0  0
  184.8450  179.1650  145.4780 C   0  0  0  0  0  3  0  0  0  0  0  0
  183.2940  178.6740  141.4710 C   0  0  0  0  0  0  0  0  0  0  0  0
  181.3900  179.5490  140.2340 N   0  0  0  0  0  0  0  0  0  0  0  0
  182.7260  179.0870  140.3410 C   0  0  0  0  0  0  0  0  0  0  0  0
  186.0760  178.5270  144.9540 C   0  0  0  0  0  0  0  0  0  0  0  0
  182.6120  178.6500  142.7170 N   0  0  0  0  0  2  0  0  0  0  0  0
  184.8050  177.9250  143.0180 N   0  0  0  0  0  0  0  0  0  0  0  0
  186.0550  177.9470  143.7310 C   0  0  0  0  0  0  0  0  0  0  0  0
  181.2770  179.8370  138.9780 C   0  0  0  0  0  0  0  0  0  0  0  0
  184.6930  178.2050  141.5940 C   0  0  0  0  0  2  0  0  0  0  0  0
  182.4510  179.5840  138.2020 N   0  0  0  0  0  0  0  0  0  0  0  0
  187.2590  177.3580  143.0890 C   0  0  0  0  0  0  0  0  0  0  0  0
  187.5240  176.1300  143.2010 O   0  0  0  0  0  0  0  0  0  0  0  0
  188.1140  178.1910  142.3660 O   0  0  0  0  0  0  0  0  0  0  0  0
  188.8570  177.7280  141.2490 C   0  0  0  0  0  2  0  0  0  0  0  0
  188.2180  178.2350  139.9690 C   0  0  0  0  0  2  0  0  0  0  0  0
  189.2460  178.6770  139.0420 N   0  0  0  0  0  0  0  0  0  0  0  0
  189.5360  177.5360  138.1620 C   0  0  0  0  0  2  0  0  0  0  0  0
  188.6610  178.6030  137.6960 C   0  0  0  0  0  2  0  0  0  0  0  0
  187.2760  178.5810  145.7310 N   0  0  0  0  0  2  0  0  0  0  0  0
  187.6000  177.5730  146.6500 N   0  0  0  0  0  2  0  0  0  0  0  0
  188.7870  177.0540  146.2570 O   0  0  0  0  0  0  0  0  0  0  0  0
  189.4660  178.1080  145.7470 N   0  0  0  0  0  2  0  0  0  0  0  0
  191.6410  178.7480  144.0060 C   0  0  0  0  0  1  0  0  0  0  0  0
  191.8710  177.0500  146.0680 O   0  0  0  0  0  0  0  0  0  0  0  0
  190.5450  176.3050  144.1410 O   0  0  0  0  0  0  0  0  0  0  0  0
  190.8980  177.4810  145.0070 S   0  0  0  0  0  0  0  0  0  0  0  0
  180.0050  180.3260  138.3820 C   0  0  0  0  0  2  0  0  0  0  0  0
  180.0890  181.7600  138.1670 N   0  0  0  0  0  2  0  0  0  0  0  0
  178.9320  182.3440  135.2070 C   0  0  0  0  0  2  0  0  0  0  0  0
  180.5010  183.4030  136.3790 C   0  0  2  0  0  3  0  0  0  0  0  0
  179.2290  183.5720  135.8210 O   0  0  0  0  0  0  0  0  0  0  0  0
  179.7620  181.2440  135.8460 C   0  0  0  0  0  2  0  0  0  0  0  0
  180.6370  181.9560  136.8330 C   0  0  2  0  0  3  0  0  0  0  0  0
  180.8100  184.4930  137.4180 C   0  0  1  0  0  3  0  0  0  0  0  0
  182.1220  184.9540  137.2930 O   0  0  0  0  0  1  0  0  0  0  0  0
  179.8380  185.6620  137.3400 C   0  0  0  0  0  2  0  0  0  0  0  0
  179.0230  185.7620  138.6170 C   0  0  0  0  0  1  0  0  0  0  0  0
  1  3  1  1  0  0  0
  2  7  1  0  0  0  0
  3  4  2  0  0  0  0
  5 13  1  0  0  0  0
  5  9  1  0  0  0  0
  6  7  1  0  0  0  0
  7  5  2  0  0  0  0
  8  4  1  0  0  0  0
  8 23  1  0  0  0  0
  9  1  1  0  0  0  0
 10  1  1  0  0  0  0
 10 11  1  0  0  0  0
 11  8  2  0  0  0  0
 12  6  2  0  0  0  0
 13 10  1  0  0  0  0
 14 12  1  0  0  0  0
 14  2  2  0  0  0  0
 15 16  2  0  0  0  0
 15 11  1  0  0  0  0
 17 15  1  0  0  0  0
 18 17  1  0  0  0  0
 19 18  1  0  0  0  0
 20 19  1  0  0  0  0
 21 20  1  0  0  0  0
 22 21  1  0  0  0  0
 22 20  1  0  0  0  0
 23 24  1  0  0  0  0
 25 24  1  0  0  0  0
 26 25  1  0  0  0  0
 27 30  1  0  0  0  0
 29 30  2  0  0  0  0
 30 26  1  0  0  0  0
 30 28  2  0  0  0  0
 31 12  1  0  0  0  0
 32 31  1  0  0  0  0
 33 35  1  0  0  0  0
 33 36  1  0  0  0  0
 34 37  1  0  0  0  0
 34 38  1  1  0  0  0
 35 34  1  0  0  0  0
 36 37  1  0  0  0  0
 37 32  1  1  0  0  0
 38 39  1  6  0  0  0
 40 38  1  0  0  0  0
 40 41  1  0  0  0  0
M  END
>  <MODEL>
3

>  <REMARK>
 VINA RESULT:      -6.9      3.515     10.877
  Name = 
  15 active torsions:
  status: ('A' for Active; 'I' for Inactive)
    1  A    between atoms: C_1  and  O_27
    2  A    between atoms: C_1  and  C_28
    3  A    between atoms: N_5  and  O_30
    4  A    between atoms: N_5  and  S_36
    5  A    between atoms: N_6  and  C_11
    6  A    between atoms: C_10  and  C_11
    7  A    between atoms: C_10  and  O_27
    8  A    between atoms: C_16  and  C_38
    9  A    between atoms: C_21  and  N_23
   10  A    between atoms: N_22  and  N_23
   11  A    between atoms: N_22  and  O_30
   12  A    between atoms: C_31  and  C_38
   13  A    between atoms: N_32  and  C_35
   14  A    between atoms: N_32  and  C_37
   15  A    between atoms: C_33  and  C_35
                            x       y       z     vdW  Elec       q    Type
                         _______ _______ _______ _____ _____    ______ ____

>  <TORSDO>
F 15

$$$$
=
 OpenBabel10222416513D

 41 45  0  0  1  0  0  0  0  0999 V2000
  185.9160  179.0090  139.8530 C   0  0  1  0  0  3  0  0  0  0  0  0
  190.1650  177.1280  141.0350 C   0  0  0  0  0  3  0  0  0  0  0  0
  184.5350  178.4680  140.0730 C   0  0  0  0  0  3  0  0  0  0  0  0
  183.8770  177.8680  139.0780 C   0  0  0  0  0  3  0  0  0  0  0  0
  187.9240  178.1130  140.5810 C   0  0  0  0  0  0  0  0  0  0  0  0
  188.9560  178.0860  142.7840 N   0  0  0  0  0  0  0  0  0  0  0  0
  188.9280  177.7980  141.3960 C   0  0  2  0  0  3  0  0  0  0  0  0
  184.5070  177.6270  137.7570 C   0  0  0  0  0  0  0  0  0  0  0  0
  186.7520  178.7850  141.0190 N   0  0  0  0  0  0  0  0  0  0  0  0
  186.5750  178.3160  138.7430 N   0  0  0  0  0  0  0  0  0  0  0  0
  185.8380  177.8210  137.6110 C   0  0  0  0  0  0  0  0  0  0  0  0
  190.0970  177.6060  143.1610 C   0  0  0  0  0  0  0  0  0  0  0  0
  187.8800  177.8030  139.1330 C   0  0  0  0  0  2  0  0  0  0  0  0
  190.8710  177.0190  142.1120 N   0  0  0  0  0  0  0  0  0  0  0  0
  186.5700  177.5260  136.3510 C   0  0  0  0  0  0  0  0  0  0  0  0
  186.8790  178.4470  135.5450 O   0  0  0  0  0  0  0  0  0  0  0  0
  186.9000  176.2030  136.0560 O   0  0  0  0  0  0  0  0  0  0  0  0
  187.6240  175.8450  134.8880 C   0  0  0  0  0  2  0  0  0  0  0  0
  188.8340  175.0160  135.2760 C   0  0  0  0  0  2  0  0  0  0  0  0
  188.6570  174.4740  136.6120 N   0  0  0  0  0  0  0  0  0  0  0  0
  188.8760  173.0240  136.5090 C   0  0  0  0  0  2  0  0  0  0  0  0
  189.9450  173.8820  137.0020 C   0  0  0  0  0  2  0  0  0  0  0  0
  183.7010  177.1480  136.6770 N   0  0  0  0  0  2  0  0  0  0  0  0
  182.6820  176.2080  136.8850 N   0  0  0  0  0  2  0  0  0  0  0  0
  183.1790  175.0040  136.5160 O   0  0  0  0  0  0  0  0  0  0  0  0
  184.0100  174.6560  137.5260 N   0  0  0  0  0  2  0  0  0  0  0  0
  183.4630  171.8990  137.0070 C   0  0  0  0  0  1  0  0  0  0  0  0
  185.4030  173.2640  135.7570 O   0  0  0  0  0  0  0  0  0  0  0  0
  185.7410  172.7510  138.1340 O   0  0  0  0  0  0  0  0  0  0  0  0
  184.7290  173.1430  137.0950 S   0  0  0  0  0  0  0  0  0  0  0  0
  190.5880  177.7210  144.5600 C   0  0  0  0  0  2  0  0  0  0  0  0
  189.5620  178.3320  145.3880 N   0  0  0  0  0  2  0  0  0  0  0  0
  188.7700  177.9230  148.4940 C   0  0  0  0  0  2  0  0  0  0  0  0
  187.5730  177.6040  146.6430 C   0  0  2  0  0  3  0  0  0  0  0  0
  187.6400  178.3870  147.8010 O   0  0  0  0  0  0  0  0  0  0  0  0
  189.7160  177.2410  147.5190 C   0  0  0  0  0  2  0  0  0  0  0  0
  188.9930  177.2720  146.2070 C   0  0  2  0  0  3  0  0  0  0  0  0
  186.6470  178.2320  145.5900 C   0  0  1  0  0  3  0  0  0  0  0  0
  186.2810  177.3000  144.6170 O   0  0  0  0  0  1  0  0  0  0  0  0
  185.4040  178.8570  146.2070 C   0  0  0  0  0  2  0  0  0  0  0  0
  184.2480  178.8230  145.2240 C   0  0  0  0  0  1  0  0  0  0  0  0
  1  3  1  1  0  0  0
  1  9  1  0  0  0  0
  2  7  1  0  0  0  0
  2 14  2  0  0  0  0
  4  3  2  0  0  0  0
  5  9  2  0  0  0  0
  6 12  2  0  0  0  0
  7  5  1  6  0  0  0
  7  6  1  0  0  0  0
  8  4  1  0  0  0  0
 10 13  1  0  0  0  0
 10  1  1  0  0  0  0
 11  8  2  0  0  0  0
 11 10  1  0  0  0  0
 12 31  1  0  0  0  0
 13  5  1  0  0  0  0
 14 12  1  0  0  0  0
 15 11  1  0  0  0  0
 16 15  2  0  0  0  0
 17 15  1  0  0  0  0
 18 19  1  0  0  0  0
 18 17  1  0  0  0  0
 19 20  1  0  0  0  0
 20 22  1  0  0  0  0
 21 20  1  0  0  0  0
 21 22  1  0  0  0  0
 23 24  1  0  0  0  0
 23  8  1  0  0  0  0
 25 24  1  0  0  0  0
 25 26  1  0  0  0  0
 27 30  1  0  0  0  0
 28 30  2  0  0  0  0
 30 26  1  0  0  0  0
 30 29  2  0  0  0  0
 31 32  1  0  0  0  0
 34 38  1  6  0  0  0
 34 35  1  0  0  0  0
 35 33  1  0  0  0  0
 36 33  1  0  0  0  0
 37 32  1  6  0  0  0
 37 34  1  0  0  0  0
 37 36  1  0  0  0  0
 38 39  1  6  0  0  0
 38 40  1  0  0  0  0
 41 40  1  0  0  0  0
M  END
>  <MODEL>
4

>  <REMARK>
 VINA RESULT:      -6.7      4.823      7.017
  Name = 
  15 active torsions:
  status: ('A' for Active; 'I' for Inactive)
    1  A    between atoms: C_1  and  O_27
    2  A    between atoms: C_1  and  C_28
    3  A    between atoms: N_5  and  O_30
    4  A    between atoms: N_5  and  S_36
    5  A    between atoms: N_6  and  C_11
    6  A    between atoms: C_10  and  C_11
    7  A    between atoms: C_10  and  O_27
    8  A    between atoms: C_16  and  C_38
    9  A    between atoms: C_21  and  N_23
   10  A    between atoms: N_22  and  N_23
   11  A    between atoms: N_22  and  O_30
   12  A    between atoms: C_31  and  C_38
   13  A    between atoms: N_32  and  C_35
   14  A    between atoms: N_32  and  C_37
   15  A    between atoms: C_33  and  C_35
                            x       y       z     vdW  Elec       q    Type
                         _______ _______ _______ _____ _____    ______ ____

>  <TORSDO>
F 15

$$$$
=
 OpenBabel10222416513D

 41 45  0  0  1  0  0  0  0  0999 V2000
  185.9820  178.9440  139.7770 C   0  0  1  0  0  3  0  0  0  0  0  0
  190.2230  177.1150  141.0670 C   0  0  0  0  0  3  0  0  0  0  0  0
  184.6030  178.3880  139.9670 C   0  0  0  0  0  3  0  0  0  0  0  0
  183.9750  177.7770  138.9600 C   0  0  0  0  0  3  0  0  0  0  0  0
  187.9830  178.0740  140.5560 C   0  0  0  0  0  0  0  0  0  0  0  0
  188.9630  178.0670  142.7830 N   0  0  0  0  0  0  0  0  0  0  0  0
  188.9700  177.7730  141.3960 C   0  0  2  0  0  3  0  0  0  0  0  0
  184.6380  177.5370  137.6550 C   0  0  0  0  0  0  0  0  0  0  0  0
  186.7930  178.7350  140.9630 N   0  0  0  0  0  0  0  0  0  0  0  0
  186.6750  178.2530  138.6870 N   0  0  0  0  0  0  0  0  0  0  0  0
  185.9700  177.7450  137.5400 C   0  0  0  0  0  0  0  0  0  0  0  0
  190.1000  177.6020  143.1880 C   0  0  0  0  0  0  0  0  0  0  0  0
  187.9760  177.7560  139.1090 C   0  0  0  0  0  2  0  0  0  0  0  0
  190.9050  177.0190  142.1600 N   0  0  0  0  0  0  0  0  0  0  0  0
  186.7340  177.4530  136.2990 C   0  0  0  0  0  0  0  0  0  0  0  0
  186.7690  178.2770  135.3440 O   0  0  0  0  0  0  0  0  0  0  0  0
  187.4060  176.2350  136.1900 O   0  0  0  0  0  0  0  0  0  0  0  0
  186.7880  175.0730  135.6560 C   0  0  0  0  0  2  0  0  0  0  0  0
  186.3510  174.1640  136.7890 C   0  0  0  0  0  2  0  0  0  0  0  0
  185.0590  173.5740  136.4830 N   0  0  0  0  0  0  0  0  0  0  0  0
  185.2920  172.1390  136.2720 C   0  0  0  0  0  2  0  0  0  0  0  0
  184.7730  172.6060  137.5500 C   0  0  0  0  0  2  0  0  0  0  0  0
  183.8630  177.0440  136.5590 N   0  0  0  0  0  2  0  0  0  0  0  0
  182.4900  176.7910  136.6880 N   0  0  0  0  0  2  0  0  0  0  0  0
  182.3160  175.4650  136.4780 O   0  0  0  0  0  0  0  0  0  0  0  0
  182.0340  174.9620  137.7040 N   0  0  0  0  0  2  0  0  0  0  0  0
  181.0420  172.3920  136.9400 C   0  0  0  0  0  1  0  0  0  0  0  0
  179.9290  173.8690  138.8800 O   0  0  0  0  0  0  0  0  0  0  0  0
  179.6620  174.6600  136.5710 O   0  0  0  0  0  0  0  0  0  0  0  0
  180.6020  174.0050  137.5430 S   0  0  0  0  0  0  0  0  0  0  0  0
  190.5570  177.7290  144.5980 C   0  0  0  0  0  2  0  0  0  0  0  0
  189.5000  178.3180  145.4010 N   0  0  0  0  0  2  0  0  0  0  0  0
  188.8010  177.9810  148.5380 C   0  0  0  0  0  2  0  0  0  0  0  0
  187.5720  177.5600  146.7300 C   0  0  2  0  0  3  0  0  0  0  0  0
  187.6380  178.3820  147.8610 O   0  0  0  0  0  0  0  0  0  0  0  0
  189.7470  177.3030  147.5610 C   0  0  0  0  0  2  0  0  0  0  0  0
  188.9920  177.2650  146.2670 C   0  0  2  0  0  3  0  0  0  0  0  0
  186.5970  178.1200  145.6820 C   0  0  1  0  0  3  0  0  0  0  0  0
  186.3310  177.1800  144.6840 O   0  0  0  0  0  1  0  0  0  0  0  0
  185.2930  178.6050  146.3010 C   0  0  0  0  0  2  0  0  0  0  0  0
  184.2770  178.9220  145.2190 C   0  0  0  0  0  1  0  0  0  0  0  0
  1  3  1  1  0  0  0
  1  9  1  0  0  0  0
  2  7  1  0  0  0  0
  2 14  2  0  0  0  0
  4  3  2  0  0  0  0
  5  9  2  0  0  0  0
  6 12  2  0  0  0  0
  7  5  1  6  0  0  0
  7  6  1  0  0  0  0
  8  4  1  0  0  0  0
 10 13  1  0  0  0  0
 10  1  1  0  0  0  0
 11  8  2  0  0  0  0
 11 10  1  0  0  0  0
 12 31  1  0  0  0  0
 13  5  1  0  0  0  0
 14 12  1  0  0  0  0
 15 11  1  0  0  0  0
 16 15  2  0  0  0  0
 17 15  1  0  0  0  0
 18 17  1  0  0  0  0
 18 19  1  0  0  0  0
 20 19  1  0  0  0  0
 20 22  1  0  0  0  0
 21 20  1  0  0  0  0
 21 22  1  0  0  0  0
 23 24  1  0  0  0  0
 23  8  1  0  0  0  0
 25 24  1  0  0  0  0
 25 26  1  0  0  0  0
 27 30  1  0  0  0  0
 29 30  2  0  0  0  0
 30 26  1  0  0  0  0
 30 28  2  0  0  0  0
 31 32  1  0  0  0  0
 34 38  1  6  0  0  0
 34 35  1  0  0  0  0
 35 33  1  0  0  0  0
 36 33  1  0  0  0  0
 37 32  1  6  0  0  0
 37 34  1  0  0  0  0
 37 36  1  0  0  0  0
 38 39  1  6  0  0  0
 38 40  1  0  0  0  0
 41 40  1  0  0  0  0
M  END
>  <MODEL>
5

>  <REMARK>
 VINA RESULT:      -6.6      4.380      6.368
  Name = 
  15 active torsions:
  status: ('A' for Active; 'I' for Inactive)
    1  A    between atoms: C_1  and  O_27
    2  A    between atoms: C_1  and  C_28
    3  A    between atoms: N_5  and  O_30
    4  A    between atoms: N_5  and  S_36
    5  A    between atoms: N_6  and  C_11
    6  A    between atoms: C_10  and  C_11
    7  A    between atoms: C_10  and  O_27
    8  A    between atoms: C_16  and  C_38
    9  A    between atoms: C_21  and  N_23
   10  A    between atoms: N_22  and  N_23
   11  A    between atoms: N_22  and  O_30
   12  A    between atoms: C_31  and  C_38
   13  A    between atoms: N_32  and  C_35
   14  A    between atoms: N_32  and  C_37
   15  A    between atoms: C_33  and  C_35
                            x       y       z     vdW  Elec       q    Type
                         _______ _______ _______ _____ _____    ______ ____

>  <TORSDO>
F 15

$$$$
=
 OpenBabel10222416513D

 41 45  0  0  1  0  0  0  0  0999 V2000
  188.6280  178.5110  139.8620 C   0  0  1  0  0  3  0  0  0  0  0  0
  184.2050  178.8720  141.6780 C   0  0  0  0  0  3  0  0  0  0  0  0
  189.3840  177.2950  139.4200 C   0  0  0  0  0  3  0  0  0  0  0  0
  190.3080  176.7470  140.2130 C   0  0  0  0  0  3  0  0  0  0  0  0
  186.4340  178.6290  140.5960 C   0  0  0  0  0  0  0  0  0  0  0  0
  184.3320  178.5260  139.3750 N   0  0  0  0  0  0  0  0  0  0  0  0
  185.1040  178.6680  140.5560 C   0  0  2  0  0  3  0  0  0  0  0  0
  190.5590  177.2510  141.5850 C   0  0  0  0  0  0  0  0  0  0  0  0
  187.2400  178.4380  139.4420 N   0  0  0  0  0  0  0  0  0  0  0  0
  188.6040  178.6060  141.3230 N   0  0  0  0  0  0  0  0  0  0  0  0
  189.6980  178.1400  142.1330 C   0  0  0  0  0  0  0  0  0  0  0  0
  183.1160  178.6260  139.8050 C   0  0  0  0  0  0  0  0  0  0  0  0
  187.2480  178.7610  141.8270 C   0  0  0  0  0  2  0  0  0  0  0  0
  183.0000  178.8500  141.2120 N   0  0  0  0  0  0  0  0  0  0  0  0
  189.8210  178.6360  143.5290 C   0  0  0  0  0  0  0  0  0  0  0  0
  190.7850  179.3700  143.8780 O   0  0  0  0  0  0  0  0  0  0  0  0
  188.8560  178.2620  144.4650 O   0  0  0  0  0  0  0  0  0  0  0  0
  188.2630  176.9720  144.4680 C   0  0  0  0  0  2  0  0  0  0  0  0
  186.8230  177.0760  144.9340 C   0  0  0  0  0  2  0  0  0  0  0  0
  186.5610  178.4120  145.4410 N   0  0  0  0  0  0  0  0  0  0  0  0
  185.1130  178.6320  145.3160 C   0  0  0  0  0  2  0  0  0  0  0  0
  185.6780  178.2570  146.6050 C   0  0  0  0  0  2  0  0  0  0  0  0
  191.6780  176.7470  142.3200 N   0  0  0  0  0  2  0  0  0  0  0  0
  191.5230  175.7640  143.3080 N   0  0  0  0  0  2  0  0  0  0  0  0
  192.0360  176.2760  144.4520 O   0  0  0  0  0  0  0  0  0  0  0  0
  191.6080  175.4340  145.4220 N   0  0  0  0  0  2  0  0  0  0  0  0
  192.5270  175.8030  148.1030 C   0  0  0  0  0  1  0  0  0  0  0  0
  191.6770  177.8240  146.5600 O   0  0  0  0  0  0  0  0  0  0  0  0
  189.9880  176.2290  147.3560 O   0  0  0  0  0  0  0  0  0  0  0  0
  191.3980  176.3770  146.8570 S   0  0  0  0  0  0  0  0  0  0  0  0
  181.9420  178.5830  138.8940 C   0  0  0  0  0  2  0  0  0  0  0  0
  181.7440  179.8900  138.2910 N   0  0  0  0  0  2  0  0  0  0  0  0
  179.3760  181.2480  140.0190 C   0  0  0  0  0  2  0  0  0  0  0  0
  179.9610  181.5380  137.8900 C   0  0  2  0  0  3  0  0  0  0  0  0
  179.8770  182.2030  139.1190 O   0  0  0  0  0  0  0  0  0  0  0  0
  179.6670  179.8530  139.4920 C   0  0  0  0  0  2  0  0  0  0  0  0
  180.3080  180.0800  138.1560 C   0  0  2  0  0  3  0  0  0  0  0  0
  180.8530  182.3000  136.8970 C   0  0  1  0  0  3  0  0  0  0  0  0
  180.3820  182.1680  135.5890 O   0  0  0  0  0  1  0  0  0  0  0  0
  180.9940  183.7730  137.2530 C   0  0  0  0  0  2  0  0  0  0  0  0
  180.9010  184.6330  136.0060 C   0  0  0  0  0  1  0  0  0  0  0  0
  1  3  1  1  0  0  0
  1 10  1  0  0  0  0
  3  4  2  0  0  0  0
  4  8  1  0  0  0  0
  5 13  1  0  0  0  0
  6 12  2  0  0  0  0
  6  7  1  0  0  0  0
  7  5  1  6  0  0  0
  7  2  1  0  0  0  0
  8 11  2  0  0  0  0
  8 23  1  0  0  0  0
  9  1  1  0  0  0  0
  9  5  2  0  0  0  0
 10 13  1  0  0  0  0
 10 11  1  0  0  0  0
 11 15  1  0  0  0  0
 12 14  1  0  0  0  0
 14  2  2  0  0  0  0
 15 16  2  0  0  0  0
 15 17  1  0  0  0  0
 17 18  1  0  0  0  0
 18 19  1  0  0  0  0
 19 20  1  0  0  0  0
 20 22  1  0  0  0  0
 21 20  1  0  0  0  0
 21 22  1  0  0  0  0
 23 24  1  0  0  0  0
 24 25  1  0  0  0  0
 25 26  1  0  0  0  0
 26 30  1  0  0  0  0
 28 30  2  0  0  0  0
 30 29  2  0  0  0  0
 30 27  1  0  0  0  0
 31 12  1  0  0  0  0
 32 31  1  0  0  0  0
 34 38  1  6  0  0  0
 34 37  1  0  0  0  0
 34 35  1  0  0  0  0
 35 33  1  0  0  0  0
 36 33  1  0  0  0  0
 37 32  1  1  0  0  0
 37 36  1  0  0  0  0
 38 39  1  6  0  0  0
 38 40  1  0  0  0  0
 41 40  1  0  0  0  0
M  END
>  <MODEL>
6

>  <REMARK>
 VINA RESULT:      -6.3      3.583     11.033
  Name = 
  15 active torsions:
  status: ('A' for Active; 'I' for Inactive)
    1  A    between atoms: C_1  and  O_27
    2  A    between atoms: C_1  and  C_28
    3  A    between atoms: N_5  and  O_30
    4  A    between atoms: N_5  and  S_36
    5  A    between atoms: N_6  and  C_11
    6  A    between atoms: C_10  and  C_11
    7  A    between atoms: C_10  and  O_27
    8  A    between atoms: C_16  and  C_38
    9  A    between atoms: C_21  and  N_23
   10  A    between atoms: N_22  and  N_23
   11  A    between atoms: N_22  and  O_30
   12  A    between atoms: C_31  and  C_38
   13  A    between atoms: N_32  and  C_35
   14  A    between atoms: N_32  and  C_37
   15  A    between atoms: C_33  and  C_35
                            x       y       z     vdW  Elec       q    Type
                         _______ _______ _______ _____ _____    ______ ____

>  <TORSDO>
F 15

$$$$
=
 OpenBabel10222416513D

 41 45  0  0  1  0  0  0  0  0999 V2000
  184.3310  179.4160  142.1700 C   0  0  1  0  0  3  0  0  0  0  0  0
  188.0110  177.8850  139.5030 C   0  0  0  0  0  3  0  0  0  0  0  0
  183.3480  178.6310  142.9830 C   0  0  0  0  0  3  0  0  0  0  0  0
  182.1250  178.3780  142.5080 C   0  0  0  0  0  3  0  0  0  0  0  0
  186.1780  178.6200  141.0190 C   0  0  0  0  0  0  0  0  0  0  0  0
  188.3580  177.8850  141.8090 N   0  0  0  0  0  0  0  0  0  0  0  0
  187.4080  178.1650  140.7950 C   0  0  0  0  0  0  0  0  0  0  0  0
  181.7220  178.7740  141.1380 C   0  0  0  0  0  0  0  0  0  0  0  0
  185.6730  178.8810  142.3210 N   0  0  0  0  0  2  0  0  0  0  0  0
  184.0170  179.3230  140.7420 N   0  0  0  0  0  0  0  0  0  0  0  0
  182.6640  179.2080  140.2680 C   0  0  0  0  0  0  0  0  0  0  0  0
  189.3880  177.4730  141.1420 C   0  0  0  0  0  0  0  0  0  0  0  0
  185.1740  178.9010  139.9660 C   0  0  0  0  0  2  0  0  0  0  0  0
  189.2140  177.4700  139.7230 N   0  0  0  0  0  0  0  0  0  0  0  0
  182.3680  179.5460  138.8510 C   0  0  0  0  0  0  0  0  0  0  0  0
  182.2760  178.6470  137.9710 O   0  0  0  0  0  0  0  0  0  0  0  0
  182.2090  180.8860  138.4960 O   0  0  0  0  0  0  0  0  0  0  0  0
  181.0270  181.6140  138.7910 C   0  0  0  0  0  2  0  0  0  0  0  0
  180.6120  182.4240  137.5770 C   0  0  0  0  0  2  0  0  0  0  0  0
  181.4800  183.5810  137.4340 N   0  0  0  0  0  0  0  0  0  0  0  0
  181.2050  184.1490  136.1070 C   0  0  0  0  0  2  0  0  0  0  0  0
  180.6020  184.7510  137.2870 C   0  0  0  0  0  2  0  0  0  0  0  0
  180.3520  178.6420  140.7480 N   0  0  0  0  0  2  0  0  0  0  0  0
  179.3850  178.1390  141.6290 N   0  0  0  0  0  2  0  0  0  0  0  0
  179.3220  176.8030  141.4180 O   0  0  0  0  0  0  0  0  0  0  0  0
  179.1100  176.6800  140.0870 N   0  0  0  0  0  2  0  0  0  0  0  0
  179.6470  174.9910  137.8440 C   0  0  0  0  0  1  0  0  0  0  0  0
  181.4930  175.5960  139.6910 O   0  0  0  0  0  0  0  0  0  0  0  0
  179.6640  174.1090  140.3750 O   0  0  0  0  0  0  0  0  0  0  0  0
  180.0240  175.3120  139.5510 S   0  0  0  0  0  0  0  0  0  0  0  0
  190.6680  177.1020  141.8010 C   0  0  0  0  0  2  0  0  0  0  0  0
  190.3920  176.4210  143.0540 N   0  0  0  0  0  2  0  0  0  0  0  0
  191.2830  179.3920  143.9570 C   0  0  0  0  0  2  0  0  0  0  0  0
  190.4800  177.6970  145.1570 C   0  0  2  0  0  3  0  0  0  0  0  0
  190.1830  178.9990  144.7370 O   0  0  0  0  0  0  0  0  0  0  0  0
  192.0010  178.1590  143.4360 C   0  0  0  0  0  2  0  0  0  0  0  0
  191.2710  177.0060  144.0550 C   0  0  2  0  0  3  0  0  0  0  0  0
  189.2280  176.9730  145.6780 C   0  0  1  0  0  3  0  0  0  0  0  0
  189.4360  176.4620  146.9610 O   0  0  0  0  0  1  0  0  0  0  0  0
  187.9940  177.8650  145.6670 C   0  0  0  0  0  2  0  0  0  0  0  0
  186.8100  177.1270  145.0690 C   0  0  0  0  0  1  0  0  0  0  0  0
  1  9  1  0  0  0  0
  1  3  1  1  0  0  0
  2 14  2  0  0  0  0
  2  7  1  0  0  0  0
  4  3  2  0  0  0  0
  5  9  1  0  0  0  0
  7  5  2  0  0  0  0
  7  6  1  0  0  0  0
  8  4  1  0  0  0  0
 10  1  1  0  0  0  0
 11 10  1  0  0  0  0
 11  8  2  0  0  0  0
 12 31  1  0  0  0  0
 12  6  2  0  0  0  0
 13 10  1  0  0  0  0
 13  5  1  0  0  0  0
 14 12  1  0  0  0  0
 15 11  1  0  0  0  0
 16 15  2  0  0  0  0
 17 18  1  0  0  0  0
 17 15  1  0  0  0  0
 19 18  1  0  0  0  0
 20 19  1  0  0  0  0
 21 22  1  0  0  0  0
 21 20  1  0  0  0  0
 22 20  1  0  0  0  0
 23  8  1  0  0  0  0
 23 24  1  0  0  0  0
 25 24  1  0  0  0  0
 26 25  1  0  0  0  0
 27 30  1  0  0  0  0
 30 28  2  0  0  0  0
 30 26  1  0  0  0  0
 30 29  2  0  0  0  0
 31 32  1  0  0  0  0
 33 35  1  0  0  0  0
 34 38  1  6  0  0  0
 35 34  1  0  0  0  0
 36 33  1  0  0  0  0
 36 37  1  0  0  0  0
 37 32  1  6  0  0  0
 37 34  1  0  0  0  0
 38 39  1  1  0  0  0
 40 38  1  0  0  0  0
 41 40  1  0  0  0  0
M  END
>  <MODEL>
7

>  <REMARK>
 VINA RESULT:      -6.3      2.767      5.669
  Name = 
  15 active torsions:
  status: ('A' for Active; 'I' for Inactive)
    1  A    between atoms: C_1  and  O_27
    2  A    between atoms: C_1  and  C_28
    3  A    between atoms: N_5  and  O_30
    4  A    between atoms: N_5  and  S_36
    5  A    between atoms: N_6  and  C_11
    6  A    between atoms: C_10  and  C_11
    7  A    between atoms: C_10  and  O_27
    8  A    between atoms: C_16  and  C_38
    9  A    between atoms: C_21  and  N_23
   10  A    between atoms: N_22  and  N_23
   11  A    between atoms: N_22  and  O_30
   12  A    between atoms: C_31  and  C_38
   13  A    between atoms: N_32  and  C_35
   14  A    between atoms: N_32  and  C_37
   15  A    between atoms: C_33  and  C_35
                            x       y       z     vdW  Elec       q    Type
                         _______ _______ _______ _____ _____    ______ ____

>  <TORSDO>
F 15

$$$$
=
 OpenBabel10222416513D

 41 45  0  0  1  0  0  0  0  0999 V2000
  183.8780  178.0150  140.9290 C   0  0  1  0  0  3  0  0  0  0  0  0
  184.0700  178.7330  145.6660 C   0  0  0  0  0  3  0  0  0  0  0  0
  184.3960  178.8670  139.8100 C   0  0  0  0  0  3  0  0  0  0  0  0
  183.5680  179.6590  139.1240 C   0  0  0  0  0  3  0  0  0  0  0  0
  184.1340  178.3520  143.2060 C   0  0  0  0  0  0  0  0  0  0  0  0
  186.0520  178.0160  144.6660 N   0  0  0  0  0  0  0  0  0  0  0  0
  184.7030  178.3710  144.4090 C   0  0  2  0  0  3  0  0  0  0  0  0
  182.1390  179.8020  139.4910 C   0  0  0  0  0  0  0  0  0  0  0  0
  184.8260  177.9680  142.0270 N   0  0  0  0  0  0  0  0  0  0  0  0
  182.6450  178.5780  141.4840 N   0  0  0  0  0  0  0  0  0  0  0  0
  181.7020  179.2940  140.6660 C   0  0  0  0  0  0  0  0  0  0  0  0
  186.1620  178.1820  145.9440 C   0  0  0  0  0  0  0  0  0  0  0  0
  182.7300  178.7350  142.9280 C   0  0  0  0  0  2  0  0  0  0  0  0
  184.9620  178.6110  146.5930 N   0  0  0  0  0  0  0  0  0  0  0  0
  180.3080  179.4620  141.1560 C   0  0  0  0  0  0  0  0  0  0  0  0
  179.9920  180.4250  141.9070 O   0  0  0  0  0  0  0  0  0  0  0  0
  179.3450  178.5220  140.7880 O   0  0  0  0  0  0  0  0  0  0  0  0
  179.6710  177.3500  140.0550 C   0  0  0  0  0  2  0  0  0  0  0  0
  179.1420  176.1300  140.7850 C   0  0  0  0  0  2  0  0  0  0  0  0
  180.0840  175.0310  140.6630 N   0  0  0  0  0  0  0  0  0  0  0  0
  179.4030  173.8360  141.1780 C   0  0  0  0  0  2  0  0  0  0  0  0
  179.4810  174.0590  139.7410 C   0  0  0  0  0  2  0  0  0  0  0  0
  181.2620  180.5180  138.6160 N   0  0  0  0  0  2  0  0  0  0  0  0
  181.0730  180.1220  137.2840 N   0  0  0  0  0  2  0  0  0  0  0  0
  181.0640  178.7680  137.2760 O   0  0  0  0  0  0  0  0  0  0  0  0
  181.8180  178.4310  136.2040 N   0  0  0  0  0  2  0  0  0  0  0  0
  184.2250  176.8920  136.1200 C   0  0  0  0  0  1  0  0  0  0  0  0
  182.3320  176.5410  137.9850 O   0  0  0  0  0  0  0  0  0  0  0  0
  181.7980  175.8350  135.6950 O   0  0  0  0  0  0  0  0  0  0  0  0
  182.4960  176.8730  136.5280 S   0  0  0  0  0  0  0  0  0  0  0  0
  187.4160  177.8810  146.6830 C   0  0  0  0  0  2  0  0  0  0  0  0
  188.3050  177.1040  145.8360 N   0  0  0  0  0  2  0  0  0  0  0  0
  191.4430  176.5150  146.3330 C   0  0  0  0  0  2  0  0  0  0  0  0
  190.3960  177.3710  144.5640 C   0  0  2  0  0  3  0  0  0  0  0  0
  191.1500  176.2680  144.9820 O   0  0  0  0  0  0  0  0  0  0  0  0
  190.4200  177.4820  146.9040 C   0  0  0  0  0  2  0  0  0  0  0  0
  189.5520  177.8470  145.7390 C   0  0  2  0  0  3  0  0  0  0  0  0
  189.6600  177.0840  143.2460 C   0  0  1  0  0  3  0  0  0  0  0  0
  189.1060  178.2490  142.7110 O   0  0  0  0  0  1  0  0  0  0  0  0
  190.5560  176.4120  142.2140 C   0  0  0  0  0  2  0  0  0  0  0  0
  190.3020  176.9890  140.8340 C   0  0  0  0  0  1  0  0  0  0  0  0
  1  3  1  6  0  0  0
  1 10  1  0  0  0  0
  1  9  1  0  0  0  0
  2 14  2  0  0  0  0
  4  8  1  0  0  0  0
  4  3  2  0  0  0  0
  6 12  2  0  0  0  0
  7  5  1  1  0  0  0
  7  6  1  0  0  0  0
  7  2  1  0  0  0  0
  8 11  2  0  0  0  0
  9  5  2  0  0  0  0
 10 13  1  0  0  0  0
 11 15  1  0  0  0  0
 11 10  1  0  0  0  0
 12 14  1  0  0  0  0
 12 31  1  0  0  0  0
 13  5  1  0  0  0  0
 15 16  2  0  0  0  0
 17 15  1  0  0  0  0
 18 19  1  0  0  0  0
 18 17  1  0  0  0  0
 20 19  1  0  0  0  0
 20 21  1  0  0  0  0
 22 20  1  0  0  0  0
 22 21  1  0  0  0  0
 23  8  1  0  0  0  0
 24 23  1  0  0  0  0
 25 24  1  0  0  0  0
 26 30  1  0  0  0  0
 26 25  1  0  0  0  0
 27 30  1  0  0  0  0
 29 30  2  0  0  0  0
 30 28  2  0  0  0  0
 32 31  1  0  0  0  0
 33 36  1  0  0  0  0
 34 38  1  6  0  0  0
 34 35  1  0  0  0  0
 34 37  1  0  0  0  0
 35 33  1  0  0  0  0
 37 32  1  1  0  0  0
 37 36  1  0  0  0  0
 38 39  1  6  0  0  0
 40 38  1  0  0  0  0
 41 40  1  0  0  0  0
M  END
>  <MODEL>
8

>  <REMARK>
 VINA RESULT:      -6.3      2.402      3.097
  Name = 
  15 active torsions:
  status: ('A' for Active; 'I' for Inactive)
    1  A    between atoms: C_1  and  O_27
    2  A    between atoms: C_1  and  C_28
    3  A    between atoms: N_5  and  O_30
    4  A    between atoms: N_5  and  S_36
    5  A    between atoms: N_6  and  C_11
    6  A    between atoms: C_10  and  C_11
    7  A    between atoms: C_10  and  O_27
    8  A    between atoms: C_16  and  C_38
    9  A    between atoms: C_21  and  N_23
   10  A    between atoms: N_22  and  N_23
   11  A    between atoms: N_22  and  O_30
   12  A    between atoms: C_31  and  C_38
   13  A    between atoms: N_32  and  C_35
   14  A    between atoms: N_32  and  C_37
   15  A    between atoms: C_33  and  C_35
                            x       y       z     vdW  Elec       q    Type
                         _______ _______ _______ _____ _____    ______ ____

>  <TORSDO>
F 15

$$$$
=
 OpenBabel10222416513D

 41 45  0  0  1  0  0  0  0  0999 V2000
  190.0330  177.5510  141.6520 C   0  0  1  0  0  3  0  0  0  0  0  0
  189.8030  176.9860  136.8960 C   0  0  0  0  0  3  0  0  0  0  0  0
  189.8320  176.5460  142.7460 C   0  0  0  0  0  3  0  0  0  0  0  0
  188.6730  176.4870  143.4070 C   0  0  0  0  0  3  0  0  0  0  0  0
  190.0500  177.1770  139.3660 C   0  0  0  0  0  0  0  0  0  0  0  0
  191.7400  176.1870  137.9220 N   0  0  0  0  0  0  0  0  0  0  0  0
  190.4900  176.8110  138.1640 C   0  0  0  0  0  0  0  0  0  0  0  0
  187.5160  177.3350  143.0330 C   0  0  0  0  0  0  0  0  0  0  0  0
  190.7980  176.9800  140.5580 N   0  0  0  0  0  2  0  0  0  0  0  0
  188.7480  177.9580  141.0780 N   0  0  0  0  0  0  0  0  0  0  0  0
  187.5500  178.0300  141.8720 C   0  0  0  0  0  0  0  0  0  0  0  0
  191.7400  176.0180  136.6390 C   0  0  0  0  0  0  0  0  0  0  0  0
  188.7390  177.8140  139.6300 C   0  0  0  0  0  2  0  0  0  0  0  0
  190.5710  176.5050  135.9750 N   0  0  0  0  0  0  0  0  0  0  0  0
  186.4070  178.8380  141.3740 C   0  0  0  0  0  0  0  0  0  0  0  0
  186.2280  180.0250  141.7630 O   0  0  0  0  0  0  0  0  0  0  0  0
  185.5100  178.2580  140.4750 O   0  0  0  0  0  0  0  0  0  0  0  0
  184.8210  179.0190  139.4950 C   0  0  0  0  0  2  0  0  0  0  0  0
  184.5160  178.1430  138.2940 C   0  0  0  0  0  2  0  0  0  0  0  0
  183.1810  177.5830  138.4150 N   0  0  0  0  0  0  0  0  0  0  0  0
  182.2430  178.7100  138.3260 C   0  0  0  0  0  2  0  0  0  0  0  0
  182.4840  177.8770  137.1560 C   0  0  0  0  0  2  0  0  0  0  0  0
  186.3670  177.3620  143.8830 N   0  0  0  0  0  2  0  0  0  0  0  0
  186.3000  178.2090  144.9980 N   0  0  0  0  0  2  0  0  0  0  0  0
  186.5500  177.4440  146.0860 O   0  0  0  0  0  0  0  0  0  0  0  0
  186.9900  178.3180  147.0220 N   0  0  0  0  0  2  0  0  0  0  0  0
  189.6860  177.7000  146.3000 C   0  0  0  0  0  1  0  0  0  0  0  0
  188.9920  178.5880  148.7330 O   0  0  0  0  0  0  0  0  0  0  0  0
  188.3070  176.3090  148.1300 O   0  0  0  0  0  0  0  0  0  0  0  0
  188.4950  177.7100  147.6200 S   0  0  0  0  0  0  0  0  0  0  0  0
  192.8950  175.4270  135.9120 C   0  0  0  0  0  2  0  0  0  0  0  0
  194.0920  175.5380  136.7280 N   0  0  0  0  0  2  0  0  0  0  0  0
  197.0720  175.7590  135.4980 C   0  0  0  0  0  2  0  0  0  0  0  0
  196.2620  174.4360  137.0960 C   0  0  2  0  0  3  0  0  0  0  0  0
  197.1740  175.4730  136.8700 O   0  0  0  0  0  0  0  0  0  0  0  0
  195.7210  175.2930  134.9830 C   0  0  0  0  0  2  0  0  0  0  0  0
  195.0750  174.6280  136.1620 C   0  0  2  0  0  3  0  0  0  0  0  0
  195.9540  174.2720  138.5930 C   0  0  1  0  0  3  0  0  0  0  0  0
  195.4140  173.0130  138.8640 O   0  0  0  0  0  1  0  0  0  0  0  0
  197.1760  174.5140  139.4680 C   0  0  0  0  0  2  0  0  0  0  0  0
  196.8050  175.3460  140.6810 C   0  0  0  0  0  1  0  0  0  0  0  0
  1  3  1  1  0  0  0
  2  7  1  0  0  0  0
  3  4  2  0  0  0  0
  5 13  1  0  0  0  0
  5  9  1  0  0  0  0
  6  7  1  0  0  0  0
  7  5  2  0  0  0  0
  8  4  1  0  0  0  0
  8 23  1  0  0  0  0
  9  1  1  0  0  0  0
 10  1  1  0  0  0  0
 10 11  1  0  0  0  0
 11  8  2  0  0  0  0
 12  6  2  0  0  0  0
 13 10  1  0  0  0  0
 14 12  1  0  0  0  0
 14  2  2  0  0  0  0
 15 16  2  0  0  0  0
 15 11  1  0  0  0  0
 17 15  1  0  0  0  0
 18 17  1  0  0  0  0
 19 20  1  0  0  0  0
 19 18  1  0  0  0  0
 21 20  1  0  0  0  0
 22 21  1  0  0  0  0
 22 20  1  0  0  0  0
 23 24  1  0  0  0  0
 24 25  1  0  0  0  0
 25 26  1  0  0  0  0
 26 30  1  0  0  0  0
 27 30  1  0  0  0  0
 30 29  2  0  0  0  0
 30 28  2  0  0  0  0
 31 12  1  0  0  0  0
 31 32  1  0  0  0  0
 33 35  1  0  0  0  0
 34 38  1  1  0  0  0
 35 34  1  0  0  0  0
 36 33  1  0  0  0  0
 36 37  1  0  0  0  0
 37 32  1  1  0  0  0
 37 34  1  0  0  0  0
 38 39  1  6  0  0  0
 38 40  1  0  0  0  0
 40 41  1  0  0  0  0
M  END
>  <MODEL>
9

>  <REMARK>
 VINA RESULT:      -6.2      6.223      9.654
  Name = 
  15 active torsions:
  status: ('A' for Active; 'I' for Inactive)
    1  A    between atoms: C_1  and  O_27
    2  A    between atoms: C_1  and  C_28
    3  A    between atoms: N_5  and  O_30
    4  A    between atoms: N_5  and  S_36
    5  A    between atoms: N_6  and  C_11
    6  A    between atoms: C_10  and  C_11
    7  A    between atoms: C_10  and  O_27
    8  A    between atoms: C_16  and  C_38
    9  A    between atoms: C_21  and  N_23
   10  A    between atoms: N_22  and  N_23
   11  A    between atoms: N_22  and  O_30
   12  A    between atoms: C_31  and  C_38
   13  A    between atoms: N_32  and  C_35
   14  A    between atoms: N_32  and  C_37
   15  A    between atoms: C_33  and  C_35
                            x       y       z     vdW  Elec       q    Type
                         _______ _______ _______ _____ _____    ______ ____

>  <TORSDO>
F 15

$$$$
