=
 OpenBabel10222421063D

 29 32  0  0  1  0  0  0  0  0999 V2000
  186.0880  178.3430  143.2460 C   0  0  1  0  0  3  0  0  0  0  0  0
  186.6570  178.3230  146.9360 N   0  0  0  0  0  0  0  0  0  0  0  0
  184.8270  178.7540  143.9790 C   0  0  0  0  0  2  0  0  0  0  0  0
  185.1830  179.5130  145.2400 C   0  0  0  0  0  2  0  0  0  0  0  0
  190.9320  175.9940  143.6610 C   0  0  0  0  0  3  0  0  0  0  0  0
  191.6790  176.1580  144.8440 C   0  0  0  0  0  3  0  0  0  0  0  0
  189.4460  178.0060  148.2510 C   0  0  0  0  0  1  0  0  0  0  0  0
  191.1030  176.7590  145.9750 C   0  0  0  0  0  3  0  0  0  0  0  0
  184.3440  178.1080  146.9660 O   0  0  0  0  0  0  0  0  0  0  0  0
  187.8150  177.5130  144.8690 C   0  0  0  0  0  0  0  0  0  0  0  0
  189.6000  176.4330  143.5910 C   0  0  0  0  0  3  0  0  0  0  0  0
  186.7500  177.2610  143.9540 N   0  0  0  0  0  2  0  0  0  0  0  0
  187.7120  177.9720  146.2630 C   0  0  0  0  0  0  0  0  0  0  0  0
  185.3600  178.5810  146.3920 C   0  0  0  0  0  0  0  0  0  0  0  0
  189.7790  177.1950  145.8890 C   0  0  0  0  0  0  0  0  0  0  0  0
  189.0470  177.0440  144.7200 C   0  0  0  0  0  0  0  0  0  0  0  0
  189.0310  177.7370  146.8430 C   0  0  0  0  0  0  0  0  0  0  0  0
  185.7260  177.8840  141.8440 C   0  0  0  0  0  2  0  0  0  0  0  0
  185.0310  179.7530  140.5330 O   0  0  0  0  0  1  0  0  0  0  0  0
  186.1250  178.9340  140.8210 C   0  0  2  0  0  3  0  0  0  0  0  0
  186.6070  178.2530  139.5510 C   0  0  0  0  0  2  0  0  0  0  0  0
  188.0870  176.6640  137.5440 O   0  0  0  0  0  1  0  0  0  0  0  0
  188.0590  177.8810  139.6170 C   0  0  0  0  0  0  0  0  0  0  0  0
  190.0600  176.9800  139.0800 C   0  0  0  0  0  0  0  0  0  0  0  0
  189.0200  178.2340  140.7120 C   0  0  0  0  0  2  0  0  0  0  0  0
  188.6770  177.1640  138.6990 C   0  0  0  0  0  0  0  0  0  0  0  0
  190.2910  177.5990  140.2270 C   0  0  0  0  0  3  0  0  0  0  0  0
  190.8850  174.8990  138.3420 O   0  0  0  0  0  1  0  0  0  0  0  0
  191.0960  176.2760  138.2760 C   0  0  0  0  0  2  0  0  0  0  0  0
  1 18  1  6  0  0  0
  1 12  1  0  0  0  0
  1  3  1  0  0  0  0
  3  4  1  0  0  0  0
  4 14  1  0  0  0  0
  5  6  1  0  0  0  0
  6  8  2  0  0  0  0
 10 13  1  0  0  0  0
 11  5  2  0  0  0  0
 11 16  1  0  0  0  0
 12 10  1  0  0  0  0
 13 17  1  0  0  0  0
 13  2  2  0  0  0  0
 14  2  1  0  0  0  0
 14  9  2  0  0  0  0
 15  8  1  0  0  0  0
 15 17  2  0  0  0  0
 16 10  2  0  0  0  0
 16 15  1  0  0  0  0
 17  7  1  0  0  0  0
 20 19  1  6  0  0  0
 20 18  1  0  0  0  0
 21 23  1  0  0  0  0
 21 20  1  0  0  0  0
 22 26  1  0  0  0  0
 23 25  1  0  0  0  0
 24 27  2  0  0  0  0
 26 24  1  0  0  0  0
 26 23  2  0  0  0  0
 27 25  1  0  0  0  0
 29 28  1  0  0  0  0
 29 24  1  0  0  0  0
M  END
>  <MODEL>
1

>  <REMARK>
 VINA RESULT:      -9.4      0.000      0.000
  Name = 
  5 active torsions:
  status: ('A' for Active; 'I' for Inactive)
    1  A    between atoms: C_1  and  C_13
    2  A    between atoms: C_8  and  C_28
    3  A    between atoms: C_9  and  C_15
    4  A    between atoms: C_13  and  C_18
    5  A    between atoms: C_18  and  C_28
                            x       y       z     vdW  Elec       q    Type
                         _______ _______ _______ _____ _____    ______ ____

>  <TORSDO>
F 5

$$$$
=
 OpenBabel10222421063D

 29 32  0  0  1  0  0  0  0  0999 V2000
  186.7700  178.7020  142.0870 C   0  0  1  0  0  3  0  0  0  0  0  0
  185.7080  178.4440  145.6570 N   0  0  0  0  0  0  0  0  0  0  0  0
  185.2980  179.0320  142.2270 C   0  0  0  0  0  2  0  0  0  0  0  0
  185.0420  179.7110  143.5570 C   0  0  0  0  0  2  0  0  0  0  0  0
  191.0840  176.4430  144.4200 C   0  0  0  0  0  3  0  0  0  0  0  0
  191.2450  176.5440  145.8160 C   0  0  0  0  0  3  0  0  0  0  0  0
  187.6810  178.1030  148.0240 C   0  0  0  0  0  1  0  0  0  0  0  0
  190.2110  177.0530  146.6200 C   0  0  0  0  0  3  0  0  0  0  0  0
  183.6180  178.1730  144.6800 O   0  0  0  0  0  0  0  0  0  0  0  0
  187.6770  177.8030  144.2490 C   0  0  0  0  0  0  0  0  0  0  0  0
  189.8890  176.8550  143.8080 C   0  0  0  0  0  3  0  0  0  0  0  0
  187.1190  177.5900  142.9540 N   0  0  0  0  0  2  0  0  0  0  0  0
  186.9660  178.1640  145.4850 C   0  0  0  0  0  0  0  0  0  0  0  0
  184.7570  178.7070  144.6230 C   0  0  0  0  0  0  0  0  0  0  0  0
  189.0310  177.4630  145.9960 C   0  0  0  0  0  0  0  0  0  0  0  0
  188.8780  177.3740  144.6200 C   0  0  0  0  0  0  0  0  0  0  0  0
  187.9210  177.9210  146.5630 C   0  0  0  0  0  0  0  0  0  0  0  0
  187.0650  178.3300  140.6430 C   0  0  0  0  0  2  0  0  0  0  0  0
  188.7810  179.0470  139.1480 O   0  0  0  0  0  1  0  0  0  0  0  0
  188.5580  178.4090  140.3700 C   0  0  2  0  0  3  0  0  0  0  0  0
  189.1450  177.0080  140.3330 C   0  0  0  0  0  2  0  0  0  0  0  0
  190.2020  175.8760  137.8150 O   0  0  0  0  0  1  0  0  0  0  0  0
  190.5820  177.0010  139.9050 C   0  0  0  0  0  0  0  0  0  0  0  0
  192.4450  176.6300  138.6820 C   0  0  0  0  0  0  0  0  0  0  0  0
  191.7440  177.5540  140.6750 C   0  0  0  0  0  2  0  0  0  0  0  0
  191.0100  176.4790  138.7730 C   0  0  0  0  0  0  0  0  0  0  0  0
  192.8940  177.2610  139.7560 C   0  0  0  0  0  3  0  0  0  0  0  0
  194.4210  175.5450  137.9910 O   0  0  0  0  0  1  0  0  0  0  0  0
  193.2910  176.2200  137.5280 C   0  0  0  0  0  2  0  0  0  0  0  0
  1 18  1  6  0  0  0
  1  3  1  0  0  0  0
  1 12  1  0  0  0  0
  3  4  1  0  0  0  0
  4 14  1  0  0  0  0
  5  6  1  0  0  0  0
  6  8  2  0  0  0  0
 10 16  2  0  0  0  0
 10 13  1  0  0  0  0
 11  5  2  0  0  0  0
 11 16  1  0  0  0  0
 12 10  1  0  0  0  0
 13  2  2  0  0  0  0
 13 17  1  0  0  0  0
 14  9  2  0  0  0  0
 14  2  1  0  0  0  0
 15 17  2  0  0  0  0
 15  8  1  0  0  0  0
 16 15  1  0  0  0  0
 17  7  1  0  0  0  0
 20 19  1  6  0  0  0
 20 18  1  0  0  0  0
 21 20  1  0  0  0  0
 22 26  1  0  0  0  0
 23 21  1  0  0  0  0
 23 25  1  0  0  0  0
 24 26  1  0  0  0  0
 24 27  2  0  0  0  0
 26 23  2  0  0  0  0
 27 25  1  0  0  0  0
 29 28  1  0  0  0  0
 29 24  1  0  0  0  0
M  END
>  <MODEL>
2

>  <REMARK>
 VINA RESULT:      -9.3      1.507      2.072
  Name = 
  5 active torsions:
  status: ('A' for Active; 'I' for Inactive)
    1  A    between atoms: C_1  and  C_13
    2  A    between atoms: C_8  and  C_28
    3  A    between atoms: C_9  and  C_15
    4  A    between atoms: C_13  and  C_18
    5  A    between atoms: C_18  and  C_28
                            x       y       z     vdW  Elec       q    Type
                         _______ _______ _______ _____ _____    ______ ____

>  <TORSDO>
F 5

$$$$
=
 OpenBabel10222421063D

 29 32  0  0  1  0  0  0  0  0999 V2000
  185.9640  178.6380  141.1930 C   0  0  1  0  0  3  0  0  0  0  0  0
  188.3210  177.7360  138.4420 N   0  0  0  0  0  2  0  0  0  0  0  0
  185.2950  178.8090  139.8440 C   0  0  0  0  0  2  0  0  0  0  0  0
  185.8160  177.7720  138.8710 C   0  0  0  0  0  2  0  0  0  0  0  0
  190.6510  178.0850  143.8160 C   0  0  0  0  0  3  0  0  0  0  0  0
  191.6990  177.3640  143.2100 C   0  0  0  0  0  3  0  0  0  0  0  0
  191.0610  176.3600  138.8980 C   0  0  0  0  0  1  0  0  0  0  0  0
  191.6050  176.9580  141.8690 C   0  0  0  0  0  3  0  0  0  0  0  0
  186.8920  179.0890  137.2080 O   0  0  0  0  0  0  0  0  0  0  0  0
  188.4170  178.1840  140.9040 C   0  0  0  0  0  0  0  0  0  0  0  0
  189.4920  178.4040  143.0900 C   0  0  0  0  0  3  0  0  0  0  0  0
  187.3420  179.0940  141.1300 N   0  0  0  0  0  2  0  0  0  0  0  0
  188.8540  177.6110  139.6210 C   0  0  0  0  0  0  0  0  0  0  0  0
  187.0270  178.2720  138.1560 C   0  0  0  0  0  0  0  0  0  0  0  0
  190.4450  177.2780  141.1620 C   0  0  0  0  0  0  0  0  0  0  0  0
  189.4070  177.9780  141.7620 C   0  0  2  0  0  3  0  0  0  0  0  0
  190.1710  177.0390  139.8840 C   0  0  0  0  0  0  0  0  0  0  0  0
  185.2100  179.4500  142.2330 C   0  0  0  0  0  2  0  0  0  0  0  0
  183.1420  178.4590  142.8940 O   0  0  0  0  0  1  0  0  0  0  0  0
  184.5000  178.5290  143.2110 C   0  0  2  0  0  3  0  0  0  0  0  0
  184.6720  179.0580  144.6260 C   0  0  0  0  0  2  0  0  0  0  0  0
  185.5670  179.6660  147.3780 O   0  0  0  0  0  1  0  0  0  0  0  0
  185.8150  178.4060  145.3450 C   0  0  0  0  0  0  0  0  0  0  0  0
  187.3220  177.9080  146.9530 C   0  0  0  0  0  0  0  0  0  0  0  0
  186.7170  177.3380  144.8030 C   0  0  0  0  0  3  0  0  0  0  0  0
  186.1830  178.7140  146.5740 C   0  0  2  0  0  3  0  0  0  0  0  0
  187.6420  177.0950  145.9590 C   0  0  0  0  0  3  0  0  0  0  0  0
  189.3740  177.8540  148.1130 O   0  0  0  0  0  1  0  0  0  0  0  0
  187.9910  177.9210  148.2830 C   0  0  0  0  0  2  0  0  0  0  0  0
  1 18  1  1  0  0  0
  2 13  1  0  0  0  0
  3  1  1  0  0  0  0
  4  3  1  0  0  0  0
  6  5  1  0  0  0  0
  7 17  1  0  0  0  0
  8  6  2  0  0  0  0
  9 14  2  0  0  0  0
 10 12  1  0  0  0  0
 10 16  1  0  0  0  0
 11  5  2  0  0  0  0
 12  1  1  0  0  0  0
 13 17  1  0  0  0  0
 13 10  2  0  0  0  0
 14  2  1  0  0  0  0
 14  4  1  0  0  0  0
 15 16  1  0  0  0  0
 15  8  1  0  0  0  0
 16 11  1  6  0  0  0
 17 15  2  0  0  0  0
 18 20  1  0  0  0  0
 20 19  1  6  0  0  0
 20 21  1  0  0  0  0
 21 23  1  0  0  0  0
 23 26  1  0  0  0  0
 24 29  1  0  0  0  0
 25 23  2  0  0  0  0
 25 27  1  0  0  0  0
 26 24  1  0  0  0  0
 26 22  1  1  0  0  0
 27 24  2  0  0  0  0
 28 29  1  0  0  0  0
M  END
>  <MODEL>
3

>  <REMARK>
 VINA RESULT:      -9.1      2.251      6.483
  Name = 
  5 active torsions:
  status: ('A' for Active; 'I' for Inactive)
    1  A    between atoms: C_1  and  C_13
    2  A    between atoms: C_8  and  C_28
    3  A    between atoms: C_9  and  C_15
    4  A    between atoms: C_13  and  C_18
    5  A    between atoms: C_18  and  C_28
                            x       y       z     vdW  Elec       q    Type
                         _______ _______ _______ _____ _____    ______ ____

>  <TORSDO>
F 5

$$$$
=
 OpenBabel10222421063D

 29 32  0  0  1  0  0  0  0  0999 V2000
  185.9140  178.0480  141.9590 C   0  0  1  0  0  3  0  0  0  0  0  0
  185.5890  178.8600  138.3290 N   0  0  0  0  0  2  0  0  0  0  0  0
  184.5860  178.7230  141.6840 C   0  0  0  0  0  2  0  0  0  0  0  0
  184.0820  178.3360  140.3080 C   0  0  0  0  0  2  0  0  0  0  0  0
  190.8760  177.0250  140.0910 C   0  0  0  0  0  3  0  0  0  0  0  0
  191.0640  176.8210  138.7100 C   0  0  0  0  0  3  0  0  0  0  0  0
  187.5390  177.8350  136.1490 C   0  0  0  0  0  1  0  0  0  0  0  0
  190.0210  177.0690  137.8020 C   0  0  0  0  0  3  0  0  0  0  0  0
  184.0610  180.4090  139.1430 O   0  0  0  0  0  0  0  0  0  0  0  0
  187.3790  178.1320  139.9210 C   0  0  0  0  0  0  0  0  0  0  0  0
  189.6400  177.4730  140.5840 C   0  0  0  0  0  2  0  0  0  0  0  0
  186.9650  178.6720  141.1740 N   0  0  0  0  0  2  0  0  0  0  0  0
  186.7180  178.2830  138.6160 C   0  0  0  0  0  0  0  0  0  0  0  0
  184.5950  179.2760  139.2690 C   0  0  0  0  0  0  0  0  0  0  0  0
  188.7970  177.5090  138.3080 C   0  0  0  0  0  0  0  0  0  0  0  0
  188.6080  177.6980  139.6700 C   0  0  0  0  0  0  0  0  0  0  0  0
  187.7050  177.8490  137.6320 C   0  0  0  0  0  0  0  0  0  0  0  0
  186.2430  178.1730  143.4370 C   0  0  0  0  0  2  0  0  0  0  0  0
  187.5910  176.2030  143.4490 O   0  0  0  0  0  1  0  0  0  0  0  0
  187.6080  177.5710  143.7290 C   0  0  2  0  0  3  0  0  0  0  0  0
  187.9600  177.7930  145.1910 C   0  0  0  0  0  2  0  0  0  0  0  0
  188.9480  176.6140  147.7160 O   0  0  0  0  0  1  0  0  0  0  0  0
  189.3830  177.4300  145.4970 C   0  0  0  0  0  0  0  0  0  0  0  0
  191.2100  176.6970  146.6060 C   0  0  0  0  0  0  0  0  0  0  0  0
  190.5630  177.6070  144.5890 C   0  0  0  0  0  3  0  0  0  0  0  0
  189.7800  176.9100  146.6420 C   0  0  1  0  0  3  0  0  0  0  0  0
  191.6860  177.0740  145.4300 C   0  0  0  0  0  3  0  0  0  0  0  0
  192.4500  177.0570  148.5780 O   0  0  0  0  0  1  0  0  0  0  0  0
  192.0230  176.0740  147.6860 C   0  0  0  0  0  2  0  0  0  0  0  0
  1 18  1  1  0  0  0
  2 13  1  0  0  0  0
  2 14  1  0  0  0  0
  3  1  1  0  0  0  0
  4  3  1  0  0  0  0
  5 11  1  0  0  0  0
  6  5  2  0  0  0  0
  7 17  1  0  0  0  0
  8 15  2  0  0  0  0
  8  6  1  0  0  0  0
  9 14  2  0  0  0  0
 10 12  1  0  0  0  0
 12  1  1  0  0  0  0
 13 10  1  0  0  0  0
 14  4  1  0  0  0  0
 15 16  1  0  0  0  0
 16 10  2  0  0  0  0
 16 11  1  0  0  0  0
 17 15  1  0  0  0  0
 17 13  2  0  0  0  0
 18 20  1  0  0  0  0
 20 19  1  1  0  0  0
 20 21  1  0  0  0  0
 21 23  1  0  0  0  0
 23 26  1  0  0  0  0
 24 26  1  0  0  0  0
 24 29  1  0  0  0  0
 25 27  1  0  0  0  0
 25 23  2  0  0  0  0
 26 22  1  1  0  0  0
 27 24  2  0  0  0  0
 29 28  1  0  0  0  0
M  END
>  <MODEL>
4

>  <REMARK>
 VINA RESULT:      -9.1      2.673      6.855
  Name = 
  5 active torsions:
  status: ('A' for Active; 'I' for Inactive)
    1  A    between atoms: C_1  and  C_13
    2  A    between atoms: C_8  and  C_28
    3  A    between atoms: C_9  and  C_15
    4  A    between atoms: C_13  and  C_18
    5  A    between atoms: C_18  and  C_28
                            x       y       z     vdW  Elec       q    Type
                         _______ _______ _______ _____ _____    ______ ____

>  <TORSDO>
F 5

$$$$
=
 OpenBabel10222421063D

 29 32  0  0  1  0  0  0  0  0999 V2000
  188.7560  177.0810  141.7640 C   0  0  1  0  0  3  0  0  0  0  0  0
  189.9750  177.3230  145.2840 N   0  0  0  0  0  0  0  0  0  0  0  0
  190.2610  176.9090  141.8170 C   0  0  0  0  0  2  0  0  0  0  0  0
  190.6590  176.2130  143.1020 C   0  0  0  0  0  2  0  0  0  0  0  0
  184.3580  178.7700  144.4010 C   0  0  0  0  0  3  0  0  0  0  0  0
  184.2840  178.6010  145.7980 C   0  0  0  0  0  3  0  0  0  0  0  0
  188.1080  177.3600  147.7590 C   0  0  0  0  0  1  0  0  0  0  0  0
  185.4070  178.1790  146.5270 C   0  0  0  0  0  3  0  0  0  0  0  0
  191.9680  177.8550  144.2180 O   0  0  0  0  0  0  0  0  0  0  0  0
  187.8760  177.7960  144.0040 C   0  0  0  0  0  0  0  0  0  0  0  0
  185.5550  178.5130  143.7130 C   0  0  0  0  0  3  0  0  0  0  0  0
  188.3370  178.1160  142.6930 N   0  0  0  0  0  2  0  0  0  0  0  0
  188.6870  177.4700  145.1870 C   0  0  0  0  0  0  0  0  0  0  0  0
  190.8920  177.2030  144.1950 C   0  0  0  0  0  0  0  0  0  0  0  0
  186.5890  177.9230  145.8290 C   0  0  0  0  0  0  0  0  0  0  0  0
  186.6580  178.0780  144.4510 C   0  0  0  0  0  0  0  0  0  0  0  0
  187.7710  177.5680  146.3200 C   0  0  0  0  0  0  0  0  0  0  0  0
  188.3460  177.4710  140.3530 C   0  0  0  0  0  2  0  0  0  0  0  0
  189.4850  178.7390  138.6840 O   0  0  0  0  0  1  0  0  0  0  0  0
  189.5670  177.5790  139.4560 C   0  0  2  0  0  3  0  0  0  0  0  0
  189.6430  176.3610  138.5500 C   0  0  0  0  0  2  0  0  0  0  0  0
  190.5040  173.7700  137.4140 O   0  0  0  0  0  1  0  0  0  0  0  0
  191.0560  175.9530  138.2590 C   0  0  0  0  0  0  0  0  0  0  0  0
  192.8320  174.7140  137.6150 C   0  0  0  0  0  0  0  0  0  0  0  0
  192.2880  176.7730  138.4980 C   0  0  0  0  0  2  0  0  0  0  0  0
  191.3950  174.7820  137.7560 C   0  0  0  0  0  0  0  0  0  0  0  0
  193.3730  175.8520  138.0190 C   0  0  0  0  0  3  0  0  0  0  0  0
  194.6180  173.2020  137.9010 O   0  0  0  0  0  1  0  0  0  0  0  0
  193.5950  173.5770  137.0310 C   0  0  0  0  0  2  0  0  0  0  0  0
  1 18  1  6  0  0  0
  1  3  1  0  0  0  0
  1 12  1  0  0  0  0
  3  4  1  0  0  0  0
  4 14  1  0  0  0  0
  5  6  1  0  0  0  0
  6  8  2  0  0  0  0
 10 16  2  0  0  0  0
 10 13  1  0  0  0  0
 11  5  2  0  0  0  0
 11 16  1  0  0  0  0
 12 10  1  0  0  0  0
 13  2  2  0  0  0  0
 13 17  1  0  0  0  0
 14  9  2  0  0  0  0
 14  2  1  0  0  0  0
 15 17  2  0  0  0  0
 15  8  1  0  0  0  0
 16 15  1  0  0  0  0
 17  7  1  0  0  0  0
 20 19  1  6  0  0  0
 20 18  1  0  0  0  0
 21 20  1  0  0  0  0
 22 26  1  0  0  0  0
 23 25  1  0  0  0  0
 23 21  1  0  0  0  0
 24 26  1  0  0  0  0
 24 27  2  0  0  0  0
 26 23  2  0  0  0  0
 27 25  1  0  0  0  0
 29 24  1  0  0  0  0
 29 28  1  0  0  0  0
M  END
>  <MODEL>
5

>  <REMARK>
 VINA RESULT:      -9.0      2.337      4.541
  Name = 
  5 active torsions:
  status: ('A' for Active; 'I' for Inactive)
    1  A    between atoms: C_1  and  C_13
    2  A    between atoms: C_8  and  C_28
    3  A    between atoms: C_9  and  C_15
    4  A    between atoms: C_13  and  C_18
    5  A    between atoms: C_18  and  C_28
                            x       y       z     vdW  Elec       q    Type
                         _______ _______ _______ _____ _____    ______ ____

>  <TORSDO>
F 5

$$$$
=
 OpenBabel10222421063D

 29 32  0  0  1  0  0  0  0  0999 V2000
  190.1810  176.7840  144.9880 C   0  0  1  0  0  3  0  0  0  0  0  0
  187.6360  177.9050  147.4780 N   0  0  0  0  0  2  0  0  0  0  0  0
  190.7770  176.8070  146.3810 C   0  0  0  0  0  2  0  0  0  0  0  0
  189.7190  176.4500  147.4040 C   0  0  0  0  0  2  0  0  0  0  0  0
  186.1300  178.4550  141.8340 C   0  0  0  0  0  3  0  0  0  0  0  0
  184.8360  178.5760  142.3790 C   0  0  0  0  0  3  0  0  0  0  0  0
  184.6220  178.2400  146.8350 C   0  0  0  0  0  1  0  0  0  0  0  0
  184.6300  178.4540  143.7630 C   0  0  0  0  0  3  0  0  0  0  0  0
  189.5370  178.4340  148.7030 O   0  0  0  0  0  0  0  0  0  0  0  0
  187.9050  177.8450  144.9900 C   0  0  0  0  0  0  0  0  0  0  0  0
  187.2340  178.2030  142.6650 C   0  0  0  0  0  2  0  0  0  0  0  0
  189.3150  177.9340  144.7940 N   0  0  0  0  0  2  0  0  0  0  0  0
  187.1710  177.8750  146.2640 C   0  0  0  0  0  0  0  0  0  0  0  0
  188.9900  177.6680  147.8660 C   0  0  0  0  0  0  0  0  0  0  0  0
  185.7370  178.2000  144.5750 C   0  0  0  0  0  0  0  0  0  0  0  0
  187.0090  178.0680  144.0370 C   0  0  0  0  0  0  0  0  0  0  0  0
  185.7760  178.1000  145.8990 C   0  0  0  0  0  0  0  0  0  0  0  0
  191.3020  176.8160  143.9620 C   0  0  0  0  0  2  0  0  0  0  0  0
  190.5110  175.6500  142.0370 O   0  0  0  0  0  1  0  0  0  0  0  0
  190.7340  176.9260  142.5580 C   0  0  2  0  0  3  0  0  0  0  0  0
  191.7090  177.6810  141.6700 C   0  0  0  0  0  2  0  0  0  0  0  0
  193.9980  176.9650  139.9410 O   0  0  0  0  0  1  0  0  0  0  0  0
  191.6290  177.2490  140.2360 C   0  0  0  0  0  0  0  0  0  0  0  0
  192.2480  176.5840  138.1670 C   0  0  0  0  0  0  0  0  0  0  0  0
  190.3820  177.1110  139.4150 C   0  0  0  0  0  3  0  0  0  0  0  0
  192.6800  176.9440  139.5000 C   0  0  2  0  0  3  0  0  0  0  0  0
  190.9280  176.6560  138.0940 C   0  0  0  0  0  3  0  0  0  0  0  0
  192.7500  174.8450  136.6570 O   0  0  0  0  0  1  0  0  0  0  0  0
  193.1320  176.1240  137.0620 C   0  0  0  0  0  2  0  0  0  0  0  0
  1 18  1  6  0  0  0
  1  3  1  0  0  0  0
  2 14  1  0  0  0  0
  3  4  1  0  0  0  0
  4 14  1  0  0  0  0
  5  6  2  0  0  0  0
  5 11  1  0  0  0  0
  6  8  1  0  0  0  0
  8 15  2  0  0  0  0
 10 13  1  0  0  0  0
 11 16  1  0  0  0  0
 12  1  1  0  0  0  0
 12 10  1  0  0  0  0
 13  2  1  0  0  0  0
 14  9  2  0  0  0  0
 15 17  1  0  0  0  0
 16 15  1  0  0  0  0
 16 10  2  0  0  0  0
 17 13  2  0  0  0  0
 17  7  1  0  0  0  0
 20 19  1  6  0  0  0
 20 18  1  0  0  0  0
 21 20  1  0  0  0  0
 23 21  1  0  0  0  0
 24 26  1  0  0  0  0
 25 23  2  0  0  0  0
 26 22  1  1  0  0  0
 26 23  1  0  0  0  0
 27 24  2  0  0  0  0
 27 25  1  0  0  0  0
 28 29  1  0  0  0  0
 29 24  1  0  0  0  0
M  END
>  <MODEL>
6

>  <REMARK>
 VINA RESULT:      -9.0      2.332      4.602
  Name = 
  5 active torsions:
  status: ('A' for Active; 'I' for Inactive)
    1  A    between atoms: C_1  and  C_13
    2  A    between atoms: C_8  and  C_28
    3  A    between atoms: C_9  and  C_15
    4  A    between atoms: C_13  and  C_18
    5  A    between atoms: C_18  and  C_28
                            x       y       z     vdW  Elec       q    Type
                         _______ _______ _______ _____ _____    ______ ____

>  <TORSDO>
F 5

$$$$
=
 OpenBabel10222421063D

 29 32  0  0  1  0  0  0  0  0999 V2000
  189.0590  176.7100  142.4240 C   0  0  1  0  0  3  0  0  0  0  0  0
  189.9910  177.5260  145.9470 N   0  0  0  0  0  0  0  0  0  0  0  0
  190.5600  176.6110  142.6120 C   0  0  0  0  0  2  0  0  0  0  0  0
  190.8770  176.1320  144.0140 C   0  0  0  0  0  2  0  0  0  0  0  0
  184.4190  178.5890  144.4470 C   0  0  0  0  0  3  0  0  0  0  0  0
  184.2410  178.6280  145.8440 C   0  0  0  0  0  3  0  0  0  0  0  0
  187.9360  177.8540  148.2440 C   0  0  0  0  0  1  0  0  0  0  0  0
  185.3170  178.3670  146.7080 C   0  0  0  0  0  3  0  0  0  0  0  0
  192.0450  177.9750  144.9590 O   0  0  0  0  0  0  0  0  0  0  0  0
  187.9850  177.7150  144.4600 C   0  0  0  0  0  0  0  0  0  0  0  0
  185.6740  178.2830  143.8950 C   0  0  0  0  0  3  0  0  0  0  0  0
  188.5380  177.8540  143.1520 N   0  0  0  0  0  2  0  0  0  0  0  0
  188.7110  177.6040  145.7350 C   0  0  0  0  0  0  0  0  0  0  0  0
  190.9940  177.2820  144.9580 C   0  0  0  0  0  0  0  0  0  0  0  0
  186.5570  178.0590  146.1450 C   0  0  0  0  0  0  0  0  0  0  0  0
  186.7290  178.0090  144.7690 C   0  0  0  0  0  0  0  0  0  0  0  0
  187.7070  177.8310  146.7700 C   0  0  0  0  0  0  0  0  0  0  0  0
  188.7490  176.8680  140.9450 C   0  0  0  0  0  2  0  0  0  0  0  0
  187.2290  178.6280  140.4100 O   0  0  0  0  0  1  0  0  0  0  0  0
  188.5830  178.3360  140.5910 C   0  0  2  0  0  3  0  0  0  0  0  0
  189.3510  178.6430  139.3170 C   0  0  0  0  0  2  0  0  0  0  0  0
  191.5690  176.7510  138.8230 O   0  0  0  0  0  1  0  0  0  0  0  0
  189.3330  177.4980  138.3480 C   0  0  0  0  0  0  0  0  0  0  0  0
  190.0020  175.7040  137.1490 C   0  0  0  0  0  0  0  0  0  0  0  0
  188.1990  177.1090  137.4480 C   0  0  0  0  0  3  0  0  0  0  0  0
  190.3510  176.6810  138.1560 C   0  0  2  0  0  3  0  0  0  0  0  0
  188.7630  175.9150  136.7350 C   0  0  0  0  0  3  0  0  0  0  0  0
  190.3810  173.3780  137.2180 O   0  0  0  0  0  1  0  0  0  0  0  0
  190.8640  174.5770  136.6960 C   0  0  0  0  0  2  0  0  0  0  0  0
  1 18  1  6  0  0  0
  1  3  1  0  0  0  0
  1 12  1  0  0  0  0
  3  4  1  0  0  0  0
  4 14  1  0  0  0  0
  5  6  1  0  0  0  0
  6  8  2  0  0  0  0
 10 16  2  0  0  0  0
 10 13  1  0  0  0  0
 11  5  2  0  0  0  0
 11 16  1  0  0  0  0
 12 10  1  0  0  0  0
 13  2  2  0  0  0  0
 13 17  1  0  0  0  0
 14  9  2  0  0  0  0
 14  2  1  0  0  0  0
 15  8  1  0  0  0  0
 15 17  2  0  0  0  0
 16 15  1  0  0  0  0
 17  7  1  0  0  0  0
 20 19  1  6  0  0  0
 20 18  1  0  0  0  0
 21 20  1  0  0  0  0
 23 21  1  0  0  0  0
 24 26  1  0  0  0  0
 25 23  2  0  0  0  0
 26 23  1  0  0  0  0
 26 22  1  1  0  0  0
 27 24  2  0  0  0  0
 27 25  1  0  0  0  0
 29 24  1  0  0  0  0
 29 28  1  0  0  0  0
M  END
>  <MODEL>
7

>  <REMARK>
 VINA RESULT:      -8.9      2.106      4.152
  Name = 
  5 active torsions:
  status: ('A' for Active; 'I' for Inactive)
    1  A    between atoms: C_1  and  C_13
    2  A    between atoms: C_8  and  C_28
    3  A    between atoms: C_9  and  C_15
    4  A    between atoms: C_13  and  C_18
    5  A    between atoms: C_18  and  C_28
                            x       y       z     vdW  Elec       q    Type
                         _______ _______ _______ _____ _____    ______ ____

>  <TORSDO>
F 5

$$$$
=
 OpenBabel10222421063D

 29 32  0  0  1  0  0  0  0  0999 V2000
  188.3530  177.6900  141.9190 C   0  0  1  0  0  3  0  0  0  0  0  0
  191.6700  176.8970  143.4380 N   0  0  0  0  0  2  0  0  0  0  0  0
  189.4190  177.5990  140.8460 C   0  0  0  0  0  2  0  0  0  0  0  0
  190.4550  176.5630  141.2300 C   0  0  0  0  0  2  0  0  0  0  0  0
  187.3640  178.2120  147.2010 C   0  0  0  0  0  3  0  0  0  0  0  0
  188.2380  177.6130  148.1290 C   0  0  0  0  0  3  0  0  0  0  0  0
  192.0550  176.0520  146.3960 C   0  0  0  0  0  1  0  0  0  0  0  0
  189.4550  177.0520  147.7050 C   0  0  0  0  0  3  0  0  0  0  0  0
  192.4410  177.8510  141.4660 O   0  0  0  0  0  0  0  0  0  0  0  0
  189.3970  177.6200  144.2020 C   0  0  0  0  0  0  0  0  0  0  0  0
  187.6900  178.2530  145.8360 C   0  0  0  0  0  3  0  0  0  0  0  0
  188.8820  178.3580  143.0950 N   0  0  0  0  0  2  0  0  0  0  0  0
  190.7210  176.9910  144.3230 C   0  0  0  0  0  0  0  0  0  0  0  0
  191.5470  177.1750  142.0420 C   0  0  0  0  0  0  0  0  0  0  0  0
  189.7630  177.0970  146.3440 C   0  0  0  0  0  0  0  0  0  0  0  0
  188.8960  177.6760  145.4290 C   0  0  2  0  0  3  0  0  0  0  0  0
  190.8700  176.6770  145.7410 C   0  0  0  0  0  0  0  0  0  0  0  0
  187.1670  178.4740  141.3820 C   0  0  0  0  0  2  0  0  0  0  0  0
  186.0150  177.3060  143.1140 O   0  0  0  0  0  1  0  0  0  0  0  0
  186.0470  178.5100  142.4070 C   0  0  2  0  0  3  0  0  0  0  0  0
  184.7180  178.7270  141.7030 C   0  0  0  0  0  2  0  0  0  0  0  0
  181.8510  178.8420  140.9850 O   0  0  0  0  0  1  0  0  0  0  0  0
  183.5720  178.8350  142.6650 C   0  0  0  0  0  0  0  0  0  0  0  0
  181.4680  179.0020  143.4710 C   0  0  0  0  0  0  0  0  0  0  0  0
  183.6670  178.9140  144.1590 C   0  0  0  0  0  2  0  0  0  0  0  0
  182.3060  178.8880  142.2980 C   0  0  0  0  0  0  0  0  0  0  0  0
  182.2230  179.0030  144.5580 C   0  0  0  0  0  3  0  0  0  0  0  0
  179.4850  177.8360  142.9570 O   0  0  0  0  0  1  0  0  0  0  0  0
  179.9800  179.0320  143.4760 C   0  0  0  0  0  2  0  0  0  0  0  0
  1 18  1  6  0  0  0
  1 12  1  0  0  0  0
  2 13  1  0  0  0  0
  3  4  1  0  0  0  0
  3  1  1  0  0  0  0
  4 14  1  0  0  0  0
  5  6  1  0  0  0  0
  8  6  2  0  0  0  0
  9 14  2  0  0  0  0
 10 13  2  0  0  0  0
 10 16  1  0  0  0  0
 11  5  2  0  0  0  0
 12 10  1  0  0  0  0
 13 17  1  0  0  0  0
 14  2  1  0  0  0  0
 15  8  1  0  0  0  0
 16 11  1  1  0  0  0
 16 15  1  0  0  0  0
 17 15  2  0  0  0  0
 17  7  1  0  0  0  0
 18 20  1  0  0  0  0
 20 19  1  6  0  0  0
 21 20  1  0  0  0  0
 21 23  1  0  0  0  0
 22 26  1  0  0  0  0
 23 25  1  0  0  0  0
 24 29  1  0  0  0  0
 24 27  2  0  0  0  0
 25 27  1  0  0  0  0
 26 23  2  0  0  0  0
 26 24  1  0  0  0  0
 28 29  1  0  0  0  0
M  END
>  <MODEL>
8

>  <REMARK>
 VINA RESULT:      -8.8      2.597      6.201
  Name = 
  5 active torsions:
  status: ('A' for Active; 'I' for Inactive)
    1  A    between atoms: C_1  and  C_13
    2  A    between atoms: C_8  and  C_28
    3  A    between atoms: C_9  and  C_15
    4  A    between atoms: C_13  and  C_18
    5  A    between atoms: C_18  and  C_28
                            x       y       z     vdW  Elec       q    Type
                         _______ _______ _______ _____ _____    ______ ____

>  <TORSDO>
F 5

$$$$
=
 OpenBabel10222421063D

 29 32  0  0  1  0  0  0  0  0999 V2000
  185.4500  178.7930  142.7170 C   0  0  1  0  0  3  0  0  0  0  0  0
  185.9710  178.5500  139.0280 N   0  0  0  0  0  2  0  0  0  0  0  0
  184.1990  179.2190  141.9750 C   0  0  0  0  0  2  0  0  0  0  0  0
  184.0570  178.4220  140.6950 C   0  0  0  0  0  2  0  0  0  0  0  0
  190.7540  177.8490  142.3540 C   0  0  0  0  0  3  0  0  0  0  0  0
  191.2770  177.3000  141.1660 C   0  0  0  0  0  3  0  0  0  0  0  0
  188.4300  177.1910  137.7180 C   0  0  0  0  0  1  0  0  0  0  0  0
  190.4730  177.1770  140.0210 C   0  0  0  0  0  3  0  0  0  0  0  0
  184.2290  180.0860  139.0050 O   0  0  0  0  0  0  0  0  0  0  0  0
  187.3570  178.4810  141.1120 C   0  0  0  0  0  0  0  0  0  0  0  0
  189.4180  178.2770  142.4140 C   0  0  0  0  0  2  0  0  0  0  0  0
  186.6310  179.2930  142.0340 N   0  0  0  0  0  2  0  0  0  0  0  0
  187.0220  178.1990  139.7080 C   0  0  0  0  0  0  0  0  0  0  0  0
  184.7640  179.0940  139.5660 C   0  0  0  0  0  0  0  0  0  0  0  0
  189.1450  177.6020  140.0980 C   0  0  0  0  0  0  0  0  0  0  0  0
  188.6270  178.1310  141.2720 C   0  0  0  0  0  0  0  0  0  0  0  0
  188.2340  177.6240  139.1320 C   0  0  0  0  0  0  0  0  0  0  0  0
  185.4090  179.3500  144.1300 C   0  0  0  0  0  2  0  0  0  0  0  0
  183.4080  178.7340  145.2740 O   0  0  0  0  0  1  0  0  0  0  0  0
  184.7380  178.3620  145.0690 C   0  0  2  0  0  3  0  0  0  0  0  0
  185.4760  178.3400  146.3980 C   0  0  0  0  0  2  0  0  0  0  0  0
  187.5820  178.4810  148.4680 O   0  0  0  0  0  1  0  0  0  0  0  0
  186.8800  177.8280  146.2640 C   0  0  0  0  0  0  0  0  0  0  0  0
  189.0310  177.3410  146.7500 C   0  0  0  0  0  0  0  0  0  0  0  0
  187.4750  177.1640  145.0590 C   0  0  0  0  0  3  0  0  0  0  0  0
  187.7890  177.9180  147.2140 C   0  0  2  0  0  3  0  0  0  0  0  0
  188.8760  176.8830  145.5180 C   0  0  0  0  0  3  0  0  0  0  0  0
  191.2180  176.4630  146.8330 O   0  0  0  0  0  1  0  0  0  0  0  0
  190.2780  177.2010  147.5520 C   0  0  0  0  0  2  0  0  0  0  0  0
  1 18  1  1  0  0  0
  2 14  1  0  0  0  0
  2 13  1  0  0  0  0
  3  1  1  0  0  0  0
  4  3  1  0  0  0  0
  5 11  1  0  0  0  0
  6  5  2  0  0  0  0
  7 17  1  0  0  0  0
  8 15  2  0  0  0  0
  8  6  1  0  0  0  0
  9 14  2  0  0  0  0
 10 16  2  0  0  0  0
 10 12  1  0  0  0  0
 12  1  1  0  0  0  0
 13 10  1  0  0  0  0
 14  4  1  0  0  0  0
 15 16  1  0  0  0  0
 16 11  1  0  0  0  0
 17 13  2  0  0  0  0
 17 15  1  0  0  0  0
 18 20  1  0  0  0  0
 20 19  1  1  0  0  0
 20 21  1  0  0  0  0
 23 21  1  0  0  0  0
 23 26  1  0  0  0  0
 24 26  1  0  0  0  0
 24 29  1  0  0  0  0
 25 27  1  0  0  0  0
 25 23  2  0  0  0  0
 26 22  1  1  0  0  0
 27 24  2  0  0  0  0
 28 29  1  0  0  0  0
M  END
>  <MODEL>
9

>  <REMARK>
 VINA RESULT:      -8.7      2.496      6.361
  Name = 
  5 active torsions:
  status: ('A' for Active; 'I' for Inactive)
    1  A    between atoms: C_1  and  C_13
    2  A    between atoms: C_8  and  C_28
    3  A    between atoms: C_9  and  C_15
    4  A    between atoms: C_13  and  C_18
    5  A    between atoms: C_18  and  C_28
                            x       y       z     vdW  Elec       q    Type
                         _______ _______ _______ _____ _____    ______ ____

>  <TORSDO>
F 5

$$$$
