=
 OpenBabel10222419313D

 42 43  0  0  1  0  0  0  0  0999 V2000
  188.1440  177.8390  147.6860 C   0  0  0  0  0  0  0  0  0  0  0  0
  186.9320  178.0600  147.0260 C   0  0  0  0  0  3  0  0  0  0  0  0
  189.1530  177.1200  145.5980 C   0  0  0  0  0  0  0  0  0  0  0  0
  189.2520  177.3700  146.9760 C   0  0  0  0  0  3  0  0  0  0  0  0
  186.8260  177.8080  145.6530 C   0  0  0  0  0  0  0  0  0  0  0  0
  187.9380  177.3440  144.9420 C   0  0  0  0  0  3  0  0  0  0  0  0
  188.2460  178.0860  149.0490 O   0  0  0  0  0  1  0  0  0  0  0  0
  191.4970  176.3360  145.7440 C   0  0  0  0  0  1  0  0  0  0  0  0
  190.3310  176.6320  144.8090 C   0  0  2  0  0  3  0  0  0  0  0  0
  190.7340  177.6230  143.7070 C   0  0  1  0  0  3  0  0  0  0  0  0
  189.1720  178.1550  141.7960 N   0  0  0  0  0  2  0  0  0  0  0  0
  190.1050  177.2590  142.3980 C   0  0  0  0  0  0  0  0  0  0  0  0
  190.4040  176.1750  141.8270 O   0  0  0  0  0  0  0  0  0  0  0  0
  188.5630  177.8490  140.5740 N   0  0  0  0  0  0  0  0  0  0  0  0
  188.9120  178.4780  139.5040 C   0  0  0  0  0  3  0  0  0  0  0  0
  188.1330  178.0920  137.9450 P   0  0  1  0  0  0  0  0  0  0  0  0
  186.5390  177.6000  138.2240 O   0  0  0  0  0  1  0  0  0  0  0  0
  188.1310  179.3190  137.0620 O   0  0  0  0  0  0  0  0  0  0  0  0
  189.0310  176.7700  137.1470 C   0  0  0  0  0  0  0  0  0  0  0  0
  188.4030  175.8770  136.5160 O   0  0  0  0  0  0  0  0  0  0  0  0
  190.4580  176.7510  137.2070 N   0  0  0  0  0  2  0  0  0  0  0  0
  191.2580  175.7390  136.5340 C   0  0  0  0  0  2  0  0  0  0  0  0
  192.3220  175.2050  137.4760 C   0  0  0  0  0  2  0  0  0  0  0  0
  194.0230  176.6930  136.7310 O   0  0  0  0  0  0  0  0  0  0  0  0
  193.3630  176.2440  137.7020 C   0  0  0  0  0  0  0  0  0  0  0  0
  193.5810  176.7420  138.9790 O   0  0  0  0  0  1  0  0  0  0  0  0
  191.5510  179.6480  144.0920 C   0  0  0  0  0  1  0  0  0  0  0  0
  190.3580  178.9250  144.0570 O   0  0  0  0  0  0  0  0  0  0  0  0
  185.5410  178.0630  144.9480 C   0  0  0  0  0  2  0  0  0  0  0  0
  185.7980  178.3450  143.4780 C   0  0  0  0  0  2  0  0  0  0  0  0
  184.3420  178.6630  141.4300 C   0  0  0  0  0  0  0  0  0  0  0  0
  185.1910  179.4530  140.9330 O   0  0  0  0  0  0  0  0  0  0  0  0
  184.6040  178.0570  142.7000 N   0  0  0  0  0  2  0  0  0  0  0  0
  181.6380  179.1410  142.4980 O   0  0  0  0  0  1  0  0  0  0  0  0
  182.0450  177.5390  138.6390 C   0  0  0  0  0  0  0  0  0  0  0  0
  183.0910  178.3710  140.6870 C   0  0  0  0  0  0  0  0  0  0  0  0
  183.1900  177.8360  139.3930 C   0  0  0  0  0  3  0  0  0  0  0  0
  181.8050  178.6100  141.2240 C   0  0  0  0  0  0  0  0  0  0  0  0
  180.7840  177.7810  139.1870 C   0  0  0  0  0  3  0  0  0  0  0  0
  180.6660  178.3120  140.4710 C   0  0  0  0  0  3  0  0  0  0  0  0
  182.1320  177.0050  137.3510 O   0  0  0  0  0  0  0  0  0  0  0  0
  183.3120  176.3870  136.8550 C   0  0  0  0  0  1  0  0  0  0  0  0
  1  7  1  0  0  0  0
  2  1  1  0  0  0  0
  3  4  1  0  0  0  0
  4  1  2  0  0  0  0
  5  2  2  0  0  0  0
  6  3  2  0  0  0  0
  6  5  1  0  0  0  0
  9  3  1  0  0  0  0
  9  8  1  1  0  0  0
 10 12  1  6  0  0  0
 10 28  1  0  0  0  0
 10  9  1  0  0  0  0
 11 12  1  0  0  0  0
 13 12  2  0  0  0  0
 14 11  1  0  0  0  0
 15 14  2  0  0  0  0
 16 18  2  6  0  0  0
 16 17  1  0  0  0  0
 16 15  1  0  0  0  0
 19 21  1  0  0  0  0
 19 16  1  0  0  0  0
 20 19  2  0  0  0  0
 22 21  1  0  0  0  0
 22 23  1  0  0  0  0
 23 25  1  0  0  0  0
 24 25  2  0  0  0  0
 25 26  1  0  0  0  0
 28 27  1  0  0  0  0
 29  5  1  0  0  0  0
 30 29  1  0  0  0  0
 31 33  1  0  0  0  0
 32 31  2  0  0  0  0
 33 30  1  0  0  0  0
 35 39  2  0  0  0  0
 35 37  1  0  0  0  0
 36 38  1  0  0  0  0
 36 31  1  0  0  0  0
 37 36  2  0  0  0  0
 38 34  1  0  0  0  0
 39 40  1  0  0  0  0
 40 38  2  0  0  0  0
 41 35  1  0  0  0  0
 42 41  1  0  0  0  0
M  END
>  <MODEL>
1

>  <REMARK>
 VINA RESULT:      -8.4      0.000      0.000
  Name = 
  15 active torsions:
  status: ('A' for Active; 'I' for Inactive)
    1  A    between atoms: C_1  and  P_20
    2  A    between atoms: C_4  and  C_32
    3  A    between atoms: C_4  and  N_42
    4  A    between atoms: C_5  and  C_32
    5  A    between atoms: C_6  and  O_21
    6  A    between atoms: C_9  and  C_12
    7  A    between atoms: C_10  and  C_19
    8  A    between atoms: C_10  and  C_23
    9  A    between atoms: C_10  and  O_38
   10  A    between atoms: N_11  and  N_37
   11  A    between atoms: C_14  and  C_25
   12  A    between atoms: C_14  and  C_26
   13  A    between atoms: C_16  and  C_19
   14  A    between atoms: P_20  and  C_41
   15  A    between atoms: C_26  and  N_29
                            x       y       z     vdW  Elec       q    Type
                         _______ _______ _______ _____ _____    ______ ____

>  <TORSDO>
F 15

$$$$
=
 OpenBabel10222419313D

 42 43  0  0  1  0  0  0  0  0999 V2000
  188.0640  177.8380  147.4960 C   0  0  0  0  0  0  0  0  0  0  0  0
  186.7890  177.9700  146.9410 C   0  0  0  0  0  3  0  0  0  0  0  0
  189.0130  177.6380  145.2700 C   0  0  0  0  0  0  0  0  0  0  0  0
  189.1750  177.6720  146.6640 C   0  0  0  0  0  3  0  0  0  0  0  0
  186.6210  177.9320  145.5520 C   0  0  0  0  0  0  0  0  0  0  0  0
  187.7340  177.7710  144.7200 C   0  0  0  0  0  3  0  0  0  0  0  0
  188.2290  177.8730  148.8740 O   0  0  0  0  0  1  0  0  0  0  0  0
  190.5890  178.8300  143.7780 C   0  0  0  0  0  1  0  0  0  0  0  0
  190.1890  177.4770  144.3540 C   0  0  2  0  0  3  0  0  0  0  0  0
  189.9160  176.4530  143.2420 C   0  0  1  0  0  3  0  0  0  0  0  0
  188.7590  177.4500  141.2320 N   0  0  0  0  0  2  0  0  0  0  0  0
  189.9730  177.0960  141.8900 C   0  0  0  0  0  0  0  0  0  0  0  0
  191.0850  177.3320  141.3440 O   0  0  0  0  0  0  0  0  0  0  0  0
  188.7720  178.0510  139.9690 N   0  0  0  0  0  0  0  0  0  0  0  0
  188.6040  177.3330  138.9100 C   0  0  0  0  0  3  0  0  0  0  0  0
  188.6260  178.0990  137.2970 P   0  0  1  0  0  0  0  0  0  0  0  0
  188.9540  179.7490  137.4670 O   0  0  0  0  0  1  0  0  0  0  0  0
  189.6990  177.4580  136.4470 O   0  0  0  0  0  0  0  0  0  0  0  0
  187.0300  177.8880  136.5220 C   0  0  0  0  0  0  0  0  0  0  0  0
  186.8770  178.1980  135.3100 O   0  0  0  0  0  0  0  0  0  0  0  0
  185.9470  177.3420  137.2770 N   0  0  0  0  0  2  0  0  0  0  0  0
  184.6360  177.0880  136.6970 C   0  0  0  0  0  2  0  0  0  0  0  0
  183.9150  176.0130  137.4900 C   0  0  0  0  0  2  0  0  0  0  0  0
  182.2190  176.3770  135.8610 O   0  0  0  0  0  0  0  0  0  0  0  0
  182.6110  175.7010  136.8460 C   0  0  0  0  0  0  0  0  0  0  0  0
  181.8430  174.6410  137.3100 O   0  0  0  0  0  1  0  0  0  0  0  0
  191.7770  175.8070  144.2590 C   0  0  0  0  0  1  0  0  0  0  0  0
  190.8460  175.4090  143.2990 O   0  0  0  0  0  0  0  0  0  0  0  0
  185.2640  178.0920  144.9630 C   0  0  0  0  0  2  0  0  0  0  0  0
  185.2280  179.3100  144.0570 C   0  0  0  0  0  2  0  0  0  0  0  0
  184.4800  178.8770  141.6760 C   0  0  0  0  0  0  0  0  0  0  0  0
  185.6790  178.7270  141.3130 O   0  0  0  0  0  0  0  0  0  0  0  0
  184.1900  179.1510  143.0510 N   0  0  0  0  0  2  0  0  0  0  0  0
  184.4790  180.2600  139.0730 O   0  0  0  0  0  1  0  0  0  0  0  0
  181.2310  177.7930  140.0650 C   0  0  0  0  0  0  0  0  0  0  0  0
  183.3920  178.7620  140.6740 C   0  0  0  0  0  0  0  0  0  0  0  0
  182.2910  177.9430  140.9720 C   0  0  0  0  0  3  0  0  0  0  0  0
  183.4170  179.4370  139.4320 C   0  0  0  0  0  0  0  0  0  0  0  0
  181.2730  178.4690  138.8450 C   0  0  0  0  0  3  0  0  0  0  0  0
  182.3590  179.2860  138.5310 C   0  0  0  0  0  3  0  0  0  0  0  0
  180.1300  176.9820  140.3530 O   0  0  0  0  0  0  0  0  0  0  0  0
  179.4580  176.2190  139.3600 C   0  0  0  0  0  1  0  0  0  0  0  0
  1  7  1  0  0  0  0
  2  1  1  0  0  0  0
  3  4  1  0  0  0  0
  4  1  2  0  0  0  0
  5  2  2  0  0  0  0
  6  3  2  0  0  0  0
  6  5  1  0  0  0  0
  9  8  1  6  0  0  0
  9  3  1  0  0  0  0
 10 12  1  6  0  0  0
 10 28  1  0  0  0  0
 10  9  1  0  0  0  0
 11 12  1  0  0  0  0
 13 12  2  0  0  0  0
 14 11  1  0  0  0  0
 15 14  2  0  0  0  0
 16 18  2  6  0  0  0
 16 17  1  0  0  0  0
 16 15  1  0  0  0  0
 19 21  1  0  0  0  0
 19 16  1  0  0  0  0
 20 19  2  0  0  0  0
 22 21  1  0  0  0  0
 22 23  1  0  0  0  0
 24 25  2  0  0  0  0
 25 26  1  0  0  0  0
 25 23  1  0  0  0  0
 28 27  1  0  0  0  0
 29  5  1  0  0  0  0
 30 29  1  0  0  0  0
 31 33  1  0  0  0  0
 32 31  2  0  0  0  0
 33 30  1  0  0  0  0
 34 38  1  0  0  0  0
 35 41  1  0  0  0  0
 35 37  1  0  0  0  0
 36 37  2  0  0  0  0
 36 31  1  0  0  0  0
 38 36  1  0  0  0  0
 39 35  2  0  0  0  0
 40 39  1  0  0  0  0
 40 38  2  0  0  0  0
 42 41  1  0  0  0  0
M  END
>  <MODEL>
2

>  <REMARK>
 VINA RESULT:      -8.2      2.023      4.088
  Name = 
  15 active torsions:
  status: ('A' for Active; 'I' for Inactive)
    1  A    between atoms: C_1  and  P_20
    2  A    between atoms: C_4  and  C_32
    3  A    between atoms: C_4  and  N_42
    4  A    between atoms: C_5  and  C_32
    5  A    between atoms: C_6  and  O_21
    6  A    between atoms: C_9  and  C_12
    7  A    between atoms: C_10  and  C_19
    8  A    between atoms: C_10  and  C_23
    9  A    between atoms: C_10  and  O_38
   10  A    between atoms: N_11  and  N_37
   11  A    between atoms: C_14  and  C_25
   12  A    between atoms: C_14  and  C_26
   13  A    between atoms: C_16  and  C_19
   14  A    between atoms: P_20  and  C_41
   15  A    between atoms: C_26  and  N_29
                            x       y       z     vdW  Elec       q    Type
                         _______ _______ _______ _____ _____    ______ ____

>  <TORSDO>
F 15

$$$$
=
 OpenBabel10222419313D

 42 43  0  0  1  0  0  0  0  0999 V2000
  189.9810  177.1570  146.4800 C   0  0  0  0  0  0  0  0  0  0  0  0
  190.8300  177.5400  145.4380 C   0  0  0  0  0  3  0  0  0  0  0  0
  188.0520  177.5850  145.0690 C   0  0  0  0  0  0  0  0  0  0  0  0
  188.5960  177.1790  146.2980 C   0  0  0  0  0  3  0  0  0  0  0  0
  190.2930  177.9510  144.2120 C   0  0  0  0  0  0  0  0  0  0  0  0
  188.9060  177.9670  144.0290 C   0  0  0  0  0  3  0  0  0  0  0  0
  190.5150  176.7540  147.6970 O   0  0  0  0  0  1  0  0  0  0  0  0
  186.2740  177.6130  143.3470 C   0  0  0  0  0  1  0  0  0  0  0  0
  186.5710  177.6010  144.8410 C   0  0  2  0  0  3  0  0  0  0  0  0
  185.8920  178.7800  145.5560 C   0  0  1  0  0  3  0  0  0  0  0  0
  183.4210  178.7010  145.0480 N   0  0  0  0  0  2  0  0  0  0  0  0
  184.7030  179.2660  144.7860 C   0  0  0  0  0  0  0  0  0  0  0  0
  184.8340  180.1740  143.9210 O   0  0  0  0  0  0  0  0  0  0  0  0
  182.2870  179.1290  144.3480 N   0  0  0  0  0  0  0  0  0  0  0  0
  182.0300  178.6480  143.1790 C   0  0  0  0  0  3  0  0  0  0  0  0
  180.5860  179.1970  142.2840 P   0  0  1  0  0  0  0  0  0  0  0  0
  179.3160  178.1140  142.5550 O   0  0  0  0  0  0  0  0  0  0  0  0
  180.1840  180.5730  142.7670 O   0  0  0  0  0  1  0  0  0  0  0  0
  180.9590  179.2500  140.5380 C   0  0  0  0  0  0  0  0  0  0  0  0
  180.3240  180.0370  139.7860 O   0  0  0  0  0  0  0  0  0  0  0  0
  181.9950  178.4190  140.0130 N   0  0  0  0  0  2  0  0  0  0  0  0
  182.3920  178.4500  138.6130 C   0  0  0  0  0  2  0  0  0  0  0  0
  183.8490  178.0430  138.4760 C   0  0  0  0  0  2  0  0  0  0  0  0
  185.7980  178.7350  139.6520 O   0  0  0  0  0  1  0  0  0  0  0  0
  184.7210  179.0740  139.0990 C   0  0  0  0  0  0  0  0  0  0  0  0
  184.3630  180.4140  139.0390 O   0  0  0  0  0  0  0  0  0  0  0  0
  186.0640  179.3550  147.6900 C   0  0  0  0  0  1  0  0  0  0  0  0
  185.4900  178.4060  146.8430 O   0  0  0  0  0  0  0  0  0  0  0  0
  191.1990  178.3400  143.0980 C   0  0  0  0  0  2  0  0  0  0  0  0
  191.7060  177.1020  142.3800 C   0  0  0  0  0  2  0  0  0  0  0  0
  191.3460  177.0540  139.8730 C   0  0  0  0  0  0  0  0  0  0  0  0
  192.5240  177.4620  139.6830 O   0  0  0  0  0  0  0  0  0  0  0  0
  190.8850  176.8330  141.2100 N   0  0  0  0  0  2  0  0  0  0  0  0
  191.4430  174.6200  138.2160 O   0  0  0  0  0  1  0  0  0  0  0  0
  188.6440  177.6060  137.2790 C   0  0  0  0  0  0  0  0  0  0  0  0
  190.4600  176.8050  138.7090 C   0  0  0  0  0  0  0  0  0  0  0  0
  189.5110  177.7820  138.3690 C   0  0  0  0  0  3  0  0  0  0  0  0
  190.5290  175.6270  137.9300 C   0  0  0  0  0  0  0  0  0  0  0  0
  188.7280  176.4370  136.5220 C   0  0  0  0  0  3  0  0  0  0  0  0
  189.6640  175.4550  136.8450 C   0  0  0  0  0  3  0  0  0  0  0  0
  187.6980  178.5720  136.9320 O   0  0  0  0  0  0  0  0  0  0  0  0
  186.8680  178.4570  135.7830 C   0  0  0  0  0  1  0  0  0  0  0  0
  1  7  1  0  0  0  0
  2  1  2  0  0  0  0
  3  4  2  0  0  0  0
  4  1  1  0  0  0  0
  5  2  1  0  0  0  0
  6  5  2  0  0  0  0
  6  3  1  0  0  0  0
  9  8  1  6  0  0  0
  9  3  1  0  0  0  0
  9 10  1  0  0  0  0
 10 12  1  6  0  0  0
 10 28  1  0  0  0  0
 12 11  1  0  0  0  0
 13 12  2  0  0  0  0
 14 11  1  0  0  0  0
 15 14  2  0  0  0  0
 16 17  2  1  0  0  0
 16 18  1  0  0  0  0
 16 15  1  0  0  0  0
 19 16  1  0  0  0  0
 20 19  2  0  0  0  0
 21 19  1  0  0  0  0
 22 21  1  0  0  0  0
 23 22  1  0  0  0  0
 23 25  1  0  0  0  0
 25 24  1  0  0  0  0
 26 25  2  0  0  0  0
 28 27  1  0  0  0  0
 29  5  1  0  0  0  0
 30 29  1  0  0  0  0
 31 33  1  0  0  0  0
 32 31  2  0  0  0  0
 33 30  1  0  0  0  0
 35 37  1  0  0  0  0
 36 31  1  0  0  0  0
 37 36  2  0  0  0  0
 38 34  1  0  0  0  0
 38 36  1  0  0  0  0
 39 40  1  0  0  0  0
 39 35  2  0  0  0  0
 40 38  2  0  0  0  0
 41 35  1  0  0  0  0
 42 41  1  0  0  0  0
M  END
>  <MODEL>
3

>  <REMARK>
 VINA RESULT:      -8.1      2.498      7.280
  Name = 
  15 active torsions:
  status: ('A' for Active; 'I' for Inactive)
    1  A    between atoms: C_1  and  P_20
    2  A    between atoms: C_4  and  C_32
    3  A    between atoms: C_4  and  N_42
    4  A    between atoms: C_5  and  C_32
    5  A    between atoms: C_6  and  O_21
    6  A    between atoms: C_9  and  C_12
    7  A    between atoms: C_10  and  C_19
    8  A    between atoms: C_10  and  C_23
    9  A    between atoms: C_10  and  O_38
   10  A    between atoms: N_11  and  N_37
   11  A    between atoms: C_14  and  C_25
   12  A    between atoms: C_14  and  C_26
   13  A    between atoms: C_16  and  C_19
   14  A    between atoms: P_20  and  C_41
   15  A    between atoms: C_26  and  N_29
                            x       y       z     vdW  Elec       q    Type
                         _______ _______ _______ _____ _____    ______ ____

>  <TORSDO>
F 15

$$$$
=
 OpenBabel10222419313D

 42 43  0  0  1  0  0  0  0  0999 V2000
  190.0670  177.1300  146.4990 C   0  0  0  0  0  0  0  0  0  0  0  0
  190.9200  177.5520  145.4750 C   0  0  0  0  0  3  0  0  0  0  0  0
  188.1460  177.5540  145.0760 C   0  0  0  0  0  0  0  0  0  0  0  0
  188.6840  177.1310  146.3020 C   0  0  0  0  0  3  0  0  0  0  0  0
  190.3890  177.9810  144.2530 C   0  0  0  0  0  0  0  0  0  0  0  0
  189.0040  177.9760  144.0550 C   0  0  0  0  0  3  0  0  0  0  0  0
  190.5950  176.7090  147.7120 O   0  0  0  0  0  1  0  0  0  0  0  0
  186.3850  177.5530  143.3350 C   0  0  0  0  0  1  0  0  0  0  0  0
  186.6670  177.5490  144.8330 C   0  0  2  0  0  3  0  0  0  0  0  0
  185.9640  178.7200  145.5380 C   0  0  1  0  0  3  0  0  0  0  0  0
  183.5610  178.8750  144.7780 N   0  0  0  0  0  2  0  0  0  0  0  0
  184.9100  179.3230  144.6610 C   0  0  0  0  0  0  0  0  0  0  0  0
  185.2110  180.2270  143.8340 O   0  0  0  0  0  0  0  0  0  0  0  0
  182.5500  179.4150  143.9760 N   0  0  0  0  0  0  0  0  0  0  0  0
  181.6200  178.6520  143.5090 C   0  0  0  0  0  3  0  0  0  0  0  0
  180.3320  179.3390  142.4820 P   0  0  1  0  0  0  0  0  0  0  0  0
  178.9310  178.4060  142.6440 O   0  0  0  0  0  0  0  0  0  0  0  0
  180.0410  180.7580  142.9150 O   0  0  0  0  0  1  0  0  0  0  0  0
  180.8630  179.3210  140.7770 C   0  0  0  0  0  0  0  0  0  0  0  0
  180.4980  180.2420  139.9970 O   0  0  0  0  0  0  0  0  0  0  0  0
  181.7220  178.2760  140.3170 N   0  0  0  0  0  2  0  0  0  0  0  0
  182.2400  178.2270  138.9590 C   0  0  0  0  0  2  0  0  0  0  0  0
  183.7100  177.8430  138.9760 C   0  0  0  0  0  2  0  0  0  0  0  0
  184.0090  180.1980  139.1440 O   0  0  0  0  0  0  0  0  0  0  0  0
  184.5460  179.0610  139.1500 C   0  0  0  0  0  0  0  0  0  0  0  0
  185.9140  178.9410  139.3520 O   0  0  0  0  0  1  0  0  0  0  0  0
  186.0330  179.0190  147.7330 C   0  0  0  0  0  1  0  0  0  0  0  0
  185.3810  178.2910  146.7360 O   0  0  0  0  0  0  0  0  0  0  0  0
  191.2990  178.4110  143.1580 C   0  0  0  0  0  2  0  0  0  0  0  0
  191.8640  177.1970  142.4400 C   0  0  0  0  0  2  0  0  0  0  0  0
  190.3930  176.8800  140.4030 C   0  0  0  0  0  0  0  0  0  0  0  0
  189.4650  176.4270  141.1280 O   0  0  0  0  0  0  0  0  0  0  0  0
  191.6170  177.3050  141.0110 N   0  0  0  0  0  2  0  0  0  0  0  0
  188.9560  179.0750  139.0600 O   0  0  0  0  0  1  0  0  0  0  0  0
  190.5780  175.9810  136.7300 C   0  0  0  0  0  0  0  0  0  0  0  0
  190.1970  176.9700  138.9350 C   0  0  0  0  0  0  0  0  0  0  0  0
  190.7280  175.9530  138.1250 C   0  0  0  0  0  3  0  0  0  0  0  0
  189.5030  178.0350  138.3170 C   0  0  0  0  0  0  0  0  0  0  0  0
  189.8880  177.0400  136.1390 C   0  0  0  0  0  3  0  0  0  0  0  0
  189.3540  178.0600  136.9270 C   0  0  0  0  0  3  0  0  0  0  0  0
  191.1010  174.9750  135.9160 O   0  0  0  0  0  0  0  0  0  0  0  0
  192.4350  174.9980  135.4270 C   0  0  0  0  0  1  0  0  0  0  0  0
  1  7  1  0  0  0  0
  2  1  2  0  0  0  0
  3  4  2  0  0  0  0
  4  1  1  0  0  0  0
  5  2  1  0  0  0  0
  6  5  2  0  0  0  0
  6  3  1  0  0  0  0
  9  8  1  6  0  0  0
  9  3  1  0  0  0  0
  9 10  1  0  0  0  0
 10 12  1  6  0  0  0
 10 28  1  0  0  0  0
 12 11  1  0  0  0  0
 13 12  2  0  0  0  0
 14 11  1  0  0  0  0
 15 14  2  0  0  0  0
 16 17  2  1  0  0  0
 16 18  1  0  0  0  0
 16 15  1  0  0  0  0
 19 16  1  0  0  0  0
 20 19  2  0  0  0  0
 21 19  1  0  0  0  0
 22 23  1  0  0  0  0
 22 21  1  0  0  0  0
 23 25  1  0  0  0  0
 24 25  2  0  0  0  0
 25 26  1  0  0  0  0
 28 27  1  0  0  0  0
 29  5  1  0  0  0  0
 30 29  1  0  0  0  0
 31 33  1  0  0  0  0
 31 32  2  0  0  0  0
 33 30  1  0  0  0  0
 35 37  1  0  0  0  0
 36 31  1  0  0  0  0
 37 36  2  0  0  0  0
 38 36  1  0  0  0  0
 38 34  1  0  0  0  0
 39 35  2  0  0  0  0
 39 40  1  0  0  0  0
 40 38  2  0  0  0  0
 41 35  1  0  0  0  0
 42 41  1  0  0  0  0
M  END
>  <MODEL>
4

>  <REMARK>
 VINA RESULT:      -8.1      2.571      7.412
  Name = 
  15 active torsions:
  status: ('A' for Active; 'I' for Inactive)
    1  A    between atoms: C_1  and  P_20
    2  A    between atoms: C_4  and  C_32
    3  A    between atoms: C_4  and  N_42
    4  A    between atoms: C_5  and  C_32
    5  A    between atoms: C_6  and  O_21
    6  A    between atoms: C_9  and  C_12
    7  A    between atoms: C_10  and  C_19
    8  A    between atoms: C_10  and  C_23
    9  A    between atoms: C_10  and  O_38
   10  A    between atoms: N_11  and  N_37
   11  A    between atoms: C_14  and  C_25
   12  A    between atoms: C_14  and  C_26
   13  A    between atoms: C_16  and  C_19
   14  A    between atoms: P_20  and  C_41
   15  A    between atoms: C_26  and  N_29
                            x       y       z     vdW  Elec       q    Type
                         _______ _______ _______ _____ _____    ______ ____

>  <TORSDO>
F 15

$$$$
=
 OpenBabel10222419313D

 42 43  0  0  1  0  0  0  0  0999 V2000
  189.2490  177.4400  146.7280 C   0  0  0  0  0  0  0  0  0  0  0  0
  187.9160  177.8090  146.9310 C   0  0  0  0  0  3  0  0  0  0  0  0
  188.7220  176.7780  144.4520 C   0  0  0  0  0  0  0  0  0  0  0  0
  189.6530  176.9250  145.4930 C   0  0  0  0  0  3  0  0  0  0  0  0
  186.9830  177.6590  145.8980 C   0  0  0  0  0  0  0  0  0  0  0  0
  187.3900  177.1490  144.6600 C   0  0  0  0  0  3  0  0  0  0  0  0
  190.1720  177.5860  147.7550 O   0  0  0  0  0  1  0  0  0  0  0  0
  190.4230  175.4450  143.2430 C   0  0  0  0  0  1  0  0  0  0  0  0
  189.1320  176.2440  143.1130 C   0  0  2  0  0  3  0  0  0  0  0  0
  189.2670  177.3600  142.0660 C   0  0  1  0  0  3  0  0  0  0  0  0
  190.0630  176.2390  139.9490 N   0  0  0  0  0  2  0  0  0  0  0  0
  190.3550  177.0510  141.0840 C   0  0  0  0  0  0  0  0  0  0  0  0
  191.5160  177.5130  141.2550 O   0  0  0  0  0  0  0  0  0  0  0  0
  191.0530  175.9280  139.0110 N   0  0  0  0  0  0  0  0  0  0  0  0
  190.7610  175.2110  137.9790 C   0  0  0  0  0  3  0  0  0  0  0  0
  192.0250  174.8090  136.7830 P   0  0  1  0  0  0  0  0  0  0  0  0
  191.9630  173.1550  136.4390 O   0  0  0  0  0  1  0  0  0  0  0  0
  191.7890  175.5950  135.5130 O   0  0  0  0  0  0  0  0  0  0  0  0
  193.6280  175.2150  137.4590 C   0  0  0  0  0  0  0  0  0  0  0  0
  193.9850  176.4200  137.5450 O   0  0  0  0  0  0  0  0  0  0  0  0
  194.4820  174.1680  137.9240 N   0  0  0  0  0  2  0  0  0  0  0  0
  195.7760  174.4250  138.5390 C   0  0  0  0  0  2  0  0  0  0  0  0
  196.8810  174.2670  137.5090 C   0  0  0  0  0  2  0  0  0  0  0  0
  199.1800  173.7890  137.8960 O   0  0  0  0  0  0  0  0  0  0  0  0
  198.2000  174.5380  138.1410 C   0  0  0  0  0  0  0  0  0  0  0  0
  198.3590  175.6360  138.9750 O   0  0  0  0  0  1  0  0  0  0  0  0
  188.1010  178.8530  140.9140 C   0  0  0  0  0  1  0  0  0  0  0  0
  188.0600  177.5380  141.3810 O   0  0  0  0  0  0  0  0  0  0  0  0
  185.5690  178.0700  146.1090 C   0  0  0  0  0  2  0  0  0  0  0  0
  185.1930  179.1710  145.1330 C   0  0  0  0  0  2  0  0  0  0  0  0
  184.2560  178.9860  142.7860 C   0  0  0  0  0  0  0  0  0  0  0  0
  185.2090  179.6800  142.3370 O   0  0  0  0  0  0  0  0  0  0  0  0
  184.2070  178.6780  144.1830 N   0  0  0  0  0  2  0  0  0  0  0  0
  181.4150  179.7460  142.9590 O   0  0  0  0  0  1  0  0  0  0  0  0
  182.6360  177.1190  139.9190 C   0  0  0  0  0  0  0  0  0  0  0  0
  183.2070  178.4960  141.8590 C   0  0  0  0  0  0  0  0  0  0  0  0
  183.5810  177.6180  140.8290 C   0  0  0  0  0  3  0  0  0  0  0  0
  181.8500  178.8770  141.9640 C   0  0  0  0  0  0  0  0  0  0  0  0
  181.3000  177.5060  140.0410 C   0  0  0  0  0  3  0  0  0  0  0  0
  180.9110  178.3790  141.0570 C   0  0  0  0  0  3  0  0  0  0  0  0
  182.9970  176.2440  138.8930 O   0  0  0  0  0  0  0  0  0  0  0  0
  183.3700  176.6930  137.5970 C   0  0  0  0  0  1  0  0  0  0  0  0
  1  2  1  0  0  0  0
  1  7  1  0  0  0  0
  3  6  2  0  0  0  0
  3  4  1  0  0  0  0
  4  1  2  0  0  0  0
  5 29  1  0  0  0  0
  5  2  2  0  0  0  0
  6  5  1  0  0  0  0
  9  8  1  1  0  0  0
  9  3  1  0  0  0  0
 10 12  1  6  0  0  0
 10  9  1  0  0  0  0
 11 12  1  0  0  0  0
 12 13  2  0  0  0  0
 14 11  1  0  0  0  0
 15 14  2  0  0  0  0
 16 18  2  6  0  0  0
 16 19  1  0  0  0  0
 16 15  1  0  0  0  0
 17 16  1  0  0  0  0
 19 20  2  0  0  0  0
 19 21  1  0  0  0  0
 21 22  1  0  0  0  0
 23 25  1  0  0  0  0
 23 22  1  0  0  0  0
 24 25  2  0  0  0  0
 25 26  1  0  0  0  0
 27 28  1  0  0  0  0
 28 10  1  0  0  0  0
 30 29  1  0  0  0  0
 31 33  1  0  0  0  0
 32 31  2  0  0  0  0
 33 30  1  0  0  0  0
 35 39  2  0  0  0  0
 35 37  1  0  0  0  0
 36 38  1  0  0  0  0
 36 31  1  0  0  0  0
 37 36  2  0  0  0  0
 38 34  1  0  0  0  0
 39 40  1  0  0  0  0
 40 38  2  0  0  0  0
 41 35  1  0  0  0  0
 42 41  1  0  0  0  0
M  END
>  <MODEL>
5

>  <REMARK>
 VINA RESULT:      -8.0      2.455      3.304
  Name = 
  15 active torsions:
  status: ('A' for Active; 'I' for Inactive)
    1  A    between atoms: C_1  and  P_20
    2  A    between atoms: C_4  and  C_32
    3  A    between atoms: C_4  and  N_42
    4  A    between atoms: C_5  and  C_32
    5  A    between atoms: C_6  and  O_21
    6  A    between atoms: C_9  and  C_12
    7  A    between atoms: C_10  and  C_19
    8  A    between atoms: C_10  and  C_23
    9  A    between atoms: C_10  and  O_38
   10  A    between atoms: N_11  and  N_37
   11  A    between atoms: C_14  and  C_25
   12  A    between atoms: C_14  and  C_26
   13  A    between atoms: C_16  and  C_19
   14  A    between atoms: P_20  and  C_41
   15  A    between atoms: C_26  and  N_29
                            x       y       z     vdW  Elec       q    Type
                         _______ _______ _______ _____ _____    ______ ____

>  <TORSDO>
F 15

$$$$
=
 OpenBabel10222419313D

 42 43  0  0  1  0  0  0  0  0999 V2000
  181.4240  178.6580  143.5250 C   0  0  0  0  0  0  0  0  0  0  0  0
  182.5030  179.0100  144.3400 C   0  0  0  0  0  3  0  0  0  0  0  0
  182.8870  178.6510  141.5870 C   0  0  0  0  0  0  0  0  0  0  0  0
  181.6130  178.4790  142.1520 C   0  0  0  0  0  3  0  0  0  0  0  0
  183.7750  179.1880  143.7810 C   0  0  0  0  0  0  0  0  0  0  0  0
  183.9640  179.0030  142.4070 C   0  0  0  0  0  3  0  0  0  0  0  0
  180.1630  178.4860  144.0800 O   0  0  0  0  0  1  0  0  0  0  0  0
  183.2350  176.9620  139.8110 C   0  0  0  0  0  1  0  0  0  0  0  0
  183.1210  178.4490  140.1200 C   0  0  2  0  0  3  0  0  0  0  0  0
  184.3520  179.2210  139.6230 C   0  0  1  0  0  3  0  0  0  0  0  0
  186.5140  178.3400  138.6600 N   0  0  0  0  0  2  0  0  0  0  0  0
  185.0930  178.4410  138.5800 C   0  0  0  0  0  0  0  0  0  0  0  0
  184.4660  177.8720  137.6470 O   0  0  0  0  0  0  0  0  0  0  0  0
  187.2400  177.6220  137.7040 N   0  0  0  0  0  0  0  0  0  0  0  0
  187.8550  176.5390  138.0410 C   0  0  0  0  0  3  0  0  0  0  0  0
  188.7860  175.6240  136.8240 P   0  0  1  0  0  0  0  0  0  0  0  0
  188.0380  174.1310  136.5550 O   0  0  0  0  0  1  0  0  0  0  0  0
  188.8300  176.4030  135.5290 O   0  0  0  0  0  0  0  0  0  0  0  0
  190.4460  175.3550  137.4280 C   0  0  0  0  0  0  0  0  0  0  0  0
  190.8700  174.1800  137.5930 O   0  0  0  0  0  0  0  0  0  0  0  0
  191.2890  176.4780  137.6930 N   0  0  0  0  0  2  0  0  0  0  0  0
  192.6690  176.3360  138.1320 C   0  0  0  0  0  2  0  0  0  0  0  0
  193.5760  176.1090  136.9350 C   0  0  0  0  0  2  0  0  0  0  0  0
  195.7750  175.2520  137.2430 O   0  0  0  0  0  0  0  0  0  0  0  0
  194.5400  175.0160  137.2330 C   0  0  0  0  0  0  0  0  0  0  0  0
  194.0750  173.7430  137.5330 O   0  0  0  0  0  1  0  0  0  0  0  0
  182.6390  180.2980  138.7190 C   0  0  0  0  0  1  0  0  0  0  0  0
  183.9730  180.4600  139.0940 O   0  0  0  0  0  0  0  0  0  0  0  0
  184.9260  179.5430  144.6540 C   0  0  0  0  0  2  0  0  0  0  0  0
  185.0760  178.5190  145.7650 C   0  0  0  0  0  2  0  0  0  0  0  0
  187.3040  177.4060  145.3000 C   0  0  0  0  0  0  0  0  0  0  0  0
  186.8080  176.7960  144.3130 O   0  0  0  0  0  0  0  0  0  0  0  0
  186.4850  178.3040  146.0560 N   0  0  0  0  0  2  0  0  0  0  0  0
  188.2610  176.9120  148.0430 O   0  0  0  0  0  1  0  0  0  0  0  0
  191.0470  177.0070  144.9050 C   0  0  0  0  0  0  0  0  0  0  0  0
  188.7270  177.1860  145.6570 C   0  0  0  0  0  0  0  0  0  0  0  0
  189.6860  177.2090  144.6320 C   0  0  0  0  0  3  0  0  0  0  0  0
  189.1590  176.9510  146.9830 C   0  0  0  0  0  0  0  0  0  0  0  0
  191.4540  176.7780  146.2200 C   0  0  0  0  0  3  0  0  0  0  0  0
  190.5160  176.7510  147.2520 C   0  0  0  0  0  3  0  0  0  0  0  0
  192.0090  177.0300  143.8920 O   0  0  0  0  0  0  0  0  0  0  0  0
  191.6810  177.2410  142.5260 C   0  0  0  0  0  1  0  0  0  0  0  0
  1  7  1  0  0  0  0
  1  2  1  0  0  0  0
  3  4  1  0  0  0  0
  3  6  2  0  0  0  0
  4  1  2  0  0  0  0
  5  2  2  0  0  0  0
  5 29  1  0  0  0  0
  6  5  1  0  0  0  0
  9  8  1  1  0  0  0
  9  3  1  0  0  0  0
 10 12  1  6  0  0  0
 10  9  1  0  0  0  0
 12 11  1  0  0  0  0
 13 12  2  0  0  0  0
 14 15  2  0  0  0  0
 14 11  1  0  0  0  0
 16 18  2  6  0  0  0
 16 19  1  0  0  0  0
 16 15  1  0  0  0  0
 17 16  1  0  0  0  0
 19 20  2  0  0  0  0
 19 21  1  0  0  0  0
 21 22  1  0  0  0  0
 23 25  1  0  0  0  0
 23 22  1  0  0  0  0
 25 24  2  0  0  0  0
 25 26  1  0  0  0  0
 27 28  1  0  0  0  0
 28 10  1  0  0  0  0
 29 30  1  0  0  0  0
 30 33  1  0  0  0  0
 31 36  1  0  0  0  0
 31 33  1  0  0  0  0
 32 31  2  0  0  0  0
 35 39  1  0  0  0  0
 36 38  2  0  0  0  0
 37 35  2  0  0  0  0
 37 36  1  0  0  0  0
 38 40  1  0  0  0  0
 38 34  1  0  0  0  0
 39 40  2  0  0  0  0
 41 35  1  0  0  0  0
 42 41  1  0  0  0  0
M  END
>  <MODEL>
6

>  <REMARK>
 VINA RESULT:      -7.7      2.070      6.951
  Name = 
  15 active torsions:
  status: ('A' for Active; 'I' for Inactive)
    1  A    between atoms: C_1  and  P_20
    2  A    between atoms: C_4  and  C_32
    3  A    between atoms: C_4  and  N_42
    4  A    between atoms: C_5  and  C_32
    5  A    between atoms: C_6  and  O_21
    6  A    between atoms: C_9  and  C_12
    7  A    between atoms: C_10  and  C_19
    8  A    between atoms: C_10  and  C_23
    9  A    between atoms: C_10  and  O_38
   10  A    between atoms: N_11  and  N_37
   11  A    between atoms: C_14  and  C_25
   12  A    between atoms: C_14  and  C_26
   13  A    between atoms: C_16  and  C_19
   14  A    between atoms: P_20  and  C_41
   15  A    between atoms: C_26  and  N_29
                            x       y       z     vdW  Elec       q    Type
                         _______ _______ _______ _____ _____    ______ ____

>  <TORSDO>
F 15

$$$$
=
 OpenBabel10222419313D

 42 43  0  0  1  0  0  0  0  0999 V2000
  187.7670  177.8780  147.9210 C   0  0  0  0  0  0  0  0  0  0  0  0
  186.5390  178.1290  147.3020 C   0  0  0  0  0  3  0  0  0  0  0  0
  188.8770  177.9720  145.7640 C   0  0  0  0  0  0  0  0  0  0  0  0
  188.9330  177.7990  147.1560 C   0  0  0  0  0  3  0  0  0  0  0  0
  186.4760  178.2970  145.9140 C   0  0  0  0  0  0  0  0  0  0  0  0
  187.6460  178.2240  145.1490 C   0  0  0  0  0  3  0  0  0  0  0  0
  187.8270  177.7080  149.2980 O   0  0  0  0  0  1  0  0  0  0  0  0
  189.9150  178.7070  143.6400 C   0  0  0  0  0  1  0  0  0  0  0  0
  190.1150  177.9090  144.9220 C   0  0  2  0  0  3  0  0  0  0  0  0
  190.5320  176.4610  144.6200 C   0  0  1  0  0  3  0  0  0  0  0  0
  191.2550  176.4310  142.2010 N   0  0  0  0  0  2  0  0  0  0  0  0
  190.2740  176.1130  143.1870 C   0  0  0  0  0  0  0  0  0  0  0  0
  189.2040  175.5340  142.8550 O   0  0  0  0  0  0  0  0  0  0  0  0
  191.0490  176.1220  140.8530 N   0  0  0  0  0  0  0  0  0  0  0  0
  190.6490  177.0360  140.0350 C   0  0  0  0  0  3  0  0  0  0  0  0
  190.3820  176.6410  138.3140 P   0  0  1  0  0  0  0  0  0  0  0  0
  191.8430  176.7880  137.4740 O   0  0  0  0  0  0  0  0  0  0  0  0
  189.8740  175.2220  138.1930 O   0  0  0  0  0  1  0  0  0  0  0  0
  189.1850  177.7750  137.6260 C   0  0  0  0  0  0  0  0  0  0  0  0
  189.0620  178.9290  138.1180 O   0  0  0  0  0  0  0  0  0  0  0  0
  188.3970  177.3730  136.5050 N   0  0  0  0  0  2  0  0  0  0  0  0
  187.4440  178.2610  135.8570 C   0  0  0  0  0  2  0  0  0  0  0  0
  186.0650  177.6250  135.8440 C   0  0  0  0  0  2  0  0  0  0  0  0
  184.9570  176.4970  137.6220 O   0  0  0  0  0  0  0  0  0  0  0  0
  185.5330  177.5440  137.2310 C   0  0  0  0  0  0  0  0  0  0  0  0
  185.7040  178.6110  138.1030 O   0  0  0  0  0  1  0  0  0  0  0  0
  191.9350  176.0220  146.2790 C   0  0  0  0  0  1  0  0  0  0  0  0
  191.8890  176.2720  144.9070 O   0  0  0  0  0  0  0  0  0  0  0  0
  185.1720  178.5840  145.2590 C   0  0  0  0  0  2  0  0  0  0  0  0
  185.3500  178.6680  143.7530 C   0  0  0  0  0  2  0  0  0  0  0  0
  183.7940  178.6610  141.7540 C   0  0  0  0  0  0  0  0  0  0  0  0
  184.5990  179.3870  141.1080 O   0  0  0  0  0  0  0  0  0  0  0  0
  184.1290  178.2490  143.0830 N   0  0  0  0  0  2  0  0  0  0  0  0
  181.1470  179.6860  142.5440 O   0  0  0  0  0  1  0  0  0  0  0  0
  181.3920  176.8670  139.4430 C   0  0  0  0  0  0  0  0  0  0  0  0
  182.5190  178.2430  141.1220 C   0  0  0  0  0  0  0  0  0  0  0  0
  182.5640  177.3030  140.0800 C   0  0  0  0  0  3  0  0  0  0  0  0
  181.2610  178.7510  141.5220 C   0  0  0  0  0  0  0  0  0  0  0  0
  180.1610  177.3790  139.8520 C   0  0  0  0  0  3  0  0  0  0  0  0
  180.0960  178.3150  140.8850 C   0  0  0  0  0  3  0  0  0  0  0  0
  181.4260  175.9320  138.4060 O   0  0  0  0  0  0  0  0  0  0  0  0
  181.5990  176.3000  137.0440 C   0  0  0  0  0  1  0  0  0  0  0  0
  1  7  1  0  0  0  0
  2  1  1  0  0  0  0
  3  4  1  0  0  0  0
  4  1  2  0  0  0  0
  5  2  2  0  0  0  0
  6  3  2  0  0  0  0
  6  5  1  0  0  0  0
  9  8  1  6  0  0  0
  9  3  1  0  0  0  0
 10 12  1  6  0  0  0
 10 28  1  0  0  0  0
 10  9  1  0  0  0  0
 11 12  1  0  0  0  0
 13 12  2  0  0  0  0
 14 11  1  0  0  0  0
 15 14  2  0  0  0  0
 16 17  2  6  0  0  0
 16 15  1  0  0  0  0
 18 16  1  0  0  0  0
 19 20  2  0  0  0  0
 19 16  1  0  0  0  0
 21 19  1  0  0  0  0
 22 21  1  0  0  0  0
 23 22  1  0  0  0  0
 23 25  1  0  0  0  0
 25 24  2  0  0  0  0
 25 26  1  0  0  0  0
 28 27  1  0  0  0  0
 29  5  1  0  0  0  0
 30 29  1  0  0  0  0
 31 33  1  0  0  0  0
 32 31  2  0  0  0  0
 33 30  1  0  0  0  0
 35 39  2  0  0  0  0
 35 37  1  0  0  0  0
 36 38  1  0  0  0  0
 36 31  1  0  0  0  0
 37 36  2  0  0  0  0
 38 34  1  0  0  0  0
 39 40  1  0  0  0  0
 40 38  2  0  0  0  0
 41 35  1  0  0  0  0
 42 41  1  0  0  0  0
M  END
>  <MODEL>
7

>  <REMARK>
 VINA RESULT:      -7.5      1.747      3.260
  Name = 
  15 active torsions:
  status: ('A' for Active; 'I' for Inactive)
    1  A    between atoms: C_1  and  P_20
    2  A    between atoms: C_4  and  C_32
    3  A    between atoms: C_4  and  N_42
    4  A    between atoms: C_5  and  C_32
    5  A    between atoms: C_6  and  O_21
    6  A    between atoms: C_9  and  C_12
    7  A    between atoms: C_10  and  C_19
    8  A    between atoms: C_10  and  C_23
    9  A    between atoms: C_10  and  O_38
   10  A    between atoms: N_11  and  N_37
   11  A    between atoms: C_14  and  C_25
   12  A    between atoms: C_14  and  C_26
   13  A    between atoms: C_16  and  C_19
   14  A    between atoms: P_20  and  C_41
   15  A    between atoms: C_26  and  N_29
                            x       y       z     vdW  Elec       q    Type
                         _______ _______ _______ _____ _____    ______ ____

>  <TORSDO>
F 15

$$$$
=
 OpenBabel10222419313D

 42 43  0  0  1  0  0  0  0  0999 V2000
  180.2550  178.5000  143.5490 C   0  0  0  0  0  0  0  0  0  0  0  0
  181.5640  178.7260  143.9820 C   0  0  0  0  0  3  0  0  0  0  0  0
  180.9680  178.7700  141.2430 C   0  0  0  0  0  0  0  0  0  0  0  0
  179.9560  178.5210  142.1840 C   0  0  0  0  0  3  0  0  0  0  0  0
  182.5770  178.9800  143.0490 C   0  0  0  0  0  0  0  0  0  0  0  0
  182.2770  178.9950  141.6820 C   0  0  0  0  0  3  0  0  0  0  0  0
  179.2510  178.2530  144.4750 O   0  0  0  0  0  1  0  0  0  0  0  0
  179.2350  179.2060  139.5300 C   0  0  0  0  0  1  0  0  0  0  0  0
  180.6780  178.7820  139.7730 C   0  0  2  0  0  3  0  0  0  0  0  0
  180.9820  177.4270  139.1160 C   0  0  1  0  0  3  0  0  0  0  0  0
  183.4230  177.6050  138.4950 N   0  0  0  0  0  2  0  0  0  0  0  0
  182.0580  177.5570  138.0830 C   0  0  0  0  0  0  0  0  0  0  0  0
  181.7620  177.6130  136.8580 O   0  0  0  0  0  0  0  0  0  0  0  0
  184.4550  177.7270  137.5590 N   0  0  0  0  0  0  0  0  0  0  0  0
  185.1660  176.6980  137.2450 C   0  0  0  0  0  3  0  0  0  0  0  0
  186.4870  176.8540  136.0540 P   0  0  1  0  0  0  0  0  0  0  0  0
  186.7440  175.3590  135.3060 O   0  0  0  0  0  1  0  0  0  0  0  0
  186.1090  177.8790  135.0090 O   0  0  0  0  0  0  0  0  0  0  0  0
  187.9810  177.3630  136.8920 C   0  0  0  0  0  0  0  0  0  0  0  0
  189.1040  177.0650  136.4050 O   0  0  0  0  0  0  0  0  0  0  0  0
  187.8880  178.1290  138.0940 N   0  0  0  0  0  2  0  0  0  0  0  0
  189.0590  178.6270  138.7990 C   0  0  0  0  0  2  0  0  0  0  0  0
  189.3450  177.7590  140.0120 C   0  0  0  0  0  2  0  0  0  0  0  0
  190.5550  175.8760  139.2040 O   0  0  0  0  0  0  0  0  0  0  0  0
  190.5960  176.9850  139.7950 C   0  0  0  0  0  0  0  0  0  0  0  0
  191.8140  177.5030  140.2150 O   0  0  0  0  0  1  0  0  0  0  0  0
  180.7800  175.2930  139.6840 C   0  0  0  0  0  1  0  0  0  0  0  0
  181.3750  176.4920  140.0810 O   0  0  0  0  0  0  0  0  0  0  0  0
  183.9730  179.2010  143.5110 C   0  0  0  0  0  2  0  0  0  0  0  0
  184.1530  178.6520  144.9160 C   0  0  0  0  0  2  0  0  0  0  0  0
  186.2800  178.3760  146.2630 C   0  0  0  0  0  0  0  0  0  0  0  0
  185.7690  179.0140  147.2240 O   0  0  0  0  0  0  0  0  0  0  0  0
  185.5050  178.1430  145.0820 N   0  0  0  0  0  2  0  0  0  0  0  0
  187.6150  177.7710  148.8200 O   0  0  0  0  0  1  0  0  0  0  0  0
  189.7250  177.1900  145.2370 C   0  0  0  0  0  0  0  0  0  0  0  0
  187.6710  177.8730  146.3760 C   0  0  0  0  0  0  0  0  0  0  0  0
  188.4050  177.6650  145.1970 C   0  0  0  0  0  3  0  0  0  0  0  0
  188.2880  177.5910  147.6160 C   0  0  0  0  0  0  0  0  0  0  0  0
  190.3170  176.9190  146.4710 C   0  0  0  0  0  3  0  0  0  0  0  0
  189.6030  177.1180  147.6520 C   0  0  0  0  0  3  0  0  0  0  0  0
  190.4640  176.9820  144.0700 O   0  0  0  0  0  0  0  0  0  0  0  0
  191.6080  177.7570  143.7370 C   0  0  0  0  0  1  0  0  0  0  0  0
  1  2  1  0  0  0  0
  1  7  1  0  0  0  0
  3  6  2  0  0  0  0
  3  4  1  0  0  0  0
  4  1  2  0  0  0  0
  5 29  1  0  0  0  0
  5  2  2  0  0  0  0
  6  5  1  0  0  0  0
  9  8  1  1  0  0  0
  9  3  1  0  0  0  0
 10 12  1  6  0  0  0
 10  9  1  0  0  0  0
 10 28  1  0  0  0  0
 12 11  1  0  0  0  0
 13 12  2  0  0  0  0
 14 11  1  0  0  0  0
 15 14  2  0  0  0  0
 16 18  2  6  0  0  0
 16 19  1  0  0  0  0
 16 15  1  0  0  0  0
 17 16  1  0  0  0  0
 19 21  1  0  0  0  0
 20 19  2  0  0  0  0
 21 22  1  0  0  0  0
 22 23  1  0  0  0  0
 24 25  2  0  0  0  0
 25 23  1  0  0  0  0
 25 26  1  0  0  0  0
 27 28  1  0  0  0  0
 29 30  1  0  0  0  0
 30 33  1  0  0  0  0
 31 36  1  0  0  0  0
 31 32  2  0  0  0  0
 33 31  1  0  0  0  0
 35 39  1  0  0  0  0
 36 38  2  0  0  0  0
 37 35  2  0  0  0  0
 37 36  1  0  0  0  0
 38 40  1  0  0  0  0
 38 34  1  0  0  0  0
 39 40  2  0  0  0  0
 41 35  1  0  0  0  0
 42 41  1  0  0  0  0
M  END
>  <MODEL>
8

>  <REMARK>
 VINA RESULT:      -7.5      2.225      7.802
  Name = 
  15 active torsions:
  status: ('A' for Active; 'I' for Inactive)
    1  A    between atoms: C_1  and  P_20
    2  A    between atoms: C_4  and  C_32
    3  A    between atoms: C_4  and  N_42
    4  A    between atoms: C_5  and  C_32
    5  A    between atoms: C_6  and  O_21
    6  A    between atoms: C_9  and  C_12
    7  A    between atoms: C_10  and  C_19
    8  A    between atoms: C_10  and  C_23
    9  A    between atoms: C_10  and  O_38
   10  A    between atoms: N_11  and  N_37
   11  A    between atoms: C_14  and  C_25
   12  A    between atoms: C_14  and  C_26
   13  A    between atoms: C_16  and  C_19
   14  A    between atoms: P_20  and  C_41
   15  A    between atoms: C_26  and  N_29
                            x       y       z     vdW  Elec       q    Type
                         _______ _______ _______ _____ _____    ______ ____

>  <TORSDO>
F 15

$$$$
=
 OpenBabel10222419313D

 42 43  0  0  1  0  0  0  0  0999 V2000
  180.3560  178.6010  143.5470 C   0  0  0  0  0  0  0  0  0  0  0  0
  181.5710  178.5730  144.2360 C   0  0  0  0  0  3  0  0  0  0  0  0
  181.5440  178.9770  141.4630 C   0  0  0  0  0  0  0  0  0  0  0  0
  180.3410  178.8030  142.1640 C   0  0  0  0  0  3  0  0  0  0  0  0
  182.7740  178.7520  143.5430 C   0  0  0  0  0  0  0  0  0  0  0  0
  182.7580  178.9480  142.1580 C   0  0  0  0  0  3  0  0  0  0  0  0
  179.1630  178.4280  144.2360 O   0  0  0  0  0  1  0  0  0  0  0  0
  180.2120  179.7210  139.5140 C   0  0  0  0  0  1  0  0  0  0  0  0
  181.5580  179.1790  139.9780 C   0  0  2  0  0  3  0  0  0  0  0  0
  181.9320  177.8920  139.2270 C   0  0  1  0  0  3  0  0  0  0  0  0
  184.3630  178.5390  139.0140 N   0  0  0  0  0  2  0  0  0  0  0  0
  183.1600  178.0920  138.3930 C   0  0  0  0  0  0  0  0  0  0  0  0
  183.1330  177.8580  137.1540 O   0  0  0  0  0  0  0  0  0  0  0  0
  185.5300  178.7380  138.2680 N   0  0  0  0  0  0  0  0  0  0  0  0
  186.5450  177.9610  138.4380 C   0  0  0  0  0  3  0  0  0  0  0  0
  188.0360  178.2170  137.4900 P   0  0  1  0  0  0  0  0  0  0  0  0
  187.6240  178.6270  135.9020 O   0  0  0  0  0  0  0  0  0  0  0  0
  188.8410  179.3390  138.1050 O   0  0  0  0  0  1  0  0  0  0  0  0
  188.9980  176.7120  137.4840 C   0  0  0  0  0  0  0  0  0  0  0  0
  188.4980  175.6500  137.0250 O   0  0  0  0  0  0  0  0  0  0  0  0
  190.3400  176.7310  137.9740 N   0  0  0  0  0  2  0  0  0  0  0  0
  191.2020  175.5590  137.9480 C   0  0  0  0  0  2  0  0  0  0  0  0
  192.2060  175.6760  136.8150 C   0  0  0  0  0  2  0  0  0  0  0  0
  194.3930  176.5650  136.5110 O   0  0  0  0  0  0  0  0  0  0  0  0
  193.4380  176.3530  137.3020 C   0  0  0  0  0  0  0  0  0  0  0  0
  193.5210  176.7810  138.6200 O   0  0  0  0  0  1  0  0  0  0  0  0
  181.6700  175.7050  139.4790 C   0  0  0  0  0  1  0  0  0  0  0  0
  182.1490  176.8440  140.1280 O   0  0  0  0  0  0  0  0  0  0  0  0
  184.0680  178.7020  144.2760 C   0  0  0  0  0  2  0  0  0  0  0  0
  185.2030  178.3960  143.3140 C   0  0  0  0  0  2  0  0  0  0  0  0
  187.6590  177.7860  143.4190 C   0  0  0  0  0  0  0  0  0  0  0  0
  187.7480  177.8750  142.1630 O   0  0  0  0  0  0  0  0  0  0  0  0
  186.4070  178.0590  144.0570 N   0  0  0  0  0  2  0  0  0  0  0  0
  190.1890  176.8380  142.2410 O   0  0  0  0  0  1  0  0  0  0  0  0
  189.8840  177.1610  146.4160 C   0  0  0  0  0  0  0  0  0  0  0  0
  188.8540  177.4070  144.2120 C   0  0  0  0  0  0  0  0  0  0  0  0
  188.7880  177.5040  145.6110 C   0  0  0  0  0  3  0  0  0  0  0  0
  190.0560  176.9550  143.6210 C   0  0  0  0  0  0  0  0  0  0  0  0
  191.0610  176.7150  145.8140 C   0  0  0  0  0  3  0  0  0  0  0  0
  191.1460  176.6130  144.4260 C   0  0  0  0  0  3  0  0  0  0  0  0
  189.8280  177.2530  147.8090 O   0  0  0  0  0  0  0  0  0  0  0  0
  189.0400  178.2260  148.4830 C   0  0  0  0  0  1  0  0  0  0  0  0
  1  2  1  0  0  0  0
  1  7  1  0  0  0  0
  3  6  2  0  0  0  0
  3  4  1  0  0  0  0
  4  1  2  0  0  0  0
  5  2  2  0  0  0  0
  5 29  1  0  0  0  0
  6  5  1  0  0  0  0
  9  8  1  6  0  0  0
  9  3  1  0  0  0  0
 10 12  1  1  0  0  0
 10  9  1  0  0  0  0
 10 28  1  0  0  0  0
 12 11  1  0  0  0  0
 13 12  2  0  0  0  0
 14 15  2  0  0  0  0
 14 11  1  0  0  0  0
 16 17  2  6  0  0  0
 16 18  1  0  0  0  0
 16 15  1  0  0  0  0
 19 16  1  0  0  0  0
 19 21  1  0  0  0  0
 20 19  2  0  0  0  0
 22 21  1  0  0  0  0
 23 25  1  0  0  0  0
 23 22  1  0  0  0  0
 24 25  2  0  0  0  0
 25 26  1  0  0  0  0
 27 28  1  0  0  0  0
 30 33  1  0  0  0  0
 30 29  1  0  0  0  0
 31 33  1  0  0  0  0
 31 36  1  0  0  0  0
 32 31  2  0  0  0  0
 34 38  1  0  0  0  0
 35 41  1  0  0  0  0
 36 37  1  0  0  0  0
 37 35  2  0  0  0  0
 38 36  2  0  0  0  0
 38 40  1  0  0  0  0
 39 35  1  0  0  0  0
 40 39  2  0  0  0  0
 41 42  1  0  0  0  0
M  END
>  <MODEL>
9

>  <REMARK>
 VINA RESULT:      -7.5      1.790      7.438
  Name = 
  15 active torsions:
  status: ('A' for Active; 'I' for Inactive)
    1  A    between atoms: C_1  and  P_20
    2  A    between atoms: C_4  and  C_32
    3  A    between atoms: C_4  and  N_42
    4  A    between atoms: C_5  and  C_32
    5  A    between atoms: C_6  and  O_21
    6  A    between atoms: C_9  and  C_12
    7  A    between atoms: C_10  and  C_19
    8  A    between atoms: C_10  and  C_23
    9  A    between atoms: C_10  and  O_38
   10  A    between atoms: N_11  and  N_37
   11  A    between atoms: C_14  and  C_25
   12  A    between atoms: C_14  and  C_26
   13  A    between atoms: C_16  and  C_19
   14  A    between atoms: P_20  and  C_41
   15  A    between atoms: C_26  and  N_29
                            x       y       z     vdW  Elec       q    Type
                         _______ _______ _______ _____ _____    ______ ____

>  <TORSDO>
F 15

$$$$
