=
 OpenBabel10222415493D

 31 33  0  0  1  0  0  0  0  0999 V2000
  188.5840  178.1110  140.0060 C   0  0  1  0  0  3  0  0  0  0  0  0
  189.8320  176.5770  137.1430 C   0  0  0  0  0  2  0  0  0  0  0  0
  188.6830  176.4110  138.1460 C   0  0  2  0  0  3  0  0  0  0  0  0
  189.8980  177.9590  136.8510 O   0  0  0  0  0  0  0  0  0  0  0  0
  187.6290  175.7360  137.5340 O   0  0  0  0  0  1  0  0  0  0  0  0
  188.8670  179.9180  137.5130 O   0  0  0  0  0  0  0  0  0  0  0  0
  189.0090  178.6720  137.6210 C   0  0  0  0  0  0  0  0  0  0  0  0
  188.2240  177.8200  138.5430 C   0  0  2  0  0  3  0  0  0  0  0  0
  186.1520  178.7410  140.3370 C   0  0  0  0  0  0  0  0  0  0  0  0
  187.4090  178.6500  140.7840 C   0  0  0  0  0  3  0  0  0  0  0  0
  185.4240  178.9600  142.7060 C   0  0  0  0  0  2  0  0  0  0  0  0
  184.3710  178.2970  143.1610 C   0  0  0  0  0  3  0  0  0  0  0  0
  185.1340  179.3110  141.2810 C   0  0  2  0  0  3  0  0  0  0  0  0
  183.8220  178.7210  141.0680 N   0  0  0  0  0  2  0  0  0  0  0  0
  183.4040  178.1660  142.1290 N   0  0  0  0  0  0  0  0  0  0  0  0
  185.7950  178.2910  138.9750 C   0  0  0  0  0  3  0  0  0  0  0  0
  185.2810  179.0710  138.1310 O   0  0  0  0  0  0  0  0  0  0  0  0
  189.1200  176.9180  140.6560 N   0  0  0  0  0  2  0  0  0  0  0  0
  189.5610  177.2900  141.9950 C   0  0  1  0  0  3  0  0  0  0  0  0
  188.7280  177.3390  145.6540 C   0  0  0  0  0  2  0  0  0  0  0  0
  189.2390  176.1590  142.9830 C   0  0  2  0  0  3  0  0  0  0  0  0
  187.8240  176.2830  143.5680 C   0  0  0  0  0  2  0  0  0  0  0  0
  190.2700  176.0730  144.1180 C   0  0  0  0  0  2  0  0  0  0  0  0
  190.1410  177.2600  145.0800 C   0  0  2  0  0  3  0  0  0  0  0  0
  187.7130  177.4700  144.5240 C   0  0  0  0  0  2  0  0  0  0  0  0
  191.1890  177.2190  146.1960 C   0  0  1  0  0  3  0  0  0  0  0  0
  190.5590  177.1160  147.5790 C   0  0  0  0  0  1  0  0  0  0  0  0
  192.3200  175.6510  147.2720 C   0  0  0  0  0  1  0  0  0  0  0  0
  192.0670  176.1520  145.9940 O   0  0  0  0  0  0  0  0  0  0  0  0
  191.6300  177.3050  140.5950 C   0  0  0  0  0  1  0  0  0  0  0  0
  191.0610  177.5610  141.9780 C   0  0  0  0  0  2  0  0  0  0  0  0
  1 18  1  0  0  0  0
  1 10  1  1  0  0  0
  2  3  1  0  0  0  0
  3  5  1  6  0  0  0
  3  8  1  0  0  0  0
  4  2  1  0  0  0  0
  4  7  1  0  0  0  0
  6  7  2  0  0  0  0
  7  8  1  0  0  0  0
  8  1  1  1  0  0  0
  9 10  2  0  0  0  0
 11 12  1  0  0  0  0
 13  9  1  6  0  0  0
 13 11  1  0  0  0  0
 14 13  1  0  0  0  0
 14 15  1  0  0  0  0
 15 12  2  0  0  0  0
 16  9  1  0  0  0  0
 17 16  2  0  0  0  0
 18 19  1  0  0  0  0
 19 31  1  6  0  0  0
 21 19  1  6  0  0  0
 21 22  1  0  0  0  0
 21 23  1  0  0  0  0
 22 25  1  0  0  0  0
 23 24  1  0  0  0  0
 24 20  1  0  0  0  0
 24 26  1  1  0  0  0
 25 20  1  0  0  0  0
 26 27  1  1  0  0  0
 29 26  1  0  0  0  0
 29 28  1  0  0  0  0
 30 31  1  0  0  0  0
M  END
>  <MODEL>
1

>  <REMARK>
 VINA RESULT:      -7.5      0.000      0.000
  Name = 
  10 active torsions:
  status: ('A' for Active; 'I' for Inactive)
    1  A    between atoms: C_3  and  N_9
    2  A    between atoms: C_3  and  C_14
    3  A    between atoms: C_3  and  C_25
    4  A    between atoms: C_5  and  C_6
    5  A    between atoms: C_6  and  C_7
    6  A    between atoms: N_9  and  C_18
    7  A    between atoms: C_12  and  C_18
    8  A    between atoms: C_15  and  C_18
    9  A    between atoms: C_21  and  C_27
   10  A    between atoms: C_21  and  O_30
                            x       y       z     vdW  Elec       q    Type
                         _______ _______ _______ _____ _____    ______ ____

>  <TORSDO>
F 10

$$$$
=
 OpenBabel10222415493D

 31 33  0  0  1  0  0  0  0  0999 V2000
  184.8010  178.4520  139.4760 C   0  0  1  0  0  3  0  0  0  0  0  0
  181.5290  179.2840  140.3230 C   0  0  0  0  0  2  0  0  0  0  0  0
  182.5900  179.6470  139.2740 C   0  0  2  0  0  3  0  0  0  0  0  0
  181.5710  177.8770  140.4480 O   0  0  0  0  0  0  0  0  0  0  0  0
  181.9590  180.1110  138.1210 O   0  0  0  0  0  1  0  0  0  0  0  0
  182.7960  176.1020  139.6180 O   0  0  0  0  0  0  0  0  0  0  0  0
  182.5860  177.3410  139.6900 C   0  0  0  0  0  0  0  0  0  0  0  0
  183.3620  178.3620  138.9500 C   0  0  2  0  0  3  0  0  0  0  0  0
  186.1060  177.7620  137.4170 C   0  0  0  0  0  0  0  0  0  0  0  0
  185.8000  178.6540  138.3650 C   0  0  0  0  0  3  0  0  0  0  0  0
  188.1400  177.0950  136.1470 C   0  0  0  0  0  3  0  0  0  0  0  0
  189.3270  177.6000  136.4470 C   0  0  0  0  0  3  0  0  0  0  0  0
  187.1340  178.1720  136.4020 C   0  0  2  0  0  3  0  0  0  0  0  0
  187.9560  179.2670  136.8910 N   0  0  0  0  0  0  0  0  0  0  0  0
  189.1800  178.9370  136.9020 N   0  0  0  0  0  0  0  0  0  0  0  0
  185.4490  176.4380  137.3790 C   0  0  0  0  0  3  0  0  0  0  0  0
  184.5840  176.1510  136.5110 O   0  0  0  0  0  0  0  0  0  0  0  0
  184.9240  179.5150  140.4710 N   0  0  0  0  0  2  0  0  0  0  0  0
  185.7540  179.0200  141.5630 C   0  0  1  0  0  3  0  0  0  0  0  0
  185.0440  179.0180  145.2480 C   0  0  0  0  0  2  0  0  0  0  0  0
  184.9400  178.0620  142.4450 C   0  0  2  0  0  3  0  0  0  0  0  0
  183.7490  178.7600  143.1170 C   0  0  0  0  0  2  0  0  0  0  0  0
  185.8110  177.3710  143.5040 C   0  0  0  0  0  2  0  0  0  0  0  0
  186.2550  178.3590  144.5900 C   0  0  2  0  0  3  0  0  0  0  0  0
  184.2090  179.7400  144.1970 C   0  0  0  0  0  2  0  0  0  0  0  0
  187.1620  177.7020  145.6350 C   0  0  1  0  0  3  0  0  0  0  0  0
  188.6370  177.8000  145.2660 C   0  0  0  0  0  1  0  0  0  0  0  0
  187.8740  177.6580  147.7300 C   0  0  0  0  0  1  0  0  0  0  0  0
  186.9480  178.2780  146.8890 O   0  0  0  0  0  0  0  0  0  0  0  0
  188.2490  178.9340  141.5030 C   0  0  0  0  0  1  0  0  0  0  0  0
  186.9700  178.3020  140.9900 C   0  0  0  0  0  2  0  0  0  0  0  0
  1 10  1  6  0  0  0
  1 18  1  0  0  0  0
  2  4  1  0  0  0  0
  3  5  1  6  0  0  0
  3  2  1  0  0  0  0
  6  7  2  0  0  0  0
  7  4  1  0  0  0  0
  8  3  1  0  0  0  0
  8  1  1  1  0  0  0
  8  7  1  0  0  0  0
  9 10  2  0  0  0  0
 11 13  1  0  0  0  0
 11 12  2  0  0  0  0
 12 15  1  0  0  0  0
 13 14  1  0  0  0  0
 13  9  1  1  0  0  0
 14 15  2  0  0  0  0
 16  9  1  0  0  0  0
 17 16  2  0  0  0  0
 18 19  1  0  0  0  0
 19 31  1  6  0  0  0
 21 19  1  1  0  0  0
 21 22  1  0  0  0  0
 21 23  1  0  0  0  0
 22 25  1  0  0  0  0
 23 24  1  0  0  0  0
 24 20  1  0  0  0  0
 24 26  1  1  0  0  0
 25 20  1  0  0  0  0
 26 27  1  6  0  0  0
 26 29  1  0  0  0  0
 29 28  1  0  0  0  0
 31 30  1  0  0  0  0
M  END
>  <MODEL>
2

>  <REMARK>
 VINA RESULT:      -7.5      2.898      5.597
  Name = 
  10 active torsions:
  status: ('A' for Active; 'I' for Inactive)
    1  A    between atoms: C_3  and  N_9
    2  A    between atoms: C_3  and  C_14
    3  A    between atoms: C_3  and  C_25
    4  A    between atoms: C_5  and  C_6
    5  A    between atoms: C_6  and  C_7
    6  A    between atoms: N_9  and  C_18
    7  A    between atoms: C_12  and  C_18
    8  A    between atoms: C_15  and  C_18
    9  A    between atoms: C_21  and  C_27
   10  A    between atoms: C_21  and  O_30
                            x       y       z     vdW  Elec       q    Type
                         _______ _______ _______ _____ _____    ______ ____

>  <TORSDO>
F 10

$$$$
=
 OpenBabel10222415493D

 31 33  0  0  1  0  0  0  0  0999 V2000
  189.2040  177.2900  139.2070 C   0  0  1  0  0  3  0  0  0  0  0  0
  188.3480  176.6850  135.8880 C   0  0  0  0  0  2  0  0  0  0  0  0
  187.8190  176.3950  137.2990 C   0  0  2  0  0  3  0  0  0  0  0  0
  188.7600  178.0370  135.8980 O   0  0  0  0  0  0  0  0  0  0  0  0
  186.4390  176.2060  137.2450 O   0  0  0  0  0  1  0  0  0  0  0  0
  188.9270  179.7850  137.4010 O   0  0  0  0  0  0  0  0  0  0  0  0
  188.6480  178.5820  137.1560 C   0  0  0  0  0  0  0  0  0  0  0  0
  188.1320  177.6250  138.1610 C   0  0  2  0  0  3  0  0  0  0  0  0
  191.3950  176.3830  138.3120 C   0  0  0  0  0  0  0  0  0  0  0  0
  190.5990  177.4060  138.6460 C   0  0  0  0  0  3  0  0  0  0  0  0
  193.0450  176.0170  136.4860 C   0  0  0  0  0  3  0  0  0  0  0  0
  194.1360  175.2930  136.6860 C   0  0  0  0  0  3  0  0  0  0  0  0
  192.7520  176.7260  137.7700 C   0  0  2  0  0  3  0  0  0  0  0  0
  193.8110  176.2500  138.6450 N   0  0  0  0  0  0  0  0  0  0  0  0
  194.5820  175.4570  138.0240 N   0  0  0  0  0  0  0  0  0  0  0  0
  190.9420  174.9850  138.4710 C   0  0  0  0  0  3  0  0  0  0  0  0
  190.4570  174.3310  137.5100 O   0  0  0  0  0  0  0  0  0  0  0  0
  189.0590  178.1370  140.3880 N   0  0  0  0  0  2  0  0  0  0  0  0
  189.3880  177.3380  141.5630 C   0  0  1  0  0  3  0  0  0  0  0  0
  190.9380  176.5160  144.8800 C   0  0  0  0  0  2  0  0  0  0  0  0
  190.4990  178.0270  142.3680 C   0  0  2  0  0  3  0  0  0  0  0  0
  191.7180  177.1160  142.5740 C   0  0  0  0  0  2  0  0  0  0  0  0
  189.9950  178.5440  143.7230 C   0  0  0  0  0  2  0  0  0  0  0  0
  189.6990  177.3880  144.6850 C   0  0  2  0  0  3  0  0  0  0  0  0
  191.4060  175.9700  143.5360 C   0  0  0  0  0  2  0  0  0  0  0  0
  189.1510  177.8770  146.0290 C   0  0  1  0  0  3  0  0  0  0  0  0
  187.6530  177.6400  146.1660 C   0  0  0  0  0  1  0  0  0  0  0  0
  189.3220  177.8550  148.2360 C   0  0  0  0  0  1  0  0  0  0  0  0
  189.8280  177.2560  147.0810 O   0  0  0  0  0  0  0  0  0  0  0  0
  187.0750  178.1650  142.0160 C   0  0  0  0  0  1  0  0  0  0  0  0
  188.1420  177.1680  142.4240 C   0  0  0  0  0  2  0  0  0  0  0  0
  1 10  1  6  0  0  0
  1 18  1  0  0  0  0
  2  4  1  0  0  0  0
  2  3  1  0  0  0  0
  3  5  1  6  0  0  0
  3  8  1  0  0  0  0
  4  7  1  0  0  0  0
  7  6  2  0  0  0  0
  7  8  1  0  0  0  0
  8  1  1  1  0  0  0
  9 16  1  0  0  0  0
  9 10  2  0  0  0  0
 11 12  2  0  0  0  0
 11 13  1  0  0  0  0
 12 15  1  0  0  0  0
 13  9  1  1  0  0  0
 13 14  1  0  0  0  0
 15 14  2  0  0  0  0
 17 16  2  0  0  0  0
 18 19  1  0  0  0  0
 19 31  1  1  0  0  0
 21 19  1  1  0  0  0
 21 22  1  0  0  0  0
 21 23  1  0  0  0  0
 22 25  1  0  0  0  0
 23 24  1  0  0  0  0
 24 20  1  0  0  0  0
 24 26  1  1  0  0  0
 25 20  1  0  0  0  0
 26 27  1  6  0  0  0
 26 29  1  0  0  0  0
 29 28  1  0  0  0  0
 30 31  1  0  0  0  0
M  END
>  <MODEL>
3

>  <REMARK>
 VINA RESULT:      -7.4      2.317      5.284
  Name = 
  10 active torsions:
  status: ('A' for Active; 'I' for Inactive)
    1  A    between atoms: C_3  and  N_9
    2  A    between atoms: C_3  and  C_14
    3  A    between atoms: C_3  and  C_25
    4  A    between atoms: C_5  and  C_6
    5  A    between atoms: C_6  and  C_7
    6  A    between atoms: N_9  and  C_18
    7  A    between atoms: C_12  and  C_18
    8  A    between atoms: C_15  and  C_18
    9  A    between atoms: C_21  and  C_27
   10  A    between atoms: C_21  and  O_30
                            x       y       z     vdW  Elec       q    Type
                         _______ _______ _______ _____ _____    ______ ____

>  <TORSDO>
F 10

$$$$
=
 OpenBabel10222415493D

 31 33  0  0  1  0  0  0  0  0999 V2000
  188.2610  178.2740  140.1630 C   0  0  1  0  0  3  0  0  0  0  0  0
  190.0860  176.5650  137.7420 C   0  0  0  0  0  2  0  0  0  0  0  0
  188.7750  176.4250  138.5280 C   0  0  2  0  0  3  0  0  0  0  0  0
  190.1520  177.9170  137.3350 O   0  0  0  0  0  0  0  0  0  0  0  0
  187.8830  175.6400  137.8000 O   0  0  0  0  0  1  0  0  0  0  0  0
  188.9390  179.8660  137.6000 O   0  0  0  0  0  0  0  0  0  0  0  0
  189.1070  178.6450  137.8540 C   0  0  0  0  0  0  0  0  0  0  0  0
  188.1950  177.8350  138.6940 C   0  0  2  0  0  3  0  0  0  0  0  0
  185.7680  178.6970  139.9990 C   0  0  0  0  0  0  0  0  0  0  0  0
  186.9060  178.6610  140.7010 C   0  0  0  0  0  3  0  0  0  0  0  0
  183.7520  177.9390  141.2460 C   0  0  0  0  0  2  0  0  0  0  0  0
  182.5460  178.0090  140.7010 C   0  0  0  0  0  3  0  0  0  0  0  0
  184.5270  179.1120  140.7350 C   0  0  2  0  0  3  0  0  0  0  0  0
  183.5750  179.7630  139.8490 N   0  0  0  0  0  2  0  0  0  0  0  0
  182.4700  179.1410  139.8470 N   0  0  0  0  0  0  0  0  0  0  0  0
  185.7470  178.3360  138.5660 C   0  0  0  0  0  3  0  0  0  0  0  0
  184.9560  177.4690  138.1110 O   0  0  0  0  0  0  0  0  0  0  0  0
  188.8570  177.2290  140.9900 N   0  0  0  0  0  2  0  0  0  0  0  0
  188.8790  177.7000  142.3700 C   0  0  1  0  0  3  0  0  0  0  0  0
  187.2360  177.9160  145.7370 C   0  0  0  0  0  2  0  0  0  0  0  0
  188.3140  176.6170  143.3000 C   0  0  2  0  0  3  0  0  0  0  0  0
  186.8060  176.7860  143.5410 C   0  0  0  0  0  2  0  0  0  0  0  0
  189.0570  176.5630  144.6430 C   0  0  0  0  0  2  0  0  0  0  0  0
  188.7410  177.7920  145.5050 C   0  0  2  0  0  3  0  0  0  0  0  0
  186.5090  178.0140  144.4010 C   0  0  0  0  0  2  0  0  0  0  0  0
  189.5060  177.7820  146.8310 C   0  0  1  0  0  3  0  0  0  0  0  0
  188.6450  178.2440  148.0000 C   0  0  0  0  0  1  0  0  0  0  0  0
  191.3700  176.6980  147.3310 C   0  0  0  0  0  1  0  0  0  0  0  0
  190.0090  176.5050  147.0890 O   0  0  0  0  0  0  0  0  0  0  0  0
  191.2950  177.3280  141.8580 C   0  0  0  0  0  1  0  0  0  0  0  0
  190.3120  178.0390  142.7670 C   0  0  0  0  0  2  0  0  0  0  0  0
  1 10  1  1  0  0  0
  1 18  1  0  0  0  0
  2  3  1  0  0  0  0
  3  5  1  6  0  0  0
  3  8  1  0  0  0  0
  4  2  1  0  0  0  0
  4  7  1  0  0  0  0
  6  7  2  0  0  0  0
  7  8  1  0  0  0  0
  8  1  1  1  0  0  0
  9 10  2  0  0  0  0
 12 11  1  0  0  0  0
 13  9  1  6  0  0  0
 13 11  1  0  0  0  0
 14 13  1  0  0  0  0
 15 14  1  0  0  0  0
 15 12  2  0  0  0  0
 16  9  1  0  0  0  0
 17 16  2  0  0  0  0
 18 19  1  0  0  0  0
 19 31  1  1  0  0  0
 21 19  1  6  0  0  0
 21 22  1  0  0  0  0
 21 23  1  0  0  0  0
 22 25  1  0  0  0  0
 23 24  1  0  0  0  0
 24 20  1  0  0  0  0
 24 26  1  1  0  0  0
 25 20  1  0  0  0  0
 26 29  1  0  0  0  0
 26 27  1  1  0  0  0
 29 28  1  0  0  0  0
 30 31  1  0  0  0  0
M  END
>  <MODEL>
4

>  <REMARK>
 VINA RESULT:      -7.3      1.239      1.415
  Name = 
  10 active torsions:
  status: ('A' for Active; 'I' for Inactive)
    1  A    between atoms: C_3  and  N_9
    2  A    between atoms: C_3  and  C_14
    3  A    between atoms: C_3  and  C_25
    4  A    between atoms: C_5  and  C_6
    5  A    between atoms: C_6  and  C_7
    6  A    between atoms: N_9  and  C_18
    7  A    between atoms: C_12  and  C_18
    8  A    between atoms: C_15  and  C_18
    9  A    between atoms: C_21  and  C_27
   10  A    between atoms: C_21  and  O_30
                            x       y       z     vdW  Elec       q    Type
                         _______ _______ _______ _____ _____    ______ ____

>  <TORSDO>
F 10

$$$$
=
 OpenBabel10222415493D

 31 33  0  0  1  0  0  0  0  0999 V2000
  188.0190  177.6900  144.8890 C   0  0  1  0  0  3  0  0  0  0  0  0
  186.3080  179.5420  147.2870 C   0  0  0  0  0  2  0  0  0  0  0  0
  186.0220  178.7520  146.0040 C   0  0  2  0  0  3  0  0  0  0  0  0
  187.2100  178.7530  148.0380 O   0  0  0  0  0  0  0  0  0  0  0  0
  184.7020  178.3050  146.0210 O   0  0  0  0  0  1  0  0  0  0  0  0
  188.3640  176.7630  147.8180 O   0  0  0  0  0  0  0  0  0  0  0  0
  187.5910  177.6330  147.3380 C   0  0  0  0  0  0  0  0  0  0  0  0
  186.9680  177.5440  145.9970 C   0  0  2  0  0  3  0  0  0  0  0  0
  190.5350  177.8510  145.1470 C   0  0  0  0  0  0  0  0  0  0  0  0
  189.3780  177.2050  145.3280 C   0  0  0  0  0  3  0  0  0  0  0  0
  191.9150  175.7800  145.1670 C   0  0  0  0  0  3  0  0  0  0  0  0
  191.9530  174.9960  146.2330 C   0  0  0  0  0  3  0  0  0  0  0  0
  191.7760  177.1840  145.6650 C   0  0  2  0  0  3  0  0  0  0  0  0
  191.7210  177.0070  147.1070 N   0  0  0  0  0  0  0  0  0  0  0  0
  191.8310  175.7800  147.4110 N   0  0  0  0  0  0  0  0  0  0  0  0
  190.5730  179.1650  144.4710 C   0  0  0  0  0  3  0  0  0  0  0  0
  191.6510  179.6670  144.0560 O   0  0  0  0  0  0  0  0  0  0  0  0
  187.5960  176.9910  143.6780 N   0  0  0  0  0  2  0  0  0  0  0  0
  188.2570  177.6190  142.5380 C   0  0  1  0  0  3  0  0  0  0  0  0
  191.0820  177.6740  140.0700 C   0  0  0  0  0  2  0  0  0  0  0  0
  188.8090  176.5390  141.5960 C   0  0  2  0  0  3  0  0  0  0  0  0
  190.2690  176.1830  141.9130 C   0  0  0  0  0  2  0  0  0  0  0  0
  188.6740  176.9380  140.1190 C   0  0  0  0  0  2  0  0  0  0  0  0
  189.6410  178.0720  139.7580 C   0  0  2  0  0  3  0  0  0  0  0  0
  191.2180  177.3230  141.5470 C   0  0  0  0  0  2  0  0  0  0  0  0
  189.4930  178.5180  138.3000 C   0  0  1  0  0  3  0  0  0  0  0  0
  189.6990  177.3710  137.3200 C   0  0  0  0  0  1  0  0  0  0  0  0
  187.7730  178.5320  136.9070 C   0  0  0  0  0  1  0  0  0  0  0  0
  188.2380  179.0950  138.0970 O   0  0  0  0  0  0  0  0  0  0  0  0
  185.8520  178.2510  142.3040 C   0  0  0  0  0  1  0  0  0  0  0  0
  187.2590  178.5020  141.7980 C   0  0  0  0  0  2  0  0  0  0  0  0
  1 10  1  1  0  0  0
  2  4  1  0  0  0  0
  3  5  1  1  0  0  0
  3  2  1  0  0  0  0
  7  6  2  0  0  0  0
  7  4  1  0  0  0  0
  8  1  1  6  0  0  0
  8  3  1  0  0  0  0
  8  7  1  0  0  0  0
  9 10  2  0  0  0  0
 11 13  1  0  0  0  0
 11 12  2  0  0  0  0
 12 15  1  0  0  0  0
 13  9  1  6  0  0  0
 13 14  1  0  0  0  0
 14 15  2  0  0  0  0
 16  9  1  0  0  0  0
 17 16  2  0  0  0  0
 18  1  1  0  0  0  0
 19 31  1  6  0  0  0
 19 18  1  0  0  0  0
 20 25  1  0  0  0  0
 21 22  1  0  0  0  0
 21 19  1  1  0  0  0
 23 21  1  0  0  0  0
 24 26  1  6  0  0  0
 24 20  1  0  0  0  0
 24 23  1  0  0  0  0
 25 22  1  0  0  0  0
 26 27  1  6  0  0  0
 28 29  1  0  0  0  0
 29 26  1  0  0  0  0
 31 30  1  0  0  0  0
M  END
>  <MODEL>
5

>  <REMARK>
 VINA RESULT:      -7.3      3.086      7.835
  Name = 
  10 active torsions:
  status: ('A' for Active; 'I' for Inactive)
    1  A    between atoms: C_3  and  N_9
    2  A    between atoms: C_3  and  C_14
    3  A    between atoms: C_3  and  C_25
    4  A    between atoms: C_5  and  C_6
    5  A    between atoms: C_6  and  C_7
    6  A    between atoms: N_9  and  C_18
    7  A    between atoms: C_12  and  C_18
    8  A    between atoms: C_15  and  C_18
    9  A    between atoms: C_21  and  C_27
   10  A    between atoms: C_21  and  O_30
                            x       y       z     vdW  Elec       q    Type
                         _______ _______ _______ _____ _____    ______ ____

>  <TORSDO>
F 10

$$$$
=
 OpenBabel10222415493D

 31 33  0  0  1  0  0  0  0  0999 V2000
  188.6840  178.1030  145.4400 C   0  0  1  0  0  3  0  0  0  0  0  0
  189.0840  175.8840  148.0910 C   0  0  0  0  0  2  0  0  0  0  0  0
  189.9370  176.6160  147.0470 C   0  0  2  0  0  3  0  0  0  0  0  0
  188.1570  176.8350  148.5740 O   0  0  0  0  0  0  0  0  0  0  0  0
  191.2340  176.7670  147.5330 O   0  0  0  0  0  1  0  0  0  0  0  0
  187.5610  179.0310  148.1680 O   0  0  0  0  0  0  0  0  0  0  0  0
  188.2640  178.0230  147.8900 C   0  0  0  0  0  0  0  0  0  0  0  0
  189.3070  178.0000  146.8400 C   0  0  2  0  0  3  0  0  0  0  0  0
  190.4890  177.8360  143.6810 C   0  0  0  0  0  0  0  0  0  0  0  0
  189.4800  177.3440  144.4080 C   0  0  0  0  0  3  0  0  0  0  0  0
  191.7140  177.6220  141.5250 C   0  0  0  0  0  2  0  0  0  0  0  0
  191.1210  177.1260  140.4500 C   0  0  0  0  0  3  0  0  0  0  0  0
  191.1450  176.9020  142.7060 C   0  0  2  0  0  3  0  0  0  0  0  0
  190.1760  176.0050  142.0960 N   0  0  0  0  0  2  0  0  0  0  0  0
  190.1810  176.1340  140.8340 N   0  0  0  0  0  0  0  0  0  0  0  0
  190.9310  179.2370  143.8460 C   0  0  0  0  0  3  0  0  0  0  0  0
  192.0400  179.5260  144.3670 O   0  0  0  0  0  0  0  0  0  0  0  0
  187.2980  177.6430  145.4540 N   0  0  0  0  0  2  0  0  0  0  0  0
  186.5590  178.4000  144.4500 C   0  0  1  0  0  3  0  0  0  0  0  0
  185.4490  179.1550  140.9460 C   0  0  0  0  0  2  0  0  0  0  0  0
  186.1740  177.4810  143.2820 C   0  0  2  0  0  3  0  0  0  0  0  0
  187.1080  177.6530  142.0750 C   0  0  0  0  0  2  0  0  0  0  0  0
  184.7140  177.6780  142.8490 C   0  0  0  0  0  2  0  0  0  0  0  0
  184.5180  179.0280  142.1500 C   0  0  2  0  0  3  0  0  0  0  0  0
  186.8990  179.0030  141.3910 C   0  0  0  0  0  2  0  0  0  0  0  0
  183.0600  179.2670  141.7480 C   0  0  1  0  0  3  0  0  0  0  0  0
  182.6450  178.4300  140.5450 C   0  0  0  0  0  1  0  0  0  0  0  0
  180.9570  178.7910  142.2520 C   0  0  0  0  0  1  0  0  0  0  0  0
  182.2120  178.9990  142.8260 O   0  0  0  0  0  0  0  0  0  0  0  0
  184.9570  178.2540  146.3610 C   0  0  0  0  0  1  0  0  0  0  0  0
  185.3070  178.9950  145.0860 C   0  0  0  0  0  2  0  0  0  0  0  0
  1 10  1  6  0  0  0
  1 18  1  0  0  0  0
  2  4  1  0  0  0  0
  3  5  1  1  0  0  0
  3  2  1  0  0  0  0
  7  6  2  0  0  0  0
  7  4  1  0  0  0  0
  8  1  1  6  0  0  0
  8  3  1  0  0  0  0
  8  7  1  0  0  0  0
  9 16  1  0  0  0  0
  9 10  2  0  0  0  0
 11 13  1  0  0  0  0
 12 15  2  0  0  0  0
 12 11  1  0  0  0  0
 13  9  1  1  0  0  0
 14 13  1  0  0  0  0
 15 14  1  0  0  0  0
 16 17  2  0  0  0  0
 19 31  1  1  0  0  0
 19 18  1  0  0  0  0
 20 25  1  0  0  0  0
 20 24  1  0  0  0  0
 21 19  1  1  0  0  0
 22 21  1  0  0  0  0
 23 21  1  0  0  0  0
 24 26  1  6  0  0  0
 24 23  1  0  0  0  0
 25 22  1  0  0  0  0
 26 27  1  6  0  0  0
 26 29  1  0  0  0  0
 28 29  1  0  0  0  0
 31 30  1  0  0  0  0
M  END
>  <MODEL>
6

>  <REMARK>
 VINA RESULT:      -6.8      3.489      8.032
  Name = 
  10 active torsions:
  status: ('A' for Active; 'I' for Inactive)
    1  A    between atoms: C_3  and  N_9
    2  A    between atoms: C_3  and  C_14
    3  A    between atoms: C_3  and  C_25
    4  A    between atoms: C_5  and  C_6
    5  A    between atoms: C_6  and  C_7
    6  A    between atoms: N_9  and  C_18
    7  A    between atoms: C_12  and  C_18
    8  A    between atoms: C_15  and  C_18
    9  A    between atoms: C_21  and  C_27
   10  A    between atoms: C_21  and  O_30
                            x       y       z     vdW  Elec       q    Type
                         _______ _______ _______ _____ _____    ______ ____

>  <TORSDO>
F 10

$$$$
=
 OpenBabel10222415493D

 31 33  0  0  1  0  0  0  0  0999 V2000
  182.4710  178.2310  140.5940 C   0  0  1  0  0  3  0  0  0  0  0  0
  179.3270  179.5850  141.2200 C   0  0  0  0  0  2  0  0  0  0  0  0
  180.4990  179.7630  140.2450 C   0  0  2  0  0  3  0  0  0  0  0  0
  179.1340  178.1910  141.3470 O   0  0  0  0  0  0  0  0  0  0  0  0
  180.0280  180.3100  139.0530 O   0  0  0  0  0  1  0  0  0  0  0  0
  180.1100  176.2340  140.6000 O   0  0  0  0  0  0  0  0  0  0  0  0
  180.0980  177.4910  140.6590 C   0  0  0  0  0  0  0  0  0  0  0  0
  181.0740  178.3670  139.9720 C   0  0  2  0  0  3  0  0  0  0  0  0
  183.7860  177.6490  138.5070 C   0  0  0  0  0  0  0  0  0  0  0  0
  183.5670  178.4240  139.5750 C   0  0  0  0  0  3  0  0  0  0  0  0
  185.7300  176.8320  137.1840 C   0  0  0  0  0  3  0  0  0  0  0  0
  186.9700  177.0200  137.6070 C   0  0  0  0  0  3  0  0  0  0  0  0
  184.9380  178.0240  137.6200 C   0  0  2  0  0  3  0  0  0  0  0  0
  185.9230  178.8180  138.3350 N   0  0  0  0  0  0  0  0  0  0  0  0
  187.0570  178.2500  138.3120 N   0  0  0  0  0  0  0  0  0  0  0  0
  182.9230  176.4840  138.2230 C   0  0  0  0  0  3  0  0  0  0  0  0
  183.0640  175.3890  138.8290 O   0  0  0  0  0  0  0  0  0  0  0  0
  182.6380  179.1640  141.7040 N   0  0  0  0  0  2  0  0  0  0  0  0
  183.5110  178.5420  142.6930 C   0  0  1  0  0  3  0  0  0  0  0  0
  187.1400  177.7950  143.2830 C   0  0  0  0  0  2  0  0  0  0  0  0
  184.7060  179.4600  142.9870 C   0  0  2  0  0  3  0  0  0  0  0  0
  185.7830  179.3790  141.8940 C   0  0  0  0  0  2  0  0  0  0  0  0
  185.3300  179.1740  144.3600 C   0  0  0  0  0  2  0  0  0  0  0  0
  186.0670  177.8300  144.3700 C   0  0  2  0  0  3  0  0  0  0  0  0
  186.5070  178.0330  141.9170 C   0  0  0  0  0  2  0  0  0  0  0  0
  186.6600  177.5030  145.7430 C   0  0  1  0  0  3  0  0  0  0  0  0
  188.1790  177.4030  145.7100 C   0  0  0  0  0  1  0  0  0  0  0  0
  187.1590  178.3100  147.7430 C   0  0  0  0  0  1  0  0  0  0  0  0
  186.2690  178.4630  146.6790 O   0  0  0  0  0  0  0  0  0  0  0  0
  181.3770  178.9810  143.9160 C   0  0  0  0  0  1  0  0  0  0  0  0
  182.7220  178.2820  143.9720 C   0  0  0  0  0  2  0  0  0  0  0  0
  1 10  1  6  0  0  0
  1 18  1  0  0  0  0
  2  4  1  0  0  0  0
  3  5  1  6  0  0  0
  3  2  1  0  0  0  0
  6  7  2  0  0  0  0
  7  4  1  0  0  0  0
  8  3  1  0  0  0  0
  8  1  1  1  0  0  0
  8  7  1  0  0  0  0
  9 10  2  0  0  0  0
 11 12  2  0  0  0  0
 11 13  1  0  0  0  0
 12 15  1  0  0  0  0
 13 14  1  0  0  0  0
 13  9  1  1  0  0  0
 15 14  2  0  0  0  0
 16  9  1  0  0  0  0
 16 17  2  0  0  0  0
 18 19  1  0  0  0  0
 19 31  1  1  0  0  0
 20 24  1  0  0  0  0
 21 19  1  6  0  0  0
 21 23  1  0  0  0  0
 22 25  1  0  0  0  0
 22 21  1  0  0  0  0
 23 24  1  0  0  0  0
 24 26  1  1  0  0  0
 25 20  1  0  0  0  0
 26 27  1  6  0  0  0
 26 29  1  0  0  0  0
 29 28  1  0  0  0  0
 30 31  1  0  0  0  0
M  END
>  <MODEL>
7

>  <REMARK>
 VINA RESULT:      -6.8      3.501      6.728
  Name = 
  10 active torsions:
  status: ('A' for Active; 'I' for Inactive)
    1  A    between atoms: C_3  and  N_9
    2  A    between atoms: C_3  and  C_14
    3  A    between atoms: C_3  and  C_25
    4  A    between atoms: C_5  and  C_6
    5  A    between atoms: C_6  and  C_7
    6  A    between atoms: N_9  and  C_18
    7  A    between atoms: C_12  and  C_18
    8  A    between atoms: C_15  and  C_18
    9  A    between atoms: C_21  and  C_27
   10  A    between atoms: C_21  and  O_30
                            x       y       z     vdW  Elec       q    Type
                         _______ _______ _______ _____ _____    ______ ____

>  <TORSDO>
F 10

$$$$
=
 OpenBabel10222415493D

 31 33  0  0  1  0  0  0  0  0999 V2000
  187.9530  178.1810  141.2380 C   0  0  1  0  0  3  0  0  0  0  0  0
  188.5340  177.0050  138.0150 C   0  0  0  0  0  2  0  0  0  0  0  0
  188.2740  178.3310  138.7420 C   0  0  2  0  0  3  0  0  0  0  0  0
  189.4630  176.2990  138.8130 O   0  0  0  0  0  0  0  0  0  0  0  0
  188.8180  179.3780  138.0000 O   0  0  0  0  0  1  0  0  0  0  0  0
  190.5510  176.5540  140.8360 O   0  0  0  0  0  0  0  0  0  0  0  0
  189.7270  176.9740  139.9820 C   0  0  0  0  0  0  0  0  0  0  0  0
  188.9810  178.2480  140.1000 C   0  0  2  0  0  3  0  0  0  0  0  0
  188.5620  177.6890  143.6480 C   0  0  0  0  0  0  0  0  0  0  0  0
  188.5690  178.4920  142.5790 C   0  0  0  0  0  3  0  0  0  0  0  0
  190.5450  177.5190  145.1420 C   0  0  0  0  0  3  0  0  0  0  0  0
  190.4560  176.9460  146.3330 C   0  0  0  0  0  3  0  0  0  0  0  0
  189.2380  178.1990  144.8880 C   0  0  2  0  0  3  0  0  0  0  0  0
  188.4730  177.8760  146.0820 N   0  0  0  0  0  0  0  0  0  0  0  0
  189.1690  177.1840  146.8840 N   0  0  0  0  0  0  0  0  0  0  0  0
  187.9190  176.3590  143.5950 C   0  0  0  0  0  3  0  0  0  0  0  0
  188.5460  175.3330  143.2180 O   0  0  0  0  0  0  0  0  0  0  0  0
  186.8290  179.0760  140.9750 N   0  0  0  0  0  2  0  0  0  0  0  0
  185.6720  178.5800  141.7110 C   0  0  1  0  0  3  0  0  0  0  0  0
  183.2940  178.6030  144.6140 C   0  0  0  0  0  2  0  0  0  0  0  0
  185.0060  179.7340  142.4750 C   0  0  2  0  0  3  0  0  0  0  0  0
  185.4150  179.7640  143.9560 C   0  0  0  0  0  2  0  0  0  0  0  0
  183.4750  179.6990  142.3550 C   0  0  0  0  0  2  0  0  0  0  0  0
  182.8800  178.5280  143.1450 C   0  0  2  0  0  3  0  0  0  0  0  0
  184.8140  178.5910  144.7280 C   0  0  0  0  0  2  0  0  0  0  0  0
  181.3580  178.4470  143.0030 C   0  0  1  0  0  3  0  0  0  0  0  0
  180.6400  178.6310  144.3340 C   0  0  0  0  0  1  0  0  0  0  0  0
  179.9410  180.1320  142.7780 C   0  0  0  0  0  1  0  0  0  0  0  0
  180.9070  179.3990  142.0870 O   0  0  0  0  0  0  0  0  0  0  0  0
  184.7720  178.6310  139.3820 C   0  0  0  0  0  1  0  0  0  0  0  0
  184.6810  177.9550  140.7360 C   0  0  0  0  0  2  0  0  0  0  0  0
  1 10  1  1  0  0  0
  2  3  1  0  0  0  0
  2  4  1  0  0  0  0
  3  5  1  6  0  0  0
  3  8  1  0  0  0  0
  4  7  1  0  0  0  0
  7  8  1  0  0  0  0
  7  6  2  0  0  0  0
  8  1  1  1  0  0  0
 10  9  2  0  0  0  0
 11 12  2  0  0  0  0
 12 15  1  0  0  0  0
 13  9  1  6  0  0  0
 13 11  1  0  0  0  0
 13 14  1  0  0  0  0
 14 15  2  0  0  0  0
 16  9  1  0  0  0  0
 17 16  2  0  0  0  0
 18  1  1  0  0  0  0
 18 19  1  0  0  0  0
 19 31  1  6  0  0  0
 20 25  1  0  0  0  0
 21 19  1  1  0  0  0
 21 22  1  0  0  0  0
 22 25  1  0  0  0  0
 23 21  1  0  0  0  0
 23 24  1  0  0  0  0
 24 26  1  1  0  0  0
 24 20  1  0  0  0  0
 26 27  1  1  0  0  0
 29 28  1  0  0  0  0
 29 26  1  0  0  0  0
 30 31  1  0  0  0  0
M  END
>  <MODEL>
8

>  <REMARK>
 VINA RESULT:      -6.7      2.764      6.434
  Name = 
  10 active torsions:
  status: ('A' for Active; 'I' for Inactive)
    1  A    between atoms: C_3  and  N_9
    2  A    between atoms: C_3  and  C_14
    3  A    between atoms: C_3  and  C_25
    4  A    between atoms: C_5  and  C_6
    5  A    between atoms: C_6  and  C_7
    6  A    between atoms: N_9  and  C_18
    7  A    between atoms: C_12  and  C_18
    8  A    between atoms: C_15  and  C_18
    9  A    between atoms: C_21  and  C_27
   10  A    between atoms: C_21  and  O_30
                            x       y       z     vdW  Elec       q    Type
                         _______ _______ _______ _____ _____    ______ ____

>  <TORSDO>
F 10

$$$$
=
 OpenBabel10222415493D

 31 33  0  0  1  0  0  0  0  0999 V2000
  188.9950  177.3820  140.6890 C   0  0  1  0  0  3  0  0  0  0  0  0
  186.1240  178.1780  138.8910 C   0  0  0  0  0  2  0  0  0  0  0  0
  186.6780  178.3050  140.3160 C   0  0  2  0  0  3  0  0  0  0  0  0
  187.1840  178.5380  138.0270 O   0  0  0  0  0  0  0  0  0  0  0  0
  186.0590  179.3760  140.9580 O   0  0  0  0  0  1  0  0  0  0  0  0
  189.4100  179.1370  138.1770 O   0  0  0  0  0  0  0  0  0  0  0  0
  188.3410  178.7700  138.7320 C   0  0  0  0  0  0  0  0  0  0  0  0
  188.1810  178.5850  140.1920 C   0  0  2  0  0  3  0  0  0  0  0  0
  190.9620  176.5750  139.3100 C   0  0  0  0  0  0  0  0  0  0  0  0
  189.6480  176.6320  139.5550 C   0  0  0  0  0  3  0  0  0  0  0  0
  191.1720  176.4890  136.8310 C   0  0  0  0  0  2  0  0  0  0  0  0
  190.3650  175.7320  136.1040 C   0  0  0  0  0  3  0  0  0  0  0  0
  191.3980  175.7670  138.1220 C   0  0  2  0  0  3  0  0  0  0  0  0
  190.5850  174.5710  137.9650 N   0  0  0  0  0  2  0  0  0  0  0  0
  190.0210  174.5610  136.8290 N   0  0  0  0  0  0  0  0  0  0  0  0
  191.9290  177.2760  140.1810 C   0  0  0  0  0  3  0  0  0  0  0  0
  193.1330  177.4310  139.8470 O   0  0  0  0  0  0  0  0  0  0  0  0
  189.9970  177.8020  141.6650 N   0  0  0  0  0  2  0  0  0  0  0  0
  189.3070  178.1590  142.8990 C   0  0  1  0  0  3  0  0  0  0  0  0
  187.1670  177.6840  145.9450 C   0  0  0  0  0  2  0  0  0  0  0  0
  188.7820  176.8920  143.5890 C   0  0  2  0  0  3  0  0  0  0  0  0
  187.2470  176.8250  143.5920 C   0  0  0  0  0  2  0  0  0  0  0  0
  189.3160  176.7500  145.0220 C   0  0  0  0  0  2  0  0  0  0  0  0
  188.6900  177.7940  145.9550 C   0  0  2  0  0  3  0  0  0  0  0  0
  186.6410  177.8710  144.5260 C   0  0  0  0  0  2  0  0  0  0  0  0
  189.2420  177.7020  147.3810 C   0  0  1  0  0  3  0  0  0  0  0  0
  188.1560  177.8780  148.4350 C   0  0  0  0  0  1  0  0  0  0  0  0
  191.2390  176.7500  147.3350 C   0  0  0  0  0  1  0  0  0  0  0  0
  189.8900  176.4790  147.5690 O   0  0  0  0  0  0  0  0  0  0  0  0
  191.6860  178.3950  143.6240 C   0  0  0  0  0  1  0  0  0  0  0  0
  190.2690  178.8990  143.8220 C   0  0  0  0  0  2  0  0  0  0  0  0
  1 10  1  6  0  0  0
  1 18  1  0  0  0  0
  2  3  1  0  0  0  0
  3  5  1  6  0  0  0
  4  7  1  0  0  0  0
  4  2  1  0  0  0  0
  6  7  2  0  0  0  0
  7  8  1  0  0  0  0
  8  3  1  0  0  0  0
  8  1  1  6  0  0  0
  9 10  2  0  0  0  0
  9 16  1  0  0  0  0
 11 13  1  0  0  0  0
 12 15  2  0  0  0  0
 12 11  1  0  0  0  0
 13  9  1  1  0  0  0
 14 13  1  0  0  0  0
 15 14  1  0  0  0  0
 17 16  2  0  0  0  0
 18 19  1  0  0  0  0
 19 31  1  1  0  0  0
 20 24  1  0  0  0  0
 21 19  1  1  0  0  0
 21 22  1  0  0  0  0
 21 23  1  0  0  0  0
 22 25  1  0  0  0  0
 23 24  1  0  0  0  0
 24 26  1  1  0  0  0
 25 20  1  0  0  0  0
 26 29  1  0  0  0  0
 26 27  1  1  0  0  0
 28 29  1  0  0  0  0
 30 31  1  0  0  0  0
M  END
>  <MODEL>
9

>  <REMARK>
 VINA RESULT:      -6.7      2.226      4.619
  Name = 
  10 active torsions:
  status: ('A' for Active; 'I' for Inactive)
    1  A    between atoms: C_3  and  N_9
    2  A    between atoms: C_3  and  C_14
    3  A    between atoms: C_3  and  C_25
    4  A    between atoms: C_5  and  C_6
    5  A    between atoms: C_6  and  C_7
    6  A    between atoms: N_9  and  C_18
    7  A    between atoms: C_12  and  C_18
    8  A    between atoms: C_15  and  C_18
    9  A    between atoms: C_21  and  C_27
   10  A    between atoms: C_21  and  O_30
                            x       y       z     vdW  Elec       q    Type
                         _______ _______ _______ _____ _____    ______ ____

>  <TORSDO>
F 10

$$$$
