=
 OpenBabel10222420393D

 42 45  0  0  1  0  0  0  0  0999 V2000
  185.4580  178.7310  141.3560 C   0  0  1  0  0  3  0  0  0  0  0  0
  187.8120  178.4230  140.6740 C   0  0  0  0  0  3  0  0  0  0  0  0
  186.1180  178.5510  138.9760 N   0  0  0  0  0  0  0  0  0  0  0  0
  186.9070  178.4390  141.6520 C   0  0  0  0  0  3  0  0  0  0  0  0
  185.0880  178.2070  139.9610 C   0  0  2  0  0  3  0  0  0  0  0  0
  187.3850  178.6120  139.2760 C   0  0  0  0  0  0  0  0  0  0  0  0
  181.2410  179.7150  138.6010 C   0  0  0  0  0  0  0  0  0  0  0  0
  183.6250  180.0480  139.0760 C   0  0  0  0  0  3  0  0  0  0  0  0
  181.4010  178.3940  139.0470 C   0  0  0  0  0  0  0  0  0  0  0  0
  182.3820  180.5410  138.6270 C   0  0  0  0  0  3  0  0  0  0  0  0
  180.4750  177.4230  139.1100 N   0  0  0  0  0  0  0  0  0  0  0  0
  183.7530  178.7170  139.5080 C   0  0  0  0  0  0  0  0  0  0  0  0
  180.5640  175.0430  139.8530 C   0  0  0  0  0  1  0  0  0  0  0  0
  182.6050  177.9170  139.4800 C   0  0  0  0  0  0  0  0  0  0  0  0
  181.1800  176.3710  139.5990 C   0  0  0  0  0  0  0  0  0  0  0  0
  182.4910  176.6280  139.8420 N   0  0  0  0  0  2  0  0  0  0  0  0
  179.2580  181.0150  138.8350 O   0  0  0  0  0  1  0  0  0  0  0  0
  179.4960  179.9120  136.8470 O   0  0  0  0  0  0  0  0  0  0  0  0
  179.9540  180.2490  138.1150 C   0  0  0  0  0  0  0  0  0  0  0  0
  189.3930  178.1400  137.9350 C   0  0  0  0  0  3  0  0  0  0  0  0
  188.3830  178.8850  138.2800 N   0  0  0  0  0  0  0  0  0  0  0  0
  191.5110  175.3910  137.9360 C   0  0  0  0  0  2  0  0  0  0  0  0
  189.7280  176.8200  138.5580 C   0  0  1  0  0  3  0  0  0  0  0  0
  190.1500  175.8630  137.4860 C   0  0  0  0  0  2  0  0  0  0  0  0
  190.7270  176.3480  140.6580 F   0  0  0  0  0  0  0  0  0  0  0  0
  190.9540  176.9600  139.4370 C   0  0  1  0  0  3  0  0  0  0  0  0
  192.0520  176.3540  138.8020 O   0  0  0  0  0  0  0  0  0  0  0  0
  184.5600  178.1090  142.4190 C   0  0  0  0  0  2  0  0  0  0  0  0
  184.5150  180.1580  143.9570 C   0  0  0  0  0  1  0  0  0  0  0  0
  185.2650  177.9450  144.7170 N   0  0  0  0  0  0  0  0  0  0  0  0
  184.8130  178.7070  143.7630 C   0  0  0  0  0  0  0  0  0  0  0  0
  185.5600  178.3170  146.0740 C   0  0  0  0  0  0  0  0  0  0  0  0
  184.6620  178.3730  146.9550 O   0  0  0  0  0  0  0  0  0  0  0  0
  186.9660  178.6420  146.4420 C   0  0  0  0  0  2  0  0  0  0  0  0
  187.8740  177.4440  146.1720 C   0  0  2  0  0  3  0  0  0  0  0  0
  187.9430  177.6270  148.5660 O   0  0  0  0  0  1  0  0  0  0  0  0
  190.0040  177.2060  147.4720 C   0  0  0  0  0  1  0  0  0  0  0  0
  188.5030  176.9560  147.4770 C   0  0  2  0  0  3  0  0  0  0  0  0
  188.9600  177.8350  145.1720 C   0  0  0  0  0  2  0  0  0  0  0  0
  189.1200  176.7940  144.0750 C   0  0  0  0  0  2  0  0  0  0  0  0
  190.5140  176.4090  143.9490 N   0  0  0  0  0  2  0  0  0  0  0  0
  191.2850  177.6380  143.9470 C   0  0  0  0  0  1  0  0  0  0  0  0
  1  4  1  0  0  0  0
  1 28  1  1  0  0  0
  2  4  2  0  0  0  0
  3  6  2  0  0  0  0
  3  5  1  0  0  0  0
  5 12  1  6  0  0  0
  5  1  1  0  0  0  0
  6  2  1  0  0  0  0
  7 10  2  0  0  0  0
  7  9  1  0  0  0  0
  8 12  2  0  0  0  0
  9 11  1  0  0  0  0
  9 14  2  0  0  0  0
 10  8  1  0  0  0  0
 11 15  2  0  0  0  0
 14 12  1  0  0  0  0
 14 16  1  0  0  0  0
 15 16  1  0  0  0  0
 15 13  1  0  0  0  0
 18 19  2  0  0  0  0
 19  7  1  0  0  0  0
 19 17  1  0  0  0  0
 20 21  2  0  0  0  0
 21  6  1  0  0  0  0
 22 27  1  0  0  0  0
 23 20  1  6  0  0  0
 23 26  1  0  0  0  0
 24 22  1  0  0  0  0
 24 23  1  0  0  0  0
 26 25  1  1  0  0  0
 27 26  1  0  0  0  0
 28 31  1  0  0  0  0
 30 32  1  0  0  0  0
 31 29  1  0  0  0  0
 31 30  2  0  0  0  0
 32 34  1  0  0  0  0
 32 33  2  0  0  0  0
 35 39  1  6  0  0  0
 35 34  1  0  0  0  0
 35 38  1  0  0  0  0
 38 37  1  6  0  0  0
 38 36  1  0  0  0  0
 40 39  1  0  0  0  0
 41 40  1  0  0  0  0
 42 41  1  0  0  0  0
M  END
>  <MODEL>
1

>  <REMARK>
 VINA RESULT:      -7.8      0.000      0.000
  Name = 
  13 active torsions:
  status: ('A' for Active; 'I' for Inactive)
    1  A    between atoms: C_1  and  C_27
    2  A    between atoms: C_3  and  C_22
    3  A    between atoms: N_6  and  C_21
    4  A    between atoms: C_7  and  C_9
    5  A    between atoms: C_15  and  C_25
    6  A    between atoms: C_15  and  C_36
    7  A    between atoms: C_16  and  C_21
    8  A    between atoms: C_16  and  C_25
    9  A    between atoms: C_18  and  C_32
   10  A    between atoms: N_20  and  C_26
   11  A    between atoms: C_22  and  C_34
   12  A    between atoms: C_25  and  C_35
   13  A    between atoms: N_30  and  C_36
                            x       y       z     vdW  Elec       q    Type
                         _______ _______ _______ _____ _____    ______ ____

>  <TORSDO>
F 13

$$$$
=
 OpenBabel10222420393D

 42 45  0  0  1  0  0  0  0  0999 V2000
  189.7200  177.1650  140.0390 C   0  0  1  0  0  3  0  0  0  0  0  0
  187.8170  178.4450  139.1230 C   0  0  0  0  0  3  0  0  0  0  0  0
  189.5200  177.6610  137.6210 N   0  0  0  0  0  0  0  0  0  0  0  0
  188.4950  178.0290  140.1930 C   0  0  0  0  0  3  0  0  0  0  0  0
  190.4570  177.5190  138.7400 C   0  0  2  0  0  3  0  0  0  0  0  0
  188.3130  178.1280  137.7720 C   0  0  0  0  0  0  0  0  0  0  0  0
  193.5390  174.5920  137.8150 C   0  0  0  0  0  0  0  0  0  0  0  0
  192.8450  176.7380  138.7820 C   0  0  0  0  0  3  0  0  0  0  0  0
  192.2010  174.3970  137.4420 C   0  0  0  0  0  0  0  0  0  0  0  0
  193.8480  175.7890  138.4920 C   0  0  0  0  0  3  0  0  0  0  0  0
  191.6630  173.3470  136.8020 N   0  0  0  0  0  0  0  0  0  0  0  0
  191.5120  176.5080  138.4020 C   0  0  0  0  0  0  0  0  0  0  0  0
  189.3380  172.8170  136.0690 C   0  0  0  0  0  1  0  0  0  0  0  0
  191.2300  175.3160  137.7240 C   0  0  0  0  0  0  0  0  0  0  0  0
  190.3520  173.6880  136.7180 C   0  0  0  0  0  0  0  0  0  0  0  0
  190.0400  174.8880  137.2700 N   0  0  0  0  0  2  0  0  0  0  0  0
  195.0600  173.4650  136.3670 O   0  0  0  0  0  0  0  0  0  0  0  0
  195.1170  172.8270  138.5610 O   0  0  0  0  0  1  0  0  0  0  0  0
  194.6030  173.6090  137.5340 C   0  0  0  0  0  0  0  0  0  0  0  0
  186.3560  177.6550  136.3580 C   0  0  0  0  0  3  0  0  0  0  0  0
  187.4340  178.3210  136.6520 N   0  0  0  0  0  0  0  0  0  0  0  0
  184.0640  175.0540  136.5110 C   0  0  0  0  0  2  0  0  0  0  0  0
  185.8260  176.5010  137.1510 C   0  0  1  0  0  3  0  0  0  0  0  0
  184.3360  176.4510  137.0130 C   0  0  0  0  0  2  0  0  0  0  0  0
  186.7860  174.3650  137.5380 F   0  0  0  0  0  0  0  0  0  0  0  0
  186.3010  175.1960  136.5430 C   0  0  1  0  0  3  0  0  0  0  0  0
  185.2270  174.5700  135.8890 O   0  0  0  0  0  0  0  0  0  0  0  0
  190.6430  177.3290  141.2420 C   0  0  0  0  0  2  0  0  0  0  0  0
  190.2460  175.4670  142.9570 C   0  0  0  0  0  1  0  0  0  0  0  0
  189.2290  177.6950  143.1580 N   0  0  0  0  0  0  0  0  0  0  0  0
  189.9860  176.8650  142.4990 C   0  0  0  0  0  0  0  0  0  0  0  0
  188.5210  177.4530  144.3860 C   0  0  0  0  0  0  0  0  0  0  0  0
  189.1070  177.4670  145.5010 O   0  0  0  0  0  0  0  0  0  0  0  0
  187.0580  177.1820  144.3330 C   0  0  0  0  0  2  0  0  0  0  0  0
  186.2800  178.3740  144.8880 C   0  0  2  0  0  3  0  0  0  0  0  0
  184.4150  178.5570  146.3900 O   0  0  0  0  0  1  0  0  0  0  0  0
  186.5750  178.6130  147.3650 C   0  0  0  0  0  1  0  0  0  0  0  0
  185.7030  178.0330  146.2620 C   0  0  2  0  0  3  0  0  0  0  0  0
  185.1600  178.7530  143.9200 C   0  0  0  0  0  2  0  0  0  0  0  0
  185.4740  178.3250  142.4960 C   0  0  0  0  0  2  0  0  0  0  0  0
  185.3310  179.4510  141.5900 N   0  0  0  0  0  2  0  0  0  0  0  0
  184.4830  179.0030  140.5020 C   0  0  0  0  0  1  0  0  0  0  0  0
  1  4  1  0  0  0  0
  1 28  1  1  0  0  0
  2  4  2  0  0  0  0
  3  6  2  0  0  0  0
  3  5  1  0  0  0  0
  5 12  1  6  0  0  0
  5  1  1  0  0  0  0
  6  2  1  0  0  0  0
  7 10  1  0  0  0  0
  9 14  1  0  0  0  0
  9  7  2  0  0  0  0
 10  8  2  0  0  0  0
 11  9  1  0  0  0  0
 12  8  1  0  0  0  0
 13 15  1  0  0  0  0
 14 12  2  0  0  0  0
 15 11  2  0  0  0  0
 15 16  1  0  0  0  0
 16 14  1  0  0  0  0
 17 19  2  0  0  0  0
 19  7  1  0  0  0  0
 19 18  1  0  0  0  0
 20 21  2  0  0  0  0
 21  6  1  0  0  0  0
 22 24  1  0  0  0  0
 23 20  1  6  0  0  0
 24 23  1  0  0  0  0
 26 23  1  0  0  0  0
 26 25  1  1  0  0  0
 27 22  1  0  0  0  0
 27 26  1  0  0  0  0
 28 31  1  0  0  0  0
 30 32  1  0  0  0  0
 31 29  1  0  0  0  0
 31 30  2  0  0  0  0
 32 33  2  0  0  0  0
 34 32  1  0  0  0  0
 34 35  1  0  0  0  0
 35 39  1  6  0  0  0
 35 38  1  0  0  0  0
 38 36  1  0  0  0  0
 38 37  1  1  0  0  0
 40 39  1  0  0  0  0
 41 40  1  0  0  0  0
 42 41  1  0  0  0  0
M  END
>  <MODEL>
2

>  <REMARK>
 VINA RESULT:      -7.2      3.273      7.998
  Name = 
  13 active torsions:
  status: ('A' for Active; 'I' for Inactive)
    1  A    between atoms: C_1  and  C_27
    2  A    between atoms: C_3  and  C_22
    3  A    between atoms: N_6  and  C_21
    4  A    between atoms: C_7  and  C_9
    5  A    between atoms: C_15  and  C_25
    6  A    between atoms: C_15  and  C_36
    7  A    between atoms: C_16  and  C_21
    8  A    between atoms: C_16  and  C_25
    9  A    between atoms: C_18  and  C_32
   10  A    between atoms: N_20  and  C_26
   11  A    between atoms: C_22  and  C_34
   12  A    between atoms: C_25  and  C_35
   13  A    between atoms: N_30  and  C_36
                            x       y       z     vdW  Elec       q    Type
                         _______ _______ _______ _____ _____    ______ ____

>  <TORSDO>
F 13

$$$$
=
 OpenBabel10222420393D

 42 45  0  0  1  0  0  0  0  0999 V2000
  189.1290  177.5700  141.2150 C   0  0  1  0  0  3  0  0  0  0  0  0
  187.3360  178.3440  139.7040 C   0  0  0  0  0  3  0  0  0  0  0  0
  186.8910  178.2100  142.0600 N   0  0  0  0  0  0  0  0  0  0  0  0
  188.5390  177.7890  139.8460 C   0  0  0  0  0  3  0  0  0  0  0  0
  188.0140  177.2840  142.2320 C   0  0  2  0  0  3  0  0  0  0  0  0
  186.5350  178.6760  140.8960 C   0  0  0  0  0  0  0  0  0  0  0  0
  189.5190  177.4800  146.3080 C   0  0  0  0  0  0  0  0  0  0  0  0
  189.8830  177.1410  143.9060 C   0  0  0  0  0  3  0  0  0  0  0  0
  188.1600  177.6650  146.0140 C   0  0  0  0  0  0  0  0  0  0  0  0
  190.3780  177.2110  145.2240 C   0  0  0  0  0  3  0  0  0  0  0  0
  187.1570  177.9370  146.8640 N   0  0  0  0  0  0  0  0  0  0  0  0
  188.5160  177.3400  143.6440 C   0  0  0  0  0  0  0  0  0  0  0  0
  184.7110  178.3060  146.5370 C   0  0  0  0  0  1  0  0  0  0  0  0
  187.6800  177.5990  144.7360 C   0  0  0  0  0  0  0  0  0  0  0  0
  186.0810  178.0200  146.0390 C   0  0  0  0  0  0  0  0  0  0  0  0
  186.3550  177.8200  144.7250 N   0  0  0  0  0  2  0  0  0  0  0  0
  191.1430  176.9860  147.9810 O   0  0  0  0  0  0  0  0  0  0  0  0
  189.3830  178.2790  148.6540 O   0  0  0  0  0  1  0  0  0  0  0  0
  190.0620  177.5610  147.6780 C   0  0  0  0  0  0  0  0  0  0  0  0
  184.2690  179.2620  140.1390 C   0  0  0  0  0  3  0  0  0  0  0  0
  185.3910  179.5290  140.7430 N   0  0  0  0  0  0  0  0  0  0  0  0
  181.8290  176.9780  139.2070 C   0  0  0  0  0  2  0  0  0  0  0  0
  183.9650  177.9730  139.4420 C   0  0  1  0  0  3  0  0  0  0  0  0
  182.9230  177.2270  140.2160 C   0  0  0  0  0  2  0  0  0  0  0  0
  183.9070  177.4870  137.1190 F   0  0  0  0  0  0  0  0  0  0  0  0
  183.3080  178.2520  138.1050 C   0  0  1  0  0  3  0  0  0  0  0  0
  181.9420  177.9320  138.1840 O   0  0  0  0  0  0  0  0  0  0  0  0
  190.1360  176.4260  141.1870 C   0  0  0  0  0  2  0  0  0  0  0  0
  192.1810  177.5500  140.1300 C   0  0  0  0  0  1  0  0  0  0  0  0
  190.9030  175.7860  138.9940 N   0  0  0  0  0  0  0  0  0  0  0  0
  191.0730  176.5540  140.0310 C   0  0  0  0  0  0  0  0  0  0  0  0
  191.6940  175.7420  137.7940 C   0  0  0  0  0  0  0  0  0  0  0  0
  191.5890  176.6230  136.9000 O   0  0  0  0  0  0  0  0  0  0  0  0
  192.6600  174.6250  137.6090 C   0  0  0  0  0  2  0  0  0  0  0  0
  194.0880  175.1650  137.5580 C   0  0  2  0  0  3  0  0  0  0  0  0
  193.7930  174.5080  135.2670 O   0  0  0  0  0  1  0  0  0  0  0  0
  196.0070  175.0050  135.9530 C   0  0  0  0  0  1  0  0  0  0  0  0
  194.5320  175.3450  136.1060 C   0  0  2  0  0  3  0  0  0  0  0  0
  195.0280  174.2060  138.2860 C   0  0  0  0  0  2  0  0  0  0  0  0
  195.5820  174.8180  139.5630 C   0  0  0  0  0  2  0  0  0  0  0  0
  197.0240  174.9650  139.4650 N   0  0  0  0  0  2  0  0  0  0  0  0
  197.4920  175.3540  140.7810 C   0  0  0  0  0  1  0  0  0  0  0  0
  1 28  1  6  0  0  0
  1  5  1  0  0  0  0
  2  4  2  0  0  0  0
  2  6  1  0  0  0  0
  3  5  1  0  0  0  0
  4  1  1  0  0  0  0
  5 12  1  1  0  0  0
  6  3  2  0  0  0  0
  7 19  1  0  0  0  0
  8 10  1  0  0  0  0
  9  7  1  0  0  0  0
  9 11  1  0  0  0  0
 10  7  2  0  0  0  0
 12  8  2  0  0  0  0
 12 14  1  0  0  0  0
 14  9  2  0  0  0  0
 15 13  1  0  0  0  0
 15 11  2  0  0  0  0
 16 14  1  0  0  0  0
 16 15  1  0  0  0  0
 19 17  2  0  0  0  0
 19 18  1  0  0  0  0
 20 21  2  0  0  0  0
 21  6  1  0  0  0  0
 22 24  1  0  0  0  0
 23 20  1  1  0  0  0
 23 24  1  0  0  0  0
 26 25  1  6  0  0  0
 26 27  1  0  0  0  0
 26 23  1  0  0  0  0
 27 22  1  0  0  0  0
 30 31  2  0  0  0  0
 31 29  1  0  0  0  0
 31 28  1  0  0  0  0
 32 30  1  0  0  0  0
 33 32  2  0  0  0  0
 34 32  1  0  0  0  0
 35 34  1  6  0  0  0
 35 39  1  0  0  0  0
 36 38  1  0  0  0  0
 38 37  1  1  0  0  0
 38 35  1  0  0  0  0
 39 40  1  0  0  0  0
 41 40  1  0  0  0  0
 41 42  1  0  0  0  0
M  END
>  <MODEL>
3

>  <REMARK>
 VINA RESULT:      -7.0      2.955      9.254
  Name = 
  13 active torsions:
  status: ('A' for Active; 'I' for Inactive)
    1  A    between atoms: C_1  and  C_27
    2  A    between atoms: C_3  and  C_22
    3  A    between atoms: N_6  and  C_21
    4  A    between atoms: C_7  and  C_9
    5  A    between atoms: C_15  and  C_25
    6  A    between atoms: C_15  and  C_36
    7  A    between atoms: C_16  and  C_21
    8  A    between atoms: C_16  and  C_25
    9  A    between atoms: C_18  and  C_32
   10  A    between atoms: N_20  and  C_26
   11  A    between atoms: C_22  and  C_34
   12  A    between atoms: C_25  and  C_35
   13  A    between atoms: N_30  and  C_36
                            x       y       z     vdW  Elec       q    Type
                         _______ _______ _______ _____ _____    ______ ____

>  <TORSDO>
F 13

$$$$
=
 OpenBabel10222420393D

 42 45  0  0  1  0  0  0  0  0999 V2000
  189.6740  177.1440  139.8290 C   0  0  1  0  0  3  0  0  0  0  0  0
  187.7770  178.4750  138.9740 C   0  0  0  0  0  3  0  0  0  0  0  0
  189.4080  177.6450  137.4190 N   0  0  0  0  0  0  0  0  0  0  0  0
  188.4780  178.0410  140.0210 C   0  0  0  0  0  3  0  0  0  0  0  0
  190.3770  177.4780  138.5060 C   0  0  2  0  0  3  0  0  0  0  0  0
  188.2200  178.1450  137.6080 C   0  0  0  0  0  0  0  0  0  0  0  0
  193.3490  174.4710  137.4830 C   0  0  0  0  0  0  0  0  0  0  0  0
  192.7520  176.6620  138.4100 C   0  0  0  0  0  3  0  0  0  0  0  0
  191.9850  174.2820  137.2140 C   0  0  0  0  0  0  0  0  0  0  0  0
  193.7200  175.6880  138.0880 C   0  0  0  0  0  3  0  0  0  0  0  0
  191.3900  173.2160  136.6560 N   0  0  0  0  0  0  0  0  0  0  0  0
  191.3930  176.4380  138.1350 C   0  0  0  0  0  0  0  0  0  0  0  0
  189.0120  172.6930  136.1100 C   0  0  0  0  0  1  0  0  0  0  0  0
  191.0480  175.2250  137.5270 C   0  0  0  0  0  0  0  0  0  0  0  0
  190.0810  173.5730  136.6510 C   0  0  0  0  0  0  0  0  0  0  0  0
  189.8240  174.7980  137.1760 N   0  0  0  0  0  2  0  0  0  0  0  0
  194.9270  172.7870  138.0800 O   0  0  0  0  0  1  0  0  0  0  0  0
  194.7520  173.2390  135.8470 O   0  0  0  0  0  0  0  0  0  0  0  0
  194.3780  173.4610  137.1660 C   0  0  0  0  0  0  0  0  0  0  0  0
  186.2630  177.6580  136.1980 C   0  0  0  0  0  3  0  0  0  0  0  0
  187.3110  178.3610  136.5170 N   0  0  0  0  0  0  0  0  0  0  0  0
  183.5790  175.6600  137.1190 C   0  0  0  0  0  2  0  0  0  0  0  0
  185.8110  176.4290  136.9230 C   0  0  1  0  0  3  0  0  0  0  0  0
  184.5250  176.7200  137.6310 C   0  0  0  0  0  2  0  0  0  0  0  0
  186.0270  174.1460  136.3090 F   0  0  0  0  0  0  0  0  0  0  0  0
  185.4510  175.3450  135.9260 C   0  0  1  0  0  3  0  0  0  0  0  0
  184.0540  175.2030  135.8790 O   0  0  0  0  0  0  0  0  0  0  0  0
  190.6400  177.2830  141.0010 C   0  0  0  0  0  2  0  0  0  0  0  0
  190.3140  175.5560  142.8650 C   0  0  0  0  0  1  0  0  0  0  0  0
  189.1900  177.7400  142.8700 N   0  0  0  0  0  0  0  0  0  0  0  0
  189.9920  176.8960  142.2890 C   0  0  0  0  0  0  0  0  0  0  0  0
  188.4820  177.5700  144.1090 C   0  0  0  0  0  0  0  0  0  0  0  0
  187.3680  176.9850  144.1600 O   0  0  0  0  0  0  0  0  0  0  0  0
  189.0870  178.0990  145.3630 C   0  0  0  0  0  2  0  0  0  0  0  0
  188.6370  177.2630  146.5600 C   0  0  2  0  0  3  0  0  0  0  0  0
  188.0060  177.6040  148.8520 O   0  0  0  0  0  1  0  0  0  0  0  0
  186.4230  178.2430  147.2080 C   0  0  0  0  0  1  0  0  0  0  0  0
  187.8970  178.1420  147.5680 C   0  0  2  0  0  3  0  0  0  0  0  0
  189.8510  176.6070  147.2160 C   0  0  0  0  0  2  0  0  0  0  0  0
  191.1320  176.8950  146.4500 C   0  0  0  0  0  2  0  0  0  0  0  0
  192.0440  175.7690  146.5560 N   0  0  0  0  0  2  0  0  0  0  0  0
  192.5530  175.7760  147.9140 C   0  0  0  0  0  1  0  0  0  0  0  0
  1  4  1  0  0  0  0
  1 28  1  1  0  0  0
  2  4  2  0  0  0  0
  3  6  2  0  0  0  0
  3  5  1  0  0  0  0
  5 12  1  6  0  0  0
  5  1  1  0  0  0  0
  6  2  1  0  0  0  0
  7 10  1  0  0  0  0
  9  7  2  0  0  0  0
  9 14  1  0  0  0  0
 10  8  2  0  0  0  0
 11  9  1  0  0  0  0
 12  8  1  0  0  0  0
 13 15  1  0  0  0  0
 14 12  2  0  0  0  0
 15 11  2  0  0  0  0
 15 16  1  0  0  0  0
 16 14  1  0  0  0  0
 18 19  2  0  0  0  0
 19  7  1  0  0  0  0
 19 17  1  0  0  0  0
 20 21  2  0  0  0  0
 21  6  1  0  0  0  0
 22 24  1  0  0  0  0
 23 20  1  6  0  0  0
 23 24  1  0  0  0  0
 26 25  1  1  0  0  0
 26 23  1  0  0  0  0
 27 26  1  0  0  0  0
 27 22  1  0  0  0  0
 28 31  1  0  0  0  0
 30 32  1  0  0  0  0
 31 29  1  0  0  0  0
 31 30  2  0  0  0  0
 32 33  2  0  0  0  0
 32 34  1  0  0  0  0
 35 34  1  6  0  0  0
 35 39  1  0  0  0  0
 35 38  1  0  0  0  0
 38 37  1  6  0  0  0
 38 36  1  0  0  0  0
 40 41  1  0  0  0  0
 40 39  1  0  0  0  0
 41 42  1  0  0  0  0
M  END
>  <MODEL>
4

>  <REMARK>
 VINA RESULT:      -7.0      3.654      7.816
  Name = 
  13 active torsions:
  status: ('A' for Active; 'I' for Inactive)
    1  A    between atoms: C_1  and  C_27
    2  A    between atoms: C_3  and  C_22
    3  A    between atoms: N_6  and  C_21
    4  A    between atoms: C_7  and  C_9
    5  A    between atoms: C_15  and  C_25
    6  A    between atoms: C_15  and  C_36
    7  A    between atoms: C_16  and  C_21
    8  A    between atoms: C_16  and  C_25
    9  A    between atoms: C_18  and  C_32
   10  A    between atoms: N_20  and  C_26
   11  A    between atoms: C_22  and  C_34
   12  A    between atoms: C_25  and  C_35
   13  A    between atoms: N_30  and  C_36
                            x       y       z     vdW  Elec       q    Type
                         _______ _______ _______ _____ _____    ______ ____

>  <TORSDO>
F 13

$$$$
=
 OpenBabel10222420393D

 42 45  0  0  1  0  0  0  0  0999 V2000
  187.7500  177.5910  138.6930 C   0  0  1  0  0  3  0  0  0  0  0  0
  185.5750  178.1550  137.6680 C   0  0  0  0  0  3  0  0  0  0  0  0
  187.2280  177.0270  136.3390 N   0  0  0  0  0  0  0  0  0  0  0  0
  186.4170  178.2950  138.6910 C   0  0  0  0  0  3  0  0  0  0  0  0
  188.2820  177.4640  137.2590 C   0  0  2  0  0  3  0  0  0  0  0  0
  185.9800  177.3720  136.4870 C   0  0  0  0  0  0  0  0  0  0  0  0
  191.7070  174.7880  137.0700 C   0  0  0  0  0  0  0  0  0  0  0  0
  190.7600  177.0430  137.2620 C   0  0  0  0  0  3  0  0  0  0  0  0
  190.3910  174.3100  136.9800 C   0  0  0  0  0  0  0  0  0  0  0  0
  191.8740  176.1800  137.2090 C   0  0  0  0  0  3  0  0  0  0  0  0
  189.9780  173.0390  136.8520 N   0  0  0  0  0  0  0  0  0  0  0  0
  189.4540  176.5310  137.1780 C   0  0  0  0  0  0  0  0  0  0  0  0
  187.7150  172.0000  136.6880 C   0  0  0  0  0  1  0  0  0  0  0  0
  189.3120  175.1460  137.0330 C   0  0  0  0  0  0  0  0  0  0  0  0
  188.6270  173.1660  136.8270 C   0  0  0  0  0  0  0  0  0  0  0  0
  188.1730  174.4400  136.9340 N   0  0  0  0  0  2  0  0  0  0  0  0
  192.9880  172.9960  136.1590 O   0  0  0  0  0  0  0  0  0  0  0  0
  193.9100  174.0650  137.9570 O   0  0  0  0  0  1  0  0  0  0  0  0
  192.8880  173.9030  137.0300 C   0  0  0  0  0  0  0  0  0  0  0  0
  184.0150  176.1220  135.6940 C   0  0  0  0  0  3  0  0  0  0  0  0
  184.9740  176.9880  135.5370 N   0  0  0  0  0  0  0  0  0  0  0  0
  182.2880  173.5030  137.1770 C   0  0  0  0  0  2  0  0  0  0  0  0
  183.7910  175.3170  136.9360 C   0  0  1  0  0  3  0  0  0  0  0  0
  182.3320  175.0080  137.0670 C   0  0  0  0  0  2  0  0  0  0  0  0
  185.1740  173.6690  137.9390 F   0  0  0  0  0  0  0  0  0  0  0  0
  184.4490  173.9590  136.7950 C   0  0  1  0  0  3  0  0  0  0  0  0
  183.4590  172.9810  136.6050 O   0  0  0  0  0  0  0  0  0  0  0  0
  188.7480  178.3370  139.5720 C   0  0  0  0  0  2  0  0  0  0  0  0
  190.3140  176.7850  140.8760 C   0  0  0  0  0  1  0  0  0  0  0  0
  188.2130  177.6430  141.8170 N   0  0  0  0  0  0  0  0  0  0  0  0
  189.0490  177.5760  140.8210 C   0  0  0  0  0  0  0  0  0  0  0  0
  188.3210  177.0030  143.0990 C   0  0  0  0  0  0  0  0  0  0  0  0
  188.0160  175.7920  143.2630 O   0  0  0  0  0  0  0  0  0  0  0  0
  188.8100  177.7960  144.2610 C   0  0  0  0  0  2  0  0  0  0  0  0
  188.2800  177.2030  145.5650 C   0  0  2  0  0  3  0  0  0  0  0  0
  187.3420  177.9920  147.6310 O   0  0  0  0  0  1  0  0  0  0  0  0
  185.9140  178.0120  145.7390 C   0  0  0  0  0  1  0  0  0  0  0  0
  187.3360  178.1920  146.2490 C   0  0  2  0  0  3  0  0  0  0  0  0
  189.4490  176.8600  146.4880 C   0  0  0  0  0  2  0  0  0  0  0  0
  190.7740  177.3530  145.9280 C   0  0  0  0  0  2  0  0  0  0  0  0
  191.6910  176.2390  145.7560 N   0  0  0  0  0  2  0  0  0  0  0  0
  192.1620  175.8820  147.0810 C   0  0  0  0  0  1  0  0  0  0  0  0
  1 28  1  1  0  0  0
  2  4  2  0  0  0  0
  3  6  2  0  0  0  0
  3  5  1  0  0  0  0
  4  1  1  0  0  0  0
  5 12  1  1  0  0  0
  5  1  1  0  0  0  0
  6  2  1  0  0  0  0
  7 10  1  0  0  0  0
  9 14  1  0  0  0  0
  9  7  2  0  0  0  0
 10  8  2  0  0  0  0
 11  9  1  0  0  0  0
 12  8  1  0  0  0  0
 13 15  1  0  0  0  0
 14 12  2  0  0  0  0
 15 11  2  0  0  0  0
 15 16  1  0  0  0  0
 16 14  1  0  0  0  0
 17 19  2  0  0  0  0
 19  7  1  0  0  0  0
 19 18  1  0  0  0  0
 21 20  2  0  0  0  0
 21  6  1  0  0  0  0
 23 20  1  6  0  0  0
 23 24  1  0  0  0  0
 24 22  1  0  0  0  0
 26 23  1  0  0  0  0
 26 25  1  1  0  0  0
 27 26  1  0  0  0  0
 27 22  1  0  0  0  0
 28 31  1  0  0  0  0
 30 32  1  0  0  0  0
 31 29  1  0  0  0  0
 31 30  2  0  0  0  0
 32 33  2  0  0  0  0
 32 34  1  0  0  0  0
 35 34  1  6  0  0  0
 35 38  1  0  0  0  0
 35 39  1  0  0  0  0
 38 37  1  6  0  0  0
 38 36  1  0  0  0  0
 40 39  1  0  0  0  0
 41 40  1  0  0  0  0
 41 42  1  0  0  0  0
M  END
>  <MODEL>
5

>  <REMARK>
 VINA RESULT:      -6.7      3.523      7.385
  Name = 
  13 active torsions:
  status: ('A' for Active; 'I' for Inactive)
    1  A    between atoms: C_1  and  C_27
    2  A    between atoms: C_3  and  C_22
    3  A    between atoms: N_6  and  C_21
    4  A    between atoms: C_7  and  C_9
    5  A    between atoms: C_15  and  C_25
    6  A    between atoms: C_15  and  C_36
    7  A    between atoms: C_16  and  C_21
    8  A    between atoms: C_16  and  C_25
    9  A    between atoms: C_18  and  C_32
   10  A    between atoms: N_20  and  C_26
   11  A    between atoms: C_22  and  C_34
   12  A    between atoms: C_25  and  C_35
   13  A    between atoms: N_30  and  C_36
                            x       y       z     vdW  Elec       q    Type
                         _______ _______ _______ _____ _____    ______ ____

>  <TORSDO>
F 13

$$$$
=
 OpenBabel10222420393D

 42 45  0  0  1  0  0  0  0  0999 V2000
  191.0260  176.9990  139.6010 C   0  0  1  0  0  3  0  0  0  0  0  0
  193.4260  176.7840  139.0560 C   0  0  0  0  0  3  0  0  0  0  0  0
  191.8010  176.3030  137.3540 N   0  0  0  0  0  0  0  0  0  0  0  0
  192.4830  176.9460  139.9840 C   0  0  0  0  0  3  0  0  0  0  0  0
  190.7700  176.1080  138.3770 C   0  0  2  0  0  3  0  0  0  0  0  0
  193.0420  176.5720  137.6490 C   0  0  0  0  0  0  0  0  0  0  0  0
  186.8490  176.8420  136.6410 C   0  0  0  0  0  0  0  0  0  0  0  0
  188.8920  177.6490  137.7340 C   0  0  0  0  0  3  0  0  0  0  0  0
  187.3920  175.5500  136.7180 C   0  0  0  0  0  0  0  0  0  0  0  0
  187.6250  177.8950  137.1660 C   0  0  0  0  0  3  0  0  0  0  0  0
  186.8550  174.3980  136.2860 N   0  0  0  0  0  0  0  0  0  0  0  0
  189.4110  176.3440  137.7880 C   0  0  0  0  0  0  0  0  0  0  0  0
  187.6570  172.0350  136.3230 C   0  0  0  0  0  1  0  0  0  0  0  0
  188.6200  175.3130  137.2680 C   0  0  0  0  0  0  0  0  0  0  0  0
  187.8080  173.4860  136.6080 C   0  0  0  0  0  0  0  0  0  0  0  0
  188.9080  174.0020  137.2120 N   0  0  0  0  0  2  0  0  0  0  0  0
  184.4810  177.0930  136.7370 O   0  0  0  0  0  1  0  0  0  0  0  0
  185.4350  177.4330  134.6880 O   0  0  0  0  0  0  0  0  0  0  0  0
  185.5310  177.1250  136.0400 C   0  0  0  0  0  0  0  0  0  0  0  0
  194.8080  175.7550  136.1440 C   0  0  0  0  0  3  0  0  0  0  0  0
  194.0490  176.6930  136.6330 N   0  0  0  0  0  0  0  0  0  0  0  0
  196.4690  172.7090  136.1830 C   0  0  0  0  0  2  0  0  0  0  0  0
  194.7870  174.3260  136.5890 C   0  0  1  0  0  3  0  0  0  0  0  0
  195.3530  173.4640  135.5030 C   0  0  0  0  0  2  0  0  0  0  0  0
  195.1140  173.4110  138.7540 F   0  0  0  0  0  0  0  0  0  0  0  0
  195.7390  174.1330  137.7520 C   0  0  1  0  0  3  0  0  0  0  0  0
  196.8780  173.4390  137.3100 O   0  0  0  0  0  0  0  0  0  0  0  0
  190.1490  176.5700  140.7710 C   0  0  0  0  0  2  0  0  0  0  0  0
  188.9240  178.7360  141.3820 C   0  0  0  0  0  1  0  0  0  0  0  0
  190.6190  177.7150  142.8390 N   0  0  0  0  0  0  0  0  0  0  0  0
  189.9350  177.6930  141.7310 C   0  0  0  0  0  0  0  0  0  0  0  0
  190.5540  178.6900  143.8930 C   0  0  0  0  0  0  0  0  0  0  0  0
  191.3820  179.6360  143.9710 O   0  0  0  0  0  0  0  0  0  0  0  0
  189.4770  178.5760  144.9150 C   0  0  0  0  0  2  0  0  0  0  0  0
  189.1910  177.1080  145.2200 C   0  0  2  0  0  3  0  0  0  0  0  0
  187.6180  176.3420  143.5750 O   0  0  0  0  0  1  0  0  0  0  0  0
  186.8540  178.0020  145.0850 C   0  0  0  0  0  1  0  0  0  0  0  0
  187.7340  176.7760  144.8970 C   0  0  2  0  0  3  0  0  0  0  0  0
  189.4890  176.8190  146.6900 C   0  0  0  0  0  2  0  0  0  0  0  0
  190.8290  177.3960  147.1190 C   0  0  0  0  0  2  0  0  0  0  0  0
  191.9150  176.6240  146.5420 N   0  0  0  0  0  2  0  0  0  0  0  0
  192.2940  175.6350  147.5340 C   0  0  0  0  0  1  0  0  0  0  0  0
  1  4  1  0  0  0  0
  1 28  1  1  0  0  0
  2  4  2  0  0  0  0
  3  6  2  0  0  0  0
  3  5  1  0  0  0  0
  5 12  1  6  0  0  0
  5  1  1  0  0  0  0
  6  2  1  0  0  0  0
  7  9  2  0  0  0  0
  7 10  1  0  0  0  0
  8 12  1  0  0  0  0
  9 14  1  0  0  0  0
 10  8  2  0  0  0  0
 11 15  2  0  0  0  0
 11  9  1  0  0  0  0
 13 15  1  0  0  0  0
 14 12  2  0  0  0  0
 15 16  1  0  0  0  0
 16 14  1  0  0  0  0
 18 19  2  0  0  0  0
 19  7  1  0  0  0  0
 19 17  1  0  0  0  0
 20 21  2  0  0  0  0
 21  6  1  0  0  0  0
 22 27  1  0  0  0  0
 23 20  1  6  0  0  0
 23 26  1  0  0  0  0
 24 22  1  0  0  0  0
 24 23  1  0  0  0  0
 26 25  1  1  0  0  0
 27 26  1  0  0  0  0
 28 31  1  0  0  0  0
 29 31  1  0  0  0  0
 30 32  1  0  0  0  0
 31 30  2  0  0  0  0
 32 33  2  0  0  0  0
 32 34  1  0  0  0  0
 35 34  1  1  0  0  0
 35 39  1  0  0  0  0
 36 38  1  0  0  0  0
 38 37  1  6  0  0  0
 38 35  1  0  0  0  0
 39 40  1  0  0  0  0
 41 40  1  0  0  0  0
 41 42  1  0  0  0  0
M  END
>  <MODEL>
6

>  <REMARK>
 VINA RESULT:      -6.7      4.150      5.912
  Name = 
  13 active torsions:
  status: ('A' for Active; 'I' for Inactive)
    1  A    between atoms: C_1  and  C_27
    2  A    between atoms: C_3  and  C_22
    3  A    between atoms: N_6  and  C_21
    4  A    between atoms: C_7  and  C_9
    5  A    between atoms: C_15  and  C_25
    6  A    between atoms: C_15  and  C_36
    7  A    between atoms: C_16  and  C_21
    8  A    between atoms: C_16  and  C_25
    9  A    between atoms: C_18  and  C_32
   10  A    between atoms: N_20  and  C_26
   11  A    between atoms: C_22  and  C_34
   12  A    between atoms: C_25  and  C_35
   13  A    between atoms: N_30  and  C_36
                            x       y       z     vdW  Elec       q    Type
                         _______ _______ _______ _____ _____    ______ ____

>  <TORSDO>
F 13

$$$$
=
 OpenBabel10222420393D

 42 45  0  0  1  0  0  0  0  0999 V2000
  185.3110  178.9230  141.0770 C   0  0  1  0  0  3  0  0  0  0  0  0
  187.6490  178.5340  140.3830 C   0  0  0  0  0  3  0  0  0  0  0  0
  185.9300  178.5610  138.7060 N   0  0  0  0  0  0  0  0  0  0  0  0
  186.7610  178.6340  141.3710 C   0  0  0  0  0  3  0  0  0  0  0  0
  184.9120  178.3040  139.7290 C   0  0  2  0  0  3  0  0  0  0  0  0
  187.2020  178.6270  138.9820 C   0  0  0  0  0  0  0  0  0  0  0  0
  181.0630  179.7650  138.3240 C   0  0  0  0  0  0  0  0  0  0  0  0
  183.4350  180.1290  138.8330 C   0  0  0  0  0  3  0  0  0  0  0  0
  181.2350  178.4440  138.7660 C   0  0  0  0  0  0  0  0  0  0  0  0
  182.1920  180.6070  138.3700 C   0  0  0  0  0  3  0  0  0  0  0  0
  180.3220  177.4610  138.8120 N   0  0  0  0  0  0  0  0  0  0  0  0
  183.5760  178.7980  139.2610 C   0  0  0  0  0  0  0  0  0  0  0  0
  180.4340  175.0780  139.5450 C   0  0  0  0  0  1  0  0  0  0  0  0
  182.4390  177.9820  139.2140 C   0  0  0  0  0  0  0  0  0  0  0  0
  181.0350  176.4160  139.3060 C   0  0  0  0  0  0  0  0  0  0  0  0
  182.3380  176.6890  139.5670 N   0  0  0  0  0  2  0  0  0  0  0  0
  179.0250  180.9780  138.5620 O   0  0  0  0  0  1  0  0  0  0  0  0
  179.3760  180.0120  136.5210 O   0  0  0  0  0  0  0  0  0  0  0  0
  179.7760  180.2840  137.8230 C   0  0  0  0  0  0  0  0  0  0  0  0
  188.9800  177.9200  137.4360 C   0  0  0  0  0  3  0  0  0  0  0  0
  188.1870  178.8130  137.9540 N   0  0  0  0  0  0  0  0  0  0  0  0
  188.6400  174.6070  136.4620 C   0  0  0  0  0  2  0  0  0  0  0  0
  189.0310  176.4830  137.8530 C   0  0  1  0  0  3  0  0  0  0  0  0
  187.9290  175.7330  137.1720 C   0  0  0  0  0  2  0  0  0  0  0  0
  190.9090  175.1160  138.3410 F   0  0  0  0  0  0  0  0  0  0  0  0
  190.2990  175.8390  137.3300 C   0  0  1  0  0  3  0  0  0  0  0  0
  189.9790  174.9810  136.2640 O   0  0  0  0  0  0  0  0  0  0  0  0
  184.4220  178.3930  142.1960 C   0  0  0  0  0  2  0  0  0  0  0  0
  184.7520  179.6450  144.4070 C   0  0  0  0  0  1  0  0  0  0  0  0
  185.9490  177.5680  143.8680 N   0  0  0  0  0  0  0  0  0  0  0  0
  185.0990  178.4920  143.5220 C   0  0  0  0  0  0  0  0  0  0  0  0
  186.6920  177.4720  145.0940 C   0  0  0  0  0  0  0  0  0  0  0  0
  186.2260  177.8940  146.1850 O   0  0  0  0  0  0  0  0  0  0  0  0
  188.0480  176.8550  145.0690 C   0  0  0  0  0  2  0  0  0  0  0  0
  189.1220  177.9380  145.1230 C   0  0  2  0  0  3  0  0  0  0  0  0
  189.8180  177.0060  143.0220 O   0  0  0  0  0  1  0  0  0  0  0  0
  191.0290  178.8890  143.8020 C   0  0  0  0  0  1  0  0  0  0  0  0
  189.6720  178.2050  143.7210 C   0  0  2  0  0  3  0  0  0  0  0  0
  190.2470  177.5030  146.0610 C   0  0  0  0  0  2  0  0  0  0  0  0
  189.7080  176.8930  147.3450 C   0  0  0  0  0  2  0  0  0  0  0  0
  189.7200  177.8780  148.4120 N   0  0  0  0  0  2  0  0  0  0  0  0
  188.3370  178.2390  148.6580 C   0  0  0  0  0  1  0  0  0  0  0  0
  1  4  1  0  0  0  0
  1 28  1  1  0  0  0
  2  4  2  0  0  0  0
  3  6  2  0  0  0  0
  3  5  1  0  0  0  0
  5 12  1  6  0  0  0
  5  1  1  0  0  0  0
  6  2  1  0  0  0  0
  7 10  2  0  0  0  0
  7  9  1  0  0  0  0
  8 12  2  0  0  0  0
  9 11  1  0  0  0  0
  9 14  2  0  0  0  0
 10  8  1  0  0  0  0
 11 15  2  0  0  0  0
 14 12  1  0  0  0  0
 14 16  1  0  0  0  0
 15 13  1  0  0  0  0
 15 16  1  0  0  0  0
 18 19  2  0  0  0  0
 19  7  1  0  0  0  0
 19 17  1  0  0  0  0
 20 21  2  0  0  0  0
 21  6  1  0  0  0  0
 22 24  1  0  0  0  0
 23 20  1  6  0  0  0
 24 23  1  0  0  0  0
 26 23  1  0  0  0  0
 26 25  1  1  0  0  0
 27 22  1  0  0  0  0
 27 26  1  0  0  0  0
 28 31  1  0  0  0  0
 30 32  1  0  0  0  0
 31 30  2  0  0  0  0
 31 29  1  0  0  0  0
 32 33  2  0  0  0  0
 34 32  1  0  0  0  0
 35 34  1  6  0  0  0
 35 39  1  0  0  0  0
 36 38  1  0  0  0  0
 38 37  1  1  0  0  0
 38 35  1  0  0  0  0
 39 40  1  0  0  0  0
 40 41  1  0  0  0  0
 41 42  1  0  0  0  0
M  END
>  <MODEL>
7

>  <REMARK>
 VINA RESULT:      -6.7      1.531      2.181
  Name = 
  13 active torsions:
  status: ('A' for Active; 'I' for Inactive)
    1  A    between atoms: C_1  and  C_27
    2  A    between atoms: C_3  and  C_22
    3  A    between atoms: N_6  and  C_21
    4  A    between atoms: C_7  and  C_9
    5  A    between atoms: C_15  and  C_25
    6  A    between atoms: C_15  and  C_36
    7  A    between atoms: C_16  and  C_21
    8  A    between atoms: C_16  and  C_25
    9  A    between atoms: C_18  and  C_32
   10  A    between atoms: N_20  and  C_26
   11  A    between atoms: C_22  and  C_34
   12  A    between atoms: C_25  and  C_35
   13  A    between atoms: N_30  and  C_36
                            x       y       z     vdW  Elec       q    Type
                         _______ _______ _______ _____ _____    ______ ____

>  <TORSDO>
F 13

$$$$
=
 OpenBabel10222420393D

 42 45  0  0  1  0  0  0  0  0999 V2000
  187.9430  177.9940  142.0520 C   0  0  1  0  0  3  0  0  0  0  0  0
  185.7380  179.0900  141.8560 C   0  0  0  0  0  3  0  0  0  0  0  0
  186.4740  178.3390  144.0160 N   0  0  0  0  0  0  0  0  0  0  0  0
  186.7930  178.5460  141.2490 C   0  0  0  0  0  3  0  0  0  0  0  0
  187.4330  177.4280  143.3850 C   0  0  2  0  0  3  0  0  0  0  0  0
  185.6530  179.0820  143.3270 C   0  0  0  0  0  0  0  0  0  0  0  0
  190.7320  176.5850  146.0920 C   0  0  0  0  0  0  0  0  0  0  0  0
  189.7650  176.6080  143.8380 C   0  0  0  0  0  3  0  0  0  0  0  0
  189.5100  177.0960  146.5550 C   0  0  0  0  0  0  0  0  0  0  0  0
  190.8410  176.3400  144.7090 C   0  0  0  0  0  3  0  0  0  0  0  0
  189.1680  177.4150  147.8130 N   0  0  0  0  0  0  0  0  0  0  0  0
  188.5570  177.1280  144.3320 C   0  0  0  0  0  0  0  0  0  0  0  0
  187.0790  178.3340  148.8210 C   0  0  0  0  0  1  0  0  0  0  0  0
  188.4690  177.3570  145.7100 C   0  0  0  0  0  0  0  0  0  0  0  0
  187.8950  177.8630  147.6720 C   0  0  0  0  0  0  0  0  0  0  0  0
  187.4240  177.8460  146.3990 N   0  0  0  0  0  2  0  0  0  0  0  0
  192.6460  175.3330  146.7650 O   0  0  0  0  0  0  0  0  0  0  0  0
  192.1190  177.1280  148.0780 O   0  0  0  0  0  1  0  0  0  0  0  0
  191.8760  176.3080  146.9830 C   0  0  0  0  0  0  0  0  0  0  0  0
  183.3860  179.7530  144.0070 C   0  0  0  0  0  3  0  0  0  0  0  0
  184.6760  179.9180  143.9670 N   0  0  0  0  0  0  0  0  0  0  0  0
  180.3460  178.5890  142.8060 C   0  0  0  0  0  2  0  0  0  0  0  0
  182.6510  178.6290  143.3430 C   0  0  1  0  0  3  0  0  0  0  0  0
  181.3000  178.4860  143.9710 C   0  0  0  0  0  2  0  0  0  0  0  0
  182.6930  177.9250  141.0780 F   0  0  0  0  0  0  0  0  0  0  0  0
  182.3570  178.9860  141.9000 C   0  0  1  0  0  3  0  0  0  0  0  0
  180.9890  179.2740  141.7630 O   0  0  0  0  0  0  0  0  0  0  0  0
  188.6820  176.9210  141.2600 C   0  0  0  0  0  2  0  0  0  0  0  0
  190.8690  177.5380  140.0770 C   0  0  0  0  0  1  0  0  0  0  0  0
  188.6610  177.9370  139.0750 N   0  0  0  0  0  0  0  0  0  0  0  0
  189.3760  177.5020  140.0730 C   0  0  0  0  0  0  0  0  0  0  0  0
  189.1290  178.5150  137.8450 C   0  0  0  0  0  0  0  0  0  0  0  0
  189.0560  179.7530  137.6250 O   0  0  0  0  0  0  0  0  0  0  0  0
  189.7170  177.6230  136.8080 C   0  0  0  0  0  2  0  0  0  0  0  0
  188.9050  176.3340  136.6980 C   0  0  2  0  0  3  0  0  0  0  0  0
  190.1870  174.7490  137.9690 O   0  0  0  0  0  1  0  0  0  0  0  0
  191.1110  175.4490  135.9010 C   0  0  0  0  0  1  0  0  0  0  0  0
  189.8390  175.1240  136.6690 C   0  0  2  0  0  3  0  0  0  0  0  0
  188.0450  176.3720  135.4360 C   0  0  0  0  0  2  0  0  0  0  0  0
  186.7240  177.0860  135.6730 C   0  0  0  0  0  2  0  0  0  0  0  0
  185.9960  176.4470  136.7560 N   0  0  0  0  0  2  0  0  0  0  0  0
  185.4760  177.5130  137.5910 C   0  0  0  0  0  1  0  0  0  0  0  0
  1 28  1  6  0  0  0
  1  5  1  0  0  0  0
  2  6  1  0  0  0  0
  4  2  2  0  0  0  0
  4  1  1  0  0  0  0
  5  3  1  0  0  0  0
  5 12  1  1  0  0  0
  6 21  1  0  0  0  0
  6  3  2  0  0  0  0
  7  9  1  0  0  0  0
  7 19  1  0  0  0  0
  8 12  2  0  0  0  0
  8 10  1  0  0  0  0
  9 11  1  0  0  0  0
 10  7  2  0  0  0  0
 12 14  1  0  0  0  0
 14 16  1  0  0  0  0
 14  9  2  0  0  0  0
 15 11  2  0  0  0  0
 15 13  1  0  0  0  0
 16 15  1  0  0  0  0
 17 19  2  0  0  0  0
 19 18  1  0  0  0  0
 21 20  2  0  0  0  0
 22 24  1  0  0  0  0
 23 24  1  0  0  0  0
 23 20  1  1  0  0  0
 26 25  1  6  0  0  0
 26 23  1  0  0  0  0
 27 26  1  0  0  0  0
 27 22  1  0  0  0  0
 30 31  2  0  0  0  0
 31 29  1  0  0  0  0
 31 28  1  0  0  0  0
 32 30  1  0  0  0  0
 33 32  2  0  0  0  0
 34 32  1  0  0  0  0
 35 39  1  6  0  0  0
 35 34  1  0  0  0  0
 38 37  1  6  0  0  0
 38 35  1  0  0  0  0
 38 36  1  0  0  0  0
 39 40  1  0  0  0  0
 40 41  1  0  0  0  0
 41 42  1  0  0  0  0
M  END
>  <MODEL>
8

>  <REMARK>
 VINA RESULT:      -6.7      3.170      9.726
  Name = 
  13 active torsions:
  status: ('A' for Active; 'I' for Inactive)
    1  A    between atoms: C_1  and  C_27
    2  A    between atoms: C_3  and  C_22
    3  A    between atoms: N_6  and  C_21
    4  A    between atoms: C_7  and  C_9
    5  A    between atoms: C_15  and  C_25
    6  A    between atoms: C_15  and  C_36
    7  A    between atoms: C_16  and  C_21
    8  A    between atoms: C_16  and  C_25
    9  A    between atoms: C_18  and  C_32
   10  A    between atoms: N_20  and  C_26
   11  A    between atoms: C_22  and  C_34
   12  A    between atoms: C_25  and  C_35
   13  A    between atoms: N_30  and  C_36
                            x       y       z     vdW  Elec       q    Type
                         _______ _______ _______ _____ _____    ______ ____

>  <TORSDO>
F 13

$$$$
=
 OpenBabel10222420393D

 42 45  0  0  1  0  0  0  0  0999 V2000
  187.5800  177.9670  140.8450 C   0  0  1  0  0  3  0  0  0  0  0  0
  185.3740  179.0190  140.4850 C   0  0  0  0  0  3  0  0  0  0  0  0
  186.6230  178.2610  138.5790 N   0  0  0  0  0  0  0  0  0  0  0  0
  186.3760  178.7410  141.3190 C   0  0  0  0  0  3  0  0  0  0  0  0
  187.8590  178.2790  139.3670 C   0  0  2  0  0  3  0  0  0  0  0  0
  185.4750  178.6400  139.0650 C   0  0  0  0  0  0  0  0  0  0  0  0
  190.7900  175.5270  137.7060 C   0  0  0  0  0  0  0  0  0  0  0  0
  190.2220  177.4660  139.0970 C   0  0  0  0  0  3  0  0  0  0  0  0
  189.4250  175.4260  137.3980 C   0  0  0  0  0  0  0  0  0  0  0  0
  191.1760  176.5730  138.5680 C   0  0  0  0  0  3  0  0  0  0  0  0
  188.8170  174.5200  136.6150 N   0  0  0  0  0  0  0  0  0  0  0  0
  188.8600  177.3320  138.7760 C   0  0  0  0  0  0  0  0  0  0  0  0
  186.4340  174.1720  135.9620 C   0  0  0  0  0  1  0  0  0  0  0  0
  188.5010  176.2900  137.9120 C   0  0  0  0  0  0  0  0  0  0  0  0
  187.5130  174.8920  136.6880 C   0  0  0  0  0  0  0  0  0  0  0  0
  187.2720  175.9730  137.4720 N   0  0  0  0  0  2  0  0  0  0  0  0
  191.4950  173.4170  136.8510 O   0  0  0  0  0  0  0  0  0  0  0  0
  193.1200  175.0150  137.0220 O   0  0  0  0  0  1  0  0  0  0  0  0
  191.8040  174.5960  137.1750 C   0  0  0  0  0  0  0  0  0  0  0  0
  183.3380  177.7920  138.1900 C   0  0  0  0  0  3  0  0  0  0  0  0
  184.2900  178.6780  138.2550 N   0  0  0  0  0  0  0  0  0  0  0  0
  181.4020  175.2120  139.4680 C   0  0  0  0  0  2  0  0  0  0  0  0
  183.3170  176.5070  138.9580 C   0  0  1  0  0  3  0  0  0  0  0  0
  182.1150  176.4860  139.8500 C   0  0  0  0  0  2  0  0  0  0  0  0
  184.0080  174.3370  138.2930 F   0  0  0  0  0  0  0  0  0  0  0  0
  183.1010  175.3440  138.0120 C   0  0  1  0  0  3  0  0  0  0  0  0
  181.7920  174.8560  138.1670 O   0  0  0  0  0  0  0  0  0  0  0  0
  188.7970  178.2950  141.7020 C   0  0  0  0  0  2  0  0  0  0  0  0
  188.6850  176.0020  142.8420 C   0  0  0  0  0  1  0  0  0  0  0  0
  188.9510  178.0960  144.0990 N   0  0  0  0  0  0  0  0  0  0  0  0
  188.8110  177.4860  142.9580 C   0  0  0  0  0  0  0  0  0  0  0  0
  189.0030  177.5080  145.4090 C   0  0  0  0  0  0  0  0  0  0  0  0
  190.0980  177.2290  145.9670 O   0  0  0  0  0  0  0  0  0  0  0  0
  187.7270  177.2240  146.1230 C   0  0  0  0  0  2  0  0  0  0  0  0
  187.3770  178.3800  147.0570 C   0  0  2  0  0  3  0  0  0  0  0  0
  189.0860  178.6280  148.7260 O   0  0  0  0  0  1  0  0  0  0  0  0
  187.9300  176.5590  148.6890 C   0  0  0  0  0  1  0  0  0  0  0  0
  187.8330  178.0630  148.4820 C   0  0  2  0  0  3  0  0  0  0  0  0
  185.8700  178.6300  147.0250 C   0  0  0  0  0  2  0  0  0  0  0  0
  185.3710  178.8930  145.6130 C   0  0  0  0  0  2  0  0  0  0  0  0
  183.9220  179.0020  145.6060 N   0  0  0  0  0  2  0  0  0  0  0  0
  183.5140  179.0090  144.2130 C   0  0  0  0  0  1  0  0  0  0  0  0
  1  4  1  0  0  0  0
  1 28  1  1  0  0  0
  2  4  2  0  0  0  0
  3  6  2  0  0  0  0
  3  5  1  0  0  0  0
  5 12  1  6  0  0  0
  5  1  1  0  0  0  0
  6  2  1  0  0  0  0
  7 10  1  0  0  0  0
  9  7  2  0  0  0  0
  9 14  1  0  0  0  0
 10  8  2  0  0  0  0
 11 15  2  0  0  0  0
 11  9  1  0  0  0  0
 12  8  1  0  0  0  0
 13 15  1  0  0  0  0
 14 12  2  0  0  0  0
 15 16  1  0  0  0  0
 16 14  1  0  0  0  0
 17 19  2  0  0  0  0
 18 19  1  0  0  0  0
 19  7  1  0  0  0  0
 20 21  2  0  0  0  0
 21  6  1  0  0  0  0
 22 24  1  0  0  0  0
 23 20  1  6  0  0  0
 23 24  1  0  0  0  0
 26 27  1  0  0  0  0
 26 25  1  1  0  0  0
 26 23  1  0  0  0  0
 27 22  1  0  0  0  0
 28 31  1  0  0  0  0
 29 31  1  0  0  0  0
 30 32  1  0  0  0  0
 31 30  2  0  0  0  0
 32 33  2  0  0  0  0
 32 34  1  0  0  0  0
 35 34  1  6  0  0  0
 35 38  1  0  0  0  0
 38 37  1  6  0  0  0
 38 36  1  0  0  0  0
 39 35  1  0  0  0  0
 40 39  1  0  0  0  0
 41 40  1  0  0  0  0
 42 41  1  0  0  0  0
M  END
>  <MODEL>
9

>  <REMARK>
 VINA RESULT:      -6.6      2.624      6.945
  Name = 
  13 active torsions:
  status: ('A' for Active; 'I' for Inactive)
    1  A    between atoms: C_1  and  C_27
    2  A    between atoms: C_3  and  C_22
    3  A    between atoms: N_6  and  C_21
    4  A    between atoms: C_7  and  C_9
    5  A    between atoms: C_15  and  C_25
    6  A    between atoms: C_15  and  C_36
    7  A    between atoms: C_16  and  C_21
    8  A    between atoms: C_16  and  C_25
    9  A    between atoms: C_18  and  C_32
   10  A    between atoms: N_20  and  C_26
   11  A    between atoms: C_22  and  C_34
   12  A    between atoms: C_25  and  C_35
   13  A    between atoms: N_30  and  C_36
                            x       y       z     vdW  Elec       q    Type
                         _______ _______ _______ _____ _____    ______ ____

>  <TORSDO>
F 13

$$$$
