=
 OpenBabel10222420243D

 47 51  0  0  1  0  0  0  0  0999 V2000
  189.8870  177.8440  139.9980 C   0  0  0  0  0  2  0  0  0  0  0  0
  188.7040  178.5380  140.6840 C   0  0  2  0  0  3  0  0  0  0  0  0
  187.9460  176.2970  136.9920 C   0  0  2  0  0  3  0  0  0  0  0  0
  187.0920  178.5450  136.8130 C   0  0  0  0  0  3  0  0  0  0  0  0
  189.6230  176.3830  139.6460 C   0  0  0  0  0  2  0  0  0  0  0  0
  189.4170  174.8890  136.0750 C   0  0  0  0  0  0  0  0  0  0  0  0
  188.2230  177.8390  141.9430 C   0  0  0  0  0  2  0  0  0  0  0  0
  186.3950  178.9100  140.9120 C   0  0  2  0  0  3  0  0  0  0  0  0
  187.4440  177.2110  134.7710 C   0  0  0  0  0  3  0  0  0  0  0  0
  187.2120  178.4080  135.3390 C   0  0  0  0  0  3  0  0  0  0  0  0
  187.5020  175.9530  135.6060 C   0  0  1  0  0  3  0  0  0  0  0  0
  190.1500  176.1240  138.2480 C   0  0  0  0  0  2  0  0  0  0  0  0
  188.5460  175.0550  135.1350 N   0  0  0  0  0  0  0  0  0  0  0  0
  187.4420  177.5310  137.6160 C   0  0  0  0  0  0  0  0  0  0  0  0
  187.4620  178.7610  139.8340 C   0  0  2  0  0  3  0  0  0  0  0  0
  187.2020  177.5780  139.0210 N   0  0  0  0  0  2  0  0  0  0  0  0
  189.0980  175.6770  137.2650 C   0  0  1  0  0  3  0  0  0  0  0  0
  186.7820  178.0750  142.0540 N   0  0  0  0  0  0  0  0  0  0  0  0
  184.1960  177.7490  141.1720 C   0  0  0  0  0  3  0  0  0  0  0  0
  184.4530  179.2990  139.3320 C   0  0  0  0  0  3  0  0  0  0  0  0
  184.9920  178.6410  140.4460 C   0  0  0  0  0  0  0  0  0  0  0  0
  182.8770  177.5050  140.7820 C   0  0  0  0  0  3  0  0  0  0  0  0
  182.3370  178.1580  139.6620 C   0  0  0  0  0  0  0  0  0  0  0  0
  183.1320  179.0560  138.9410 C   0  0  0  0  0  3  0  0  0  0  0  0
  181.0210  177.9370  139.2480 O   0  0  0  0  0  0  0  0  0  0  0  0
  180.3510  176.6990  139.4490 C   0  0  0  0  0  2  0  0  0  0  0  0
  179.4100  177.8650  141.2990 O   0  0  0  0  0  1  0  0  0  0  0  0
  178.9310  175.6250  141.1890 O   0  0  0  0  0  0  0  0  0  0  0  0
  179.5300  176.7720  140.6860 C   0  0  0  0  0  0  0  0  0  0  0  0
  190.4940  172.7770  135.9890 O   0  0  0  0  0  0  0  0  0  0  0  0
  191.8690  174.6230  135.6200 N   0  0  0  0  0  2  0  0  0  0  0  0
  190.6000  174.0290  135.9010 C   0  0  0  0  0  0  0  0  0  0  0  0
  193.0670  173.8230  135.4150 C   0  0  0  0  0  2  0  0  0  0  0  0
  194.1700  174.2910  136.3480 C   0  0  0  0  0  2  0  0  0  0  0  0
  194.3040  175.7650  138.2080 O   0  0  0  0  0  1  0  0  0  0  0  0
  193.8470  175.6690  136.8950 C   0  0  0  0  0  2  0  0  0  0  0  0
  186.4850  178.7620  143.3160 C   0  0  0  0  0  2  0  0  0  0  0  0
  185.8350  177.8590  144.3690 C   0  0  0  0  0  2  0  0  0  0  0  0
  186.8960  177.0310  145.0720 C   0  0  0  0  0  2  0  0  0  0  0  0
  186.9460  178.1900  147.2840 C   0  0  0  0  0  1  0  0  0  0  0  0
  187.7230  177.8950  146.0130 C   0  0  1  0  0  3  0  0  0  0  0  0
  189.1470  176.5700  147.3600 O   0  0  0  0  0  0  0  0  0  0  0  0
  189.0210  177.2260  146.3370 C   0  0  0  0  0  0  0  0  0  0  0  0
  191.8540  177.1180  146.0370 O   0  0  0  0  0  1  0  0  0  0  0  0
  190.2650  176.3620  144.1010 O   0  0  0  0  0  0  0  0  0  0  0  0
  190.4020  177.3820  145.2080 P   0  0  0  0  0  0  0  0  0  0  0  0
  190.4110  178.9360  144.5420 O   0  0  0  0  0  1  0  0  0  0  0  0
  2  1  1  6  0  0  0
  2  7  1  0  0  0  0
  3 17  1  0  0  0  0
  3 14  1  6  0  0  0
  4 14  2  0  0  0  0
  5  1  1  0  0  0  0
  6 17  1  0  0  0  0
  7 18  1  0  0  0  0
  8 21  1  6  0  0  0
  8 18  1  0  0  0  0
  9 10  2  0  0  0  0
 10  4  1  0  0  0  0
 11  9  1  6  0  0  0
 11  3  1  0  0  0  0
 12  5  1  0  0  0  0
 13 11  1  0  0  0  0
 13  6  2  0  0  0  0
 14 16  1  0  0  0  0
 15 16  1  6  0  0  0
 15  2  1  0  0  0  0
 15  8  1  0  0  0  0
 17 12  1  6  0  0  0
 18 37  1  0  0  0  0
 20 21  1  0  0  0  0
 21 19  2  0  0  0  0
 22 19  1  0  0  0  0
 23 22  2  0  0  0  0
 24 20  2  0  0  0  0
 24 23  1  0  0  0  0
 25 26  1  0  0  0  0
 25 23  1  0  0  0  0
 26 29  1  0  0  0  0
 29 28  2  0  0  0  0
 29 27  1  0  0  0  0
 31 32  1  0  0  0  0
 32 30  2  0  0  0  0
 32  6  1  0  0  0  0
 33 31  1  0  0  0  0
 33 34  1  0  0  0  0
 34 36  1  0  0  0  0
 36 35  1  0  0  0  0
 37 38  1  0  0  0  0
 38 39  1  0  0  0  0
 39 41  1  0  0  0  0
 41 43  1  0  0  0  0
 41 40  1  1  0  0  0
 43 42  2  0  0  0  0
 45 46  2  0  0  0  0
 46 44  1  0  0  0  0
 46 43  1  0  0  0  0
 47 46  1  0  0  0  0
M  END
>  <MODEL>
1

>  <REMARK>
 VINA RESULT:      -6.7      0.000      0.000
  Name = 
  14 active torsions:
  status: ('A' for Active; 'I' for Inactive)
    1  A    between atoms: N_9  and  C_14
    2  A    between atoms: C_10  and  C_14
    3  A    between atoms: C_10  and  C_47
    4  A    between atoms: C_13  and  C_39
    5  A    between atoms: C_16  and  C_26
    6  A    between atoms: C_22  and  C_34
    7  A    between atoms: C_22  and  C_36
    8  A    between atoms: C_23  and  C_24
    9  A    between atoms: C_24  and  O_30
   10  A    between atoms: C_27  and  C_34
   11  A    between atoms: C_27  and  P_40
   12  A    between atoms: O_30  and  C_32
   13  A    between atoms: C_36  and  C_37
   14  A    between atoms: C_37  and  N_46
                            x       y       z     vdW  Elec       q    Type
                         _______ _______ _______ _____ _____    ______ ____

>  <TORSDO>
F 14

$$$$
=
 OpenBabel10222420243D

 47 51  0  0  1  0  0  0  0  0999 V2000
  189.5570  178.1500  140.7690 C   0  0  0  0  0  2  0  0  0  0  0  0
  188.2450  178.7580  141.2820 C   0  0  2  0  0  3  0  0  0  0  0  0
  188.1810  176.5680  137.4830 C   0  0  2  0  0  3  0  0  0  0  0  0
  187.2290  178.7670  137.2130 C   0  0  0  0  0  3  0  0  0  0  0  0
  189.4370  176.6860  140.3590 C   0  0  0  0  0  2  0  0  0  0  0  0
  189.8550  175.2710  136.7740 C   0  0  0  0  0  0  0  0  0  0  0  0
  187.6250  178.0010  142.4430 C   0  0  0  0  0  2  0  0  0  0  0  0
  185.9100  178.9900  141.1670 C   0  0  2  0  0  3  0  0  0  0  0  0
  187.9600  177.5070  135.2260 C   0  0  0  0  0  3  0  0  0  0  0  0
  187.5740  178.6740  135.7720 C   0  0  0  0  0  3  0  0  0  0  0  0
  187.9700  176.2340  136.0410 C   0  0  1  0  0  3  0  0  0  0  0  0
  190.1810  176.4920  139.0510 C   0  0  0  0  0  2  0  0  0  0  0  0
  189.1250  175.4100  135.7170 N   0  0  0  0  0  0  0  0  0  0  0  0
  187.5160  177.7560  138.0440 C   0  0  0  0  0  0  0  0  0  0  0  0
  187.1320  178.9290  140.2590 C   0  0  2  0  0  3  0  0  0  0  0  0
  187.0680  177.7540  139.3970 N   0  0  0  0  0  2  0  0  0  0  0  0
  189.3160  176.0100  137.9150 C   0  0  1  0  0  3  0  0  0  0  0  0
  186.1720  178.1500  142.3410 N   0  0  0  0  0  0  0  0  0  0  0  0
  183.8210  177.6240  141.0180 C   0  0  0  0  0  3  0  0  0  0  0  0
  184.1530  179.3750  139.3810 C   0  0  0  0  0  3  0  0  0  0  0  0
  184.6100  178.6520  140.4920 C   0  0  0  0  0  0  0  0  0  0  0  0
  182.5920  177.3100  140.4310 C   0  0  0  0  0  3  0  0  0  0  0  0
  182.1360  178.0280  139.3140 C   0  0  0  0  0  0  0  0  0  0  0  0
  182.9240  179.0620  138.7940 C   0  0  0  0  0  3  0  0  0  0  0  0
  180.9120  177.7400  138.7060 O   0  0  0  0  0  0  0  0  0  0  0  0
  180.4370  176.4120  138.5290 C   0  0  0  0  0  2  0  0  0  0  0  0
  181.2660  176.3540  136.2980 O   0  0  0  0  0  0  0  0  0  0  0  0
  181.7050  174.4970  137.5680 O   0  0  0  0  0  1  0  0  0  0  0  0
  181.1680  175.7670  137.4070 C   0  0  0  0  0  0  0  0  0  0  0  0
  191.1170  173.3140  137.2300 O   0  0  0  0  0  0  0  0  0  0  0  0
  192.2910  175.0550  136.2170 N   0  0  0  0  0  2  0  0  0  0  0  0
  191.1010  174.4860  136.7650 C   0  0  0  0  0  0  0  0  0  0  0  0
  193.5440  174.3180  136.1600 C   0  0  0  0  0  2  0  0  0  0  0  0
  194.3370  174.5420  137.4350 C   0  0  0  0  0  2  0  0  0  0  0  0
  195.6640  173.4330  139.0670 O   0  0  0  0  0  1  0  0  0  0  0  0
  194.7550  173.2110  138.0350 C   0  0  0  0  0  2  0  0  0  0  0  0
  185.6500  178.7880  143.5550 C   0  0  0  0  0  2  0  0  0  0  0  0
  185.5980  177.8520  144.7660 C   0  0  0  0  0  2  0  0  0  0  0  0
  186.9520  177.1980  144.9780 C   0  0  0  0  0  2  0  0  0  0  0  0
  186.9790  178.1630  147.2820 C   0  0  0  0  0  1  0  0  0  0  0  0
  187.7730  177.9700  146.0010 C   0  0  1  0  0  3  0  0  0  0  0  0
  189.1830  176.5640  147.2800 O   0  0  0  0  0  0  0  0  0  0  0  0
  189.0600  177.2620  146.2850 C   0  0  0  0  0  0  0  0  0  0  0  0
  190.4090  178.9730  144.4480 O   0  0  0  0  0  1  0  0  0  0  0  0
  191.7320  177.2410  145.8950 O   0  0  0  0  0  1  0  0  0  0  0  0
  190.4330  177.4330  145.1480 P   0  0  0  0  0  0  0  0  0  0  0  0
  190.3060  176.2640  143.9330 O   0  0  0  0  0  0  0  0  0  0  0  0
  2  1  1  6  0  0  0
  2  7  1  0  0  0  0
  3 17  1  0  0  0  0
  3 14  1  6  0  0  0
  4 14  2  0  0  0  0
  5  1  1  0  0  0  0
  6 17  1  0  0  0  0
  8 21  1  6  0  0  0
  8 18  1  0  0  0  0
  9 10  2  0  0  0  0
 10  4  1  0  0  0  0
 11  9  1  6  0  0  0
 11  3  1  0  0  0  0
 12  5  1  0  0  0  0
 13 11  1  0  0  0  0
 13  6  2  0  0  0  0
 14 16  1  0  0  0  0
 15 16  1  6  0  0  0
 15  8  1  0  0  0  0
 15  2  1  0  0  0  0
 17 12  1  6  0  0  0
 18  7  1  0  0  0  0
 18 37  1  0  0  0  0
 20 21  2  0  0  0  0
 21 19  1  0  0  0  0
 22 19  2  0  0  0  0
 23 22  1  0  0  0  0
 24 23  2  0  0  0  0
 24 20  1  0  0  0  0
 25 23  1  0  0  0  0
 26 25  1  0  0  0  0
 27 29  2  0  0  0  0
 29 28  1  0  0  0  0
 29 26  1  0  0  0  0
 31 32  1  0  0  0  0
 32  6  1  0  0  0  0
 32 30  2  0  0  0  0
 33 31  1  0  0  0  0
 33 34  1  0  0  0  0
 34 36  1  0  0  0  0
 36 35  1  0  0  0  0
 37 38  1  0  0  0  0
 38 39  1  0  0  0  0
 39 41  1  0  0  0  0
 41 43  1  0  0  0  0
 41 40  1  1  0  0  0
 43 42  2  0  0  0  0
 44 46  1  0  0  0  0
 46 45  1  0  0  0  0
 46 43  1  0  0  0  0
 47 46  2  0  0  0  0
M  END
>  <MODEL>
2

>  <REMARK>
 VINA RESULT:      -6.7      1.156      1.625
  Name = 
  14 active torsions:
  status: ('A' for Active; 'I' for Inactive)
    1  A    between atoms: N_9  and  C_14
    2  A    between atoms: C_10  and  C_14
    3  A    between atoms: C_10  and  C_47
    4  A    between atoms: C_13  and  C_39
    5  A    between atoms: C_16  and  C_26
    6  A    between atoms: C_22  and  C_34
    7  A    between atoms: C_22  and  C_36
    8  A    between atoms: C_23  and  C_24
    9  A    between atoms: C_24  and  O_30
   10  A    between atoms: C_27  and  C_34
   11  A    between atoms: C_27  and  P_40
   12  A    between atoms: O_30  and  C_32
   13  A    between atoms: C_36  and  C_37
   14  A    between atoms: C_37  and  N_46
                            x       y       z     vdW  Elec       q    Type
                         _______ _______ _______ _____ _____    ______ ____

>  <TORSDO>
F 14

$$$$
=
 OpenBabel10222420243D

 47 51  0  0  1  0  0  0  0  0999 V2000
  191.0570  176.9360  138.8450 C   0  0  0  0  0  2  0  0  0  0  0  0
  190.4280  177.8190  139.9320 C   0  0  2  0  0  3  0  0  0  0  0  0
  187.7620  175.7270  137.1480 C   0  0  2  0  0  3  0  0  0  0  0  0
  187.2610  178.0850  137.1950 C   0  0  0  0  0  3  0  0  0  0  0  0
  190.4500  175.5390  138.7620 C   0  0  0  0  0  2  0  0  0  0  0  0
  188.4340  174.0920  135.7830 C   0  0  0  0  0  0  0  0  0  0  0  0
  190.4710  177.2120  141.3230 C   0  0  0  0  0  2  0  0  0  0  0  0
  188.5550  178.5700  141.1340 C   0  0  2  0  0  3  0  0  0  0  0  0
  186.4510  176.7080  135.3200 C   0  0  0  0  0  3  0  0  0  0  0  0
  186.6810  177.9270  135.8380 C   0  0  0  0  0  3  0  0  0  0  0  0
  186.6950  175.4590  136.1360 C   0  0  1  0  0  3  0  0  0  0  0  0
  190.2430  175.1930  137.3000 C   0  0  0  0  0  2  0  0  0  0  0  0
  187.2680  174.3990  135.3200 N   0  0  0  0  0  0  0  0  0  0  0  0
  187.7820  177.0290  137.8340 C   0  0  0  0  0  0  0  0  0  0  0  0
  188.9840  178.2430  139.7090 C   0  0  2  0  0  3  0  0  0  0  0  0
  188.2140  177.1190  139.1910 N   0  0  0  0  0  2  0  0  0  0  0  0
  188.8080  174.9250  136.9260 C   0  0  1  0  0  3  0  0  0  0  0  0
  189.2880  177.6840  142.0450 N   0  0  0  0  0  0  0  0  0  0  0  0
  186.5840  178.0700  142.5900 C   0  0  0  0  0  3  0  0  0  0  0  0
  186.1700  179.0070  140.3980 C   0  0  0  0  0  3  0  0  0  0  0  0
  187.0700  178.5370  141.3650 C   0  0  0  0  0  0  0  0  0  0  0  0
  185.2100  178.0580  142.8440 C   0  0  0  0  0  3  0  0  0  0  0  0
  184.3070  178.5230  141.8750 C   0  0  0  0  0  0  0  0  0  0  0  0
  184.7950  178.9980  140.6530 C   0  0  0  0  0  3  0  0  0  0  0  0
  182.9280  178.5270  142.1000 O   0  0  0  0  0  0  0  0  0  0  0  0
  181.9880  178.1200  141.1150 C   0  0  0  0  0  2  0  0  0  0  0  0
  179.9320  179.2910  140.8550 O   0  0  0  0  0  0  0  0  0  0  0  0
  180.1080  178.0010  142.7420 O   0  0  0  0  0  1  0  0  0  0  0  0
  180.6170  178.4940  141.5490 C   0  0  0  0  0  0  0  0  0  0  0  0
  188.7350  172.0570  134.6010 O   0  0  0  0  0  0  0  0  0  0  0  0
  190.6930  173.1680  135.2060 N   0  0  0  0  0  2  0  0  0  0  0  0
  189.2700  173.0480  135.1670 C   0  0  0  0  0  0  0  0  0  0  0  0
  191.5680  172.1800  134.5940 C   0  0  0  0  0  2  0  0  0  0  0  0
  192.7170  171.8530  135.5300 C   0  0  0  0  0  2  0  0  0  0  0  0
  193.0920  173.4020  137.2940 O   0  0  0  0  0  1  0  0  0  0  0  0
  193.4180  173.1250  135.9670 C   0  0  0  0  0  2  0  0  0  0  0  0
  189.6990  178.4150  143.2500 C   0  0  0  0  0  2  0  0  0  0  0  0
  191.2140  178.6090  143.3630 C   0  0  0  0  0  2  0  0  0  0  0  0
  191.6890  178.2090  144.7490 C   0  0  0  0  0  2  0  0  0  0  0  0
  191.6750  175.7190  144.9530 C   0  0  0  0  0  1  0  0  0  0  0  0
  190.9170  177.0000  145.2590 C   0  0  1  0  0  3  0  0  0  0  0  0
  191.5840  177.0620  147.5280 O   0  0  0  0  0  0  0  0  0  0  0  0
  190.6630  177.1190  146.7280 C   0  0  0  0  0  0  0  0  0  0  0  0
  188.0270  177.9900  146.0790 O   0  0  0  0  0  0  0  0  0  0  0  0
  188.4210  176.0310  147.7680 O   0  0  0  0  0  1  0  0  0  0  0  0
  188.9890  177.3570  147.3190 P   0  0  0  0  0  0  0  0  0  0  0  0
  189.0020  178.4340  148.6230 O   0  0  0  0  0  1  0  0  0  0  0  0
  2  1  1  6  0  0  0
  2  7  1  0  0  0  0
  3 14  1  6  0  0  0
  4 14  2  0  0  0  0
  5  1  1  0  0  0  0
  6 17  1  0  0  0  0
  7 18  1  0  0  0  0
  8 21  1  6  0  0  0
  8 18  1  0  0  0  0
  9 10  2  0  0  0  0
 10  4  1  0  0  0  0
 11  9  1  6  0  0  0
 11  3  1  0  0  0  0
 12  5  1  0  0  0  0
 13  6  2  0  0  0  0
 13 11  1  0  0  0  0
 14 16  1  0  0  0  0
 15 16  1  1  0  0  0
 15  2  1  0  0  0  0
 15  8  1  0  0  0  0
 17  3  1  0  0  0  0
 17 12  1  6  0  0  0
 18 37  1  0  0  0  0
 19 22  1  0  0  0  0
 20 24  2  0  0  0  0
 20 21  1  0  0  0  0
 21 19  2  0  0  0  0
 23 25  1  0  0  0  0
 23 22  2  0  0  0  0
 24 23  1  0  0  0  0
 26 29  1  0  0  0  0
 26 25  1  0  0  0  0
 27 29  2  0  0  0  0
 29 28  1  0  0  0  0
 30 32  2  0  0  0  0
 32 31  1  0  0  0  0
 32  6  1  0  0  0  0
 33 31  1  0  0  0  0
 33 34  1  0  0  0  0
 34 36  1  0  0  0  0
 36 35  1  0  0  0  0
 37 38  1  0  0  0  0
 38 39  1  0  0  0  0
 39 41  1  0  0  0  0
 41 40  1  1  0  0  0
 41 43  1  0  0  0  0
 43 46  1  0  0  0  0
 43 42  2  0  0  0  0
 44 46  2  0  0  0  0
 46 45  1  0  0  0  0
 46 47  1  0  0  0  0
M  END
>  <MODEL>
3

>  <REMARK>
 VINA RESULT:      -6.5      1.879      2.689
  Name = 
  14 active torsions:
  status: ('A' for Active; 'I' for Inactive)
    1  A    between atoms: N_9  and  C_14
    2  A    between atoms: C_10  and  C_14
    3  A    between atoms: C_10  and  C_47
    4  A    between atoms: C_13  and  C_39
    5  A    between atoms: C_16  and  C_26
    6  A    between atoms: C_22  and  C_34
    7  A    between atoms: C_22  and  C_36
    8  A    between atoms: C_23  and  C_24
    9  A    between atoms: C_24  and  O_30
   10  A    between atoms: C_27  and  C_34
   11  A    between atoms: C_27  and  P_40
   12  A    between atoms: O_30  and  C_32
   13  A    between atoms: C_36  and  C_37
   14  A    between atoms: C_37  and  N_46
                            x       y       z     vdW  Elec       q    Type
                         _______ _______ _______ _____ _____    ______ ____

>  <TORSDO>
F 14

$$$$
=
 OpenBabel10222420243D

 47 51  0  0  1  0  0  0  0  0999 V2000
  185.9550  179.4580  141.2840 C   0  0  0  0  0  2  0  0  0  0  0  0
  184.6640  179.2100  140.4920 C   0  0  2  0  0  3  0  0  0  0  0  0
  188.3520  177.2770  139.1190 C   0  0  2  0  0  3  0  0  0  0  0  0
  187.3200  178.5110  137.3230 C   0  0  0  0  0  3  0  0  0  0  0  0
  186.7120  178.1830  141.6390 C   0  0  0  0  0  2  0  0  0  0  0  0
  190.2200  177.1660  140.3390 C   0  0  0  0  0  0  0  0  0  0  0  0
  183.6890  178.2680  141.1780 C   0  0  0  0  0  2  0  0  0  0  0  0
  183.4610  178.0460  138.8440 C   0  0  2  0  0  3  0  0  0  0  0  0
  189.6860  177.8490  137.1390 C   0  0  0  0  0  3  0  0  0  0  0  0
  188.6600  178.5930  136.6900 C   0  0  0  0  0  3  0  0  0  0  0  0
  189.4870  176.8400  138.2470 C   0  0  1  0  0  3  0  0  0  0  0  0
  188.1890  178.4170  141.3860 C   0  0  0  0  0  2  0  0  0  0  0  0
  190.6210  176.8260  139.1580 N   0  0  0  0  0  0  0  0  0  0  0  0
  187.1630  177.8770  138.4930 C   0  0  0  0  0  0  0  0  0  0  0  0
  184.8280  178.6760  139.0770 C   0  0  2  0  0  3  0  0  0  0  0  0
  185.8700  177.6560  139.0520 N   0  0  0  0  0  2  0  0  0  0  0  0
  188.7940  177.4900  140.3620 C   0  0  1  0  0  3  0  0  0  0  0  0
  182.9640  177.5470  140.1300 N   0  0  0  0  0  0  0  0  0  0  0  0
  183.5450  177.3970  136.4300 C   0  0  0  0  0  3  0  0  0  0  0  0
  183.3330  175.6350  138.0750 C   0  0  0  0  0  3  0  0  0  0  0  0
  183.4290  176.9990  137.7660 C   0  0  0  0  0  0  0  0  0  0  0  0
  183.5520  176.4420  135.4090 C   0  0  0  0  0  3  0  0  0  0  0  0
  183.4500  175.0760  135.7170 C   0  0  0  0  0  0  0  0  0  0  0  0
  183.3410  174.6790  137.0540 C   0  0  0  0  0  3  0  0  0  0  0  0
  183.4560  174.0980  134.7190 O   0  0  0  0  0  0  0  0  0  0  0  0
  184.1100  172.8450  134.8760 C   0  0  0  0  0  2  0  0  0  0  0  0
  183.4480  170.5840  135.2140 O   0  0  0  0  0  1  0  0  0  0  0  0
  181.7740  172.0270  134.6030 O   0  0  0  0  0  0  0  0  0  0  0  0
  183.0980  171.7570  134.9230 C   0  0  0  0  0  0  0  0  0  0  0  0
  192.3650  177.4870  141.3020 O   0  0  0  0  0  0  0  0  0  0  0  0
  190.6390  177.0570  142.8090 N   0  0  0  0  0  2  0  0  0  0  0  0
  191.1420  177.2450  141.4850 C   0  0  0  0  0  0  0  0  0  0  0  0
  191.4980  177.1480  143.9800 C   0  0  0  0  0  2  0  0  0  0  0  0
  190.7260  176.7440  145.2230 C   0  0  0  0  0  2  0  0  0  0  0  0
  192.2260  175.4850  146.5720 O   0  0  0  0  0  1  0  0  0  0  0  0
  191.6400  176.7420  146.4340 C   0  0  0  0  0  2  0  0  0  0  0  0
  181.5230  177.8010  140.2570 C   0  0  0  0  0  2  0  0  0  0  0  0
  180.9500  178.6590  139.1250 C   0  0  0  0  0  2  0  0  0  0  0  0
  181.0020  180.1280  139.5070 C   0  0  0  0  0  2  0  0  0  0  0  0
  181.0820  180.2000  137.0110 C   0  0  0  0  0  1  0  0  0  0  0  0
  181.2850  180.9960  138.2890 C   0  0  1  0  0  3  0  0  0  0  0  0
  179.4140  182.2590  139.0000 O   0  0  0  0  0  0  0  0  0  0  0  0
  180.4100  182.2100  138.2940 C   0  0  0  0  0  0  0  0  0  0  0  0
  180.8250  183.1440  135.6330 O   0  0  0  0  0  0  0  0  0  0  0  0
  179.8260  184.7150  137.4720 O   0  0  0  0  0  1  0  0  0  0  0  0
  180.8340  183.6090  137.2600 P   0  0  0  0  0  0  0  0  0  0  0  0
  182.3760  184.1680  137.6740 O   0  0  0  0  0  1  0  0  0  0  0  0
  1  5  1  0  0  0  0
  2  7  1  1  0  0  0
  2  1  1  0  0  0  0
  3 14  1  6  0  0  0
  3 17  1  0  0  0  0
  4 14  2  0  0  0  0
  6 17  1  0  0  0  0
  6 32  1  0  0  0  0
  8 21  1  6  0  0  0
  8 15  1  0  0  0  0
  8 18  1  0  0  0  0
 10  9  2  0  0  0  0
 10  4  1  0  0  0  0
 11  9  1  6  0  0  0
 11  3  1  0  0  0  0
 11 13  1  0  0  0  0
 12  5  1  0  0  0  0
 13  6  2  0  0  0  0
 14 16  1  0  0  0  0
 15 16  1  1  0  0  0
 15  2  1  0  0  0  0
 17 12  1  6  0  0  0
 18 37  1  0  0  0  0
 18  7  1  0  0  0  0
 19 21  1  0  0  0  0
 21 20  2  0  0  0  0
 22 23  1  0  0  0  0
 22 19  2  0  0  0  0
 23 24  2  0  0  0  0
 24 20  1  0  0  0  0
 25 26  1  0  0  0  0
 25 23  1  0  0  0  0
 26 29  1  0  0  0  0
 28 29  2  0  0  0  0
 29 27  1  0  0  0  0
 30 32  2  0  0  0  0
 31 33  1  0  0  0  0
 32 31  1  0  0  0  0
 33 34  1  0  0  0  0
 34 36  1  0  0  0  0
 36 35  1  0  0  0  0
 38 39  1  0  0  0  0
 38 37  1  0  0  0  0
 41 40  1  6  0  0  0
 41 43  1  0  0  0  0
 41 39  1  0  0  0  0
 43 42  2  0  0  0  0
 44 46  2  0  0  0  0
 46 45  1  0  0  0  0
 46 47  1  0  0  0  0
 46 43  1  0  0  0  0
M  END
>  <MODEL>
4

>  <REMARK>
 VINA RESULT:      -6.5      4.109      7.720
  Name = 
  14 active torsions:
  status: ('A' for Active; 'I' for Inactive)
    1  A    between atoms: N_9  and  C_14
    2  A    between atoms: C_10  and  C_14
    3  A    between atoms: C_10  and  C_47
    4  A    between atoms: C_13  and  C_39
    5  A    between atoms: C_16  and  C_26
    6  A    between atoms: C_22  and  C_34
    7  A    between atoms: C_22  and  C_36
    8  A    between atoms: C_23  and  C_24
    9  A    between atoms: C_24  and  O_30
   10  A    between atoms: C_27  and  C_34
   11  A    between atoms: C_27  and  P_40
   12  A    between atoms: O_30  and  C_32
   13  A    between atoms: C_36  and  C_37
   14  A    between atoms: C_37  and  N_46
                            x       y       z     vdW  Elec       q    Type
                         _______ _______ _______ _____ _____    ______ ____

>  <TORSDO>
F 14

$$$$
=
 OpenBabel10222420243D

 47 51  0  0  1  0  0  0  0  0999 V2000
  185.7100  179.5220  141.9010 C   0  0  0  0  0  2  0  0  0  0  0  0
  184.9310  179.3550  140.5890 C   0  0  2  0  0  3  0  0  0  0  0  0
  188.6320  177.0640  141.1170 C   0  0  2  0  0  3  0  0  0  0  0  0
  188.6920  178.3140  139.0560 C   0  0  0  0  0  3  0  0  0  0  0  0
  186.0870  178.2000  142.5630 C   0  0  0  0  0  2  0  0  0  0  0  0
  189.6810  176.8400  143.0760 C   0  0  0  0  0  0  0  0  0  0  0  0
  183.6650  178.5270  140.7230 C   0  0  0  0  0  2  0  0  0  0  0  0
  184.5490  178.2380  138.5590 C   0  0  2  0  0  3  0  0  0  0  0  0
  190.7910  177.4460  140.0120 C   0  0  0  0  0  3  0  0  0  0  0  0
  190.1730  178.2580  139.1350 C   0  0  0  0  0  3  0  0  0  0  0  0
  189.9980  176.5000  140.8840 C   0  0  1  0  0  3  0  0  0  0  0  0
  187.5230  178.2980  143.0430 C   0  0  0  0  0  2  0  0  0  0  0  0
  190.5590  176.4230  142.2240 N   0  0  0  0  0  0  0  0  0  0  0  0
  187.9420  177.7400  140.0060 C   0  0  0  0  0  0  0  0  0  0  0  0
  185.6950  178.7570  139.4180 C   0  0  2  0  0  3  0  0  0  0  0  0
  186.5240  177.6520  139.8820 N   0  0  0  0  0  2  0  0  0  0  0  0
  188.4500  177.2850  142.4220 C   0  0  1  0  0  3  0  0  0  0  0  0
  183.4580  177.8320  139.4510 N   0  0  0  0  0  0  0  0  0  0  0  0
  184.2790  175.9230  137.6510 C   0  0  0  0  0  3  0  0  0  0  0  0
  185.8970  177.3790  136.5920 C   0  0  0  0  0  3  0  0  0  0  0  0
  184.9330  177.1580  137.5870 C   0  0  0  0  0  0  0  0  0  0  0  0
  184.5930  174.9120  136.7390 C   0  0  0  0  0  3  0  0  0  0  0  0
  185.5620  175.1300  135.7460 C   0  0  0  0  0  0  0  0  0  0  0  0
  186.2100  176.3680  135.6790 C   0  0  0  0  0  3  0  0  0  0  0  0
  185.8970  174.1400  134.8180 O   0  0  0  0  0  0  0  0  0  0  0  0
  186.3260  172.8400  135.2040 C   0  0  0  0  0  2  0  0  0  0  0  0
  187.5750  172.5550  137.2100 O   0  0  0  0  0  1  0  0  0  0  0  0
  188.7080  173.5150  135.4630 O   0  0  0  0  0  0  0  0  0  0  0  0
  187.5680  172.9450  136.0130 C   0  0  0  0  0  0  0  0  0  0  0  0
  191.1330  176.7740  144.9510 O   0  0  0  0  0  0  0  0  0  0  0  0
  188.8720  177.0610  145.4400 N   0  0  0  0  0  2  0  0  0  0  0  0
  189.9530  176.8830  144.5220 C   0  0  0  0  0  0  0  0  0  0  0  0
  189.0840  177.1360  146.8770 C   0  0  0  0  0  2  0  0  0  0  0  0
  187.9670  177.9340  147.5260 C   0  0  0  0  0  2  0  0  0  0  0  0
  185.7510  178.7360  147.2170 O   0  0  0  0  0  1  0  0  0  0  0  0
  186.7640  178.0010  146.6040 C   0  0  0  0  0  2  0  0  0  0  0  0
  182.1600  178.2120  138.8810 C   0  0  0  0  0  2  0  0  0  0  0  0
  182.2310  179.4270  137.9510 C   0  0  0  0  0  2  0  0  0  0  0  0
  181.0730  180.3680  138.2340 C   0  0  0  0  0  2  0  0  0  0  0  0
  180.2310  181.0630  135.9870 C   0  0  0  0  0  1  0  0  0  0  0  0
  181.0240  181.4920  137.2090 C   0  0  1  0  0  3  0  0  0  0  0  0
  179.6310  182.6510  138.7300 O   0  0  0  0  0  0  0  0  0  0  0  0
  180.4320  182.7270  137.8110 C   0  0  0  0  0  0  0  0  0  0  0  0
  179.8830  185.5240  137.8080 O   0  0  0  0  0  1  0  0  0  0  0  0
  182.3330  184.6330  137.5900 O   0  0  0  0  0  1  0  0  0  0  0  0
  180.9090  184.3340  137.1810 P   0  0  0  0  0  0  0  0  0  0  0  0
  180.7990  184.3320  135.4930 O   0  0  0  0  0  0  0  0  0  0  0  0
  1  5  1  0  0  0  0
  2  7  1  1  0  0  0
  2  1  1  0  0  0  0
  3 14  1  6  0  0  0
  3 17  1  0  0  0  0
  4 10  1  0  0  0  0
  4 14  2  0  0  0  0
  5 12  1  0  0  0  0
  6 32  1  0  0  0  0
  8 21  1  1  0  0  0
  8 15  1  0  0  0  0
  8 18  1  0  0  0  0
 10  9  2  0  0  0  0
 11  9  1  6  0  0  0
 11  3  1  0  0  0  0
 11 13  1  0  0  0  0
 13  6  2  0  0  0  0
 15 16  1  1  0  0  0
 15  2  1  0  0  0  0
 16 14  1  0  0  0  0
 17 12  1  6  0  0  0
 17  6  1  0  0  0  0
 18  7  1  0  0  0  0
 20 21  2  0  0  0  0
 21 19  1  0  0  0  0
 22 19  2  0  0  0  0
 23 22  1  0  0  0  0
 24 23  2  0  0  0  0
 24 20  1  0  0  0  0
 25 26  1  0  0  0  0
 25 23  1  0  0  0  0
 26 29  1  0  0  0  0
 28 29  2  0  0  0  0
 29 27  1  0  0  0  0
 31 33  1  0  0  0  0
 32 30  2  0  0  0  0
 32 31  1  0  0  0  0
 33 34  1  0  0  0  0
 36 35  1  0  0  0  0
 36 34  1  0  0  0  0
 37 18  1  0  0  0  0
 38 39  1  0  0  0  0
 38 37  1  0  0  0  0
 41 40  1  6  0  0  0
 41 43  1  0  0  0  0
 41 39  1  0  0  0  0
 43 42  2  0  0  0  0
 46 45  1  0  0  0  0
 46 44  1  0  0  0  0
 46 43  1  0  0  0  0
 47 46  2  0  0  0  0
M  END
>  <MODEL>
5

>  <REMARK>
 VINA RESULT:      -6.5      3.727      8.874
  Name = 
  14 active torsions:
  status: ('A' for Active; 'I' for Inactive)
    1  A    between atoms: N_9  and  C_14
    2  A    between atoms: C_10  and  C_14
    3  A    between atoms: C_10  and  C_47
    4  A    between atoms: C_13  and  C_39
    5  A    between atoms: C_16  and  C_26
    6  A    between atoms: C_22  and  C_34
    7  A    between atoms: C_22  and  C_36
    8  A    between atoms: C_23  and  C_24
    9  A    between atoms: C_24  and  O_30
   10  A    between atoms: C_27  and  C_34
   11  A    between atoms: C_27  and  P_40
   12  A    between atoms: O_30  and  C_32
   13  A    between atoms: C_36  and  C_37
   14  A    between atoms: C_37  and  N_46
                            x       y       z     vdW  Elec       q    Type
                         _______ _______ _______ _____ _____    ______ ____

>  <TORSDO>
F 14

$$$$
=
 OpenBabel10222420243D

 47 51  0  0  1  0  0  0  0  0999 V2000
  186.0680  177.3410  135.1120 C   0  0  0  0  0  2  0  0  0  0  0  0
  187.3910  177.6800  135.8120 C   0  0  2  0  0  3  0  0  0  0  0  0
  183.8390  176.9970  138.2910 C   0  0  2  0  0  3  0  0  0  0  0  0
  184.8600  179.1130  138.8330 C   0  0  0  0  0  3  0  0  0  0  0  0
  185.3640  176.1180  135.6900 C   0  0  0  0  0  2  0  0  0  0  0  0
  181.9460  176.0970  137.5210 C   0  0  0  0  0  0  0  0  0  0  0  0
  188.3900  176.5370  135.8320 C   0  0  0  0  0  2  0  0  0  0  0  0
  188.6940  177.8600  137.7580 C   0  0  2  0  0  3  0  0  0  0  0  0
  182.5350  178.6750  139.5200 C   0  0  0  0  0  3  0  0  0  0  0  0
  183.5360  179.5540  139.3380 C   0  0  0  0  0  3  0  0  0  0  0  0
  182.7520  177.1960  139.2990 C   0  0  1  0  0  3  0  0  0  0  0  0
  183.8840  176.4310  135.8130 C   0  0  0  0  0  2  0  0  0  0  0  0
  181.5950  176.5810  138.6660 N   0  0  0  0  0  0  0  0  0  0  0  0
  185.0150  177.8820  138.3290 C   0  0  0  0  0  0  0  0  0  0  0  0
  187.2910  178.1700  137.2480 C   0  0  2  0  0  3  0  0  0  0  0  0
  186.3010  177.3800  137.9710 N   0  0  0  0  0  2  0  0  0  0  0  0
  183.3540  176.3590  137.2220 C   0  0  1  0  0  3  0  0  0  0  0  0
  189.1780  176.6650  137.0600 N   0  0  0  0  0  0  0  0  0  0  0  0
  189.7360  176.8500  139.7940 C   0  0  0  0  0  3  0  0  0  0  0  0
  188.0350  178.5420  140.1080 C   0  0  0  0  0  3  0  0  0  0  0  0
  188.8060  177.7430  139.2520 C   0  0  0  0  0  0  0  0  0  0  0  0
  189.8850  176.7440  141.1800 C   0  0  0  0  0  3  0  0  0  0  0  0
  189.1090  177.5390  142.0380 C   0  0  0  0  0  0  0  0  0  0  0  0
  188.1850  178.4380  141.4940 C   0  0  0  0  0  3  0  0  0  0  0  0
  189.2360  177.4580  143.4270 O   0  0  0  0  0  0  0  0  0  0  0  0
  188.1410  177.1590  144.2830 C   0  0  0  0  0  2  0  0  0  0  0  0
  187.7270  177.7120  146.5610 O   0  0  0  0  0  1  0  0  0  0  0  0
  189.8750  177.0780  146.0680 O   0  0  0  0  0  0  0  0  0  0  0  0
  188.5580  177.3190  145.7000 C   0  0  0  0  0  0  0  0  0  0  0  0
  180.2050  176.0730  135.9090 O   0  0  0  0  0  0  0  0  0  0  0  0
  180.9650  173.9810  136.6000 N   0  0  0  0  0  2  0  0  0  0  0  0
  180.9900  175.4090  136.6370 C   0  0  0  0  0  0  0  0  0  0  0  0
  180.0590  173.2470  135.7290 C   0  0  0  0  0  2  0  0  0  0  0  0
  180.7930  172.0940  135.0690 C   0  0  0  0  0  2  0  0  0  0  0  0
  182.9670  171.3560  135.6890 O   0  0  0  0  0  1  0  0  0  0  0  0
  182.2840  172.3750  135.0270 C   0  0  0  0  0  2  0  0  0  0  0  0
  190.6010  176.8070  136.7250 C   0  0  0  0  0  2  0  0  0  0  0  0
  191.2650  175.4950  136.2970 C   0  0  0  0  0  2  0  0  0  0  0  0
  191.7290  174.7230  137.5200 C   0  0  0  0  0  2  0  0  0  0  0  0
  193.4980  174.1750  135.8430 C   0  0  0  0  0  1  0  0  0  0  0  0
  193.1390  174.1860  137.3190 C   0  0  1  0  0  3  0  0  0  0  0  0
  193.8910  176.1670  138.3730 O   0  0  0  0  0  0  0  0  0  0  0  0
  194.1270  175.0010  138.0920 C   0  0  0  0  0  0  0  0  0  0  0  0
  196.2460  175.0480  139.9980 O   0  0  0  0  0  1  0  0  0  0  0  0
  195.4420  172.7970  138.9310 O   0  0  0  0  0  1  0  0  0  0  0  0
  195.6690  174.2580  138.6170 P   0  0  0  0  0  0  0  0  0  0  0  0
  196.8100  174.3950  137.3750 O   0  0  0  0  0  0  0  0  0  0  0  0
  1  5  1  0  0  0  0
  2  1  1  1  0  0  0
  2  7  1  0  0  0  0
  2 15  1  0  0  0  0
  3 14  1  6  0  0  0
  3 11  1  0  0  0  0
  4 10  1  0  0  0  0
  5 12  1  0  0  0  0
  6 13  2  0  0  0  0
  7 18  1  0  0  0  0
  8 21  1  1  0  0  0
 10  9  2  0  0  0  0
 11  9  1  6  0  0  0
 13 11  1  0  0  0  0
 14  4  2  0  0  0  0
 15  8  1  0  0  0  0
 15 16  1  1  0  0  0
 16 14  1  0  0  0  0
 17 12  1  6  0  0  0
 17  6  1  0  0  0  0
 17  3  1  0  0  0  0
 18  8  1  0  0  0  0
 19 22  1  0  0  0  0
 20 24  2  0  0  0  0
 21 19  2  0  0  0  0
 21 20  1  0  0  0  0
 22 23  2  0  0  0  0
 23 25  1  0  0  0  0
 24 23  1  0  0  0  0
 25 26  1  0  0  0  0
 26 29  1  0  0  0  0
 29 28  2  0  0  0  0
 29 27  1  0  0  0  0
 30 32  2  0  0  0  0
 31 32  1  0  0  0  0
 32  6  1  0  0  0  0
 33 31  1  0  0  0  0
 34 33  1  0  0  0  0
 36 34  1  0  0  0  0
 36 35  1  0  0  0  0
 37 18  1  0  0  0  0
 38 37  1  0  0  0  0
 38 39  1  0  0  0  0
 41 40  1  6  0  0  0
 41 39  1  0  0  0  0
 41 43  1  0  0  0  0
 43 42  2  0  0  0  0
 43 46  1  0  0  0  0
 46 45  1  0  0  0  0
 46 44  1  0  0  0  0
 47 46  2  0  0  0  0
M  END
>  <MODEL>
6

>  <REMARK>
 VINA RESULT:      -6.4      3.206      8.426
  Name = 
  14 active torsions:
  status: ('A' for Active; 'I' for Inactive)
    1  A    between atoms: N_9  and  C_14
    2  A    between atoms: C_10  and  C_14
    3  A    between atoms: C_10  and  C_47
    4  A    between atoms: C_13  and  C_39
    5  A    between atoms: C_16  and  C_26
    6  A    between atoms: C_22  and  C_34
    7  A    between atoms: C_22  and  C_36
    8  A    between atoms: C_23  and  C_24
    9  A    between atoms: C_24  and  O_30
   10  A    between atoms: C_27  and  C_34
   11  A    between atoms: C_27  and  P_40
   12  A    between atoms: O_30  and  C_32
   13  A    between atoms: C_36  and  C_37
   14  A    between atoms: C_37  and  N_46
                            x       y       z     vdW  Elec       q    Type
                         _______ _______ _______ _____ _____    ______ ____

>  <TORSDO>
F 14

$$$$
=
 OpenBabel10222420243D

 47 51  0  0  1  0  0  0  0  0999 V2000
  188.3860  178.7720  140.9660 C   0  0  0  0  0  2  0  0  0  0  0  0
  186.9040  179.0810  141.2190 C   0  0  2  0  0  3  0  0  0  0  0  0
  187.9650  176.7530  137.6580 C   0  0  2  0  0  3  0  0  0  0  0  0
  186.6070  178.6530  137.0580 C   0  0  0  0  0  3  0  0  0  0  0  0
  188.6640  177.3010  140.6700 C   0  0  0  0  0  2  0  0  0  0  0  0
  189.9800  175.8480  137.3250 C   0  0  0  0  0  0  0  0  0  0  0  0
  186.2830  178.2580  142.3350 C   0  0  0  0  0  2  0  0  0  0  0  0
  184.6290  178.7570  140.7320 C   0  0  2  0  0  3  0  0  0  0  0  0
  187.9220  177.5030  135.3210 C   0  0  0  0  0  3  0  0  0  0  0  0
  187.2010  178.5730  135.7000 C   0  0  0  0  0  3  0  0  0  0  0  0
  188.0780  176.3090  136.2340 C   0  0  1  0  0  3  0  0  0  0  0  0
  189.6410  177.2220  139.5120 C   0  0  0  0  0  2  0  0  0  0  0  0
  189.4240  175.7610  136.1620 N   0  0  0  0  0  0  0  0  0  0  0  0
  186.9690  177.7790  138.0070 C   0  0  0  0  0  0  0  0  0  0  0  0
  185.9690  178.9380  140.0290 C   0  0  2  0  0  3  0  0  0  0  0  0
  186.3120  177.7400  139.2720 N   0  0  0  0  0  2  0  0  0  0  0  0
  189.1070  176.4960  138.3030 C   0  0  1  0  0  3  0  0  0  0  0  0
  184.8710  178.0600  142.0000 N   0  0  0  0  0  0  0  0  0  0  0  0
  183.1210  178.7280  138.7380 C   0  0  0  0  0  3  0  0  0  0  0  0
  183.0570  176.8320  140.2400 C   0  0  0  0  0  3  0  0  0  0  0  0
  183.5690  178.0920  139.9000 C   0  0  0  0  0  0  0  0  0  0  0  0
  182.1600  178.1180  137.9280 C   0  0  0  0  0  3  0  0  0  0  0  0
  181.6410  176.8590  138.2690 C   0  0  0  0  0  0  0  0  0  0  0  0
  182.0960  176.2210  139.4290 C   0  0  0  0  0  3  0  0  0  0  0  0
  180.6810  176.2220  137.4790 O   0  0  0  0  0  0  0  0  0  0  0  0
  180.6330  174.8100  137.3180 C   0  0  0  0  0  2  0  0  0  0  0  0
  180.7730  174.0280  135.0740 O   0  0  0  0  0  0  0  0  0  0  0  0
  182.7770  174.4490  136.1060 O   0  0  0  0  0  1  0  0  0  0  0  0
  181.3890  174.4210  136.0990 C   0  0  0  0  0  0  0  0  0  0  0  0
  191.5570  174.1960  137.9670 O   0  0  0  0  0  0  0  0  0  0  0  0
  192.4540  176.2580  137.3540 N   0  0  0  0  0  2  0  0  0  0  0  0
  191.3520  175.3750  137.5730 C   0  0  0  0  0  0  0  0  0  0  0  0
  193.8320  175.8390  137.5590 C   0  0  0  0  0  2  0  0  0  0  0  0
  194.4030  175.2800  136.2690 C   0  0  0  0  0  2  0  0  0  0  0  0
  195.2080  177.4480  135.7170 O   0  0  0  0  0  1  0  0  0  0  0  0
  194.4840  176.3690  135.2140 C   0  0  0  0  0  2  0  0  0  0  0  0
  184.0250  178.6180  143.0620 C   0  0  0  0  0  2  0  0  0  0  0  0
  184.8090  179.3810  144.1340 C   0  0  0  0  0  2  0  0  0  0  0  0
  184.7530  178.6300  145.4530 C   0  0  0  0  0  2  0  0  0  0  0  0
  185.7550  178.9570  147.7180 C   0  0  0  0  0  1  0  0  0  0  0  0
  186.0470  178.8100  146.2350 C   0  0  1  0  0  3  0  0  0  0  0  0
  186.6790  176.7810  145.1970 O   0  0  0  0  0  0  0  0  0  0  0  0
  186.9710  177.6590  145.9940 C   0  0  0  0  0  0  0  0  0  0  0  0
  188.6880  178.9240  147.8850 O   0  0  0  0  0  1  0  0  0  0  0  0
  188.5570  176.3160  147.7190 O   0  0  0  0  0  1  0  0  0  0  0  0
  188.5250  177.5730  146.8800 P   0  0  0  0  0  0  0  0  0  0  0  0
  189.8020  177.5420  145.7710 O   0  0  0  0  0  0  0  0  0  0  0  0
  2  1  1  6  0  0  0
  2  7  1  0  0  0  0
  3 14  1  6  0  0  0
  3 17  1  0  0  0  0
  4 14  2  0  0  0  0
  5  1  1  0  0  0  0
  6 32  1  0  0  0  0
  6 17  1  0  0  0  0
  8 21  1  6  0  0  0
  8 18  1  0  0  0  0
  9 10  2  0  0  0  0
 10  4  1  0  0  0  0
 11  9  1  6  0  0  0
 11  3  1  0  0  0  0
 12  5  1  0  0  0  0
 13 11  1  0  0  0  0
 13  6  2  0  0  0  0
 14 16  1  0  0  0  0
 15 16  1  1  0  0  0
 15  8  1  0  0  0  0
 15  2  1  0  0  0  0
 17 12  1  6  0  0  0
 18  7  1  0  0  0  0
 18 37  1  0  0  0  0
 19 21  1  0  0  0  0
 21 20  2  0  0  0  0
 22 23  1  0  0  0  0
 22 19  2  0  0  0  0
 23 24  2  0  0  0  0
 24 20  1  0  0  0  0
 25 23  1  0  0  0  0
 26 25  1  0  0  0  0
 27 29  2  0  0  0  0
 29 28  1  0  0  0  0
 29 26  1  0  0  0  0
 31 33  1  0  0  0  0
 31 32  1  0  0  0  0
 32 30  2  0  0  0  0
 34 33  1  0  0  0  0
 36 35  1  0  0  0  0
 36 34  1  0  0  0  0
 37 38  1  0  0  0  0
 38 39  1  0  0  0  0
 39 41  1  0  0  0  0
 41 40  1  1  0  0  0
 42 43  2  0  0  0  0
 43 41  1  0  0  0  0
 43 46  1  0  0  0  0
 46 45  1  0  0  0  0
 46 44  1  0  0  0  0
 47 46  2  0  0  0  0
M  END
>  <MODEL>
7

>  <REMARK>
 VINA RESULT:      -6.3      2.022      2.708
  Name = 
  14 active torsions:
  status: ('A' for Active; 'I' for Inactive)
    1  A    between atoms: N_9  and  C_14
    2  A    between atoms: C_10  and  C_14
    3  A    between atoms: C_10  and  C_47
    4  A    between atoms: C_13  and  C_39
    5  A    between atoms: C_16  and  C_26
    6  A    between atoms: C_22  and  C_34
    7  A    between atoms: C_22  and  C_36
    8  A    between atoms: C_23  and  C_24
    9  A    between atoms: C_24  and  O_30
   10  A    between atoms: C_27  and  C_34
   11  A    between atoms: C_27  and  P_40
   12  A    between atoms: O_30  and  C_32
   13  A    between atoms: C_36  and  C_37
   14  A    between atoms: C_37  and  N_46
                            x       y       z     vdW  Elec       q    Type
                         _______ _______ _______ _____ _____    ______ ____

>  <TORSDO>
F 14

$$$$
=
 OpenBabel10222420243D

 47 51  0  0  1  0  0  0  0  0999 V2000
  191.0310  177.1700  139.7700 C   0  0  0  0  0  2  0  0  0  0  0  0
  190.1410  177.9240  140.7670 C   0  0  2  0  0  3  0  0  0  0  0  0
  188.3100  176.3930  137.0890 C   0  0  2  0  0  3  0  0  0  0  0  0
  187.8480  178.7440  137.3530 C   0  0  0  0  0  3  0  0  0  0  0  0
  190.4510  175.8340  139.3180 C   0  0  0  0  0  2  0  0  0  0  0  0
  189.3080  174.9330  135.7240 C   0  0  0  0  0  0  0  0  0  0  0  0
  189.7930  177.1250  142.0110 C   0  0  0  0  0  2  0  0  0  0  0  0
  188.0210  178.5980  141.5210 C   0  0  2  0  0  3  0  0  0  0  0  0
  187.5630  177.6910  135.1440 C   0  0  0  0  0  3  0  0  0  0  0  0
  187.6590  178.8110  135.8830 C   0  0  0  0  0  3  0  0  0  0  0  0
  187.5570  176.3280  135.7980 C   0  0  1  0  0  3  0  0  0  0  0  0
  190.6480  175.7090  137.8190 C   0  0  0  0  0  2  0  0  0  0  0  0
  188.3170  175.3650  135.0170 N   0  0  0  0  0  0  0  0  0  0  0  0
  188.1600  177.5820  137.9420 C   0  0  0  0  0  0  0  0  0  0  0  0
  188.8190  178.4520  140.2320 C   0  0  2  0  0  3  0  0  0  0  0  0
  188.2050  177.4560  139.3620 N   0  0  0  0  0  2  0  0  0  0  0  0
  189.3660  175.5750  137.0370 C   0  0  1  0  0  3  0  0  0  0  0  0
  188.4640  177.5540  142.4520 N   0  0  0  0  0  0  0  0  0  0  0  0
  185.7070  178.3360  142.4340 C   0  0  0  0  0  3  0  0  0  0  0  0
  185.9480  178.9440  140.1040 C   0  0  0  0  0  3  0  0  0  0  0  0
  186.5290  178.6130  141.3370 C   0  0  0  0  0  0  0  0  0  0  0  0
  184.3170  178.3750  142.2990 C   0  0  0  0  0  3  0  0  0  0  0  0
  183.7340  178.7010  141.0640 C   0  0  0  0  0  0  0  0  0  0  0  0
  184.5570  178.9850  139.9700 C   0  0  0  0  0  3  0  0  0  0  0  0
  182.3470  178.7500  140.8990 O   0  0  0  0  0  0  0  0  0  0  0  0
  181.4560  179.0390  141.9680 C   0  0  0  0  0  2  0  0  0  0  0  0
  179.8570  177.9570  140.5760 O   0  0  0  0  0  0  0  0  0  0  0  0
  179.2500  178.2120  142.7720 O   0  0  0  0  0  1  0  0  0  0  0  0
  180.1550  178.3610  141.7300 C   0  0  0  0  0  0  0  0  0  0  0  0
  189.8660  172.8080  134.8270 O   0  0  0  0  0  0  0  0  0  0  0  0
  191.6530  174.2750  135.1240 N   0  0  0  0  0  2  0  0  0  0  0  0
  190.2660  173.9420  135.2060 C   0  0  0  0  0  0  0  0  0  0  0  0
  192.6410  173.3460  134.5980 C   0  0  0  0  0  2  0  0  0  0  0  0
  193.2890  172.5780  135.7350 C   0  0  0  0  0  2  0  0  0  0  0  0
  193.6290  170.4030  136.6320 O   0  0  0  0  0  1  0  0  0  0  0  0
  193.0990  171.0860  135.5380 C   0  0  0  0  0  2  0  0  0  0  0  0
  188.5390  178.0840  143.8190 C   0  0  0  0  0  2  0  0  0  0  0  0
  188.1810  177.0550  144.8960 C   0  0  0  0  0  2  0  0  0  0  0  0
  187.6440  177.7590  146.1300 C   0  0  0  0  0  2  0  0  0  0  0  0
  188.1810  178.5270  148.4460 C   0  0  0  0  0  1  0  0  0  0  0  0
  188.7560  178.0060  147.1400 C   0  0  1  0  0  3  0  0  0  0  0  0
  188.9820  175.7240  147.7240 O   0  0  0  0  0  0  0  0  0  0  0  0
  189.5400  176.7540  147.3760 C   0  0  0  0  0  0  0  0  0  0  0  0
  191.8760  175.1790  146.9470 O   0  0  0  0  0  1  0  0  0  0  0  0
  191.6520  177.5670  145.9020 O   0  0  0  0  0  0  0  0  0  0  0  0
  191.3140  176.7640  147.1370 P   0  0  0  0  0  0  0  0  0  0  0  0
  192.0590  177.4640  148.4840 O   0  0  0  0  0  1  0  0  0  0  0  0
  2  1  1  6  0  0  0
  2  7  1  0  0  0  0
  3 14  1  6  0  0  0
  4 14  2  0  0  0  0
  5  1  1  0  0  0  0
  6 17  1  0  0  0  0
  7 18  1  0  0  0  0
  8 21  1  6  0  0  0
  8 18  1  0  0  0  0
  9 10  2  0  0  0  0
 10  4  1  0  0  0  0
 11  9  1  6  0  0  0
 11  3  1  0  0  0  0
 12  5  1  0  0  0  0
 13  6  2  0  0  0  0
 13 11  1  0  0  0  0
 14 16  1  0  0  0  0
 15 16  1  6  0  0  0
 15  2  1  0  0  0  0
 15  8  1  0  0  0  0
 17  3  1  0  0  0  0
 17 12  1  6  0  0  0
 18 37  1  0  0  0  0
 20 21  1  0  0  0  0
 21 19  2  0  0  0  0
 22 19  1  0  0  0  0
 23 22  2  0  0  0  0
 24 20  2  0  0  0  0
 24 23  1  0  0  0  0
 25 23  1  0  0  0  0
 25 26  1  0  0  0  0
 27 29  2  0  0  0  0
 29 26  1  0  0  0  0
 29 28  1  0  0  0  0
 30 32  2  0  0  0  0
 31 32  1  0  0  0  0
 32  6  1  0  0  0  0
 33 31  1  0  0  0  0
 33 34  1  0  0  0  0
 36 34  1  0  0  0  0
 36 35  1  0  0  0  0
 37 38  1  0  0  0  0
 38 39  1  0  0  0  0
 39 41  1  0  0  0  0
 41 43  1  0  0  0  0
 41 40  1  1  0  0  0
 43 42  2  0  0  0  0
 44 46  1  0  0  0  0
 45 46  2  0  0  0  0
 46 43  1  0  0  0  0
 46 47  1  0  0  0  0
M  END
>  <MODEL>
8

>  <REMARK>
 VINA RESULT:      -6.2      1.644      2.052
  Name = 
  14 active torsions:
  status: ('A' for Active; 'I' for Inactive)
    1  A    between atoms: N_9  and  C_14
    2  A    between atoms: C_10  and  C_14
    3  A    between atoms: C_10  and  C_47
    4  A    between atoms: C_13  and  C_39
    5  A    between atoms: C_16  and  C_26
    6  A    between atoms: C_22  and  C_34
    7  A    between atoms: C_22  and  C_36
    8  A    between atoms: C_23  and  C_24
    9  A    between atoms: C_24  and  O_30
   10  A    between atoms: C_27  and  C_34
   11  A    between atoms: C_27  and  P_40
   12  A    between atoms: O_30  and  C_32
   13  A    between atoms: C_36  and  C_37
   14  A    between atoms: C_37  and  N_46
                            x       y       z     vdW  Elec       q    Type
                         _______ _______ _______ _____ _____    ______ ____

>  <TORSDO>
F 14

$$$$
=
 OpenBabel10222420243D

 47 51  0  0  1  0  0  0  0  0999 V2000
  181.4740  178.8350  141.7460 C   0  0  0  0  0  2  0  0  0  0  0  0
  182.7680  178.5360  142.5160 C   0  0  2  0  0  3  0  0  0  0  0  0
  182.8740  178.3980  138.1340 C   0  0  2  0  0  3  0  0  0  0  0  0
  183.7360  176.3500  139.0700 C   0  0  0  0  0  3  0  0  0  0  0  0
  181.6470  179.8590  140.6290 C   0  0  0  0  0  2  0  0  0  0  0  0
  181.2440  179.1950  136.8310 C   0  0  0  0  0  0  0  0  0  0  0  0
  183.4300  179.7650  143.1140 C   0  0  0  0  0  2  0  0  0  0  0  0
  185.0900  178.1860  142.5660 C   0  0  2  0  0  3  0  0  0  0  0  0
  183.0320  176.4060  136.7100 C   0  0  0  0  0  3  0  0  0  0  0  0
  183.3780  175.6860  137.7920 C   0  0  0  0  0  3  0  0  0  0  0  0
  183.0810  177.9160  136.7340 C   0  0  1  0  0  3  0  0  0  0  0  0
  180.8970  179.3660  139.4070 C   0  0  0  0  0  2  0  0  0  0  0  0
  181.9570  178.4930  136.0130 N   0  0  0  0  0  0  0  0  0  0  0  0
  183.4980  177.6580  139.2420 C   0  0  0  0  0  0  0  0  0  0  0  0
  183.8610  177.8090  141.7480 C   0  0  2  0  0  3  0  0  0  0  0  0
  183.9610  178.3520  140.3990 N   0  0  0  0  0  2  0  0  0  0  0  0
  181.7670  179.1450  138.1960 C   0  0  1  0  0  3  0  0  0  0  0  0
  184.8740  179.5260  143.1200 N   0  0  0  0  0  0  0  0  0  0  0  0
  186.4840  178.5660  140.5250 C   0  0  0  0  0  3  0  0  0  0  0  0
  187.5300  177.5130  142.4360 C   0  0  0  0  0  3  0  0  0  0  0  0
  186.3950  178.0680  141.8290 C   0  0  0  0  0  0  0  0  0  0  0  0
  187.6930  178.5000  139.8280 C   0  0  0  0  0  3  0  0  0  0  0  0
  188.8300  177.9390  140.4330 C   0  0  0  0  0  0  0  0  0  0  0  0
  188.7400  177.4480  141.7400 C   0  0  0  0  0  3  0  0  0  0  0  0
  190.0530  177.8600  139.7620 O   0  0  0  0  0  0  0  0  0  0  0  0
  190.1750  177.3380  138.4460 C   0  0  0  0  0  2  0  0  0  0  0  0
  191.2500  175.3380  137.7320 O   0  0  0  0  0  0  0  0  0  0  0  0
  192.5000  176.7110  139.0770 O   0  0  0  0  0  1  0  0  0  0  0  0
  191.3360  176.4120  138.3820 C   0  0  0  0  0  0  0  0  0  0  0  0
  178.9310  179.2980  136.3160 O   0  0  0  0  0  0  0  0  0  0  0  0
  180.1030  181.2980  136.0800 N   0  0  0  0  0  2  0  0  0  0  0  0
  180.0310  179.9070  136.3980 C   0  0  0  0  0  0  0  0  0  0  0  0
  178.9330  182.0590  135.6700 C   0  0  0  0  0  2  0  0  0  0  0  0
  179.3050  183.5170  135.4710 C   0  0  0  0  0  2  0  0  0  0  0  0
  181.2300  184.3090  136.6200 O   0  0  0  0  0  1  0  0  0  0  0  0
  180.8130  183.6770  135.4490 C   0  0  0  0  0  2  0  0  0  0  0  0
  185.3850  179.6020  144.4950 C   0  0  0  0  0  2  0  0  0  0  0  0
  185.1640  178.3190  145.3020 C   0  0  0  0  0  2  0  0  0  0  0  0
  186.4680  177.5500  145.4250 C   0  0  0  0  0  2  0  0  0  0  0  0
  186.6410  178.5060  147.7270 C   0  0  0  0  0  1  0  0  0  0  0  0
  187.3920  178.2080  146.4410 C   0  0  1  0  0  3  0  0  0  0  0  0
  188.6020  176.6100  147.6990 O   0  0  0  0  0  0  0  0  0  0  0  0
  188.5760  177.3360  146.7160 C   0  0  0  0  0  0  0  0  0  0  0  0
  189.8370  176.0650  144.4980 O   0  0  0  0  0  0  0  0  0  0  0  0
  189.9810  178.6570  144.8260 O   0  0  0  0  0  1  0  0  0  0  0  0
  189.9670  177.3530  145.5890 P   0  0  0  0  0  0  0  0  0  0  0  0
  191.4040  177.2000  146.4670 O   0  0  0  0  0  1  0  0  0  0  0  0
  2  1  1  6  0  0  0
  2  7  1  0  0  0  0
  3 17  1  0  0  0  0
  3 14  1  1  0  0  0
  4 14  2  0  0  0  0
  5  1  1  0  0  0  0
  6 17  1  0  0  0  0
  7 18  1  0  0  0  0
  8 21  1  6  0  0  0
  8 18  1  0  0  0  0
  9 10  2  0  0  0  0
 10  4  1  0  0  0  0
 11  9  1  1  0  0  0
 11  3  1  0  0  0  0
 12  5  1  0  0  0  0
 13 11  1  0  0  0  0
 13  6  2  0  0  0  0
 14 16  1  0  0  0  0
 15 16  1  6  0  0  0
 15  2  1  0  0  0  0
 15  8  1  0  0  0  0
 17 12  1  1  0  0  0
 18 37  1  0  0  0  0
 19 21  1  0  0  0  0
 21 20  2  0  0  0  0
 22 23  1  0  0  0  0
 22 19  2  0  0  0  0
 23 24  2  0  0  0  0
 24 20  1  0  0  0  0
 25 23  1  0  0  0  0
 26 25  1  0  0  0  0
 27 29  2  0  0  0  0
 29 26  1  0  0  0  0
 29 28  1  0  0  0  0
 30 32  2  0  0  0  0
 31 32  1  0  0  0  0
 32  6  1  0  0  0  0
 33 31  1  0  0  0  0
 34 33  1  0  0  0  0
 36 34  1  0  0  0  0
 36 35  1  0  0  0  0
 37 38  1  0  0  0  0
 38 39  1  0  0  0  0
 39 41  1  0  0  0  0
 41 43  1  0  0  0  0
 41 40  1  1  0  0  0
 43 42  2  0  0  0  0
 44 46  2  0  0  0  0
 45 46  1  0  0  0  0
 46 47  1  0  0  0  0
 46 43  1  0  0  0  0
M  END
>  <MODEL>
9

>  <REMARK>
 VINA RESULT:      -5.5      3.149      8.150
  Name = 
  14 active torsions:
  status: ('A' for Active; 'I' for Inactive)
    1  A    between atoms: N_9  and  C_14
    2  A    between atoms: C_10  and  C_14
    3  A    between atoms: C_10  and  C_47
    4  A    between atoms: C_13  and  C_39
    5  A    between atoms: C_16  and  C_26
    6  A    between atoms: C_22  and  C_34
    7  A    between atoms: C_22  and  C_36
    8  A    between atoms: C_23  and  C_24
    9  A    between atoms: C_24  and  O_30
   10  A    between atoms: C_27  and  C_34
   11  A    between atoms: C_27  and  P_40
   12  A    between atoms: O_30  and  C_32
   13  A    between atoms: C_36  and  C_37
   14  A    between atoms: C_37  and  N_46
                            x       y       z     vdW  Elec       q    Type
                         _______ _______ _______ _____ _____    ______ ____

>  <TORSDO>
F 14

$$$$
