=
 OpenBabel10222419333D

 26 29  0  0  1  0  0  0  0  0999 V2000
  189.3050  177.1390  145.2310 C   0  0  0  0  0  0  0  0  0  0  0  0
  190.6180  177.4320  144.7970 C   0  0  0  0  0  0  0  0  0  0  0  0
  191.3910  176.9180  147.0040 N   0  0  0  0  0  0  0  0  0  0  0  0
  189.0960  176.7550  146.5200 N   0  0  0  0  0  0  0  0  0  0  0  0
  191.6530  177.3110  145.7320 C   0  0  0  0  0  3  0  0  0  0  0  0
  190.1230  176.6410  147.3990 C   0  0  0  0  0  3  0  0  0  0  0  0
  190.9260  176.9050  142.3540 N   0  0  0  0  0  2  0  0  0  0  0  0
  190.9490  177.8650  143.4210 C   0  0  0  0  0  0  0  0  0  0  0  0
  191.2700  179.0620  143.1890 O   0  0  0  0  0  0  0  0  0  0  0  0
  190.6640  176.7500  137.9140 C   0  0  0  0  0  3  0  0  0  0  0  0
  189.9280  177.3250  140.2070 C   0  0  0  0  0  3  0  0  0  0  0  0
  192.8040  177.0120  139.1610 C   0  0  0  0  0  3  0  0  0  0  0  0
  191.0340  177.1870  140.9520 C   0  0  0  0  0  0  0  0  0  0  0  0
  189.9260  177.7250  138.7690 C   0  0  0  0  0  2  0  0  0  0  0  0
  191.9580  176.4800  138.0750 C   0  0  0  0  0  3  0  0  0  0  0  0
  192.3990  177.3170  140.4010 C   0  0  0  0  0  3  0  0  0  0  0  0
  188.1170  177.3040  144.3360 C   0  0  0  0  0  2  0  0  0  0  0  0
  185.0950  178.3060  143.4370 C   0  0  0  0  0  3  0  0  0  0  0  0
  186.9730  177.9220  145.0690 C   0  0  0  0  0  0  0  0  0  0  0  0
  185.5340  177.7230  144.7550 C   0  0  1  0  0  3  0  0  0  0  0  0
  185.8160  178.9940  146.6850 N   0  0  0  0  0  0  0  0  0  0  0  0
  183.6260  179.0620  145.7510 N   0  0  0  0  0  0  0  0  0  0  0  0
  183.1340  179.2680  144.5630 C   0  0  0  0  0  3  0  0  0  0  0  0
  184.9390  178.5120  145.8680 C   0  0  0  0  0  0  0  0  0  0  0  0
  187.0950  178.5830  146.2130 C   0  0  0  0  0  3  0  0  0  0  0  0
  183.9380  178.9780  143.3450 C   0  0  0  0  0  3  0  0  0  0  0  0
  1  4  1  0  0  0  0
  2  1  2  0  0  0  0
  2  5  1  0  0  0  0
  3  6  1  0  0  0  0
  4  6  2  0  0  0  0
  5  3  2  0  0  0  0
  7  8  1  0  0  0  0
  8  2  1  0  0  0  0
  9  8  2  0  0  0  0
 10 15  2  0  0  0  0
 10 14  1  0  0  0  0
 11 13  2  0  0  0  0
 12 16  2  0  0  0  0
 13  7  1  0  0  0  0
 14 11  1  0  0  0  0
 15 12  1  0  0  0  0
 16 13  1  0  0  0  0
 17 19  1  0  0  0  0
 17  1  1  0  0  0  0
 19 25  2  0  0  0  0
 20 18  1  6  0  0  0
 20 19  1  0  0  0  0
 20 24  1  0  0  0  0
 22 24  1  0  0  0  0
 23 22  2  0  0  0  0
 24 21  2  0  0  0  0
 25 21  1  0  0  0  0
 26 18  2  0  0  0  0
 26 23  1  0  0  0  0
M  END
>  <MODEL>
1

>  <REMARK>
 VINA RESULT:      -8.7      0.000      0.000
  Name = 
  4 active torsions:
  status: ('A' for Active; 'I' for Inactive)
    1  A    between atoms: C_2  and  C_18
    2  A    between atoms: C_4  and  C_13
    3  A    between atoms: N_5  and  C_20
    4  A    between atoms: C_7  and  C_18
                            x       y       z     vdW  Elec       q    Type
                         _______ _______ _______ _____ _____    ______ ____

>  <TORSDO>
F 4

$$$$
=
 OpenBabel10222419333D

 26 29  0  0  1  0  0  0  0  0999 V2000
  188.2730  178.5080  141.0360 C   0  0  0  0  0  0  0  0  0  0  0  0
  188.8240  177.3140  141.5540 C   0  0  0  0  0  0  0  0  0  0  0  0
  189.7450  176.8790  139.3870 N   0  0  0  0  0  0  0  0  0  0  0  0
  188.4790  178.8300  139.7300 N   0  0  0  0  0  0  0  0  0  0  0  0
  189.5650  176.5090  140.6810 C   0  0  0  0  0  3  0  0  0  0  0  0
  189.2080  178.0310  138.9120 C   0  0  0  0  0  3  0  0  0  0  0  0
  189.0300  177.7500  144.0250 N   0  0  0  0  0  2  0  0  0  0  0  0
  188.6510  176.8710  142.9560 C   0  0  0  0  0  0  0  0  0  0  0  0
  188.1960  175.7230  143.2110 O   0  0  0  0  0  0  0  0  0  0  0  0
  188.0120  178.3380  148.3180 C   0  0  0  0  0  3  0  0  0  0  0  0
  187.5620  177.8890  145.9250 C   0  0  0  0  0  3  0  0  0  0  0  0
  190.0960  177.2220  147.5350 C   0  0  0  0  0  3  0  0  0  0  0  0
  188.7590  177.5590  145.4210 C   0  0  0  0  0  0  0  0  0  0  0  0
  187.1410  177.6320  147.3330 C   0  0  0  0  0  2  0  0  0  0  0  0
  189.3190  178.1080  148.4240 C   0  0  0  0  0  3  0  0  0  0  0  0
  189.8490  176.9880  146.2400 C   0  0  0  0  0  3  0  0  0  0  0  0
  187.4040  179.4050  141.8630 C   0  0  0  0  0  2  0  0  0  0  0  0
  184.8840  179.1870  143.9940 C   0  0  0  0  0  3  0  0  0  0  0  0
  185.9650  179.0360  141.7260 C   0  0  0  0  0  0  0  0  0  0  0  0
  184.8490  179.5820  142.5410 C   0  0  1  0  0  3  0  0  0  0  0  0
  184.0650  178.1830  140.8540 N   0  0  0  0  0  0  0  0  0  0  0  0
  182.4810  178.6780  142.5630 N   0  0  0  0  0  0  0  0  0  0  0  0
  182.4890  178.6540  143.8650 C   0  0  0  0  0  3  0  0  0  0  0  0
  183.7100  178.8980  141.8690 C   0  0  0  0  0  0  0  0  0  0  0  0
  185.4780  178.3070  140.7300 C   0  0  0  0  0  3  0  0  0  0  0  0
  183.7600  178.8100  144.6220 C   0  0  0  0  0  3  0  0  0  0  0  0
  1  2  1  0  0  0  0
  1 17  1  0  0  0  0
  2  8  1  0  0  0  0
  3  5  1  0  0  0  0
  4  1  2  0  0  0  0
  5  2  2  0  0  0  0
  6  3  2  0  0  0  0
  6  4  1  0  0  0  0
  7 13  1  0  0  0  0
  8  9  2  0  0  0  0
  8  7  1  0  0  0  0
 10 15  2  0  0  0  0
 11 14  1  0  0  0  0
 12 15  1  0  0  0  0
 13 11  2  0  0  0  0
 13 16  1  0  0  0  0
 14 10  1  0  0  0  0
 16 12  2  0  0  0  0
 18 26  2  0  0  0  0
 19 17  1  0  0  0  0
 19 20  1  0  0  0  0
 20 18  1  1  0  0  0
 21 24  2  0  0  0  0
 22 23  2  0  0  0  0
 23 26  1  0  0  0  0
 24 20  1  0  0  0  0
 24 22  1  0  0  0  0
 25 21  1  0  0  0  0
 25 19  2  0  0  0  0
M  END
>  <MODEL>
2

>  <REMARK>
 VINA RESULT:      -8.7      2.393      5.949
  Name = 
  4 active torsions:
  status: ('A' for Active; 'I' for Inactive)
    1  A    between atoms: C_2  and  C_18
    2  A    between atoms: C_4  and  C_13
    3  A    between atoms: N_5  and  C_20
    4  A    between atoms: C_7  and  C_18
                            x       y       z     vdW  Elec       q    Type
                         _______ _______ _______ _____ _____    ______ ____

>  <TORSDO>
F 4

$$$$
=
 OpenBabel10222419333D

 26 29  0  0  1  0  0  0  0  0999 V2000
  189.5460  176.9260  143.7690 C   0  0  0  0  0  0  0  0  0  0  0  0
  190.2310  177.3410  142.6040 C   0  0  0  0  0  0  0  0  0  0  0  0
  192.0590  178.0090  143.9980 N   0  0  0  0  0  0  0  0  0  0  0  0
  190.1420  177.0710  144.9840 N   0  0  0  0  0  0  0  0  0  0  0  0
  191.5080  177.8910  142.7630 C   0  0  0  0  0  3  0  0  0  0  0  0
  191.3840  177.6020  145.1030 C   0  0  0  0  0  3  0  0  0  0  0  0
  188.6870  178.1880  140.8040 N   0  0  0  0  0  2  0  0  0  0  0  0
  189.6670  177.2340  141.2400 C   0  0  0  0  0  0  0  0  0  0  0  0
  190.0250  176.3000  140.4730 O   0  0  0  0  0  0  0  0  0  0  0  0
  186.9120  177.4980  136.7820 C   0  0  0  0  0  3  0  0  0  0  0  0
  186.9050  178.0480  139.1960 C   0  0  0  0  0  3  0  0  0  0  0  0
  189.1400  178.5480  137.1440 C   0  0  0  0  0  3  0  0  0  0  0  0
  188.1830  178.3430  139.4700 C   0  0  0  0  0  0  0  0  0  0  0  0
  186.2540  178.2750  137.8730 C   0  0  0  0  0  2  0  0  0  0  0  0
  188.1880  177.6670  136.4410 C   0  0  0  0  0  3  0  0  0  0  0  0
  189.1330  178.8380  138.4510 C   0  0  0  0  0  3  0  0  0  0  0  0
  188.1480  176.3910  143.7210 C   0  0  0  0  0  2  0  0  0  0  0  0
  185.5950  178.3350  142.9190 C   0  0  0  0  0  3  0  0  0  0  0  0
  187.2170  177.2490  144.5100 C   0  0  0  0  0  0  0  0  0  0  0  0
  185.7950  177.5220  144.1720 C   0  0  1  0  0  3  0  0  0  0  0  0
  186.3780  178.4570  146.2230 N   0  0  0  0  0  0  0  0  0  0  0  0
  184.3400  179.2690  145.2940 N   0  0  0  0  0  0  0  0  0  0  0  0
  183.9730  179.7280  144.1320 C   0  0  0  0  0  3  0  0  0  0  0  0
  185.4260  178.3420  145.3590 C   0  0  0  0  0  0  0  0  0  0  0  0
  187.4910  177.7290  145.7160 C   0  0  0  0  0  3  0  0  0  0  0  0
  184.6950  179.3290  142.8930 C   0  0  0  0  0  3  0  0  0  0  0  0
  1  4  1  0  0  0  0
  2  5  1  0  0  0  0
  2  1  2  0  0  0  0
  3  6  1  0  0  0  0
  4  6  2  0  0  0  0
  5  3  2  0  0  0  0
  7  8  1  0  0  0  0
  8  2  1  0  0  0  0
  9  8  2  0  0  0  0
 10 14  1  0  0  0  0
 11 13  2  0  0  0  0
 12 16  2  0  0  0  0
 13  7  1  0  0  0  0
 14 11  1  0  0  0  0
 15 10  2  0  0  0  0
 15 12  1  0  0  0  0
 16 13  1  0  0  0  0
 17  1  1  0  0  0  0
 17 19  1  0  0  0  0
 19 25  2  0  0  0  0
 20 18  1  6  0  0  0
 20 19  1  0  0  0  0
 20 24  1  0  0  0  0
 22 24  1  0  0  0  0
 23 22  2  0  0  0  0
 24 21  2  0  0  0  0
 25 21  1  0  0  0  0
 26 18  2  0  0  0  0
 26 23  1  0  0  0  0
M  END
>  <MODEL>
3

>  <REMARK>
 VINA RESULT:      -8.6      1.997      2.681
  Name = 
  4 active torsions:
  status: ('A' for Active; 'I' for Inactive)
    1  A    between atoms: C_2  and  C_18
    2  A    between atoms: C_4  and  C_13
    3  A    between atoms: N_5  and  C_20
    4  A    between atoms: C_7  and  C_18
                            x       y       z     vdW  Elec       q    Type
                         _______ _______ _______ _____ _____    ______ ____

>  <TORSDO>
F 4

$$$$
=
 OpenBabel10222419333D

 26 29  0  0  1  0  0  0  0  0999 V2000
  189.9240  177.9660  141.7710 C   0  0  0  0  0  0  0  0  0  0  0  0
  188.8210  177.7190  140.9230 C   0  0  0  0  0  0  0  0  0  0  0  0
  190.2580  176.3850  139.5510 N   0  0  0  0  0  0  0  0  0  0  0  0
  191.1340  177.4180  141.4720 N   0  0  0  0  0  0  0  0  0  0  0  0
  189.0330  176.9120  139.8000 C   0  0  0  0  0  3  0  0  0  0  0  0
  191.3040  176.6340  140.3780 C   0  0  0  0  0  3  0  0  0  0  0  0
  186.7610  177.9320  142.3560 N   0  0  0  0  0  2  0  0  0  0  0  0
  187.4680  178.2750  141.1550 C   0  0  0  0  0  0  0  0  0  0  0  0
  186.9300  179.0250  140.2960 O   0  0  0  0  0  0  0  0  0  0  0  0
  182.9590  178.7910  144.5040 C   0  0  0  0  0  3  0  0  0  0  0  0
  185.4040  178.8530  144.1140 C   0  0  0  0  0  3  0  0  0  0  0  0
  183.1530  178.7060  142.0230 C   0  0  0  0  0  3  0  0  0  0  0  0
  185.5390  178.5210  142.8230 C   0  0  0  0  0  0  0  0  0  0  0  0
  184.2220  179.5670  144.6790 C   0  0  0  0  0  2  0  0  0  0  0  0
  182.4750  178.4570  143.3100 C   0  0  0  0  0  3  0  0  0  0  0  0
  184.4760  178.7350  141.8190 C   0  0  0  0  0  3  0  0  0  0  0  0
  189.8270  178.8730  142.9580 C   0  0  0  0  0  2  0  0  0  0  0  0
  188.3020  177.9330  145.7390 C   0  0  0  0  0  3  0  0  0  0  0  0
  190.2800  178.1820  144.2010 C   0  0  0  0  0  0  0  0  0  0  0  0
  189.4550  177.2680  145.0330 C   0  0  1  0  0  3  0  0  0  0  0  0
  191.6520  177.3640  145.7970 N   0  0  0  0  0  0  0  0  0  0  0  0
  190.0990  176.4050  147.3280 N   0  0  0  0  0  0  0  0  0  0  0  0
  188.9330  176.7470  147.7970 C   0  0  0  0  0  3  0  0  0  0  0  0
  190.4830  176.8660  146.0320 C   0  0  0  0  0  0  0  0  0  0  0  0
  191.5390  178.1530  144.6180 C   0  0  0  0  0  3  0  0  0  0  0  0
  188.0300  177.6370  147.0190 C   0  0  0  0  0  3  0  0  0  0  0  0
  1 17  1  0  0  0  0
  2  8  1  0  0  0  0
  2  1  2  0  0  0  0
  3  5  2  0  0  0  0
  3  6  1  0  0  0  0
  4  1  1  0  0  0  0
  5  2  1  0  0  0  0
  6  4  2  0  0  0  0
  7 13  1  0  0  0  0
  8  7  1  0  0  0  0
  9  8  2  0  0  0  0
 10 14  1  0  0  0  0
 11 14  1  0  0  0  0
 12 15  1  0  0  0  0
 13 11  2  0  0  0  0
 15 10  2  0  0  0  0
 16 12  2  0  0  0  0
 16 13  1  0  0  0  0
 17 19  1  0  0  0  0
 18 26  2  0  0  0  0
 19 25  2  0  0  0  0
 19 20  1  0  0  0  0
 20 18  1  1  0  0  0
 20 24  1  0  0  0  0
 21 24  2  0  0  0  0
 22 23  2  0  0  0  0
 24 22  1  0  0  0  0
 25 21  1  0  0  0  0
 26 23  1  0  0  0  0
M  END
>  <MODEL>
4

>  <REMARK>
 VINA RESULT:      -8.5      2.122      6.492
  Name = 
  4 active torsions:
  status: ('A' for Active; 'I' for Inactive)
    1  A    between atoms: C_2  and  C_18
    2  A    between atoms: C_4  and  C_13
    3  A    between atoms: N_5  and  C_20
    4  A    between atoms: C_7  and  C_18
                            x       y       z     vdW  Elec       q    Type
                         _______ _______ _______ _____ _____    ______ ____

>  <TORSDO>
F 4

$$$$
=
 OpenBabel10222419333D

 26 29  0  0  1  0  0  0  0  0999 V2000
  187.4180  178.6700  140.0980 C   0  0  0  0  0  0  0  0  0  0  0  0
  186.1140  178.5480  140.6290 C   0  0  0  0  0  0  0  0  0  0  0  0
  185.3390  178.0200  138.4260 N   0  0  0  0  0  0  0  0  0  0  0  0
  187.6220  178.4670  138.7680 N   0  0  0  0  0  0  0  0  0  0  0  0
  185.0810  178.2180  139.7430 C   0  0  0  0  0  3  0  0  0  0  0  0
  186.5990  178.1420  137.9380 C   0  0  0  0  0  3  0  0  0  0  0  0
  186.0290  177.7020  142.9990 N   0  0  0  0  0  2  0  0  0  0  0  0
  185.7870  178.7580  142.0570 C   0  0  0  0  0  0  0  0  0  0  0  0
  185.2790  179.8450  142.4420 O   0  0  0  0  0  0  0  0  0  0  0  0
  185.8180  179.1770  147.1930 C   0  0  0  0  0  3  0  0  0  0  0  0
  184.9260  178.4520  145.0000 C   0  0  0  0  0  3  0  0  0  0  0  0
  187.5120  177.5380  146.3910 C   0  0  0  0  0  3  0  0  0  0  0  0
  185.9480  177.8000  144.4280 C   0  0  0  0  0  0  0  0  0  0  0  0
  184.6900  178.5200  146.4710 C   0  0  0  0  0  2  0  0  0  0  0  0
  187.0610  178.6990  147.1820 C   0  0  0  0  0  3  0  0  0  0  0  0
  187.0280  177.1540  145.2040 C   0  0  0  0  0  3  0  0  0  0  0  0
  188.5830  179.0890  140.9410 C   0  0  0  0  0  2  0  0  0  0  0  0
  190.2400  178.3690  143.7120 C   0  0  0  0  0  3  0  0  0  0  0  0
  189.3700  177.9050  141.3950 C   0  0  0  0  0  0  0  0  0  0  0  0
  189.4910  177.4330  142.7990 C   0  0  1  0  0  3  0  0  0  0  0  0
  190.5440  175.9770  141.3170 N   0  0  0  0  0  0  0  0  0  0  0  0
  191.1220  175.6670  143.6070 N   0  0  0  0  0  0  0  0  0  0  0  0
  191.5050  176.4480  144.5770 C   0  0  0  0  0  3  0  0  0  0  0  0
  190.3080  176.2100  142.5650 C   0  0  0  0  0  0  0  0  0  0  0  0
  189.9130  177.0150  140.5740 C   0  0  0  0  0  3  0  0  0  0  0  0
  191.1400  177.8900  144.5840 C   0  0  0  0  0  3  0  0  0  0  0  0
  1  2  1  0  0  0  0
  1 17  1  0  0  0  0
  2  8  1  0  0  0  0
  3  5  1  0  0  0  0
  4  1  2  0  0  0  0
  5  2  2  0  0  0  0
  6  3  2  0  0  0  0
  6  4  1  0  0  0  0
  7 13  1  0  0  0  0
  8  9  2  0  0  0  0
  8  7  1  0  0  0  0
 11 14  1  0  0  0  0
 12 15  1  0  0  0  0
 13 11  2  0  0  0  0
 13 16  1  0  0  0  0
 14 10  1  0  0  0  0
 15 10  2  0  0  0  0
 16 12  2  0  0  0  0
 17 19  1  0  0  0  0
 18 26  2  0  0  0  0
 19 20  1  0  0  0  0
 20 18  1  1  0  0  0
 21 24  2  0  0  0  0
 22 23  2  0  0  0  0
 23 26  1  0  0  0  0
 24 20  1  0  0  0  0
 24 22  1  0  0  0  0
 25 21  1  0  0  0  0
 25 19  2  0  0  0  0
M  END
>  <MODEL>
5

>  <REMARK>
 VINA RESULT:      -8.4      2.785      7.572
  Name = 
  4 active torsions:
  status: ('A' for Active; 'I' for Inactive)
    1  A    between atoms: C_2  and  C_18
    2  A    between atoms: C_4  and  C_13
    3  A    between atoms: N_5  and  C_20
    4  A    between atoms: C_7  and  C_18
                            x       y       z     vdW  Elec       q    Type
                         _______ _______ _______ _____ _____    ______ ____

>  <TORSDO>
F 4

$$$$
=
 OpenBabel10222419333D

 26 29  0  0  1  0  0  0  0  0999 V2000
  186.7020  177.5540  145.2900 C   0  0  0  0  0  0  0  0  0  0  0  0
  185.8110  178.6270  145.5150 C   0  0  0  0  0  0  0  0  0  0  0  0
  186.7500  178.8590  147.7050 N   0  0  0  0  0  0  0  0  0  0  0  0
  187.5670  177.1830  146.2730 N   0  0  0  0  0  0  0  0  0  0  0  0
  185.8640  179.2640  146.7600 C   0  0  0  0  0  3  0  0  0  0  0  0
  187.5970  177.8270  147.4670 C   0  0  0  0  0  3  0  0  0  0  0  0
  183.7240  178.2560  144.1570 N   0  0  0  0  0  2  0  0  0  0  0  0
  184.8280  179.1010  144.5150 C   0  0  0  0  0  0  0  0  0  0  0  0
  184.9690  180.2260  143.9640 O   0  0  0  0  0  0  0  0  0  0  0  0
  179.7190  178.4700  142.2280 C   0  0  0  0  0  3  0  0  0  0  0  0
  181.4340  178.9580  143.9450 C   0  0  0  0  0  3  0  0  0  0  0  0
  181.8580  178.3690  140.9570 C   0  0  0  0  0  3  0  0  0  0  0  0
  182.5920  178.6280  143.3580 C   0  0  0  0  0  0  0  0  0  0  0  0
  180.2330  179.4620  143.2160 C   0  0  0  0  0  2  0  0  0  0  0  0
  180.4420  178.0300  141.2000 C   0  0  0  0  0  3  0  0  0  0  0  0
  182.7810  178.6280  141.8920 C   0  0  0  0  0  3  0  0  0  0  0  0
  186.6820  176.7570  144.0220 C   0  0  0  0  0  2  0  0  0  0  0  0
  189.9780  176.4880  143.9640 C   0  0  0  0  0  3  0  0  0  0  0  0
  187.7390  177.2220  143.0780 C   0  0  0  0  0  0  0  0  0  0  0  0
  189.0220  176.5240  142.8010 C   0  0  1  0  0  3  0  0  0  0  0  0
  188.7500  178.3820  141.4240 N   0  0  0  0  0  0  0  0  0  0  0  0
  190.9630  177.5030  141.4970 N   0  0  0  0  0  0  0  0  0  0  0  0
  191.7890  177.1560  142.4430 C   0  0  0  0  0  3  0  0  0  0  0  0
  189.5580  177.4270  141.7460 C   0  0  0  0  0  0  0  0  0  0  0  0
  187.5840  178.2270  142.2250 C   0  0  0  0  0  3  0  0  0  0  0  0
  191.2850  176.7280  143.7760 C   0  0  0  0  0  3  0  0  0  0  0  0
  1  2  2  0  0  0  0
  1  4  1  0  0  0  0
  2  5  1  0  0  0  0
  4  6  2  0  0  0  0
  5  3  2  0  0  0  0
  6  3  1  0  0  0  0
  7  8  1  0  0  0  0
  8  2  1  0  0  0  0
  9  8  2  0  0  0  0
 10 14  1  0  0  0  0
 12 15  1  0  0  0  0
 12 16  2  0  0  0  0
 13 11  2  0  0  0  0
 13  7  1  0  0  0  0
 14 11  1  0  0  0  0
 15 10  2  0  0  0  0
 16 13  1  0  0  0  0
 17  1  1  0  0  0  0
 19 17  1  0  0  0  0
 20 19  1  0  0  0  0
 20 18  1  1  0  0  0
 21 24  2  0  0  0  0
 21 25  1  0  0  0  0
 22 24  1  0  0  0  0
 22 23  2  0  0  0  0
 23 26  1  0  0  0  0
 24 20  1  0  0  0  0
 25 19  2  0  0  0  0
 26 18  2  0  0  0  0
M  END
>  <MODEL>
6

>  <REMARK>
 VINA RESULT:      -8.3      2.503      7.337
  Name = 
  4 active torsions:
  status: ('A' for Active; 'I' for Inactive)
    1  A    between atoms: C_2  and  C_18
    2  A    between atoms: C_4  and  C_13
    3  A    between atoms: N_5  and  C_20
    4  A    between atoms: C_7  and  C_18
                            x       y       z     vdW  Elec       q    Type
                         _______ _______ _______ _____ _____    ______ ____

>  <TORSDO>
F 4

$$$$
=
 OpenBabel10222419333D

 26 29  0  0  1  0  0  0  0  0999 V2000
  186.7910  178.7120  141.3660 C   0  0  0  0  0  0  0  0  0  0  0  0
  186.2280  178.0350  142.4720 C   0  0  0  0  0  0  0  0  0  0  0  0
  184.0710  178.3560  141.4850 N   0  0  0  0  0  0  0  0  0  0  0  0
  185.9770  179.1790  140.3810 N   0  0  0  0  0  0  0  0  0  0  0  0
  184.8380  177.8770  142.4970 C   0  0  0  0  0  3  0  0  0  0  0  0
  184.6330  179.0030  140.4330 C   0  0  0  0  0  3  0  0  0  0  0  0
  187.2260  178.3060  144.7680 N   0  0  0  0  0  2  0  0  0  0  0  0
  187.0260  177.4980  143.5980 C   0  0  0  0  0  0  0  0  0  0  0  0
  187.5450  176.3520  143.5230 O   0  0  0  0  0  0  0  0  0  0  0  0
  189.0070  178.1500  148.8440 C   0  0  0  0  0  3  0  0  0  0  0  0
  187.1860  178.1450  147.1660 C   0  0  0  0  0  3  0  0  0  0  0  0
  190.0710  177.1350  146.8340 C   0  0  0  0  0  3  0  0  0  0  0  0
  187.8050  177.8770  146.0090 C   0  0  0  0  0  0  0  0  0  0  0  0
  187.6430  177.6530  148.4990 C   0  0  0  0  0  2  0  0  0  0  0  0
  190.0850  177.8700  148.1140 C   0  0  0  0  0  3  0  0  0  0  0  0
  189.0840  177.1410  145.9300 C   0  0  0  0  0  3  0  0  0  0  0  0
  188.2580  179.0000  141.2730 C   0  0  0  0  0  2  0  0  0  0  0  0
  187.8240  177.9150  138.1790 C   0  0  0  0  0  3  0  0  0  0  0  0
  188.9520  177.9840  140.4290 C   0  0  0  0  0  0  0  0  0  0  0  0
  189.1100  178.0480  138.9520 C   0  0  1  0  0  3  0  0  0  0  0  0
  190.2550  176.2320  139.8520 N   0  0  0  0  0  0  0  0  0  0  0  0
  189.9460  176.1520  137.4920 N   0  0  0  0  0  0  0  0  0  0  0  0
  188.9350  176.3100  136.6860 C   0  0  0  0  0  3  0  0  0  0  0  0
  189.9370  176.8270  138.7510 C   0  0  0  0  0  0  0  0  0  0  0  0
  189.6780  176.9850  140.9140 C   0  0  0  0  0  3  0  0  0  0  0  0
  187.7680  177.1440  137.0830 C   0  0  0  0  0  3  0  0  0  0  0  0
  1  2  1  0  0  0  0
  2  5  2  0  0  0  0
  2  8  1  0  0  0  0
  3  5  1  0  0  0  0
  4  6  1  0  0  0  0
  4  1  2  0  0  0  0
  6  3  2  0  0  0  0
  7 13  1  0  0  0  0
  8  7  1  0  0  0  0
  9  8  2  0  0  0  0
 11 14  1  0  0  0  0
 12 15  1  0  0  0  0
 13 11  2  0  0  0  0
 14 10  1  0  0  0  0
 15 10  2  0  0  0  0
 16 13  1  0  0  0  0
 16 12  2  0  0  0  0
 17  1  1  0  0  0  0
 19 25  2  0  0  0  0
 19 17  1  0  0  0  0
 20 18  1  6  0  0  0
 20 19  1  0  0  0  0
 21 25  1  0  0  0  0
 22 24  1  0  0  0  0
 23 26  1  0  0  0  0
 23 22  2  0  0  0  0
 24 20  1  0  0  0  0
 24 21  2  0  0  0  0
 26 18  2  0  0  0  0
M  END
>  <MODEL>
7

>  <REMARK>
 VINA RESULT:      -8.3      2.623      7.613
  Name = 
  4 active torsions:
  status: ('A' for Active; 'I' for Inactive)
    1  A    between atoms: C_2  and  C_18
    2  A    between atoms: C_4  and  C_13
    3  A    between atoms: N_5  and  C_20
    4  A    between atoms: C_7  and  C_18
                            x       y       z     vdW  Elec       q    Type
                         _______ _______ _______ _____ _____    ______ ____

>  <TORSDO>
F 4

$$$$
=
 OpenBabel10222419333D

 26 29  0  0  1  0  0  0  0  0999 V2000
  189.4370  176.9100  143.6200 C   0  0  0  0  0  0  0  0  0  0  0  0
  190.0070  177.7300  142.6200 C   0  0  0  0  0  0  0  0  0  0  0  0
  191.9380  177.9720  144.0150 N   0  0  0  0  0  0  0  0  0  0  0  0
  190.1350  176.6630  144.7620 N   0  0  0  0  0  0  0  0  0  0  0  0
  191.2820  178.2550  142.8610 C   0  0  0  0  0  3  0  0  0  0  0  0
  191.3720  177.1820  144.9610 C   0  0  0  0  0  3  0  0  0  0  0  0
  189.8630  177.5760  140.1110 N   0  0  0  0  0  2  0  0  0  0  0  0
  189.3270  178.0660  141.3490 C   0  0  0  0  0  0  0  0  0  0  0  0
  188.2990  178.7950  141.3490 O   0  0  0  0  0  0  0  0  0  0  0  0
  187.1790  178.5420  136.6950 C   0  0  0  0  0  3  0  0  0  0  0  0
  189.1330  178.8240  138.1900 C   0  0  0  0  0  3  0  0  0  0  0  0
  187.6770  176.2190  137.4440 C   0  0  0  0  0  3  0  0  0  0  0  0
  189.2350  177.6470  138.8230 C   0  0  0  0  0  0  0  0  0  0  0  0
  188.5980  178.9920  136.8070 C   0  0  0  0  0  2  0  0  0  0  0  0
  186.7960  177.2900  136.9390 C   0  0  0  0  0  3  0  0  0  0  0  0
  188.7290  176.3800  138.2560 C   0  0  0  0  0  3  0  0  0  0  0  0
  188.0510  176.3560  143.4980 C   0  0  0  0  0  2  0  0  0  0  0  0
  187.6130  177.4720  146.5810 C   0  0  0  0  0  3  0  0  0  0  0  0
  187.0510  177.2620  144.1350 C   0  0  0  0  0  0  0  0  0  0  0  0
  187.3150  178.1720  145.2810 C   0  0  1  0  0  3  0  0  0  0  0  0
  185.1590  178.4550  144.4460 N   0  0  0  0  0  0  0  0  0  0  0  0
  185.5370  179.4150  146.5930 N   0  0  0  0  0  0  0  0  0  0  0  0
  186.0550  178.9980  147.7130 C   0  0  0  0  0  3  0  0  0  0  0  0
  185.9820  178.8310  145.3670 C   0  0  0  0  0  0  0  0  0  0  0  0
  185.8450  177.5040  143.6390 C   0  0  0  0  0  3  0  0  0  0  0  0
  187.0630  177.9040  147.7260 C   0  0  0  0  0  3  0  0  0  0  0  0
  1  4  1  0  0  0  0
  2  5  1  0  0  0  0
  2  1  2  0  0  0  0
  3  6  1  0  0  0  0
  4  6  2  0  0  0  0
  5  3  2  0  0  0  0
  7  8  1  0  0  0  0
  8  9  2  0  0  0  0
  8  2  1  0  0  0  0
 10 14  1  0  0  0  0
 10 15  2  0  0  0  0
 11 13  2  0  0  0  0
 12 16  2  0  0  0  0
 13  7  1  0  0  0  0
 14 11  1  0  0  0  0
 15 12  1  0  0  0  0
 16 13  1  0  0  0  0
 17  1  1  0  0  0  0
 17 19  1  0  0  0  0
 18 26  2  0  0  0  0
 19 20  1  0  0  0  0
 20 24  1  0  0  0  0
 20 18  1  1  0  0  0
 21 24  2  0  0  0  0
 22 23  2  0  0  0  0
 23 26  1  0  0  0  0
 24 22  1  0  0  0  0
 25 19  2  0  0  0  0
 25 21  1  0  0  0  0
M  END
>  <MODEL>
8

>  <REMARK>
 VINA RESULT:      -8.2      2.032      3.251
  Name = 
  4 active torsions:
  status: ('A' for Active; 'I' for Inactive)
    1  A    between atoms: C_2  and  C_18
    2  A    between atoms: C_4  and  C_13
    3  A    between atoms: N_5  and  C_20
    4  A    between atoms: C_7  and  C_18
                            x       y       z     vdW  Elec       q    Type
                         _______ _______ _______ _____ _____    ______ ____

>  <TORSDO>
F 4

$$$$
=
 OpenBabel10222419333D

 26 29  0  0  1  0  0  0  0  0999 V2000
  186.1560  177.8760  144.2020 C   0  0  0  0  0  0  0  0  0  0  0  0
  185.2040  178.7510  143.6310 C   0  0  0  0  0  0  0  0  0  0  0  0
  184.3910  179.1970  145.8380 N   0  0  0  0  0  0  0  0  0  0  0  0
  186.1820  177.7010  145.5510 N   0  0  0  0  0  0  0  0  0  0  0  0
  184.3200  179.4020  144.4980 C   0  0  0  0  0  3  0  0  0  0  0  0
  185.3140  178.3540  146.3650 C   0  0  0  0  0  3  0  0  0  0  0  0
  184.0760  178.3210  141.4210 N   0  0  0  0  0  2  0  0  0  0  0  0
  185.0890  179.0020  142.1770 C   0  0  0  0  0  0  0  0  0  0  0  0
  185.8870  179.7890  141.6010 O   0  0  0  0  0  0  0  0  0  0  0  0
  181.9670  178.5080  137.5070 C   0  0  0  0  0  3  0  0  0  0  0  0
  182.5810  179.2540  139.7860 C   0  0  0  0  0  3  0  0  0  0  0  0
  184.3030  177.6880  137.7770 C   0  0  0  0  0  3  0  0  0  0  0  0
  183.7080  178.5840  140.0600 C   0  0  0  0  0  0  0  0  0  0  0  0
  182.1620  179.6740  138.4170 C   0  0  0  0  0  2  0  0  0  0  0  0
  182.9460  177.6600  137.1970 C   0  0  0  0  0  3  0  0  0  0  0  0
  184.6260  178.0890  139.0120 C   0  0  0  0  0  3  0  0  0  0  0  0
  187.1020  177.0740  143.3620 C   0  0  0  0  0  2  0  0  0  0  0  0
  189.0780  176.7460  145.9950 C   0  0  0  0  0  3  0  0  0  0  0  0
  188.5190  177.4480  143.6420 C   0  0  0  0  0  0  0  0  0  0  0  0
  189.4500  176.7090  144.5350 C   0  0  1  0  0  3  0  0  0  0  0  0
  190.5280  178.4610  143.4450 N   0  0  0  0  0  0  0  0  0  0  0  0
  191.7150  177.5530  145.3000 N   0  0  0  0  0  0  0  0  0  0  0  0
  191.4180  177.2650  146.5350 C   0  0  0  0  0  3  0  0  0  0  0  0
  190.6790  177.5200  144.3160 C   0  0  0  0  0  0  0  0  0  0  0  0
  189.1840  178.3880  142.9820 C   0  0  0  0  0  3  0  0  0  0  0  0
  190.0190  176.9480  146.9290 C   0  0  0  0  0  3  0  0  0  0  0  0
  1  4  1  0  0  0  0
  2  1  2  0  0  0  0
  2  5  1  0  0  0  0
  3  6  1  0  0  0  0
  4  6  2  0  0  0  0
  5  3  2  0  0  0  0
  7  8  1  0  0  0  0
  8  2  1  0  0  0  0
  9  8  2  0  0  0  0
 10 14  1  0  0  0  0
 11 13  2  0  0  0  0
 12 16  2  0  0  0  0
 13  7  1  0  0  0  0
 14 11  1  0  0  0  0
 15 10  2  0  0  0  0
 15 12  1  0  0  0  0
 16 13  1  0  0  0  0
 17 19  1  0  0  0  0
 17  1  1  0  0  0  0
 18 26  2  0  0  0  0
 19 20  1  0  0  0  0
 20 18  1  1  0  0  0
 21 24  2  0  0  0  0
 22 23  2  0  0  0  0
 23 26  1  0  0  0  0
 24 20  1  0  0  0  0
 24 22  1  0  0  0  0
 25 21  1  0  0  0  0
 25 19  2  0  0  0  0
M  END
>  <MODEL>
9

>  <REMARK>
 VINA RESULT:      -8.2      3.168      6.576
  Name = 
  4 active torsions:
  status: ('A' for Active; 'I' for Inactive)
    1  A    between atoms: C_2  and  C_18
    2  A    between atoms: C_4  and  C_13
    3  A    between atoms: N_5  and  C_20
    4  A    between atoms: C_7  and  C_18
                            x       y       z     vdW  Elec       q    Type
                         _______ _______ _______ _____ _____    ______ ____

>  <TORSDO>
F 4

$$$$
