=
 OpenBabel10222417223D

 43 48  0  0  1  0  0  0  0  0999 V2000
  190.0530  176.6400  138.8260 C   0  0  1  0  0  3  0  0  0  0  0  0
  189.9820  178.1460  138.5040 C   0  0  0  0  0  2  0  0  0  0  0  0
  184.4410  177.0620  136.1630 C   0  0  0  0  0  0  0  0  0  0  0  0
  188.7020  178.5040  137.7580 C   0  0  1  0  0  3  0  0  0  0  0  0
  185.2100  177.2120  137.3230 C   0  0  0  0  0  3  0  0  0  0  0  0
  188.8770  178.0860  135.9810 S   0  0  0  0  0  0  0  0  0  0  0  0
  186.3810  177.5850  134.7950 C   0  0  0  0  0  3  0  0  0  0  0  0
  187.1400  177.7150  135.9570 C   0  0  0  0  0  0  0  0  0  0  0  0
  183.0050  176.7020  136.2740 C   0  0  0  0  0  1  0  0  0  0  0  0
  186.9050  178.4880  139.3830 O   0  0  0  0  0  1  0  0  0  0  0  0
  185.0170  177.2680  134.8970 C   0  0  0  0  0  3  0  0  0  0  0  0
  186.5610  177.5610  137.2090 C   0  0  0  0  0  0  0  0  0  0  0  0
  187.4960  177.7500  138.3430 C   0  0  1  0  0  3  0  0  0  0  0  0
  190.5330  175.7740  137.6380 C   0  0  2  0  0  3  0  0  0  0  0  0
  189.4630  174.7610  137.2020 C   0  0  0  0  0  2  0  0  0  0  0  0
  190.0940  174.6970  134.8750 O   0  0  0  0  0  1  0  0  0  0  0  0
  189.8840  173.9020  136.0160 C   0  0  0  0  0  2  0  0  0  0  0  0
  191.8720  175.0750  137.9140 C   0  0  0  0  0  2  0  0  0  0  0  0
  193.6330  176.8860  138.1400 O   0  0  0  0  0  1  0  0  0  0  0  0
  194.0630  174.9320  136.6860 C   0  0  1  0  0  3  0  0  0  0  0  0
  193.0690  175.8490  137.3830 C   0  0  1  0  0  0  0  0  0  0  0  0
  193.2680  175.9720  135.8990 C   0  0  0  0  0  2  0  0  0  0  0  0
  195.4380  175.3380  137.0180 N   0  0  0  0  0  0  0  0  0  0  0  0
  195.9370  174.3620  137.9940 C   0  0  0  0  0  1  0  0  0  0  0  0
  197.2810  176.3260  135.9730 O   0  0  0  0  0  1  0  0  0  0  0  0
  196.3340  175.2920  135.8540 C   0  0  0  0  0  2  0  0  0  0  0  0
  190.8240  176.3740  140.1200 C   0  0  0  0  0  2  0  0  0  0  0  0
  189.0530  177.1040  141.7270 C   0  0  0  0  0  3  0  0  0  0  0  0
  190.4470  178.2220  143.1570 C   0  0  0  0  0  0  0  0  0  0  0  0
  188.9970  177.9690  142.9410 C   0  0  2  0  0  3  0  0  0  0  0  0
  188.3390  177.3610  144.1540 C   0  0  0  0  0  0  0  0  0  0  0  0
  191.1840  177.7600  142.2110 N   0  0  0  0  0  0  0  0  0  0  0  0
  190.3060  177.1320  141.2920 C   0  0  0  0  0  0  0  0  0  0  0  0
  190.9600  178.4830  144.4570 N   0  0  0  0  0  0  0  0  0  0  0  0
  188.8470  177.5710  145.3750 C   0  0  0  0  0  3  0  0  0  0  0  0
  190.1260  178.2080  145.5570 N   0  0  0  0  0  0  0  0  0  0  0  0
  186.9500  176.8110  144.0480 C   0  0  0  0  0  2  0  0  0  0  0  0
  185.3300  178.5610  144.8600 N   0  0  0  0  0  0  0  0  0  0  0  0
  185.9770  177.9300  143.8580 C   0  0  0  0  0  0  0  0  0  0  0  0
  185.4940  178.3310  146.2920 C   0  0  0  0  0  1  0  0  0  0  0  0
  185.4740  178.3570  142.6440 C   0  0  0  0  0  3  0  0  0  0  0  0
  184.4690  179.4170  144.3460 N   0  0  0  0  0  0  0  0  0  0  0  0
  184.5290  179.3130  142.9990 C   0  0  0  0  0  3  0  0  0  0  0  0
  1  2  1  6  0  0  0
  1 27  1  0  0  0  0
  3  9  1  0  0  0  0
  3  5  1  0  0  0  0
  4 13  1  0  0  0  0
  4  2  1  1  0  0  0
  6  4  1  0  0  0  0
  7 11  1  0  0  0  0
  7  8  2  0  0  0  0
  8  6  1  0  0  0  0
  8 12  1  0  0  0  0
 11  3  2  0  0  0  0
 12  5  2  0  0  0  0
 12 13  1  0  0  0  0
 13 10  1  1  0  0  0
 14 15  1  1  0  0  0
 14 18  1  0  0  0  0
 14  1  1  0  0  0  0
 16 17  1  0  0  0  0
 17 15  1  0  0  0  0
 20 23  1  1  0  0  0
 20 21  1  0  0  0  0
 21 18  1  0  0  0  0
 21 19  1  1  0  0  0
 22 20  1  0  0  0  0
 22 21  1  0  0  0  0
 23 24  1  0  0  0  0
 26 25  1  0  0  0  0
 26 23  1  0  0  0  0
 27 33  1  0  0  0  0
 29 34  1  0  0  0  0
 30 28  1  6  0  0  0
 30 29  1  0  0  0  0
 30 31  1  0  0  0  0
 31 35  2  0  0  0  0
 32 29  2  0  0  0  0
 33 28  2  0  0  0  0
 33 32  1  0  0  0  0
 34 36  2  0  0  0  0
 35 36  1  0  0  0  0
 37 31  1  0  0  0  0
 38 40  1  0  0  0  0
 39 37  1  0  0  0  0
 39 38  1  0  0  0  0
 41 43  1  0  0  0  0
 41 39  2  0  0  0  0
 42 38  1  0  0  0  0
 43 42  2  0  0  0  0
M  END
>  <MODEL>
1

>  <REMARK>
 VINA RESULT:      -7.8      0.000      0.000
  Name = 
  13 active torsions:
  status: ('A' for Active; 'I' for Inactive)
    1  A    between atoms: C_3  and  C_25
    2  A    between atoms: C_3  and  C_27
    3  A    between atoms: C_4  and  C_13
    4  A    between atoms: C_4  and  C_21
    5  A    between atoms: C_8  and  C_22
    6  A    between atoms: C_9  and  C_22
    7  A    between atoms: C_14  and  N_37
    8  A    between atoms: C_19  and  C_26
    9  A    between atoms: C_19  and  C_27
   10  A    between atoms: C_21  and  C_27
   11  A    between atoms: C_21  and  C_35
   12  A    between atoms: C_23  and  C_35
   13  A    between atoms: C_36  and  N_37
                            x       y       z     vdW  Elec       q    Type
                         _______ _______ _______ _____ _____    ______ ____

>  <TORSDO>
F 13

$$$$
=
 OpenBabel10222417223D

 43 48  0  0  1  0  0  0  0  0999 V2000
  183.6190  178.5470  140.6850 C   0  0  1  0  0  3  0  0  0  0  0  0
  184.0490  179.2670  141.9790 C   0  0  0  0  0  2  0  0  0  0  0  0
  187.4970  177.8370  146.8180 C   0  0  0  0  0  0  0  0  0  0  0  0
  184.7460  178.3200  142.9480 C   0  0  1  0  0  3  0  0  0  0  0  0
  186.2890  178.3790  146.3640 C   0  0  0  0  0  3  0  0  0  0  0  0
  186.4620  178.0000  142.3840 S   0  0  0  0  0  0  0  0  0  0  0  0
  188.1360  177.3130  144.5320 C   0  0  0  0  0  3  0  0  0  0  0  0
  186.9360  177.8710  144.0910 C   0  0  0  0  0  0  0  0  0  0  0  0
  187.8000  177.8310  148.2720 C   0  0  0  0  0  1  0  0  0  0  0  0
  183.6280  178.5430  145.0860 O   0  0  0  0  0  1  0  0  0  0  0  0
  188.4150  177.2840  145.9070 C   0  0  0  0  0  3  0  0  0  0  0  0
  186.0080  178.3720  144.9930 C   0  0  0  0  0  0  0  0  0  0  0  0
  184.7780  178.9120  144.3670 C   0  0  1  0  0  3  0  0  0  0  0  0
  182.1060  178.2370  140.6210 C   0  0  2  0  0  3  0  0  0  0  0  0
  181.3640  178.7660  141.8580 C   0  0  0  0  0  2  0  0  0  0  0  0
  180.0710  180.6500  142.6300 O   0  0  0  0  0  1  0  0  0  0  0  0
  180.2960  179.8030  141.5310 C   0  0  0  0  0  2  0  0  0  0  0  0
  181.8140  176.7460  140.4000 C   0  0  0  0  0  2  0  0  0  0  0  0
  180.4330  177.3820  138.3700 O   0  0  0  0  0  1  0  0  0  0  0  0
  180.5120  175.0230  139.1090 C   0  0  1  0  0  3  0  0  0  0  0  0
  180.6620  176.5010  139.4370 C   0  0  1  0  0  0  0  0  0  0  0  0
  179.4450  175.7610  139.9160 C   0  0  0  0  0  2  0  0  0  0  0  0
  180.1920  174.8560  137.6820 N   0  0  0  0  0  0  0  0  0  0  0  0
  181.4660  174.6270  136.9920 C   0  0  0  0  0  1  0  0  0  0  0  0
  179.9260  172.5630  138.0480 O   0  0  0  0  0  1  0  0  0  0  0  0
  179.3400  173.6850  137.4320 C   0  0  0  0  0  2  0  0  0  0  0  0
  184.1440  179.2630  139.4390 C   0  0  0  0  0  2  0  0  0  0  0  0
  186.0050  178.4760  137.9660 C   0  0  0  0  0  3  0  0  0  0  0  0
  185.0150  176.5140  137.3270 C   0  0  0  0  0  0  0  0  0  0  0  0
  186.2270  177.3280  137.0400 C   0  0  2  0  0  3  0  0  0  0  0  0
  187.5000  176.5470  137.2520 C   0  0  0  0  0  0  0  0  0  0  0  0
  184.1860  177.1060  138.1100 N   0  0  0  0  0  0  0  0  0  0  0  0
  184.7730  178.3520  138.4440 C   0  0  0  0  0  0  0  0  0  0  0  0
  185.0250  175.1020  137.1630 N   0  0  0  0  0  0  0  0  0  0  0  0
  187.5000  175.2130  137.1410 C   0  0  0  0  0  3  0  0  0  0  0  0
  186.2730  174.4690  137.0110 N   0  0  0  0  0  0  0  0  0  0  0  0
  188.8170  177.2600  137.2530 C   0  0  0  0  0  2  0  0  0  0  0  0
  190.4900  176.2500  138.8410 N   0  0  0  0  0  0  0  0  0  0  0  0
  189.4770  177.1020  138.5850 C   0  0  0  0  0  0  0  0  0  0  0  0
  191.1710  175.3830  137.8840 C   0  0  0  0  0  1  0  0  0  0  0  0
  189.0400  177.6680  139.7680 C   0  0  0  0  0  3  0  0  0  0  0  0
  190.7650  176.2800  140.1300 N   0  0  0  0  0  0  0  0  0  0  0  0
  189.8950  177.1300  140.7230 C   0  0  0  0  0  3  0  0  0  0  0  0
  1 27  1  6  0  0  0
  1  2  1  0  0  0  0
  3  9  1  0  0  0  0
  4  2  1  6  0  0  0
  4 13  1  0  0  0  0
  5  3  1  0  0  0  0
  6  4  1  0  0  0  0
  6  8  1  0  0  0  0
  7 11  1  0  0  0  0
  8  7  2  0  0  0  0
  8 12  1  0  0  0  0
 11  3  2  0  0  0  0
 12  5  2  0  0  0  0
 13 12  1  0  0  0  0
 13 10  1  1  0  0  0
 14 18  1  1  0  0  0
 14  1  1  0  0  0  0
 14 15  1  0  0  0  0
 17 15  1  0  0  0  0
 17 16  1  0  0  0  0
 20 23  1  6  0  0  0
 20 21  1  0  0  0  0
 20 22  1  0  0  0  0
 21 19  1  6  0  0  0
 21 22  1  0  0  0  0
 21 18  1  0  0  0  0
 24 23  1  0  0  0  0
 26 23  1  0  0  0  0
 26 25  1  0  0  0  0
 28 33  2  0  0  0  0
 29 32  2  0  0  0  0
 30 31  1  0  0  0  0
 30 29  1  0  0  0  0
 30 28  1  1  0  0  0
 31 37  1  0  0  0  0
 32 33  1  0  0  0  0
 33 27  1  0  0  0  0
 34 29  1  0  0  0  0
 35 31  2  0  0  0  0
 36 35  1  0  0  0  0
 36 34  2  0  0  0  0
 37 39  1  0  0  0  0
 38 42  1  0  0  0  0
 39 38  1  0  0  0  0
 39 41  2  0  0  0  0
 40 38  1  0  0  0  0
 41 43  1  0  0  0  0
 42 43  2  0  0  0  0
M  END
>  <MODEL>
2

>  <REMARK>
 VINA RESULT:      -7.7      4.704     10.192
  Name = 
  13 active torsions:
  status: ('A' for Active; 'I' for Inactive)
    1  A    between atoms: C_3  and  C_25
    2  A    between atoms: C_3  and  C_27
    3  A    between atoms: C_4  and  C_13
    4  A    between atoms: C_4  and  C_21
    5  A    between atoms: C_8  and  C_22
    6  A    between atoms: C_9  and  C_22
    7  A    between atoms: C_14  and  N_37
    8  A    between atoms: C_19  and  C_26
    9  A    between atoms: C_19  and  C_27
   10  A    between atoms: C_21  and  C_27
   11  A    between atoms: C_21  and  C_35
   12  A    between atoms: C_23  and  C_35
   13  A    between atoms: C_36  and  N_37
                            x       y       z     vdW  Elec       q    Type
                         _______ _______ _______ _____ _____    ______ ____

>  <TORSDO>
F 13

$$$$
=
 OpenBabel10222417223D

 43 48  0  0  1  0  0  0  0  0999 V2000
  187.5150  177.6650  143.7800 C   0  0  1  0  0  3  0  0  0  0  0  0
  186.1010  177.4320  144.3490 C   0  0  0  0  0  2  0  0  0  0  0  0
  180.5110  179.4400  142.9120 C   0  0  0  0  0  0  0  0  0  0  0  0
  185.0920  178.4210  143.7780 C   0  0  1  0  0  3  0  0  0  0  0  0
  181.4170  179.1410  143.9370 C   0  0  0  0  0  3  0  0  0  0  0  0
  184.7460  178.0160  142.0220 S   0  0  0  0  0  0  0  0  0  0  0  0
  182.2000  178.9130  141.2460 C   0  0  0  0  0  3  0  0  0  0  0  0
  183.0880  178.6020  142.2750 C   0  0  0  0  0  0  0  0  0  0  0  0
  179.1320  179.8750  143.2540 C   0  0  0  0  0  1  0  0  0  0  0  0
  183.8240  179.3010  145.6450 O   0  0  0  0  0  1  0  0  0  0  0  0
  180.9040  179.3470  141.5650 C   0  0  0  0  0  3  0  0  0  0  0  0
  182.7160  178.7410  143.6050 C   0  0  0  0  0  0  0  0  0  0  0  0
  183.7790  178.3890  144.5770 C   0  0  1  0  0  3  0  0  0  0  0  0
  188.5990  177.8490  144.8660 C   0  0  2  0  0  3  0  0  0  0  0  0
  188.0270  178.4940  146.1380 C   0  0  0  0  0  2  0  0  0  0  0  0
  187.9830  178.1770  148.5280 O   0  0  0  0  0  1  0  0  0  0  0  0
  187.8550  177.5160  147.2940 C   0  0  0  0  0  2  0  0  0  0  0  0
  189.8240  178.6230  144.3600 C   0  0  0  0  0  2  0  0  0  0  0  0
  192.2800  178.7100  144.9850 O   0  0  0  0  0  1  0  0  0  0  0  0
  190.9300  176.7280  145.5920 C   0  0  1  0  0  3  0  0  0  0  0  0
  191.1410  177.9430  144.7000 C   0  0  1  0  0  0  0  0  0  0  0  0
  191.4260  176.5710  144.1550 C   0  0  0  0  0  2  0  0  0  0  0  0
  191.9880  176.6660  146.6130 N   0  0  0  0  0  0  0  0  0  0  0  0
  191.4240  177.2500  147.8350 C   0  0  0  0  0  1  0  0  0  0  0  0
  193.2710  175.3100  148.0190 O   0  0  0  0  0  1  0  0  0  0  0  0
  192.3820  175.2860  146.9280 C   0  0  0  0  0  2  0  0  0  0  0  0
  187.8810  176.6140  142.7300 C   0  0  0  0  0  2  0  0  0  0  0  0
  189.6510  176.5340  140.9660 C   0  0  0  0  0  3  0  0  0  0  0  0
  189.0210  178.4490  139.8810 C   0  0  0  0  0  0  0  0  0  0  0  0
  190.0990  177.4230  139.8550 C   0  0  2  0  0  3  0  0  0  0  0  0
  190.2280  176.7710  138.5010 C   0  0  0  0  0  0  0  0  0  0  0  0
  188.2150  178.3050  140.8720 N   0  0  0  0  0  0  0  0  0  0  0  0
  188.6550  177.1580  141.5810 C   0  0  0  0  0  0  0  0  0  0  0  0
  188.6570  179.1600  138.7060 N   0  0  0  0  0  0  0  0  0  0  0  0
  189.8450  177.4240  137.3970 C   0  0  0  0  0  3  0  0  0  0  0  0
  189.1250  178.6690  137.4720 N   0  0  0  0  0  0  0  0  0  0  0  0
  191.0840  175.5520  138.3430 C   0  0  0  0  0  2  0  0  0  0  0  0
  192.1240  175.2590  136.0690 N   0  0  0  0  0  0  0  0  0  0  0  0
  192.1300  175.7990  137.3040 C   0  0  0  0  0  0  0  0  0  0  0  0
  191.0920  174.4040  135.4900 C   0  0  0  0  0  1  0  0  0  0  0  0
  193.3250  176.4630  137.5120 C   0  0  0  0  0  3  0  0  0  0  0  0
  193.2390  175.5900  135.4470 N   0  0  0  0  0  0  0  0  0  0  0  0
  193.9930  176.3190  136.3010 C   0  0  0  0  0  3  0  0  0  0  0  0
  1 27  1  1  0  0  0
  1  2  1  0  0  0  0
  1 14  1  0  0  0  0
  3  9  1  0  0  0  0
  3  5  1  0  0  0  0
  4  2  1  1  0  0  0
  4 13  1  0  0  0  0
  6  8  1  0  0  0  0
  6  4  1  0  0  0  0
  7 11  1  0  0  0  0
  7  8  2  0  0  0  0
  8 12  1  0  0  0  0
 11  3  2  0  0  0  0
 12  5  2  0  0  0  0
 12 13  1  0  0  0  0
 13 10  1  1  0  0  0
 14 18  1  6  0  0  0
 14 15  1  0  0  0  0
 15 17  1  0  0  0  0
 17 16  1  0  0  0  0
 18 21  1  0  0  0  0
 20 23  1  1  0  0  0
 21 19  1  1  0  0  0
 21 20  1  0  0  0  0
 22 21  1  0  0  0  0
 22 20  1  0  0  0  0
 23 26  1  0  0  0  0
 23 24  1  0  0  0  0
 26 25  1  0  0  0  0
 28 33  2  0  0  0  0
 29 32  2  0  0  0  0
 30 29  1  0  0  0  0
 30 28  1  1  0  0  0
 31 30  1  0  0  0  0
 32 33  1  0  0  0  0
 33 27  1  0  0  0  0
 34 29  1  0  0  0  0
 35 36  1  0  0  0  0
 35 31  2  0  0  0  0
 36 34  2  0  0  0  0
 37 31  1  0  0  0  0
 38 39  1  0  0  0  0
 39 41  2  0  0  0  0
 39 37  1  0  0  0  0
 40 38  1  0  0  0  0
 42 38  1  0  0  0  0
 42 43  2  0  0  0  0
 43 41  1  0  0  0  0
M  END
>  <MODEL>
3

>  <REMARK>
 VINA RESULT:      -7.7      3.989      8.629
  Name = 
  13 active torsions:
  status: ('A' for Active; 'I' for Inactive)
    1  A    between atoms: C_3  and  C_25
    2  A    between atoms: C_3  and  C_27
    3  A    between atoms: C_4  and  C_13
    4  A    between atoms: C_4  and  C_21
    5  A    between atoms: C_8  and  C_22
    6  A    between atoms: C_9  and  C_22
    7  A    between atoms: C_14  and  N_37
    8  A    between atoms: C_19  and  C_26
    9  A    between atoms: C_19  and  C_27
   10  A    between atoms: C_21  and  C_27
   11  A    between atoms: C_21  and  C_35
   12  A    between atoms: C_23  and  C_35
   13  A    between atoms: C_36  and  N_37
                            x       y       z     vdW  Elec       q    Type
                         _______ _______ _______ _____ _____    ______ ____

>  <TORSDO>
F 13

$$$$
=
 OpenBabel10222417223D

 43 48  0  0  1  0  0  0  0  0999 V2000
  186.7300  178.8160  142.4610 C   0  0  1  0  0  3  0  0  0  0  0  0
  187.7200  179.0660  141.3070 C   0  0  0  0  0  2  0  0  0  0  0  0
  190.8200  175.3980  137.5260 C   0  0  0  0  0  0  0  0  0  0  0  0
  187.9400  177.8120  140.4690 C   0  0  1  0  0  3  0  0  0  0  0  0
  190.7440  175.9620  138.8060 C   0  0  0  0  0  3  0  0  0  0  0  0
  187.3610  178.1000  138.7520 S   0  0  0  0  0  0  0  0  0  0  0  0
  188.7110  176.4470  136.9260 C   0  0  0  0  0  3  0  0  0  0  0  0
  188.6550  177.0150  138.1970 C   0  0  0  0  0  0  0  0  0  0  0  0
  191.9810  174.5460  137.1660 C   0  0  0  0  0  1  0  0  0  0  0  0
  189.7310  176.5620  141.5170 O   0  0  0  0  0  1  0  0  0  0  0  0
  189.7950  175.6210  136.5890 C   0  0  0  0  0  3  0  0  0  0  0  0
  189.6410  176.7570  139.1390 C   0  0  0  0  0  0  0  0  0  0  0  0
  189.4270  177.4200  140.4470 C   0  0  1  0  0  3  0  0  0  0  0  0
  185.3060  179.3500  142.1830 C   0  0  2  0  0  3  0  0  0  0  0  0
  184.6110  179.8170  143.4720 C   0  0  0  0  0  2  0  0  0  0  0  0
  183.2480  179.0540  145.3090 O   0  0  0  0  0  1  0  0  0  0  0  0
  183.4970  178.8860  143.9360 C   0  0  0  0  0  2  0  0  0  0  0  0
  184.4320  178.3450  141.4200 C   0  0  0  0  0  2  0  0  0  0  0  0
  184.3760  179.9260  139.4380 O   0  0  0  0  0  1  0  0  0  0  0  0
  182.9360  177.9160  139.4440 C   0  0  1  0  0  3  0  0  0  0  0  0
  183.7290  178.9580  140.2190 C   0  0  1  0  0  0  0  0  0  0  0  0
  182.2280  179.0370  140.2030 C   0  0  0  0  0  2  0  0  0  0  0  0
  183.0760  178.1530  137.9980 N   0  0  0  0  0  0  0  0  0  0  0  0
  184.0330  177.1580  137.5020 C   0  0  0  0  0  1  0  0  0  0  0  0
  181.2780  176.7020  137.6430 O   0  0  0  0  0  1  0  0  0  0  0  0
  181.8150  177.9490  137.2710 C   0  0  0  0  0  2  0  0  0  0  0  0
  186.7510  177.3550  142.9170 C   0  0  0  0  0  2  0  0  0  0  0  0
  188.3540  176.7390  144.7340 C   0  0  0  0  0  3  0  0  0  0  0  0
  187.0730  177.4920  146.4750 C   0  0  0  0  0  0  0  0  0  0  0  0
  188.3440  176.7600  146.2260 C   0  0  2  0  0  3  0  0  0  0  0  0
  189.5240  177.4320  146.8820 C   0  0  0  0  0  0  0  0  0  0  0  0
  186.4010  177.7100  145.4020 N   0  0  0  0  0  0  0  0  0  0  0  0
  187.1670  177.1760  144.3350 C   0  0  0  0  0  0  0  0  0  0  0  0
  186.8920  178.2660  147.6520 N   0  0  0  0  0  0  0  0  0  0  0  0
  189.3490  178.1980  147.9670 C   0  0  0  0  0  3  0  0  0  0  0  0
  188.0320  178.5630  148.4230 N   0  0  0  0  0  0  0  0  0  0  0  0
  190.9140  176.9870  146.5450 C   0  0  0  0  0  2  0  0  0  0  0  0
  191.7380  176.6140  144.1950 N   0  0  0  0  0  0  0  0  0  0  0  0
  191.2650  177.4280  145.1600 C   0  0  0  0  0  0  0  0  0  0  0  0
  191.9360  175.1700  144.2830 C   0  0  0  0  0  1  0  0  0  0  0  0
  191.3200  178.7390  144.7260 C   0  0  0  0  0  3  0  0  0  0  0  0
  192.0470  177.3340  143.1350 N   0  0  0  0  0  0  0  0  0  0  0  0
  191.8090  178.6330  143.4290 C   0  0  0  0  0  3  0  0  0  0  0  0
  1  2  1  6  0  0  0
  1 27  1  0  0  0  0
  3  5  1  0  0  0  0
  4  2  1  1  0  0  0
  5 12  2  0  0  0  0
  6  4  1  0  0  0  0
  7  8  2  0  0  0  0
  8  6  1  0  0  0  0
  8 12  1  0  0  0  0
  9  3  1  0  0  0  0
 11  7  1  0  0  0  0
 11  3  2  0  0  0  0
 12 13  1  0  0  0  0
 13  4  1  0  0  0  0
 13 10  1  1  0  0  0
 14 18  1  1  0  0  0
 14  1  1  0  0  0  0
 14 15  1  0  0  0  0
 15 17  1  0  0  0  0
 17 16  1  0  0  0  0
 20 23  1  6  0  0  0
 20 22  1  0  0  0  0
 20 21  1  0  0  0  0
 21 19  1  6  0  0  0
 21 18  1  0  0  0  0
 22 21  1  0  0  0  0
 24 23  1  0  0  0  0
 26 25  1  0  0  0  0
 26 23  1  0  0  0  0
 27 33  1  0  0  0  0
 29 34  1  0  0  0  0
 30 28  1  6  0  0  0
 30 29  1  0  0  0  0
 30 31  1  0  0  0  0
 31 35  2  0  0  0  0
 32 29  2  0  0  0  0
 33 28  2  0  0  0  0
 33 32  1  0  0  0  0
 34 36  2  0  0  0  0
 35 36  1  0  0  0  0
 37 31  1  0  0  0  0
 38 40  1  0  0  0  0
 38 39  1  0  0  0  0
 39 37  1  0  0  0  0
 41 39  2  0  0  0  0
 42 43  2  0  0  0  0
 42 38  1  0  0  0  0
 43 41  1  0  0  0  0
M  END
>  <MODEL>
4

>  <REMARK>
 VINA RESULT:      -7.6      2.962      7.794
  Name = 
  13 active torsions:
  status: ('A' for Active; 'I' for Inactive)
    1  A    between atoms: C_3  and  C_25
    2  A    between atoms: C_3  and  C_27
    3  A    between atoms: C_4  and  C_13
    4  A    between atoms: C_4  and  C_21
    5  A    between atoms: C_8  and  C_22
    6  A    between atoms: C_9  and  C_22
    7  A    between atoms: C_14  and  N_37
    8  A    between atoms: C_19  and  C_26
    9  A    between atoms: C_19  and  C_27
   10  A    between atoms: C_21  and  C_27
   11  A    between atoms: C_21  and  C_35
   12  A    between atoms: C_23  and  C_35
   13  A    between atoms: C_36  and  N_37
                            x       y       z     vdW  Elec       q    Type
                         _______ _______ _______ _____ _____    ______ ____

>  <TORSDO>
F 13

$$$$
=
 OpenBabel10222417223D

 43 48  0  0  1  0  0  0  0  0999 V2000
  186.4940  178.2250  141.7790 C   0  0  1  0  0  3  0  0  0  0  0  0
  187.9300  178.6010  141.3630 C   0  0  0  0  0  2  0  0  0  0  0  0
  192.2700  176.2520  137.7570 C   0  0  0  0  0  0  0  0  0  0  0  0
  188.5360  177.5640  140.4240 C   0  0  1  0  0  3  0  0  0  0  0  0
  191.8870  176.5770  139.0640 C   0  0  0  0  0  3  0  0  0  0  0  0
  188.1690  178.0080  138.6830 S   0  0  0  0  0  0  0  0  0  0  0  0
  190.0970  176.9600  136.9300 C   0  0  0  0  0  3  0  0  0  0  0  0
  189.7340  177.2950  138.2330 C   0  0  0  0  0  0  0  0  0  0  0  0
  193.6280  175.7070  137.5030 C   0  0  0  0  0  1  0  0  0  0  0  0
  190.3800  176.5270  141.6060 O   0  0  0  0  0  1  0  0  0  0  0  0
  191.3720  176.4220  136.6890 C   0  0  0  0  0  3  0  0  0  0  0  0
  190.6020  177.0820  139.2940 C   0  0  0  0  0  0  0  0  0  0  0  0
  190.0590  177.4720  140.6170 C   0  0  1  0  0  3  0  0  0  0  0  0
  186.3530  177.8820  143.2800 C   0  0  2  0  0  3  0  0  0  0  0  0
  185.0090  178.3630  143.8500 C   0  0  0  0  0  2  0  0  0  0  0  0
  183.8560  179.1040  145.8340 O   0  0  0  0  0  1  0  0  0  0  0  0
  185.1230  178.9860  145.2360 C   0  0  0  0  0  2  0  0  0  0  0  0
  187.5260  178.4030  144.1220 C   0  0  0  0  0  2  0  0  0  0  0  0
  188.6330  176.1210  144.0840 O   0  0  0  0  0  1  0  0  0  0  0  0
  189.4350  177.8470  145.6640 C   0  0  1  0  0  3  0  0  0  0  0  0
  188.3190  177.2910  144.7910 C   0  0  1  0  0  0  0  0  0  0  0  0
  188.2400  177.1230  146.2830 C   0  0  0  0  0  2  0  0  0  0  0  0
  190.6430  177.0190  145.5210 N   0  0  0  0  0  0  0  0  0  0  0  0
  191.5670  177.7720  144.6660 C   0  0  0  0  0  1  0  0  0  0  0  0
  192.2890  175.7830  146.6290 O   0  0  0  0  0  1  0  0  0  0  0  0
  191.3210  176.7900  146.8050 C   0  0  0  0  0  2  0  0  0  0  0  0
  185.4760  179.2600  141.2950 C   0  0  0  0  0  2  0  0  0  0  0  0
  184.6060  178.6560  139.0300 C   0  0  0  0  0  3  0  0  0  0  0  0
  182.7500  177.5320  139.7580 C   0  0  0  0  0  0  0  0  0  0  0  0
  183.3810  177.9950  138.4930 C   0  0  2  0  0  3  0  0  0  0  0  0
  183.6150  176.8610  137.5270 C   0  0  0  0  0  0  0  0  0  0  0  0
  183.3600  177.9550  140.8080 N   0  0  0  0  0  0  0  0  0  0  0  0
  184.4670  178.7110  140.3490 C   0  0  0  0  0  0  0  0  0  0  0  0
  181.9090  176.3870  139.7810 N   0  0  0  0  0  0  0  0  0  0  0  0
  182.8510  175.7630  137.5760 C   0  0  0  0  0  3  0  0  0  0  0  0
  181.9250  175.5400  138.6570 N   0  0  0  0  0  0  0  0  0  0  0  0
  184.4570  177.0860  136.3090 C   0  0  0  0  0  2  0  0  0  0  0  0
  186.7350  176.3160  135.5600 N   0  0  0  0  0  0  0  0  0  0  0  0
  185.6450  176.1770  136.3400 C   0  0  0  0  0  0  0  0  0  0  0  0
  186.9990  177.3860  134.6020 C   0  0  0  0  0  1  0  0  0  0  0  0
  185.7230  174.9850  137.0350 C   0  0  0  0  0  3  0  0  0  0  0  0
  187.5420  175.2920  135.7590 N   0  0  0  0  0  0  0  0  0  0  0  0
  186.9520  174.4620  136.6480 C   0  0  0  0  0  3  0  0  0  0  0  0
  1 27  1  1  0  0  0
  1 14  1  0  0  0  0
  2  1  1  0  0  0  0
  3  5  1  0  0  0  0
  4 13  1  0  0  0  0
  4  2  1  1  0  0  0
  5 12  2  0  0  0  0
  6  4  1  0  0  0  0
  7  8  2  0  0  0  0
  8  6  1  0  0  0  0
  8 12  1  0  0  0  0
  9  3  1  0  0  0  0
 11  7  1  0  0  0  0
 11  3  2  0  0  0  0
 12 13  1  0  0  0  0
 13 10  1  1  0  0  0
 14 15  1  1  0  0  0
 14 18  1  0  0  0  0
 15 17  1  0  0  0  0
 17 16  1  0  0  0  0
 18 21  1  0  0  0  0
 20 23  1  6  0  0  0
 20 22  1  0  0  0  0
 21 19  1  6  0  0  0
 21 20  1  0  0  0  0
 21 22  1  0  0  0  0
 23 26  1  0  0  0  0
 24 23  1  0  0  0  0
 25 26  1  0  0  0  0
 28 33  2  0  0  0  0
 29 34  1  0  0  0  0
 29 32  2  0  0  0  0
 30 28  1  1  0  0  0
 30 29  1  0  0  0  0
 31 35  2  0  0  0  0
 31 30  1  0  0  0  0
 33 32  1  0  0  0  0
 33 27  1  0  0  0  0
 35 36  1  0  0  0  0
 36 34  2  0  0  0  0
 37 39  1  0  0  0  0
 37 31  1  0  0  0  0
 38 42  1  0  0  0  0
 38 39  1  0  0  0  0
 39 41  2  0  0  0  0
 40 38  1  0  0  0  0
 42 43  2  0  0  0  0
 43 41  1  0  0  0  0
M  END
>  <MODEL>
5

>  <REMARK>
 VINA RESULT:      -7.5      3.442      8.387
  Name = 
  13 active torsions:
  status: ('A' for Active; 'I' for Inactive)
    1  A    between atoms: C_3  and  C_25
    2  A    between atoms: C_3  and  C_27
    3  A    between atoms: C_4  and  C_13
    4  A    between atoms: C_4  and  C_21
    5  A    between atoms: C_8  and  C_22
    6  A    between atoms: C_9  and  C_22
    7  A    between atoms: C_14  and  N_37
    8  A    between atoms: C_19  and  C_26
    9  A    between atoms: C_19  and  C_27
   10  A    between atoms: C_21  and  C_27
   11  A    between atoms: C_21  and  C_35
   12  A    between atoms: C_23  and  C_35
   13  A    between atoms: C_36  and  N_37
                            x       y       z     vdW  Elec       q    Type
                         _______ _______ _______ _____ _____    ______ ____

>  <TORSDO>
F 13

$$$$
=
 OpenBabel10222417223D

 43 48  0  0  1  0  0  0  0  0999 V2000
  184.5670  179.0080  142.1560 C   0  0  1  0  0  3  0  0  0  0  0  0
  184.3780  177.7510  141.2850 C   0  0  0  0  0  2  0  0  0  0  0  0
  180.6000  180.9470  137.6970 C   0  0  0  0  0  0  0  0  0  0  0  0
  183.6370  178.0660  139.9900 C   0  0  1  0  0  3  0  0  0  0  0  0
  181.8220  180.9240  138.3800 C   0  0  0  0  0  3  0  0  0  0  0  0
  181.9840  177.2710  140.0060 S   0  0  0  0  0  0  0  0  0  0  0  0
  180.1670  178.6520  138.3700 C   0  0  0  0  0  3  0  0  0  0  0  0
  181.3780  178.6470  139.0590 C   0  0  0  0  0  0  0  0  0  0  0  0
  180.1810  182.1780  136.9810 C   0  0  0  0  0  1  0  0  0  0  0  0
  184.5700  180.1270  139.1230 O   0  0  0  0  0  1  0  0  0  0  0  0
  179.7780  179.8060  137.6720 C   0  0  0  0  0  3  0  0  0  0  0  0
  182.2130  179.7550  139.0440 C   0  0  0  0  0  0  0  0  0  0  0  0
  183.4700  179.5840  139.8090 C   0  0  1  0  0  3  0  0  0  0  0  0
  184.1740  178.8020  143.6360 C   0  0  2  0  0  3  0  0  0  0  0  0
  182.8310  179.4720  143.9680 C   0  0  0  0  0  2  0  0  0  0  0  0
  180.8240  180.0790  142.7760 O   0  0  0  0  0  1  0  0  0  0  0  0
  181.6820  179.0070  143.0810 C   0  0  0  0  0  2  0  0  0  0  0  0
  185.2700  179.2540  144.6110 C   0  0  0  0  0  2  0  0  0  0  0  0
  186.0560  176.9120  145.1870 O   0  0  0  0  0  1  0  0  0  0  0  0
  186.4410  178.7620  146.7830 C   0  0  1  0  0  3  0  0  0  0  0  0
  185.6470  178.1810  145.6220 C   0  0  1  0  0  0  0  0  0  0  0  0
  185.0320  178.2090  146.9930 C   0  0  0  0  0  2  0  0  0  0  0  0
  187.5220  177.8380  147.1640 N   0  0  0  0  0  0  0  0  0  0  0  0
  188.6270  178.0800  146.2290 C   0  0  0  0  0  1  0  0  0  0  0  0
  189.4260  178.2470  148.4560 O   0  0  0  0  0  1  0  0  0  0  0  0
  188.0280  178.0950  148.5190 C   0  0  0  0  0  2  0  0  0  0  0  0
  185.9600  179.6140  141.9770 C   0  0  0  0  0  2  0  0  0  0  0  0
  187.4400  178.4510  140.3310 C   0  0  0  0  0  3  0  0  0  0  0  0
  188.6560  177.2690  141.8690 C   0  0  0  0  0  0  0  0  0  0  0  0
  188.4960  177.3990  140.3950 C   0  0  2  0  0  3  0  0  0  0  0  0
  189.7970  177.7300  139.7090 C   0  0  0  0  0  0  0  0  0  0  0  0
  187.7920  177.9530  142.5300 N   0  0  0  0  0  0  0  0  0  0  0  0
  186.9960  178.6260  141.5700 C   0  0  0  0  0  0  0  0  0  0  0  0
  189.8910  176.8550  142.4380 N   0  0  0  0  0  0  0  0  0  0  0  0
  190.9630  177.3790  140.2660 C   0  0  0  0  0  3  0  0  0  0  0  0
  191.0280  176.8590  141.6080 N   0  0  0  0  0  0  0  0  0  0  0  0
  189.7940  178.1390  138.2690 C   0  0  0  0  0  2  0  0  0  0  0  0
  188.0720  177.1150  136.7420 N   0  0  0  0  0  0  0  0  0  0  0  0
  189.2290  177.0370  137.4310 C   0  0  0  0  0  0  0  0  0  0  0  0
  187.1970  178.2780  136.6260 C   0  0  0  0  0  1  0  0  0  0  0  0
  189.7100  175.7420  137.3800 C   0  0  0  0  0  3  0  0  0  0  0  0
  187.8110  175.9410  136.2020 N   0  0  0  0  0  0  0  0  0  0  0  0
  188.7870  175.0830  136.5760 C   0  0  0  0  0  3  0  0  0  0  0  0
  1  2  1  6  0  0  0
  1 14  1  0  0  0  0
  3  5  1  0  0  0  0
  4  6  1  0  0  0  0
  4  2  1  1  0  0  0
  5 12  2  0  0  0  0
  7  8  2  0  0  0  0
  8  6  1  0  0  0  0
  9  3  1  0  0  0  0
 11  3  2  0  0  0  0
 11  7  1  0  0  0  0
 12  8  1  0  0  0  0
 12 13  1  0  0  0  0
 13 10  1  6  0  0  0
 13  4  1  0  0  0  0
 14 15  1  1  0  0  0
 14 18  1  0  0  0  0
 16 17  1  0  0  0  0
 17 15  1  0  0  0  0
 18 21  1  0  0  0  0
 20 22  1  0  0  0  0
 20 23  1  1  0  0  0
 21 19  1  6  0  0  0
 21 20  1  0  0  0  0
 21 22  1  0  0  0  0
 23 26  1  0  0  0  0
 24 23  1  0  0  0  0
 25 26  1  0  0  0  0
 27  1  1  0  0  0  0
 28 33  2  0  0  0  0
 29 34  1  0  0  0  0
 29 32  2  0  0  0  0
 30 28  1  1  0  0  0
 30 29  1  0  0  0  0
 31 35  2  0  0  0  0
 31 30  1  0  0  0  0
 33 27  1  0  0  0  0
 33 32  1  0  0  0  0
 35 36  1  0  0  0  0
 36 34  2  0  0  0  0
 37 31  1  0  0  0  0
 38 39  1  0  0  0  0
 39 37  1  0  0  0  0
 40 38  1  0  0  0  0
 41 39  2  0  0  0  0
 42 43  2  0  0  0  0
 42 38  1  0  0  0  0
 43 41  1  0  0  0  0
M  END
>  <MODEL>
6

>  <REMARK>
 VINA RESULT:      -7.4      4.148      8.513
  Name = 
  13 active torsions:
  status: ('A' for Active; 'I' for Inactive)
    1  A    between atoms: C_3  and  C_25
    2  A    between atoms: C_3  and  C_27
    3  A    between atoms: C_4  and  C_13
    4  A    between atoms: C_4  and  C_21
    5  A    between atoms: C_8  and  C_22
    6  A    between atoms: C_9  and  C_22
    7  A    between atoms: C_14  and  N_37
    8  A    between atoms: C_19  and  C_26
    9  A    between atoms: C_19  and  C_27
   10  A    between atoms: C_21  and  C_27
   11  A    between atoms: C_21  and  C_35
   12  A    between atoms: C_23  and  C_35
   13  A    between atoms: C_36  and  N_37
                            x       y       z     vdW  Elec       q    Type
                         _______ _______ _______ _____ _____    ______ ____

>  <TORSDO>
F 13

$$$$
=
 OpenBabel10222417223D

 43 48  0  0  1  0  0  0  0  0999 V2000
  182.4650  178.8530  139.7050 C   0  0  1  0  0  3  0  0  0  0  0  0
  182.5460  178.0320  141.0070 C   0  0  0  0  0  2  0  0  0  0  0  0
  186.5070  178.2000  145.6590 C   0  0  0  0  0  0  0  0  0  0  0  0
  183.4260  178.7120  142.0500 C   0  0  1  0  0  3  0  0  0  0  0  0
  186.3040  177.8920  144.3080 C   0  0  0  0  0  3  0  0  0  0  0  0
  182.4960  178.9110  143.6180 S   0  0  0  0  0  0  0  0  0  0  0  0
  184.2250  179.0190  145.8290 C   0  0  0  0  0  3  0  0  0  0  0  0
  184.0310  178.6930  144.4870 C   0  0  0  0  0  0  0  0  0  0  0  0
  187.8250  177.9250  146.2850 C   0  0  0  0  0  1  0  0  0  0  0  0
  185.7270  178.2700  141.4340 O   0  0  0  0  0  1  0  0  0  0  0  0
  185.4770  178.7820  146.4180 C   0  0  0  0  0  3  0  0  0  0  0  0
  185.0610  178.1640  143.7240 C   0  0  0  0  0  0  0  0  0  0  0  0
  184.6990  177.8900  142.3130 C   0  0  1  0  0  3  0  0  0  0  0  0
  181.3690  179.9430  139.7260 C   0  0  2  0  0  3  0  0  0  0  0  0
  180.1560  179.5140  140.5660 C   0  0  0  0  0  2  0  0  0  0  0  0
  179.2560  180.0080  142.7490 O   0  0  0  0  0  1  0  0  0  0  0  0
  179.6790  180.5860  141.5390 C   0  0  0  0  0  2  0  0  0  0  0  0
  180.9370  180.3790  138.3190 C   0  0  0  0  0  2  0  0  0  0  0  0
  182.0410  182.6600  138.2120 O   0  0  0  0  0  1  0  0  0  0  0  0
  179.8710  182.2940  137.0830 C   0  0  1  0  0  3  0  0  0  0  0  0
  180.8700  181.8900  138.1570 C   0  0  1  0  0  0  0  0  0  0  0  0
  179.6170  182.6190  138.5540 C   0  0  0  0  0  2  0  0  0  0  0  0
  180.4080  183.4140  136.2940 N   0  0  0  0  0  0  0  0  0  0  0  0
  180.8400  182.8510  135.0090 C   0  0  0  0  0  1  0  0  0  0  0  0
  179.6800  185.5830  136.7690 O   0  0  0  0  0  1  0  0  0  0  0  0
  179.3930  184.4360  136.0060 C   0  0  0  0  0  2  0  0  0  0  0  0
  183.8380  179.3820  139.2850 C   0  0  0  0  0  2  0  0  0  0  0  0
  185.8240  178.6390  137.9610 C   0  0  0  0  0  3  0  0  0  0  0  0
  184.9270  176.6600  137.2390 C   0  0  0  0  0  0  0  0  0  0  0  0
  186.1410  177.5000  137.0510 C   0  0  2  0  0  3  0  0  0  0  0  0
  187.4080  176.7430  137.3600 C   0  0  0  0  0  0  0  0  0  0  0  0
  184.0270  177.2320  137.9570 N   0  0  0  0  0  0  0  0  0  0  0  0
  184.5610  178.4880  138.3400 C   0  0  0  0  0  0  0  0  0  0  0  0
  184.9780  175.2500  137.0720 N   0  0  0  0  0  0  0  0  0  0  0  0
  187.4450  175.4100  137.2450 C   0  0  0  0  0  3  0  0  0  0  0  0
  186.2470  174.6430  137.0170 N   0  0  0  0  0  0  0  0  0  0  0  0
  188.7070  177.4820  137.4660 C   0  0  0  0  0  2  0  0  0  0  0  0
  190.3430  176.4590  139.0840 N   0  0  0  0  0  0  0  0  0  0  0  0
  189.2990  177.2720  138.8220 C   0  0  0  0  0  0  0  0  0  0  0  0
  191.1240  175.6940  138.1170 C   0  0  0  0  0  1  0  0  0  0  0  0
  188.7650  177.7350  140.0100 C   0  0  0  0  0  3  0  0  0  0  0  0
  190.5430  176.4180  140.3870 N   0  0  0  0  0  0  0  0  0  0  0  0
  189.5950  177.1800  140.9790 C   0  0  0  0  0  3  0  0  0  0  0  0
  1 27  1  1  0  0  0
  1 14  1  0  0  0  0
  1  2  1  0  0  0  0
  3  9  1  0  0  0  0
  3 11  1  0  0  0  0
  4  2  1  6  0  0  0
  4 13  1  0  0  0  0
  4  6  1  0  0  0  0
  5  3  2  0  0  0  0
  6  8  1  0  0  0  0
  7 11  2  0  0  0  0
  8  7  1  0  0  0  0
 12  5  1  0  0  0  0
 12  8  2  0  0  0  0
 13 10  1  6  0  0  0
 13 12  1  0  0  0  0
 14 18  1  6  0  0  0
 14 15  1  0  0  0  0
 15 17  1  0  0  0  0
 17 16  1  0  0  0  0
 20 23  1  6  0  0  0
 20 21  1  0  0  0  0
 20 22  1  0  0  0  0
 21 19  1  1  0  0  0
 21 18  1  0  0  0  0
 21 22  1  0  0  0  0
 24 23  1  0  0  0  0
 26 23  1  0  0  0  0
 26 25  1  0  0  0  0
 28 33  2  0  0  0  0
 29 32  2  0  0  0  0
 30 29  1  0  0  0  0
 30 31  1  0  0  0  0
 30 28  1  1  0  0  0
 31 37  1  0  0  0  0
 32 33  1  0  0  0  0
 33 27  1  0  0  0  0
 34 29  1  0  0  0  0
 35 31  2  0  0  0  0
 36 34  2  0  0  0  0
 36 35  1  0  0  0  0
 37 39  1  0  0  0  0
 38 42  1  0  0  0  0
 39 38  1  0  0  0  0
 39 41  2  0  0  0  0
 40 38  1  0  0  0  0
 41 43  1  0  0  0  0
 42 43  2  0  0  0  0
M  END
>  <MODEL>
7

>  <REMARK>
 VINA RESULT:      -7.4      4.894     10.714
  Name = 
  13 active torsions:
  status: ('A' for Active; 'I' for Inactive)
    1  A    between atoms: C_3  and  C_25
    2  A    between atoms: C_3  and  C_27
    3  A    between atoms: C_4  and  C_13
    4  A    between atoms: C_4  and  C_21
    5  A    between atoms: C_8  and  C_22
    6  A    between atoms: C_9  and  C_22
    7  A    between atoms: C_14  and  N_37
    8  A    between atoms: C_19  and  C_26
    9  A    between atoms: C_19  and  C_27
   10  A    between atoms: C_21  and  C_27
   11  A    between atoms: C_21  and  C_35
   12  A    between atoms: C_23  and  C_35
   13  A    between atoms: C_36  and  N_37
                            x       y       z     vdW  Elec       q    Type
                         _______ _______ _______ _____ _____    ______ ____

>  <TORSDO>
F 13

$$$$
=
 OpenBabel10222417223D

 43 48  0  0  1  0  0  0  0  0999 V2000
  183.8160  178.3080  140.3470 C   0  0  1  0  0  3  0  0  0  0  0  0
  184.0090  179.0170  141.7020 C   0  0  0  0  0  2  0  0  0  0  0  0
  187.4120  177.8670  146.6460 C   0  0  0  0  0  0  0  0  0  0  0  0
  184.7280  178.1270  142.7080 C   0  0  1  0  0  3  0  0  0  0  0  0
  186.1890  178.3390  146.1540 C   0  0  0  0  0  3  0  0  0  0  0  0
  186.4700  177.8790  142.1880 S   0  0  0  0  0  0  0  0  0  0  0  0
  188.1260  177.3230  144.3870 C   0  0  0  0  0  3  0  0  0  0  0  0
  186.9120  177.8110  143.9080 C   0  0  0  0  0  0  0  0  0  0  0  0
  187.6820  177.9080  148.1060 C   0  0  0  0  0  1  0  0  0  0  0  0
  183.5540  178.3440  144.8160 O   0  0  0  0  0  1  0  0  0  0  0  0
  188.3760  177.3390  145.7690 C   0  0  0  0  0  3  0  0  0  0  0  0
  185.9400  178.2870  144.7770 C   0  0  0  0  0  0  0  0  0  0  0  0
  184.7000  178.7520  144.1130 C   0  0  1  0  0  3  0  0  0  0  0  0
  182.3690  177.8210  140.1030 C   0  0  2  0  0  3  0  0  0  0  0  0
  182.3350  176.3700  139.5980 C   0  0  0  0  0  2  0  0  0  0  0  0
  180.0460  175.6450  139.3680 O   0  0  0  0  0  1  0  0  0  0  0  0
  181.1900  175.5490  140.1800 C   0  0  0  0  0  2  0  0  0  0  0  0
  181.5790  178.7470  139.1680 C   0  0  0  0  0  2  0  0  0  0  0  0
  179.0600  178.6690  139.4530 O   0  0  0  0  0  1  0  0  0  0  0  0
  180.4700  179.5980  141.2600 C   0  0  1  0  0  3  0  0  0  0  0  0
  180.2870  179.2580  139.7880 C   0  0  1  0  0  0  0  0  0  0  0  0
  180.1970  180.6920  140.2300 C   0  0  0  0  0  2  0  0  0  0  0  0
  179.2860  179.1710  142.0240 N   0  0  0  0  0  0  0  0  0  0  0  0
  179.6420  177.9030  142.6710 C   0  0  0  0  0  1  0  0  0  0  0  0
  178.9730  179.4520  144.3230 O   0  0  0  0  0  1  0  0  0  0  0  0
  178.9310  180.1220  143.0870 C   0  0  0  0  0  2  0  0  0  0  0  0
  184.3800  179.1360  139.1900 C   0  0  0  0  0  2  0  0  0  0  0  0
  186.4870  178.6310  137.9440 C   0  0  0  0  0  3  0  0  0  0  0  0
  185.8100  176.6150  137.0970 C   0  0  0  0  0  0  0  0  0  0  0  0
  186.9500  177.5660  137.0070 C   0  0  2  0  0  3  0  0  0  0  0  0
  188.2640  176.9120  137.3520 C   0  0  0  0  0  0  0  0  0  0  0  0
  184.8280  177.0730  137.7890 N   0  0  0  0  0  0  0  0  0  0  0  0
  185.2260  178.3530  138.2500 C   0  0  0  0  0  0  0  0  0  0  0  0
  185.9960  175.2240  136.8760 N   0  0  0  0  0  0  0  0  0  0  0  0
  188.4270  175.5930  137.1850 C   0  0  0  0  0  3  0  0  0  0  0  0
  187.3160  174.7340  136.8640 N   0  0  0  0  0  0  0  0  0  0  0  0
  189.4840  177.7570  137.5550 C   0  0  0  0  0  2  0  0  0  0  0  0
  191.1420  176.9480  139.2690 N   0  0  0  0  0  0  0  0  0  0  0  0
  189.9950  177.5800  138.9490 C   0  0  0  0  0  0  0  0  0  0  0  0
  192.1210  176.3840  138.3440 C   0  0  0  0  0  1  0  0  0  0  0  0
  189.2950  177.8780  140.1030 C   0  0  0  0  0  3  0  0  0  0  0  0
  191.2430  176.8720  140.5820 N   0  0  0  0  0  0  0  0  0  0  0  0
  190.1310  177.4250  141.1180 C   0  0  0  0  0  3  0  0  0  0  0  0
  1 27  1  6  0  0  0
  1  2  1  0  0  0  0
  3  9  1  0  0  0  0
  4  2  1  6  0  0  0
  4 13  1  0  0  0  0
  5  3  1  0  0  0  0
  6  4  1  0  0  0  0
  6  8  1  0  0  0  0
  7 11  1  0  0  0  0
  8  7  2  0  0  0  0
  8 12  1  0  0  0  0
 11  3  2  0  0  0  0
 12  5  2  0  0  0  0
 13 12  1  0  0  0  0
 13 10  1  1  0  0  0
 14 18  1  6  0  0  0
 14  1  1  0  0  0  0
 15 14  1  0  0  0  0
 15 17  1  0  0  0  0
 16 17  1  0  0  0  0
 18 21  1  0  0  0  0
 20 23  1  1  0  0  0
 21 19  1  6  0  0  0
 21 22  1  0  0  0  0
 21 20  1  0  0  0  0
 22 20  1  0  0  0  0
 23 24  1  0  0  0  0
 23 26  1  0  0  0  0
 26 25  1  0  0  0  0
 28 33  2  0  0  0  0
 29 32  2  0  0  0  0
 30 29  1  0  0  0  0
 30 31  1  0  0  0  0
 30 28  1  1  0  0  0
 31 37  1  0  0  0  0
 32 33  1  0  0  0  0
 33 27  1  0  0  0  0
 34 29  1  0  0  0  0
 35 31  2  0  0  0  0
 36 34  2  0  0  0  0
 36 35  1  0  0  0  0
 37 39  1  0  0  0  0
 38 42  1  0  0  0  0
 39 38  1  0  0  0  0
 39 41  2  0  0  0  0
 40 38  1  0  0  0  0
 41 43  1  0  0  0  0
 42 43  2  0  0  0  0
M  END
>  <MODEL>
8

>  <REMARK>
 VINA RESULT:      -7.3      4.577     10.393
  Name = 
  13 active torsions:
  status: ('A' for Active; 'I' for Inactive)
    1  A    between atoms: C_3  and  C_25
    2  A    between atoms: C_3  and  C_27
    3  A    between atoms: C_4  and  C_13
    4  A    between atoms: C_4  and  C_21
    5  A    between atoms: C_8  and  C_22
    6  A    between atoms: C_9  and  C_22
    7  A    between atoms: C_14  and  N_37
    8  A    between atoms: C_19  and  C_26
    9  A    between atoms: C_19  and  C_27
   10  A    between atoms: C_21  and  C_27
   11  A    between atoms: C_21  and  C_35
   12  A    between atoms: C_23  and  C_35
   13  A    between atoms: C_36  and  N_37
                            x       y       z     vdW  Elec       q    Type
                         _______ _______ _______ _____ _____    ______ ____

>  <TORSDO>
F 13

$$$$
=
 OpenBabel10222417223D

 43 48  0  0  1  0  0  0  0  0999 V2000
  189.8300  177.6320  138.3440 C   0  0  1  0  0  3  0  0  0  0  0  0
  189.2310  176.8430  139.5250 C   0  0  0  0  0  2  0  0  0  0  0  0
  190.6060  177.0080  145.4780 C   0  0  0  0  0  0  0  0  0  0  0  0
  189.5140  177.5220  140.8600 C   0  0  1  0  0  3  0  0  0  0  0  0
  191.0540  176.7210  144.1830 C   0  0  0  0  0  3  0  0  0  0  0  0
  187.9620  177.6720  141.8270 S   0  0  0  0  0  0  0  0  0  0  0  0
  188.4790  177.7750  144.5850 C   0  0  0  0  0  3  0  0  0  0  0  0
  188.9310  177.4700  143.3030 C   0  0  0  0  0  0  0  0  0  0  0  0
  191.4950  176.7490  146.6380 C   0  0  0  0  0  1  0  0  0  0  0  0
  191.8530  177.1400  141.3680 O   0  0  0  0  0  1  0  0  0  0  0  0
  189.3260  177.5540  145.6830 C   0  0  0  0  0  3  0  0  0  0  0  0
  190.2120  176.9770  143.0950 C   0  0  0  0  0  0  0  0  0  0  0  0
  190.5460  176.7230  141.6740 C   0  0  1  0  0  3  0  0  0  0  0  0
  190.7760  176.7940  137.4550 C   0  0  2  0  0  3  0  0  0  0  0  0
  190.0010  175.9890  136.4000 C   0  0  0  0  0  2  0  0  0  0  0  0
  188.8760  173.8830  136.7390 O   0  0  0  0  0  1  0  0  0  0  0  0
  190.1370  174.4790  136.5640 C   0  0  0  0  0  2  0  0  0  0  0  0
  191.7060  175.8830  138.2680 C   0  0  0  0  0  2  0  0  0  0  0  0
  193.9310  176.7920  139.0800 O   0  0  0  0  0  1  0  0  0  0  0  0
  193.8830  175.0830  137.2930 C   0  0  1  0  0  3  0  0  0  0  0  0
  193.1800  176.1960  138.0570 C   0  0  1  0  0  0  0  0  0  0  0  0
  193.6860  176.4630  136.6670 C   0  0  0  0  0  2  0  0  0  0  0  0
  195.2230  174.8560  137.8590 N   0  0  0  0  0  0  0  0  0  0  0  0
  195.1180  173.6720  138.7190 C   0  0  0  0  0  1  0  0  0  0  0  0
  197.1400  175.6280  136.7680 O   0  0  0  0  0  1  0  0  0  0  0  0
  196.2260  174.5600  136.8260 C   0  0  0  0  0  2  0  0  0  0  0  0
  188.7490  178.3710  137.5520 C   0  0  0  0  0  2  0  0  0  0  0  0
  186.4750  178.4780  138.5850 C   0  0  0  0  0  3  0  0  0  0  0  0
  185.5830  176.7160  137.4270 C   0  0  0  0  0  0  0  0  0  0  0  0
  185.2290  177.6590  138.5210 C   0  0  2  0  0  3  0  0  0  0  0  0
  183.9580  178.4170  138.2290 C   0  0  0  0  0  0  0  0  0  0  0  0
  186.8040  176.8300  137.0400 N   0  0  0  0  0  0  0  0  0  0  0  0
  187.3700  177.8750  137.8130 C   0  0  0  0  0  0  0  0  0  0  0  0
  184.5790  176.1390  136.6030 N   0  0  0  0  0  0  0  0  0  0  0  0
  183.0300  177.8930  137.4180 C   0  0  0  0  0  3  0  0  0  0  0  0
  183.2890  176.7010  136.6520 N   0  0  0  0  0  0  0  0  0  0  0  0
  183.5720  179.5800  139.0900 C   0  0  0  0  0  2  0  0  0  0  0  0
  182.0530  178.9210  140.9880 N   0  0  0  0  0  0  0  0  0  0  0  0
  183.2880  179.1090  140.4800 C   0  0  0  0  0  0  0  0  0  0  0  0
  180.7830  179.0710  140.2840 C   0  0  0  0  0  1  0  0  0  0  0  0
  184.2270  178.9670  141.4860 C   0  0  0  0  0  3  0  0  0  0  0  0
  182.1530  178.6100  142.2650 N   0  0  0  0  0  0  0  0  0  0  0  0
  183.4640  178.6350  142.6000 C   0  0  0  0  0  3  0  0  0  0  0  0
  1 27  1  6  0  0  0
  1  2  1  0  0  0  0
  3 11  1  0  0  0  0
  3  9  1  0  0  0  0
  4  2  1  6  0  0  0
  4 13  1  0  0  0  0
  4  6  1  0  0  0  0
  5  3  2  0  0  0  0
  6  8  1  0  0  0  0
  7 11  2  0  0  0  0
  8  7  1  0  0  0  0
 12  8  2  0  0  0  0
 12  5  1  0  0  0  0
 13 10  1  1  0  0  0
 13 12  1  0  0  0  0
 14 15  1  6  0  0  0
 14 18  1  0  0  0  0
 14  1  1  0  0  0  0
 15 17  1  0  0  0  0
 17 16  1  0  0  0  0
 20 23  1  1  0  0  0
 20 21  1  0  0  0  0
 21 18  1  0  0  0  0
 21 19  1  1  0  0  0
 22 20  1  0  0  0  0
 22 21  1  0  0  0  0
 23 24  1  0  0  0  0
 25 26  1  0  0  0  0
 26 23  1  0  0  0  0
 27 33  1  0  0  0  0
 29 30  1  0  0  0  0
 30 28  1  6  0  0  0
 31 30  1  0  0  0  0
 31 37  1  0  0  0  0
 32 29  2  0  0  0  0
 32 33  1  0  0  0  0
 33 28  2  0  0  0  0
 34 36  2  0  0  0  0
 34 29  1  0  0  0  0
 35 31  2  0  0  0  0
 36 35  1  0  0  0  0
 37 39  1  0  0  0  0
 38 42  1  0  0  0  0
 39 38  1  0  0  0  0
 39 41  2  0  0  0  0
 40 38  1  0  0  0  0
 41 43  1  0  0  0  0
 42 43  2  0  0  0  0
M  END
>  <MODEL>
9

>  <REMARK>
 VINA RESULT:      -7.2      2.915      6.090
  Name = 
  13 active torsions:
  status: ('A' for Active; 'I' for Inactive)
    1  A    between atoms: C_3  and  C_25
    2  A    between atoms: C_3  and  C_27
    3  A    between atoms: C_4  and  C_13
    4  A    between atoms: C_4  and  C_21
    5  A    between atoms: C_8  and  C_22
    6  A    between atoms: C_9  and  C_22
    7  A    between atoms: C_14  and  N_37
    8  A    between atoms: C_19  and  C_26
    9  A    between atoms: C_19  and  C_27
   10  A    between atoms: C_21  and  C_27
   11  A    between atoms: C_21  and  C_35
   12  A    between atoms: C_23  and  C_35
   13  A    between atoms: C_36  and  N_37
                            x       y       z     vdW  Elec       q    Type
                         _______ _______ _______ _____ _____    ______ ____

>  <TORSDO>
F 13

$$$$
