=
 OpenBabel10222417043D

 55 62  0  0  1  0  0  0  0  0999 V2000
  188.1120  177.2840  139.6500 C   0  0  2  0  0  3  0  0  0  0  0  0
  190.9830  176.4550  137.3410 C   0  0  2  0  0  3  0  0  0  0  0  0
  189.6100  177.1500  139.4870 C   0  0  0  0  0  2  0  0  0  0  0  0
  185.9720  178.9250  134.5940 F   0  0  0  0  0  0  0  0  0  0  0  0
  188.8710  178.6300  136.9010 C   0  0  0  0  0  2  0  0  0  0  0  0
  189.6650  176.5540  138.1240 C   0  0  1  0  0  3  0  0  0  0  0  0
  187.7120  179.2050  136.1230 C   0  0  0  0  0  3  0  0  0  0  0  0
  188.5110  177.2180  137.4100 C   0  0  1  0  0  0  0  0  0  0  0  0
  187.4900  177.3530  138.3770 O   0  0  0  0  0  0  0  0  0  0  0  0
  187.2590  176.9610  135.2940 C   0  0  0  0  0  3  0  0  0  0  0  0
  190.0970  175.1770  135.5120 C   0  0  0  0  0  2  0  0  0  0  0  0
  188.0270  176.3820  136.2290 C   0  0  0  0  0  0  0  0  0  0  0  0
  191.0140  175.1330  136.6680 N   0  0  1  0  0  0  0  0  0  0  0  0
  186.9630  178.4040  135.3560 C   0  0  0  0  0  0  0  0  0  0  0  0
  188.6140  175.0420  135.8910 C   0  0  2  0  0  3  0  0  0  0  0  0
  192.1790  176.6880  138.2740 C   0  0  0  0  0  1  0  0  0  0  0  0
  192.9090  175.8960  135.3240 C   0  0  0  0  0  2  0  0  0  0  0  0
  192.3780  174.7910  136.2050 C   0  0  1  0  0  3  0  0  0  0  0  0
  194.4930  175.2380  136.9230 C   0  0  2  0  0  3  0  0  0  0  0  0
  193.2860  174.6050  137.2740 O   0  0  0  0  0  0  0  0  0  0  0  0
  194.3800  175.8020  135.5280 C   0  0  0  0  0  2  0  0  0  0  0  0
  195.5860  174.2780  136.9870 N   0  0  0  0  0  2  0  0  0  0  0  0
  195.9910  174.0350  138.6550 S   0  0  0  0  0  0  0  0  0  0  0  0
  197.6550  173.9390  138.8270 F   0  0  0  0  0  0  0  0  0  0  0  0
  195.3710  172.7530  139.1300 O   0  0  0  0  0  0  0  0  0  0  0  0
  195.4690  175.1750  139.4800 O   0  0  0  0  0  0  0  0  0  0  0  0
  185.7920  177.6140  141.2540 O   0  0  0  0  0  0  0  0  0  0  0  0
  186.6370  178.5500  141.2570 C   0  0  0  0  0  0  0  0  0  0  0  0
  186.4690  179.6720  142.1270 N   0  0  0  0  0  2  0  0  0  0  0  0
  187.7990  178.4680  140.4370 N   0  0  0  0  0  2  0  0  0  0  0  0
  185.2810  179.9400  142.8310 N   0  0  0  0  0  2  0  0  0  0  0  0
  184.9210  179.2840  144.0490 C   0  0  0  0  0  0  0  0  0  0  0  0
  183.3830  178.7510  144.2190 S   0  0  0  0  0  0  0  0  0  0  0  0
  185.8940  179.1440  145.0950 N   0  0  0  0  0  2  0  0  0  0  0  0
  188.2550  176.9770  146.8700 C   0  0  2  0  0  3  0  0  0  0  0  0
  187.0480  177.7410  146.6510 C   0  0  2  0  0  3  0  0  0  0  0  0
  187.8240  177.2310  144.2350 S   0  0  0  0  0  0  0  0  0  0  0  0
  188.9090  177.6700  147.9840 N   0  0  0  0  0  2  0  0  0  0  0  0
  189.0520  177.1160  145.5820 C   0  0  0  0  0  2  0  0  0  0  0  0
  186.7040  178.0010  145.4030 C   0  0  2  0  0  3  0  0  0  0  0  0
  187.9280  178.4700  148.6310 N   0  0  0  0  0  2  0  0  0  0  0  0
  186.8770  178.6320  147.7160 N   0  0  0  0  0  2  0  0  0  0  0  0
  188.3460  173.9690  136.9450 C   0  0  0  0  0  2  0  0  0  0  0  0
  186.2700  169.6920  134.9160 C   0  0  0  0  0  3  0  0  0  0  0  0
  187.8350  171.3900  135.6120 C   0  0  0  0  0  3  0  0  0  0  0  0
  187.5830  170.1590  135.0020 C   0  0  0  0  0  3  0  0  0  0  0  0
  185.8740  174.0900  137.2500 C   0  0  0  0  0  3  0  0  0  0  0  0
  186.9790  173.3850  136.7610 C   0  0  0  0  0  0  0  0  0  0  0  0
  185.4630  171.6360  136.0180 C   0  0  0  0  0  0  0  0  0  0  0  0
  184.4150  172.3500  136.5050 N   0  0  0  0  0  0  0  0  0  0  0  0
  184.5920  173.5550  137.1110 C   0  0  0  0  0  0  0  0  0  0  0  0
  185.2460  170.4330  135.4200 N   0  0  0  0  0  0  0  0  0  0  0  0
  186.7770  172.1430  136.1320 C   0  0  0  0  0  0  0  0  0  0  0  0
  183.4570  174.2830  137.6030 C   0  0  0  0  0  0  0  0  0  0  0  0
  182.5390  174.8680  137.9980 N   0  0  0  0  0  0  0  0  0  0  0  0
  1 30  1  1  0  0  0
  2  6  1  0  0  0  0
  2 16  1  1  0  0  0
  3  1  1  0  0  0  0
  4 14  1  0  0  0  0
  6  3  1  1  0  0  0
  7  5  1  0  0  0  0
  8  5  1  6  0  0  0
  8  6  1  0  0  0  0
  8  9  1  0  0  0  0
  9  1  1  0  0  0  0
 10 14  1  0  0  0  0
 10 12  2  0  0  0  0
 11 15  1  0  0  0  0
 12  8  1  0  0  0  0
 13 11  1  6  0  0  0
 13  2  1  0  0  0  0
 14  7  2  0  0  0  0
 15 12  1  0  0  0  0
 15 43  1  1  0  0  0
 17 21  1  0  0  0  0
 18 17  1  6  0  0  0
 18 13  1  0  0  0  0
 18 20  1  0  0  0  0
 19 22  1  6  0  0  0
 19 20  1  0  0  0  0
 21 19  1  0  0  0  0
 22 23  1  0  0  0  0
 23 24  1  0  0  0  0
 23 25  2  0  0  0  0
 23 26  2  0  0  0  0
 27 28  2  0  0  0  0
 28 29  1  0  0  0  0
 29 31  1  0  0  0  0
 30 28  1  0  0  0  0
 31 32  1  0  0  0  0
 32 33  2  0  0  0  0
 32 34  1  0  0  0  0
 35 39  1  6  0  0  0
 35 38  1  0  0  0  0
 36 35  1  0  0  0  0
 36 42  1  1  0  0  0
 37 40  1  0  0  0  0
 37 39  1  0  0  0  0
 38 41  1  0  0  0  0
 40 34  1  1  0  0  0
 40 36  1  0  0  0  0
 42 41  1  0  0  0  0
 44 46  1  0  0  0  0
 44 52  2  0  0  0  0
 45 53  1  0  0  0  0
 46 45  2  0  0  0  0
 48 43  1  0  0  0  0
 48 47  1  0  0  0  0
 49 53  1  0  0  0  0
 49 50  2  0  0  0  0
 50 51  1  0  0  0  0
 51 47  2  0  0  0  0
 51 54  1  0  0  0  0
 52 49  1  0  0  0  0
 53 48  2  0  0  0  0
 54 55  3  0  0  0  0
M  END
>  <MODEL>
1

>  <REMARK>
 VINA RESULT:      -7.2      0.000      0.000
  Name = 
  11 active torsions:
  status: ('A' for Active; 'I' for Inactive)
    1  A    between atoms: C_3  and  N_54
    2  A    between atoms: N_10  and  S_17
    3  A    between atoms: N_10  and  C_36
    4  A    between atoms: C_23  and  N_25
    5  A    between atoms: C_24  and  C_43
    6  A    between atoms: N_25  and  C_40
    7  A    between atoms: C_30  and  N_34
    8  A    between atoms: N_39  and  N_41
    9  A    between atoms: C_40  and  N_41
   10  A    between atoms: C_43  and  C_47
   11  A    between atoms: C_46  and  C_48
                            x       y       z     vdW  Elec       q    Type
                         _______ _______ _______ _____ _____    ______ ____

>  <TORSDO>
F 11

$$$$
=
 OpenBabel10222417043D

 55 62  0  0  1  0  0  0  0  0999 V2000
  185.4880  174.7650  136.7140 C   0  0  2  0  0  3  0  0  0  0  0  0
  182.9630  177.4870  136.0260 C   0  0  2  0  0  3  0  0  0  0  0  0
  184.2140  175.1620  136.0000 C   0  0  0  0  0  2  0  0  0  0  0  0
  188.7750  179.4420  137.1050 F   0  0  0  0  0  0  0  0  0  0  0  0
  185.9730  177.6230  135.4740 C   0  0  0  0  0  2  0  0  0  0  0  0
  183.9950  176.5060  136.6020 C   0  0  1  0  0  3  0  0  0  0  0  0
  187.3360  178.2170  135.7360 C   0  0  0  0  0  3  0  0  0  0  0  0
  185.3970  177.0380  136.7820 C   0  0  1  0  0  0  0  0  0  0  0  0
  186.1860  175.9230  137.1410 O   0  0  0  0  0  0  0  0  0  0  0  0
  186.5220  178.9220  137.9190 C   0  0  0  0  0  3  0  0  0  0  0  0
  183.1730  179.1280  137.7660 C   0  0  0  0  0  2  0  0  0  0  0  0
  185.4560  178.1120  137.8640 C   0  0  0  0  0  0  0  0  0  0  0  0
  182.2640  178.1340  137.1650 N   0  0  1  0  0  0  0  0  0  0  0  0
  187.5800  178.8390  136.8950 C   0  0  0  0  0  0  0  0  0  0  0  0
  184.2540  178.5150  138.6700 C   0  0  2  0  0  3  0  0  0  0  0  0
  182.0120  176.7620  135.0640 C   0  0  0  0  0  1  0  0  0  0  0  0
  179.8600  178.3200  137.5710 C   0  0  0  0  0  2  0  0  0  0  0  0
  181.0170  178.8020  136.7290 C   0  0  1  0  0  3  0  0  0  0  0  0
  179.8610  180.6570  137.3700 C   0  0  2  0  0  3  0  0  0  0  0  0
  181.0860  180.2100  136.8380 O   0  0  0  0  0  0  0  0  0  0  0  0
  178.9310  179.4820  137.5500 C   0  0  0  0  0  2  0  0  0  0  0  0
  179.2650  181.6350  136.4720 N   0  0  0  0  0  2  0  0  0  0  0  0
  180.2590  183.0560  136.4870 S   0  0  0  0  0  0  0  0  0  0  0  0
  179.3010  184.4160  136.6860 F   0  0  0  0  0  0  0  0  0  0  0  0
  180.9950  183.1560  135.1830 O   0  0  0  0  0  0  0  0  0  0  0  0
  181.2500  182.9750  137.6120 O   0  0  0  0  0  0  0  0  0  0  0  0
  188.0070  173.6560  137.4160 O   0  0  0  0  0  0  0  0  0  0  0  0
  187.5580  173.3960  136.2670 C   0  0  0  0  0  0  0  0  0  0  0  0
  188.2510  172.4840  135.4100 N   0  0  0  0  0  2  0  0  0  0  0  0
  186.3220  173.9590  135.8350 N   0  0  0  0  0  2  0  0  0  0  0  0
  189.5560  172.0220  135.6590 N   0  0  0  0  0  2  0  0  0  0  0  0
  190.7170  172.5540  135.0160 C   0  0  0  0  0  0  0  0  0  0  0  0
  191.9140  171.5200  134.5960 S   0  0  0  0  0  0  0  0  0  0  0  0
  190.8180  173.9680  134.7890 N   0  0  0  0  0  2  0  0  0  0  0  0
  193.3740  175.8890  136.5780 C   0  0  2  0  0  3  0  0  0  0  0  0
  192.6530  175.3550  135.4450 C   0  0  2  0  0  3  0  0  0  0  0  0
  190.8680  175.2820  137.3180 S   0  0  0  0  0  0  0  0  0  0  0  0
  194.7020  175.2780  136.4650 N   0  0  0  0  0  2  0  0  0  0  0  0
  192.6270  175.3760  137.8000 C   0  0  0  0  0  2  0  0  0  0  0  0
  191.4080  174.9610  135.6400 C   0  0  2  0  0  3  0  0  0  0  0  0
  194.8510  174.8130  135.1310 N   0  0  0  0  0  2  0  0  0  0  0  0
  193.5580  174.7110  134.5950 N   0  0  0  0  0  2  0  0  0  0  0  0
  183.7310  177.4130  139.5900 C   0  0  0  0  0  2  0  0  0  0  0  0
  180.0380  179.6340  142.4420 C   0  0  0  0  0  3  0  0  0  0  0  0
  181.2590  178.6510  140.6090 C   0  0  0  0  0  3  0  0  0  0  0  0
  180.0850  179.2200  141.1100 C   0  0  0  0  0  3  0  0  0  0  0  0
  184.6550  177.8150  141.8710 C   0  0  0  0  0  3  0  0  0  0  0  0
  183.5760  177.9270  140.9880 C   0  0  0  0  0  0  0  0  0  0  0  0
  182.2840  178.9380  142.7810 C   0  0  0  0  0  0  0  0  0  0  0  0
  183.3530  178.8120  143.6100 N   0  0  0  0  0  0  0  0  0  0  0  0
  184.5250  178.2670  143.1860 C   0  0  0  0  0  0  0  0  0  0  0  0
  181.1280  179.4870  143.2430 N   0  0  0  0  0  0  0  0  0  0  0  0
  182.3730  178.4990  141.4410 C   0  0  0  0  0  0  0  0  0  0  0  0
  185.6350  178.1610  144.0900 C   0  0  0  0  0  0  0  0  0  0  0  0
  186.5290  178.0720  144.8200 N   0  0  0  0  0  0  0  0  0  0  0  0
  1 30  1  6  0  0  0
  1  9  1  0  0  0  0
  2 16  1  6  0  0  0
  2  6  1  0  0  0  0
  2 13  1  0  0  0  0
  3  1  1  0  0  0  0
  5  7  1  0  0  0  0
  6  3  1  6  0  0  0
  6  8  1  0  0  0  0
  7 14  2  0  0  0  0
  8  5  1  6  0  0  0
  8  9  1  0  0  0  0
  8 12  1  0  0  0  0
 11 15  1  0  0  0  0
 12 10  2  0  0  0  0
 12 15  1  0  0  0  0
 13 11  1  6  0  0  0
 14  4  1  0  0  0  0
 14 10  1  0  0  0  0
 15 43  1  6  0  0  0
 18 20  1  0  0  0  0
 18 13  1  0  0  0  0
 18 17  1  1  0  0  0
 19 22  1  6  0  0  0
 19 21  1  0  0  0  0
 20 19  1  0  0  0  0
 21 17  1  0  0  0  0
 22 23  1  0  0  0  0
 23 24  1  0  0  0  0
 23 26  2  0  0  0  0
 25 23  2  0  0  0  0
 28 27  2  0  0  0  0
 29 31  1  0  0  0  0
 29 28  1  0  0  0  0
 30 28  1  0  0  0  0
 32 31  1  0  0  0  0
 33 32  2  0  0  0  0
 34 32  1  0  0  0  0
 35 39  1  1  0  0  0
 36 42  1  1  0  0  0
 36 40  1  0  0  0  0
 36 35  1  0  0  0  0
 37 39  1  0  0  0  0
 38 35  1  0  0  0  0
 40 34  1  1  0  0  0
 40 37  1  0  0  0  0
 41 38  1  0  0  0  0
 42 41  1  0  0  0  0
 43 48  1  0  0  0  0
 44 52  2  0  0  0  0
 45 46  2  0  0  0  0
 45 53  1  0  0  0  0
 46 44  1  0  0  0  0
 47 51  2  0  0  0  0
 48 53  2  0  0  0  0
 48 47  1  0  0  0  0
 49 52  1  0  0  0  0
 49 50  2  0  0  0  0
 51 50  1  0  0  0  0
 51 54  1  0  0  0  0
 53 49  1  0  0  0  0
 54 55  3  0  0  0  0
M  END
>  <MODEL>
2

>  <REMARK>
 VINA RESULT:      -7.2      4.305     10.974
  Name = 
  11 active torsions:
  status: ('A' for Active; 'I' for Inactive)
    1  A    between atoms: C_3  and  N_54
    2  A    between atoms: N_10  and  S_17
    3  A    between atoms: N_10  and  C_36
    4  A    between atoms: C_23  and  N_25
    5  A    between atoms: C_24  and  C_43
    6  A    between atoms: N_25  and  C_40
    7  A    between atoms: C_30  and  N_34
    8  A    between atoms: N_39  and  N_41
    9  A    between atoms: C_40  and  N_41
   10  A    between atoms: C_43  and  C_47
   11  A    between atoms: C_46  and  C_48
                            x       y       z     vdW  Elec       q    Type
                         _______ _______ _______ _____ _____    ______ ____

>  <TORSDO>
F 11

$$$$
=
 OpenBabel10222417043D

 55 62  0  0  1  0  0  0  0  0999 V2000
  186.1470  174.8830  136.3240 C   0  0  2  0  0  3  0  0  0  0  0  0
  183.6700  177.7020  135.8990 C   0  0  2  0  0  3  0  0  0  0  0  0
  185.0180  175.4660  135.5020 C   0  0  0  0  0  2  0  0  0  0  0  0
  189.0540  179.2600  138.6080 F   0  0  0  0  0  0  0  0  0  0  0  0
  186.7200  177.9690  136.0200 C   0  0  0  0  0  2  0  0  0  0  0  0
  184.6180  176.5960  136.3860 C   0  0  1  0  0  3  0  0  0  0  0  0
  187.9740  178.4620  136.7010 C   0  0  0  0  0  3  0  0  0  0  0  0
  185.9300  177.0510  136.9800 C   0  0  1  0  0  0  0  0  0  0  0  0
  186.6890  175.8770  137.1780 O   0  0  0  0  0  0  0  0  0  0  0  0
  186.7160  178.5480  138.7830 C   0  0  0  0  0  3  0  0  0  0  0  0
  183.4540  178.8040  138.0210 C   0  0  0  0  0  2  0  0  0  0  0  0
  185.7230  177.7890  138.2990 C   0  0  0  0  0  0  0  0  0  0  0  0
  182.7310  178.0160  137.0040 N   0  0  1  0  0  0  0  0  0  0  0  0
  187.9550  178.7430  138.0090 C   0  0  0  0  0  0  0  0  0  0  0  0
  184.3680  177.9630  138.9250 C   0  0  2  0  0  3  0  0  0  0  0  0
  182.9630  177.2710  134.6070 C   0  0  0  0  0  1  0  0  0  0  0  0
  180.3300  177.9090  136.5530 C   0  0  0  0  0  2  0  0  0  0  0  0
  181.5610  178.7840  136.5220 C   0  0  1  0  0  3  0  0  0  0  0  0
  179.9130  180.0130  137.5010 C   0  0  2  0  0  3  0  0  0  0  0  0
  181.3040  179.9340  137.3030 O   0  0  0  0  0  0  0  0  0  0  0  0
  179.2320  178.8930  136.7530 C   0  0  0  0  0  2  0  0  0  0  0  0
  179.4220  181.3000  137.0290 N   0  0  0  0  0  2  0  0  0  0  0  0
  179.9450  182.5180  138.1470 S   0  0  0  0  0  0  0  0  0  0  0  0
  181.6070  182.4330  138.3430 F   0  0  0  0  0  0  0  0  0  0  0  0
  179.2780  182.2880  139.4730 O   0  0  0  0  0  0  0  0  0  0  0  0
  179.5720  183.8790  137.6330 O   0  0  0  0  0  0  0  0  0  0  0  0
  187.8570  172.7070  136.9590 O   0  0  0  0  0  0  0  0  0  0  0  0
  187.9710  173.2190  135.8120 C   0  0  0  0  0  0  0  0  0  0  0  0
  188.8510  172.6390  134.8460 N   0  0  0  0  0  2  0  0  0  0  0  0
  187.1760  174.3440  135.4480 N   0  0  0  0  0  2  0  0  0  0  0  0
  189.8080  171.6550  135.1570 N   0  0  0  0  0  2  0  0  0  0  0  0
  191.2140  171.8350  134.9710 C   0  0  0  0  0  0  0  0  0  0  0  0
  192.1630  170.5050  134.8860 S   0  0  0  0  0  0  0  0  0  0  0  0
  191.7570  173.1620  134.9000 N   0  0  0  0  0  2  0  0  0  0  0  0
  193.0790  175.1800  137.6570 C   0  0  2  0  0  3  0  0  0  0  0  0
  192.3500  174.1100  137.0140 C   0  0  2  0  0  3  0  0  0  0  0  0
  194.1170  174.7260  135.2250 S   0  0  0  0  0  0  0  0  0  0  0  0
  192.0330  175.9690  138.3140 N   0  0  0  0  0  2  0  0  0  0  0  0
  193.7300  175.9540  136.5210 C   0  0  0  0  0  2  0  0  0  0  0  0
  192.7010  173.7810  135.7840 C   0  0  2  0  0  3  0  0  0  0  0  0
  190.8750  175.1510  138.4160 N   0  0  0  0  0  2  0  0  0  0  0  0
  191.0320  174.1170  137.4810 N   0  0  0  0  0  2  0  0  0  0  0  0
  183.7330  176.6540  139.3910 C   0  0  0  0  0  2  0  0  0  0  0  0
  179.0730  174.4730  138.8940 C   0  0  0  0  0  3  0  0  0  0  0  0
  181.4200  174.9780  138.6620 C   0  0  0  0  0  3  0  0  0  0  0  0
  180.3220  174.1770  138.3410 C   0  0  0  0  0  3  0  0  0  0  0  0
  182.1140  177.9700  140.7560 C   0  0  0  0  0  3  0  0  0  0  0  0
  182.3420  176.8960  139.8910 C   0  0  0  0  0  0  0  0  0  0  0  0
  179.9840  176.3300  140.0620 C   0  0  0  0  0  0  0  0  0  0  0  0
  179.8020  177.3830  140.9010 N   0  0  0  0  0  0  0  0  0  0  0  0
  180.8300  178.2010  141.2540 C   0  0  0  0  0  0  0  0  0  0  0  0
  178.9310  175.5340  139.7330 N   0  0  0  0  0  0  0  0  0  0  0  0
  181.2660  176.0640  139.5310 C   0  0  0  0  0  0  0  0  0  0  0  0
  180.5940  179.3100  142.1340 C   0  0  0  0  0  0  0  0  0  0  0  0
  180.4020  180.2070  142.8410 N   0  0  0  0  0  0  0  0  0  0  0  0
  1 30  1  6  0  0  0
  1  9  1  0  0  0  0
  2 16  1  6  0  0  0
  2  6  1  0  0  0  0
  2 13  1  0  0  0  0
  3  1  1  0  0  0  0
  5  7  1  0  0  0  0
  6  3  1  6  0  0  0
  6  8  1  0  0  0  0
  7 14  2  0  0  0  0
  8  5  1  6  0  0  0
  8  9  1  0  0  0  0
  8 12  1  0  0  0  0
 11 15  1  0  0  0  0
 12 10  2  0  0  0  0
 12 15  1  0  0  0  0
 13 11  1  1  0  0  0
 14  4  1  0  0  0  0
 14 10  1  0  0  0  0
 15 43  1  6  0  0  0
 17 21  1  0  0  0  0
 18 17  1  1  0  0  0
 18 13  1  0  0  0  0
 18 20  1  0  0  0  0
 19 22  1  6  0  0  0
 20 19  1  0  0  0  0
 21 19  1  0  0  0  0
 22 23  1  0  0  0  0
 23 24  1  0  0  0  0
 23 25  2  0  0  0  0
 26 23  2  0  0  0  0
 28 27  2  0  0  0  0
 29 31  1  0  0  0  0
 29 28  1  0  0  0  0
 30 28  1  0  0  0  0
 32 31  1  0  0  0  0
 33 32  2  0  0  0  0
 34 32  1  0  0  0  0
 35 39  1  6  0  0  0
 35 38  1  0  0  0  0
 36 42  1  6  0  0  0
 36 35  1  0  0  0  0
 37 40  1  0  0  0  0
 37 39  1  0  0  0  0
 38 41  1  0  0  0  0
 40 34  1  6  0  0  0
 40 36  1  0  0  0  0
 42 41  1  0  0  0  0
 43 48  1  0  0  0  0
 44 52  2  0  0  0  0
 45 53  1  0  0  0  0
 46 45  2  0  0  0  0
 46 44  1  0  0  0  0
 47 51  2  0  0  0  0
 48 47  1  0  0  0  0
 49 50  2  0  0  0  0
 50 51  1  0  0  0  0
 51 54  1  0  0  0  0
 52 49  1  0  0  0  0
 53 48  2  0  0  0  0
 53 49  1  0  0  0  0
 54 55  3  0  0  0  0
M  END
>  <MODEL>
3

>  <REMARK>
 VINA RESULT:      -7.0      4.931     10.336
  Name = 
  11 active torsions:
  status: ('A' for Active; 'I' for Inactive)
    1  A    between atoms: C_3  and  N_54
    2  A    between atoms: N_10  and  S_17
    3  A    between atoms: N_10  and  C_36
    4  A    between atoms: C_23  and  N_25
    5  A    between atoms: C_24  and  C_43
    6  A    between atoms: N_25  and  C_40
    7  A    between atoms: C_30  and  N_34
    8  A    between atoms: N_39  and  N_41
    9  A    between atoms: C_40  and  N_41
   10  A    between atoms: C_43  and  C_47
   11  A    between atoms: C_46  and  C_48
                            x       y       z     vdW  Elec       q    Type
                         _______ _______ _______ _____ _____    ______ ____

>  <TORSDO>
F 11

$$$$
=
 OpenBabel10222417043D

 55 62  0  0  1  0  0  0  0  0999 V2000
  187.2080  178.1620  135.7880 C   0  0  2  0  0  3  0  0  0  0  0  0
  186.6380  178.0910  139.5210 C   0  0  2  0  0  3  0  0  0  0  0  0
  187.7230  178.5490  137.1580 C   0  0  0  0  0  2  0  0  0  0  0  0
  184.2950  173.2620  136.3670 F   0  0  0  0  0  0  0  0  0  0  0  0
  186.8210  175.6590  137.6670 C   0  0  0  0  0  2  0  0  0  0  0  0
  186.5500  178.1610  137.9890 C   0  0  1  0  0  3  0  0  0  0  0  0
  186.1960  174.4510  137.0110 C   0  0  0  0  0  3  0  0  0  0  0  0
  186.0250  176.9280  137.2910 C   0  0  1  0  0  0  0  0  0  0  0  0
  186.2090  177.1620  135.9110 O   0  0  0  0  0  0  0  0  0  0  0  0
  184.0200  175.4850  137.3610 C   0  0  0  0  0  3  0  0  0  0  0  0
  184.3020  177.6770  139.8910 C   0  0  0  0  0  2  0  0  0  0  0  0
  184.5510  176.6910  137.6060 C   0  0  0  0  0  0  0  0  0  0  0  0
  185.3850  178.6620  140.0750 N   0  0  1  0  0  0  0  0  0  0  0  0
  184.8660  174.3770  136.8820 C   0  0  0  0  0  0  0  0  0  0  0  0
  183.7450  177.6280  138.4590 C   0  0  2  0  0  3  0  0  0  0  0  0
  187.9010  178.8050  140.0190 C   0  0  0  0  0  1  0  0  0  0  0  0
  184.2640  178.5870  142.2470 C   0  0  0  0  0  2  0  0  0  0  0  0
  185.5240  178.9830  141.5140 C   0  0  1  0  0  3  0  0  0  0  0  0
  186.1830  177.8440  143.3720 C   0  0  2  0  0  3  0  0  0  0  0  0
  186.6140  178.3160  142.1190 O   0  0  0  0  0  0  0  0  0  0  0  0
  184.7610  178.2880  143.6170 C   0  0  0  0  0  2  0  0  0  0  0  0
  187.0550  178.3600  144.4170 N   0  0  0  0  0  2  0  0  0  0  0  0
  188.4500  177.3350  144.5090 S   0  0  0  0  0  0  0  0  0  0  0  0
  188.2450  176.0070  143.5080 F   0  0  0  0  0  0  0  0  0  0  0  0
  188.6240  176.8650  145.9240 O   0  0  0  0  0  0  0  0  0  0  0  0
  189.6730  178.0950  144.0850 O   0  0  0  0  0  0  0  0  0  0  0  0
  189.6270  177.0360  136.7600 O   0  0  0  0  0  0  0  0  0  0  0  0
  189.4750  177.0950  135.5100 C   0  0  0  0  0  0  0  0  0  0  0  0
  190.4430  176.5080  134.6360 N   0  0  0  0  0  2  0  0  0  0  0  0
  188.3050  177.6920  134.9570 N   0  0  0  0  0  2  0  0  0  0  0  0
  191.7090  176.0650  135.0630 N   0  0  0  0  0  2  0  0  0  0  0  0
  192.0260  174.6910  135.2950 C   0  0  0  0  0  0  0  0  0  0  0  0
  190.8010  173.6550  135.6190 S   0  0  0  0  0  0  0  0  0  0  0  0
  193.3970  174.2660  135.2750 N   0  0  0  0  0  2  0  0  0  0  0  0
  195.3400  173.3280  138.2350 C   0  0  2  0  0  3  0  0  0  0  0  0
  194.2250  173.8540  137.4800 C   0  0  2  0  0  3  0  0  0  0  0  0
  195.3150  172.2220  135.7920 S   0  0  0  0  0  0  0  0  0  0  0  0
  195.8650  174.5000  138.9440 N   0  0  0  0  0  2  0  0  0  0  0  0
  196.3240  172.8230  137.1910 C   0  0  0  0  0  2  0  0  0  0  0  0
  194.0850  173.4480  136.2320 C   0  0  2  0  0  3  0  0  0  0  0  0
  194.8480  175.4930  138.9460 N   0  0  0  0  0  2  0  0  0  0  0  0
  193.9530  175.1530  137.9200 N   0  0  0  0  0  2  0  0  0  0  0  0
  183.5370  179.0060  137.8340 C   0  0  0  0  0  2  0  0  0  0  0  0
  179.4020  178.6320  134.7570 C   0  0  0  0  0  3  0  0  0  0  0  0
  181.6480  178.5130  135.6260 C   0  0  0  0  0  3  0  0  0  0  0  0
  180.7390  178.2650  134.5950 C   0  0  0  0  0  3  0  0  0  0  0  0
  181.5930  180.0120  139.0280 C   0  0  0  0  0  3  0  0  0  0  0  0
  182.0900  179.3890  137.8790 C   0  0  0  0  0  0  0  0  0  0  0  0
  179.8550  179.4850  136.9270 C   0  0  0  0  0  0  0  0  0  0  0  0
  179.4080  180.0870  138.0600 N   0  0  0  0  0  0  0  0  0  0  0  0
  180.2420  180.3560  139.1010 C   0  0  0  0  0  0  0  0  0  0  0  0
  178.9910  179.2300  135.9080 N   0  0  0  0  0  0  0  0  0  0  0  0
  181.2160  179.1230  136.8090 C   0  0  0  0  0  0  0  0  0  0  0  0
  179.7330  181.0050  140.2770 C   0  0  0  0  0  0  0  0  0  0  0  0
  179.3250  181.5310  141.2250 N   0  0  0  0  0  0  0  0  0  0  0  0
  1 30  1  6  0  0  0
  1  9  1  0  0  0  0
  1  3  1  0  0  0  0
  2 16  1  1  0  0  0
  2 13  1  0  0  0  0
  4 14  1  0  0  0  0
  6  3  1  6  0  0  0
  6  2  1  0  0  0  0
  7  5  1  0  0  0  0
  8 12  1  0  0  0  0
  8  5  1  1  0  0  0
  8  6  1  0  0  0  0
  9  8  1  0  0  0  0
 10 12  2  0  0  0  0
 12 15  1  0  0  0  0
 13 11  1  1  0  0  0
 13 18  1  0  0  0  0
 14  7  2  0  0  0  0
 14 10  1  0  0  0  0
 15 43  1  6  0  0  0
 15 11  1  0  0  0  0
 17 21  1  0  0  0  0
 18 20  1  0  0  0  0
 18 17  1  1  0  0  0
 19 21  1  0  0  0  0
 19 22  1  1  0  0  0
 20 19  1  0  0  0  0
 22 23  1  0  0  0  0
 23 25  2  0  0  0  0
 24 23  1  0  0  0  0
 26 23  2  0  0  0  0
 28 27  2  0  0  0  0
 29 31  1  0  0  0  0
 29 28  1  0  0  0  0
 30 28  1  0  0  0  0
 31 32  1  0  0  0  0
 32 33  2  0  0  0  0
 34 32  1  0  0  0  0
 35 39  1  6  0  0  0
 35 38  1  0  0  0  0
 36 42  1  6  0  0  0
 36 35  1  0  0  0  0
 37 40  1  0  0  0  0
 37 39  1  0  0  0  0
 38 41  1  0  0  0  0
 40 34  1  6  0  0  0
 40 36  1  0  0  0  0
 42 41  1  0  0  0  0
 43 48  1  0  0  0  0
 44 52  2  0  0  0  0
 45 53  1  0  0  0  0
 46 44  1  0  0  0  0
 46 45  2  0  0  0  0
 47 51  2  0  0  0  0
 48 47  1  0  0  0  0
 49 50  2  0  0  0  0
 50 51  1  0  0  0  0
 51 54  1  0  0  0  0
 52 49  1  0  0  0  0
 53 49  1  0  0  0  0
 53 48  2  0  0  0  0
 54 55  3  0  0  0  0
M  END
>  <MODEL>
4

>  <REMARK>
 VINA RESULT:      -6.8      3.931      9.107
  Name = 
  11 active torsions:
  status: ('A' for Active; 'I' for Inactive)
    1  A    between atoms: C_3  and  N_54
    2  A    between atoms: N_10  and  S_17
    3  A    between atoms: N_10  and  C_36
    4  A    between atoms: C_23  and  N_25
    5  A    between atoms: C_24  and  C_43
    6  A    between atoms: N_25  and  C_40
    7  A    between atoms: C_30  and  N_34
    8  A    between atoms: N_39  and  N_41
    9  A    between atoms: C_40  and  N_41
   10  A    between atoms: C_43  and  C_47
   11  A    between atoms: C_46  and  C_48
                            x       y       z     vdW  Elec       q    Type
                         _______ _______ _______ _____ _____    ______ ____

>  <TORSDO>
F 11

$$$$
=
 OpenBabel10222417043D

 55 62  0  0  1  0  0  0  0  0999 V2000
  188.6830  176.8580  139.5420 C   0  0  2  0  0  3  0  0  0  0  0  0
  191.4860  176.2870  137.0770 C   0  0  2  0  0  3  0  0  0  0  0  0
  190.1770  176.7930  139.3140 C   0  0  0  0  0  2  0  0  0  0  0  0
  186.2800  178.7270  134.6880 F   0  0  0  0  0  0  0  0  0  0  0  0
  189.2800  178.4020  136.8580 C   0  0  0  0  0  2  0  0  0  0  0  0
  190.1980  176.2860  137.9140 C   0  0  1  0  0  3  0  0  0  0  0  0
  188.0700  178.9780  136.1630 C   0  0  0  0  0  3  0  0  0  0  0  0
  188.9920  176.9470  137.2890 C   0  0  1  0  0  0  0  0  0  0  0  0
  188.0070  176.9820  138.3010 O   0  0  0  0  0  0  0  0  0  0  0  0
  187.6660  176.7740  135.2110 C   0  0  0  0  0  3  0  0  0  0  0  0
  190.5740  175.0920  135.2050 C   0  0  0  0  0  2  0  0  0  0  0  0
  188.4910  176.1690  136.0760 C   0  0  0  0  0  0  0  0  0  0  0  0
  191.5380  175.0110  136.3190 N   0  0  1  0  0  0  0  0  0  0  0  0
  187.3200  178.1980  135.3760 C   0  0  0  0  0  0  0  0  0  0  0  0
  189.1130  174.8760  135.6310 C   0  0  2  0  0  3  0  0  0  0  0  0
  192.7090  176.5080  137.9760 C   0  0  0  0  0  1  0  0  0  0  0  0
  193.4780  176.0330  135.2390 C   0  0  0  0  0  2  0  0  0  0  0  0
  192.8930  174.7520  135.7840 C   0  0  1  0  0  3  0  0  0  0  0  0
  195.0140  174.8990  136.6010 C   0  0  2  0  0  3  0  0  0  0  0  0
  193.7790  174.2450  136.7640 O   0  0  0  0  0  0  0  0  0  0  0  0
  194.9420  175.8270  135.4130 C   0  0  0  0  0  2  0  0  0  0  0  0
  196.0680  173.9140  136.4030 N   0  0  0  0  0  2  0  0  0  0  0  0
  197.1660  174.0240  137.7400 S   0  0  0  0  0  0  0  0  0  0  0  0
  196.3390  173.7700  139.1760 F   0  0  0  0  0  0  0  0  0  0  0  0
  197.7820  175.3930  137.7610 O   0  0  0  0  0  0  0  0  0  0  0  0
  198.2490  172.9940  137.5990 O   0  0  0  0  0  0  0  0  0  0  0  0
  186.0710  177.5410  140.4250 O   0  0  0  0  0  0  0  0  0  0  0  0
  187.0300  178.2370  140.8560 C   0  0  0  0  0  0  0  0  0  0  0  0
  186.8020  179.2520  141.8370 N   0  0  0  0  0  2  0  0  0  0  0  0
  188.3600  177.9770  140.4150 N   0  0  0  0  0  2  0  0  0  0  0  0
  185.5220  179.7110  142.1980 N   0  0  0  0  0  2  0  0  0  0  0  0
  184.7390  179.1260  143.2410 C   0  0  0  0  0  0  0  0  0  0  0  0
  185.1990  179.3760  144.7920 S   0  0  0  0  0  0  0  0  0  0  0  0
  183.6040  178.3140  142.9070 N   0  0  0  0  0  2  0  0  0  0  0  0
  180.1780  178.6550  141.6550 C   0  0  2  0  0  3  0  0  0  0  0  0
  181.3160  178.8900  142.5150 C   0  0  2  0  0  3  0  0  0  0  0  0
  182.4370  178.1130  140.3140 S   0  0  0  0  0  0  0  0  0  0  0  0
  179.2010  178.0100  142.5380 N   0  0  0  0  0  2  0  0  0  0  0  0
  180.6800  177.6970  140.5860 C   0  0  0  0  0  2  0  0  0  0  0  0
  182.5160  178.6310  142.0280 C   0  0  2  0  0  3  0  0  0  0  0  0
  179.5860  178.2840  143.8790 N   0  0  0  0  0  2  0  0  0  0  0  0
  180.9380  178.6560  143.8400 N   0  0  0  0  0  2  0  0  0  0  0  0
  188.9270  173.7290  136.6230 C   0  0  0  0  0  2  0  0  0  0  0  0
  186.4870  169.6300  134.6350 C   0  0  0  0  0  3  0  0  0  0  0  0
  188.1810  171.2370  135.2380 C   0  0  0  0  0  3  0  0  0  0  0  0
  187.8200  170.0460  134.6030 C   0  0  0  0  0  3  0  0  0  0  0  0
  186.5060  173.9210  137.1910 C   0  0  0  0  0  3  0  0  0  0  0  0
  187.5260  173.2020  136.5590 C   0  0  0  0  0  0  0  0  0  0  0  0
  185.8750  171.5440  135.9000 C   0  0  0  0  0  0  0  0  0  0  0  0
  184.9110  172.2690  136.5260 N   0  0  0  0  0  0  0  0  0  0  0  0
  185.1970  173.4360  137.1640 C   0  0  0  0  0  0  0  0  0  0  0  0
  185.5510  170.3800  135.2750 N   0  0  0  0  0  0  0  0  0  0  0  0
  187.2130  172.0000  135.8990 C   0  0  0  0  0  0  0  0  0  0  0  0
  184.1480  174.1790  137.8040 C   0  0  0  0  0  0  0  0  0  0  0  0
  183.2990  174.7740  138.3200 N   0  0  0  0  0  0  0  0  0  0  0  0
  1 30  1  1  0  0  0
  2  6  1  0  0  0  0
  2 16  1  1  0  0  0
  3  1  1  0  0  0  0
  4 14  1  0  0  0  0
  6  3  1  1  0  0  0
  7  5  1  0  0  0  0
  8  5  1  6  0  0  0
  8  6  1  0  0  0  0
  8  9  1  0  0  0  0
  9  1  1  0  0  0  0
 10 14  1  0  0  0  0
 10 12  2  0  0  0  0
 11 15  1  0  0  0  0
 12  8  1  0  0  0  0
 13 11  1  6  0  0  0
 13  2  1  0  0  0  0
 14  7  2  0  0  0  0
 15 12  1  0  0  0  0
 15 43  1  1  0  0  0
 17 21  1  0  0  0  0
 18 17  1  1  0  0  0
 18 13  1  0  0  0  0
 18 20  1  0  0  0  0
 19 22  1  6  0  0  0
 19 20  1  0  0  0  0
 21 19  1  0  0  0  0
 22 23  1  0  0  0  0
 23 25  2  0  0  0  0
 23 24  1  0  0  0  0
 26 23  2  0  0  0  0
 27 28  2  0  0  0  0
 28 29  1  0  0  0  0
 29 31  1  0  0  0  0
 30 28  1  0  0  0  0
 31 32  1  0  0  0  0
 32 33  2  0  0  0  0
 34 32  1  0  0  0  0
 35 39  1  6  0  0  0
 35 36  1  0  0  0  0
 35 38  1  0  0  0  0
 36 42  1  1  0  0  0
 37 39  1  0  0  0  0
 37 40  1  0  0  0  0
 38 41  1  0  0  0  0
 40 36  1  0  0  0  0
 40 34  1  1  0  0  0
 42 41  1  0  0  0  0
 44 52  2  0  0  0  0
 45 53  1  0  0  0  0
 46 44  1  0  0  0  0
 46 45  2  0  0  0  0
 48 43  1  0  0  0  0
 48 47  1  0  0  0  0
 49 50  2  0  0  0  0
 50 51  1  0  0  0  0
 51 47  2  0  0  0  0
 51 54  1  0  0  0  0
 52 49  1  0  0  0  0
 53 49  1  0  0  0  0
 53 48  2  0  0  0  0
 54 55  3  0  0  0  0
M  END
>  <MODEL>
5

>  <REMARK>
 VINA RESULT:      -6.6      2.240      3.433
  Name = 
  11 active torsions:
  status: ('A' for Active; 'I' for Inactive)
    1  A    between atoms: C_3  and  N_54
    2  A    between atoms: N_10  and  S_17
    3  A    between atoms: N_10  and  C_36
    4  A    between atoms: C_23  and  N_25
    5  A    between atoms: C_24  and  C_43
    6  A    between atoms: N_25  and  C_40
    7  A    between atoms: C_30  and  N_34
    8  A    between atoms: N_39  and  N_41
    9  A    between atoms: C_40  and  N_41
   10  A    between atoms: C_43  and  C_47
   11  A    between atoms: C_46  and  C_48
                            x       y       z     vdW  Elec       q    Type
                         _______ _______ _______ _____ _____    ______ ____

>  <TORSDO>
F 11

$$$$
=
 OpenBabel10222417043D

 55 62  0  0  1  0  0  0  0  0999 V2000
  183.8050  177.9070  141.3720 C   0  0  2  0  0  3  0  0  0  0  0  0
  186.0650  178.1180  138.3540 C   0  0  2  0  0  3  0  0  0  0  0  0
  185.2230  178.0030  140.8540 C   0  0  0  0  0  2  0  0  0  0  0  0
  180.4240  180.6580  137.6530 F   0  0  0  0  0  0  0  0  0  0  0  0
  183.8080  180.0620  139.0700 C   0  0  0  0  0  2  0  0  0  0  0  0
  184.9730  177.8330  139.3960 C   0  0  1  0  0  3  0  0  0  0  0  0
  182.4680  180.6930  138.7760 C   0  0  0  0  0  3  0  0  0  0  0  0
  183.6500  178.5300  139.1890 C   0  0  1  0  0  0  0  0  0  0  0  0
  182.8890  178.2620  140.3480 O   0  0  0  0  0  0  0  0  0  0  0  0
  181.9350  178.7420  137.4210 C   0  0  0  0  0  3  0  0  0  0  0  0
  184.8230  177.3200  136.4600 C   0  0  0  0  0  2  0  0  0  0  0  0
  182.9330  178.0160  137.9430 C   0  0  0  0  0  0  0  0  0  0  0  0
  185.9940  177.0570  137.3180 N   0  0  1  0  0  0  0  0  0  0  0  0
  181.5940  180.0620  137.9840 C   0  0  0  0  0  0  0  0  0  0  0  0
  183.4840  176.9080  137.0930 C   0  0  2  0  0  3  0  0  0  0  0  0
  187.4390  178.2150  139.0290 C   0  0  0  0  0  1  0  0  0  0  0  0
  187.7260  178.4310  136.2760 C   0  0  0  0  0  2  0  0  0  0  0  0
  187.2190  177.0250  136.4880 C   0  0  1  0  0  3  0  0  0  0  0  0
  189.4580  176.9800  136.9030 C   0  0  2  0  0  3  0  0  0  0  0  0
  188.2580  176.2670  137.0770 O   0  0  0  0  0  0  0  0  0  0  0  0
  189.1900  178.2310  136.1030 C   0  0  0  0  0  2  0  0  0  0  0  0
  190.4310  176.1440  136.2150 N   0  0  0  0  0  2  0  0  0  0  0  0
  191.4650  175.4280  137.4080 S   0  0  0  0  0  0  0  0  0  0  0  0
  192.9540  176.1960  137.4020 F   0  0  0  0  0  0  0  0  0  0  0  0
  191.6570  173.9740  137.0840 O   0  0  0  0  0  0  0  0  0  0  0  0
  190.8430  175.5550  138.7680 O   0  0  0  0  0  0  0  0  0  0  0  0
  184.7920  177.3550  143.9770 O   0  0  0  0  0  0  0  0  0  0  0  0
  184.1980  178.4530  143.8020 C   0  0  0  0  0  0  0  0  0  0  0  0
  184.1350  179.4160  144.8570 N   0  0  0  0  0  2  0  0  0  0  0  0
  183.6370  178.7700  142.5310 N   0  0  0  0  0  2  0  0  0  0  0  0
  184.4870  179.1340  146.1900 N   0  0  0  0  0  2  0  0  0  0  0  0
  185.8380  179.0670  146.6520 C   0  0  0  0  0  0  0  0  0  0  0  0
  186.3500  180.1970  147.7200 S   0  0  0  0  0  0  0  0  0  0  0  0
  186.7110  178.0460  146.1480 N   0  0  0  0  0  2  0  0  0  0  0  0
  190.1130  177.3570  144.9770 C   0  0  2  0  0  3  0  0  0  0  0  0
  188.7690  177.8880  144.9400 C   0  0  2  0  0  3  0  0  0  0  0  0
  189.1980  177.6480  147.4810 S   0  0  0  0  0  0  0  0  0  0  0  0
  190.1330  176.3810  143.8830 N   0  0  0  0  0  2  0  0  0  0  0  0
  190.2340  176.6780  146.3320 C   0  0  0  0  0  2  0  0  0  0  0  0
  188.1440  178.0550  146.0910 C   0  0  2  0  0  3  0  0  0  0  0  0
  189.0430  176.6780  143.0200 N   0  0  0  0  0  2  0  0  0  0  0  0
  188.1480  177.4630  143.7610 N   0  0  0  0  0  2  0  0  0  0  0  0
  183.5310  175.5540  137.8000 C   0  0  0  0  0  2  0  0  0  0  0  0
  180.1960  172.7120  135.0590 C   0  0  0  0  0  3  0  0  0  0  0  0
  182.1350  173.9740  135.7400 C   0  0  0  0  0  3  0  0  0  0  0  0
  181.4720  173.2060  134.7800 C   0  0  0  0  0  3  0  0  0  0  0  0
  181.4740  175.2410  139.1720 C   0  0  0  0  0  3  0  0  0  0  0  0
  182.1490  175.0040  137.9710 C   0  0  0  0  0  0  0  0  0  0  0  0
  180.2270  173.7270  137.2070 C   0  0  0  0  0  0  0  0  0  0  0  0
  179.6020  173.9780  138.3870 N   0  0  0  0  0  0  0  0  0  0  0  0
  180.1930  174.7180  139.3640 C   0  0  0  0  0  0  0  0  0  0  0  0
  179.6050  172.9810  136.2540 N   0  0  0  0  0  0  0  0  0  0  0  0
  181.5210  174.2420  136.9690 C   0  0  0  0  0  0  0  0  0  0  0  0
  179.4950  174.9700  140.5930 C   0  0  0  0  0  0  0  0  0  0  0  0
  178.9310  175.1700  141.5840 N   0  0  0  0  0  0  0  0  0  0  0  0
  1 30  1  1  0  0  0
  2 16  1  1  0  0  0
  2  6  1  0  0  0  0
  3  1  1  0  0  0  0
  4 14  1  0  0  0  0
  6  3  1  1  0  0  0
  7  5  1  0  0  0  0
  8  5  1  6  0  0  0
  8  6  1  0  0  0  0
  8  9  1  0  0  0  0
  9  1  1  0  0  0  0
 10 12  2  0  0  0  0
 10 14  1  0  0  0  0
 11 15  1  0  0  0  0
 12  8  1  0  0  0  0
 13 11  1  6  0  0  0
 13  2  1  0  0  0  0
 14  7  2  0  0  0  0
 15 43  1  1  0  0  0
 15 12  1  0  0  0  0
 18 17  1  1  0  0  0
 18 20  1  0  0  0  0
 18 13  1  0  0  0  0
 19 22  1  6  0  0  0
 19 20  1  0  0  0  0
 21 17  1  0  0  0  0
 21 19  1  0  0  0  0
 22 23  1  0  0  0  0
 23 26  2  0  0  0  0
 24 23  1  0  0  0  0
 25 23  2  0  0  0  0
 28 27  2  0  0  0  0
 28 29  1  0  0  0  0
 29 31  1  0  0  0  0
 30 28  1  0  0  0  0
 31 32  1  0  0  0  0
 32 33  2  0  0  0  0
 34 32  1  0  0  0  0
 35 39  1  1  0  0  0
 36 42  1  6  0  0  0
 36 35  1  0  0  0  0
 36 40  1  0  0  0  0
 38 35  1  0  0  0  0
 39 37  1  0  0  0  0
 40 34  1  6  0  0  0
 40 37  1  0  0  0  0
 41 42  1  0  0  0  0
 41 38  1  0  0  0  0
 43 48  1  0  0  0  0
 44 52  2  0  0  0  0
 45 53  1  0  0  0  0
 46 44  1  0  0  0  0
 46 45  2  0  0  0  0
 47 51  2  0  0  0  0
 48 47  1  0  0  0  0
 49 50  2  0  0  0  0
 50 51  1  0  0  0  0
 51 54  1  0  0  0  0
 52 49  1  0  0  0  0
 53 49  1  0  0  0  0
 53 48  2  0  0  0  0
 54 55  3  0  0  0  0
M  END
>  <MODEL>
6

>  <REMARK>
 VINA RESULT:      -6.6      3.484      5.042
  Name = 
  11 active torsions:
  status: ('A' for Active; 'I' for Inactive)
    1  A    between atoms: C_3  and  N_54
    2  A    between atoms: N_10  and  S_17
    3  A    between atoms: N_10  and  C_36
    4  A    between atoms: C_23  and  N_25
    5  A    between atoms: C_24  and  C_43
    6  A    between atoms: N_25  and  C_40
    7  A    between atoms: C_30  and  N_34
    8  A    between atoms: N_39  and  N_41
    9  A    between atoms: C_40  and  N_41
   10  A    between atoms: C_43  and  C_47
   11  A    between atoms: C_46  and  C_48
                            x       y       z     vdW  Elec       q    Type
                         _______ _______ _______ _____ _____    ______ ____

>  <TORSDO>
F 11

$$$$
=
 OpenBabel10222417043D

 55 62  0  0  1  0  0  0  0  0999 V2000
  184.0420  178.0990  141.3750 C   0  0  2  0  0  3  0  0  0  0  0  0
  186.0820  178.0740  138.1970 C   0  0  2  0  0  3  0  0  0  0  0  0
  185.4210  178.1230  140.7530 C   0  0  0  0  0  2  0  0  0  0  0  0
  180.4770  180.7480  137.7550 F   0  0  0  0  0  0  0  0  0  0  0  0
  183.9370  180.1250  138.9600 C   0  0  0  0  0  2  0  0  0  0  0  0
  185.0620  177.8810  139.3290 C   0  0  1  0  0  3  0  0  0  0  0  0
  182.5980  180.7810  138.7260 C   0  0  0  0  0  3  0  0  0  0  0  0
  183.7460  178.6080  139.1760 C   0  0  1  0  0  0  0  0  0  0  0  0
  183.0650  178.4270  140.4000 O   0  0  0  0  0  0  0  0  0  0  0  0
  181.9150  178.7760  137.5260 C   0  0  0  0  0  3  0  0  0  0  0  0
  184.6850  177.2140  136.4450 C   0  0  0  0  0  2  0  0  0  0  0  0
  182.9280  178.0490  138.0160 C   0  0  0  0  0  0  0  0  0  0  0  0
  185.9080  176.9610  137.2310 N   0  0  1  0  0  0  0  0  0  0  0  0
  181.6520  180.1350  138.0360 C   0  0  0  0  0  0  0  0  0  0  0  0
  183.3850  176.8790  137.1930 C   0  0  2  0  0  3  0  0  0  0  0  0
  187.5040  178.1650  138.7670 C   0  0  0  0  0  1  0  0  0  0  0  0
  187.6080  178.2210  136.0070 C   0  0  0  0  0  2  0  0  0  0  0  0
  187.0680  176.8460  136.3200 C   0  0  1  0  0  3  0  0  0  0  0  0
  189.3280  176.7320  136.5780 C   0  0  2  0  0  3  0  0  0  0  0  0
  188.1190  176.0740  136.8690 O   0  0  0  0  0  0  0  0  0  0  0  0
  189.0480  177.9570  135.7410 C   0  0  0  0  0  2  0  0  0  0  0  0
  190.2180  175.8300  135.8630 N   0  0  0  0  0  2  0  0  0  0  0  0
  190.7970  174.6420  136.9860 S   0  0  0  0  0  0  0  0  0  0  0  0
  189.7170  173.3640  137.0660 F   0  0  0  0  0  0  0  0  0  0  0  0
  190.9230  175.2690  138.3440 O   0  0  0  0  0  0  0  0  0  0  0  0
  192.1400  174.1340  136.5470 O   0  0  0  0  0  0  0  0  0  0  0  0
  184.7190  177.4720  144.0610 O   0  0  0  0  0  0  0  0  0  0  0  0
  184.3800  178.6600  143.8100 C   0  0  0  0  0  0  0  0  0  0  0  0
  184.4510  179.6620  144.8280 N   0  0  0  0  0  2  0  0  0  0  0  0
  183.9830  179.0300  142.4920 N   0  0  0  0  0  2  0  0  0  0  0  0
  184.6470  179.3730  146.1910 N   0  0  0  0  0  2  0  0  0  0  0  0
  185.9200  179.0410  146.7520 C   0  0  0  0  0  0  0  0  0  0  0  0
  186.4310  179.8710  148.0660 S   0  0  0  0  0  0  0  0  0  0  0  0
  186.7240  178.0250  146.1340 N   0  0  0  0  0  2  0  0  0  0  0  0
  190.0060  177.3060  144.6740 C   0  0  2  0  0  3  0  0  0  0  0  0
  188.6770  177.8690  144.7630 C   0  0  2  0  0  3  0  0  0  0  0  0
  189.2960  177.5160  147.2520 S   0  0  0  0  0  0  0  0  0  0  0  0
  189.9150  176.3750  143.5450 N   0  0  0  0  0  2  0  0  0  0  0  0
  190.2140  176.5700  145.9880 C   0  0  0  0  0  2  0  0  0  0  0  0
  188.1480  178.0040  145.9650 C   0  0  2  0  0  3  0  0  0  0  0  0
  188.7700  176.7320  142.7830 N   0  0  0  0  0  2  0  0  0  0  0  0
  187.9550  177.5060  143.6220 N   0  0  0  0  0  2  0  0  0  0  0  0
  183.4460  175.5650  137.9700 C   0  0  0  0  0  2  0  0  0  0  0  0
  186.0830  171.5690  136.0230 C   0  0  0  0  0  3  0  0  0  0  0  0
  185.4930  173.5880  137.2030 C   0  0  0  0  0  3  0  0  0  0  0  0
  186.4490  172.6330  136.8510 C   0  0  0  0  0  3  0  0  0  0  0  0
  181.8920  174.2360  136.5440 C   0  0  0  0  0  3  0  0  0  0  0  0
  183.1800  174.4050  137.0610 C   0  0  0  0  0  0  0  0  0  0  0  0
  183.8560  172.3860  135.8900 C   0  0  0  0  0  0  0  0  0  0  0  0
  182.5930  172.2540  135.4070 N   0  0  0  0  0  0  0  0  0  0  0  0
  181.6150  173.1490  135.7130 C   0  0  0  0  0  0  0  0  0  0  0  0
  184.8070  171.4680  135.5630 N   0  0  0  0  0  0  0  0  0  0  0  0
  184.1810  173.4740  136.7300 C   0  0  0  0  0  0  0  0  0  0  0  0
  180.2950  172.9800  135.1740 C   0  0  0  0  0  0  0  0  0  0  0  0
  179.2320  172.8450  134.7350 N   0  0  0  0  0  0  0  0  0  0  0  0
  1 30  1  1  0  0  0
  2 16  1  1  0  0  0
  2  6  1  0  0  0  0
  3  1  1  0  0  0  0
  4 14  1  0  0  0  0
  6  3  1  1  0  0  0
  7  5  1  0  0  0  0
  8  5  1  6  0  0  0
  8  6  1  0  0  0  0
  8  9  1  0  0  0  0
  9  1  1  0  0  0  0
 10 12  2  0  0  0  0
 10 14  1  0  0  0  0
 11 15  1  0  0  0  0
 12  8  1  0  0  0  0
 13 11  1  6  0  0  0
 13  2  1  0  0  0  0
 14  7  2  0  0  0  0
 15 43  1  1  0  0  0
 15 12  1  0  0  0  0
 18 17  1  1  0  0  0
 18 20  1  0  0  0  0
 18 13  1  0  0  0  0
 19 22  1  6  0  0  0
 19 20  1  0  0  0  0
 21 17  1  0  0  0  0
 21 19  1  0  0  0  0
 22 23  1  0  0  0  0
 23 24  1  0  0  0  0
 23 25  2  0  0  0  0
 26 23  2  0  0  0  0
 28 27  2  0  0  0  0
 28 29  1  0  0  0  0
 29 31  1  0  0  0  0
 30 28  1  0  0  0  0
 31 32  1  0  0  0  0
 32 33  2  0  0  0  0
 34 32  1  0  0  0  0
 35 36  1  0  0  0  0
 35 39  1  1  0  0  0
 36 42  1  6  0  0  0
 36 40  1  0  0  0  0
 38 35  1  0  0  0  0
 39 37  1  0  0  0  0
 40 34  1  6  0  0  0
 40 37  1  0  0  0  0
 41 38  1  0  0  0  0
 41 42  1  0  0  0  0
 44 46  1  0  0  0  0
 46 45  2  0  0  0  0
 47 48  1  0  0  0  0
 48 43  1  0  0  0  0
 49 53  1  0  0  0  0
 50 51  1  0  0  0  0
 50 49  2  0  0  0  0
 51 47  2  0  0  0  0
 52 49  1  0  0  0  0
 52 44  2  0  0  0  0
 53 48  2  0  0  0  0
 53 45  1  0  0  0  0
 54 51  1  0  0  0  0
 55 54  3  0  0  0  0
M  END
>  <MODEL>
7

>  <REMARK>
 VINA RESULT:      -6.4      3.045      4.643
  Name = 
  11 active torsions:
  status: ('A' for Active; 'I' for Inactive)
    1  A    between atoms: C_3  and  N_54
    2  A    between atoms: N_10  and  S_17
    3  A    between atoms: N_10  and  C_36
    4  A    between atoms: C_23  and  N_25
    5  A    between atoms: C_24  and  C_43
    6  A    between atoms: N_25  and  C_40
    7  A    between atoms: C_30  and  N_34
    8  A    between atoms: N_39  and  N_41
    9  A    between atoms: C_40  and  N_41
   10  A    between atoms: C_43  and  C_47
   11  A    between atoms: C_46  and  C_48
                            x       y       z     vdW  Elec       q    Type
                         _______ _______ _______ _____ _____    ______ ____

>  <TORSDO>
F 11

$$$$
=
 OpenBabel10222417043D

 55 62  0  0  1  0  0  0  0  0999 V2000
  184.1470  178.1140  141.3210 C   0  0  2  0  0  3  0  0  0  0  0  0
  186.0120  178.0880  138.0370 C   0  0  2  0  0  3  0  0  0  0  0  0
  185.4900  178.1560  140.6240 C   0  0  0  0  0  2  0  0  0  0  0  0
  180.3370  180.6440  137.8690 F   0  0  0  0  0  0  0  0  0  0  0  0
  183.8700  180.1050  138.8910 C   0  0  0  0  0  2  0  0  0  0  0  0
  185.0580  177.8890  139.2250 C   0  0  1  0  0  3  0  0  0  0  0  0
  182.5070  180.7310  138.7230 C   0  0  0  0  0  3  0  0  0  0  0  0
  183.7220  178.5870  139.1360 C   0  0  1  0  0  0  0  0  0  0  0  0
  183.1120  178.4090  140.3970 O   0  0  0  0  0  0  0  0  0  0  0  0
  181.8000  178.6980  137.5850 C   0  0  0  0  0  3  0  0  0  0  0  0
  184.5390  177.1770  136.3740 C   0  0  0  0  0  2  0  0  0  0  0  0
  182.8530  177.9980  138.0290 C   0  0  0  0  0  0  0  0  0  0  0  0
  185.8080  176.9590  137.0950 N   0  0  1  0  0  0  0  0  0  0  0  0
  181.5370  180.0580  138.0930 C   0  0  0  0  0  0  0  0  0  0  0  0
  183.2890  176.8260  137.1950 C   0  0  2  0  0  3  0  0  0  0  0  0
  187.4600  178.2140  138.5270 C   0  0  0  0  0  1  0  0  0  0  0  0
  187.4770  178.2290  135.8390 C   0  0  0  0  0  2  0  0  0  0  0  0
  186.9190  176.8550  136.1230 C   0  0  1  0  0  3  0  0  0  0  0  0
  189.1850  176.6790  136.2640 C   0  0  2  0  0  3  0  0  0  0  0  0
  187.9760  176.0370  136.5880 O   0  0  0  0  0  0  0  0  0  0  0  0
  188.8950  177.9430  135.4910 C   0  0  0  0  0  2  0  0  0  0  0  0
  190.0170  175.7870  135.4700 N   0  0  0  0  0  2  0  0  0  0  0  0
  191.3050  175.2120  136.4770 S   0  0  0  0  0  0  0  0  0  0  0  0
  192.1390  176.5110  137.1290 F   0  0  0  0  0  0  0  0  0  0  0  0
  192.2460  174.3850  135.6500 O   0  0  0  0  0  0  0  0  0  0  0  0
  190.7490  174.3690  137.5890 O   0  0  0  0  0  0  0  0  0  0  0  0
  184.7650  177.4780  144.0190 O   0  0  0  0  0  0  0  0  0  0  0  0
  184.4940  178.6800  143.7530 C   0  0  0  0  0  0  0  0  0  0  0  0
  184.6110  179.6860  144.7620 N   0  0  0  0  0  2  0  0  0  0  0  0
  184.1290  179.0570  142.4280 N   0  0  0  0  0  2  0  0  0  0  0  0
  184.7800  179.4010  146.1300 N   0  0  0  0  0  2  0  0  0  0  0  0
  186.0230  178.9890  146.7020 C   0  0  0  0  0  0  0  0  0  0  0  0
  186.5150  179.7060  148.0890 S   0  0  0  0  0  0  0  0  0  0  0  0
  186.8170  177.9970  146.0360 N   0  0  0  0  0  2  0  0  0  0  0  0
  190.0660  177.3220  144.4840 C   0  0  2  0  0  3  0  0  0  0  0  0
  188.7350  177.8710  144.6130 C   0  0  2  0  0  3  0  0  0  0  0  0
  189.4220  177.5020  147.0810 S   0  0  0  0  0  0  0  0  0  0  0  0
  189.9540  176.3990  143.3490 N   0  0  0  0  0  2  0  0  0  0  0  0
  190.3160  176.5760  145.7850 C   0  0  0  0  0  2  0  0  0  0  0  0
  188.2370  177.9900  145.8300 C   0  0  2  0  0  3  0  0  0  0  0  0
  188.7860  176.7520  142.6200 N   0  0  0  0  0  2  0  0  0  0  0  0
  187.9870  177.5120  143.4880 N   0  0  0  0  0  2  0  0  0  0  0  0
  183.4190  175.5240  137.9840 C   0  0  0  0  0  2  0  0  0  0  0  0
  178.9640  173.3670  136.4980 C   0  0  0  0  0  3  0  0  0  0  0  0
  180.5960  174.7940  137.5530 C   0  0  0  0  0  3  0  0  0  0  0  0
  179.2610  174.4530  137.3240 C   0  0  0  0  0  3  0  0  0  0  0  0
  183.9540  173.5700  136.5310 C   0  0  0  0  0  3  0  0  0  0  0  0
  182.9810  174.3600  137.1500 C   0  0  0  0  0  0  0  0  0  0  0  0
  181.2750  172.9580  136.1330 C   0  0  0  0  0  0  0  0  0  0  0  0
  182.2490  172.2130  135.5480 N   0  0  0  0  0  0  0  0  0  0  0  0
  183.5680  172.4940  135.7300 C   0  0  0  0  0  0  0  0  0  0  0  0
  179.9670  172.6480  135.9260 N   0  0  0  0  0  0  0  0  0  0  0  0
  181.6210  174.0530  136.9560 C   0  0  0  0  0  0  0  0  0  0  0  0
  184.5680  171.6760  135.1020 C   0  0  0  0  0  0  0  0  0  0  0  0
  185.3710  171.0130  134.5970 N   0  0  0  0  0  0  0  0  0  0  0  0
  1 30  1  1  0  0  0
  2 16  1  1  0  0  0
  2  6  1  0  0  0  0
  3  1  1  0  0  0  0
  4 14  1  0  0  0  0
  6  3  1  1  0  0  0
  7  5  1  0  0  0  0
  8  5  1  6  0  0  0
  8  6  1  0  0  0  0
  8  9  1  0  0  0  0
  9  1  1  0  0  0  0
 10 12  2  0  0  0  0
 10 14  1  0  0  0  0
 11 15  1  0  0  0  0
 12  8  1  0  0  0  0
 13 11  1  6  0  0  0
 13  2  1  0  0  0  0
 14  7  2  0  0  0  0
 15 43  1  1  0  0  0
 15 12  1  0  0  0  0
 18 17  1  1  0  0  0
 18 20  1  0  0  0  0
 18 13  1  0  0  0  0
 19 22  1  6  0  0  0
 19 20  1  0  0  0  0
 21 17  1  0  0  0  0
 21 19  1  0  0  0  0
 22 23  1  0  0  0  0
 23 24  1  0  0  0  0
 23 26  2  0  0  0  0
 25 23  2  0  0  0  0
 28 27  2  0  0  0  0
 28 29  1  0  0  0  0
 29 31  1  0  0  0  0
 30 28  1  0  0  0  0
 31 32  1  0  0  0  0
 32 33  2  0  0  0  0
 34 32  1  0  0  0  0
 35 36  1  0  0  0  0
 35 39  1  1  0  0  0
 36 42  1  6  0  0  0
 36 40  1  0  0  0  0
 38 35  1  0  0  0  0
 39 37  1  0  0  0  0
 40 34  1  6  0  0  0
 40 37  1  0  0  0  0
 41 38  1  0  0  0  0
 41 42  1  0  0  0  0
 44 46  1  0  0  0  0
 46 45  2  0  0  0  0
 47 48  1  0  0  0  0
 48 43  1  0  0  0  0
 49 53  1  0  0  0  0
 50 51  1  0  0  0  0
 50 49  2  0  0  0  0
 51 47  2  0  0  0  0
 52 49  1  0  0  0  0
 52 44  2  0  0  0  0
 53 48  2  0  0  0  0
 53 45  1  0  0  0  0
 54 51  1  0  0  0  0
 55 54  3  0  0  0  0
M  END
>  <MODEL>
8

>  <REMARK>
 VINA RESULT:      -6.1      3.081      5.122
  Name = 
  11 active torsions:
  status: ('A' for Active; 'I' for Inactive)
    1  A    between atoms: C_3  and  N_54
    2  A    between atoms: N_10  and  S_17
    3  A    between atoms: N_10  and  C_36
    4  A    between atoms: C_23  and  N_25
    5  A    between atoms: C_24  and  C_43
    6  A    between atoms: N_25  and  C_40
    7  A    between atoms: C_30  and  N_34
    8  A    between atoms: N_39  and  N_41
    9  A    between atoms: C_40  and  N_41
   10  A    between atoms: C_43  and  C_47
   11  A    between atoms: C_46  and  C_48
                            x       y       z     vdW  Elec       q    Type
                         _______ _______ _______ _____ _____    ______ ____

>  <TORSDO>
F 11

$$$$
=
 OpenBabel10222417043D

 55 62  0  0  1  0  0  0  0  0999 V2000
  185.9390  177.8930  136.0350 C   0  0  2  0  0  3  0  0  0  0  0  0
  185.6860  178.0870  139.7980 C   0  0  2  0  0  3  0  0  0  0  0  0
  186.6310  178.2330  137.3370 C   0  0  0  0  0  2  0  0  0  0  0  0
  182.2330  173.6570  137.1110 F   0  0  0  0  0  0  0  0  0  0  0  0
  185.2590  175.5890  138.0770 C   0  0  0  0  0  2  0  0  0  0  0  0
  185.4820  178.1080  138.2760 C   0  0  1  0  0  3  0  0  0  0  0  0
  184.3690  174.4940  137.5410 C   0  0  0  0  0  3  0  0  0  0  0  0
  184.6810  176.9680  137.6910 C   0  0  1  0  0  0  0  0  0  0  0  0
  184.7870  177.1050  136.2900 O   0  0  0  0  0  0  0  0  0  0  0  0
  182.4580  175.9320  137.9950 C   0  0  0  0  0  3  0  0  0  0  0  0
  183.3540  178.1360  140.3670 C   0  0  0  0  0  2  0  0  0  0  0  0
  183.2210  177.0260  138.1300 C   0  0  0  0  0  0  0  0  0  0  0  0
  184.6120  178.9070  140.4120 N   0  0  1  0  0  0  0  0  0  0  0  0
  183.0420  174.6650  137.5180 C   0  0  0  0  0  0  0  0  0  0  0  0
  182.6770  178.1320  138.9870 C   0  0  2  0  0  3  0  0  0  0  0  0
  187.0970  178.5710  140.1570 C   0  0  0  0  0  1  0  0  0  0  0  0
  183.7240  178.9990  142.6880 C   0  0  0  0  0  2  0  0  0  0  0  0
  184.9290  179.2550  141.8150 C   0  0  1  0  0  3  0  0  0  0  0  0
  185.6770  178.1160  143.6400 C   0  0  2  0  0  3  0  0  0  0  0  0
  186.0140  178.5080  142.3310 O   0  0  0  0  0  0  0  0  0  0  0  0
  184.3340  178.6960  144.0110 C   0  0  0  0  0  2  0  0  0  0  0  0
  186.6970  178.5800  144.5690 N   0  0  0  0  0  2  0  0  0  0  0  0
  188.0750  177.5400  144.4190 S   0  0  0  0  0  0  0  0  0  0  0  0
  187.6250  176.1020  143.6840 F   0  0  0  0  0  0  0  0  0  0  0  0
  188.6220  177.2460  145.7850 O   0  0  0  0  0  0  0  0  0  0  0  0
  189.1360  178.2100  143.5930 O   0  0  0  0  0  0  0  0  0  0  0  0
  187.4640  175.6060  136.7480 O   0  0  0  0  0  0  0  0  0  0  0  0
  187.5580  176.0190  135.5600 C   0  0  0  0  0  0  0  0  0  0  0  0
  188.3170  175.2840  134.5980 N   0  0  0  0  0  2  0  0  0  0  0  0
  186.8550  177.1900  135.1510 N   0  0  0  0  0  2  0  0  0  0  0  0
  189.1900  174.2330  134.9330 N   0  0  0  0  0  2  0  0  0  0  0  0
  190.5410  174.4340  135.3560 C   0  0  0  0  0  0  0  0  0  0  0  0
  191.4380  173.1200  135.7400 S   0  0  0  0  0  0  0  0  0  0  0  0
  191.0600  175.7670  135.4660 N   0  0  0  0  0  2  0  0  0  0  0  0
  193.4100  176.4510  138.1920 C   0  0  2  0  0  3  0  0  0  0  0  0
  192.9460  176.3170  136.8290 C   0  0  2  0  0  3  0  0  0  0  0  0
  190.7460  176.7560  138.1210 S   0  0  0  0  0  0  0  0  0  0  0  0
  194.4280  175.4030  138.3180 N   0  0  0  0  0  2  0  0  0  0  0  0
  192.1950  176.1520  139.0550 C   0  0  0  0  0  2  0  0  0  0  0  0
  191.6460  176.3970  136.6130 C   0  0  2  0  0  3  0  0  0  0  0  0
  194.8250  175.0270  137.0050 N   0  0  0  0  0  2  0  0  0  0  0  0
  193.8070  175.4560  136.1410 N   0  0  0  0  0  2  0  0  0  0  0  0
  182.6740  179.4980  138.3020 C   0  0  0  0  0  2  0  0  0  0  0  0
  179.5010  183.0110  136.2290 C   0  0  0  0  0  3  0  0  0  0  0  0
  181.3000  181.4400  136.5620 C   0  0  0  0  0  3  0  0  0  0  0  0
  180.6270  182.3460  135.7390 C   0  0  0  0  0  3  0  0  0  0  0  0
  180.9780  180.1160  140.0220 C   0  0  0  0  0  3  0  0  0  0  0  0
  181.4820  180.2960  138.7290 C   0  0  0  0  0  0  0  0  0  0  0  0
  179.7040  181.9030  138.3200 C   0  0  0  0  0  0  0  0  0  0  0  0
  179.2440  181.7020  139.5820 N   0  0  0  0  0  0  0  0  0  0  0  0
  179.8520  180.8320  140.4340 C   0  0  0  0  0  0  0  0  0  0  0  0
  179.0670  182.7800  137.4970 N   0  0  0  0  0  0  0  0  0  0  0  0
  180.8440  181.2030  137.8640 C   0  0  0  0  0  0  0  0  0  0  0  0
  179.3410  180.6560  141.7640 C   0  0  0  0  0  0  0  0  0  0  0  0
  178.9310  180.5090  142.8360 N   0  0  0  0  0  0  0  0  0  0  0  0
  1 30  1  6  0  0  0
  1  9  1  0  0  0  0
  1  3  1  0  0  0  0
  2 16  1  6  0  0  0
  2 13  1  0  0  0  0
  4 14  1  0  0  0  0
  6  3  1  6  0  0  0
  6  2  1  0  0  0  0
  7  5  1  0  0  0  0
  8  5  1  1  0  0  0
  8 12  1  0  0  0  0
  8  6  1  0  0  0  0
  9  8  1  0  0  0  0
 10 12  2  0  0  0  0
 12 15  1  0  0  0  0
 13 11  1  1  0  0  0
 13 18  1  0  0  0  0
 14  7  2  0  0  0  0
 14 10  1  0  0  0  0
 15 43  1  6  0  0  0
 15 11  1  0  0  0  0
 17 21  1  0  0  0  0
 18 20  1  0  0  0  0
 18 17  1  1  0  0  0
 19 21  1  0  0  0  0
 19 22  1  1  0  0  0
 20 19  1  0  0  0  0
 23 22  1  0  0  0  0
 23 25  2  0  0  0  0
 24 23  1  0  0  0  0
 26 23  2  0  0  0  0
 28 27  2  0  0  0  0
 29 31  1  0  0  0  0
 29 28  1  0  0  0  0
 30 28  1  0  0  0  0
 31 32  1  0  0  0  0
 32 34  1  0  0  0  0
 32 33  2  0  0  0  0
 35 38  1  0  0  0  0
 35 39  1  1  0  0  0
 36 42  1  1  0  0  0
 36 35  1  0  0  0  0
 37 39  1  0  0  0  0
 40 34  1  1  0  0  0
 40 36  1  0  0  0  0
 40 37  1  0  0  0  0
 41 38  1  0  0  0  0
 42 41  1  0  0  0  0
 43 48  1  0  0  0  0
 44 52  2  0  0  0  0
 45 53  1  0  0  0  0
 46 44  1  0  0  0  0
 46 45  2  0  0  0  0
 47 51  2  0  0  0  0
 48 47  1  0  0  0  0
 49 50  2  0  0  0  0
 50 51  1  0  0  0  0
 51 54  1  0  0  0  0
 52 49  1  0  0  0  0
 53 49  1  0  0  0  0
 53 48  2  0  0  0  0
 54 55  3  0  0  0  0
M  END
>  <MODEL>
9

>  <REMARK>
 VINA RESULT:      -5.7      4.390      9.578
  Name = 
  11 active torsions:
  status: ('A' for Active; 'I' for Inactive)
    1  A    between atoms: C_3  and  N_54
    2  A    between atoms: N_10  and  S_17
    3  A    between atoms: N_10  and  C_36
    4  A    between atoms: C_23  and  N_25
    5  A    between atoms: C_24  and  C_43
    6  A    between atoms: N_25  and  C_40
    7  A    between atoms: C_30  and  N_34
    8  A    between atoms: N_39  and  N_41
    9  A    between atoms: C_40  and  N_41
   10  A    between atoms: C_43  and  C_47
   11  A    between atoms: C_46  and  C_48
                            x       y       z     vdW  Elec       q    Type
                         _______ _______ _______ _____ _____    ______ ____

>  <TORSDO>
F 11

$$$$
