=
 OpenBabel10222418333D

 65 72  0  0  1  0  0  0  0  0999 V2000
  191.9260  177.1210  139.4030 C   0  0  0  0  0  0  0  0  0  0  0  0
  189.9610  175.2890  135.1290 C   0  0  0  0  0  3  0  0  0  0  0  0
  192.9310  177.0630  138.3880 N   0  0  0  0  0  2  0  0  0  0  0  0
  192.6240  176.5440  137.1190 N   0  0  0  0  0  0  0  0  0  0  0  0
  192.2560  177.5270  140.6310 C   0  0  0  0  0  3  0  0  0  0  0  0
  191.1620  175.5740  135.5370 N   0  0  0  0  0  0  0  0  0  0  0  0
  188.9650  175.7050  137.4480 C   0  0  1  0  0  3  0  0  0  0  0  0
  188.7310  175.6340  135.9270 C   0  0  2  0  0  3  0  0  0  0  0  0
  191.4200  176.1560  136.8190 C   0  0  0  0  0  0  0  0  0  0  0  0
  190.3200  176.2460  137.8110 C   0  0  0  0  0  0  0  0  0  0  0  0
  190.5700  176.6740  139.0520 C   0  0  0  0  0  3  0  0  0  0  0  0
  186.8220  173.8380  135.4370 C   0  0  0  0  0  0  0  0  0  0  0  0
  187.6760  174.6600  135.6430 C   0  0  0  0  0  0  0  0  0  0  0  0
  184.1000  174.4940  135.1540 N   0  0  0  0  0  2  0  0  0  0  0  0
  185.8340  172.8660  135.2260 N   0  0  0  0  0  0  0  0  0  0  0  0
  184.5700  173.1350  135.1020 C   0  0  0  0  0  0  0  0  0  0  0  0
  182.7010  174.9370  135.2240 C   0  0  1  0  0  3  0  0  0  0  0  0
  180.5120  173.9750  134.5970 C   0  0  0  0  0  2  0  0  0  0  0  0
  179.3500  173.6920  135.5180 C   0  0  0  0  0  2  0  0  0  0  0  0
  179.8280  174.0620  136.9010 C   0  0  0  0  0  2  0  0  0  0  0  0
  181.7620  173.7780  135.4240 C   0  0  2  0  0  3  0  0  0  0  0  0
  182.4030  175.8150  136.4290 C   0  0  1  0  0  3  0  0  0  0  0  0
  181.9590  175.0060  137.4840 O   0  0  0  0  0  0  0  0  0  0  0  0
  181.3350  173.8930  136.8810 C   0  0  1  0  0  3  0  0  0  0  0  0
  183.5350  180.1510  138.9620 C   0  0  0  0  0  3  0  0  0  0  0  0
  185.5490  177.7620  137.2620 N   0  0  0  0  0  0  0  0  0  0  0  0
  182.1990  178.3910  138.0080 N   0  0  0  0  0  0  0  0  0  0  0  0
  184.6710  179.5720  138.4740 N   0  0  0  0  0  0  0  0  0  0  0  0
  184.9740  176.5820  136.5990 C   0  0  0  0  0  2  0  0  0  0  0  0
  184.5610  178.4200  137.7640 C   0  0  0  0  0  0  0  0  0  0  0  0
  183.3500  177.8420  137.5440 C   0  0  0  0  0  0  0  0  0  0  0  0
  183.5020  176.7360  136.8530 C   0  0  0  0  0  0  0  0  0  0  0  0
  182.2770  179.5520  138.7270 C   0  0  0  0  0  3  0  0  0  0  0  0
  183.6520  172.0940  134.9330 O   0  0  0  0  0  0  0  0  0  0  0  0
  185.3100  169.9390  135.5090 O   0  0  0  0  0  1  0  0  0  0  0  0
  183.5090  170.8110  137.4140 O   0  0  0  0  0  1  0  0  0  0  0  0
  183.7670  170.5850  135.7530 P   0  0  0  0  0  0  0  0  0  0  0  0
  182.7320  169.6280  135.2070 O   0  0  0  0  0  0  0  0  0  0  0  0
  191.2850  177.6020  141.7700 C   0  0  0  0  0  2  0  0  0  0  0  0
  191.2000  176.2800  142.5220 C   0  0  0  0  0  2  0  0  0  0  0  0
  191.4770  176.4730  143.9380 N   0  0  0  0  0  2  0  0  0  0  0  0
  190.8170  177.7020  144.3540 C   0  0  0  0  0  2  0  0  0  0  0  0
  188.5790  177.5630  145.4110 C   0  0  0  0  0  0  0  0  0  0  0  0
  191.8980  176.5520  146.8360 C   0  0  0  0  0  1  0  0  0  0  0  0
  189.6270  176.4450  147.8500 C   0  0  0  0  0  2  0  0  0  0  0  0
  187.5130  177.0320  148.7960 O   0  0  0  0  0  0  0  0  0  0  0  0
  188.2450  176.9870  147.7710 C   0  0  0  0  0  0  0  0  0  0  0  0
  189.9170  177.4220  145.5240 C   0  0  0  0  0  0  0  0  0  0  0  0
  187.7580  177.4380  146.5450 O   0  0  0  0  0  0  0  0  0  0  0  0
  190.5340  177.2200  146.8960 C   0  0  2  0  0  3  0  0  0  0  0  0
  187.9510  177.9360  144.0920 C   0  0  0  0  0  2  0  0  0  0  0  0
  186.5450  178.4310  144.2520 C   0  0  0  0  0  0  0  0  0  0  0  0
  184.2950  179.2170  143.2620 C   0  0  2  0  0  3  0  0  0  0  0  0
  185.8030  178.9580  143.0270 C   0  0  0  0  0  2  0  0  0  0  0  0
  183.7330  178.4620  144.4690 C   0  0  0  0  0  2  0  0  0  0  0  0
  185.9730  178.3620  145.4690 C   0  0  0  0  0  3  0  0  0  0  0  0
  184.5630  178.8170  145.6910 C   0  0  0  0  0  2  0  0  0  0  0  0
  183.5040  178.9040  141.9900 C   0  0  0  0  0  3  0  0  0  0  0  0
  183.7300  177.5830  141.5790 O   0  0  0  0  0  1  0  0  0  0  0  0
  182.1340  179.1030  142.1960 O   0  0  0  0  0  1  0  0  0  0  0  0
  187.8970  176.4110  138.1040 O   0  0  0  0  0  0  0  0  0  0  0  0
  187.7630  177.8930  139.9710 C   0  0  0  0  0  2  0  0  0  0  0  0
  188.0020  177.6900  138.6800 C   0  0  0  0  0  0  0  0  0  0  0  0
  188.3630  178.7640  137.8620 O   0  0  0  0  0  0  0  0  0  0  0  0
  189.3190  179.6360  138.2280 O   0  0  0  0  0  1  0  0  0  0  0  0
  1  5  2  0  0  0  0
  2  6  2  0  0  0  0
  2  8  1  0  0  0  0
  3  1  1  0  0  0  0
  4  3  1  0  0  0  0
  5 39  1  0  0  0  0
  6  9  1  0  0  0  0
  7 10  1  0  0  0  0
  7 61  1  1  0  0  0
  8 13  1  1  0  0  0
  8  7  1  0  0  0  0
  9  4  2  0  0  0  0
  9 10  1  0  0  0  0
 10 11  2  0  0  0  0
 11  1  1  0  0  0  0
 12 13  3  0  0  0  0
 15 12  1  0  0  0  0
 16 14  1  0  0  0  0
 16 15  2  0  0  0  0
 17 14  1  1  0  0  0
 17 21  1  0  0  0  0
 17 22  1  0  0  0  0
 18 19  1  0  0  0  0
 19 20  1  0  0  0  0
 21 18  1  6  0  0  0
 21 24  1  0  0  0  0
 22 32  1  1  0  0  0
 22 23  1  0  0  0  0
 24 20  1  6  0  0  0
 24 23  1  0  0  0  0
 26 30  2  0  0  0  0
 27 33  2  0  0  0  0
 28 25  2  0  0  0  0
 29 32  1  0  0  0  0
 29 26  1  0  0  0  0
 30 28  1  0  0  0  0
 31 30  1  0  0  0  0
 31 27  1  0  0  0  0
 32 31  2  0  0  0  0
 33 25  1  0  0  0  0
 34 16  1  0  0  0  0
 34 37  1  0  0  0  0
 35 37  1  0  0  0  0
 37 36  1  0  0  0  0
 38 37  2  0  0  0  0
 39 40  1  0  0  0  0
 40 41  1  0  0  0  0
 41 42  1  0  0  0  0
 42 48  1  0  0  0  0
 43 48  2  0  0  0  0
 43 49  1  0  0  0  0
 47 45  1  0  0  0  0
 47 46  2  0  0  0  0
 48 50  1  0  0  0  0
 49 47  1  0  0  0  0
 50 44  1  6  0  0  0
 50 45  1  0  0  0  0
 51 52  1  0  0  0  0
 51 43  1  0  0  0  0
 52 56  2  0  0  0  0
 53 58  1  6  0  0  0
 53 55  1  0  0  0  0
 54 53  1  0  0  0  0
 54 52  1  0  0  0  0
 55 57  1  0  0  0  0
 56 57  1  0  0  0  0
 58 60  1  0  0  0  0
 59 58  1  0  0  0  0
 61 63  1  0  0  0  0
 63 62  2  0  0  0  0
 64 65  1  0  0  0  0
 64 63  1  0  0  0  0
M  END
>  <MODEL>
1

>  <REMARK>
 VINA RESULT:      -5.8      0.000      0.000
  Name = 
  17 active torsions:
  status: ('A' for Active; 'I' for Inactive)
    1  A    between atoms: C_2  and  C_19
    2  A    between atoms: C_3  and  N_15
    3  A    between atoms: C_5  and  C_19
    4  A    between atoms: C_6  and  C_9
    5  A    between atoms: C_7  and  N_30
    6  A    between atoms: O_11  and  C_42
    7  A    between atoms: C_13  and  N_28
    8  A    between atoms: C_13  and  C_53
    9  A    between atoms: O_14  and  P_27
   10  A    between atoms: O_14  and  C_59
   11  A    between atoms: O_24  and  C_42
   12  A    between atoms: O_24  and  C_46
   13  A    between atoms: N_28  and  C_29
   14  A    between atoms: C_29  and  C_40
   15  A    between atoms: C_33  and  C_53
   16  A    between atoms: C_35  and  C_50
   17  A    between atoms: C_56  and  C_63
                            x       y       z     vdW  Elec       q    Type
                         _______ _______ _______ _____ _____    ______ ____

>  <TORSDO>
F 17

$$$$
=
 OpenBabel10222418333D

 65 72  0  0  1  0  0  0  0  0999 V2000
  189.6610  177.5430  142.7910 C   0  0  0  0  0  0  0  0  0  0  0  0
  184.7410  178.5500  142.2740 C   0  0  0  0  0  3  0  0  0  0  0  0
  189.0100  177.4730  144.0610 N   0  0  0  0  0  2  0  0  0  0  0  0
  187.6390  177.7570  144.1700 N   0  0  0  0  0  0  0  0  0  0  0  0
  190.9810  177.3640  142.7180 C   0  0  0  0  0  3  0  0  0  0  0  0
  185.5410  178.3880  143.2840 N   0  0  0  0  0  0  0  0  0  0  0  0
  186.6750  178.4890  140.6010 C   0  0  1  0  0  3  0  0  0  0  0  0
  185.1680  178.2940  140.8520 C   0  0  2  0  0  3  0  0  0  0  0  0
  186.9200  178.0400  143.1240 C   0  0  0  0  0  0  0  0  0  0  0  0
  187.5260  178.0720  141.7700 C   0  0  0  0  0  0  0  0  0  0  0  0
  188.8380  177.8690  141.6170 C   0  0  0  0  0  3  0  0  0  0  0  0
  183.7560  179.8550  139.2160 C   0  0  0  0  0  0  0  0  0  0  0  0
  184.4100  179.1620  139.9510 C   0  0  0  0  0  0  0  0  0  0  0  0
  181.2410  179.0150  138.2730 N   0  0  0  0  0  2  0  0  0  0  0  0
  182.9660  180.6510  138.3750 N   0  0  0  0  0  0  0  0  0  0  0  0
  181.8070  180.2890  137.9150 C   0  0  0  0  0  0  0  0  0  0  0  0
  180.0470  178.3890  137.6880 C   0  0  1  0  0  3  0  0  0  0  0  0
  179.2430  177.9180  135.3990 C   0  0  0  0  0  2  0  0  0  0  0  0
  178.9320  176.5630  134.8100 C   0  0  0  0  0  2  0  0  0  0  0  0
  179.2710  175.5640  135.8880 C   0  0  0  0  0  2  0  0  0  0  0  0
  180.3640  177.6980  136.3900 C   0  0  2  0  0  3  0  0  0  0  0  0
  179.4790  177.2590  138.5340 C   0  0  1  0  0  3  0  0  0  0  0  0
  180.0410  176.0470  138.1110 O   0  0  0  0  0  0  0  0  0  0  0  0
  180.3390  176.2170  136.7420 C   0  0  1  0  0  3  0  0  0  0  0  0
  179.0940  180.6190  142.4150 C   0  0  0  0  0  3  0  0  0  0  0  0
  179.8340  177.1410  142.3080 N   0  0  0  0  0  0  0  0  0  0  0  0
  179.1000  179.7880  140.1570 N   0  0  0  0  0  0  0  0  0  0  0  0
  179.4050  179.3760  142.8870 N   0  0  0  0  0  0  0  0  0  0  0  0
  179.8890  176.3900  141.0450 C   0  0  0  0  0  2  0  0  0  0  0  0
  179.5590  178.3610  141.9990 C   0  0  0  0  0  0  0  0  0  0  0  0
  179.4020  178.5660  140.6640 C   0  0  0  0  0  0  0  0  0  0  0  0
  179.5830  177.4390  140.0150 C   0  0  0  0  0  0  0  0  0  0  0  0
  178.9390  180.8300  141.0270 C   0  0  0  0  0  3  0  0  0  0  0  0
  181.1080  181.1350  137.0490 O   0  0  0  0  0  0  0  0  0  0  0  0
  179.4940  183.2820  136.3390 O   0  0  0  0  0  0  0  0  0  0  0  0
  179.9330  182.7430  139.0130 O   0  0  0  0  0  1  0  0  0  0  0  0
  180.6290  182.7350  137.4660 P   0  0  0  0  0  0  0  0  0  0  0  0
  181.8320  183.6490  137.4480 O   0  0  0  0  0  1  0  0  0  0  0  0
  191.7610  177.4410  141.4400 C   0  0  0  0  0  2  0  0  0  0  0  0
  190.8500  177.3480  140.2220 C   0  0  0  0  0  2  0  0  0  0  0  0
  191.0470  176.0850  139.5260 N   0  0  0  0  0  2  0  0  0  0  0  0
  191.8560  176.3520  138.3460 C   0  0  0  0  0  2  0  0  0  0  0  0
  193.0170  174.3890  137.3750 C   0  0  0  0  0  0  0  0  0  0  0  0
  189.4110  175.3640  137.0450 C   0  0  0  0  0  1  0  0  0  0  0  0
  190.6300  173.4160  136.0890 C   0  0  0  0  0  2  0  0  0  0  0  0
  192.1140  172.0480  134.8100 O   0  0  0  0  0  0  0  0  0  0  0  0
  191.9760  172.8910  135.7360 C   0  0  0  0  0  0  0  0  0  0  0  0
  191.8940  175.1320  137.4700 C   0  0  0  0  0  0  0  0  0  0  0  0
  193.0900  173.3340  136.4490 O   0  0  0  0  0  0  0  0  0  0  0  0
  190.7480  174.8800  136.5080 C   0  0  2  0  0  3  0  0  0  0  0  0
  194.2360  174.7230  138.1970 C   0  0  0  0  0  2  0  0  0  0  0  0
  195.5070  174.2860  137.5330 C   0  0  0  0  0  0  0  0  0  0  0  0
  197.4160  172.5820  137.1950 C   0  0  2  0  0  3  0  0  0  0  0  0
  196.2590  173.0820  138.0930 C   0  0  0  0  0  2  0  0  0  0  0  0
  197.2910  173.0390  135.7400 C   0  0  0  0  0  2  0  0  0  0  0  0
  195.9250  174.9540  136.4410 C   0  0  0  0  0  3  0  0  0  0  0  0
  197.1730  174.5540  135.7150 C   0  0  0  0  0  2  0  0  0  0  0  0
  197.5380  171.0600  137.2940 C   0  0  0  0  0  3  0  0  0  0  0  0
  196.2940  170.4810  137.5820 O   0  0  0  0  0  1  0  0  0  0  0  0
  198.0400  170.5240  136.1020 O   0  0  0  0  0  1  0  0  0  0  0  0
  187.0820  177.8590  139.3740 O   0  0  0  0  0  0  0  0  0  0  0  0
  188.8640  178.8470  138.1290 C   0  0  0  0  0  2  0  0  0  0  0  0
  187.5790  178.5300  138.2410 C   0  0  0  0  0  0  0  0  0  0  0  0
  186.6870  178.8690  137.2210 O   0  0  0  0  0  0  0  0  0  0  0  0
  186.7950  178.3420  135.9880 O   0  0  0  0  0  1  0  0  0  0  0  0
  1  3  1  0  0  0  0
  2  6  2  0  0  0  0
  3  4  1  0  0  0  0
  5  1  2  0  0  0  0
  7 61  1  6  0  0  0
  7  8  1  0  0  0  0
  7 10  1  0  0  0  0
  8 13  1  6  0  0  0
  8  2  1  0  0  0  0
  9  6  1  0  0  0  0
  9  4  2  0  0  0  0
 10  9  1  0  0  0  0
 11 10  2  0  0  0  0
 11  1  1  0  0  0  0
 12 13  3  0  0  0  0
 15 12  1  0  0  0  0
 16 14  1  0  0  0  0
 16 15  2  0  0  0  0
 17 14  1  1  0  0  0
 17 22  1  0  0  0  0
 19 18  1  0  0  0  0
 19 20  1  0  0  0  0
 21 18  1  6  0  0  0
 21 24  1  0  0  0  0
 21 17  1  0  0  0  0
 22 32  1  1  0  0  0
 23 22  1  0  0  0  0
 24 20  1  6  0  0  0
 24 23  1  0  0  0  0
 25 28  2  0  0  0  0
 27 31  1  0  0  0  0
 27 33  2  0  0  0  0
 29 26  1  0  0  0  0
 30 26  2  0  0  0  0
 30 28  1  0  0  0  0
 31 30  1  0  0  0  0
 32 31  2  0  0  0  0
 32 29  1  0  0  0  0
 33 25  1  0  0  0  0
 34 37  1  0  0  0  0
 34 16  1  0  0  0  0
 35 37  2  0  0  0  0
 37 36  1  0  0  0  0
 38 37  1  0  0  0  0
 39  5  1  0  0  0  0
 40 39  1  0  0  0  0
 41 40  1  0  0  0  0
 42 41  1  0  0  0  0
 43 48  2  0  0  0  0
 43 51  1  0  0  0  0
 45 50  1  0  0  0  0
 46 47  2  0  0  0  0
 47 45  1  0  0  0  0
 47 49  1  0  0  0  0
 48 42  1  0  0  0  0
 49 43  1  0  0  0  0
 50 44  1  1  0  0  0
 50 48  1  0  0  0  0
 52 54  1  0  0  0  0
 52 51  1  0  0  0  0
 53 58  1  6  0  0  0
 53 54  1  0  0  0  0
 55 53  1  0  0  0  0
 56 52  2  0  0  0  0
 57 55  1  0  0  0  0
 57 56  1  0  0  0  0
 58 59  1  0  0  0  0
 60 58  1  0  0  0  0
 62 63  2  0  0  0  0
 63 61  1  0  0  0  0
 64 63  1  0  0  0  0
 65 64  1  0  0  0  0
M  END
>  <MODEL>
2

>  <REMARK>
 VINA RESULT:      -5.6      4.500      9.200
  Name = 
  17 active torsions:
  status: ('A' for Active; 'I' for Inactive)
    1  A    between atoms: C_2  and  C_19
    2  A    between atoms: C_3  and  N_15
    3  A    between atoms: C_5  and  C_19
    4  A    between atoms: C_6  and  C_9
    5  A    between atoms: C_7  and  N_30
    6  A    between atoms: O_11  and  C_42
    7  A    between atoms: C_13  and  N_28
    8  A    between atoms: C_13  and  C_53
    9  A    between atoms: O_14  and  P_27
   10  A    between atoms: O_14  and  C_59
   11  A    between atoms: O_24  and  C_42
   12  A    between atoms: O_24  and  C_46
   13  A    between atoms: N_28  and  C_29
   14  A    between atoms: C_29  and  C_40
   15  A    between atoms: C_33  and  C_53
   16  A    between atoms: C_35  and  C_50
   17  A    between atoms: C_56  and  C_63
                            x       y       z     vdW  Elec       q    Type
                         _______ _______ _______ _____ _____    ______ ____

>  <TORSDO>
F 17

$$$$
=
 OpenBabel10222418333D

 65 72  0  0  1  0  0  0  0  0999 V2000
  185.8670  178.1480  142.3960 C   0  0  0  0  0  0  0  0  0  0  0  0
  190.4910  176.2530  141.6820 C   0  0  0  0  0  3  0  0  0  0  0  0
  186.2910  177.4390  143.5630 N   0  0  0  0  0  2  0  0  0  0  0  0
  187.5360  176.7880  143.5800 N   0  0  0  0  0  0  0  0  0  0  0  0
  184.6430  178.6790  142.3600 C   0  0  0  0  0  3  0  0  0  0  0  0
  189.5810  176.1240  142.5990 N   0  0  0  0  0  0  0  0  0  0  0  0
  188.9250  177.5990  140.1720 C   0  0  1  0  0  3  0  0  0  0  0  0
  190.3740  177.2500  140.5570 C   0  0  2  0  0  3  0  0  0  0  0  0
  188.3490  176.8540  142.5680 C   0  0  0  0  0  0  0  0  0  0  0  0
  187.9900  177.6220  141.3510 C   0  0  0  0  0  0  0  0  0  0  0  0
  186.7940  178.2090  141.2570 C   0  0  0  0  0  3  0  0  0  0  0  0
  191.6310  176.3220  138.3970 C   0  0  0  0  0  0  0  0  0  0  0  0
  191.0820  176.7440  139.3810 C   0  0  0  0  0  0  0  0  0  0  0  0
  190.2820  174.6580  136.5720 N   0  0  0  0  0  2  0  0  0  0  0  0
  192.2410  175.8340  137.2330 N   0  0  0  0  0  0  0  0  0  0  0  0
  191.6500  175.0570  136.3760 C   0  0  0  0  0  0  0  0  0  0  0  0
  189.5470  173.6420  135.8060 C   0  0  1  0  0  3  0  0  0  0  0  0
  189.4900  171.1720  135.7480 C   0  0  0  0  0  2  0  0  0  0  0  0
  188.2990  170.2860  136.0240 C   0  0  0  0  0  2  0  0  0  0  0  0
  187.1760  171.2220  136.3970 C   0  0  0  0  0  2  0  0  0  0  0  0
  189.3140  172.3970  136.6170 C   0  0  2  0  0  3  0  0  0  0  0  0
  188.1320  174.0660  135.4390 C   0  0  1  0  0  3  0  0  0  0  0  0
  187.2510  173.6220  136.4350 O   0  0  0  0  0  0  0  0  0  0  0  0
  187.8360  172.4570  136.9760 C   0  0  1  0  0  3  0  0  0  0  0  0
  184.6820  177.8160  134.7150 C   0  0  0  0  0  3  0  0  0  0  0  0
  188.2380  177.7800  134.6770 N   0  0  0  0  0  0  0  0  0  0  0  0
  185.5450  175.6090  135.1320 N   0  0  0  0  0  0  0  0  0  0  0  0
  185.9510  178.3050  134.5980 N   0  0  0  0  0  0  0  0  0  0  0  0
  189.0120  176.5520  134.9160 C   0  0  0  0  0  2  0  0  0  0  0  0
  186.9950  177.4500  134.7470 C   0  0  0  0  0  0  0  0  0  0  0  0
  186.7920  176.1330  135.0150 C   0  0  0  0  0  0  0  0  0  0  0  0
  187.9460  175.5170  135.1320 C   0  0  0  0  0  0  0  0  0  0  0  0
  184.4730  176.4460  134.9870 C   0  0  0  0  0  3  0  0  0  0  0  0
  192.3540  174.5890  135.2630 O   0  0  0  0  0  0  0  0  0  0  0  0
  195.0110  174.0300  134.6720 O   0  0  0  0  0  1  0  0  0  0  0  0
  193.8900  172.9990  136.9770 O   0  0  0  0  0  1  0  0  0  0  0  0
  193.5980  173.4030  135.3560 P   0  0  0  0  0  0  0  0  0  0  0  0
  193.1800  172.1650  134.5950 O   0  0  0  0  0  0  0  0  0  0  0  0
  184.0940  179.4200  141.1780 C   0  0  0  0  0  2  0  0  0  0  0  0
  182.8270  178.7640  140.6450 C   0  0  0  0  0  2  0  0  0  0  0  0
  183.1400  177.5230  139.9530 N   0  0  0  0  0  2  0  0  0  0  0  0
  183.0880  177.7900  138.5230 C   0  0  0  0  0  2  0  0  0  0  0  0
  181.0000  177.4010  137.2440 C   0  0  0  0  0  0  0  0  0  0  0  0
  183.5600  174.8920  138.3450 C   0  0  0  0  0  1  0  0  0  0  0  0
  181.4480  174.5610  137.0720 C   0  0  0  0  0  2  0  0  0  0  0  0
  179.1430  174.4340  136.4550 O   0  0  0  0  0  0  0  0  0  0  0  0
  180.1270  175.1630  136.7500 C   0  0  0  0  0  0  0  0  0  0  0  0
  182.0760  176.8870  137.8760 C   0  0  0  0  0  0  0  0  0  0  0  0
  179.9880  176.5510  136.7660 O   0  0  0  0  0  0  0  0  0  0  0  0
  182.1390  175.3950  138.1480 C   0  0  2  0  0  3  0  0  0  0  0  0
  180.8230  178.8930  137.1100 C   0  0  0  0  0  2  0  0  0  0  0  0
  180.2240  179.5070  138.3390 C   0  0  0  0  0  0  0  0  0  0  0  0
  178.9960  179.3100  140.6010 C   0  0  2  0  0  3  0  0  0  0  0  0
  179.3610  178.6420  139.2530 C   0  0  0  0  0  2  0  0  0  0  0  0
  179.9320  180.4600  140.9770 C   0  0  0  0  0  2  0  0  0  0  0  0
  180.4960  180.7970  138.6120 C   0  0  0  0  0  3  0  0  0  0  0  0
  179.9490  181.4640  139.8370 C   0  0  0  0  0  2  0  0  0  0  0  0
  178.9320  178.2570  141.7090 C   0  0  0  0  0  3  0  0  0  0  0  0
  179.8250  177.2090  141.4490 O   0  0  0  0  0  1  0  0  0  0  0  0
  179.2270  178.8270  142.9530 O   0  0  0  0  0  1  0  0  0  0  0  0
  188.8710  178.8130  139.4030 O   0  0  0  0  0  0  0  0  0  0  0  0
  189.3810  178.9580  137.0760 C   0  0  0  0  0  2  0  0  0  0  0  0
  188.4840  178.9050  138.0540 C   0  0  0  0  0  0  0  0  0  0  0  0
  187.1210  178.9450  137.7500 O   0  0  0  0  0  0  0  0  0  0  0  0
  186.3170  177.8920  137.9820 O   0  0  0  0  0  1  0  0  0  0  0  0
  1  3  1  0  0  0  0
  2  6  2  0  0  0  0
  3  4  1  0  0  0  0
  5  1  2  0  0  0  0
  7 61  1  1  0  0  0
  7  8  1  0  0  0  0
  7 10  1  0  0  0  0
  8 13  1  6  0  0  0
  8  2  1  0  0  0  0
  9  6  1  0  0  0  0
  9  4  2  0  0  0  0
 10  9  1  0  0  0  0
 11 10  2  0  0  0  0
 11  1  1  0  0  0  0
 12 13  3  0  0  0  0
 15 12  1  0  0  0  0
 16 14  1  0  0  0  0
 16 15  2  0  0  0  0
 17 14  1  1  0  0  0
 17 21  1  0  0  0  0
 18 19  1  0  0  0  0
 19 20  1  0  0  0  0
 21 18  1  6  0  0  0
 21 24  1  0  0  0  0
 22 32  1  1  0  0  0
 22 17  1  0  0  0  0
 22 23  1  0  0  0  0
 23 24  1  0  0  0  0
 24 20  1  6  0  0  0
 25 33  1  0  0  0  0
 26 30  2  0  0  0  0
 26 29  1  0  0  0  0
 28 25  2  0  0  0  0
 28 30  1  0  0  0  0
 29 32  1  0  0  0  0
 30 31  1  0  0  0  0
 31 32  2  0  0  0  0
 31 27  1  0  0  0  0
 33 27  2  0  0  0  0
 34 37  1  0  0  0  0
 34 16  1  0  0  0  0
 35 37  1  0  0  0  0
 37 36  1  0  0  0  0
 38 37  2  0  0  0  0
 39  5  1  0  0  0  0
 40 39  1  0  0  0  0
 41 40  1  0  0  0  0
 42 41  1  0  0  0  0
 43 48  2  0  0  0  0
 45 50  1  0  0  0  0
 46 47  2  0  0  0  0
 47 49  1  0  0  0  0
 47 45  1  0  0  0  0
 48 50  1  0  0  0  0
 48 42  1  0  0  0  0
 49 43  1  0  0  0  0
 50 44  1  6  0  0  0
 51 43  1  0  0  0  0
 51 52  1  0  0  0  0
 52 56  2  0  0  0  0
 52 54  1  0  0  0  0
 53 55  1  0  0  0  0
 53 58  1  1  0  0  0
 54 53  1  0  0  0  0
 56 57  1  0  0  0  0
 57 55  1  0  0  0  0
 58 60  1  0  0  0  0
 59 58  1  0  0  0  0
 62 63  2  0  0  0  0
 63 61  1  0  0  0  0
 64 65  1  0  0  0  0
 64 63  1  0  0  0  0
M  END
>  <MODEL>
3

>  <REMARK>
 VINA RESULT:      -5.3      3.260      7.858
  Name = 
  17 active torsions:
  status: ('A' for Active; 'I' for Inactive)
    1  A    between atoms: C_2  and  C_19
    2  A    between atoms: C_3  and  N_15
    3  A    between atoms: C_5  and  C_19
    4  A    between atoms: C_6  and  C_9
    5  A    between atoms: C_7  and  N_30
    6  A    between atoms: O_11  and  C_42
    7  A    between atoms: C_13  and  N_28
    8  A    between atoms: C_13  and  C_53
    9  A    between atoms: O_14  and  P_27
   10  A    between atoms: O_14  and  C_59
   11  A    between atoms: O_24  and  C_42
   12  A    between atoms: O_24  and  C_46
   13  A    between atoms: N_28  and  C_29
   14  A    between atoms: C_29  and  C_40
   15  A    between atoms: C_33  and  C_53
   16  A    between atoms: C_35  and  C_50
   17  A    between atoms: C_56  and  C_63
                            x       y       z     vdW  Elec       q    Type
                         _______ _______ _______ _____ _____    ______ ____

>  <TORSDO>
F 17

$$$$
=
 OpenBabel10222418333D

 65 72  0  0  1  0  0  0  0  0999 V2000
  189.8710  177.4280  146.1300 C   0  0  0  0  0  0  0  0  0  0  0  0
  185.0360  178.6490  145.3440 C   0  0  0  0  0  3  0  0  0  0  0  0
  189.2710  177.8630  147.3520 N   0  0  0  0  0  2  0  0  0  0  0  0
  187.9340  178.2950  147.3690 N   0  0  0  0  0  0  0  0  0  0  0  0
  191.1670  177.1110  146.1110 C   0  0  0  0  0  3  0  0  0  0  0  0
  185.8610  178.7730  146.3400 N   0  0  0  0  0  0  0  0  0  0  0  0
  186.8860  177.8310  143.7790 C   0  0  1  0  0  3  0  0  0  0  0  0
  185.3800  177.8770  144.0970 C   0  0  2  0  0  3  0  0  0  0  0  0
  187.1990  178.2640  146.2970 C   0  0  0  0  0  0  0  0  0  0  0  0
  187.7470  177.7680  145.0110 C   0  0  0  0  0  0  0  0  0  0  0  0
  189.0290  177.4020  144.9250 C   0  0  0  0  0  3  0  0  0  0  0  0
  184.0370  178.9000  142.0330 C   0  0  0  0  0  0  0  0  0  0  0  0
  184.6600  178.4460  142.9570 C   0  0  0  0  0  0  0  0  0  0  0  0
  184.7120  178.4540  139.3380 N   0  0  0  0  0  2  0  0  0  0  0  0
  183.2820  179.4230  140.9740 N   0  0  0  0  0  0  0  0  0  0  0  0
  183.5720  179.2440  139.7210 C   0  0  0  0  0  0  0  0  0  0  0  0
  185.2740  178.3230  137.9870 C   0  0  1  0  0  3  0  0  0  0  0  0
  187.3710  179.0100  136.8730 C   0  0  0  0  0  2  0  0  0  0  0  0
  188.3930  178.1050  136.2280 C   0  0  0  0  0  2  0  0  0  0  0  0
  187.8950  176.7000  136.4600 C   0  0  0  0  0  2  0  0  0  0  0  0
  186.7750  178.2240  138.0180 C   0  0  2  0  0  3  0  0  0  0  0  0
  184.8730  177.0340  137.2860 C   0  0  1  0  0  3  0  0  0  0  0  0
  185.8460  176.0570  137.5370 O   0  0  0  0  0  0  0  0  0  0  0  0
  187.0570  176.7570  137.7230 C   0  0  1  0  0  3  0  0  0  0  0  0
  179.9610  177.0920  135.7490 C   0  0  0  0  0  3  0  0  0  0  0  0
  181.6170  175.4740  138.4490 N   0  0  0  0  0  0  0  0  0  0  0  0
  182.3100  177.6100  135.7790 N   0  0  0  0  0  0  0  0  0  0  0  0
  180.1050  176.3110  136.8590 N   0  0  0  0  0  0  0  0  0  0  0  0
  183.0620  175.6210  138.6830 C   0  0  0  0  0  2  0  0  0  0  0  0
  181.3380  176.1890  137.4140 C   0  0  0  0  0  0  0  0  0  0  0  0
  182.4160  176.8210  136.8780 C   0  0  0  0  0  0  0  0  0  0  0  0
  183.4920  176.5380  137.5740 C   0  0  0  0  0  0  0  0  0  0  0  0
  181.0810  177.7530  135.1980 C   0  0  0  0  0  3  0  0  0  0  0  0
  182.7810  179.8380  138.7340 O   0  0  0  0  0  0  0  0  0  0  0  0
  180.6960  181.2410  139.9200 O   0  0  0  0  0  1  0  0  0  0  0  0
  180.4160  180.3370  137.3250 O   0  0  0  0  0  0  0  0  0  0  0  0
  181.0690  179.9870  138.8500 P   0  0  0  0  0  0  0  0  0  0  0  0
  180.4790  178.6950  139.3680 O   0  0  0  0  0  1  0  0  0  0  0  0
  191.8960  176.6670  144.8790 C   0  0  0  0  0  2  0  0  0  0  0  0
  191.6210  177.5930  143.7020 C   0  0  0  0  0  2  0  0  0  0  0  0
  191.8590  176.9090  142.4400 N   0  0  0  0  0  2  0  0  0  0  0  0
  192.4340  177.8750  141.5140 C   0  0  0  0  0  2  0  0  0  0  0  0
  193.7880  176.5670  139.9010 C   0  0  0  0  0  0  0  0  0  0  0  0
  190.2530  177.7700  139.5430 C   0  0  0  0  0  1  0  0  0  0  0  0
  191.6620  176.4650  137.9600 C   0  0  0  0  0  2  0  0  0  0  0  0
  193.3670  175.8100  136.4190 O   0  0  0  0  0  0  0  0  0  0  0  0
  193.0610  176.1060  137.6050 C   0  0  0  0  0  0  0  0  0  0  0  0
  192.6440  177.2300  140.1740 C   0  0  0  0  0  0  0  0  0  0  0  0
  194.0350  176.0900  138.6020 O   0  0  0  0  0  0  0  0  0  0  0  0
  191.6720  177.5360  139.0490 C   0  0  2  0  0  3  0  0  0  0  0  0
  194.8520  176.3970  140.9560 C   0  0  0  0  0  2  0  0  0  0  0  0
  196.0320  175.6220  140.4540 C   0  0  0  0  0  0  0  0  0  0  0  0
  197.1000  173.9220  138.8310 C   0  0  2  0  0  3  0  0  0  0  0  0
  195.8030  174.4900  139.4550 C   0  0  0  0  0  2  0  0  0  0  0  0
  198.2900  174.8790  138.9350 C   0  0  0  0  0  2  0  0  0  0  0  0
  197.2600  175.9730  140.8770 C   0  0  0  0  0  3  0  0  0  0  0  0
  198.4840  175.2550  140.3950 C   0  0  0  0  0  2  0  0  0  0  0  0
  196.8460  173.5020  137.3820 C   0  0  0  0  0  3  0  0  0  0  0  0
  198.0560  173.2450  136.7220 O   0  0  0  0  0  1  0  0  0  0  0  0
  196.0330  172.3640  137.3300 O   0  0  0  0  0  1  0  0  0  0  0  0
  187.1870  176.7800  142.8440 O   0  0  0  0  0  0  0  0  0  0  0  0
  188.3310  177.8580  141.0480 C   0  0  0  0  0  2  0  0  0  0  0  0
  188.2010  176.8230  141.8700 C   0  0  0  0  0  0  0  0  0  0  0  0
  189.0830  175.7440  141.7750 O   0  0  0  0  0  0  0  0  0  0  0  0
  189.3860  174.9870  142.8440 O   0  0  0  0  0  1  0  0  0  0  0  0
  1  3  1  0  0  0  0
  2  6  2  0  0  0  0
  3  4  1  0  0  0  0
  5  1  2  0  0  0  0
  7 61  1  6  0  0  0
  7  8  1  0  0  0  0
  7 10  1  0  0  0  0
  8 13  1  6  0  0  0
  8  2  1  0  0  0  0
  9  6  1  0  0  0  0
  9  4  2  0  0  0  0
 10  9  1  0  0  0  0
 11 10  2  0  0  0  0
 11  1  1  0  0  0  0
 12 13  3  0  0  0  0
 14 16  1  0  0  0  0
 15 12  1  0  0  0  0
 16 15  2  0  0  0  0
 17 21  1  0  0  0  0
 17 14  1  1  0  0  0
 19 20  1  0  0  0  0
 19 18  1  0  0  0  0
 21 18  1  6  0  0  0
 22 23  1  0  0  0  0
 22 32  1  1  0  0  0
 22 17  1  0  0  0  0
 23 24  1  0  0  0  0
 24 20  1  6  0  0  0
 24 21  1  0  0  0  0
 25 28  2  0  0  0  0
 26 29  1  0  0  0  0
 27 31  1  0  0  0  0
 28 30  1  0  0  0  0
 30 26  2  0  0  0  0
 31 30  1  0  0  0  0
 31 32  2  0  0  0  0
 32 29  1  0  0  0  0
 33 25  1  0  0  0  0
 33 27  2  0  0  0  0
 34 37  1  0  0  0  0
 34 16  1  0  0  0  0
 36 37  2  0  0  0  0
 37 38  1  0  0  0  0
 37 35  1  0  0  0  0
 39  5  1  0  0  0  0
 40 39  1  0  0  0  0
 41 40  1  0  0  0  0
 42 41  1  0  0  0  0
 43 48  2  0  0  0  0
 43 51  1  0  0  0  0
 45 50  1  0  0  0  0
 46 47  2  0  0  0  0
 47 45  1  0  0  0  0
 47 49  1  0  0  0  0
 48 42  1  0  0  0  0
 49 43  1  0  0  0  0
 50 44  1  1  0  0  0
 50 48  1  0  0  0  0
 52 56  2  0  0  0  0
 52 51  1  0  0  0  0
 53 58  1  6  0  0  0
 53 55  1  0  0  0  0
 53 54  1  0  0  0  0
 54 52  1  0  0  0  0
 55 57  1  0  0  0  0
 57 56  1  0  0  0  0
 59 58  1  0  0  0  0
 60 58  1  0  0  0  0
 62 63  2  0  0  0  0
 63 61  1  0  0  0  0
 64 63  1  0  0  0  0
 64 65  1  0  0  0  0
M  END
>  <MODEL>
4

>  <REMARK>
 VINA RESULT:      -5.2      3.790      8.881
  Name = 
  17 active torsions:
  status: ('A' for Active; 'I' for Inactive)
    1  A    between atoms: C_2  and  C_19
    2  A    between atoms: C_3  and  N_15
    3  A    between atoms: C_5  and  C_19
    4  A    between atoms: C_6  and  C_9
    5  A    between atoms: C_7  and  N_30
    6  A    between atoms: O_11  and  C_42
    7  A    between atoms: C_13  and  N_28
    8  A    between atoms: C_13  and  C_53
    9  A    between atoms: O_14  and  P_27
   10  A    between atoms: O_14  and  C_59
   11  A    between atoms: O_24  and  C_42
   12  A    between atoms: O_24  and  C_46
   13  A    between atoms: N_28  and  C_29
   14  A    between atoms: C_29  and  C_40
   15  A    between atoms: C_33  and  C_53
   16  A    between atoms: C_35  and  C_50
   17  A    between atoms: C_56  and  C_63
                            x       y       z     vdW  Elec       q    Type
                         _______ _______ _______ _____ _____    ______ ____

>  <TORSDO>
F 17

$$$$
=
 OpenBabel10222418333D

 65 72  0  0  1  0  0  0  0  0999 V2000
  190.2300  177.7510  143.1200 C   0  0  0  0  0  0  0  0  0  0  0  0
  185.2750  178.6420  142.7440 C   0  0  0  0  0  3  0  0  0  0  0  0
  189.6440  177.8150  144.4220 N   0  0  0  0  0  2  0  0  0  0  0  0
  188.2750  178.0960  144.5680 N   0  0  0  0  0  0  0  0  0  0  0  0
  191.5480  177.5780  143.0010 C   0  0  0  0  0  3  0  0  0  0  0  0
  186.1260  178.6020  143.7240 N   0  0  0  0  0  0  0  0  0  0  0  0
  187.1260  178.4140  140.9930 C   0  0  1  0  0  3  0  0  0  0  0  0
  185.6360  178.2330  141.3390 C   0  0  2  0  0  3  0  0  0  0  0  0
  187.5010  178.2530  143.5340 C   0  0  0  0  0  0  0  0  0  0  0  0
  188.0390  178.1400  142.1560 C   0  0  0  0  0  0  0  0  0  0  0  0
  189.3450  177.9350  141.9600 C   0  0  0  0  0  3  0  0  0  0  0  0
  184.1610  179.6390  139.6190 C   0  0  0  0  0  0  0  0  0  0  0  0
  184.8210  178.9870  140.3860 C   0  0  0  0  0  0  0  0  0  0  0  0
  181.5510  178.9450  138.8300 N   0  0  0  0  0  2  0  0  0  0  0  0
  183.4110  180.4250  138.7340 N   0  0  0  0  0  0  0  0  0  0  0  0
  182.2090  180.1280  138.3430 C   0  0  0  0  0  0  0  0  0  0  0  0
  180.2870  178.3780  138.3390 C   0  0  1  0  0  3  0  0  0  0  0  0
  179.5850  177.0890  136.3500 C   0  0  0  0  0  2  0  0  0  0  0  0
  178.9710  175.7100  136.3360 C   0  0  0  0  0  2  0  0  0  0  0  0
  178.9330  175.2670  137.7770 C   0  0  0  0  0  2  0  0  0  0  0  0
  180.5150  177.1230  137.5420 C   0  0  2  0  0  3  0  0  0  0  0  0
  179.3650  177.9010  139.4510 C   0  0  1  0  0  3  0  0  0  0  0  0
  179.6120  176.5430  139.6960 O   0  0  0  0  0  0  0  0  0  0  0  0
  180.0610  176.0050  138.4710 C   0  0  1  0  0  3  0  0  0  0  0  0
  180.0260  177.7550  144.5530 C   0  0  0  0  0  3  0  0  0  0  0  0
  179.3350  180.4130  142.2920 N   0  0  0  0  0  0  0  0  0  0  0  0
  179.8400  176.9610  142.2900 N   0  0  0  0  0  0  0  0  0  0  0  0
  179.7770  179.0330  144.1390 N   0  0  0  0  0  0  0  0  0  0  0  0
  179.1850  180.1920  140.8460 C   0  0  0  0  0  2  0  0  0  0  0  0
  179.5640  179.2590  142.8180 C   0  0  0  0  0  0  0  0  0  0  0  0
  179.6020  178.2430  141.9150 C   0  0  0  0  0  0  0  0  0  0  0  0
  179.3860  178.7100  140.7070 C   0  0  0  0  0  0  0  0  0  0  0  0
  180.0580  176.7010  143.6140 C   0  0  0  0  0  3  0  0  0  0  0  0
  181.5530  180.9550  137.4270 O   0  0  0  0  0  0  0  0  0  0  0  0
  180.0060  183.0850  136.5370 O   0  0  0  0  0  0  0  0  0  0  0  0
  179.9880  182.4260  139.2200 O   0  0  0  0  0  1  0  0  0  0  0  0
  180.9450  182.5170  137.8230 P   0  0  0  0  0  0  0  0  0  0  0  0
  182.0960  183.4670  138.0600 O   0  0  0  0  0  1  0  0  0  0  0  0
  192.2620  177.5200  141.6850 C   0  0  0  0  0  2  0  0  0  0  0  0
  191.3250  177.1090  140.5570 C   0  0  0  0  0  2  0  0  0  0  0  0
  192.0770  176.5950  139.4220 N   0  0  0  0  0  2  0  0  0  0  0  0
  191.1620  176.4960  138.2940 C   0  0  0  0  0  2  0  0  0  0  0  0
  190.7790  174.8760  136.4560 C   0  0  0  0  0  0  0  0  0  0  0  0
  193.9980  175.7220  138.1850 C   0  0  0  0  0  1  0  0  0  0  0  0
  193.5520  174.1050  136.3470 C   0  0  0  0  0  2  0  0  0  0  0  0
  192.7760  172.2280  135.0880 O   0  0  0  0  0  0  0  0  0  0  0  0
  192.4930  173.3070  135.6730 C   0  0  0  0  0  0  0  0  0  0  0  0
  191.6260  175.4150  137.3580 C   0  0  0  0  0  0  0  0  0  0  0  0
  191.1780  173.7720  135.6840 O   0  0  0  0  0  0  0  0  0  0  0  0
  192.9750  174.7620  137.5990 C   0  0  2  0  0  3  0  0  0  0  0  0
  189.3700  175.3940  136.3160 C   0  0  0  0  0  2  0  0  0  0  0  0
  188.3450  174.3450  136.6310 C   0  0  0  0  0  0  0  0  0  0  0  0
  185.9400  173.6430  137.2490 C   0  0  2  0  0  3  0  0  0  0  0  0
  186.9910  174.7770  137.1870 C   0  0  0  0  0  2  0  0  0  0  0  0
  186.2620  172.4690  136.3220 C   0  0  0  0  0  2  0  0  0  0  0  0
  188.6450  173.0570  136.3800 C   0  0  0  0  0  3  0  0  0  0  0  0
  187.6580  171.9630  136.6480 C   0  0  0  0  0  2  0  0  0  0  0  0
  184.5440  174.2050  136.9740 C   0  0  0  0  0  3  0  0  0  0  0  0
  184.0800  173.7850  135.7190 O   0  0  0  0  0  1  0  0  0  0  0  0
  183.6420  173.8040  137.9660 O   0  0  0  0  0  1  0  0  0  0  0  0
  187.4820  177.6560  139.8240 O   0  0  0  0  0  0  0  0  0  0  0  0
  186.7930  178.1240  137.5870 C   0  0  0  0  0  2  0  0  0  0  0  0
  187.7110  178.1940  138.5440 C   0  0  0  0  0  0  0  0  0  0  0  0
  188.9390  178.8100  138.2870 O   0  0  0  0  0  0  0  0  0  0  0  0
  189.0760  179.7280  137.3140 O   0  0  0  0  0  1  0  0  0  0  0  0
  1  3  1  0  0  0  0
  2  6  2  0  0  0  0
  3  4  1  0  0  0  0
  5  1  2  0  0  0  0
  7 61  1  6  0  0  0
  7  8  1  0  0  0  0
  7 10  1  0  0  0  0
  8 13  1  6  0  0  0
  8  2  1  0  0  0  0
  9  6  1  0  0  0  0
  9  4  2  0  0  0  0
 10  9  1  0  0  0  0
 11 10  2  0  0  0  0
 11  1  1  0  0  0  0
 12 13  3  0  0  0  0
 15 12  1  0  0  0  0
 16 15  2  0  0  0  0
 16 14  1  0  0  0  0
 17 14  1  1  0  0  0
 17 22  1  0  0  0  0
 19 18  1  0  0  0  0
 19 20  1  0  0  0  0
 21 18  1  6  0  0  0
 21 17  1  0  0  0  0
 21 24  1  0  0  0  0
 22 23  1  0  0  0  0
 22 32  1  1  0  0  0
 24 20  1  6  0  0  0
 24 23  1  0  0  0  0
 26 30  2  0  0  0  0
 27 33  2  0  0  0  0
 28 25  2  0  0  0  0
 29 26  1  0  0  0  0
 30 28  1  0  0  0  0
 31 27  1  0  0  0  0
 31 30  1  0  0  0  0
 32 29  1  0  0  0  0
 32 31  2  0  0  0  0
 33 25  1  0  0  0  0
 34 37  1  0  0  0  0
 34 16  1  0  0  0  0
 35 37  2  0  0  0  0
 37 38  1  0  0  0  0
 37 36  1  0  0  0  0
 39  5  1  0  0  0  0
 40 39  1  0  0  0  0
 41 40  1  0  0  0  0
 42 41  1  0  0  0  0
 43 48  2  0  0  0  0
 45 50  1  0  0  0  0
 46 47  2  0  0  0  0
 47 49  1  0  0  0  0
 47 45  1  0  0  0  0
 48 50  1  0  0  0  0
 48 42  1  0  0  0  0
 49 43  1  0  0  0  0
 50 44  1  6  0  0  0
 51 43  1  0  0  0  0
 51 52  1  0  0  0  0
 52 54  1  0  0  0  0
 53 58  1  6  0  0  0
 54 53  1  0  0  0  0
 55 57  1  0  0  0  0
 55 53  1  0  0  0  0
 56 52  2  0  0  0  0
 56 57  1  0  0  0  0
 58 60  1  0  0  0  0
 59 58  1  0  0  0  0
 62 63  2  0  0  0  0
 63 61  1  0  0  0  0
 64 63  1  0  0  0  0
 65 64  1  0  0  0  0
M  END
>  <MODEL>
5

>  <REMARK>
 VINA RESULT:      -4.7      3.463      7.891
  Name = 
  17 active torsions:
  status: ('A' for Active; 'I' for Inactive)
    1  A    between atoms: C_2  and  C_19
    2  A    between atoms: C_3  and  N_15
    3  A    between atoms: C_5  and  C_19
    4  A    between atoms: C_6  and  C_9
    5  A    between atoms: C_7  and  N_30
    6  A    between atoms: O_11  and  C_42
    7  A    between atoms: C_13  and  N_28
    8  A    between atoms: C_13  and  C_53
    9  A    between atoms: O_14  and  P_27
   10  A    between atoms: O_14  and  C_59
   11  A    between atoms: O_24  and  C_42
   12  A    between atoms: O_24  and  C_46
   13  A    between atoms: N_28  and  C_29
   14  A    between atoms: C_29  and  C_40
   15  A    between atoms: C_33  and  C_53
   16  A    between atoms: C_35  and  C_50
   17  A    between atoms: C_56  and  C_63
                            x       y       z     vdW  Elec       q    Type
                         _______ _______ _______ _____ _____    ______ ____

>  <TORSDO>
F 17

$$$$
=
 OpenBabel10222418333D

 65 72  0  0  1  0  0  0  0  0999 V2000
  190.1290  177.9420  144.4940 C   0  0  0  0  0  0  0  0  0  0  0  0
  185.1840  178.2510  143.5260 C   0  0  0  0  0  3  0  0  0  0  0  0
  189.3870  177.8850  145.7130 N   0  0  0  0  0  2  0  0  0  0  0  0
  187.9870  177.9950  145.6950 N   0  0  0  0  0  0  0  0  0  0  0  0
  191.4630  177.9330  144.5350 C   0  0  0  0  0  3  0  0  0  0  0  0
  185.9090  178.2740  144.6040 N   0  0  0  0  0  0  0  0  0  0  0  0
  187.2450  178.3150  142.0140 C   0  0  1  0  0  3  0  0  0  0  0  0
  185.7590  177.9440  142.1680 C   0  0  2  0  0  3  0  0  0  0  0  0
  187.3300  178.0990  144.5780 C   0  0  0  0  0  0  0  0  0  0  0  0
  188.0390  178.1060  143.2740 C   0  0  0  0  0  0  0  0  0  0  0  0
  189.3740  178.0650  143.2380 C   0  0  0  0  0  3  0  0  0  0  0  0
  184.3410  179.2300  140.3120 C   0  0  0  0  0  0  0  0  0  0  0  0
  184.9770  178.6320  141.1400 C   0  0  0  0  0  0  0  0  0  0  0  0
  181.8820  178.3240  139.2860 N   0  0  0  0  0  2  0  0  0  0  0  0
  183.6120  179.9560  139.3600 N   0  0  0  0  0  0  0  0  0  0  0  0
  182.4800  179.5610  138.8600 C   0  0  0  0  0  0  0  0  0  0  0  0
  180.7210  177.6560  138.6810 C   0  0  1  0  0  3  0  0  0  0  0  0
  180.3870  175.8440  137.0340 C   0  0  0  0  0  2  0  0  0  0  0  0
  179.6750  174.5330  137.2620 C   0  0  0  0  0  2  0  0  0  0  0  0
  179.2670  174.5400  138.7150 C   0  0  0  0  0  2  0  0  0  0  0  0
  181.0160  176.2170  138.3570 C   0  0  2  0  0  3  0  0  0  0  0  0
  179.5290  177.5460  139.6200 C   0  0  1  0  0  3  0  0  0  0  0  0
  179.5930  176.3190  140.2950 O   0  0  0  0  0  0  0  0  0  0  0  0
  180.2640  175.4340  139.4240 C   0  0  1  0  0  3  0  0  0  0  0  0
  179.6530  179.0390  144.5440 C   0  0  0  0  0  3  0  0  0  0  0  0
  178.9310  180.7710  141.5220 N   0  0  0  0  0  0  0  0  0  0  0  0
  179.7960  177.5800  142.6360 N   0  0  0  0  0  0  0  0  0  0  0  0
  179.3160  180.0870  143.7350 N   0  0  0  0  0  0  0  0  0  0  0  0
  178.9600  180.1060  140.2110 C   0  0  0  0  0  2  0  0  0  0  0  0
  179.2230  179.8720  142.3980 C   0  0  0  0  0  0  0  0  0  0  0  0
  179.4650  178.6460  141.8630 C   0  0  0  0  0  0  0  0  0  0  0  0
  179.3300  178.6920  140.5580 C   0  0  0  0  0  0  0  0  0  0  0  0
  179.8980  177.7650  143.9870 C   0  0  0  0  0  3  0  0  0  0  0  0
  181.8450  180.3350  137.8850 O   0  0  0  0  0  0  0  0  0  0  0  0
  182.8450  182.8090  138.6600 O   0  0  0  0  0  1  0  0  0  0  0  0
  181.0000  182.6760  136.6070 O   0  0  0  0  0  0  0  0  0  0  0  0
  181.4720  182.0030  138.0910 P   0  0  0  0  0  0  0  0  0  0  0  0
  180.3510  182.1560  139.0940 O   0  0  0  0  0  1  0  0  0  0  0  0
  192.3320  178.0120  143.3170 C   0  0  0  0  0  2  0  0  0  0  0  0
  191.7680  177.1820  142.1710 C   0  0  0  0  0  2  0  0  0  0  0  0
  192.8230  176.7900  141.2480 N   0  0  0  0  0  2  0  0  0  0  0  0
  192.4740  177.3070  139.9330 C   0  0  0  0  0  2  0  0  0  0  0  0
  192.1760  176.1070  137.7840 C   0  0  0  0  0  0  0  0  0  0  0  0
  195.1760  176.1490  140.0350 C   0  0  0  0  0  1  0  0  0  0  0  0
  194.8180  174.9610  137.8780 C   0  0  0  0  0  2  0  0  0  0  0  0
  194.0160  173.4680  136.1930 O   0  0  0  0  0  0  0  0  0  0  0  0
  193.7830  174.4600  136.9350 C   0  0  0  0  0  0  0  0  0  0  0  0
  192.9370  176.3480  138.8720 C   0  0  0  0  0  0  0  0  0  0  0  0
  192.5490  175.1060  136.8700 O   0  0  0  0  0  0  0  0  0  0  0  0
  194.1430  175.4690  139.1510 C   0  0  2  0  0  3  0  0  0  0  0  0
  190.8790  176.8450  137.5690 C   0  0  0  0  0  2  0  0  0  0  0  0
  190.0260  176.2010  136.5190 C   0  0  0  0  0  0  0  0  0  0  0  0
  188.8530  174.1360  135.5060 C   0  0  2  0  0  3  0  0  0  0  0  0
  189.9380  174.6780  136.4680 C   0  0  0  0  0  2  0  0  0  0  0  0
  187.7740  175.1680  135.1710 C   0  0  0  0  0  2  0  0  0  0  0  0
  189.3380  176.9920  135.6740 C   0  0  0  0  0  3  0  0  0  0  0  0
  188.4470  176.4130  134.6180 C   0  0  0  0  0  2  0  0  0  0  0  0
  188.2420  172.8530  136.0710 C   0  0  0  0  0  3  0  0  0  0  0  0
  186.8630  172.8100  135.8250 O   0  0  0  0  0  1  0  0  0  0  0  0
  188.8530  171.7240  135.5130 O   0  0  0  0  0  1  0  0  0  0  0  0
  187.8310  177.6510  140.8800 O   0  0  0  0  0  0  0  0  0  0  0  0
  189.3980  178.5840  139.3390 C   0  0  0  0  0  2  0  0  0  0  0  0
  188.1480  178.2630  139.6530 C   0  0  0  0  0  0  0  0  0  0  0  0
  187.1120  178.5370  138.7560 O   0  0  0  0  0  0  0  0  0  0  0  0
  186.6890  177.6190  137.8690 O   0  0  0  0  0  1  0  0  0  0  0  0
  1  5  2  0  0  0  0
  1  3  1  0  0  0  0
  2  6  2  0  0  0  0
  4  3  1  0  0  0  0
  7 61  1  6  0  0  0
  7  8  1  0  0  0  0
  7 10  1  0  0  0  0
  8 13  1  6  0  0  0
  8  2  1  0  0  0  0
  9  6  1  0  0  0  0
  9  4  2  0  0  0  0
 10  9  1  0  0  0  0
 11 10  2  0  0  0  0
 11  1  1  0  0  0  0
 12 13  3  0  0  0  0
 15 12  1  0  0  0  0
 16 14  1  0  0  0  0
 16 15  2  0  0  0  0
 17 14  1  1  0  0  0
 17 22  1  0  0  0  0
 18 19  1  0  0  0  0
 19 20  1  0  0  0  0
 21 18  1  6  0  0  0
 21 17  1  0  0  0  0
 21 24  1  0  0  0  0
 22 23  1  0  0  0  0
 22 32  1  1  0  0  0
 24 20  1  6  0  0  0
 24 23  1  0  0  0  0
 26 30  2  0  0  0  0
 27 33  2  0  0  0  0
 28 25  2  0  0  0  0
 29 32  1  0  0  0  0
 29 26  1  0  0  0  0
 30 28  1  0  0  0  0
 31 30  1  0  0  0  0
 31 27  1  0  0  0  0
 32 31  2  0  0  0  0
 33 25  1  0  0  0  0
 34 37  1  0  0  0  0
 34 16  1  0  0  0  0
 36 37  2  0  0  0  0
 37 35  1  0  0  0  0
 37 38  1  0  0  0  0
 39  5  1  0  0  0  0
 40 39  1  0  0  0  0
 41 40  1  0  0  0  0
 42 41  1  0  0  0  0
 43 48  2  0  0  0  0
 45 50  1  0  0  0  0
 46 47  2  0  0  0  0
 47 45  1  0  0  0  0
 48 50  1  0  0  0  0
 48 42  1  0  0  0  0
 49 47  1  0  0  0  0
 49 43  1  0  0  0  0
 50 44  1  6  0  0  0
 51 43  1  0  0  0  0
 52 51  1  0  0  0  0
 53 58  1  1  0  0  0
 53 54  1  0  0  0  0
 54 52  1  0  0  0  0
 55 53  1  0  0  0  0
 56 52  2  0  0  0  0
 57 55  1  0  0  0  0
 57 56  1  0  0  0  0
 59 58  1  0  0  0  0
 60 58  1  0  0  0  0
 62 63  2  0  0  0  0
 63 61  1  0  0  0  0
 64 63  1  0  0  0  0
 65 64  1  0  0  0  0
M  END
>  <MODEL>
6

>  <REMARK>
 VINA RESULT:      -4.6      3.467      7.957
  Name = 
  17 active torsions:
  status: ('A' for Active; 'I' for Inactive)
    1  A    between atoms: C_2  and  C_19
    2  A    between atoms: C_3  and  N_15
    3  A    between atoms: C_5  and  C_19
    4  A    between atoms: C_6  and  C_9
    5  A    between atoms: C_7  and  N_30
    6  A    between atoms: O_11  and  C_42
    7  A    between atoms: C_13  and  N_28
    8  A    between atoms: C_13  and  C_53
    9  A    between atoms: O_14  and  P_27
   10  A    between atoms: O_14  and  C_59
   11  A    between atoms: O_24  and  C_42
   12  A    between atoms: O_24  and  C_46
   13  A    between atoms: N_28  and  C_29
   14  A    between atoms: C_29  and  C_40
   15  A    between atoms: C_33  and  C_53
   16  A    between atoms: C_35  and  C_50
   17  A    between atoms: C_56  and  C_63
                            x       y       z     vdW  Elec       q    Type
                         _______ _______ _______ _____ _____    ______ ____

>  <TORSDO>
F 17

$$$$
=
 OpenBabel10222418333D

 65 72  0  0  1  0  0  0  0  0999 V2000
  190.1630  177.7370  144.6930 C   0  0  0  0  0  0  0  0  0  0  0  0
  185.1890  178.1960  143.9600 C   0  0  0  0  0  3  0  0  0  0  0  0
  189.4780  177.7010  145.9460 N   0  0  0  0  0  2  0  0  0  0  0  0
  188.0820  177.8530  145.9940 N   0  0  0  0  0  0  0  0  0  0  0  0
  191.4970  177.6870  144.6710 C   0  0  0  0  0  3  0  0  0  0  0  0
  185.9650  178.1960  145.0020 N   0  0  0  0  0  0  0  0  0  0  0  0
  187.1780  178.1990  142.3520 C   0  0  1  0  0  3  0  0  0  0  0  0
  185.6900  177.8730  142.5760 C   0  0  2  0  0  3  0  0  0  0  0  0
  187.3770  177.9780  144.9090 C   0  0  0  0  0  0  0  0  0  0  0  0
  188.0240  177.9650  143.5740 C   0  0  0  0  0  0  0  0  0  0  0  0
  189.3540  177.8840  143.4740 C   0  0  0  0  0  3  0  0  0  0  0  0
  184.2250  179.2040  140.7890 C   0  0  0  0  0  0  0  0  0  0  0  0
  184.8820  178.5860  141.5860 C   0  0  0  0  0  0  0  0  0  0  0  0
  183.0180  178.0440  138.5280 N   0  0  0  0  0  2  0  0  0  0  0  0
  183.4740  179.9520  139.8730 N   0  0  0  0  0  0  0  0  0  0  0  0
  182.9130  179.4500  138.8150 C   0  0  0  0  0  0  0  0  0  0  0  0
  182.6100  177.3690  137.2880 C   0  0  1  0  0  3  0  0  0  0  0  0
  183.7150  176.7630  135.1610 C   0  0  0  0  0  2  0  0  0  0  0  0
  183.8930  175.3740  134.5970 C   0  0  0  0  0  2  0  0  0  0  0  0
  183.3110  174.4390  135.6290 C   0  0  0  0  0  2  0  0  0  0  0  0
  183.7530  176.6140  136.6660 C   0  0  2  0  0  3  0  0  0  0  0  0
  181.5730  176.2770  137.5060 C   0  0  1  0  0  3  0  0  0  0  0  0
  182.2310  175.0530  137.6850 O   0  0  0  0  0  0  0  0  0  0  0  0
  183.4380  175.1540  136.9590 C   0  0  1  0  0  3  0  0  0  0  0  0
  179.4890  174.4760  141.8540 C   0  0  0  0  0  3  0  0  0  0  0  0
  178.9370  177.4430  139.9710 N   0  0  0  0  0  0  0  0  0  0  0  0
  180.8860  174.5500  139.8960 N   0  0  0  0  0  0  0  0  0  0  0  0
  178.9370  175.6800  141.5220 N   0  0  0  0  0  0  0  0  0  0  0  0
  179.6740  177.7330  138.7320 C   0  0  0  0  0  2  0  0  0  0  0  0
  179.3600  176.3010  140.3910 C   0  0  0  0  0  0  0  0  0  0  0  0
  180.3190  175.7470  139.6020 C   0  0  0  0  0  0  0  0  0  0  0  0
  180.5700  176.5370  138.5830 C   0  0  0  0  0  0  0  0  0  0  0  0
  180.4800  173.9000  141.0290 C   0  0  0  0  0  3  0  0  0  0  0  0
  182.2150  180.2830  137.9370 O   0  0  0  0  0  0  0  0  0  0  0  0
  179.6740  181.3280  137.5160 O   0  0  0  0  0  0  0  0  0  0  0  0
  180.6840  181.2160  140.0850 O   0  0  0  0  0  1  0  0  0  0  0  0
  181.0740  181.4650  138.4540 P   0  0  0  0  0  0  0  0  0  0  0  0
  181.6590  182.8480  138.2800 O   0  0  0  0  0  1  0  0  0  0  0  0
  192.3100  177.7410  143.4130 C   0  0  0  0  0  2  0  0  0  0  0  0
  191.5560  177.1400  142.2340 C   0  0  0  0  0  2  0  0  0  0  0  0
  192.4830  176.6730  141.2130 N   0  0  0  0  0  2  0  0  0  0  0  0
  192.1200  177.3180  139.9590 C   0  0  0  0  0  2  0  0  0  0  0  0
  191.9530  176.4270  137.6510 C   0  0  0  0  0  0  0  0  0  0  0  0
  194.8190  176.1530  140.0550 C   0  0  0  0  0  1  0  0  0  0  0  0
  194.5920  175.2750  137.7380 C   0  0  0  0  0  2  0  0  0  0  0  0
  193.8970  174.0310  135.8190 O   0  0  0  0  0  0  0  0  0  0  0  0
  193.6160  174.9110  136.6760 C   0  0  0  0  0  0  0  0  0  0  0  0
  192.6490  176.5140  138.8040 C   0  0  0  0  0  0  0  0  0  0  0  0
  192.3830  175.5620  136.6300 O   0  0  0  0  0  0  0  0  0  0  0  0
  193.8430  175.6030  139.0270 C   0  0  2  0  0  3  0  0  0  0  0  0
  190.6660  177.1900  137.4660 C   0  0  0  0  0  2  0  0  0  0  0  0
  189.7220  176.4940  136.5330 C   0  0  0  0  0  0  0  0  0  0  0  0
  188.4570  174.3860  135.7460 C   0  0  2  0  0  3  0  0  0  0  0  0
  189.6240  174.9720  136.5780 C   0  0  0  0  0  2  0  0  0  0  0  0
  187.3570  175.4070  135.4460 C   0  0  0  0  0  2  0  0  0  0  0  0
  188.9670  177.2420  135.7060 C   0  0  0  0  0  3  0  0  0  0  0  0
  187.9860  176.6110  134.7660 C   0  0  0  0  0  2  0  0  0  0  0  0
  187.8930  173.1430  136.4360 C   0  0  0  0  0  3  0  0  0  0  0  0
  186.7280  173.4580  137.1500 O   0  0  0  0  0  1  0  0  0  0  0  0
  187.6120  172.1400  135.5000 O   0  0  0  0  0  1  0  0  0  0  0  0
  187.6890  177.5190  141.1920 O   0  0  0  0  0  0  0  0  0  0  0  0
  189.1010  179.0380  140.0080 C   0  0  0  0  0  2  0  0  0  0  0  0
  188.1190  178.1430  140.0060 C   0  0  0  0  0  0  0  0  0  0  0  0
  187.4860  177.8080  138.8070 O   0  0  0  0  0  0  0  0  0  0  0  0
  187.2550  178.7260  137.8520 O   0  0  0  0  0  1  0  0  0  0  0  0
  1  3  1  0  0  0  0
  2  6  2  0  0  0  0
  3  4  1  0  0  0  0
  5  1  2  0  0  0  0
  7 61  1  6  0  0  0
  7  8  1  0  0  0  0
  7 10  1  0  0  0  0
  8 13  1  6  0  0  0
  8  2  1  0  0  0  0
  9  6  1  0  0  0  0
  9  4  2  0  0  0  0
 10  9  1  0  0  0  0
 11 10  2  0  0  0  0
 11  1  1  0  0  0  0
 12 13  3  0  0  0  0
 14 16  1  0  0  0  0
 15 12  1  0  0  0  0
 16 15  2  0  0  0  0
 17 22  1  0  0  0  0
 17 14  1  1  0  0  0
 19 18  1  0  0  0  0
 19 20  1  0  0  0  0
 21 18  1  6  0  0  0
 21 24  1  0  0  0  0
 21 17  1  0  0  0  0
 22 23  1  0  0  0  0
 22 32  1  1  0  0  0
 24 20  1  6  0  0  0
 24 23  1  0  0  0  0
 26 30  2  0  0  0  0
 27 33  2  0  0  0  0
 28 25  2  0  0  0  0
 29 26  1  0  0  0  0
 30 28  1  0  0  0  0
 31 27  1  0  0  0  0
 31 30  1  0  0  0  0
 32 29  1  0  0  0  0
 32 31  2  0  0  0  0
 33 25  1  0  0  0  0
 34 37  1  0  0  0  0
 34 16  1  0  0  0  0
 35 37  2  0  0  0  0
 37 36  1  0  0  0  0
 38 37  1  0  0  0  0
 39  5  1  0  0  0  0
 40 39  1  0  0  0  0
 41 40  1  0  0  0  0
 42 41  1  0  0  0  0
 43 48  2  0  0  0  0
 45 50  1  0  0  0  0
 46 47  2  0  0  0  0
 47 45  1  0  0  0  0
 48 50  1  0  0  0  0
 48 42  1  0  0  0  0
 49 47  1  0  0  0  0
 49 43  1  0  0  0  0
 50 44  1  1  0  0  0
 51 43  1  0  0  0  0
 52 54  1  0  0  0  0
 52 51  1  0  0  0  0
 53 58  1  1  0  0  0
 53 54  1  0  0  0  0
 55 53  1  0  0  0  0
 56 52  2  0  0  0  0
 57 55  1  0  0  0  0
 57 56  1  0  0  0  0
 58 59  1  0  0  0  0
 60 58  1  0  0  0  0
 63 62  2  0  0  0  0
 63 61  1  0  0  0  0
 64 63  1  0  0  0  0
 65 64  1  0  0  0  0
M  END
>  <MODEL>
7

>  <REMARK>
 VINA RESULT:      -4.5      3.147      7.754
  Name = 
  17 active torsions:
  status: ('A' for Active; 'I' for Inactive)
    1  A    between atoms: C_2  and  C_19
    2  A    between atoms: C_3  and  N_15
    3  A    between atoms: C_5  and  C_19
    4  A    between atoms: C_6  and  C_9
    5  A    between atoms: C_7  and  N_30
    6  A    between atoms: O_11  and  C_42
    7  A    between atoms: C_13  and  N_28
    8  A    between atoms: C_13  and  C_53
    9  A    between atoms: O_14  and  P_27
   10  A    between atoms: O_14  and  C_59
   11  A    between atoms: O_24  and  C_42
   12  A    between atoms: O_24  and  C_46
   13  A    between atoms: N_28  and  C_29
   14  A    between atoms: C_29  and  C_40
   15  A    between atoms: C_33  and  C_53
   16  A    between atoms: C_35  and  C_50
   17  A    between atoms: C_56  and  C_63
                            x       y       z     vdW  Elec       q    Type
                         _______ _______ _______ _____ _____    ______ ____

>  <TORSDO>
F 17

$$$$
=
 OpenBabel10222418333D

 65 72  0  0  1  0  0  0  0  0999 V2000
  185.2960  178.6500  145.4570 C   0  0  0  0  0  0  0  0  0  0  0  0
  181.0130  178.6210  142.7830 C   0  0  0  0  0  3  0  0  0  0  0  0
  184.1690  178.6740  146.3360 N   0  0  0  0  0  2  0  0  0  0  0  0
  182.8660  178.7120  145.8140 N   0  0  0  0  0  0  0  0  0  0  0  0
  186.5280  178.7110  145.9660 C   0  0  0  0  0  3  0  0  0  0  0  0
  181.3080  178.7830  144.0380 N   0  0  0  0  0  0  0  0  0  0  0  0
  183.4770  178.6420  142.0960 C   0  0  1  0  0  3  0  0  0  0  0  0
  182.0380  178.2140  141.7550 C   0  0  2  0  0  3  0  0  0  0  0  0
  182.6480  178.6760  144.5330 C   0  0  0  0  0  0  0  0  0  0  0  0
  183.7740  178.5930  143.5700 C   0  0  0  0  0  0  0  0  0  0  0  0
  185.0350  178.6160  144.0110 C   0  0  0  0  0  3  0  0  0  0  0  0
  181.3410  179.1800  139.3700 C   0  0  0  0  0  0  0  0  0  0  0  0
  181.6640  178.7620  140.4510 C   0  0  0  0  0  0  0  0  0  0  0  0
  182.3100  178.0520  136.9810 N   0  0  0  0  0  2  0  0  0  0  0  0
  180.9440  179.6410  138.1070 N   0  0  0  0  0  0  0  0  0  0  0  0
  181.3790  179.1490  136.9870 C   0  0  0  0  0  0  0  0  0  0  0  0
  183.0330  177.5210  135.8170 C   0  0  1  0  0  3  0  0  0  0  0  0
  185.2500  177.9000  134.7920 C   0  0  0  0  0  2  0  0  0  0  0  0
  186.3420  176.8770  134.5940 C   0  0  0  0  0  2  0  0  0  0  0  0
  185.8200  175.6000  135.2030 C   0  0  0  0  0  2  0  0  0  0  0  0
  184.5180  177.4950  136.0520 C   0  0  2  0  0  3  0  0  0  0  0  0
  182.7200  176.0610  135.5240 C   0  0  1  0  0  3  0  0  0  0  0  0
  183.6550  175.2530  136.1850 O   0  0  0  0  0  0  0  0  0  0  0  0
  184.8340  176.0220  136.2760 C   0  0  1  0  0  3  0  0  0  0  0  0
  179.7500  172.3020  137.4080 C   0  0  0  0  0  3  0  0  0  0  0  0
  179.0030  175.4900  136.0170 N   0  0  0  0  0  0  0  0  0  0  0  0
  181.7490  173.4600  136.7330 N   0  0  0  0  0  0  0  0  0  0  0  0
  178.9840  173.3500  136.9830 N   0  0  0  0  0  0  0  0  0  0  0  0
  180.0520  176.4010  135.5370 C   0  0  0  0  0  2  0  0  0  0  0  0
  179.6010  174.4310  136.4420 C   0  0  0  0  0  0  0  0  0  0  0  0
  180.9550  174.4840  136.3280 C   0  0  0  0  0  0  0  0  0  0  0  0
  181.3140  175.6290  135.7950 C   0  0  0  0  0  0  0  0  0  0  0  0
  181.1560  172.3570  137.2820 C   0  0  0  0  0  3  0  0  0  0  0  0
  180.9550  179.7010  135.7750 O   0  0  0  0  0  0  0  0  0  0  0  0
  179.9080  181.8830  137.1400 O   0  0  0  0  0  1  0  0  0  0  0  0
  181.5950  182.3090  134.9940 O   0  0  0  0  0  1  0  0  0  0  0  0
  180.3730  181.3130  135.6180 P   0  0  0  0  0  0  0  0  0  0  0  0
  179.1800  181.3360  134.6900 O   0  0  0  0  0  0  0  0  0  0  0  0
  187.7730  178.7160  145.1310 C   0  0  0  0  0  2  0  0  0  0  0  0
  187.7750  177.5730  144.1240 C   0  0  0  0  0  2  0  0  0  0  0  0
  188.1880  178.0450  142.8100 N   0  0  0  0  0  2  0  0  0  0  0  0
  188.5700  176.8800  142.0230 C   0  0  0  0  0  2  0  0  0  0  0  0
  190.9340  177.6240  142.0690 C   0  0  0  0  0  0  0  0  0  0  0  0
  189.0490  176.0200  139.2520 C   0  0  0  0  0  1  0  0  0  0  0  0
  191.4120  176.7930  139.3530 C   0  0  0  0  0  2  0  0  0  0  0  0
  193.3710  178.1550  139.4890 O   0  0  0  0  0  0  0  0  0  0  0  0
  192.3600  177.6840  140.0750 C   0  0  0  0  0  0  0  0  0  0  0  0
  189.8970  177.1290  141.3630 C   0  0  0  0  0  0  0  0  0  0  0  0
  192.1250  177.9860  141.4160 O   0  0  0  0  0  0  0  0  0  0  0  0
  189.9920  177.0520  139.8500 C   0  0  2  0  0  3  0  0  0  0  0  0
  190.8100  177.8750  143.5510 C   0  0  0  0  0  2  0  0  0  0  0  0
  191.4190  176.7740  144.3660 C   0  0  0  0  0  0  0  0  0  0  0  0
  192.1880  175.7880  146.6250 C   0  0  2  0  0  3  0  0  0  0  0  0
  191.7920  177.0500  145.8200 C   0  0  0  0  0  2  0  0  0  0  0  0
  191.6770  174.4880  145.9980 C   0  0  0  0  0  2  0  0  0  0  0  0
  191.5860  175.5660  143.7950 C   0  0  0  0  0  3  0  0  0  0  0  0
  192.1660  174.4170  144.5610 C   0  0  0  0  0  2  0  0  0  0  0  0
  191.7290  175.9250  148.0770 C   0  0  0  0  0  3  0  0  0  0  0  0
  192.7830  175.6450  148.9580 O   0  0  0  0  0  1  0  0  0  0  0  0
  191.2420  177.2140  148.3240 O   0  0  0  0  0  1  0  0  0  0  0  0
  184.4360  177.9030  141.3190 O   0  0  0  0  0  0  0  0  0  0  0  0
  185.6670  177.5190  139.3100 C   0  0  0  0  0  2  0  0  0  0  0  0
  185.0440  178.3550  140.1340 C   0  0  0  0  0  0  0  0  0  0  0  0
  184.9870  179.7180  139.8310 O   0  0  0  0  0  0  0  0  0  0  0  0
  184.5310  180.1570  138.6460 O   0  0  0  0  0  1  0  0  0  0  0  0
  1  5  2  0  0  0  0
  1  3  1  0  0  0  0
  2  6  2  0  0  0  0
  4  3  1  0  0  0  0
  6  9  1  0  0  0  0
  7 61  1  6  0  0  0
  7 10  1  0  0  0  0
  8 13  1  6  0  0  0
  8  7  1  0  0  0  0
  8  2  1  0  0  0  0
  9  4  2  0  0  0  0
 10 11  2  0  0  0  0
 10  9  1  0  0  0  0
 11  1  1  0  0  0  0
 12 13  3  0  0  0  0
 14 16  1  0  0  0  0
 15 12  1  0  0  0  0
 16 15  2  0  0  0  0
 17 21  1  0  0  0  0
 17 14  1  1  0  0  0
 19 18  1  0  0  0  0
 19 20  1  0  0  0  0
 21 18  1  6  0  0  0
 21 24  1  0  0  0  0
 22 32  1  1  0  0  0
 22 17  1  0  0  0  0
 22 23  1  0  0  0  0
 23 24  1  0  0  0  0
 24 20  1  6  0  0  0
 26 30  2  0  0  0  0
 27 33  2  0  0  0  0
 28 25  2  0  0  0  0
 29 32  1  0  0  0  0
 29 26  1  0  0  0  0
 30 28  1  0  0  0  0
 31 30  1  0  0  0  0
 31 27  1  0  0  0  0
 32 31  2  0  0  0  0
 33 25  1  0  0  0  0
 34 16  1  0  0  0  0
 36 37  1  0  0  0  0
 37 34  1  0  0  0  0
 37 35  1  0  0  0  0
 38 37  2  0  0  0  0
 39  5  1  0  0  0  0
 40 39  1  0  0  0  0
 41 40  1  0  0  0  0
 42 41  1  0  0  0  0
 43 51  1  0  0  0  0
 45 50  1  0  0  0  0
 45 47  1  0  0  0  0
 46 47  2  0  0  0  0
 47 49  1  0  0  0  0
 48 42  1  0  0  0  0
 48 43  2  0  0  0  0
 49 43  1  0  0  0  0
 50 44  1  1  0  0  0
 50 48  1  0  0  0  0
 51 52  1  0  0  0  0
 52 54  1  0  0  0  0
 53 58  1  1  0  0  0
 54 53  1  0  0  0  0
 55 53  1  0  0  0  0
 56 52  2  0  0  0  0
 56 57  1  0  0  0  0
 57 55  1  0  0  0  0
 58 60  1  0  0  0  0
 58 59  1  0  0  0  0
 62 63  2  0  0  0  0
 63 61  1  0  0  0  0
 64 63  1  0  0  0  0
 65 64  1  0  0  0  0
M  END
>  <MODEL>
8

>  <REMARK>
 VINA RESULT:      -4.1      3.433      7.951
  Name = 
  17 active torsions:
  status: ('A' for Active; 'I' for Inactive)
    1  A    between atoms: C_2  and  C_19
    2  A    between atoms: C_3  and  N_15
    3  A    between atoms: C_5  and  C_19
    4  A    between atoms: C_6  and  C_9
    5  A    between atoms: C_7  and  N_30
    6  A    between atoms: O_11  and  C_42
    7  A    between atoms: C_13  and  N_28
    8  A    between atoms: C_13  and  C_53
    9  A    between atoms: O_14  and  P_27
   10  A    between atoms: O_14  and  C_59
   11  A    between atoms: O_24  and  C_42
   12  A    between atoms: O_24  and  C_46
   13  A    between atoms: N_28  and  C_29
   14  A    between atoms: C_29  and  C_40
   15  A    between atoms: C_33  and  C_53
   16  A    between atoms: C_35  and  C_50
   17  A    between atoms: C_56  and  C_63
                            x       y       z     vdW  Elec       q    Type
                         _______ _______ _______ _____ _____    ______ ____

>  <TORSDO>
F 17

$$$$
=
 OpenBabel10222418333D

 65 72  0  0  1  0  0  0  0  0999 V2000
  190.6020  177.0840  144.3750 C   0  0  0  0  0  0  0  0  0  0  0  0
  185.7300  178.4060  144.3210 C   0  0  0  0  0  3  0  0  0  0  0  0
  190.1580  177.3720  145.7030 N   0  0  0  0  0  2  0  0  0  0  0  0
  188.8400  177.8030  145.9290 N   0  0  0  0  0  0  0  0  0  0  0  0
  191.8810  176.7690  144.1640 C   0  0  0  0  0  3  0  0  0  0  0  0
  186.6690  178.4070  145.2180 N   0  0  0  0  0  0  0  0  0  0  0  0
  187.3680  177.7750  142.4600 C   0  0  1  0  0  3  0  0  0  0  0  0
  185.9110  177.7880  142.9580 C   0  0  2  0  0  3  0  0  0  0  0  0
  187.9830  177.9030  144.9570 C   0  0  0  0  0  0  0  0  0  0  0  0
  188.3670  177.5630  143.5640 C   0  0  0  0  0  0  0  0  0  0  0  0
  189.6240  177.2060  143.2840 C   0  0  0  0  0  3  0  0  0  0  0  0
  184.3730  179.0370  141.1750 C   0  0  0  0  0  0  0  0  0  0  0  0
  185.0720  178.4910  141.9880 C   0  0  0  0  0  0  0  0  0  0  0  0
  183.9310  177.9130  138.6330 N   0  0  0  0  0  2  0  0  0  0  0  0
  183.5450  179.6430  140.2200 N   0  0  0  0  0  0  0  0  0  0  0  0
  183.3280  179.1560  139.0360 C   0  0  0  0  0  0  0  0  0  0  0  0
  183.9380  177.3390  137.2800 C   0  0  1  0  0  3  0  0  0  0  0  0
  185.3910  177.5300  135.2890 C   0  0  0  0  0  2  0  0  0  0  0  0
  186.1480  176.4140  134.6110 C   0  0  0  0  0  2  0  0  0  0  0  0
  185.8780  175.1800  135.4360 C   0  0  0  0  0  2  0  0  0  0  0  0
  185.3390  177.1710  136.7570 C   0  0  2  0  0  3  0  0  0  0  0  0
  183.3910  175.9210  137.2210 C   0  0  1  0  0  3  0  0  0  0  0  0
  184.4530  175.0170  137.3620 O   0  0  0  0  0  0  0  0  0  0  0  0
  185.5890  175.6710  136.8400 C   0  0  1  0  0  3  0  0  0  0  0  0
  178.9450  173.3920  137.7970 C   0  0  0  0  0  3  0  0  0  0  0  0
  180.8410  175.4550  139.9890 N   0  0  0  0  0  0  0  0  0  0  0  0
  180.9320  174.2240  136.7260 N   0  0  0  0  0  0  0  0  0  0  0  0
  179.2690  174.0580  138.9450 N   0  0  0  0  0  0  0  0  0  0  0  0
  182.1070  176.0790  139.5780 C   0  0  0  0  0  2  0  0  0  0  0  0
  180.4090  174.7930  138.9710 C   0  0  0  0  0  0  0  0  0  0  0  0
  181.2250  174.8660  137.8850 C   0  0  0  0  0  0  0  0  0  0  0  0
  182.2670  175.6160  138.1580 C   0  0  0  0  0  0  0  0  0  0  0  0
  179.7900  173.4760  136.6680 C   0  0  0  0  0  3  0  0  0  0  0  0
  182.5160  179.8530  138.1360 O   0  0  0  0  0  0  0  0  0  0  0  0
  179.9880  179.9000  136.9840 O   0  0  0  0  0  0  0  0  0  0  0  0
  180.2580  179.1470  139.6290 O   0  0  0  0  0  1  0  0  0  0  0  0
  180.8480  180.1730  138.4140 P   0  0  0  0  0  0  0  0  0  0  0  0
  180.6680  181.6120  138.8380 O   0  0  0  0  0  1  0  0  0  0  0  0
  192.4520  176.4720  142.8100 C   0  0  0  0  0  2  0  0  0  0  0  0
  192.1800  177.6050  141.8290 C   0  0  0  0  0  2  0  0  0  0  0  0
  191.9260  177.0810  140.4940 N   0  0  0  0  0  2  0  0  0  0  0  0
  193.1750  177.1450  139.7490 C   0  0  0  0  0  2  0  0  0  0  0  0
  193.9460  175.3320  138.2450 C   0  0  0  0  0  0  0  0  0  0  0  0
  190.8600  177.4430  137.9600 C   0  0  0  0  0  1  0  0  0  0  0  0
  191.6880  175.6210  136.4810 C   0  0  0  0  0  2  0  0  0  0  0  0
  192.9810  174.3370  134.9350 O   0  0  0  0  0  0  0  0  0  0  0  0
  192.8910  174.8400  136.0870 C   0  0  0  0  0  0  0  0  0  0  0  0
  193.0620  176.3190  138.4990 C   0  0  0  0  0  0  0  0  0  0  0  0
  193.9200  174.6600  137.0110 O   0  0  0  0  0  0  0  0  0  0  0  0
  192.1020  176.7610  137.4090 C   0  0  2  0  0  3  0  0  0  0  0  0
  195.0250  174.9870  139.2410 C   0  0  0  0  0  2  0  0  0  0  0  0
  196.1050  174.1400  138.6380 C   0  0  0  0  0  0  0  0  0  0  0  0
  196.9140  171.9610  137.5150 C   0  0  2  0  0  3  0  0  0  0  0  0
  195.8180  172.6700  138.3470 C   0  0  0  0  0  2  0  0  0  0  0  0
  197.8050  172.9330  136.7390 C   0  0  0  0  0  2  0  0  0  0  0  0
  197.2850  174.7170  138.3430 C   0  0  0  0  0  3  0  0  0  0  0  0
  198.3980  173.9340  137.7170 C   0  0  0  0  0  2  0  0  0  0  0  0
  196.2800  170.9220  136.5880 C   0  0  0  0  0  3  0  0  0  0  0  0
  196.6960  169.6290  136.9350 O   0  0  0  0  0  1  0  0  0  0  0  0
  194.8830  170.9960  136.6400 O   0  0  0  0  0  1  0  0  0  0  0  0
  187.5380  176.8430  141.3780 O   0  0  0  0  0  0  0  0  0  0  0  0
  188.5390  176.2940  139.2820 C   0  0  0  0  0  2  0  0  0  0  0  0
  187.9380  177.1770  140.0720 C   0  0  0  0  0  0  0  0  0  0  0  0
  187.6960  178.4730  139.6090 O   0  0  0  0  0  0  0  0  0  0  0  0
  188.6870  179.3720  139.4830 O   0  0  0  0  0  1  0  0  0  0  0  0
  1  3  1  0  0  0  0
  2  6  2  0  0  0  0
  3  4  1  0  0  0  0
  5  1  2  0  0  0  0
  7 61  1  6  0  0  0
  7  8  1  0  0  0  0
  7 10  1  0  0  0  0
  8 13  1  6  0  0  0
  8  2  1  0  0  0  0
  9  6  1  0  0  0  0
  9  4  2  0  0  0  0
 10  9  1  0  0  0  0
 11 10  2  0  0  0  0
 11  1  1  0  0  0  0
 12 13  3  0  0  0  0
 14 16  1  0  0  0  0
 15 12  1  0  0  0  0
 16 15  2  0  0  0  0
 17 14  1  1  0  0  0
 19 18  1  0  0  0  0
 19 20  1  0  0  0  0
 21 18  1  6  0  0  0
 21 24  1  0  0  0  0
 21 17  1  0  0  0  0
 22 17  1  0  0  0  0
 22 23  1  0  0  0  0
 22 32  1  1  0  0  0
 24 20  1  6  0  0  0
 24 23  1  0  0  0  0
 25 28  2  0  0  0  0
 27 31  1  0  0  0  0
 28 30  1  0  0  0  0
 29 26  1  0  0  0  0
 30 26  2  0  0  0  0
 31 32  2  0  0  0  0
 31 30  1  0  0  0  0
 32 29  1  0  0  0  0
 33 27  2  0  0  0  0
 33 25  1  0  0  0  0
 34 37  1  0  0  0  0
 34 16  1  0  0  0  0
 35 37  2  0  0  0  0
 37 38  1  0  0  0  0
 37 36  1  0  0  0  0
 39  5  1  0  0  0  0
 40 39  1  0  0  0  0
 41 40  1  0  0  0  0
 42 41  1  0  0  0  0
 43 48  2  0  0  0  0
 43 51  1  0  0  0  0
 45 50  1  0  0  0  0
 46 47  2  0  0  0  0
 47 45  1  0  0  0  0
 47 49  1  0  0  0  0
 48 42  1  0  0  0  0
 49 43  1  0  0  0  0
 50 44  1  1  0  0  0
 50 48  1  0  0  0  0
 52 51  1  0  0  0  0
 53 58  1  6  0  0  0
 53 54  1  0  0  0  0
 54 52  1  0  0  0  0
 55 53  1  0  0  0  0
 55 57  1  0  0  0  0
 56 52  2  0  0  0  0
 57 56  1  0  0  0  0
 58 60  1  0  0  0  0
 58 59  1  0  0  0  0
 62 63  2  0  0  0  0
 63 61  1  0  0  0  0
 64 63  1  0  0  0  0
 65 64  1  0  0  0  0
M  END
>  <MODEL>
9

>  <REMARK>
 VINA RESULT:      -4.1      3.922      8.946
  Name = 
  17 active torsions:
  status: ('A' for Active; 'I' for Inactive)
    1  A    between atoms: C_2  and  C_19
    2  A    between atoms: C_3  and  N_15
    3  A    between atoms: C_5  and  C_19
    4  A    between atoms: C_6  and  C_9
    5  A    between atoms: C_7  and  N_30
    6  A    between atoms: O_11  and  C_42
    7  A    between atoms: C_13  and  N_28
    8  A    between atoms: C_13  and  C_53
    9  A    between atoms: O_14  and  P_27
   10  A    between atoms: O_14  and  C_59
   11  A    between atoms: O_24  and  C_42
   12  A    between atoms: O_24  and  C_46
   13  A    between atoms: N_28  and  C_29
   14  A    between atoms: C_29  and  C_40
   15  A    between atoms: C_33  and  C_53
   16  A    between atoms: C_35  and  C_50
   17  A    between atoms: C_56  and  C_63
                            x       y       z     vdW  Elec       q    Type
                         _______ _______ _______ _____ _____    ______ ____

>  <TORSDO>
F 17

$$$$
