=
 OpenBabel10222418343D

 62 65  0  0  1  0  0  0  0  0999 V2000
  188.0950  177.1730  143.4390 C   0  0  0  0  0  0  0  0  0  0  0  0
  187.7390  175.9730  143.2660 O   0  0  0  0  0  0  0  0  0  0  0  0
  188.0360  178.0880  142.3410 N   0  0  0  0  0  2  0  0  0  0  0  0
  189.1070  177.1390  137.6060 N   0  0  0  0  0  2  0  0  0  0  0  0
  187.5840  178.5300  138.7990 N   0  0  0  0  0  0  0  0  0  0  0  0
  187.1390  178.8240  140.1440 C   0  0  0  0  0  2  0  0  0  0  0  0
  188.5410  177.6650  138.8130 C   0  0  0  0  0  0  0  0  0  0  0  0
  187.6980  177.6830  140.9700 C   0  0  1  0  0  3  0  0  0  0  0  0
  188.8880  177.1380  140.1570 C   0  0  2  0  0  3  0  0  0  0  0  0
  192.3560  177.6010  141.7970 C   0  0  0  0  0  1  0  0  0  0  0  0
  191.0340  177.0010  141.4660 C   0  0  0  0  0  0  0  0  0  0  0  0
  190.7240  175.8660  141.9310 O   0  0  0  0  0  0  0  0  0  0  0  0
  190.1530  177.7140  140.5910 N   0  0  0  0  0  2  0  0  0  0  0  0
  188.3820  177.2490  136.3450 C   0  0  0  0  0  2  0  0  0  0  0  0
  188.2600  175.9060  135.6180 C   0  0  1  0  0  3  0  0  0  0  0  0
  188.2500  174.8520  136.6110 N   0  0  0  0  0  0  0  0  0  0  0  0
  188.9930  173.7980  136.5540 C   0  0  0  0  0  3  0  0  0  0  0  0
  189.9980  173.5410  135.4610 C   0  0  0  0  0  2  0  0  0  0  0  0
  195.2850  174.4340  138.5320 C   0  0  0  0  0  3  0  0  0  0  0  0
  195.4760  172.7650  136.7190 C   0  0  0  0  0  2  0  0  0  0  0  0
  191.2900  173.1320  136.0040 N   0  0  0  0  0  0  0  0  0  0  0  0
  191.8780  173.9790  137.0600 C   0  0  0  0  0  2  0  0  0  0  0  0
  193.3480  171.8910  135.6960 C   0  0  0  0  0  3  0  0  0  0  0  0
  195.9570  173.4060  137.9870 C   0  0  0  0  0  3  0  0  0  0  0  0
  193.9630  172.6570  136.8290 C   0  0  2  0  0  3  0  0  0  0  0  0
  193.3860  174.0780  136.8640 C   0  0  2  0  0  3  0  0  0  0  0  0
  194.0570  175.0200  137.8720 C   0  0  0  0  0  2  0  0  0  0  0  0
  192.0770  172.1260  135.3380 C   0  0  0  0  0  3  0  0  0  0  0  0
  187.0240  175.8430  134.8360 N   0  0  0  0  0  2  0  0  0  0  0  0
  185.9270  176.1120  135.7690 C   0  0  0  0  0  2  0  0  0  0  0  0
  184.6510  176.3360  134.9890 C   0  0  0  0  0  2  0  0  0  0  0  0
  183.5750  176.9380  135.8970 C   0  0  0  0  0  1  0  0  0  0  0  0
  188.4560  177.6380  144.8330 C   0  0  2  0  0  3  0  0  0  0  0  0
  189.9660  177.3580  146.8080 C   0  0  0  0  0  1  0  0  0  0  0  0
  189.7940  177.0900  145.3130 C   0  0  0  0  0  2  0  0  0  0  0  0
  187.3810  177.2310  145.8260 C   0  0  0  0  0  2  0  0  0  0  0  0
  186.0480  179.1970  146.6790 C   0  0  0  0  0  0  0  0  0  0  0  0
  187.1510  178.3010  146.7800 N   0  0  0  0  0  2  0  0  0  0  0  0
  186.0450  180.2460  147.3790 O   0  0  0  0  0  0  0  0  0  0  0  0
  183.8260  177.7640  146.2330 S   0  0  0  0  0  0  0  0  0  0  0  0
  184.9110  178.9080  145.7970 C   0  0  0  0  0  0  0  0  0  0  0  0
  184.7720  179.5470  144.4770 C   0  0  0  0  0  3  0  0  0  0  0  0
  183.8590  179.1810  143.6090 C   0  0  0  0  0  0  0  0  0  0  0  0
  182.9630  178.7720  142.7620 C   0  0  0  0  0  0  0  0  0  0  0  0
  183.3410  178.1150  141.5860 O   0  0  0  0  0  0  0  0  0  0  0  0
  183.7220  178.8260  140.4830 O   0  0  0  0  0  0  0  0  0  0  0  0
  181.0040  178.5900  138.0280 C   0  0  0  0  0  0  0  0  0  0  0  0
  182.0140  178.2600  138.9850 N   0  0  0  0  0  0  0  0  0  0  0  0
  180.1310  177.7250  137.7150 O   0  0  0  0  0  0  0  0  0  0  0  0
  180.9430  179.9600  137.4170 C   0  0  0  0  0  2  0  0  0  0  0  0
  182.6030  180.5830  139.1650 C   0  0  0  0  0  3  0  0  0  0  0  0
  182.7710  179.1740  139.5240 C   0  0  0  0  0  0  0  0  0  0  0  0
  181.7320  180.9750  138.2350 C   0  0  0  0  0  0  0  0  0  0  0  0
  181.5940  182.3470  138.0060 O   0  0  0  0  0  0  0  0  0  0  0  0
  179.3390  182.9150  138.4450 C   0  0  0  0  0  1  0  0  0  0  0  0
  180.4510  182.9520  137.4120 C   0  0  1  0  0  3  0  0  0  0  0  0
  180.7850  184.4140  137.0650 C   0  0  0  0  0  3  0  0  0  0  0  0
  180.0240  185.2850  137.8640 O   0  0  0  0  0  1  0  0  0  0  0  0
  182.1500  184.6370  137.2710 O   0  0  0  0  0  1  0  0  0  0  0  0
  181.5020  178.9650  143.0460 C   0  0  0  0  0  2  0  0  0  0  0  0
  180.9970  179.9530  142.1910 O   0  0  0  0  0  0  0  0  0  0  0  0
  180.1440  180.6470  142.9380 O   0  0  0  0  0  1  0  0  0  0  0  0
  1 33  1  0  0  0  0
  2  1  2  0  0  0  0
  3  1  1  0  0  0  0
  4  7  1  0  0  0  0
  5  7  2  0  0  0  0
  5  6  1  0  0  0  0
  6  8  1  0  0  0  0
  7  9  1  0  0  0  0
  8  3  1  1  0  0  0
  9 13  1  1  0  0  0
  9  8  1  0  0  0  0
 11 10  1  0  0  0  0
 11 12  2  0  0  0  0
 13 11  1  0  0  0  0
 14  4  1  0  0  0  0
 15 14  1  1  0  0  0
 15 16  1  0  0  0  0
 17 16  2  0  0  0  0
 18 21  1  0  0  0  0
 18 17  1  0  0  0  0
 20 25  1  0  0  0  0
 20 24  1  0  0  0  0
 21 22  1  0  0  0  0
 24 19  2  0  0  0  0
 25 23  1  6  0  0  0
 25 26  1  0  0  0  0
 26 22  1  1  0  0  0
 26 27  1  0  0  0  0
 27 19  1  0  0  0  0
 28 23  2  0  0  0  0
 28 21  1  0  0  0  0
 29 15  1  0  0  0  0
 29 30  1  0  0  0  0
 31 30  1  0  0  0  0
 31 32  1  0  0  0  0
 33 35  1  1  0  0  0
 33 36  1  0  0  0  0
 35 34  1  0  0  0  0
 36 38  1  0  0  0  0
 37 38  1  0  0  0  0
 37 39  2  0  0  0  0
 41 40  2  0  0  0  0
 41 37  1  0  0  0  0
 42 41  1  0  0  0  0
 43 42  2  0  0  0  0
 44 60  1  0  0  0  0
 44 43  2  0  0  0  0
 45 44  1  0  0  0  0
 46 45  1  0  0  0  0
 47 48  1  0  0  0  0
 48 52  2  0  0  0  0
 49 47  2  0  0  0  0
 50 47  1  0  0  0  0
 50 53  1  0  0  0  0
 51 52  1  0  0  0  0
 52 46  1  0  0  0  0
 53 51  2  0  0  0  0
 54 53  1  0  0  0  0
 56 54  1  0  0  0  0
 56 55  1  1  0  0  0
 57 59  1  0  0  0  0
 57 56  1  0  0  0  0
 57 58  1  0  0  0  0
 61 62  1  0  0  0  0
 61 60  1  0  0  0  0
M  END
>  <MODEL>
1

>  <REMARK>
 VINA RESULT:      -6.0      0.000      0.000
  Name = 
  24 active torsions:
  status: ('A' for Active; 'I' for Inactive)
    1  A    between atoms: C_1  and  C_9
    2  A    between atoms: C_1  and  N_35
    3  A    between atoms: C_1  and  N_61
    4  A    between atoms: C_4  and  O_34
    5  A    between atoms: C_4  and  C_58
    6  A    between atoms: N_5  and  C_9
    7  A    between atoms: C_6  and  C_10
    8  A    between atoms: C_6  and  C_27
    9  A    between atoms: C_6  and  C_59
   10  A    between atoms: C_8  and  C_24
   11  A    between atoms: C_10  and  N_45
   12  A    between atoms: C_14  and  C_39
   13  A    between atoms: O_15  and  O_46
   14  A    between atoms: O_15  and  C_58
   15  A    between atoms: C_18  and  C_52
   16  A    between atoms: O_21  and  C_52
   17  A    between atoms: O_21  and  C_56
   18  A    between atoms: C_24  and  N_35
   19  A    between atoms: C_25  and  N_40
   20  A    between atoms: N_26  and  C_33
   21  A    between atoms: C_30  and  C_39
   22  A    between atoms: C_33  and  C_62
   23  A    between atoms: N_41  and  C_48
   24  A    between atoms: O_46  and  C_55
                            x       y       z     vdW  Elec       q    Type
                         _______ _______ _______ _____ _____    ______ ____

>  <TORSDO>
F 24

$$$$
=
 OpenBabel10222418343D

 62 65  0  0  1  0  0  0  0  0999 V2000
  188.1120  177.0630  144.0830 C   0  0  0  0  0  0  0  0  0  0  0  0
  187.6570  175.8990  143.8950 O   0  0  0  0  0  0  0  0  0  0  0  0
  188.0160  178.0330  143.0350 N   0  0  0  0  0  2  0  0  0  0  0  0
  188.5550  177.3400  138.1680 N   0  0  0  0  0  2  0  0  0  0  0  0
  187.2090  178.6950  139.5930 N   0  0  0  0  0  0  0  0  0  0  0  0
  186.9180  178.9200  140.9920 C   0  0  0  0  0  2  0  0  0  0  0  0
  188.1350  177.8080  139.4560 C   0  0  0  0  0  0  0  0  0  0  0  0
  187.5240  177.7180  141.6880 C   0  0  1  0  0  3  0  0  0  0  0  0
  188.6050  177.1930  140.7230 C   0  0  2  0  0  3  0  0  0  0  0  0
  192.2390  177.4710  142.0070 C   0  0  0  0  0  1  0  0  0  0  0  0
  190.8710  176.9240  141.7850 C   0  0  0  0  0  0  0  0  0  0  0  0
  190.5770  175.7710  142.2150 O   0  0  0  0  0  0  0  0  0  0  0  0
  189.9250  177.7100  141.0520 N   0  0  0  0  0  2  0  0  0  0  0  0
  187.7060  177.5430  136.9990 C   0  0  0  0  0  2  0  0  0  0  0  0
  187.7850  176.3790  136.0060 C   0  0  1  0  0  3  0  0  0  0  0  0
  188.2090  175.1960  136.7260 N   0  0  0  0  0  0  0  0  0  0  0  0
  189.0000  174.2990  136.2410 C   0  0  0  0  0  3  0  0  0  0  0  0
  189.6170  174.3820  134.8690 C   0  0  0  0  0  2  0  0  0  0  0  0
  195.2820  173.4300  137.1440 C   0  0  0  0  0  3  0  0  0  0  0  0
  194.9510  175.7170  136.2690 C   0  0  0  0  0  2  0  0  0  0  0  0
  191.0590  174.5950  134.9400 N   0  0  0  0  0  0  0  0  0  0  0  0
  191.8590  173.5760  135.6480 C   0  0  0  0  0  2  0  0  0  0  0  0
  192.9130  176.1530  134.8550 C   0  0  0  0  0  3  0  0  0  0  0  0
  195.8240  174.5760  136.6970 C   0  0  0  0  0  3  0  0  0  0  0  0
  193.7950  175.1150  135.4850 C   0  0  2  0  0  3  0  0  0  0  0  0
  192.9680  174.2500  136.4450 C   0  0  2  0  0  3  0  0  0  0  0  0
  193.7860  173.2590  137.2830 C   0  0  0  0  0  2  0  0  0  0  0  0
  191.6280  175.8730  134.5950 C   0  0  0  0  0  3  0  0  0  0  0  0
  186.4810  176.1260  135.3890 N   0  0  0  0  0  2  0  0  0  0  0  0
  185.6190  177.2510  135.7620 C   0  0  0  0  0  2  0  0  0  0  0  0
  184.2750  176.7240  136.2100 C   0  0  0  0  0  2  0  0  0  0  0  0
  184.4580  175.4820  137.0850 C   0  0  0  0  0  1  0  0  0  0  0  0
  188.6330  177.4340  145.4550 C   0  0  2  0  0  3  0  0  0  0  0  0
  191.1280  177.6070  145.5090 C   0  0  0  0  0  1  0  0  0  0  0  0
  189.9260  176.7130  145.8130 C   0  0  0  0  0  2  0  0  0  0  0  0
  187.5960  177.1280  146.5210 C   0  0  0  0  0  2  0  0  0  0  0  0
  186.1900  179.1750  146.9690 C   0  0  0  0  0  0  0  0  0  0  0  0
  187.2910  178.3270  147.2810 N   0  0  0  0  0  2  0  0  0  0  0  0
  186.1300  180.3190  147.4970 O   0  0  0  0  0  0  0  0  0  0  0  0
  184.0580  177.5980  146.5790 S   0  0  0  0  0  0  0  0  0  0  0  0
  185.1190  178.7320  146.0680 C   0  0  0  0  0  0  0  0  0  0  0  0
  185.0320  179.2070  144.6770 C   0  0  0  0  0  3  0  0  0  0  0  0
  183.9440  179.0790  143.9550 C   0  0  0  0  0  0  0  0  0  0  0  0
  182.8600  178.9070  143.2590 C   0  0  0  0  0  0  0  0  0  0  0  0
  182.8370  178.0160  142.1820 O   0  0  0  0  0  0  0  0  0  0  0  0
  183.3920  178.3610  140.9820 O   0  0  0  0  0  0  0  0  0  0  0  0
  181.5640  179.9800  138.2420 C   0  0  0  0  0  0  0  0  0  0  0  0
  182.3690  179.7530  139.4020 N   0  0  0  0  0  0  0  0  0  0  0  0
  181.5910  181.1120  137.6720 O   0  0  0  0  0  0  0  0  0  0  0  0
  180.7140  178.8810  137.6700 C   0  0  0  0  0  2  0  0  0  0  0  0
  181.9760  177.3890  139.2130 C   0  0  0  0  0  3  0  0  0  0  0  0
  182.5710  178.5540  139.8720 C   0  0  0  0  0  0  0  0  0  0  0  0
  181.1590  177.5120  138.1670 C   0  0  0  0  0  0  0  0  0  0  0  0
  180.6920  176.3410  137.5630 O   0  0  0  0  0  0  0  0  0  0  0  0
  179.6610  174.7570  138.9870 C   0  0  0  0  0  1  0  0  0  0  0  0
  180.8620  175.0350  138.1020 C   0  0  1  0  0  3  0  0  0  0  0  0
  180.8960  174.0190  136.9450 C   0  0  0  0  0  3  0  0  0  0  0  0
  181.9450  173.1040  137.1370 O   0  0  0  0  0  1  0  0  0  0  0  0
  179.6730  173.3460  136.8850 O   0  0  0  0  0  1  0  0  0  0  0  0
  181.6000  179.6370  143.6220 C   0  0  0  0  0  2  0  0  0  0  0  0
  180.5020  178.7980  143.3870 O   0  0  0  0  0  0  0  0  0  0  0  0
  179.6820  179.0140  144.4100 O   0  0  0  0  0  1  0  0  0  0  0  0
  1 33  1  0  0  0  0
  2  1  2  0  0  0  0
  3  1  1  0  0  0  0
  4  7  1  0  0  0  0
  5  6  1  0  0  0  0
  6  8  1  0  0  0  0
  7  5  2  0  0  0  0
  7  9  1  0  0  0  0
  8  3  1  1  0  0  0
  9 13  1  1  0  0  0
  9  8  1  0  0  0  0
 11 10  1  0  0  0  0
 11 12  2  0  0  0  0
 13 11  1  0  0  0  0
 14  4  1  0  0  0  0
 15 16  1  0  0  0  0
 15 14  1  1  0  0  0
 17 16  2  0  0  0  0
 18 21  1  0  0  0  0
 18 17  1  0  0  0  0
 19 27  1  0  0  0  0
 20 24  1  0  0  0  0
 21 22  1  0  0  0  0
 24 19  2  0  0  0  0
 25 23  1  1  0  0  0
 25 20  1  0  0  0  0
 25 26  1  0  0  0  0
 26 22  1  6  0  0  0
 26 27  1  0  0  0  0
 28 23  2  0  0  0  0
 28 21  1  0  0  0  0
 29 30  1  0  0  0  0
 29 15  1  0  0  0  0
 30 31  1  0  0  0  0
 31 32  1  0  0  0  0
 33 35  1  1  0  0  0
 33 36  1  0  0  0  0
 34 35  1  0  0  0  0
 36 38  1  0  0  0  0
 37 38  1  0  0  0  0
 37 39  2  0  0  0  0
 41 40  2  0  0  0  0
 41 37  1  0  0  0  0
 42 41  1  0  0  0  0
 43 42  2  0  0  0  0
 44 60  1  0  0  0  0
 44 43  2  0  0  0  0
 45 44  1  0  0  0  0
 46 45  1  0  0  0  0
 47 48  1  0  0  0  0
 48 52  2  0  0  0  0
 49 47  2  0  0  0  0
 50 53  1  0  0  0  0
 50 47  1  0  0  0  0
 51 52  1  0  0  0  0
 52 46  1  0  0  0  0
 53 51  2  0  0  0  0
 54 56  1  0  0  0  0
 54 53  1  0  0  0  0
 56 55  1  1  0  0  0
 57 58  1  0  0  0  0
 57 56  1  0  0  0  0
 59 57  1  0  0  0  0
 61 60  1  0  0  0  0
 61 62  1  0  0  0  0
M  END
>  <MODEL>
2

>  <REMARK>
 VINA RESULT:      -5.4      1.658      3.371
  Name = 
  24 active torsions:
  status: ('A' for Active; 'I' for Inactive)
    1  A    between atoms: C_1  and  C_9
    2  A    between atoms: C_1  and  N_35
    3  A    between atoms: C_1  and  N_61
    4  A    between atoms: C_4  and  O_34
    5  A    between atoms: C_4  and  C_58
    6  A    between atoms: N_5  and  C_9
    7  A    between atoms: C_6  and  C_10
    8  A    between atoms: C_6  and  C_27
    9  A    between atoms: C_6  and  C_59
   10  A    between atoms: C_8  and  C_24
   11  A    between atoms: C_10  and  N_45
   12  A    between atoms: C_14  and  C_39
   13  A    between atoms: O_15  and  O_46
   14  A    between atoms: O_15  and  C_58
   15  A    between atoms: C_18  and  C_52
   16  A    between atoms: O_21  and  C_52
   17  A    between atoms: O_21  and  C_56
   18  A    between atoms: C_24  and  N_35
   19  A    between atoms: C_25  and  N_40
   20  A    between atoms: N_26  and  C_33
   21  A    between atoms: C_30  and  C_39
   22  A    between atoms: C_33  and  C_62
   23  A    between atoms: N_41  and  C_48
   24  A    between atoms: O_46  and  C_55
                            x       y       z     vdW  Elec       q    Type
                         _______ _______ _______ _____ _____    ______ ____

>  <TORSDO>
F 24

$$$$
=
 OpenBabel10222418343D

 62 65  0  0  1  0  0  0  0  0999 V2000
  185.2430  177.9070  138.4740 C   0  0  0  0  0  0  0  0  0  0  0  0
  185.5990  176.7210  138.7260 O   0  0  0  0  0  0  0  0  0  0  0  0
  186.1970  178.8280  137.9350 N   0  0  0  0  0  2  0  0  0  0  0  0
  189.9700  176.2010  136.1110 N   0  0  0  0  0  2  0  0  0  0  0  0
  189.1800  176.8450  138.2650 N   0  0  0  0  0  0  0  0  0  0  0  0
  188.1620  177.6540  138.8990 C   0  0  0  0  0  2  0  0  0  0  0  0
  189.0410  176.8570  136.9820 C   0  0  0  0  0  0  0  0  0  0  0  0
  187.6210  178.5080  137.7700 C   0  0  1  0  0  3  0  0  0  0  0  0
  187.9540  177.7350  136.4800 C   0  0  2  0  0  3  0  0  0  0  0  0
  184.8210  176.4900  134.5940 C   0  0  0  0  0  1  0  0  0  0  0  0
  185.8850  177.4090  135.0840 C   0  0  0  0  0  0  0  0  0  0  0  0
  185.9540  178.5900  134.6360 O   0  0  0  0  0  0  0  0  0  0  0  0
  186.8370  176.9160  136.0330 N   0  0  0  0  0  2  0  0  0  0  0  0
  191.2990  175.8370  136.5910 C   0  0  0  0  0  2  0  0  0  0  0  0
  191.6080  174.3500  136.3930 C   0  0  1  0  0  3  0  0  0  0  0  0
  191.2310  173.9830  135.0440 N   0  0  0  0  0  0  0  0  0  0  0  0
  190.3530  173.0800  134.7590 C   0  0  0  0  0  3  0  0  0  0  0  0
  189.5780  172.3110  135.7970 C   0  0  0  0  0  2  0  0  0  0  0  0
  183.7650  173.5440  137.4870 C   0  0  0  0  0  3  0  0  0  0  0  0
  183.9310  171.7630  135.7820 C   0  0  0  0  0  2  0  0  0  0  0  0
  188.1390  172.4140  135.5790 N   0  0  0  0  0  0  0  0  0  0  0  0
  187.3670  173.2300  136.5380 C   0  0  0  0  0  2  0  0  0  0  0  0
  186.1350  171.4670  134.6000 C   0  0  0  0  0  3  0  0  0  0  0  0
  183.1660  172.8120  136.5310 C   0  0  0  0  0  3  0  0  0  0  0  0
  185.3040  172.3480  135.4850 C   0  0  2  0  0  3  0  0  0  0  0  0
  186.0270  172.5650  136.8210 C   0  0  2  0  0  3  0  0  0  0  0  0
  185.2060  173.3090  137.8830 C   0  0  0  0  0  2  0  0  0  0  0  0
  187.4730  171.5320  134.6550 C   0  0  0  0  0  3  0  0  0  0  0  0
  193.0350  174.0810  136.5840 N   0  0  0  0  0  2  0  0  0  0  0  0
  193.6880  175.3840  136.7260 C   0  0  0  0  0  2  0  0  0  0  0  0
  194.8490  175.4700  135.7600 C   0  0  0  0  0  2  0  0  0  0  0  0
  195.0170  176.9080  135.2620 C   0  0  0  0  0  1  0  0  0  0  0  0
  183.7860  178.2850  138.6320 C   0  0  2  0  0  3  0  0  0  0  0  0
  182.3690  176.8560  137.1460 C   0  0  0  0  0  1  0  0  0  0  0  0
  183.0140  178.2310  137.3190 C   0  0  0  0  0  2  0  0  0  0  0  0
  183.6580  179.6820  139.2120 C   0  0  0  0  0  2  0  0  0  0  0  0
  181.2110  179.5180  139.8070 C   0  0  0  0  0  0  0  0  0  0  0  0
  182.2850  180.1430  139.1100 N   0  0  0  0  0  2  0  0  0  0  0  0
  180.0250  179.7990  139.4820 O   0  0  0  0  0  0  0  0  0  0  0  0
  181.2650  176.9750  140.6520 S   0  0  0  0  0  0  0  0  0  0  0  0
  181.4610  178.5780  140.9060 C   0  0  0  0  0  0  0  0  0  0  0  0
  181.7880  179.0450  142.2640 C   0  0  0  0  0  3  0  0  0  0  0  0
  182.9930  178.9400  142.7740 C   0  0  0  0  0  0  0  0  0  0  0  0
  184.1890  178.7920  143.2590 C   0  0  0  0  0  0  0  0  0  0  0  0
  184.4300  177.8940  144.3040 O   0  0  0  0  0  0  0  0  0  0  0  0
  184.7270  178.3490  145.5580 O   0  0  0  0  0  0  0  0  0  0  0  0
  187.6040  178.3560  147.8360 C   0  0  0  0  0  0  0  0  0  0  0  0
  186.2920  178.5150  147.2910 N   0  0  0  0  0  0  0  0  0  0  0  0
  187.7730  178.4120  149.0910 O   0  0  0  0  0  0  0  0  0  0  0  0
  188.7790  178.0860  146.9410 C   0  0  0  0  0  2  0  0  0  0  0  0
  187.0730  177.7030  145.1680 C   0  0  0  0  0  3  0  0  0  0  0  0
  186.0240  178.2200  146.0500 C   0  0  0  0  0  0  0  0  0  0  0  0
  188.3390  177.5850  145.5710 C   0  0  0  0  0  0  0  0  0  0  0  0
  189.2570  177.0200  144.6820 O   0  0  0  0  0  0  0  0  0  0  0  0
  190.1260  178.8270  143.4230 C   0  0  0  0  0  1  0  0  0  0  0  0
  189.4590  177.4640  143.3450 C   0  0  1  0  0  3  0  0  0  0  0  0
  190.3940  176.4740  142.6270 C   0  0  0  0  0  3  0  0  0  0  0  0
  189.6420  175.4390  142.0450 O   0  0  0  0  0  1  0  0  0  0  0  0
  191.1220  177.1530  141.6460 O   0  0  0  0  0  1  0  0  0  0  0  0
  185.3440  179.5580  142.6820 C   0  0  0  0  0  2  0  0  0  0  0  0
  186.2360  178.6580  142.0840 O   0  0  0  0  0  0  0  0  0  0  0  0
  187.0630  179.4180  141.3730 O   0  0  0  0  0  1  0  0  0  0  0  0
  1 33  1  0  0  0  0
  1  2  2  0  0  0  0
  3  1  1  0  0  0  0
  4 14  1  0  0  0  0
  4  7  1  0  0  0  0
  5  6  1  0  0  0  0
  7  5  2  0  0  0  0
  8  3  1  1  0  0  0
  8  6  1  0  0  0  0
  9 13  1  1  0  0  0
  9  7  1  0  0  0  0
  9  8  1  0  0  0  0
 10 11  1  0  0  0  0
 11 13  1  0  0  0  0
 12 11  2  0  0  0  0
 15 29  1  0  0  0  0
 15 14  1  6  0  0  0
 16 15  1  0  0  0  0
 17 16  2  0  0  0  0
 17 18  1  0  0  0  0
 19 27  1  0  0  0  0
 20 24  1  0  0  0  0
 21 18  1  0  0  0  0
 21 22  1  0  0  0  0
 23 28  2  0  0  0  0
 24 19  2  0  0  0  0
 25 23  1  6  0  0  0
 25 20  1  0  0  0  0
 25 26  1  0  0  0  0
 26 22  1  6  0  0  0
 26 27  1  0  0  0  0
 28 21  1  0  0  0  0
 29 30  1  0  0  0  0
 31 30  1  0  0  0  0
 32 31  1  0  0  0  0
 33 35  1  6  0  0  0
 33 36  1  0  0  0  0
 34 35  1  0  0  0  0
 37 41  1  0  0  0  0
 38 36  1  0  0  0  0
 38 37  1  0  0  0  0
 39 37  2  0  0  0  0
 40 41  2  0  0  0  0
 41 42  1  0  0  0  0
 42 43  2  0  0  0  0
 43 44  2  0  0  0  0
 44 45  1  0  0  0  0
 45 46  1  0  0  0  0
 46 52  1  0  0  0  0
 47 49  2  0  0  0  0
 48 47  1  0  0  0  0
 50 47  1  0  0  0  0
 51 53  2  0  0  0  0
 51 52  1  0  0  0  0
 52 48  2  0  0  0  0
 53 50  1  0  0  0  0
 54 53  1  0  0  0  0
 56 55  1  1  0  0  0
 56 54  1  0  0  0  0
 57 56  1  0  0  0  0
 58 57  1  0  0  0  0
 59 57  1  0  0  0  0
 60 44  1  0  0  0  0
 61 60  1  0  0  0  0
 62 61  1  0  0  0  0
M  END
>  <MODEL>
3

>  <REMARK>
 VINA RESULT:      -5.2      2.547      8.241
  Name = 
  24 active torsions:
  status: ('A' for Active; 'I' for Inactive)
    1  A    between atoms: C_1  and  C_9
    2  A    between atoms: C_1  and  N_35
    3  A    between atoms: C_1  and  N_61
    4  A    between atoms: C_4  and  O_34
    5  A    between atoms: C_4  and  C_58
    6  A    between atoms: N_5  and  C_9
    7  A    between atoms: C_6  and  C_10
    8  A    between atoms: C_6  and  C_27
    9  A    between atoms: C_6  and  C_59
   10  A    between atoms: C_8  and  C_24
   11  A    between atoms: C_10  and  N_45
   12  A    between atoms: C_14  and  C_39
   13  A    between atoms: O_15  and  O_46
   14  A    between atoms: O_15  and  C_58
   15  A    between atoms: C_18  and  C_52
   16  A    between atoms: O_21  and  C_52
   17  A    between atoms: O_21  and  C_56
   18  A    between atoms: C_24  and  N_35
   19  A    between atoms: C_25  and  N_40
   20  A    between atoms: N_26  and  C_33
   21  A    between atoms: C_30  and  C_39
   22  A    between atoms: C_33  and  C_62
   23  A    between atoms: N_41  and  C_48
   24  A    between atoms: O_46  and  C_55
                            x       y       z     vdW  Elec       q    Type
                         _______ _______ _______ _____ _____    ______ ____

>  <TORSDO>
F 24

$$$$
=
 OpenBabel10222418343D

 62 65  0  0  1  0  0  0  0  0999 V2000
  191.5230  176.8030  140.1590 C   0  0  0  0  0  0  0  0  0  0  0  0
  191.6030  177.1550  141.3700 O   0  0  0  0  0  0  0  0  0  0  0  0
  190.2680  176.9030  139.4790 N   0  0  0  0  0  2  0  0  0  0  0  0
  185.6430  178.6530  139.5750 N   0  0  0  0  0  2  0  0  0  0  0  0
  187.7130  179.1500  140.6460 N   0  0  0  0  0  0  0  0  0  0  0  0
  189.0730  178.6680  140.7530 C   0  0  0  0  0  2  0  0  0  0  0  0
  187.0410  178.4390  139.8050 C   0  0  0  0  0  0  0  0  0  0  0  0
  189.0160  177.2800  140.1490 C   0  0  1  0  0  3  0  0  0  0  0  0
  187.7800  177.2870  139.2300 C   0  0  2  0  0  3  0  0  0  0  0  0
  187.5430  178.0760  135.4540 C   0  0  0  0  0  1  0  0  0  0  0  0
  187.1300  177.6800  136.8290 C   0  0  0  0  0  0  0  0  0  0  0  0
  185.9090  177.4730  137.0850 O   0  0  0  0  0  0  0  0  0  0  0  0
  188.1320  177.5790  137.8470 N   0  0  0  0  0  2  0  0  0  0  0  0
  184.8430  179.3970  140.5420 C   0  0  0  0  0  2  0  0  0  0  0  0
  183.7650  178.5330  141.2030 C   0  0  1  0  0  3  0  0  0  0  0  0
  183.6160  178.9640  142.5770 N   0  0  0  0  0  0  0  0  0  0  0  0
  184.3630  178.5590  143.5480 C   0  0  0  0  0  3  0  0  0  0  0  0
  185.5170  177.6060  143.3730 C   0  0  0  0  0  2  0  0  0  0  0  0
  191.1620  177.1810  145.8480 C   0  0  0  0  0  3  0  0  0  0  0  0
  189.3460  176.8860  147.4980 C   0  0  0  0  0  2  0  0  0  0  0  0
  186.4970  177.7450  144.4460 N   0  0  0  0  0  0  0  0  0  0  0  0
  187.9230  177.7320  144.0640 C   0  0  0  0  0  2  0  0  0  0  0  0
  187.0110  177.5200  146.8030 C   0  0  0  0  0  3  0  0  0  0  0  0
  190.7690  177.1850  147.1340 C   0  0  0  0  0  3  0  0  0  0  0  0
  188.4720  177.6000  146.4770 C   0  0  2  0  0  3  0  0  0  0  0  0
  188.7300  176.9660  145.1040 C   0  0  2  0  0  3  0  0  0  0  0  0
  190.2110  176.8280  144.7270 C   0  0  0  0  0  2  0  0  0  0  0  0
  186.0990  177.6090  145.8230 C   0  0  0  0  0  3  0  0  0  0  0  0
  182.4820  178.6730  140.5120 N   0  0  0  0  0  2  0  0  0  0  0  0
  181.7800  177.3980  140.6750 C   0  0  0  0  0  2  0  0  0  0  0  0
  180.3110  177.6640  140.9170 C   0  0  0  0  0  2  0  0  0  0  0  0
  180.1140  178.3560  142.2680 C   0  0  0  0  0  1  0  0  0  0  0  0
  192.7860  176.4020  139.4260 C   0  0  2  0  0  3  0  0  0  0  0  0
  195.1620  175.8630  139.9910 C   0  0  0  0  0  1  0  0  0  0  0  0
  194.0510  176.9070  140.1070 C   0  0  0  0  0  2  0  0  0  0  0  0
  192.7620  176.9220  138.0000 C   0  0  0  0  0  2  0  0  0  0  0  0
  192.7280  175.0690  136.2860 C   0  0  0  0  0  0  0  0  0  0  0  0
  193.4350  175.9870  137.1160 N   0  0  0  0  0  2  0  0  0  0  0  0
  193.3610  174.1240  135.7420 O   0  0  0  0  0  0  0  0  0  0  0  0
  190.7740  176.3410  134.9640 S   0  0  0  0  0  0  0  0  0  0  0  0
  191.2900  175.2210  136.0370 C   0  0  0  0  0  0  0  0  0  0  0  0
  190.2870  174.4600  136.8030 C   0  0  0  0  0  3  0  0  0  0  0  0
  189.1560  174.0550  136.2750 C   0  0  0  0  0  0  0  0  0  0  0  0
  188.0330  173.6970  135.7290 C   0  0  0  0  0  0  0  0  0  0  0  0
  186.8260  174.2770  136.1340 O   0  0  0  0  0  0  0  0  0  0  0  0
  186.1050  173.7360  137.1620 O   0  0  0  0  0  0  0  0  0  0  0  0
  183.4660  171.2820  136.4650 C   0  0  0  0  0  0  0  0  0  0  0  0
  184.7390  171.8940  136.6900 N   0  0  0  0  0  0  0  0  0  0  0  0
  183.3620  170.0190  136.5070 O   0  0  0  0  0  0  0  0  0  0  0  0
  182.2450  172.1200  136.2160 C   0  0  0  0  0  2  0  0  0  0  0  0
  183.6690  174.0330  136.9310 C   0  0  0  0  0  3  0  0  0  0  0  0
  184.8550  173.1750  136.9070 C   0  0  0  0  0  0  0  0  0  0  0  0
  182.4510  173.5600  136.6660 C   0  0  0  0  0  0  0  0  0  0  0  0
  181.3700  174.4400  136.7780 O   0  0  0  0  0  0  0  0  0  0  0  0
  179.6520  175.0850  135.2850 C   0  0  0  0  0  1  0  0  0  0  0  0
  181.0340  175.4280  135.8110 C   0  0  1  0  0  3  0  0  0  0  0  0
  180.9980  176.8060  136.4980 C   0  0  0  0  0  3  0  0  0  0  0  0
  182.2840  177.1580  136.9390 O   0  0  0  0  0  1  0  0  0  0  0  0
  180.5180  177.7600  135.5960 O   0  0  0  0  0  1  0  0  0  0  0  0
  188.0130  172.6790  134.6270 C   0  0  0  0  0  2  0  0  0  0  0  0
  187.4990  171.4750  135.1260 O   0  0  0  0  0  0  0  0  0  0  0  0
  188.5240  170.6270  135.0960 O   0  0  0  0  0  1  0  0  0  0  0  0
  1  2  2  0  0  0  0
  3  1  1  0  0  0  0
  4  7  1  0  0  0  0
  4 14  1  0  0  0  0
  5  6  1  0  0  0  0
  7  5  2  0  0  0  0
  8  3  1  6  0  0  0
  8  6  1  0  0  0  0
  9 13  1  6  0  0  0
  9  7  1  0  0  0  0
  9  8  1  0  0  0  0
 10 11  1  0  0  0  0
 11 12  2  0  0  0  0
 11 13  1  0  0  0  0
 15 14  1  6  0  0  0
 15 16  1  0  0  0  0
 16 17  2  0  0  0  0
 18 17  1  0  0  0  0
 18 21  1  0  0  0  0
 19 24  2  0  0  0  0
 21 28  1  0  0  0  0
 22 21  1  0  0  0  0
 24 20  1  0  0  0  0
 25 23  1  1  0  0  0
 25 20  1  0  0  0  0
 26 22  1  6  0  0  0
 26 25  1  0  0  0  0
 27 26  1  0  0  0  0
 27 19  1  0  0  0  0
 28 23  2  0  0  0  0
 29 30  1  0  0  0  0
 29 15  1  0  0  0  0
 30 31  1  0  0  0  0
 31 32  1  0  0  0  0
 33 36  1  6  0  0  0
 33 35  1  0  0  0  0
 33  1  1  0  0  0  0
 34 35  1  0  0  0  0
 37 38  1  0  0  0  0
 38 36  1  0  0  0  0
 39 37  2  0  0  0  0
 40 41  2  0  0  0  0
 41 37  1  0  0  0  0
 41 42  1  0  0  0  0
 43 42  2  0  0  0  0
 44 45  1  0  0  0  0
 44 43  2  0  0  0  0
 45 46  1  0  0  0  0
 47 49  2  0  0  0  0
 47 48  1  0  0  0  0
 48 52  2  0  0  0  0
 50 47  1  0  0  0  0
 50 53  1  0  0  0  0
 52 51  1  0  0  0  0
 52 46  1  0  0  0  0
 53 54  1  0  0  0  0
 53 51  2  0  0  0  0
 56 55  1  1  0  0  0
 56 57  1  0  0  0  0
 56 54  1  0  0  0  0
 57 58  1  0  0  0  0
 59 57  1  0  0  0  0
 60 61  1  0  0  0  0
 60 44  1  0  0  0  0
 62 61  1  0  0  0  0
M  END
>  <MODEL>
4

>  <REMARK>
 VINA RESULT:      -5.1      3.823      8.939
  Name = 
  24 active torsions:
  status: ('A' for Active; 'I' for Inactive)
    1  A    between atoms: C_1  and  C_9
    2  A    between atoms: C_1  and  N_35
    3  A    between atoms: C_1  and  N_61
    4  A    between atoms: C_4  and  O_34
    5  A    between atoms: C_4  and  C_58
    6  A    between atoms: N_5  and  C_9
    7  A    between atoms: C_6  and  C_10
    8  A    between atoms: C_6  and  C_27
    9  A    between atoms: C_6  and  C_59
   10  A    between atoms: C_8  and  C_24
   11  A    between atoms: C_10  and  N_45
   12  A    between atoms: C_14  and  C_39
   13  A    between atoms: O_15  and  O_46
   14  A    between atoms: O_15  and  C_58
   15  A    between atoms: C_18  and  C_52
   16  A    between atoms: O_21  and  C_52
   17  A    between atoms: O_21  and  C_56
   18  A    between atoms: C_24  and  N_35
   19  A    between atoms: C_25  and  N_40
   20  A    between atoms: N_26  and  C_33
   21  A    between atoms: C_30  and  C_39
   22  A    between atoms: C_33  and  C_62
   23  A    between atoms: N_41  and  C_48
   24  A    between atoms: O_46  and  C_55
                            x       y       z     vdW  Elec       q    Type
                         _______ _______ _______ _____ _____    ______ ____

>  <TORSDO>
F 24

$$$$
=
 OpenBabel10222418343D

 62 65  0  0  1  0  0  0  0  0999 V2000
  181.1220  176.1180  136.9720 C   0  0  0  0  0  0  0  0  0  0  0  0
  181.9970  175.2560  137.2690 O   0  0  0  0  0  0  0  0  0  0  0  0
  180.7960  177.1430  137.9160 N   0  0  0  0  0  2  0  0  0  0  0  0
  182.9380  179.3760  141.7750 N   0  0  0  0  0  2  0  0  0  0  0  0
  183.3470  177.4490  140.4330 N   0  0  0  0  0  0  0  0  0  0  0  0
  182.7630  176.6770  139.3590 C   0  0  0  0  0  2  0  0  0  0  0  0
  182.6250  178.4860  140.6960 C   0  0  0  0  0  0  0  0  0  0  0  0
  181.3360  177.1820  139.2810 C   0  0  1  0  0  3  0  0  0  0  0  0
  181.3690  178.5870  139.9120 C   0  0  2  0  0  3  0  0  0  0  0  0
  181.2800  182.0060  138.1140 C   0  0  0  0  0  1  0  0  0  0  0  0
  181.0230  180.9590  139.1410 C   0  0  0  0  0  0  0  0  0  0  0  0
  180.4160  181.2590  140.2100 O   0  0  0  0  0  0  0  0  0  0  0  0
  181.5070  179.6320  138.9080 N   0  0  0  0  0  2  0  0  0  0  0  0
  183.8300  178.9480  142.8470 C   0  0  0  0  0  2  0  0  0  0  0  0
  183.0980  178.7590  144.1800 C   0  0  1  0  0  3  0  0  0  0  0  0
  183.7950  179.5240  145.1930 N   0  0  0  0  0  0  0  0  0  0  0  0
  184.8360  179.1020  145.8290 C   0  0  0  0  0  3  0  0  0  0  0  0
  185.4870  177.7680  145.5740 C   0  0  0  0  0  2  0  0  0  0  0  0
  191.4860  176.7070  144.5430 C   0  0  0  0  0  3  0  0  0  0  0  0
  190.8680  176.5850  146.9320 C   0  0  0  0  0  2  0  0  0  0  0  0
  186.9050  177.7870  145.9200 N   0  0  0  0  0  0  0  0  0  0  0  0
  187.8720  177.6260  144.8160 C   0  0  0  0  0  2  0  0  0  0  0  0
  188.6130  177.4750  147.6110 C   0  0  0  0  0  3  0  0  0  0  0  0
  191.8730  176.7350  145.8300 C   0  0  0  0  0  3  0  0  0  0  0  0
  189.6500  177.4020  146.5300 C   0  0  2  0  0  3  0  0  0  0  0  0
  189.0410  176.7630  145.2750 C   0  0  2  0  0  3  0  0  0  0  0  0
  190.0440  176.4730  144.1510 C   0  0  0  0  0  2  0  0  0  0  0  0
  187.3250  177.6740  147.2940 C   0  0  0  0  0  3  0  0  0  0  0  0
  181.7140  179.2270  144.0900 N   0  0  0  0  0  2  0  0  0  0  0  0
  180.8640  178.0710  144.3840 C   0  0  0  0  0  2  0  0  0  0  0  0
  179.4360  178.3900  144.0020 C   0  0  0  0  0  2  0  0  0  0  0  0
  179.3790  178.9370  142.5740 C   0  0  0  0  0  1  0  0  0  0  0  0
  180.5330  176.1160  135.5770 C   0  0  2  0  0  3  0  0  0  0  0  0
  180.2690  178.4280  134.6570 C   0  0  0  0  0  1  0  0  0  0  0  0
  179.5570  177.2630  135.3460 C   0  0  0  0  0  2  0  0  0  0  0  0
  179.8170  174.8060  135.3030 C   0  0  0  0  0  2  0  0  0  0  0  0
  180.1480  172.6730  136.6100 C   0  0  0  0  0  0  0  0  0  0  0  0
  179.7140  174.0270  136.5240 N   0  0  0  0  0  2  0  0  0  0  0  0
  179.8020  171.9820  137.6070 O   0  0  0  0  0  0  0  0  0  0  0  0
  181.2670  170.4670  135.5770 S   0  0  0  0  0  0  0  0  0  0  0  0
  181.0050  172.0810  135.5760 C   0  0  0  0  0  0  0  0  0  0  0  0
  181.7210  172.9140  134.5940 C   0  0  0  0  0  3  0  0  0  0  0  0
  183.0090  173.1510  134.6770 C   0  0  0  0  0  0  0  0  0  0  0  0
  184.2790  173.3910  134.8080 C   0  0  0  0  0  0  0  0  0  0  0  0
  184.7340  174.6730  135.1290 O   0  0  0  0  0  0  0  0  0  0  0  0
  186.0390  174.8820  135.4760 O   0  0  0  0  0  0  0  0  0  0  0  0
  185.8170  177.9660  137.4530 C   0  0  0  0  0  0  0  0  0  0  0  0
  185.5290  176.9050  136.5390 N   0  0  0  0  0  0  0  0  0  0  0  0
  184.8920  178.7610  137.8020 O   0  0  0  0  0  0  0  0  0  0  0  0
  187.1920  178.1290  138.0330 C   0  0  0  0  0  2  0  0  0  0  0  0
  187.6340  175.8750  137.0720 C   0  0  0  0  0  3  0  0  0  0  0  0
  186.3640  175.9230  136.3450 C   0  0  0  0  0  0  0  0  0  0  0  0
  188.0140  176.8540  137.8930 C   0  0  0  0  0  0  0  0  0  0  0  0
  189.2130  176.6900  138.5940 O   0  0  0  0  0  0  0  0  0  0  0  0
  189.0190  177.3290  140.8640 C   0  0  0  0  0  1  0  0  0  0  0  0
  189.7190  177.6170  139.5480 C   0  0  1  0  0  3  0  0  0  0  0  0
  191.2330  177.3890  139.7080 C   0  0  0  0  0  3  0  0  0  0  0  0
  191.5110  176.8770  140.9870 O   0  0  0  0  0  1  0  0  0  0  0  0
  191.6730  176.4970  138.7250 O   0  0  0  0  0  1  0  0  0  0  0  0
  185.2820  172.2840  134.6530 C   0  0  0  0  0  2  0  0  0  0  0  0
  184.6280  171.0530  134.7890 O   0  0  0  0  0  0  0  0  0  0  0  0
  184.5850  170.8320  136.0990 O   0  0  0  0  0  1  0  0  0  0  0  0
  1  2  2  0  0  0  0
  1  3  1  0  0  0  0
  4 14  1  0  0  0  0
  5  7  2  0  0  0  0
  6  5  1  0  0  0  0
  7  4  1  0  0  0  0
  8  3  1  6  0  0  0
  8  6  1  0  0  0  0
  8  9  1  0  0  0  0
  9 13  1  6  0  0  0
  9  7  1  0  0  0  0
 10 11  1  0  0  0  0
 11 12  2  0  0  0  0
 13 11  1  0  0  0  0
 15 14  1  6  0  0  0
 15 16  1  0  0  0  0
 16 17  2  0  0  0  0
 18 17  1  0  0  0  0
 18 21  1  0  0  0  0
 19 24  2  0  0  0  0
 21 28  1  0  0  0  0
 22 26  1  0  0  0  0
 22 21  1  0  0  0  0
 24 20  1  0  0  0  0
 25 20  1  1  0  0  0
 25 23  1  0  0  0  0
 26 27  1  6  0  0  0
 26 25  1  0  0  0  0
 27 19  1  0  0  0  0
 28 23  2  0  0  0  0
 29 15  1  0  0  0  0
 29 30  1  0  0  0  0
 31 30  1  0  0  0  0
 32 31  1  0  0  0  0
 33 36  1  1  0  0  0
 33  1  1  0  0  0  0
 34 35  1  0  0  0  0
 35 33  1  0  0  0  0
 36 38  1  0  0  0  0
 37 39  2  0  0  0  0
 38 37  1  0  0  0  0
 41 40  2  0  0  0  0
 41 37  1  0  0  0  0
 42 43  2  0  0  0  0
 42 41  1  0  0  0  0
 43 44  2  0  0  0  0
 44 45  1  0  0  0  0
 45 46  1  0  0  0  0
 46 52  1  0  0  0  0
 47 49  2  0  0  0  0
 47 50  1  0  0  0  0
 48 47  1  0  0  0  0
 51 53  2  0  0  0  0
 52 48  2  0  0  0  0
 52 51  1  0  0  0  0
 53 50  1  0  0  0  0
 53 54  1  0  0  0  0
 54 56  1  0  0  0  0
 56 57  1  0  0  0  0
 56 55  1  1  0  0  0
 57 58  1  0  0  0  0
 59 57  1  0  0  0  0
 60 61  1  0  0  0  0
 60 44  1  0  0  0  0
 61 62  1  0  0  0  0
M  END
>  <MODEL>
5

>  <REMARK>
 VINA RESULT:      -5.0      3.864     10.509
  Name = 
  24 active torsions:
  status: ('A' for Active; 'I' for Inactive)
    1  A    between atoms: C_1  and  C_9
    2  A    between atoms: C_1  and  N_35
    3  A    between atoms: C_1  and  N_61
    4  A    between atoms: C_4  and  O_34
    5  A    between atoms: C_4  and  C_58
    6  A    between atoms: N_5  and  C_9
    7  A    between atoms: C_6  and  C_10
    8  A    between atoms: C_6  and  C_27
    9  A    between atoms: C_6  and  C_59
   10  A    between atoms: C_8  and  C_24
   11  A    between atoms: C_10  and  N_45
   12  A    between atoms: C_14  and  C_39
   13  A    between atoms: O_15  and  O_46
   14  A    between atoms: O_15  and  C_58
   15  A    between atoms: C_18  and  C_52
   16  A    between atoms: O_21  and  C_52
   17  A    between atoms: O_21  and  C_56
   18  A    between atoms: C_24  and  N_35
   19  A    between atoms: C_25  and  N_40
   20  A    between atoms: N_26  and  C_33
   21  A    between atoms: C_30  and  C_39
   22  A    between atoms: C_33  and  C_62
   23  A    between atoms: N_41  and  C_48
   24  A    between atoms: O_46  and  C_55
                            x       y       z     vdW  Elec       q    Type
                         _______ _______ _______ _____ _____    ______ ____

>  <TORSDO>
F 24

$$$$
=
 OpenBabel10222418343D

 62 65  0  0  1  0  0  0  0  0999 V2000
  185.6080  178.2870  143.2380 C   0  0  0  0  0  0  0  0  0  0  0  0
  186.3660  177.7230  142.4000 O   0  0  0  0  0  0  0  0  0  0  0  0
  184.4380  178.9720  142.7790 N   0  0  0  0  0  2  0  0  0  0  0  0
  181.4160  178.9740  138.8640 N   0  0  0  0  0  2  0  0  0  0  0  0
  183.4980  177.9760  139.4540 N   0  0  0  0  0  0  0  0  0  0  0  0
  184.4870  177.9660  140.5090 C   0  0  0  0  0  2  0  0  0  0  0  0
  182.4970  178.7260  139.7710 C   0  0  0  0  0  0  0  0  0  0  0  0
  184.1250  179.1680  141.3580 C   0  0  1  0  0  3  0  0  0  0  0  0
  182.6370  179.4380  141.0660 C   0  0  2  0  0  3  0  0  0  0  0  0
  179.6080  178.6480  143.3330 C   0  0  0  0  0  1  0  0  0  0  0  0
  180.4920  179.3810  142.3840 C   0  0  0  0  0  0  0  0  0  0  0  0
  180.0950  180.4620  141.8600 O   0  0  0  0  0  0  0  0  0  0  0  0
  181.7670  178.8180  142.0560 N   0  0  0  0  0  2  0  0  0  0  0  0
  181.5800  178.7240  137.4360 C   0  0  0  0  0  2  0  0  0  0  0  0
  180.4530  177.8650  136.8560 C   0  0  1  0  0  3  0  0  0  0  0  0
  180.3840  176.6330  137.6140 N   0  0  0  0  0  0  0  0  0  0  0  0
  180.6960  175.4740  137.1390 C   0  0  0  0  0  3  0  0  0  0  0  0
  181.2060  175.2540  135.7390 C   0  0  0  0  0  2  0  0  0  0  0  0
  186.0050  171.4230  135.0510 C   0  0  0  0  0  3  0  0  0  0  0  0
  186.4100  173.2110  136.7090 C   0  0  0  0  0  2  0  0  0  0  0  0
  182.6250  174.9100  135.7310 N   0  0  0  0  0  0  0  0  0  0  0  0
  183.0160  173.6690  135.0340 C   0  0  0  0  0  2  0  0  0  0  0  0
  184.8030  175.1480  136.7660 C   0  0  0  0  0  3  0  0  0  0  0  0
  186.8840  172.1450  135.7670 C   0  0  0  0  0  3  0  0  0  0  0  0
  185.2800  173.9470  136.0050 C   0  0  2  0  0  3  0  0  0  0  0  0
  184.1180  172.9630  135.8140 C   0  0  2  0  0  3  0  0  0  0  0  0
  184.5120  171.6140  135.2000 C   0  0  0  0  0  2  0  0  0  0  0  0
  183.5470  175.5910  136.6040 C   0  0  0  0  0  3  0  0  0  0  0  0
  179.1650  178.5580  136.9470 N   0  0  0  0  0  2  0  0  0  0  0  0
  179.1470  179.5430  135.8630 C   0  0  0  0  0  2  0  0  0  0  0  0
  178.9380  180.9230  136.4450 C   0  0  0  0  0  2  0  0  0  0  0  0
  180.2370  181.7290  136.3750 C   0  0  0  0  0  1  0  0  0  0  0  0
  185.8920  178.1170  144.7160 C   0  0  2  0  0  3  0  0  0  0  0  0
  184.2640  178.3400  146.6030 C   0  0  0  0  0  1  0  0  0  0  0  0
  185.1160  179.0990  145.5850 C   0  0  0  0  0  2  0  0  0  0  0  0
  187.3740  178.2860  144.9970 C   0  0  0  0  0  2  0  0  0  0  0  0
  188.8080  177.1780  146.7540 C   0  0  0  0  0  0  0  0  0  0  0  0
  187.6640  177.9390  146.3770 N   0  0  0  0  0  2  0  0  0  0  0  0
  188.8670  176.6990  147.9190 O   0  0  0  0  0  0  0  0  0  0  0  0
  191.3040  177.8170  146.0140 S   0  0  0  0  0  0  0  0  0  0  0  0
  189.9210  176.9650  145.8220 C   0  0  0  0  0  0  0  0  0  0  0  0
  189.7940  176.0780  144.6530 C   0  0  0  0  0  3  0  0  0  0  0  0
  190.1590  176.4440  143.4470 C   0  0  0  0  0  0  0  0  0  0  0  0
  190.5010  176.8510  142.2620 C   0  0  0  0  0  0  0  0  0  0  0  0
  189.5340  177.0730  141.2760 O   0  0  0  0  0  0  0  0  0  0  0  0
  189.6240  178.1540  140.4440 O   0  0  0  0  0  0  0  0  0  0  0  0
  188.0110  178.5440  137.1710 C   0  0  0  0  0  0  0  0  0  0  0  0
  188.3170  178.6420  138.5640 N   0  0  0  0  0  0  0  0  0  0  0  0
  187.1880  179.3570  136.6510 O   0  0  0  0  0  0  0  0  0  0  0  0
  188.6810  177.5140  136.3080 C   0  0  0  0  0  2  0  0  0  0  0  0
  190.1930  177.1720  138.2560 C   0  0  0  0  0  3  0  0  0  0  0  0
  189.3280  178.0080  139.0900 C   0  0  0  0  0  0  0  0  0  0  0  0
  189.9450  176.9700  136.9620 C   0  0  0  0  0  0  0  0  0  0  0  0
  190.8630  176.2110  136.2310 O   0  0  0  0  0  0  0  0  0  0  0  0
  191.6960  174.6460  134.6630 C   0  0  0  0  0  1  0  0  0  0  0  0
  190.5720  174.9500  135.6380 C   0  0  1  0  0  3  0  0  0  0  0  0
  190.5410  173.8760  136.7410 C   0  0  0  0  0  3  0  0  0  0  0  0
  190.2840  172.6150  136.1770 O   0  0  0  0  0  1  0  0  0  0  0  0
  191.7690  173.8660  137.4100 O   0  0  0  0  0  1  0  0  0  0  0  0
  191.9410  177.1260  141.9380 C   0  0  0  0  0  2  0  0  0  0  0  0
  192.2250  176.6300  140.6590 O   0  0  0  0  0  0  0  0  0  0  0  0
  193.0180  177.5430  140.1070 O   0  0  0  0  0  1  0  0  0  0  0  0
  1 33  1  0  0  0  0
  2  1  2  0  0  0  0
  3  1  1  0  0  0  0
  4  7  1  0  0  0  0
  5  7  2  0  0  0  0
  5  6  1  0  0  0  0
  6  8  1  0  0  0  0
  7  9  1  0  0  0  0
  8  3  1  1  0  0  0
  9  8  1  0  0  0  0
  9 13  1  1  0  0  0
 11 10  1  0  0  0  0
 12 11  2  0  0  0  0
 13 11  1  0  0  0  0
 14  4  1  0  0  0  0
 15 29  1  0  0  0  0
 15 14  1  1  0  0  0
 15 16  1  0  0  0  0
 17 16  2  0  0  0  0
 18 17  1  0  0  0  0
 19 27  1  0  0  0  0
 19 24  2  0  0  0  0
 21 18  1  0  0  0  0
 21 28  1  0  0  0  0
 22 21  1  0  0  0  0
 24 20  1  0  0  0  0
 25 20  1  1  0  0  0
 25 23  1  0  0  0  0
 26 22  1  6  0  0  0
 26 25  1  0  0  0  0
 27 26  1  0  0  0  0
 28 23  2  0  0  0  0
 30 31  1  0  0  0  0
 30 29  1  0  0  0  0
 32 31  1  0  0  0  0
 33 36  1  6  0  0  0
 33 35  1  0  0  0  0
 35 34  1  0  0  0  0
 36 38  1  0  0  0  0
 37 39  2  0  0  0  0
 38 37  1  0  0  0  0
 41 40  2  0  0  0  0
 41 37  1  0  0  0  0
 42 41  1  0  0  0  0
 43 42  2  0  0  0  0
 44 43  2  0  0  0  0
 45 44  1  0  0  0  0
 46 45  1  0  0  0  0
 47 48  1  0  0  0  0
 48 52  2  0  0  0  0
 49 47  2  0  0  0  0
 50 53  1  0  0  0  0
 50 47  1  0  0  0  0
 51 52  1  0  0  0  0
 52 46  1  0  0  0  0
 53 51  2  0  0  0  0
 54 53  1  0  0  0  0
 56 55  1  6  0  0  0
 56 54  1  0  0  0  0
 56 57  1  0  0  0  0
 57 59  1  0  0  0  0
 58 57  1  0  0  0  0
 60 44  1  0  0  0  0
 61 60  1  0  0  0  0
 62 61  1  0  0  0  0
M  END
>  <MODEL>
6

>  <REMARK>
 VINA RESULT:      -5.0      3.037      8.630
  Name = 
  24 active torsions:
  status: ('A' for Active; 'I' for Inactive)
    1  A    between atoms: C_1  and  C_9
    2  A    between atoms: C_1  and  N_35
    3  A    between atoms: C_1  and  N_61
    4  A    between atoms: C_4  and  O_34
    5  A    between atoms: C_4  and  C_58
    6  A    between atoms: N_5  and  C_9
    7  A    between atoms: C_6  and  C_10
    8  A    between atoms: C_6  and  C_27
    9  A    between atoms: C_6  and  C_59
   10  A    between atoms: C_8  and  C_24
   11  A    between atoms: C_10  and  N_45
   12  A    between atoms: C_14  and  C_39
   13  A    between atoms: O_15  and  O_46
   14  A    between atoms: O_15  and  C_58
   15  A    between atoms: C_18  and  C_52
   16  A    between atoms: O_21  and  C_52
   17  A    between atoms: O_21  and  C_56
   18  A    between atoms: C_24  and  N_35
   19  A    between atoms: C_25  and  N_40
   20  A    between atoms: N_26  and  C_33
   21  A    between atoms: C_30  and  C_39
   22  A    between atoms: C_33  and  C_62
   23  A    between atoms: N_41  and  C_48
   24  A    between atoms: O_46  and  C_55
                            x       y       z     vdW  Elec       q    Type
                         _______ _______ _______ _____ _____    ______ ____

>  <TORSDO>
F 24

$$$$
=
 OpenBabel10222418343D

 62 65  0  0  1  0  0  0  0  0999 V2000
  186.8400  177.7250  146.3610 C   0  0  0  0  0  0  0  0  0  0  0  0
  185.9120  178.0530  147.1530 O   0  0  0  0  0  0  0  0  0  0  0  0
  186.5530  177.5650  144.9680 N   0  0  0  0  0  2  0  0  0  0  0  0
  183.2410  178.7940  141.5060 N   0  0  0  0  0  2  0  0  0  0  0  0
  183.5500  179.1900  143.8360 N   0  0  0  0  0  0  0  0  0  0  0  0
  184.4130  178.8260  144.9380 C   0  0  0  0  0  2  0  0  0  0  0  0
  183.9650  178.6590  142.7360 C   0  0  0  0  0  0  0  0  0  0  0  0
  185.1960  177.6400  144.4120 C   0  0  1  0  0  3  0  0  0  0  0  0
  185.1430  177.7680  142.8780 C   0  0  2  0  0  3  0  0  0  0  0  0
  187.7470  179.2760  140.4530 C   0  0  0  0  0  1  0  0  0  0  0  0
  186.5750  178.4960  140.9390 C   0  0  0  0  0  0  0  0  0  0  0  0
  185.8070  177.9300  140.1080 O   0  0  0  0  0  0  0  0  0  0  0  0
  186.3230  178.4360  142.3470 N   0  0  0  0  0  2  0  0  0  0  0  0
  181.8360  179.1870  141.5190 C   0  0  0  0  0  2  0  0  0  0  0  0
  181.2370  179.2720  140.1110 C   0  0  1  0  0  3  0  0  0  0  0  0
  182.1160  178.5690  139.2000 N   0  0  0  0  0  0  0  0  0  0  0  0
  181.8460  178.3530  137.9570 C   0  0  0  0  0  3  0  0  0  0  0  0
  180.5920  178.8370  137.2780 C   0  0  0  0  0  2  0  0  0  0  0  0
  180.9850  184.9930  136.9140 C   0  0  0  0  0  3  0  0  0  0  0  0
  180.2110  183.9360  134.8180 C   0  0  0  0  0  2  0  0  0  0  0  0
  180.8100  180.1030  136.5840 N   0  0  0  0  0  0  0  0  0  0  0  0
  181.0930  181.2890  137.4160 C   0  0  0  0  0  2  0  0  0  0  0  0
  180.4670  181.4410  134.5940 C   0  0  0  0  0  3  0  0  0  0  0  0
  180.7980  185.0820  135.5850 C   0  0  0  0  0  3  0  0  0  0  0  0
  180.8430  182.6680  135.3710 C   0  0  2  0  0  3  0  0  0  0  0  0
  180.3960  182.5100  136.8300 C   0  0  2  0  0  3  0  0  0  0  0  0
  180.5670  183.7660  137.6940 C   0  0  0  0  0  2  0  0  0  0  0  0
  180.4760  180.2400  135.1890 C   0  0  0  0  0  3  0  0  0  0  0  0
  179.9080  178.6580  140.0690 N   0  0  0  0  0  2  0  0  0  0  0  0
  179.8920  177.6290  141.1120 C   0  0  0  0  0  2  0  0  0  0  0  0
  180.0570  176.2680  140.4730 C   0  0  0  0  0  2  0  0  0  0  0  0
  179.0540  176.0950  139.3300 C   0  0  0  0  0  1  0  0  0  0  0  0
  188.2560  177.6320  146.8890 C   0  0  2  0  0  3  0  0  0  0  0  0
  188.3050  177.6650  149.3900 C   0  0  0  0  0  1  0  0  0  0  0  0
  188.4880  178.4980  148.1200 C   0  0  0  0  0  2  0  0  0  0  0  0
  189.2520  178.0370  145.8170 C   0  0  0  0  0  2  0  0  0  0  0  0
  191.1370  176.6740  144.8370 C   0  0  0  0  0  0  0  0  0  0  0  0
  190.4740  177.2640  145.9510 N   0  0  0  0  0  2  0  0  0  0  0  0
  192.0360  175.8140  145.0450 O   0  0  0  0  0  0  0  0  0  0  0  0
  190.5420  178.6420  143.1170 S   0  0  0  0  0  0  0  0  0  0  0  0
  190.8080  177.0660  143.4610 C   0  0  0  0  0  0  0  0  0  0  0  0
  190.6120  176.0660  142.3970 C   0  0  0  0  0  3  0  0  0  0  0  0
  190.4550  176.4000  141.1380 C   0  0  0  0  0  0  0  0  0  0  0  0
  190.2710  176.7660  139.9050 C   0  0  0  0  0  0  0  0  0  0  0  0
  189.0300  176.5910  139.2860 O   0  0  0  0  0  0  0  0  0  0  0  0
  188.9320  175.9110  138.1040 O   0  0  0  0  0  0  0  0  0  0  0  0
  186.7040  177.4670  135.6370 C   0  0  0  0  0  0  0  0  0  0  0  0
  187.7880  177.2220  136.5370 N   0  0  0  0  0  0  0  0  0  0  0  0
  186.8030  178.3910  134.7730 O   0  0  0  0  0  0  0  0  0  0  0  0
  185.4650  176.6200  135.6780 C   0  0  0  0  0  2  0  0  0  0  0  0
  186.7870  175.1310  137.1730 C   0  0  0  0  0  3  0  0  0  0  0  0
  187.8440  176.1410  137.2640 C   0  0  0  0  0  0  0  0  0  0  0  0
  185.7070  175.3070  136.4110 C   0  0  0  0  0  0  0  0  0  0  0  0
  184.7840  174.2600  136.3370 O   0  0  0  0  0  0  0  0  0  0  0  0
  183.1660  174.9410  137.9240 C   0  0  0  0  0  1  0  0  0  0  0  0
  184.0190  173.7830  137.4380 C   0  0  1  0  0  3  0  0  0  0  0  0
  183.1080  172.6400  136.9530 C   0  0  0  0  0  3  0  0  0  0  0  0
  181.9630  173.1670  136.3310 O   0  0  0  0  0  1  0  0  0  0  0  0
  183.8160  171.8330  136.0580 O   0  0  0  0  0  1  0  0  0  0  0  0
  191.3800  177.4200  139.1330 C   0  0  0  0  0  2  0  0  0  0  0  0
  192.4420  176.5150  139.0040 O   0  0  0  0  0  0  0  0  0  0  0  0
  192.4350  176.1610  137.7220 O   0  0  0  0  0  1  0  0  0  0  0  0
  1 33  1  0  0  0  0
  1  2  2  0  0  0  0
  3  1  1  0  0  0  0
  4 14  1  0  0  0  0
  4  7  1  0  0  0  0
  5  6  1  0  0  0  0
  7  9  1  0  0  0  0
  7  5  2  0  0  0  0
  8  6  1  0  0  0  0
  8  3  1  1  0  0  0
  9 13  1  1  0  0  0
  9  8  1  0  0  0  0
 10 11  1  0  0  0  0
 11 13  1  0  0  0  0
 12 11  2  0  0  0  0
 15 14  1  1  0  0  0
 16 15  1  0  0  0  0
 17 16  2  0  0  0  0
 18 17  1  0  0  0  0
 19 27  1  0  0  0  0
 20 25  1  0  0  0  0
 20 24  1  0  0  0  0
 21 18  1  0  0  0  0
 21 22  1  0  0  0  0
 23 28  2  0  0  0  0
 24 19  2  0  0  0  0
 25 23  1  6  0  0  0
 25 26  1  0  0  0  0
 26 22  1  1  0  0  0
 26 27  1  0  0  0  0
 28 21  1  0  0  0  0
 29 15  1  0  0  0  0
 29 30  1  0  0  0  0
 31 30  1  0  0  0  0
 32 31  1  0  0  0  0
 33 36  1  6  0  0  0
 33 35  1  0  0  0  0
 35 34  1  0  0  0  0
 36 38  1  0  0  0  0
 37 39  2  0  0  0  0
 37 38  1  0  0  0  0
 40 41  2  0  0  0  0
 41 37  1  0  0  0  0
 42 41  1  0  0  0  0
 43 42  2  0  0  0  0
 44 43  2  0  0  0  0
 45 44  1  0  0  0  0
 46 45  1  0  0  0  0
 47 50  1  0  0  0  0
 47 48  1  0  0  0  0
 48 52  2  0  0  0  0
 49 47  2  0  0  0  0
 50 53  1  0  0  0  0
 51 52  1  0  0  0  0
 52 46  1  0  0  0  0
 53 51  2  0  0  0  0
 54 53  1  0  0  0  0
 54 56  1  0  0  0  0
 56 55  1  6  0  0  0
 57 56  1  0  0  0  0
 58 57  1  0  0  0  0
 59 57  1  0  0  0  0
 60 44  1  0  0  0  0
 61 60  1  0  0  0  0
 62 61  1  0  0  0  0
M  END
>  <MODEL>
7

>  <REMARK>
 VINA RESULT:      -4.9      3.694      9.493
  Name = 
  24 active torsions:
  status: ('A' for Active; 'I' for Inactive)
    1  A    between atoms: C_1  and  C_9
    2  A    between atoms: C_1  and  N_35
    3  A    between atoms: C_1  and  N_61
    4  A    between atoms: C_4  and  O_34
    5  A    between atoms: C_4  and  C_58
    6  A    between atoms: N_5  and  C_9
    7  A    between atoms: C_6  and  C_10
    8  A    between atoms: C_6  and  C_27
    9  A    between atoms: C_6  and  C_59
   10  A    between atoms: C_8  and  C_24
   11  A    between atoms: C_10  and  N_45
   12  A    between atoms: C_14  and  C_39
   13  A    between atoms: O_15  and  O_46
   14  A    between atoms: O_15  and  C_58
   15  A    between atoms: C_18  and  C_52
   16  A    between atoms: O_21  and  C_52
   17  A    between atoms: O_21  and  C_56
   18  A    between atoms: C_24  and  N_35
   19  A    between atoms: C_25  and  N_40
   20  A    between atoms: N_26  and  C_33
   21  A    between atoms: C_30  and  C_39
   22  A    between atoms: C_33  and  C_62
   23  A    between atoms: N_41  and  C_48
   24  A    between atoms: O_46  and  C_55
                            x       y       z     vdW  Elec       q    Type
                         _______ _______ _______ _____ _____    ______ ____

>  <TORSDO>
F 24

$$$$
=
 OpenBabel10222418343D

 62 65  0  0  1  0  0  0  0  0999 V2000
  185.3720  178.1950  144.1010 C   0  0  0  0  0  0  0  0  0  0  0  0
  186.3240  177.9400  143.3110 O   0  0  0  0  0  0  0  0  0  0  0  0
  184.1040  178.5910  143.5700 N   0  0  0  0  0  2  0  0  0  0  0  0
  181.2520  179.0460  139.5550 N   0  0  0  0  0  2  0  0  0  0  0  0
  183.1570  177.7670  140.2000 N   0  0  0  0  0  0  0  0  0  0  0  0
  184.0960  177.6110  141.2880 C   0  0  0  0  0  2  0  0  0  0  0  0
  182.2570  178.6430  140.4940 C   0  0  0  0  0  0  0  0  0  0  0  0
  183.8710  178.8430  142.1420 C   0  0  1  0  0  3  0  0  0  0  0  0
  182.4450  179.3160  141.8040 C   0  0  2  0  0  3  0  0  0  0  0  0
  179.3390  179.0080  144.0830 C   0  0  0  0  0  1  0  0  0  0  0  0
  180.3610  179.6150  143.1850 C   0  0  0  0  0  0  0  0  0  0  0  0
  180.2250  180.8100  142.7920 O   0  0  0  0  0  0  0  0  0  0  0  0
  181.4640  178.8100  142.7540 N   0  0  0  0  0  2  0  0  0  0  0  0
  181.4320  178.7910  138.1300 C   0  0  0  0  0  2  0  0  0  0  0  0
  180.1120  178.4900  137.4150 C   0  0  1  0  0  3  0  0  0  0  0  0
  179.3260  177.6160  138.2610 N   0  0  0  0  0  0  0  0  0  0  0  0
  178.9330  176.4360  137.9150 C   0  0  0  0  0  3  0  0  0  0  0  0
  179.2710  175.7970  136.5940 C   0  0  0  0  0  2  0  0  0  0  0  0
  184.8480  173.4250  137.7980 C   0  0  0  0  0  3  0  0  0  0  0  0
  183.5410  172.0830  136.1850 C   0  0  0  0  0  2  0  0  0  0  0  0
  180.2320  174.7100  136.7520 N   0  0  0  0  0  0  0  0  0  0  0  0
  181.4750  175.0090  137.4910 C   0  0  0  0  0  2  0  0  0  0  0  0
  181.0860  172.5880  135.9510 C   0  0  0  0  0  3  0  0  0  0  0  0
  184.6540  172.2490  137.1760 C   0  0  0  0  0  3  0  0  0  0  0  0
  182.3290  172.7990  136.7630 C   0  0  2  0  0  3  0  0  0  0  0  0
  182.6510  174.2970  136.8340 C   0  0  2  0  0  3  0  0  0  0  0  0
  183.9950  174.6360  137.4920 C   0  0  0  0  0  2  0  0  0  0  0  0
  180.1040  173.5010  135.9790 C   0  0  0  0  0  3  0  0  0  0  0  0
  179.3590  179.7210  137.1630 N   0  0  0  0  0  2  0  0  0  0  0  0
  180.1750  180.5280  136.2530 C   0  0  0  0  0  2  0  0  0  0  0  0
  180.6820  181.7500  136.9870 C   0  0  0  0  0  2  0  0  0  0  0  0
  179.8110  182.9640  136.6570 C   0  0  0  0  0  1  0  0  0  0  0  0
  185.5650  177.9550  145.5840 C   0  0  2  0  0  3  0  0  0  0  0  0
  186.3160  179.6160  147.2980 C   0  0  0  0  0  1  0  0  0  0  0  0
  185.1430  179.1450  146.4360 C   0  0  0  0  0  2  0  0  0  0  0  0
  187.0160  177.6300  145.8870 C   0  0  0  0  0  2  0  0  0  0  0  0
  188.3490  176.3870  147.6330 C   0  0  0  0  0  0  0  0  0  0  0  0
  187.1050  176.8000  147.0750 N   0  0  0  0  0  2  0  0  0  0  0  0
  188.3570  175.4700  148.4990 O   0  0  0  0  0  0  0  0  0  0  0  0
  189.9500  178.5330  147.7630 S   0  0  0  0  0  0  0  0  0  0  0  0
  189.6110  177.0230  147.2350 C   0  0  0  0  0  0  0  0  0  0  0  0
  190.5370  176.3800  146.2880 C   0  0  0  0  0  3  0  0  0  0  0  0
  190.8800  176.9360  145.1490 C   0  0  0  0  0  0  0  0  0  0  0  0
  191.1740  177.5010  144.0170 C   0  0  0  0  0  0  0  0  0  0  0  0
  190.7250  176.9570  142.8100 O   0  0  0  0  0  0  0  0  0  0  0  0
  191.3280  177.2910  141.6300 O   0  0  0  0  0  0  0  0  0  0  0  0
  190.7760  175.6190  138.4090 C   0  0  0  0  0  0  0  0  0  0  0  0
  191.3630  176.0680  139.6340 N   0  0  0  0  0  0  0  0  0  0  0  0
  191.2820  174.6310  137.7960 O   0  0  0  0  0  0  0  0  0  0  0  0
  189.5450  176.2810  137.8600 C   0  0  0  0  0  2  0  0  0  0  0  0
  189.4150  177.4040  140.0780 C   0  0  0  0  0  3  0  0  0  0  0  0
  190.7460  176.9020  140.4240 C   0  0  0  0  0  0  0  0  0  0  0  0
  188.8200  177.0920  138.9270 C   0  0  0  0  0  0  0  0  0  0  0  0
  187.5230  177.5650  138.7130 O   0  0  0  0  0  0  0  0  0  0  0  0
  185.5000  178.1990  137.6610 C   0  0  0  0  0  1  0  0  0  0  0  0
  186.8700  177.5790  137.4490 C   0  0  1  0  0  3  0  0  0  0  0  0
  187.6850  178.4500  136.4760 C   0  0  0  0  0  3  0  0  0  0  0  0
  187.2310  178.2590  135.1610 O   0  0  0  0  0  1  0  0  0  0  0  0
  187.5570  179.7940  136.8410 O   0  0  0  0  0  1  0  0  0  0  0  0
  191.9710  178.7730  143.9860 C   0  0  0  0  0  2  0  0  0  0  0  0
  191.1370  179.8430  144.3370 O   0  0  0  0  0  0  0  0  0  0  0  0
  190.1760  179.8430  143.4180 O   0  0  0  0  0  1  0  0  0  0  0  0
  1 33  1  0  0  0  0
  2  1  2  0  0  0  0
  3  1  1  0  0  0  0
  4  7  1  0  0  0  0
  5  7  2  0  0  0  0
  5  6  1  0  0  0  0
  6  8  1  0  0  0  0
  7  9  1  0  0  0  0
  8  3  1  1  0  0  0
  9  8  1  0  0  0  0
  9 13  1  1  0  0  0
 11 10  1  0  0  0  0
 12 11  2  0  0  0  0
 13 11  1  0  0  0  0
 14  4  1  0  0  0  0
 15 14  1  1  0  0  0
 15 16  1  0  0  0  0
 17 16  2  0  0  0  0
 18 21  1  0  0  0  0
 18 17  1  0  0  0  0
 20 25  1  0  0  0  0
 20 24  1  0  0  0  0
 21 22  1  0  0  0  0
 23 28  2  0  0  0  0
 24 19  2  0  0  0  0
 25 23  1  6  0  0  0
 25 26  1  0  0  0  0
 26 22  1  1  0  0  0
 26 27  1  0  0  0  0
 27 19  1  0  0  0  0
 28 21  1  0  0  0  0
 29 15  1  0  0  0  0
 30 31  1  0  0  0  0
 30 29  1  0  0  0  0
 32 31  1  0  0  0  0
 33 36  1  6  0  0  0
 33 35  1  0  0  0  0
 35 34  1  0  0  0  0
 36 38  1  0  0  0  0
 37 39  2  0  0  0  0
 38 37  1  0  0  0  0
 41 37  1  0  0  0  0
 41 40  2  0  0  0  0
 42 41  1  0  0  0  0
 43 42  2  0  0  0  0
 44 43  2  0  0  0  0
 45 44  1  0  0  0  0
 46 45  1  0  0  0  0
 47 48  1  0  0  0  0
 48 52  2  0  0  0  0
 49 47  2  0  0  0  0
 50 47  1  0  0  0  0
 50 53  1  0  0  0  0
 51 52  1  0  0  0  0
 52 46  1  0  0  0  0
 53 51  2  0  0  0  0
 54 53  1  0  0  0  0
 56 55  1  1  0  0  0
 56 54  1  0  0  0  0
 57 59  1  0  0  0  0
 57 56  1  0  0  0  0
 58 57  1  0  0  0  0
 60 44  1  0  0  0  0
 60 61  1  0  0  0  0
 62 61  1  0  0  0  0
M  END
>  <MODEL>
8

>  <REMARK>
 VINA RESULT:      -4.9      3.356      8.557
  Name = 
  24 active torsions:
  status: ('A' for Active; 'I' for Inactive)
    1  A    between atoms: C_1  and  C_9
    2  A    between atoms: C_1  and  N_35
    3  A    between atoms: C_1  and  N_61
    4  A    between atoms: C_4  and  O_34
    5  A    between atoms: C_4  and  C_58
    6  A    between atoms: N_5  and  C_9
    7  A    between atoms: C_6  and  C_10
    8  A    between atoms: C_6  and  C_27
    9  A    between atoms: C_6  and  C_59
   10  A    between atoms: C_8  and  C_24
   11  A    between atoms: C_10  and  N_45
   12  A    between atoms: C_14  and  C_39
   13  A    between atoms: O_15  and  O_46
   14  A    between atoms: O_15  and  C_58
   15  A    between atoms: C_18  and  C_52
   16  A    between atoms: O_21  and  C_52
   17  A    between atoms: O_21  and  C_56
   18  A    between atoms: C_24  and  N_35
   19  A    between atoms: C_25  and  N_40
   20  A    between atoms: N_26  and  C_33
   21  A    between atoms: C_30  and  C_39
   22  A    between atoms: C_33  and  C_62
   23  A    between atoms: N_41  and  C_48
   24  A    between atoms: O_46  and  C_55
                            x       y       z     vdW  Elec       q    Type
                         _______ _______ _______ _____ _____    ______ ____

>  <TORSDO>
F 24

$$$$
=
 OpenBabel10222418343D

 62 65  0  0  1  0  0  0  0  0999 V2000
  185.4520  178.2820  143.5040 C   0  0  0  0  0  0  0  0  0  0  0  0
  186.4910  178.2950  142.7850 O   0  0  0  0  0  0  0  0  0  0  0  0
  184.1780  178.5340  142.9030 N   0  0  0  0  0  2  0  0  0  0  0  0
  181.5390  179.3150  138.7930 N   0  0  0  0  0  2  0  0  0  0  0  0
  183.4660  178.0560  139.4090 N   0  0  0  0  0  0  0  0  0  0  0  0
  184.3490  177.8200  140.5300 C   0  0  0  0  0  2  0  0  0  0  0  0
  182.5070  178.8530  139.7430 C   0  0  0  0  0  0  0  0  0  0  0  0
  184.0140  178.9360  141.4990 C   0  0  1  0  0  3  0  0  0  0  0  0
  182.5870  179.3810  141.1280 C   0  0  2  0  0  3  0  0  0  0  0  0
  179.3220  178.6270  143.0530 C   0  0  0  0  0  1  0  0  0  0  0  0
  180.3510  179.3820  142.2860 C   0  0  0  0  0  0  0  0  0  0  0  0
  180.1150  180.5680  141.9140 O   0  0  0  0  0  0  0  0  0  0  0  0
  181.5810  178.7280  141.9530 N   0  0  0  0  0  2  0  0  0  0  0  0
  181.8120  179.2310  137.3620 C   0  0  0  0  0  2  0  0  0  0  0  0
  180.5530  178.9400  136.5400 C   0  0  1  0  0  3  0  0  0  0  0  0
  179.5950  178.2720  137.3970 N   0  0  0  0  0  0  0  0  0  0  0  0
  179.1890  177.0600  137.2210 C   0  0  0  0  0  3  0  0  0  0  0  0
  179.6870  176.1630  136.1170 C   0  0  0  0  0  2  0  0  0  0  0  0
  185.3020  173.8690  137.2950 C   0  0  0  0  0  3  0  0  0  0  0  0
  183.6060  172.1260  136.8490 C   0  0  0  0  0  2  0  0  0  0  0  0
  180.6190  175.1580  136.6190 N   0  0  0  0  0  0  0  0  0  0  0  0
  182.0100  175.5880  136.8630 C   0  0  0  0  0  2  0  0  0  0  0  0
  181.1840  172.8140  136.8520 C   0  0  0  0  0  3  0  0  0  0  0  0
  184.9260  172.5820  137.3960 C   0  0  0  0  0  3  0  0  0  0  0  0
  182.5900  173.2020  137.2010 C   0  0  2  0  0  3  0  0  0  0  0  0
  182.9730  174.4830  136.4490 C   0  0  2  0  0  3  0  0  0  0  0  0
  184.4450  174.8940  136.5850 C   0  0  0  0  0  2  0  0  0  0  0  0
  180.2700  173.7610  136.5980 C   0  0  0  0  0  3  0  0  0  0  0  0
  179.9610  180.1780  136.0290 N   0  0  0  0  0  2  0  0  0  0  0  0
  180.6070  181.2760  136.7530 C   0  0  0  0  0  2  0  0  0  0  0  0
  180.0640  182.5940  136.2490 C   0  0  0  0  0  2  0  0  0  0  0  0
  180.7730  183.7590  136.9430 C   0  0  0  0  0  1  0  0  0  0  0  0
  185.5700  177.8780  144.9580 C   0  0  2  0  0  3  0  0  0  0  0  0
  185.0130  178.6720  147.2640 C   0  0  0  0  0  1  0  0  0  0  0  0
  185.5870  179.0710  145.9050 C   0  0  0  0  0  2  0  0  0  0  0  0
  186.8300  177.0620  145.1840 C   0  0  0  0  0  2  0  0  0  0  0  0
  188.7750  178.1670  146.3510 C   0  0  0  0  0  0  0  0  0  0  0  0
  187.9950  177.9290  145.1840 N   0  0  0  0  0  2  0  0  0  0  0  0
  189.6070  179.1150  146.3480 O   0  0  0  0  0  0  0  0  0  0  0  0
  187.9100  177.9140  148.8760 S   0  0  0  0  0  0  0  0  0  0  0  0
  188.6430  177.3180  147.5410 C   0  0  0  0  0  0  0  0  0  0  0  0
  189.2440  175.9750  147.6040 C   0  0  0  0  0  3  0  0  0  0  0  0
  190.4520  175.7210  147.1570 C   0  0  0  0  0  0  0  0  0  0  0  0
  191.6380  175.4990  146.6760 C   0  0  0  0  0  0  0  0  0  0  0  0
  191.8080  174.7190  145.5280 O   0  0  0  0  0  0  0  0  0  0  0  0
  192.3460  175.2590  144.3930 O   0  0  0  0  0  0  0  0  0  0  0  0
  191.0250  178.5810  143.5640 C   0  0  0  0  0  0  0  0  0  0  0  0
  191.6690  177.4940  144.2350 N   0  0  0  0  0  0  0  0  0  0  0  0
  191.2460  179.7710  143.9440 O   0  0  0  0  0  0  0  0  0  0  0  0
  190.1200  178.3330  142.3930 C   0  0  0  0  0  2  0  0  0  0  0  0
  191.0250  176.0140  142.4540 C   0  0  0  0  0  3  0  0  0  0  0  0
  191.6770  176.2900  143.7350 C   0  0  0  0  0  0  0  0  0  0  0  0
  190.3450  176.9510  141.7920 C   0  0  0  0  0  0  0  0  0  0  0  0
  189.8120  176.6120  140.5450 O   0  0  0  0  0  0  0  0  0  0  0  0
  190.8070  176.2680  138.4260 C   0  0  0  0  0  1  0  0  0  0  0  0
  190.1240  177.2810  139.3290 C   0  0  1  0  0  3  0  0  0  0  0  0
  188.8160  177.7580  138.6720 C   0  0  0  0  0  3  0  0  0  0  0  0
  188.1070  178.5860  139.5590 O   0  0  0  0  0  1  0  0  0  0  0  0
  189.1160  178.4520  137.4960 O   0  0  0  0  0  1  0  0  0  0  0  0
  192.8470  176.1080  147.3230 C   0  0  0  0  0  2  0  0  0  0  0  0
  192.9430  175.6420  148.6410 O   0  0  0  0  0  0  0  0  0  0  0  0
  193.2620  176.7140  149.3600 O   0  0  0  0  0  1  0  0  0  0  0  0
  1 33  1  0  0  0  0
  2  1  2  0  0  0  0
  3  1  1  0  0  0  0
  4  7  1  0  0  0  0
  5  7  2  0  0  0  0
  5  6  1  0  0  0  0
  6  8  1  0  0  0  0
  7  9  1  0  0  0  0
  8  3  1  1  0  0  0
  9  8  1  0  0  0  0
  9 13  1  1  0  0  0
 11 10  1  0  0  0  0
 12 11  2  0  0  0  0
 13 11  1  0  0  0  0
 14  4  1  0  0  0  0
 15 14  1  1  0  0  0
 15 16  1  0  0  0  0
 17 16  2  0  0  0  0
 18 21  1  0  0  0  0
 18 17  1  0  0  0  0
 19 24  2  0  0  0  0
 20 24  1  0  0  0  0
 21 22  1  0  0  0  0
 23 25  1  0  0  0  0
 25 20  1  6  0  0  0
 26 27  1  1  0  0  0
 26 22  1  0  0  0  0
 26 25  1  0  0  0  0
 27 19  1  0  0  0  0
 28 21  1  0  0  0  0
 28 23  2  0  0  0  0
 29 15  1  0  0  0  0
 29 30  1  0  0  0  0
 31 30  1  0  0  0  0
 31 32  1  0  0  0  0
 33 36  1  6  0  0  0
 33 35  1  0  0  0  0
 35 34  1  0  0  0  0
 37 41  1  0  0  0  0
 38 36  1  0  0  0  0
 38 37  1  0  0  0  0
 39 37  2  0  0  0  0
 41 42  1  0  0  0  0
 41 40  2  0  0  0  0
 43 42  2  0  0  0  0
 44 43  2  0  0  0  0
 44 60  1  0  0  0  0
 45 44  1  0  0  0  0
 46 45  1  0  0  0  0
 47 49  2  0  0  0  0
 47 48  1  0  0  0  0
 50 47  1  0  0  0  0
 51 52  1  0  0  0  0
 52 48  2  0  0  0  0
 52 46  1  0  0  0  0
 53 50  1  0  0  0  0
 53 51  2  0  0  0  0
 54 53  1  0  0  0  0
 56 55  1  6  0  0  0
 56 54  1  0  0  0  0
 57 56  1  0  0  0  0
 57 58  1  0  0  0  0
 59 57  1  0  0  0  0
 60 61  1  0  0  0  0
 61 62  1  0  0  0  0
M  END
>  <MODEL>
9

>  <REMARK>
 VINA RESULT:      -4.8      3.579      9.243
  Name = 
  24 active torsions:
  status: ('A' for Active; 'I' for Inactive)
    1  A    between atoms: C_1  and  C_9
    2  A    between atoms: C_1  and  N_35
    3  A    between atoms: C_1  and  N_61
    4  A    between atoms: C_4  and  O_34
    5  A    between atoms: C_4  and  C_58
    6  A    between atoms: N_5  and  C_9
    7  A    between atoms: C_6  and  C_10
    8  A    between atoms: C_6  and  C_27
    9  A    between atoms: C_6  and  C_59
   10  A    between atoms: C_8  and  C_24
   11  A    between atoms: C_10  and  N_45
   12  A    between atoms: C_14  and  C_39
   13  A    between atoms: O_15  and  O_46
   14  A    between atoms: O_15  and  C_58
   15  A    between atoms: C_18  and  C_52
   16  A    between atoms: O_21  and  C_52
   17  A    between atoms: O_21  and  C_56
   18  A    between atoms: C_24  and  N_35
   19  A    between atoms: C_25  and  N_40
   20  A    between atoms: N_26  and  C_33
   21  A    between atoms: C_30  and  C_39
   22  A    between atoms: C_33  and  C_62
   23  A    between atoms: N_41  and  C_48
   24  A    between atoms: O_46  and  C_55
                            x       y       z     vdW  Elec       q    Type
                         _______ _______ _______ _____ _____    ______ ____

>  <TORSDO>
F 24

$$$$
