=
 OpenBabel10222416113D

 26 29  0  0  1  0  0  0  0  0999 V2000
  188.6910  177.2650  140.7080 C   0  0  0  0  0  0  0  0  0  0  0  0
  187.0830  178.1350  142.3010 C   0  0  0  0  0  3  0  0  0  0  0  0
  191.2500  177.7690  142.5950 N   0  0  2  0  0  0  0  0  0  0  0  0
  192.2410  176.9400  143.2660 C   0  0  0  0  0  2  0  0  0  0  0  0
  188.1630  177.2910  142.0110 C   0  0  0  0  0  0  0  0  0  0  0  0
  189.8750  178.9510  144.2540 C   0  0  0  0  0  2  0  0  0  0  0  0
  189.6680  177.6370  145.0300 C   0  0  1  0  0  3  0  0  0  0  0  0
  187.0720  178.9090  140.0460 N   0  0  0  0  0  0  0  0  0  0  0  0
  186.5450  178.9390  141.2960 C   0  0  0  0  0  3  0  0  0  0  0  0
  188.1240  178.1070  139.7350 C   0  0  0  0  0  3  0  0  0  0  0  0
  191.5670  176.0600  144.3110 C   0  0  0  0  0  2  0  0  0  0  0  0
  189.8150  175.7890  139.0450 C   0  0  0  0  0  3  0  0  0  0  0  0
  191.7790  178.1150  141.2860 C   0  0  0  0  0  2  0  0  0  0  0  0
  188.7430  176.4790  143.0410 N   0  0  0  0  0  2  0  0  0  0  0  0
  191.1280  177.2820  140.2230 C   0  0  0  0  0  0  0  0  0  0  0  0
  188.5510  176.7470  144.4610 C   0  0  0  0  0  2  0  0  0  0  0  0
  189.9080  176.4290  140.3930 C   0  0  1  0  0  3  0  0  0  0  0  0
  190.7970  176.2200  138.2660 C   0  0  0  0  0  3  0  0  0  0  0  0
  190.9630  176.8980  145.4390 C   0  0  2  0  0  3  0  0  0  0  0  0
  191.1240  178.9950  143.3680 C   0  0  0  0  0  2  0  0  0  0  0  0
  191.6300  177.1590  139.0060 C   0  0  0  0  0  3  0  0  0  0  0  0
  190.8120  176.0590  146.7110 C   0  0  2  0  0  3  0  0  0  0  0  0
  189.6950  176.4470  147.4570 O   0  0  0  0  0  1  0  0  0  0  0  0
  192.2550  177.1520  148.4410 O   0  0  0  0  0  1  0  0  0  0  0  0
  192.9160  175.2030  147.4320 O   0  0  0  0  0  0  0  0  0  0  0  0
  192.0450  176.1040  147.5530 C   0  0  0  0  0  0  0  0  0  0  0  0
  1  5  1  0  0  0  0
  3 13  1  6  0  0  0
  3  4  1  0  0  0  0
  3 20  1  0  0  0  0
  4 11  1  0  0  0  0
  5  2  2  0  0  0  0
  5 14  1  0  0  0  0
  7  6  1  6  0  0  0
  7 19  1  0  0  0  0
  8  9  2  0  0  0  0
  9  2  1  0  0  0  0
 10  8  1  0  0  0  0
 10  1  2  0  0  0  0
 11 19  1  0  0  0  0
 14 16  1  0  0  0  0
 15 17  1  0  0  0  0
 15 13  1  0  0  0  0
 16  7  1  0  0  0  0
 17 12  1  6  0  0  0
 17  1  1  0  0  0  0
 18 21  1  0  0  0  0
 18 12  2  0  0  0  0
 19 22  1  1  0  0  0
 20  6  1  0  0  0  0
 21 15  2  0  0  0  0
 22 23  1  1  0  0  0
 22 26  1  0  0  0  0
 25 26  2  0  0  0  0
 26 24  1  0  0  0  0
M  END
>  <MODEL>
1

>  <REMARK>
 VINA RESULT:      -6.2      0.000      0.000
  Name = 
  2 active torsions:
  status: ('A' for Active; 'I' for Inactive)
    1  A    between atoms: C_1  and  C_12
    2  A    between atoms: C_1  and  C_23
                            x       y       z     vdW  Elec       q    Type
                         _______ _______ _______ _____ _____    ______ ____

>  <TORSDO>
F 2

$$$$
=
 OpenBabel10222416113D

 26 29  0  0  1  0  0  0  0  0999 V2000
  182.1800  178.7150  142.6520 C   0  0  0  0  0  0  0  0  0  0  0  0
  184.3960  178.5780  141.6770 C   0  0  0  0  0  3  0  0  0  0  0  0
  180.7610  179.7810  139.9660 N   0  0  2  0  0  0  0  0  0  0  0  0
  179.7590  179.2790  139.0370 C   0  0  0  0  0  2  0  0  0  0  0  0
  183.0280  178.2840  141.6160 C   0  0  0  0  0  0  0  0  0  0  0  0
  182.9300  180.0020  138.8310 C   0  0  0  0  0  2  0  0  0  0  0  0
  182.7780  178.5850  138.2480 C   0  0  1  0  0  3  0  0  0  0  0  0
  184.0690  179.7110  143.7490 N   0  0  0  0  0  0  0  0  0  0  0  0
  184.9020  179.2930  142.7620 C   0  0  0  0  0  3  0  0  0  0  0  0
  182.7360  179.4480  143.7150 C   0  0  0  0  0  3  0  0  0  0  0  0
  180.2700  178.0240  138.3410 C   0  0  0  0  0  2  0  0  0  0  0  0
  180.1010  178.1330  143.8950 C   0  0  0  0  0  3  0  0  0  0  0  0
  180.0690  180.5490  140.9880 C   0  0  0  0  0  2  0  0  0  0  0  0
  182.4900  177.5710  140.4940 N   0  0  0  0  0  2  0  0  0  0  0  0
  179.9580  179.7540  142.2540 C   0  0  0  0  0  0  0  0  0  0  0  0
  183.1870  177.4650  139.2170 C   0  0  0  0  0  2  0  0  0  0  0  0
  180.6910  178.4850  142.5670 C   0  0  1  0  0  3  0  0  0  0  0  0
  179.2130  179.0490  144.2570 C   0  0  0  0  0  3  0  0  0  0  0  0
  181.4760  178.3320  137.4520 C   0  0  2  0  0  3  0  0  0  0  0  0
  181.6180  180.6910  139.2210 C   0  0  0  0  0  2  0  0  0  0  0  0
  179.1180  180.0710  143.2240 C   0  0  0  0  0  3  0  0  0  0  0  0
  181.6240  177.2690  136.3600 C   0  0  2  0  0  3  0  0  0  0  0  0
  182.8120  177.4290  135.6410 O   0  0  0  0  0  1  0  0  0  0  0  0
  180.0580  178.4180  134.7800 O   0  0  0  0  0  0  0  0  0  0  0  0
  179.7900  176.1980  135.2800 O   0  0  0  0  0  1  0  0  0  0  0  0
  180.4490  177.2580  135.4370 C   0  0  0  0  0  0  0  0  0  0  0  0
  1 10  1  0  0  0  0
  2  9  2  0  0  0  0
  3  4  1  6  0  0  0
  3 13  1  0  0  0  0
  5  2  1  0  0  0  0
  5  1  2  0  0  0  0
  6 20  1  0  0  0  0
  7  6  1  1  0  0  0
  7 16  1  0  0  0  0
  9  8  1  0  0  0  0
 10  8  2  0  0  0  0
 11  4  1  0  0  0  0
 12 18  2  0  0  0  0
 13 15  1  0  0  0  0
 14  5  1  0  0  0  0
 15 17  1  0  0  0  0
 15 21  2  0  0  0  0
 16 14  1  0  0  0  0
 17  1  1  0  0  0  0
 17 12  1  1  0  0  0
 19 22  1  6  0  0  0
 19  7  1  0  0  0  0
 19 11  1  0  0  0  0
 20  3  1  0  0  0  0
 21 18  1  0  0  0  0
 22 23  1  6  0  0  0
 24 26  2  0  0  0  0
 25 26  1  0  0  0  0
 26 22  1  0  0  0  0
M  END
>  <MODEL>
2

>  <REMARK>
 VINA RESULT:      -5.4      7.836     11.346
  Name = 
  2 active torsions:
  status: ('A' for Active; 'I' for Inactive)
    1  A    between atoms: C_1  and  C_12
    2  A    between atoms: C_1  and  C_23
                            x       y       z     vdW  Elec       q    Type
                         _______ _______ _______ _____ _____    ______ ____

>  <TORSDO>
F 2

$$$$
=
 OpenBabel10222416113D

 26 29  0  0  1  0  0  0  0  0999 V2000
  190.3030  177.7530  145.3430 C   0  0  0  0  0  0  0  0  0  0  0  0
  189.0880  177.1960  147.3670 C   0  0  0  0  0  3  0  0  0  0  0  0
  187.8380  177.1390  143.3650 N   0  0  2  0  0  0  0  0  0  0  0  0
  187.0000  177.9130  142.4590 C   0  0  0  0  0  2  0  0  0  0  0  0
  189.1620  177.8930  146.1540 C   0  0  0  0  0  0  0  0  0  0  0  0
  186.4870  176.2540  145.2180 C   0  0  0  0  0  2  0  0  0  0  0  0
  185.8580  177.6430  145.4330 C   0  0  1  0  0  3  0  0  0  0  0  0
  191.2350  176.2410  146.9580 N   0  0  0  0  0  0  0  0  0  0  0  0
  190.1450  176.3720  147.7570 C   0  0  0  0  0  3  0  0  0  0  0  0
  191.3320  176.8980  145.7720 C   0  0  0  0  0  3  0  0  0  0  0  0
  186.1950  178.9430  143.2410 C   0  0  0  0  0  2  0  0  0  0  0  0
  191.7340  178.9560  143.6970 C   0  0  0  0  0  3  0  0  0  0  0  0
  188.9630  176.6310  142.5980 C   0  0  0  0  0  2  0  0  0  0  0  0
  188.0720  178.7220  145.7300 N   0  0  0  0  0  2  0  0  0  0  0  0
  190.1950  177.4360  142.8810 C   0  0  0  0  0  0  0  0  0  0  0  0
  186.7240  178.5960  146.2720 C   0  0  0  0  0  2  0  0  0  0  0  0
  190.3670  178.4250  143.9940 C   0  0  1  0  0  3  0  0  0  0  0  0
  192.2320  178.3590  142.6230 C   0  0  0  0  0  3  0  0  0  0  0  0
  185.1970  178.2720  144.1840 C   0  0  2  0  0  3  0  0  0  0  0  0
  187.0480  176.0030  143.8140 C   0  0  0  0  0  2  0  0  0  0  0  0
  191.2640  177.4030  142.1040 C   0  0  0  0  0  3  0  0  0  0  0  0
  184.0460  179.2260  144.5180 C   0  0  2  0  0  3  0  0  0  0  0  0
  183.6900  179.1550  145.8680 O   0  0  0  0  0  1  0  0  0  0  0  0
  181.6080  178.7470  144.2120 O   0  0  0  0  0  1  0  0  0  0  0  0
  182.9920  178.9570  142.3980 O   0  0  0  0  0  0  0  0  0  0  0  0
  182.8560  178.9820  143.6480 C   0  0  0  0  0  0  0  0  0  0  0  0
  1 10  2  0  0  0  0
  1  5  1  0  0  0  0
  2  9  1  0  0  0  0
  3  4  1  6  0  0  0
  3 20  1  0  0  0  0
  4 11  1  0  0  0  0
  5  2  2  0  0  0  0
  7  6  1  6  0  0  0
  7 16  1  0  0  0  0
  8  9  2  0  0  0  0
 10  8  1  0  0  0  0
 11 19  1  0  0  0  0
 13 15  1  0  0  0  0
 13  3  1  0  0  0  0
 14  5  1  0  0  0  0
 14 16  1  0  0  0  0
 15 17  1  0  0  0  0
 17 12  1  6  0  0  0
 17  1  1  0  0  0  0
 18 12  2  0  0  0  0
 19 22  1  1  0  0  0
 19  7  1  0  0  0  0
 20  6  1  0  0  0  0
 21 18  1  0  0  0  0
 21 15  2  0  0  0  0
 22 23  1  1  0  0  0
 25 26  2  0  0  0  0
 26 24  1  0  0  0  0
 26 22  1  0  0  0  0
M  END
>  <MODEL>
3

>  <REMARK>
 VINA RESULT:      -5.2      3.645      6.351
  Name = 
  2 active torsions:
  status: ('A' for Active; 'I' for Inactive)
    1  A    between atoms: C_1  and  C_12
    2  A    between atoms: C_1  and  C_23
                            x       y       z     vdW  Elec       q    Type
                         _______ _______ _______ _____ _____    ______ ____

>  <TORSDO>
F 2

$$$$
=
 OpenBabel10222416113D

 26 29  0  0  1  0  0  0  0  0999 V2000
  191.0960  176.6510  139.8870 C   0  0  0  0  0  0  0  0  0  0  0  0
  192.4140  175.9210  137.9870 C   0  0  0  0  0  3  0  0  0  0  0  0
  188.5240  177.4810  138.1360 N   0  0  2  0  0  0  0  0  0  0  0  0
  187.1470  177.0260  138.0120 C   0  0  0  0  0  2  0  0  0  0  0  0
  191.2150  175.8890  138.7100 C   0  0  0  0  0  0  0  0  0  0  0  0
  189.7410  177.0770  136.0390 C   0  0  0  0  0  2  0  0  0  0  0  0
  189.2010  175.6360  135.9940 C   0  0  1  0  0  3  0  0  0  0  0  0
  193.3400  177.4420  139.5720 N   0  0  0  0  0  0  0  0  0  0  0  0
  193.4750  176.7050  138.4400 C   0  0  0  0  0  3  0  0  0  0  0  0
  192.1870  177.4380  140.2910 C   0  0  0  0  0  3  0  0  0  0  0  0
  187.1130  175.5930  137.4940 C   0  0  0  0  0  2  0  0  0  0  0  0
  189.9880  176.7080  142.1170 C   0  0  0  0  0  3  0  0  0  0  0  0
  188.5510  178.5350  139.1360 C   0  0  0  0  0  2  0  0  0  0  0  0
  190.1080  175.1080  138.2420 N   0  0  0  0  0  2  0  0  0  0  0  0
  189.0900  178.0120  140.4340 C   0  0  0  0  0  0  0  0  0  0  0  0
  189.9930  174.6460  136.8630 C   0  0  0  0  0  2  0  0  0  0  0  0
  189.7860  176.7010  140.6350 C   0  0  1  0  0  3  0  0  0  0  0  0
  189.5030  177.8260  142.6380 C   0  0  0  0  0  3  0  0  0  0  0  0
  187.6610  175.5020  136.0690 C   0  0  2  0  0  3  0  0  0  0  0  0
  188.9000  178.0630  136.8570 C   0  0  0  0  0  2  0  0  0  0  0  0
  188.9330  178.6500  141.5810 C   0  0  0  0  0  3  0  0  0  0  0  0
  187.1210  174.2550  135.3630 C   0  0  2  0  0  3  0  0  0  0  0  0
  185.9910  174.5460  134.5940 O   0  0  0  0  0  1  0  0  0  0  0  0
  187.8560  172.3560  136.8190 O   0  0  0  0  0  1  0  0  0  0  0  0
  185.6420  172.9310  136.6800 O   0  0  0  0  0  0  0  0  0  0  0  0
  186.8290  173.1560  136.3310 C   0  0  0  0  0  0  0  0  0  0  0  0
  1 10  1  0  0  0  0
  1 17  1  0  0  0  0
  2  9  2  0  0  0  0
  2  5  1  0  0  0  0
  3 20  1  6  0  0  0
  3 13  1  0  0  0  0
  4  3  1  0  0  0  0
  5  1  2  0  0  0  0
  6 20  1  0  0  0  0
  7  6  1  1  0  0  0
  7 19  1  0  0  0  0
  7 16  1  0  0  0  0
  8 10  2  0  0  0  0
  9  8  1  0  0  0  0
 11  4  1  0  0  0  0
 12 18  2  0  0  0  0
 13 15  1  0  0  0  0
 14  5  1  0  0  0  0
 15 17  1  0  0  0  0
 15 21  2  0  0  0  0
 16 14  1  0  0  0  0
 17 12  1  1  0  0  0
 19 22  1  1  0  0  0
 19 11  1  0  0  0  0
 21 18  1  0  0  0  0
 22 23  1  1  0  0  0
 22 26  1  0  0  0  0
 26 25  2  0  0  0  0
 26 24  1  0  0  0  0
M  END
>  <MODEL>
4

>  <REMARK>
 VINA RESULT:      -5.2      4.928      7.982
  Name = 
  2 active torsions:
  status: ('A' for Active; 'I' for Inactive)
    1  A    between atoms: C_1  and  C_12
    2  A    between atoms: C_1  and  C_23
                            x       y       z     vdW  Elec       q    Type
                         _______ _______ _______ _____ _____    ______ ____

>  <TORSDO>
F 2

$$$$
=
 OpenBabel10222416113D

 26 29  0  0  1  0  0  0  0  0999 V2000
  182.9670  176.4410  137.2280 C   0  0  0  0  0  0  0  0  0  0  0  0
  180.6950  177.1760  137.6500 C   0  0  0  0  0  3  0  0  0  0  0  0
  184.3290  178.6390  139.1450 N   0  0  2  0  0  0  0  0  0  0  0  0
  185.1020  178.6230  140.3790 C   0  0  0  0  0  2  0  0  0  0  0  0
  181.9500  176.7900  138.1360 C   0  0  0  0  0  0  0  0  0  0  0  0
  182.1680  179.7510  139.5150 C   0  0  0  0  0  2  0  0  0  0  0  0
  181.9430  178.9080  140.7830 C   0  0  1  0  0  3  0  0  0  0  0  0
  181.4610  176.8820  135.4110 N   0  0  0  0  0  0  0  0  0  0  0  0
  180.4670  177.2120  136.2740 C   0  0  0  0  0  3  0  0  0  0  0  0
  182.6920  176.5090  135.8510 C   0  0  0  0  0  3  0  0  0  0  0  0
  184.2590  178.0650  141.5180 C   0  0  0  0  0  2  0  0  0  0  0  0
  184.9700  174.9870  136.9460 C   0  0  0  0  0  3  0  0  0  0  0  0
  185.2690  178.5940  138.0370 C   0  0  0  0  0  2  0  0  0  0  0  0
  182.2060  176.7740  139.5460 N   0  0  0  0  0  2  0  0  0  0  0  0
  185.3170  177.2160  137.4490 C   0  0  0  0  0  0  0  0  0  0  0  0
  181.3860  177.5020  140.5070 C   0  0  0  0  0  2  0  0  0  0  0  0
  184.3520  176.1040  137.7250 C   0  0  1  0  0  3  0  0  0  0  0  0
  186.0700  175.4080  136.3390 C   0  0  0  0  0  3  0  0  0  0  0  0
  183.0750  178.9790  141.8360 C   0  0  2  0  0  3  0  0  0  0  0  0
  183.6320  179.9150  139.0930 C   0  0  0  0  0  2  0  0  0  0  0  0
  186.2950  176.8120  136.6560 C   0  0  0  0  0  3  0  0  0  0  0  0
  182.5890  178.7520  143.2700 C   0  0  2  0  0  3  0  0  0  0  0  0
  181.3090  179.2760  143.4720 O   0  0  0  0  0  1  0  0  0  0  0  0
  184.5910  180.1320  143.8670 O   0  0  0  0  0  0  0  0  0  0  0  0
  183.4280  179.0030  145.4870 O   0  0  0  0  0  1  0  0  0  0  0  0
  183.5480  179.3090  144.2720 C   0  0  0  0  0  0  0  0  0  0  0  0
  1 17  1  0  0  0  0
  1  5  1  0  0  0  0
  2  5  2  0  0  0  0
  3 13  1  6  0  0  0
  3  4  1  0  0  0  0
  4 11  1  0  0  0  0
  5 14  1  0  0  0  0
  7  6  1  6  0  0  0
  7 19  1  0  0  0  0
  8 10  1  0  0  0  0
  8  9  2  0  0  0  0
  9  2  1  0  0  0  0
 10  1  2  0  0  0  0
 11 19  1  0  0  0  0
 14 16  1  0  0  0  0
 15 17  1  0  0  0  0
 15 13  1  0  0  0  0
 16  7  1  0  0  0  0
 17 12  1  6  0  0  0
 18 21  1  0  0  0  0
 18 12  2  0  0  0  0
 19 22  1  1  0  0  0
 20  3  1  0  0  0  0
 20  6  1  0  0  0  0
 21 15  2  0  0  0  0
 22 23  1  6  0  0  0
 22 26  1  0  0  0  0
 24 26  2  0  0  0  0
 26 25  1  0  0  0  0
M  END
>  <MODEL>
5

>  <REMARK>
 VINA RESULT:      -5.2      6.477      7.972
  Name = 
  2 active torsions:
  status: ('A' for Active; 'I' for Inactive)
    1  A    between atoms: C_1  and  C_12
    2  A    between atoms: C_1  and  C_23
                            x       y       z     vdW  Elec       q    Type
                         _______ _______ _______ _____ _____    ______ ____

>  <TORSDO>
F 2

$$$$
=
 OpenBabel10222416113D

 26 29  0  0  1  0  0  0  0  0999 V2000
  184.5160  173.3660  136.8280 C   0  0  0  0  0  0  0  0  0  0  0  0
  182.1460  173.8530  136.9870 C   0  0  0  0  0  3  0  0  0  0  0  0
  185.3850  176.4100  136.2420 N   0  0  2  0  0  0  0  0  0  0  0  0
  186.1670  177.4300  136.9260 C   0  0  0  0  0  2  0  0  0  0  0  0
  183.4660  174.1370  137.3590 C   0  0  0  0  0  0  0  0  0  0  0  0
  183.0370  177.1160  136.0730 C   0  0  0  0  0  2  0  0  0  0  0  0
  183.0350  177.4940  137.5660 C   0  0  1  0  0  3  0  0  0  0  0  0
  182.9130  172.0850  135.5830 N   0  0  0  0  0  0  0  0  0  0  0  0
  181.8870  172.8130  136.0940 C   0  0  0  0  0  3  0  0  0  0  0  0
  184.2050  172.3400  135.9190 C   0  0  0  0  0  3  0  0  0  0  0  0
  185.4960  177.8110  138.2400 C   0  0  0  0  0  2  0  0  0  0  0  0
  186.7900  172.4830  137.3330 C   0  0  0  0  0  3  0  0  0  0  0  0
  186.2870  175.6760  135.3710 C   0  0  0  0  0  2  0  0  0  0  0  0
  183.7480  175.2200  138.2550 N   0  0  0  0  0  2  0  0  0  0  0  0
  186.6350  174.3490  135.9780 C   0  0  0  0  0  0  0  0  0  0  0  0
  182.8050  176.3020  138.5090 C   0  0  0  0  0  2  0  0  0  0  0  0
  185.9520  173.7070  137.1470 C   0  0  1  0  0  3  0  0  0  0  0  0
  187.7540  172.4480  136.4230 C   0  0  0  0  0  3  0  0  0  0  0  0
  184.1420  178.4820  138.0010 C   0  0  2  0  0  3  0  0  0  0  0  0
  184.4160  177.1030  135.4060 C   0  0  0  0  0  2  0  0  0  0  0  0
  187.6610  173.6240  135.5690 C   0  0  0  0  0  3  0  0  0  0  0  0
  183.7510  179.3470  139.2020 C   0  0  2  0  0  3  0  0  0  0  0  0
  183.9720  180.7050  138.9550 O   0  0  0  0  0  1  0  0  0  0  0  0
  183.9520  177.8820  141.2220 O   0  0  0  0  0  1  0  0  0  0  0  0
  185.5000  179.5210  140.8110 O   0  0  0  0  0  0  0  0  0  0  0  0
  184.4580  178.9180  140.4460 C   0  0  0  0  0  0  0  0  0  0  0  0
  1 17  1  0  0  0  0
  1  5  1  0  0  0  0
  2  5  2  0  0  0  0
  3 13  1  6  0  0  0
  3  4  1  0  0  0  0
  4 11  1  0  0  0  0
  5 14  1  0  0  0  0
  7  6  1  6  0  0  0
  7 19  1  0  0  0  0
  7 16  1  0  0  0  0
  8 10  1  0  0  0  0
  8  9  2  0  0  0  0
  9  2  1  0  0  0  0
 10  1  2  0  0  0  0
 13 15  1  0  0  0  0
 14 16  1  0  0  0  0
 15 17  1  0  0  0  0
 17 12  1  6  0  0  0
 18 12  2  0  0  0  0
 19 11  1  0  0  0  0
 19 22  1  1  0  0  0
 20  6  1  0  0  0  0
 20  3  1  0  0  0  0
 21 15  2  0  0  0  0
 21 18  1  0  0  0  0
 22 23  1  6  0  0  0
 22 26  1  0  0  0  0
 26 25  2  0  0  0  0
 26 24  1  0  0  0  0
M  END
>  <MODEL>
6

>  <REMARK>
 VINA RESULT:      -5.2      7.076      8.823
  Name = 
  2 active torsions:
  status: ('A' for Active; 'I' for Inactive)
    1  A    between atoms: C_1  and  C_12
    2  A    between atoms: C_1  and  C_23
                            x       y       z     vdW  Elec       q    Type
                         _______ _______ _______ _____ _____    ______ ____

>  <TORSDO>
F 2

$$$$
=
 OpenBabel10222416113D

 26 29  0  0  1  0  0  0  0  0999 V2000
  186.7170  175.3410  137.1760 C   0  0  0  0  0  0  0  0  0  0  0  0
  187.4390  177.6300  137.5190 C   0  0  0  0  0  3  0  0  0  0  0  0
  189.3530  174.4610  135.5510 N   0  0  2  0  0  0  0  0  0  0  0  0
  190.4580  173.5360  135.7620 C   0  0  0  0  0  2  0  0  0  0  0  0
  187.7030  176.2560  137.5880 C   0  0  0  0  0  0  0  0  0  0  0  0
  190.1820  176.7750  135.5150 C   0  0  0  0  0  2  0  0  0  0  0  0
  190.9900  176.5130  136.7990 C   0  0  1  0  0  3  0  0  0  0  0  0
  185.2690  177.1790  136.6400 N   0  0  0  0  0  0  0  0  0  0  0  0
  186.2050  178.0750  137.0430 C   0  0  0  0  0  3  0  0  0  0  0  0
  185.4970  175.8400  136.6880 C   0  0  0  0  0  3  0  0  0  0  0  0
  191.2750  173.9640  136.9750 C   0  0  0  0  0  2  0  0  0  0  0  0
  185.8280  173.0520  137.5930 C   0  0  0  0  0  3  0  0  0  0  0  0
  188.3130  173.7460  134.8300 C   0  0  0  0  0  2  0  0  0  0  0  0
  188.9750  175.7860  138.0510 N   0  0  0  0  0  2  0  0  0  0  0  0
  187.2050  173.3560  135.7630 C   0  0  0  0  0  0  0  0  0  0  0  0
  190.1640  176.6310  138.0900 C   0  0  0  0  0  2  0  0  0  0  0  0
  187.0090  173.8600  137.1600 C   0  0  1  0  0  3  0  0  0  0  0  0
  185.4340  172.2550  136.6100 C   0  0  0  0  0  3  0  0  0  0  0  0
  191.9600  175.3100  136.7390 C   0  0  2  0  0  3  0  0  0  0  0  0
  189.8450  175.5270  134.6910 C   0  0  0  0  0  2  0  0  0  0  0  0
  186.3020  172.4410  135.4540 C   0  0  0  0  0  3  0  0  0  0  0  0
  193.1790  175.4610  137.6540 C   0  0  2  0  0  3  0  0  0  0  0  0
  193.7150  176.7510  137.5930 O   0  0  0  0  0  1  0  0  0  0  0  0
  194.6800  173.5800  138.3430 O   0  0  0  0  0  1  0  0  0  0  0  0
  194.7290  174.3870  136.1990 O   0  0  0  0  0  0  0  0  0  0  0  0
  194.2280  174.4420  137.3510 C   0  0  0  0  0  0  0  0  0  0  0  0
  1  5  1  0  0  0  0
  2  5  2  0  0  0  0
  3 20  1  6  0  0  0
  3  4  1  0  0  0  0
  4 11  1  0  0  0  0
  5 14  1  0  0  0  0
  7  6  1  6  0  0  0
  7 16  1  0  0  0  0
  8 10  1  0  0  0  0
  8  9  2  0  0  0  0
  9  2  1  0  0  0  0
 10  1  2  0  0  0  0
 13  3  1  0  0  0  0
 13 15  1  0  0  0  0
 14 16  1  0  0  0  0
 15 17  1  0  0  0  0
 17  1  1  0  0  0  0
 17 12  1  6  0  0  0
 18 12  2  0  0  0  0
 19  7  1  0  0  0  0
 19 11  1  0  0  0  0
 19 22  1  1  0  0  0
 20  6  1  0  0  0  0
 21 15  2  0  0  0  0
 21 18  1  0  0  0  0
 22 23  1  6  0  0  0
 25 26  2  0  0  0  0
 26 22  1  0  0  0  0
 26 24  1  0  0  0  0
M  END
>  <MODEL>
7

>  <REMARK>
 VINA RESULT:      -5.2      6.099      7.730
  Name = 
  2 active torsions:
  status: ('A' for Active; 'I' for Inactive)
    1  A    between atoms: C_1  and  C_12
    2  A    between atoms: C_1  and  C_23
                            x       y       z     vdW  Elec       q    Type
                         _______ _______ _______ _____ _____    ______ ____

>  <TORSDO>
F 2

$$$$
=
 OpenBabel10222416113D

 26 29  0  0  1  0  0  0  0  0999 V2000
  180.4600  176.9470  140.5410 C   0  0  0  0  0  0  0  0  0  0  0  0
  181.3550  178.9850  141.5020 C   0  0  0  0  0  3  0  0  0  0  0  0
  182.0280  177.2480  137.7450 N   0  0  2  0  0  0  0  0  0  0  0  0
  183.0680  176.5130  137.0390 C   0  0  0  0  0  2  0  0  0  0  0  0
  181.5630  177.7650  140.8460 C   0  0  0  0  0  0  0  0  0  0  0  0
  182.8470  179.4800  138.3710 C   0  0  0  0  0  2  0  0  0  0  0  0
  184.1390  178.8570  138.9310 C   0  0  1  0  0  3  0  0  0  0  0  0
  179.0060  178.5780  141.5340 N   0  0  0  0  0  0  0  0  0  0  0  0
  180.0600  179.3750  141.8440 C   0  0  0  0  0  3  0  0  0  0  0  0
  179.1740  177.3930  140.8910 C   0  0  0  0  0  3  0  0  0  0  0  0
  184.3640  176.5410  137.8390 C   0  0  0  0  0  2  0  0  0  0  0  0
  179.7630  174.5730  140.2550 C   0  0  0  0  0  3  0  0  0  0  0  0
  180.7450  176.7260  137.3070 C   0  0  0  0  0  2  0  0  0  0  0  0
  182.8860  177.3650  140.4660 N   0  0  0  0  0  2  0  0  0  0  0  0
  180.1670  175.8150  138.3480 C   0  0  0  0  0  0  0  0  0  0  0  0
  183.9960  178.3040  140.3580 C   0  0  0  0  0  2  0  0  0  0  0  0
  180.6500  175.6700  139.7590 C   0  0  1  0  0  3  0  0  0  0  0  0
  178.9310  174.1900  139.2960 C   0  0  0  0  0  3  0  0  0  0  0  0
  184.9230  177.9600  137.9450 C   0  0  2  0  0  3  0  0  0  0  0  0
  182.1200  178.6360  137.3180 C   0  0  0  0  0  2  0  0  0  0  0  0
  179.1850  174.9680  138.0910 C   0  0  0  0  0  3  0  0  0  0  0  0
  186.4300  177.9260  138.2180 C   0  0  2  0  0  3  0  0  0  0  0  0
  186.7610  178.6280  139.3800 O   0  0  0  0  0  1  0  0  0  0  0  0
  188.3800  179.1660  137.2550 O   0  0  0  0  0  1  0  0  0  0  0  0
  186.7970  178.2360  135.8840 O   0  0  0  0  0  0  0  0  0  0  0  0
  187.2140  178.4380  137.0540 C   0  0  0  0  0  0  0  0  0  0  0  0
  1  5  2  0  0  0  0
  1 10  1  0  0  0  0
  2  9  2  0  0  0  0
  3  4  1  6  0  0  0
  4 11  1  0  0  0  0
  5  2  1  0  0  0  0
  7  6  1  6  0  0  0
  7 16  1  0  0  0  0
  8  9  1  0  0  0  0
 10  8  2  0  0  0  0
 11 19  1  0  0  0  0
 13  3  1  0  0  0  0
 13 15  1  0  0  0  0
 14  5  1  0  0  0  0
 15 17  1  0  0  0  0
 16 14  1  0  0  0  0
 17 12  1  1  0  0  0
 17  1  1  0  0  0  0
 18 12  2  0  0  0  0
 19 22  1  1  0  0  0
 19  7  1  0  0  0  0
 20  3  1  0  0  0  0
 20  6  1  0  0  0  0
 21 15  2  0  0  0  0
 21 18  1  0  0  0  0
 22 23  1  1  0  0  0
 25 26  2  0  0  0  0
 26 24  1  0  0  0  0
 26 22  1  0  0  0  0
M  END
>  <MODEL>
8

>  <REMARK>
 VINA RESULT:      -5.0      6.940      9.827
  Name = 
  2 active torsions:
  status: ('A' for Active; 'I' for Inactive)
    1  A    between atoms: C_1  and  C_12
    2  A    between atoms: C_1  and  C_23
                            x       y       z     vdW  Elec       q    Type
                         _______ _______ _______ _____ _____    ______ ____

>  <TORSDO>
F 2

$$$$
=
 OpenBabel10222416113D

 26 29  0  0  1  0  0  0  0  0999 V2000
  183.4760  174.7830  136.3350 C   0  0  0  0  0  0  0  0  0  0  0  0
  182.9350  177.1390  136.1420 C   0  0  0  0  0  3  0  0  0  0  0  0
  186.5960  175.1570  135.6370 N   0  0  2  0  0  0  0  0  0  0  0  0
  187.8590  174.9760  136.3380 C   0  0  0  0  0  2  0  0  0  0  0  0
  183.7480  176.1240  136.6630 C   0  0  0  0  0  0  0  0  0  0  0  0
  186.2590  177.5340  135.1060 C   0  0  0  0  0  2  0  0  0  0  0  0
  186.6230  177.9160  136.5520 C   0  0  1  0  0  3  0  0  0  0  0  0
  181.6250  175.5120  134.9920 N   0  0  0  0  0  0  0  0  0  0  0  0
  181.8680  176.8100  135.3060 C   0  0  0  0  0  3  0  0  0  0  0  0
  182.3990  174.5050  135.4750 C   0  0  0  0  0  3  0  0  0  0  0  0
  187.9460  175.9350  137.5190 C   0  0  0  0  0  2  0  0  0  0  0  0
  183.6270  172.4520  137.2020 C   0  0  0  0  0  3  0  0  0  0  0  0
  186.2900  173.9130  134.9520 C   0  0  0  0  0  2  0  0  0  0  0  0
  184.8630  176.4490  137.5020 N   0  0  0  0  0  2  0  0  0  0  0  0
  185.2370  173.1500  135.6990 C   0  0  0  0  0  0  0  0  0  0  0  0
  185.4590  177.7800  137.5460 C   0  0  0  0  0  2  0  0  0  0  0  0
  184.3880  173.6790  136.8140 C   0  0  1  0  0  3  0  0  0  0  0  0
  183.9810  171.4330  136.4330 C   0  0  0  0  0  3  0  0  0  0  0  0
  187.9890  177.3900  137.0520 C   0  0  2  0  0  3  0  0  0  0  0  0
  186.8100  176.1850  134.6300 C   0  0  0  0  0  2  0  0  0  0  0  0
  185.0000  171.8670  135.4860 C   0  0  0  0  0  3  0  0  0  0  0  0
  188.6310  178.2790  138.1210 C   0  0  2  0  0  3  0  0  0  0  0  0
  188.9980  179.5260  137.6060 O   0  0  0  0  0  1  0  0  0  0  0  0
  189.8100  177.3600  140.1300 O   0  0  0  0  0  1  0  0  0  0  0  0
  190.8060  177.3060  138.0670 O   0  0  0  0  0  0  0  0  0  0  0  0
  189.8040  177.6120  138.7630 C   0  0  0  0  0  0  0  0  0  0  0  0
  1  5  1  0  0  0  0
  1 17  1  0  0  0  0
  2  5  2  0  0  0  0
  3 20  1  6  0  0  0
  3  4  1  0  0  0  0
  4 11  1  0  0  0  0
  5 14  1  0  0  0  0
  7  6  1  6  0  0  0
  7 19  1  0  0  0  0
  7 16  1  0  0  0  0
  8  9  2  0  0  0  0
  8 10  1  0  0  0  0
  9  2  1  0  0  0  0
 10  1  2  0  0  0  0
 13  3  1  0  0  0  0
 13 15  1  0  0  0  0
 14 16  1  0  0  0  0
 15 17  1  0  0  0  0
 17 12  1  6  0  0  0
 18 12  2  0  0  0  0
 19 11  1  0  0  0  0
 19 22  1  1  0  0  0
 20  6  1  0  0  0  0
 21 15  2  0  0  0  0
 21 18  1  0  0  0  0
 22 23  1  6  0  0  0
 22 26  1  0  0  0  0
 25 26  2  0  0  0  0
 26 24  1  0  0  0  0
M  END
>  <MODEL>
9

>  <REMARK>
 VINA RESULT:      -5.0      6.189      8.531
  Name = 
  2 active torsions:
  status: ('A' for Active; 'I' for Inactive)
    1  A    between atoms: C_1  and  C_12
    2  A    between atoms: C_1  and  C_23
                            x       y       z     vdW  Elec       q    Type
                         _______ _______ _______ _____ _____    ______ ____

>  <TORSDO>
F 2

$$$$
