=
 OpenBabel10222416383D

 30 33  0  0  1  0  0  0  0  0999 V2000
  189.4150  177.9880  148.4700 N   0  0  0  0  0  0  0  0  0  0  0  0
  185.7050  178.8670  146.1760 C   0  0  0  0  0  3  0  0  0  0  0  0
  186.8680  178.1070  146.1140 C   0  0  0  0  0  0  0  0  0  0  0  0
  191.1990  176.7910  147.1740 C   0  0  0  0  0  1  0  0  0  0  0  0
  189.7900  177.1870  147.4460 C   0  0  2  0  0  3  0  0  0  0  0  0
  188.7580  176.9490  146.6230 N   0  0  0  0  0  0  0  0  0  0  0  0
  186.7250  177.8660  143.7110 C   0  0  0  0  0  0  0  0  0  0  0  0
  187.7700  177.6630  147.1480 C   0  0  0  0  0  0  0  0  0  0  0  0
  185.5580  178.6870  143.7330 C   0  0  0  0  0  0  0  0  0  0  0  0
  188.1430  178.3200  148.2640 N   0  0  0  0  0  0  0  0  0  0  0  0
  187.3820  177.6310  144.9220 C   0  0  0  0  0  0  0  0  0  0  0  0
  188.6620  176.8690  145.1670 C   0  0  0  0  0  3  0  0  0  0  0  0
  185.0530  179.1520  144.9670 C   0  0  0  0  0  3  0  0  0  0  0  0
  187.2260  177.2670  142.5480 O   0  0  0  0  0  0  0  0  0  0  0  0
  187.7680  178.4650  140.5050 C   0  0  0  0  0  2  0  0  0  0  0  0
  189.3300  176.7260  141.5140 C   0  0  0  0  0  2  0  0  0  0  0  0
  190.3940  177.2360  140.5370 C   0  0  0  0  0  2  0  0  0  0  0  0
  188.3000  177.8170  141.7920 C   0  0  2  0  0  3  0  0  0  0  0  0
  189.8420  177.8660  139.3140 N   0  0  0  0  0  0  0  0  0  0  0  0
  188.3740  177.8370  139.2490 C   0  0  0  0  0  2  0  0  0  0  0  0
  190.3600  177.2020  138.1100 C   0  0  2  0  0  3  0  0  0  0  0  0
  189.3180  176.7070  137.3070 O   0  0  0  0  0  0  0  0  0  0  0  0
  189.6310  177.1180  136.0050 C   0  0  0  0  0  1  0  0  0  0  0  0
  191.3210  176.0800  138.4970 C   0  0  0  0  0  2  0  0  0  0  0  0
  192.6730  176.2900  137.8370 C   0  0  0  0  0  2  0  0  0  0  0  0
  193.4990  177.0250  138.6890 O   0  0  0  0  0  1  0  0  0  0  0  0
  184.8950  179.0900  142.5710 O   0  0  0  0  0  0  0  0  0  0  0  0
  184.2000  178.1720  141.7380 C   0  0  0  0  0  2  0  0  0  0  0  0
  183.7310  178.8750  140.4780 C   0  0  0  0  0  2  0  0  0  0  0  0
  184.7620  179.6620  139.9660 O   0  0  0  0  0  1  0  0  0  0  0  0
  3  2  1  0  0  0  0
  3  8  2  0  0  0  0
  5  4  1  6  0  0  0
  5  1  1  0  0  0  0
  6  8  1  0  0  0  0
  6  5  1  0  0  0  0
  7  9  2  0  0  0  0
  7 11  1  0  0  0  0
  8 10  1  0  0  0  0
  9 13  1  0  0  0  0
 10  1  2  0  0  0  0
 11 12  2  0  0  0  0
 11  3  1  0  0  0  0
 12  6  1  0  0  0  0
 13  2  2  0  0  0  0
 14  7  1  0  0  0  0
 15 18  1  0  0  0  0
 16 18  1  0  0  0  0
 17 16  1  0  0  0  0
 18 14  1  6  0  0  0
 19 17  1  0  0  0  0
 20 19  1  0  0  0  0
 20 15  1  0  0  0  0
 21 24  1  1  0  0  0
 21 19  1  0  0  0  0
 22 21  1  0  0  0  0
 23 22  1  0  0  0  0
 25 24  1  0  0  0  0
 25 26  1  0  0  0  0
 27  9  1  0  0  0  0
 28 27  1  0  0  0  0
 29 28  1  0  0  0  0
 30 29  1  0  0  0  0
M  END
>  <MODEL>
1

>  <REMARK>
 VINA RESULT:      -8.4      0.000      0.000
  Name = 
  9 active torsions:
  status: ('A' for Active; 'I' for Inactive)
    1  A    between atoms: C_1  and  C_6
    2  A    between atoms: C_1  and  O_9
    3  A    between atoms: C_1  and  N_19
    4  A    between atoms: C_5  and  C_6
    5  A    between atoms: C_7  and  C_29
    6  A    between atoms: O_16  and  C_17
    7  A    between atoms: O_16  and  C_20
    8  A    between atoms: C_23  and  O_27
    9  A    between atoms: O_27  and  C_29
                            x       y       z     vdW  Elec       q    Type
                         _______ _______ _______ _____ _____    ______ ____

>  <TORSDO>
F 9

$$$$
=
 OpenBabel10222416383D

 30 33  0  0  1  0  0  0  0  0999 V2000
  189.0630  178.1430  148.5900 N   0  0  0  0  0  0  0  0  0  0  0  0
  185.5130  178.9590  146.0360 C   0  0  0  0  0  3  0  0  0  0  0  0
  186.6710  178.1920  146.0740 C   0  0  0  0  0  0  0  0  0  0  0  0
  190.9170  176.8940  147.4520 C   0  0  0  0  0  1  0  0  0  0  0  0
  189.4960  177.3060  147.6200 C   0  0  2  0  0  3  0  0  0  0  0  0
  188.5180  177.0440  146.7410 N   0  0  0  0  0  0  0  0  0  0  0  0
  186.6810  177.8700  143.6760 C   0  0  0  0  0  0  0  0  0  0  0  0
  187.5030  177.7800  147.1780 C   0  0  0  0  0  0  0  0  0  0  0  0
  185.5200  178.6960  143.5960 C   0  0  0  0  0  0  0  0  0  0  0  0
  187.8090  178.4730  148.2920 N   0  0  0  0  0  0  0  0  0  0  0  0
  187.2570  177.6730  144.9340 C   0  0  0  0  0  0  0  0  0  0  0  0
  188.5150  176.9140  145.2860 C   0  0  0  0  0  3  0  0  0  0  0  0
  184.9400  179.2060  144.7780 C   0  0  0  0  0  3  0  0  0  0  0  0
  187.2510  177.2300  142.5690 O   0  0  0  0  0  0  0  0  0  0  0  0
  188.0510  178.2710  140.5250 C   0  0  0  0  0  2  0  0  0  0  0  0
  189.4490  176.5900  141.8290 C   0  0  0  0  0  2  0  0  0  0  0  0
  190.6300  177.0160  140.9510 C   0  0  0  0  0  2  0  0  0  0  0  0
  188.4160  177.7100  141.9080 C   0  0  2  0  0  3  0  0  0  0  0  0
  190.2370  177.5630  139.6310 N   0  0  0  0  0  0  0  0  0  0  0  0
  188.7860  177.5490  139.3960 C   0  0  0  0  0  2  0  0  0  0  0  0
  190.8780  176.8090  138.5460 C   0  0  2  0  0  3  0  0  0  0  0  0
  192.2470  177.1130  138.4470 O   0  0  0  0  0  0  0  0  0  0  0  0
  192.8730  175.8970  138.1470 C   0  0  0  0  0  1  0  0  0  0  0  0
  190.1690  177.0820  137.2210 C   0  0  0  0  0  2  0  0  0  0  0  0
  189.9800  175.7890  136.4460 C   0  0  0  0  0  2  0  0  0  0  0  0
  189.4920  174.8000  137.3020 O   0  0  0  0  0  1  0  0  0  0  0  0
  184.9350  179.0630  142.3810 O   0  0  0  0  0  0  0  0  0  0  0  0
  184.0730  178.1900  141.6620 C   0  0  0  0  0  2  0  0  0  0  0  0
  184.0360  178.5950  140.2010 C   0  0  0  0  0  2  0  0  0  0  0  0
  184.8390  179.7170  140.0010 O   0  0  0  0  0  1  0  0  0  0  0  0
  2  3  1  0  0  0  0
  3  8  2  0  0  0  0
  5  4  1  6  0  0  0
  5  1  1  0  0  0  0
  6  8  1  0  0  0  0
  6  5  1  0  0  0  0
  7 11  1  0  0  0  0
  8 10  1  0  0  0  0
  9  7  2  0  0  0  0
  9 13  1  0  0  0  0
 10  1  2  0  0  0  0
 11 12  2  0  0  0  0
 11  3  1  0  0  0  0
 12  6  1  0  0  0  0
 13  2  2  0  0  0  0
 14  7  1  0  0  0  0
 15 18  1  0  0  0  0
 16 18  1  0  0  0  0
 17 16  1  0  0  0  0
 18 14  1  6  0  0  0
 19 17  1  0  0  0  0
 20 19  1  0  0  0  0
 20 15  1  0  0  0  0
 21 24  1  6  0  0  0
 21 19  1  0  0  0  0
 22 21  1  0  0  0  0
 23 22  1  0  0  0  0
 25 24  1  0  0  0  0
 25 26  1  0  0  0  0
 27  9  1  0  0  0  0
 28 27  1  0  0  0  0
 29 28  1  0  0  0  0
 30 29  1  0  0  0  0
M  END
>  <MODEL>
2

>  <REMARK>
 VINA RESULT:      -8.0      0.623      1.484
  Name = 
  9 active torsions:
  status: ('A' for Active; 'I' for Inactive)
    1  A    between atoms: C_1  and  C_6
    2  A    between atoms: C_1  and  O_9
    3  A    between atoms: C_1  and  N_19
    4  A    between atoms: C_5  and  C_6
    5  A    between atoms: C_7  and  C_29
    6  A    between atoms: O_16  and  C_17
    7  A    between atoms: O_16  and  C_20
    8  A    between atoms: C_23  and  O_27
    9  A    between atoms: O_27  and  C_29
                            x       y       z     vdW  Elec       q    Type
                         _______ _______ _______ _____ _____    ______ ____

>  <TORSDO>
F 9

$$$$
=
 OpenBabel10222416383D

 30 33  0  0  1  0  0  0  0  0999 V2000
  189.4370  177.9770  148.5690 N   0  0  0  0  0  0  0  0  0  0  0  0
  185.6830  178.8250  146.3360 C   0  0  0  0  0  3  0  0  0  0  0  0
  186.8600  178.0900  146.2460 C   0  0  0  0  0  0  0  0  0  0  0  0
  191.2290  176.8430  147.2290 C   0  0  0  0  0  1  0  0  0  0  0  0
  189.8160  177.2050  147.5250 C   0  0  2  0  0  3  0  0  0  0  0  0
  188.7800  176.9620  146.7090 N   0  0  0  0  0  0  0  0  0  0  0  0
  186.6940  177.8940  143.8400 C   0  0  0  0  0  0  0  0  0  0  0  0
  187.7830  177.6450  147.2600 C   0  0  0  0  0  0  0  0  0  0  0  0
  185.5110  178.6900  143.8920 C   0  0  0  0  0  0  0  0  0  0  0  0
  188.1570  178.2870  148.3840 N   0  0  0  0  0  0  0  0  0  0  0  0
  187.3700  177.6490  145.0380 C   0  0  0  0  0  0  0  0  0  0  0  0
  188.6690  176.9090  145.2540 C   0  0  0  0  0  3  0  0  0  0  0  0
  185.0110  179.1200  145.1400 C   0  0  0  0  0  3  0  0  0  0  0  0
  187.1940  177.3290  142.6590 O   0  0  0  0  0  0  0  0  0  0  0  0
  187.3620  178.5250  140.5520 C   0  0  0  0  0  2  0  0  0  0  0  0
  189.2550  177.0760  141.4430 C   0  0  0  0  0  2  0  0  0  0  0  0
  190.1370  177.7070  140.3620 C   0  0  0  0  0  2  0  0  0  0  0  0
  188.0990  178.0080  141.7960 C   0  0  2  0  0  3  0  0  0  0  0  0
  189.3870  178.2050  139.1840 N   0  0  0  0  0  0  0  0  0  0  0  0
  187.9410  177.9540  139.2570 C   0  0  0  0  0  2  0  0  0  0  0  0
  189.8910  177.5860  137.9500 C   0  0  2  0  0  3  0  0  0  0  0  0
  189.4340  178.2690  136.8090 O   0  0  0  0  0  0  0  0  0  0  0  0
  189.2550  177.2780  135.8360 C   0  0  0  0  0  1  0  0  0  0  0  0
  189.4900  176.1140  137.8940 C   0  0  0  0  0  2  0  0  0  0  0  0
  190.7160  175.2270  138.0270 C   0  0  0  0  0  2  0  0  0  0  0  0
  190.4170  173.9450  137.5610 O   0  0  0  0  0  1  0  0  0  0  0  0
  184.8270  179.1030  142.7460 O   0  0  0  0  0  0  0  0  0  0  0  0
  183.8230  178.3030  142.1340 C   0  0  0  0  0  2  0  0  0  0  0  0
  183.7590  178.6070  140.6490 C   0  0  0  0  0  2  0  0  0  0  0  0
  182.4670  179.0010  140.3030 O   0  0  0  0  0  1  0  0  0  0  0  0
  3  2  1  0  0  0  0
  3  8  2  0  0  0  0
  5  4  1  6  0  0  0
  5  1  1  0  0  0  0
  6  8  1  0  0  0  0
  6  5  1  0  0  0  0
  7  9  2  0  0  0  0
  7 11  1  0  0  0  0
  8 10  1  0  0  0  0
  9 13  1  0  0  0  0
 10  1  2  0  0  0  0
 11 12  2  0  0  0  0
 11  3  1  0  0  0  0
 12  6  1  0  0  0  0
 13  2  2  0  0  0  0
 14  7  1  0  0  0  0
 15 18  1  0  0  0  0
 16 18  1  0  0  0  0
 17 16  1  0  0  0  0
 18 14  1  1  0  0  0
 19 20  1  0  0  0  0
 19 17  1  0  0  0  0
 20 15  1  0  0  0  0
 21 24  1  6  0  0  0
 21 19  1  0  0  0  0
 22 21  1  0  0  0  0
 23 22  1  0  0  0  0
 24 25  1  0  0  0  0
 26 25  1  0  0  0  0
 27  9  1  0  0  0  0
 28 27  1  0  0  0  0
 29 28  1  0  0  0  0
 30 29  1  0  0  0  0
M  END
>  <MODEL>
3

>  <REMARK>
 VINA RESULT:      -7.8      1.119      1.155
  Name = 
  9 active torsions:
  status: ('A' for Active; 'I' for Inactive)
    1  A    between atoms: C_1  and  C_6
    2  A    between atoms: C_1  and  O_9
    3  A    between atoms: C_1  and  N_19
    4  A    between atoms: C_5  and  C_6
    5  A    between atoms: C_7  and  C_29
    6  A    between atoms: O_16  and  C_17
    7  A    between atoms: O_16  and  C_20
    8  A    between atoms: C_23  and  O_27
    9  A    between atoms: O_27  and  C_29
                            x       y       z     vdW  Elec       q    Type
                         _______ _______ _______ _____ _____    ______ ____

>  <TORSDO>
F 9

$$$$
=
 OpenBabel10222416383D

 30 33  0  0  1  0  0  0  0  0999 V2000
  181.9410  179.1030  143.5940 N   0  0  0  0  0  0  0  0  0  0  0  0
  185.6520  178.8890  146.0390 C   0  0  0  0  0  3  0  0  0  0  0  0
  185.2010  178.7460  144.7320 C   0  0  0  0  0  0  0  0  0  0  0  0
  182.1380  178.1300  141.2900 C   0  0  0  0  0  1  0  0  0  0  0  0
  182.6920  178.7450  142.5270 C   0  0  2  0  0  3  0  0  0  0  0  0
  183.9990  178.8550  142.8040 N   0  0  0  0  0  0  0  0  0  0  0  0
  187.1180  177.4160  144.0900 C   0  0  0  0  0  0  0  0  0  0  0  0
  184.0170  179.2400  144.0750 C   0  0  0  0  0  0  0  0  0  0  0  0
  187.5830  177.5010  145.4360 C   0  0  0  0  0  0  0  0  0  0  0  0
  182.7790  179.3830  144.5880 N   0  0  0  0  0  0  0  0  0  0  0  0
  185.8950  178.0180  143.7820 C   0  0  0  0  0  0  0  0  0  0  0  0
  185.1470  178.0160  142.4700 C   0  0  0  0  0  3  0  0  0  0  0  0
  186.8570  178.2570  146.3820 C   0  0  0  0  0  3  0  0  0  0  0  0
  187.8350  176.7870  143.0640 O   0  0  0  0  0  0  0  0  0  0  0  0
  188.4140  177.9240  140.9970 C   0  0  0  0  0  2  0  0  0  0  0  0
  190.0690  176.4430  142.2400 C   0  0  0  0  0  2  0  0  0  0  0  0
  191.1500  177.0210  141.3210 C   0  0  0  0  0  2  0  0  0  0  0  0
  188.9010  177.4170  142.3620 C   0  0  2  0  0  3  0  0  0  0  0  0
  190.6390  177.5100  140.0180 N   0  0  0  0  0  0  0  0  0  0  0  0
  189.1950  177.3040  139.8380 C   0  0  0  0  0  2  0  0  0  0  0  0
  191.3330  176.8460  138.9070 C   0  0  2  0  0  3  0  0  0  0  0  0
  190.8780  175.5270  138.7310 O   0  0  0  0  0  0  0  0  0  0  0  0
  190.3680  175.4860  137.4280 C   0  0  0  0  0  1  0  0  0  0  0  0
  192.8420  176.8690  139.1370 C   0  0  0  0  0  2  0  0  0  0  0  0
  193.5450  175.9800  138.1260 C   0  0  0  0  0  2  0  0  0  0  0  0
  193.9640  176.7500  137.0400 O   0  0  0  0  0  1  0  0  0  0  0  0
  188.7260  176.8330  145.8850 O   0  0  0  0  0  0  0  0  0  0  0  0
  189.8680  177.5270  146.3690 C   0  0  0  0  0  2  0  0  0  0  0  0
  190.6780  176.6160  147.2720 C   0  0  0  0  0  2  0  0  0  0  0  0
  192.0340  176.7310  146.9650 O   0  0  0  0  0  1  0  0  0  0  0  0
  1 10  2  0  0  0  0
  2 13  2  0  0  0  0
  3  2  1  0  0  0  0
  5  4  1  1  0  0  0
  5  6  1  0  0  0  0
  5  1  1  0  0  0  0
  6  8  1  0  0  0  0
  7  9  2  0  0  0  0
  8 10  1  0  0  0  0
  8  3  2  0  0  0  0
  9 27  1  0  0  0  0
  9 13  1  0  0  0  0
 11  7  1  0  0  0  0
 11  3  1  0  0  0  0
 12  6  1  0  0  0  0
 12 11  2  0  0  0  0
 14  7  1  0  0  0  0
 15 18  1  0  0  0  0
 16 18  1  0  0  0  0
 17 16  1  0  0  0  0
 18 14  1  6  0  0  0
 19 17  1  0  0  0  0
 20 19  1  0  0  0  0
 20 15  1  0  0  0  0
 21 24  1  1  0  0  0
 21 19  1  0  0  0  0
 22 21  1  0  0  0  0
 23 22  1  0  0  0  0
 25 24  1  0  0  0  0
 26 25  1  0  0  0  0
 27 28  1  0  0  0  0
 28 29  1  0  0  0  0
 30 29  1  0  0  0  0
M  END
>  <MODEL>
4

>  <REMARK>
 VINA RESULT:      -7.8      2.811      5.012
  Name = 
  9 active torsions:
  status: ('A' for Active; 'I' for Inactive)
    1  A    between atoms: C_1  and  C_6
    2  A    between atoms: C_1  and  O_9
    3  A    between atoms: C_1  and  N_19
    4  A    between atoms: C_5  and  C_6
    5  A    between atoms: C_7  and  C_29
    6  A    between atoms: O_16  and  C_17
    7  A    between atoms: O_16  and  C_20
    8  A    between atoms: C_23  and  O_27
    9  A    between atoms: O_27  and  C_29
                            x       y       z     vdW  Elec       q    Type
                         _______ _______ _______ _____ _____    ______ ____

>  <TORSDO>
F 9

$$$$
=
 OpenBabel10222416383D

 30 33  0  0  1  0  0  0  0  0999 V2000
  187.1790  177.8310  147.3750 N   0  0  0  0  0  0  0  0  0  0  0  0
  184.8020  178.2820  143.6410 C   0  0  0  0  0  3  0  0  0  0  0  0
  186.0770  177.9500  144.0860 C   0  0  0  0  0  0  0  0  0  0  0  0
  189.6590  177.6750  147.0350 C   0  0  0  0  0  1  0  0  0  0  0  0
  188.2440  177.5400  146.5940 C   0  0  2  0  0  3  0  0  0  0  0  0
  187.8590  177.2890  145.3340 N   0  0  0  0  0  0  0  0  0  0  0  0
  187.0840  178.4540  141.9440 C   0  0  0  0  0  0  0  0  0  0  0  0
  186.5450  177.4820  145.3660 C   0  0  0  0  0  0  0  0  0  0  0  0
  185.7980  178.8510  141.4720 C   0  0  0  0  0  0  0  0  0  0  0  0
  186.1040  177.8290  146.5910 N   0  0  0  0  0  0  0  0  0  0  0  0
  187.1940  178.0470  143.2760 C   0  0  0  0  0  0  0  0  0  0  0  0
  188.4340  177.6500  144.0410 C   0  0  0  0  0  3  0  0  0  0  0  0
  184.6740  178.7340  142.3190 C   0  0  0  0  0  3  0  0  0  0  0  0
  188.2280  178.4270  141.1370 O   0  0  0  0  0  0  0  0  0  0  0  0
  190.0440  176.8400  140.8420 C   0  0  0  0  0  2  0  0  0  0  0  0
  188.5530  177.5690  138.9120 C   0  0  0  0  0  2  0  0  0  0  0  0
  189.1730  176.4220  138.1080 C   0  0  0  0  0  2  0  0  0  0  0  0
  188.6360  177.2750  140.4070 C   0  0  2  0  0  3  0  0  0  0  0  0
  190.5260  176.0240  138.5670 N   0  0  0  0  0  0  0  0  0  0  0  0
  191.0350  176.8390  139.6780 C   0  0  0  0  0  2  0  0  0  0  0  0
  191.4920  176.1090  137.4640 C   0  0  2  0  0  3  0  0  0  0  0  0
  190.8490  176.0910  136.2140 O   0  0  0  0  0  0  0  0  0  0  0  0
  190.9170  174.7600  135.7850 C   0  0  0  0  0  1  0  0  0  0  0  0
  192.5090  174.9740  137.5630 C   0  0  0  0  0  2  0  0  0  0  0  0
  193.9180  175.5330  137.6540 C   0  0  0  0  0  2  0  0  0  0  0  0
  193.9830  176.7490  136.9720 O   0  0  0  0  0  1  0  0  0  0  0  0
  185.5930  179.3930  140.2010 O   0  0  0  0  0  0  0  0  0  0  0  0
  184.8150  178.7310  139.2110 C   0  0  0  0  0  2  0  0  0  0  0  0
  183.4810  179.4370  139.0510 C   0  0  0  0  0  2  0  0  0  0  0  0
  183.6920  180.7760  138.7270 O   0  0  0  0  0  1  0  0  0  0  0  0
  2  3  1  0  0  0  0
  3  8  2  0  0  0  0
  5  4  1  6  0  0  0
  5  1  1  0  0  0  0
  6  8  1  0  0  0  0
  6  5  1  0  0  0  0
  7 11  1  0  0  0  0
  8 10  1  0  0  0  0
  9  7  2  0  0  0  0
  9 13  1  0  0  0  0
 10  1  2  0  0  0  0
 11 12  2  0  0  0  0
 11  3  1  0  0  0  0
 12  6  1  0  0  0  0
 13  2  2  0  0  0  0
 14  7  1  0  0  0  0
 16 18  1  0  0  0  0
 17 19  1  0  0  0  0
 17 16  1  0  0  0  0
 18 15  1  0  0  0  0
 18 14  1  1  0  0  0
 19 20  1  0  0  0  0
 20 15  1  0  0  0  0
 21 24  1  6  0  0  0
 21 19  1  0  0  0  0
 22 21  1  0  0  0  0
 23 22  1  0  0  0  0
 24 25  1  0  0  0  0
 26 25  1  0  0  0  0
 27  9  1  0  0  0  0
 28 27  1  0  0  0  0
 29 28  1  0  0  0  0
 30 29  1  0  0  0  0
M  END
>  <MODEL>
5

>  <REMARK>
 VINA RESULT:      -7.4      1.501      2.210
  Name = 
  9 active torsions:
  status: ('A' for Active; 'I' for Inactive)
    1  A    between atoms: C_1  and  C_6
    2  A    between atoms: C_1  and  O_9
    3  A    between atoms: C_1  and  N_19
    4  A    between atoms: C_5  and  C_6
    5  A    between atoms: C_7  and  C_29
    6  A    between atoms: O_16  and  C_17
    7  A    between atoms: O_16  and  C_20
    8  A    between atoms: C_23  and  O_27
    9  A    between atoms: O_27  and  C_29
                            x       y       z     vdW  Elec       q    Type
                         _______ _______ _______ _____ _____    ______ ____

>  <TORSDO>
F 9

$$$$
=
 OpenBabel10222416383D

 30 33  0  0  1  0  0  0  0  0999 V2000
  188.4110  175.7440  136.3160 N   0  0  0  0  0  0  0  0  0  0  0  0
  185.5500  178.2550  138.6190 C   0  0  0  0  0  3  0  0  0  0  0  0
  186.9030  177.9450  138.5360 C   0  0  0  0  0  0  0  0  0  0  0  0
  190.6880  175.5220  137.3460 C   0  0  0  0  0  1  0  0  0  0  0  0
  189.3870  176.2120  137.1280 C   0  0  2  0  0  3  0  0  0  0  0  0
  188.9570  177.2700  137.8310 N   0  0  0  0  0  0  0  0  0  0  0  0
  187.3320  178.6760  140.8030 C   0  0  0  0  0  0  0  0  0  0  0  0
  187.6890  177.3960  137.4590 C   0  0  0  0  0  0  0  0  0  0  0  0
  185.9390  178.9560  140.9380 C   0  0  0  0  0  0  0  0  0  0  0  0
  187.3220  176.4710  136.5500 N   0  0  0  0  0  0  0  0  0  0  0  0
  187.7740  178.1280  139.5950 C   0  0  0  0  0  0  0  0  0  0  0  0
  189.1640  177.6750  139.2190 C   0  0  0  0  0  3  0  0  0  0  0  0
  185.0760  178.7660  139.8370 C   0  0  0  0  0  3  0  0  0  0  0  0
  188.2740  178.9450  141.8030 O   0  0  0  0  0  0  0  0  0  0  0  0
  187.8320  177.1190  143.3430 C   0  0  0  0  0  2  0  0  0  0  0  0
  189.9240  178.5590  143.5120 C   0  0  0  0  0  2  0  0  0  0  0  0
  190.4620  177.5180  144.4980 C   0  0  0  0  0  2  0  0  0  0  0  0
  188.8940  177.9260  142.5810 C   0  0  2  0  0  3  0  0  0  0  0  0
  189.4060  176.7510  145.2040 N   0  0  0  0  0  0  0  0  0  0  0  0
  188.0420  177.1710  144.8570 C   0  0  0  0  0  2  0  0  0  0  0  0
  189.5620  176.8760  146.6590 C   0  0  2  0  0  3  0  0  0  0  0  0
  188.7480  177.8990  147.1780 O   0  0  0  0  0  0  0  0  0  0  0  0
  189.1750  178.0730  148.4990 C   0  0  0  0  0  1  0  0  0  0  0  0
  191.0260  177.1190  147.0160 C   0  0  0  0  0  2  0  0  0  0  0  0
  191.7160  175.8060  147.3410 C   0  0  0  0  0  2  0  0  0  0  0  0
  192.8050  176.0470  148.1820 O   0  0  0  0  0  1  0  0  0  0  0  0
  185.3680  179.3860  142.1390 O   0  0  0  0  0  0  0  0  0  0  0  0
  184.1860  178.7980  142.6680 C   0  0  0  0  0  2  0  0  0  0  0  0
  183.9830  179.2560  144.1000 C   0  0  0  0  0  2  0  0  0  0  0  0
  185.0880  178.8980  144.8710 O   0  0  0  0  0  1  0  0  0  0  0  0
  1 10  2  0  0  0  0
  1  5  1  0  0  0  0
  2 13  2  0  0  0  0
  3  2  1  0  0  0  0
  3 11  1  0  0  0  0
  5  4  1  1  0  0  0
  5  6  1  0  0  0  0
  6 12  1  0  0  0  0
  7  9  2  0  0  0  0
  7 14  1  0  0  0  0
  8  6  1  0  0  0  0
  8  3  2  0  0  0  0
  9 27  1  0  0  0  0
 10  8  1  0  0  0  0
 11  7  1  0  0  0  0
 12 11  2  0  0  0  0
 13  9  1  0  0  0  0
 15 20  1  0  0  0  0
 16 17  1  0  0  0  0
 17 19  1  0  0  0  0
 18 14  1  1  0  0  0
 18 15  1  0  0  0  0
 18 16  1  0  0  0  0
 19 21  1  0  0  0  0
 20 19  1  0  0  0  0
 21 24  1  6  0  0  0
 21 22  1  0  0  0  0
 22 23  1  0  0  0  0
 24 25  1  0  0  0  0
 25 26  1  0  0  0  0
 27 28  1  0  0  0  0
 28 29  1  0  0  0  0
 29 30  1  0  0  0  0
M  END
>  <MODEL>
6

>  <REMARK>
 VINA RESULT:      -7.1      2.469      7.372
  Name = 
  9 active torsions:
  status: ('A' for Active; 'I' for Inactive)
    1  A    between atoms: C_1  and  C_6
    2  A    between atoms: C_1  and  O_9
    3  A    between atoms: C_1  and  N_19
    4  A    between atoms: C_5  and  C_6
    5  A    between atoms: C_7  and  C_29
    6  A    between atoms: O_16  and  C_17
    7  A    between atoms: O_16  and  C_20
    8  A    between atoms: C_23  and  O_27
    9  A    between atoms: O_27  and  C_29
                            x       y       z     vdW  Elec       q    Type
                         _______ _______ _______ _____ _____    ______ ____

>  <TORSDO>
F 9

$$$$
=
 OpenBabel10222416383D

 30 33  0  0  1  0  0  0  0  0999 V2000
  179.4000  179.4350  140.9410 N   0  0  0  0  0  0  0  0  0  0  0  0
  183.1270  178.1130  138.9010 C   0  0  0  0  0  3  0  0  0  0  0  0
  182.6190  178.3910  140.1650 C   0  0  0  0  0  0  0  0  0  0  0  0
  179.7000  180.1470  143.3280 C   0  0  0  0  0  1  0  0  0  0  0  0
  180.0920  179.3970  142.1040 C   0  0  2  0  0  3  0  0  0  0  0  0
  181.2520  178.7440  141.9490 N   0  0  0  0  0  0  0  0  0  0  0  0
  184.8210  178.7400  141.1040 C   0  0  0  0  0  0  0  0  0  0  0  0
  181.2650  178.4330  140.6580 C   0  0  0  0  0  0  0  0  0  0  0  0
  185.3720  178.5110  139.8080 C   0  0  0  0  0  0  0  0  0  0  0  0
  180.1580  178.8550  140.0150 N   0  0  0  0  0  0  0  0  0  0  0  0
  183.4310  178.7140  141.2370 C   0  0  0  0  0  0  0  0  0  0  0  0
  182.5960  178.9940  142.4650 C   0  0  0  0  0  3  0  0  0  0  0  0
  184.5190  178.1750  138.7340 C   0  0  0  0  0  3  0  0  0  0  0  0
  185.6010  178.9630  142.2460 O   0  0  0  0  0  0  0  0  0  0  0  0
  185.6560  178.1650  144.5390 C   0  0  0  0  0  2  0  0  0  0  0  0
  187.5830  177.7760  142.9210 C   0  0  0  0  0  2  0  0  0  0  0  0
  188.1420  176.7910  143.9530 C   0  0  0  0  0  2  0  0  0  0  0  0
  186.0710  177.9110  143.0820 C   0  0  2  0  0  3  0  0  0  0  0  0
  187.7080  177.0610  145.3450 N   0  0  0  0  0  0  0  0  0  0  0  0
  186.8610  178.2540  145.4760 C   0  0  0  0  0  2  0  0  0  0  0  0
  188.8720  177.2330  146.2250 C   0  0  2  0  0  3  0  0  0  0  0  0
  188.6330  178.2080  147.2090 O   0  0  0  0  0  0  0  0  0  0  0  0
  188.4150  177.4910  148.3910 C   0  0  0  0  0  1  0  0  0  0  0  0
  190.1090  177.5890  145.4030 C   0  0  0  0  0  2  0  0  0  0  0  0
  191.2950  176.7490  145.8420 C   0  0  0  0  0  2  0  0  0  0  0  0
  191.6840  177.1260  147.1280 O   0  0  0  0  0  1  0  0  0  0  0  0
  186.7360  178.6360  139.5330 O   0  0  0  0  0  0  0  0  0  0  0  0
  187.3600  177.9380  138.4630 C   0  0  0  0  0  2  0  0  0  0  0  0
  188.8400  178.2670  138.4290 C   0  0  0  0  0  2  0  0  0  0  0  0
  189.0550  179.3990  137.6440 O   0  0  0  0  0  1  0  0  0  0  0  0
  1  5  1  0  0  0  0
  2  3  1  0  0  0  0
  3  8  2  0  0  0  0
  3 11  1  0  0  0  0
  5  4  1  6  0  0  0
  6  5  1  0  0  0  0
  6 12  1  0  0  0  0
  7 11  1  0  0  0  0
  7 14  1  0  0  0  0
  8  6  1  0  0  0  0
  9  7  2  0  0  0  0
 10  8  1  0  0  0  0
 10  1  2  0  0  0  0
 11 12  2  0  0  0  0
 13  2  2  0  0  0  0
 13  9  1  0  0  0  0
 15 20  1  0  0  0  0
 16 18  1  0  0  0  0
 16 17  1  0  0  0  0
 17 19  1  0  0  0  0
 18 14  1  6  0  0  0
 18 15  1  0  0  0  0
 19 20  1  0  0  0  0
 19 21  1  0  0  0  0
 21 24  1  6  0  0  0
 21 22  1  0  0  0  0
 22 23  1  0  0  0  0
 24 25  1  0  0  0  0
 25 26  1  0  0  0  0
 27  9  1  0  0  0  0
 28 27  1  0  0  0  0
 29 28  1  0  0  0  0
 30 29  1  0  0  0  0
M  END
>  <MODEL>
7

>  <REMARK>
 VINA RESULT:      -7.1      3.892      7.629
  Name = 
  9 active torsions:
  status: ('A' for Active; 'I' for Inactive)
    1  A    between atoms: C_1  and  C_6
    2  A    between atoms: C_1  and  O_9
    3  A    between atoms: C_1  and  N_19
    4  A    between atoms: C_5  and  C_6
    5  A    between atoms: C_7  and  C_29
    6  A    between atoms: O_16  and  C_17
    7  A    between atoms: O_16  and  C_20
    8  A    between atoms: C_23  and  O_27
    9  A    between atoms: O_27  and  C_29
                            x       y       z     vdW  Elec       q    Type
                         _______ _______ _______ _____ _____    ______ ____

>  <TORSDO>
F 9

$$$$
=
 OpenBabel10222416383D

 30 33  0  0  1  0  0  0  0  0999 V2000
  190.6810  177.3770  138.8460 N   0  0  0  0  0  0  0  0  0  0  0  0
  189.5200  176.6010  143.0700 C   0  0  0  0  0  3  0  0  0  0  0  0
  189.0030  177.0750  141.8700 C   0  0  0  0  0  0  0  0  0  0  0  0
  189.0620  178.7880  137.5490 C   0  0  0  0  0  1  0  0  0  0  0  0
  189.4310  177.8590  138.6520 C   0  0  2  0  0  3  0  0  0  0  0  0
  188.6280  177.5310  139.6740 N   0  0  0  0  0  0  0  0  0  0  0  0
  187.2080  178.2620  142.9750 C   0  0  0  0  0  0  0  0  0  0  0  0
  189.4340  176.8840  140.5080 C   0  0  0  0  0  0  0  0  0  0  0  0
  187.7420  177.8350  144.2270 C   0  0  0  0  0  0  0  0  0  0  0  0
  190.6930  176.7890  140.0390 N   0  0  0  0  0  0  0  0  0  0  0  0
  187.8920  177.8970  141.8130 C   0  0  0  0  0  0  0  0  0  0  0  0
  187.5880  178.2730  140.3820 C   0  0  0  0  0  3  0  0  0  0  0  0
  188.8740  176.9900  144.2530 C   0  0  0  0  0  3  0  0  0  0  0  0
  186.0250  179.0020  142.8530 O   0  0  0  0  0  0  0  0  0  0  0  0
  184.1880  177.9710  141.6430 C   0  0  0  0  0  2  0  0  0  0  0  0
  183.8110  179.4340  143.6910 C   0  0  0  0  0  2  0  0  0  0  0  0
  182.3670  178.9220  143.6880 C   0  0  0  0  0  2  0  0  0  0  0  0
  184.7300  178.4280  143.0050 C   0  0  2  0  0  3  0  0  0  0  0  0
  181.8850  178.4780  142.3580 N   0  0  0  0  0  0  0  0  0  0  0  0
  182.8710  178.6590  141.2840 C   0  0  0  0  0  2  0  0  0  0  0  0
  180.6660  179.2060  141.9800 C   0  0  2  0  0  3  0  0  0  0  0  0
  180.4560  180.3230  142.8080 O   0  0  0  0  0  0  0  0  0  0  0  0
  179.0670  180.4140  142.9560 C   0  0  0  0  0  1  0  0  0  0  0  0
  179.4580  178.2720  142.0180 C   0  0  0  0  0  2  0  0  0  0  0  0
  179.6160  177.1620  140.9940 C   0  0  0  0  0  2  0  0  0  0  0  0
  179.8860  177.7160  139.7420 O   0  0  0  0  0  1  0  0  0  0  0  0
  187.2140  178.2440  145.4540 O   0  0  0  0  0  0  0  0  0  0  0  0
  186.3370  177.4220  146.2130 C   0  0  0  0  0  2  0  0  0  0  0  0
  185.1890  178.2550  146.7500 C   0  0  0  0  0  2  0  0  0  0  0  0
  185.6810  179.4370  147.3030 O   0  0  0  0  0  1  0  0  0  0  0  0
  1 10  2  0  0  0  0
  2 13  2  0  0  0  0
  3  2  1  0  0  0  0
  5  4  1  1  0  0  0
  5  1  1  0  0  0  0
  5  6  1  0  0  0  0
  6 12  1  0  0  0  0
  6  8  1  0  0  0  0
  7  9  2  0  0  0  0
  8  3  2  0  0  0  0
  9 13  1  0  0  0  0
  9 27  1  0  0  0  0
 10  8  1  0  0  0  0
 11  3  1  0  0  0  0
 11  7  1  0  0  0  0
 12 11  2  0  0  0  0
 14  7  1  0  0  0  0
 15 18  1  0  0  0  0
 17 16  1  0  0  0  0
 18 14  1  6  0  0  0
 18 16  1  0  0  0  0
 19 17  1  0  0  0  0
 20 15  1  0  0  0  0
 20 19  1  0  0  0  0
 21 24  1  1  0  0  0
 21 19  1  0  0  0  0
 21 22  1  0  0  0  0
 22 23  1  0  0  0  0
 25 24  1  0  0  0  0
 26 25  1  0  0  0  0
 27 28  1  0  0  0  0
 28 29  1  0  0  0  0
 29 30  1  0  0  0  0
M  END
>  <MODEL>
8

>  <REMARK>
 VINA RESULT:      -6.9      3.677      7.939
  Name = 
  9 active torsions:
  status: ('A' for Active; 'I' for Inactive)
    1  A    between atoms: C_1  and  C_6
    2  A    between atoms: C_1  and  O_9
    3  A    between atoms: C_1  and  N_19
    4  A    between atoms: C_5  and  C_6
    5  A    between atoms: C_7  and  C_29
    6  A    between atoms: O_16  and  C_17
    7  A    between atoms: O_16  and  C_20
    8  A    between atoms: C_23  and  O_27
    9  A    between atoms: O_27  and  C_29
                            x       y       z     vdW  Elec       q    Type
                         _______ _______ _______ _____ _____    ______ ____

>  <TORSDO>
F 9

$$$$
=
 OpenBabel10222416383D

 30 33  0  0  1  0  0  0  0  0999 V2000
  190.7120  176.3770  147.1570 N   0  0  0  0  0  0  0  0  0  0  0  0
  191.0300  176.7920  142.7390 C   0  0  0  0  0  3  0  0  0  0  0  0
  190.3200  177.2820  143.8290 C   0  0  0  0  0  0  0  0  0  0  0  0
  188.6560  177.4000  148.1680 C   0  0  0  0  0  1  0  0  0  0  0  0
  189.6950  177.2680  147.1100 C   0  0  2  0  0  3  0  0  0  0  0  0
  189.6520  177.8820  145.9180 N   0  0  0  0  0  0  0  0  0  0  0  0
  188.4790  178.0260  142.4470 C   0  0  0  0  0  0  0  0  0  0  0  0
  190.6340  177.3060  145.2360 C   0  0  0  0  0  0  0  0  0  0  0  0
  189.1580  177.4870  141.3140 C   0  0  0  0  0  0  0  0  0  0  0  0
  191.2870  176.3730  145.9580 N   0  0  0  0  0  0  0  0  0  0  0  0
  189.0730  177.8670  143.7010 C   0  0  0  0  0  0  0  0  0  0  0  0
  188.5400  178.2720  145.0550 C   0  0  0  0  0  3  0  0  0  0  0  0
  190.4330  176.9020  141.4740 C   0  0  0  0  0  3  0  0  0  0  0  0
  187.2680  178.7250  142.3610 O   0  0  0  0  0  0  0  0  0  0  0  0
  185.1550  178.1990  141.2830 C   0  0  0  0  0  2  0  0  0  0  0  0
  185.3120  178.7550  143.7620 C   0  0  0  0  0  2  0  0  0  0  0  0
  183.8690  178.2540  143.8820 C   0  0  0  0  0  2  0  0  0  0  0  0
  186.0000  178.1100  142.5630 C   0  0  2  0  0  3  0  0  0  0  0  0
  183.0910  178.3450  142.6230 N   0  0  0  0  0  0  0  0  0  0  0  0
  183.8400  178.9450  141.5100 C   0  0  0  0  0  2  0  0  0  0  0  0
  181.8700  179.1370  142.8260 C   0  0  2  0  0  3  0  0  0  0  0  0
  181.3620  178.9750  144.1260 O   0  0  0  0  0  0  0  0  0  0  0  0
  180.1730  178.2530  143.9690 C   0  0  0  0  0  1  0  0  0  0  0  0
  180.8170  178.7610  141.7850 C   0  0  0  0  0  2  0  0  0  0  0  0
  180.4070  179.9830  140.9820 C   0  0  0  0  0  2  0  0  0  0  0  0
  179.7350  180.8820  141.8120 O   0  0  0  0  0  1  0  0  0  0  0  0
  188.6000  177.4770  140.0320 O   0  0  0  0  0  0  0  0  0  0  0  0
  189.3960  177.3490  138.8610 C   0  0  0  0  0  2  0  0  0  0  0  0
  188.7520  178.1090  137.7180 C   0  0  0  0  0  2  0  0  0  0  0  0
  189.0560  179.4660  137.8220 O   0  0  0  0  0  1  0  0  0  0  0  0
  2  3  1  0  0  0  0
  3  8  2  0  0  0  0
  5  1  1  0  0  0  0
  5  4  1  6  0  0  0
  6  5  1  0  0  0  0
  7 11  1  0  0  0  0
  8  6  1  0  0  0  0
  8 10  1  0  0  0  0
  9 13  1  0  0  0  0
  9  7  2  0  0  0  0
 10  1  2  0  0  0  0
 11  3  1  0  0  0  0
 11 12  2  0  0  0  0
 12  6  1  0  0  0  0
 13  2  2  0  0  0  0
 14  7  1  0  0  0  0
 15 20  1  0  0  0  0
 15 18  1  0  0  0  0
 16 17  1  0  0  0  0
 18 14  1  6  0  0  0
 18 16  1  0  0  0  0
 19 21  1  0  0  0  0
 19 17  1  0  0  0  0
 20 19  1  0  0  0  0
 21 24  1  6  0  0  0
 21 22  1  0  0  0  0
 23 22  1  0  0  0  0
 25 24  1  0  0  0  0
 25 26  1  0  0  0  0
 27  9  1  0  0  0  0
 28 27  1  0  0  0  0
 29 30  1  0  0  0  0
 29 28  1  0  0  0  0
M  END
>  <MODEL>
9

>  <REMARK>
 VINA RESULT:      -6.7      2.659      6.746
  Name = 
  9 active torsions:
  status: ('A' for Active; 'I' for Inactive)
    1  A    between atoms: C_1  and  C_6
    2  A    between atoms: C_1  and  O_9
    3  A    between atoms: C_1  and  N_19
    4  A    between atoms: C_5  and  C_6
    5  A    between atoms: C_7  and  C_29
    6  A    between atoms: O_16  and  C_17
    7  A    between atoms: O_16  and  C_20
    8  A    between atoms: C_23  and  O_27
    9  A    between atoms: O_27  and  C_29
                            x       y       z     vdW  Elec       q    Type
                         _______ _______ _______ _____ _____    ______ ____

>  <TORSDO>
F 9

$$$$
