=
 OpenBabel10222421073D

 29 32  0  0  1  0  0  0  0  0999 V2000
  186.6370  178.5880  144.7700 C   0  0  2  0  0  3  0  0  0  0  0  0
  186.5930  177.0890  144.5240 C   0  0  2  0  0  3  0  0  0  0  0  0
  186.7280  178.4220  146.2220 N   0  0  2  0  0  0  0  0  0  0  0  0
  185.3300  179.3140  144.4750 C   0  0  2  0  0  3  0  0  0  0  0  0
  184.4580  179.1430  145.6870 C   0  0  0  0  0  2  0  0  0  0  0  0
  186.7050  176.9740  146.0310 C   0  0  0  0  0  2  0  0  0  0  0  0
  185.4400  178.8190  146.8010 C   0  0  0  0  0  2  0  0  0  0  0  0
  185.4750  178.9420  142.1110 C   0  0  0  0  0  0  0  0  0  0  0  0
  186.2690  178.8790  141.0800 C   0  0  0  0  0  3  0  0  0  0  0  0
  184.6790  179.0040  143.1490 C   0  0  0  0  0  0  0  0  0  0  0  0
  182.6730  178.5460  141.7000 C   0  0  0  0  0  3  0  0  0  0  0  0
  181.3030  178.3290  141.5340 C   0  0  0  0  0  3  0  0  0  0  0  0
  180.9770  178.5720  143.9180 C   0  0  0  0  0  3  0  0  0  0  0  0
  183.2170  178.7740  142.9780 C   0  0  0  0  0  0  0  0  0  0  0  0
  179.0940  178.1230  142.4790 O   0  0  0  0  0  1  0  0  0  0  0  0
  180.4550  178.3410  142.6430 C   0  0  0  0  0  0  0  0  0  0  0  0
  182.3480  178.7860  144.0830 C   0  0  0  0  0  3  0  0  0  0  0  0
  187.7440  178.8530  141.2800 C   0  0  0  0  0  2  0  0  0  0  0  0
  187.4540  178.5330  139.0630 O   0  0  0  0  0  1  0  0  0  0  0  0
  188.4050  178.5240  140.0290 N   0  0  0  0  0  2  0  0  0  0  0  0
  187.7740  175.8450  142.8430 O   0  0  0  0  0  0  0  0  0  0  0  0
  187.8420  176.6230  143.8350 C   0  0  0  0  0  0  0  0  0  0  0  0
  191.4800  178.3370  144.6630 S   0  0  0  0  0  0  0  0  0  0  0  0
  190.8160  177.2190  145.8480 N   0  0  0  0  0  0  0  0  0  0  0  0
  190.0980  177.9100  143.5470 C   0  0  1  0  0  3  0  0  0  0  0  0
  190.7440  176.9860  142.1670 Cl  0  0  0  0  0  0  0  0  0  0  0  0
  189.5780  176.6850  145.5020 N   0  0  0  0  0  0  0  0  0  0  0  0
  189.1590  177.0480  144.3380 C   0  0  0  0  0  0  0  0  0  0  0  0
  191.6380  176.6070  146.8730 C   0  0  0  0  0  1  0  0  0  0  0  0
  1  3  1  0  0  0  0
  2  1  1  0  0  0  0
  2  6  1  0  0  0  0
  3  7  1  0  0  0  0
  4  1  1  0  0  0  0
  4  5  1  0  0  0  0
  5  7  1  0  0  0  0
  6  3  1  0  0  0  0
  8 10  2  0  0  0  0
  9 18  1  0  0  0  0
  9  8  2  0  0  0  0
 10  4  1  0  0  0  0
 11 14  1  0  0  0  0
 12 11  2  0  0  0  0
 12 16  1  0  0  0  0
 13 17  1  0  0  0  0
 14 10  1  0  0  0  0
 14 17  2  0  0  0  0
 15 16  1  0  0  0  0
 16 13  2  0  0  0  0
 19 20  1  0  0  0  0
 20 18  1  0  0  0  0
 21 22  2  0  0  0  0
 22 28  1  0  0  0  0
 22  2  1  0  0  0  0
 23 24  1  0  0  0  0
 24 29  1  0  0  0  0
 25 28  1  0  0  0  0
 25 23  1  0  0  0  0
 26 25  1  0  0  0  0
 27 24  1  0  0  0  0
 28 27  2  0  0  0  0
M  END
>  <MODEL>
1

>  <REMARK>
 VINA RESULT:      -8.0      0.000      0.000
  Name = 
  6 active torsions:
  status: ('A' for Active; 'I' for Inactive)
    1  A    between atoms: C_3  and  C_19
    2  A    between atoms: C_3  and  N_24
    3  A    between atoms: C_6  and  C_9
    4  A    between atoms: C_6  and  C_26
    5  A    between atoms: C_16  and  C_21
    6  A    between atoms: C_17  and  C_21
                            x       y       z     vdW  Elec       q    Type
                         _______ _______ _______ _____ _____    ______ ____

>  <TORSDO>
F 6

$$$$
=
 OpenBabel10222421073D

 29 32  0  0  1  0  0  0  0  0999 V2000
  189.9770  178.3920  143.4430 C   0  0  2  0  0  3  0  0  0  0  0  0
  189.9280  176.9290  143.0360 C   0  0  2  0  0  3  0  0  0  0  0  0
  191.2950  178.5930  142.8360 N   0  0  2  0  0  0  0  0  0  0  0  0
  190.1250  178.6260  144.9410 C   0  0  2  0  0  3  0  0  0  0  0  0
  191.5890  178.4910  145.2560 C   0  0  0  0  0  2  0  0  0  0  0  0
  191.2820  177.1950  142.4110 C   0  0  0  0  0  2  0  0  0  0  0  0
  192.2740  178.7240  143.9210 C   0  0  0  0  0  2  0  0  0  0  0  0
  189.7290  176.9160  146.5740 C   0  0  0  0  0  0  0  0  0  0  0  0
  190.2710  175.9890  147.3120 C   0  0  0  0  0  3  0  0  0  0  0  0
  189.1870  177.8500  145.8340 C   0  0  0  0  0  0  0  0  0  0  0  0
  186.9290  178.0440  144.7410 C   0  0  0  0  0  3  0  0  0  0  0  0
  185.5520  178.2740  144.8010 C   0  0  0  0  0  3  0  0  0  0  0  0
  185.7160  178.6250  147.1880 C   0  0  0  0  0  3  0  0  0  0  0  0
  187.7190  178.0960  145.9050 C   0  0  0  0  0  0  0  0  0  0  0  0
  183.5770  178.7880  146.0860 O   0  0  0  0  0  1  0  0  0  0  0  0
  184.9450  178.5630  146.0250 C   0  0  0  0  0  0  0  0  0  0  0  0
  187.0930  178.3920  147.1270 C   0  0  0  0  0  3  0  0  0  0  0  0
  191.7520  175.9110  147.4370 C   0  0  0  0  0  2  0  0  0  0  0  0
  193.3160  176.4760  148.9650 O   0  0  0  0  0  1  0  0  0  0  0  0
  192.2270  176.9620  148.3210 N   0  0  0  0  0  2  0  0  0  0  0  0
  187.7830  176.1340  142.3050 O   0  0  0  0  0  0  0  0  0  0  0  0
  188.8700  176.6970  141.9970 C   0  0  0  0  0  0  0  0  0  0  0  0
  189.3480  178.5300  138.3540 S   0  0  0  0  0  0  0  0  0  0  0  0
  189.9580  176.8890  138.5290 N   0  0  0  0  0  0  0  0  0  0  0  0
  188.6210  178.3930  140.0250 C   0  0  1  0  0  3  0  0  0  0  0  0
  186.8460  178.3450  139.8720 Cl  0  0  0  0  0  0  0  0  0  0  0  0
  189.7670  176.3370  139.7920 N   0  0  0  0  0  0  0  0  0  0  0  0
  189.1140  177.0980  140.6020 C   0  0  0  0  0  0  0  0  0  0  0  0
  190.2580  176.0550  137.3820 C   0  0  0  0  0  1  0  0  0  0  0  0
  1  4  1  0  0  0  0
  2  1  1  0  0  0  0
  3  1  1  0  0  0  0
  3  7  1  0  0  0  0
  4  5  1  0  0  0  0
  4 10  1  0  0  0  0
  6  3  1  0  0  0  0
  6  2  1  0  0  0  0
  7  5  1  0  0  0  0
  8  9  2  0  0  0  0
  9 18  1  0  0  0  0
 10 14  1  0  0  0  0
 10  8  2  0  0  0  0
 11 12  2  0  0  0  0
 11 14  1  0  0  0  0
 12 16  1  0  0  0  0
 14 17  2  0  0  0  0
 16 15  1  0  0  0  0
 16 13  2  0  0  0  0
 17 13  1  0  0  0  0
 18 20  1  0  0  0  0
 20 19  1  0  0  0  0
 22 21  2  0  0  0  0
 22  2  1  0  0  0  0
 23 24  1  0  0  0  0
 23 25  1  0  0  0  0
 24 27  1  0  0  0  0
 25 28  1  0  0  0  0
 26 25  1  0  0  0  0
 27 28  2  0  0  0  0
 28 22  1  0  0  0  0
 29 24  1  0  0  0  0
M  END
>  <MODEL>
2

>  <REMARK>
 VINA RESULT:      -8.0      3.369      6.264
  Name = 
  6 active torsions:
  status: ('A' for Active; 'I' for Inactive)
    1  A    between atoms: C_3  and  C_19
    2  A    between atoms: C_3  and  N_24
    3  A    between atoms: C_6  and  C_9
    4  A    between atoms: C_6  and  C_26
    5  A    between atoms: C_16  and  C_21
    6  A    between atoms: C_17  and  C_21
                            x       y       z     vdW  Elec       q    Type
                         _______ _______ _______ _____ _____    ______ ____

>  <TORSDO>
F 6

$$$$
=
 OpenBabel10222421073D

 29 32  0  0  1  0  0  0  0  0999 V2000
  180.3760  178.9700  140.7930 C   0  0  2  0  0  3  0  0  0  0  0  0
  180.8590  180.2280  140.0920 C   0  0  2  0  0  3  0  0  0  0  0  0
  179.2320  179.6570  141.3970 N   0  0  2  0  0  0  0  0  0  0  0  0
  181.2750  178.4960  141.9290 C   0  0  2  0  0  3  0  0  0  0  0  0
  180.9060  179.3090  143.1380 C   0  0  0  0  0  2  0  0  0  0  0  0
  179.6510  180.8860  140.7280 C   0  0  0  0  0  2  0  0  0  0  0  0
  179.5050  179.8090  142.8300 C   0  0  0  0  0  2  0  0  0  0  0  0
  183.5660  178.6890  142.6050 C   0  0  0  0  0  0  0  0  0  0  0  0
  184.3770  178.9670  143.5870 C   0  0  0  0  0  3  0  0  0  0  0  0
  182.7500  178.4090  141.6210 C   0  0  0  0  0  0  0  0  0  0  0  0
  182.9080  176.8230  139.6730 C   0  0  0  0  0  3  0  0  0  0  0  0
  183.4160  176.4610  138.4240 C   0  0  0  0  0  3  0  0  0  0  0  0
  184.7250  178.4940  138.3690 C   0  0  0  0  0  3  0  0  0  0  0  0
  183.2960  178.0290  140.2880 C   0  0  0  0  0  0  0  0  0  0  0  0
  184.8280  176.9400  136.5280 O   0  0  0  0  0  1  0  0  0  0  0  0
  184.3240  177.2970  137.7710 C   0  0  0  0  0  0  0  0  0  0  0  0
  184.2130  178.8560  139.6180 C   0  0  0  0  0  3  0  0  0  0  0  0
  183.8490  179.0940  144.9720 C   0  0  0  0  0  2  0  0  0  0  0  0
  184.6040  178.4070  146.9870 O   0  0  0  0  0  1  0  0  0  0  0  0
  184.9510  179.1620  145.9160 N   0  0  0  0  0  2  0  0  0  0  0  0
  180.7220  178.9690  138.0500 O   0  0  0  0  0  0  0  0  0  0  0  0
  180.7080  180.1040  138.6030 C   0  0  0  0  0  0  0  0  0  0  0  0
  179.7680  183.0870  135.9430 S   0  0  0  0  0  0  0  0  0  0  0  0
  180.8360  183.4920  137.2800 N   0  0  0  0  0  0  0  0  0  0  0  0
  179.8390  181.3390  136.4700 C   0  0  1  0  0  3  0  0  0  0  0  0
  180.7510  180.4120  135.2520 Cl  0  0  0  0  0  0  0  0  0  0  0  0
  181.1030  182.4340  138.1430 N   0  0  0  0  0  0  0  0  0  0  0  0
  180.5750  181.3160  137.7780 C   0  0  0  0  0  0  0  0  0  0  0  0
  181.6710  184.6770  137.2630 C   0  0  0  0  0  1  0  0  0  0  0  0
  1  3  1  0  0  0  0
  1  4  1  0  0  0  0
  2  6  1  0  0  0  0
  2  1  1  0  0  0  0
  3  7  1  0  0  0  0
  4  5  1  0  0  0  0
  6  3  1  0  0  0  0
  7  5  1  0  0  0  0
  8  9  2  0  0  0  0
  9 18  1  0  0  0  0
 10  4  1  0  0  0  0
 10  8  2  0  0  0  0
 11 14  1  0  0  0  0
 12 11  2  0  0  0  0
 13 17  1  0  0  0  0
 14 10  1  0  0  0  0
 15 16  1  0  0  0  0
 16 13  2  0  0  0  0
 16 12  1  0  0  0  0
 17 14  2  0  0  0  0
 18 20  1  0  0  0  0
 20 19  1  0  0  0  0
 21 22  2  0  0  0  0
 22  2  1  0  0  0  0
 23 25  1  0  0  0  0
 23 24  1  0  0  0  0
 24 27  1  0  0  0  0
 25 28  1  0  0  0  0
 26 25  1  0  0  0  0
 28 27  2  0  0  0  0
 28 22  1  0  0  0  0
 29 24  1  0  0  0  0
M  END
>  <MODEL>
3

>  <REMARK>
 VINA RESULT:      -7.6      5.655      8.832
  Name = 
  6 active torsions:
  status: ('A' for Active; 'I' for Inactive)
    1  A    between atoms: C_3  and  C_19
    2  A    between atoms: C_3  and  N_24
    3  A    between atoms: C_6  and  C_9
    4  A    between atoms: C_6  and  C_26
    5  A    between atoms: C_16  and  C_21
    6  A    between atoms: C_17  and  C_21
                            x       y       z     vdW  Elec       q    Type
                         _______ _______ _______ _____ _____    ______ ____

>  <TORSDO>
F 6

$$$$
=
 OpenBabel10222421073D

 29 32  0  0  1  0  0  0  0  0999 V2000
  189.7960  177.9520  138.3290 C   0  0  2  0  0  3  0  0  0  0  0  0
  189.4500  177.1100  139.5460 C   0  0  2  0  0  3  0  0  0  0  0  0
  188.5820  178.7630  138.4540 N   0  0  2  0  0  0  0  0  0  0  0  0
  189.7130  177.2080  137.0030 C   0  0  2  0  0  3  0  0  0  0  0  0
  188.2660  177.2150  136.5940 C   0  0  0  0  0  2  0  0  0  0  0  0
  188.2190  177.9900  139.6380 C   0  0  0  0  0  2  0  0  0  0  0  0
  187.6720  178.3790  137.3690 C   0  0  0  0  0  2  0  0  0  0  0  0
  189.6310  174.8120  136.9890 C   0  0  0  0  0  0  0  0  0  0  0  0
  188.8590  173.7630  137.0310 C   0  0  0  0  0  3  0  0  0  0  0  0
  190.4040  175.8670  136.9440 C   0  0  0  0  0  0  0  0  0  0  0  0
  192.6310  175.2590  137.9470 C   0  0  0  0  0  3  0  0  0  0  0  0
  194.0150  175.1020  137.8570 C   0  0  0  0  0  3  0  0  0  0  0  0
  193.9470  175.8370  135.5540 C   0  0  0  0  0  3  0  0  0  0  0  0
  191.8820  175.7020  136.8410 C   0  0  0  0  0  0  0  0  0  0  0  0
  196.0490  175.2320  136.5680 O   0  0  0  0  0  1  0  0  0  0  0  0
  194.6740  175.3900  136.6600 C   0  0  0  0  0  0  0  0  0  0  0  0
  192.5610  175.9910  135.6460 C   0  0  0  0  0  3  0  0  0  0  0  0
  187.3870  173.9180  136.8760 C   0  0  0  0  0  2  0  0  0  0  0  0
  185.6640  173.0360  138.0400 O   0  0  0  0  0  1  0  0  0  0  0  0
  186.7190  172.6880  137.2630 N   0  0  0  0  0  2  0  0  0  0  0  0
  191.6470  177.4770  140.4450 O   0  0  0  0  0  0  0  0  0  0  0  0
  190.4090  177.3730  140.6700 C   0  0  0  0  0  0  0  0  0  0  0  0
  189.7310  177.9160  144.6830 S   0  0  0  0  0  0  0  0  0  0  0  0
  188.3370  177.6180  143.6530 N   0  0  0  0  0  0  0  0  0  0  0  0
  190.8100  177.6070  143.2420 C   0  0  1  0  0  3  0  0  0  0  0  0
  191.6850  176.0760  143.5030 Cl  0  0  0  0  0  0  0  0  0  0  0  0
  188.6440  177.4520  142.3060 N   0  0  0  0  0  0  0  0  0  0  0  0
  189.9070  177.4770  142.0510 C   0  0  0  0  0  0  0  0  0  0  0  0
  187.0610  177.1890  144.1920 C   0  0  0  0  0  1  0  0  0  0  0  0
  1  3  1  0  0  0  0
  1  2  1  0  0  0  0
  2  6  1  0  0  0  0
  2 22  1  0  0  0  0
  3  6  1  0  0  0  0
  4  1  1  0  0  0  0
  5  4  1  0  0  0  0
  5  7  1  0  0  0  0
  7  3  1  0  0  0  0
  8  9  2  0  0  0  0
 10  8  2  0  0  0  0
 10  4  1  0  0  0  0
 12 11  1  0  0  0  0
 13 17  2  0  0  0  0
 13 16  1  0  0  0  0
 14 10  1  0  0  0  0
 14 11  2  0  0  0  0
 15 16  1  0  0  0  0
 16 12  2  0  0  0  0
 17 14  1  0  0  0  0
 18  9  1  0  0  0  0
 18 20  1  0  0  0  0
 20 19  1  0  0  0  0
 21 22  2  0  0  0  0
 22 28  1  0  0  0  0
 24 29  1  0  0  0  0
 24 23  1  0  0  0  0
 25 26  1  0  0  0  0
 25 23  1  0  0  0  0
 27 24  1  0  0  0  0
 28 27  2  0  0  0  0
 28 25  1  0  0  0  0
M  END
>  <MODEL>
4

>  <REMARK>
 VINA RESULT:      -7.4      5.392      8.953
  Name = 
  6 active torsions:
  status: ('A' for Active; 'I' for Inactive)
    1  A    between atoms: C_3  and  C_19
    2  A    between atoms: C_3  and  N_24
    3  A    between atoms: C_6  and  C_9
    4  A    between atoms: C_6  and  C_26
    5  A    between atoms: C_16  and  C_21
    6  A    between atoms: C_17  and  C_21
                            x       y       z     vdW  Elec       q    Type
                         _______ _______ _______ _____ _____    ______ ____

>  <TORSDO>
F 6

$$$$
=
 OpenBabel10222421073D

 29 32  0  0  1  0  0  0  0  0999 V2000
  181.7350  178.0890  139.2590 C   0  0  2  0  0  3  0  0  0  0  0  0
  182.5580  177.1040  138.4460 C   0  0  2  0  0  3  0  0  0  0  0  0
  181.0620  178.6190  138.0700 N   0  0  2  0  0  0  0  0  0  0  0  0
  182.5400  179.2280  139.8730 C   0  0  2  0  0  3  0  0  0  0  0  0
  182.7140  180.2620  138.7970 C   0  0  0  0  0  2  0  0  0  0  0  0
  181.8210  177.6760  137.2530 C   0  0  0  0  0  2  0  0  0  0  0  0
  181.5930  179.9630  137.8160 C   0  0  0  0  0  2  0  0  0  0  0  0
  184.8300  178.5170  139.8780 C   0  0  0  0  0  0  0  0  0  0  0  0
  185.8590  178.2040  139.1430 C   0  0  0  0  0  3  0  0  0  0  0  0
  183.7950  178.8340  140.6140 C   0  0  0  0  0  0  0  0  0  0  0  0
  185.1490  178.6160  142.7240 C   0  0  0  0  0  3  0  0  0  0  0  0
  185.2540  178.5770  144.1160 C   0  0  0  0  0  3  0  0  0  0  0  0
  182.8630  178.8830  144.3040 C   0  0  0  0  0  3  0  0  0  0  0  0
  183.9000  178.7940  142.1000 C   0  0  0  0  0  0  0  0  0  0  0  0
  184.2150  178.6770  146.2900 O   0  0  0  0  0  1  0  0  0  0  0  0
  184.1110  178.7120  144.9070 C   0  0  0  0  0  0  0  0  0  0  0  0
  182.7600  178.9240  142.9110 C   0  0  0  0  0  3  0  0  0  0  0  0
  185.8410  178.4870  137.6820 C   0  0  0  0  0  2  0  0  0  0  0  0
  188.0030  178.7190  138.2910 O   0  0  0  0  0  1  0  0  0  0  0  0
  187.1620  178.9030  137.2440 N   0  0  0  0  0  2  0  0  0  0  0  0
  181.5250  175.4090  139.8000 O   0  0  0  0  0  0  0  0  0  0  0  0
  182.1410  175.6910  138.7350 C   0  0  0  0  0  0  0  0  0  0  0  0
  182.3920  172.8640  135.7670 S   0  0  0  0  0  0  0  0  0  0  0  0
  183.8500  173.2120  136.6890 N   0  0  0  0  0  0  0  0  0  0  0  0
  181.4650  173.9560  136.9010 C   0  0  1  0  0  3  0  0  0  0  0  0
  180.3710  172.9550  137.8890 Cl  0  0  0  0  0  0  0  0  0  0  0  0
  183.6890  174.1850  137.6710 N   0  0  0  0  0  0  0  0  0  0  0  0
  182.4810  174.6190  137.7840 C   0  0  0  0  0  0  0  0  0  0  0  0
  184.9820  172.3070  136.7060 C   0  0  0  0  0  1  0  0  0  0  0  0
  1  4  1  0  0  0  0
  2 22  1  0  0  0  0
  2  1  1  0  0  0  0
  3  1  1  0  0  0  0
  4 10  1  0  0  0  0
  5  4  1  0  0  0  0
  6  3  1  0  0  0  0
  6  2  1  0  0  0  0
  7  3  1  0  0  0  0
  7  5  1  0  0  0  0
  8 10  2  0  0  0  0
  9  8  2  0  0  0  0
 10 14  1  0  0  0  0
 11 12  1  0  0  0  0
 12 16  2  0  0  0  0
 13 16  1  0  0  0  0
 14 11  2  0  0  0  0
 14 17  1  0  0  0  0
 16 15  1  0  0  0  0
 17 13  2  0  0  0  0
 18  9  1  0  0  0  0
 20 18  1  0  0  0  0
 20 19  1  0  0  0  0
 22 21  2  0  0  0  0
 23 24  1  0  0  0  0
 23 25  1  0  0  0  0
 24 29  1  0  0  0  0
 24 27  1  0  0  0  0
 25 28  1  0  0  0  0
 25 26  1  0  0  0  0
 27 28  2  0  0  0  0
 28 22  1  0  0  0  0
M  END
>  <MODEL>
5

>  <REMARK>
 VINA RESULT:      -7.3      5.273      7.683
  Name = 
  6 active torsions:
  status: ('A' for Active; 'I' for Inactive)
    1  A    between atoms: C_3  and  C_19
    2  A    between atoms: C_3  and  N_24
    3  A    between atoms: C_6  and  C_9
    4  A    between atoms: C_6  and  C_26
    5  A    between atoms: C_16  and  C_21
    6  A    between atoms: C_17  and  C_21
                            x       y       z     vdW  Elec       q    Type
                         _______ _______ _______ _____ _____    ______ ____

>  <TORSDO>
F 6

$$$$
=
 OpenBabel10222421073D

 29 32  0  0  1  0  0  0  0  0999 V2000
  189.9750  177.8290  138.2780 C   0  0  2  0  0  3  0  0  0  0  0  0
  189.3350  177.2620  139.5350 C   0  0  2  0  0  3  0  0  0  0  0  0
  189.1020  179.0050  138.2760 N   0  0  2  0  0  0  0  0  0  0  0  0
  189.6820  177.0390  137.0090 C   0  0  2  0  0  3  0  0  0  0  0  0
  188.3330  177.4900  136.5230 C   0  0  0  0  0  2  0  0  0  0  0  0
  188.4690  178.5050  139.4930 C   0  0  0  0  0  2  0  0  0  0  0  0
  188.1440  178.8490  137.1750 C   0  0  0  0  0  2  0  0  0  0  0  0
  191.1080  175.1370  137.3190 C   0  0  0  0  0  0  0  0  0  0  0  0
  192.3250  174.7330  137.5480 C   0  0  0  0  0  3  0  0  0  0  0  0
  189.8850  175.5450  137.0900 C   0  0  0  0  0  0  0  0  0  0  0  0
  189.0670  173.2440  136.4830 C   0  0  0  0  0  3  0  0  0  0  0  0
  188.0430  172.3070  136.3280 C   0  0  0  0  0  3  0  0  0  0  0  0
  186.4270  173.9570  137.0450 C   0  0  0  0  0  3  0  0  0  0  0  0
  188.7880  174.5500  136.9260 C   0  0  0  0  0  0  0  0  0  0  0  0
  185.7050  171.7320  136.4580 O   0  0  0  0  0  1  0  0  0  0  0  0
  186.7230  172.6630  136.6090 C   0  0  0  0  0  0  0  0  0  0  0  0
  187.4530  174.8920  137.2020 C   0  0  0  0  0  3  0  0  0  0  0  0
  193.3660  175.7120  137.9640 C   0  0  0  0  0  2  0  0  0  0  0  0
  194.5130  176.8010  136.3520 O   0  0  0  0  0  1  0  0  0  0  0  0
  194.4980  175.6430  137.0560 N   0  0  0  0  0  2  0  0  0  0  0  0
  191.5380  177.1740  140.4880 O   0  0  0  0  0  0  0  0  0  0  0  0
  190.2970  177.2910  140.6860 C   0  0  0  0  0  0  0  0  0  0  0  0
  189.5880  177.9420  144.6780 S   0  0  0  0  0  0  0  0  0  0  0  0
  188.2090  177.5600  143.6560 N   0  0  0  0  0  0  0  0  0  0  0  0
  190.6830  177.6240  143.2500 C   0  0  1  0  0  3  0  0  0  0  0  0
  191.6110  176.1350  143.5630 Cl  0  0  0  0  0  0  0  0  0  0  0  0
  188.5260  177.3600  142.3160 N   0  0  0  0  0  0  0  0  0  0  0  0
  189.7880  177.4230  142.0620 C   0  0  0  0  0  0  0  0  0  0  0  0
  186.9480  177.1030  144.2060 C   0  0  0  0  0  1  0  0  0  0  0  0
  1  2  1  0  0  0  0
  2 22  1  0  0  0  0
  3  1  1  0  0  0  0
  3  6  1  0  0  0  0
  4 10  1  0  0  0  0
  4  1  1  0  0  0  0
  5  4  1  0  0  0  0
  5  7  1  0  0  0  0
  6  2  1  0  0  0  0
  7  3  1  0  0  0  0
  8  9  2  0  0  0  0
  9 18  1  0  0  0  0
 10  8  2  0  0  0  0
 11 14  1  0  0  0  0
 12 11  2  0  0  0  0
 12 16  1  0  0  0  0
 13 17  1  0  0  0  0
 14 10  1  0  0  0  0
 14 17  2  0  0  0  0
 15 16  1  0  0  0  0
 16 13  2  0  0  0  0
 19 20  1  0  0  0  0
 20 18  1  0  0  0  0
 21 22  2  0  0  0  0
 22 28  1  0  0  0  0
 24 29  1  0  0  0  0
 24 23  1  0  0  0  0
 25 26  1  0  0  0  0
 25 23  1  0  0  0  0
 27 24  1  0  0  0  0
 28 27  2  0  0  0  0
 28 25  1  0  0  0  0
M  END
>  <MODEL>
6

>  <REMARK>
 VINA RESULT:      -7.3      5.207      7.597
  Name = 
  6 active torsions:
  status: ('A' for Active; 'I' for Inactive)
    1  A    between atoms: C_3  and  C_19
    2  A    between atoms: C_3  and  N_24
    3  A    between atoms: C_6  and  C_9
    4  A    between atoms: C_6  and  C_26
    5  A    between atoms: C_16  and  C_21
    6  A    between atoms: C_17  and  C_21
                            x       y       z     vdW  Elec       q    Type
                         _______ _______ _______ _____ _____    ______ ____

>  <TORSDO>
F 6

$$$$
=
 OpenBabel10222421073D

 29 32  0  0  1  0  0  0  0  0999 V2000
  188.0430  177.5500  136.7610 C   0  0  2  0  0  3  0  0  0  0  0  0
  187.8430  177.2380  138.2350 C   0  0  2  0  0  3  0  0  0  0  0  0
  186.6770  178.0550  136.6070 N   0  0  2  0  0  0  0  0  0  0  0  0
  188.1790  176.3220  135.8700 C   0  0  2  0  0  3  0  0  0  0  0  0
  186.7840  175.8450  135.5770 C   0  0  0  0  0  2  0  0  0  0  0  0
  186.4460  177.7870  138.0240 C   0  0  0  0  0  2  0  0  0  0  0  0
  185.9180  177.0670  135.8320 C   0  0  0  0  0  2  0  0  0  0  0  0
  188.6350  174.1090  136.6700 C   0  0  0  0  0  0  0  0  0  0  0  0
  188.1200  172.9600  137.0020 C   0  0  0  0  0  3  0  0  0  0  0  0
  189.1510  175.2640  136.3330 C   0  0  0  0  0  0  0  0  0  0  0  0
  191.4150  175.4790  135.2560 C   0  0  0  0  0  3  0  0  0  0  0  0
  192.7960  175.6760  135.3310 C   0  0  0  0  0  3  0  0  0  0  0  0
  192.6380  175.8580  137.7370 C   0  0  0  0  0  3  0  0  0  0  0  0
  190.6240  175.4740  136.4200 C   0  0  0  0  0  0  0  0  0  0  0  0
  194.7790  176.0640  136.6470 O   0  0  0  0  0  1  0  0  0  0  0  0
  193.4080  175.8660  136.5710 C   0  0  0  0  0  0  0  0  0  0  0  0
  191.2560  175.6640  137.6600 C   0  0  0  0  0  3  0  0  0  0  0  0
  186.6980  172.6620  136.6770 C   0  0  0  0  0  2  0  0  0  0  0  0
  184.6190  172.4780  137.5390 O   0  0  0  0  0  1  0  0  0  0  0  0
  185.8610  172.9340  137.8330 N   0  0  0  0  0  2  0  0  0  0  0  0
  189.0640  179.2640  138.6530 O   0  0  0  0  0  0  0  0  0  0  0  0
  188.6750  178.1470  139.0930 C   0  0  0  0  0  0  0  0  0  0  0  0
  189.0450  176.6680  142.9060 S   0  0  0  0  0  0  0  0  0  0  0  0
  190.5110  177.1960  142.0890 N   0  0  0  0  0  0  0  0  0  0  0  0
  188.0770  177.3140  141.4960 C   0  0  1  0  0  3  0  0  0  0  0  0
  187.1620  178.7430  142.0400 Cl  0  0  0  0  0  0  0  0  0  0  0  0
  190.3070  177.6770  140.7990 N   0  0  0  0  0  0  0  0  0  0  0  0
  189.0690  177.7170  140.4450 C   0  0  0  0  0  0  0  0  0  0  0  0
  191.7330  177.4810  142.8140 C   0  0  0  0  0  1  0  0  0  0  0  0
  1  2  1  0  0  0  0
  2 22  1  0  0  0  0
  3  1  1  0  0  0  0
  3  6  1  0  0  0  0
  4 10  1  0  0  0  0
  4  1  1  0  0  0  0
  5  7  1  0  0  0  0
  5  4  1  0  0  0  0
  6  2  1  0  0  0  0
  7  3  1  0  0  0  0
  8  9  2  0  0  0  0
 10 14  1  0  0  0  0
 10  8  2  0  0  0  0
 11 12  2  0  0  0  0
 11 14  1  0  0  0  0
 12 16  1  0  0  0  0
 14 17  2  0  0  0  0
 16 15  1  0  0  0  0
 16 13  2  0  0  0  0
 17 13  1  0  0  0  0
 18  9  1  0  0  0  0
 18 20  1  0  0  0  0
 19 20  1  0  0  0  0
 21 22  2  0  0  0  0
 22 28  1  0  0  0  0
 24 29  1  0  0  0  0
 24 23  1  0  0  0  0
 25 26  1  0  0  0  0
 25 23  1  0  0  0  0
 27 24  1  0  0  0  0
 28 27  2  0  0  0  0
 28 25  1  0  0  0  0
M  END
>  <MODEL>
7

>  <REMARK>
 VINA RESULT:      -7.2      5.563      8.967
  Name = 
  6 active torsions:
  status: ('A' for Active; 'I' for Inactive)
    1  A    between atoms: C_3  and  C_19
    2  A    between atoms: C_3  and  N_24
    3  A    between atoms: C_6  and  C_9
    4  A    between atoms: C_6  and  C_26
    5  A    between atoms: C_16  and  C_21
    6  A    between atoms: C_17  and  C_21
                            x       y       z     vdW  Elec       q    Type
                         _______ _______ _______ _____ _____    ______ ____

>  <TORSDO>
F 6

$$$$
=
 OpenBabel10222421073D

 29 32  0  0  1  0  0  0  0  0999 V2000
  186.6780  178.6220  144.2910 C   0  0  2  0  0  3  0  0  0  0  0  0
  186.6290  177.1050  144.2170 C   0  0  2  0  0  3  0  0  0  0  0  0
  186.6320  178.6260  145.7550 N   0  0  2  0  0  0  0  0  0  0  0  0
  185.4180  179.3190  143.7930 C   0  0  2  0  0  3  0  0  0  0  0  0
  184.4360  179.2980  144.9300 C   0  0  0  0  0  2  0  0  0  0  0  0
  186.5990  177.1660  145.7310 C   0  0  0  0  0  2  0  0  0  0  0  0
  185.3040  179.0990  146.1610 C   0  0  0  0  0  2  0  0  0  0  0  0
  183.5960  178.6510  142.3860 C   0  0  0  0  0  0  0  0  0  0  0  0
  182.3120  178.4440  142.3180 C   0  0  0  0  0  3  0  0  0  0  0  0
  184.8860  178.8620  142.4560 C   0  0  0  0  0  0  0  0  0  0  0  0
  187.1440  178.6510  141.3650 C   0  0  0  0  0  3  0  0  0  0  0  0
  187.9500  178.4520  140.2420 C   0  0  0  0  0  3  0  0  0  0  0  0
  185.9750  178.2530  138.8610 C   0  0  0  0  0  3  0  0  0  0  0  0
  185.7400  178.6490  141.2540 C   0  0  0  0  0  0  0  0  0  0  0  0
  188.1650  178.0510  137.8740 O   0  0  0  0  0  1  0  0  0  0  0  0
  187.3650  178.2510  138.9900 C   0  0  0  0  0  0  0  0  0  0  0  0
  185.1690  178.4490  139.9860 C   0  0  0  0  0  3  0  0  0  0  0  0
  181.4270  178.8960  143.4260 C   0  0  0  0  0  2  0  0  0  0  0  0
  179.4660  178.2400  144.3340 O   0  0  0  0  0  1  0  0  0  0  0  0
  180.0520  178.5200  143.1440 N   0  0  0  0  0  2  0  0  0  0  0  0
  187.9340  175.6270  142.8450 O   0  0  0  0  0  0  0  0  0  0  0  0
  187.9260  176.5510  143.7060 C   0  0  0  0  0  0  0  0  0  0  0  0
  191.4120  178.5190  144.6220 S   0  0  0  0  0  0  0  0  0  0  0  0
  190.8230  177.3240  145.7700 N   0  0  0  0  0  0  0  0  0  0  0  0
  190.0790  178.0150  143.4780 C   0  0  1  0  0  3  0  0  0  0  0  0
  190.8090  177.1780  142.0850 Cl  0  0  0  0  0  0  0  0  0  0  0  0
  189.6340  176.7050  145.3960 N   0  0  0  0  0  0  0  0  0  0  0  0
  189.2010  177.0640  144.2370 C   0  0  0  0  0  0  0  0  0  0  0  0
  191.6800  176.7520  146.7910 C   0  0  0  0  0  1  0  0  0  0  0  0
  1  3  1  0  0  0  0
  2  1  1  0  0  0  0
  2  6  1  0  0  0  0
  3  7  1  0  0  0  0
  4  1  1  0  0  0  0
  4  5  1  0  0  0  0
  5  7  1  0  0  0  0
  6  3  1  0  0  0  0
  8 10  2  0  0  0  0
  9  8  2  0  0  0  0
  9 18  1  0  0  0  0
 10  4  1  0  0  0  0
 12 11  2  0  0  0  0
 13 16  2  0  0  0  0
 13 17  1  0  0  0  0
 14 11  1  0  0  0  0
 14 10  1  0  0  0  0
 15 16  1  0  0  0  0
 16 12  1  0  0  0  0
 17 14  2  0  0  0  0
 20 18  1  0  0  0  0
 20 19  1  0  0  0  0
 21 22  2  0  0  0  0
 22  2  1  0  0  0  0
 22 28  1  0  0  0  0
 23 24  1  0  0  0  0
 24 29  1  0  0  0  0
 25 28  1  0  0  0  0
 25 23  1  0  0  0  0
 26 25  1  0  0  0  0
 27 24  1  0  0  0  0
 28 27  2  0  0  0  0
M  END
>  <MODEL>
8

>  <REMARK>
 VINA RESULT:      -7.2      1.663      4.376
  Name = 
  6 active torsions:
  status: ('A' for Active; 'I' for Inactive)
    1  A    between atoms: C_3  and  C_19
    2  A    between atoms: C_3  and  N_24
    3  A    between atoms: C_6  and  C_9
    4  A    between atoms: C_6  and  C_26
    5  A    between atoms: C_16  and  C_21
    6  A    between atoms: C_17  and  C_21
                            x       y       z     vdW  Elec       q    Type
                         _______ _______ _______ _____ _____    ______ ____

>  <TORSDO>
F 6

$$$$
=
 OpenBabel10222421073D

 29 32  0  0  1  0  0  0  0  0999 V2000
  186.1000  177.6530  143.0310 C   0  0  2  0  0  3  0  0  0  0  0  0
  186.6090  179.0090  142.5730 C   0  0  2  0  0  3  0  0  0  0  0  0
  184.7450  178.1580  143.2640 N   0  0  2  0  0  0  0  0  0  0  0  0
  186.6540  177.1920  144.3740 C   0  0  2  0  0  3  0  0  0  0  0  0
  185.8230  177.8600  145.4340 C   0  0  0  0  0  2  0  0  0  0  0  0
  185.1880  179.4750  142.8150 C   0  0  0  0  0  2  0  0  0  0  0  0
  184.5350  178.2240  144.7150 C   0  0  0  0  0  2  0  0  0  0  0  0
  188.5830  177.3870  145.7820 C   0  0  0  0  0  0  0  0  0  0  0  0
  189.0130  177.4770  147.0090 C   0  0  0  0  0  3  0  0  0  0  0  0
  188.1490  177.2940  144.5510 C   0  0  0  0  0  0  0  0  0  0  0  0
  189.0300  176.3230  142.4030 C   0  0  0  0  0  3  0  0  0  0  0  0
  189.9360  176.3160  141.3400 C   0  0  0  0  0  3  0  0  0  0  0  0
  191.0510  178.2440  142.2800 C   0  0  0  0  0  3  0  0  0  0  0  0
  189.1180  177.2930  143.4190 C   0  0  0  0  0  0  0  0  0  0  0  0
  191.8440  177.2740  140.2200 O   0  0  0  0  0  1  0  0  0  0  0  0
  190.9460  177.2780  141.2770 C   0  0  0  0  0  0  0  0  0  0  0  0
  190.1430  178.2510  143.3420 C   0  0  0  0  0  3  0  0  0  0  0  0
  188.0830  177.2220  148.1420 C   0  0  0  0  0  2  0  0  0  0  0  0
  189.5830  178.6290  149.0740 O   0  0  0  0  0  1  0  0  0  0  0  0
  188.3010  178.2050  149.1890 N   0  0  0  0  0  2  0  0  0  0  0  0
  188.1410  179.1390  140.7270 O   0  0  0  0  0  0  0  0  0  0  0  0
  186.9480  178.9890  141.1100 C   0  0  0  0  0  0  0  0  0  0  0  0
  184.3000  177.8450  138.1870 S   0  0  0  0  0  0  0  0  0  0  0  0
  183.8870  179.2520  139.1580 N   0  0  0  0  0  0  0  0  0  0  0  0
  185.9280  177.8040  139.0160 C   0  0  1  0  0  3  0  0  0  0  0  0
  187.1820  178.2550  137.8330 Cl  0  0  0  0  0  0  0  0  0  0  0  0
  184.8270  179.5740  140.1320 N   0  0  0  0  0  0  0  0  0  0  0  0
  185.8760  178.8250  140.1140 C   0  0  0  0  0  0  0  0  0  0  0  0
  182.8870  180.2120  138.7330 C   0  0  0  0  0  1  0  0  0  0  0  0
  1  3  1  0  0  0  0
  1  4  1  0  0  0  0
  2  6  1  0  0  0  0
  2  1  1  0  0  0  0
  3  7  1  0  0  0  0
  4 10  1  0  0  0  0
  4  5  1  0  0  0  0
  6  3  1  0  0  0  0
  7  5  1  0  0  0  0
  8  9  2  0  0  0  0
  9 18  1  0  0  0  0
 10  8  2  0  0  0  0
 11 14  1  0  0  0  0
 12 11  2  0  0  0  0
 13 17  1  0  0  0  0
 14 10  1  0  0  0  0
 15 16  1  0  0  0  0
 16 12  1  0  0  0  0
 16 13  2  0  0  0  0
 17 14  2  0  0  0  0
 18 20  1  0  0  0  0
 19 20  1  0  0  0  0
 21 22  2  0  0  0  0
 22  2  1  0  0  0  0
 23 25  1  0  0  0  0
 23 24  1  0  0  0  0
 24 27  1  0  0  0  0
 25 28  1  0  0  0  0
 26 25  1  0  0  0  0
 28 27  2  0  0  0  0
 28 22  1  0  0  0  0
 29 24  1  0  0  0  0
M  END
>  <MODEL>
9

>  <REMARK>
 VINA RESULT:      -7.2      3.631      7.268
  Name = 
  6 active torsions:
  status: ('A' for Active; 'I' for Inactive)
    1  A    between atoms: C_3  and  C_19
    2  A    between atoms: C_3  and  N_24
    3  A    between atoms: C_6  and  C_9
    4  A    between atoms: C_6  and  C_26
    5  A    between atoms: C_16  and  C_21
    6  A    between atoms: C_17  and  C_21
                            x       y       z     vdW  Elec       q    Type
                         _______ _______ _______ _____ _____    ______ ____

>  <TORSDO>
F 6

$$$$
