=
 OpenBabel10222416553D

 28 31  0  0  1  0  0  0  0  0999 V2000
  183.3410  179.1360  143.7050 C   0  0  0  0  0  3  0  0  0  0  0  0
  184.5220  179.0260  141.5730 N   0  0  0  0  0  2  0  0  0  0  0  0
  184.5100  178.6280  145.7560 C   0  0  0  0  0  3  0  0  0  0  0  0
  185.6780  178.3860  145.0180 C   0  0  0  0  0  0  0  0  0  0  0  0
  183.3420  179.0030  145.0940 C   0  0  0  0  0  3  0  0  0  0  0  0
  184.5170  178.8900  142.9950 C   0  0  0  0  0  0  0  0  0  0  0  0
  185.6480  178.5230  143.6620 N   0  0  0  0  0  0  0  0  0  0  0  0
  188.0490  177.5760  144.9470 C   0  0  0  0  0  3  0  0  0  0  0  0
  186.9330  177.9910  145.6900 C   0  0  0  0  0  0  0  0  0  0  0  0
  188.2060  177.6520  147.7340 C   0  0  0  0  0  3  0  0  0  0  0  0
  190.4820  176.8620  147.6510 O   0  0  0  0  0  0  0  0  0  0  0  0
  192.6420  176.0910  147.6380 O   0  0  0  0  0  0  0  0  0  0  0  0
  189.2380  177.2030  145.5870 C   0  0  0  0  0  0  0  0  0  0  0  0
  189.3140  177.2400  146.9880 C   0  0  0  0  0  0  0  0  0  0  0  0
  190.4110  176.7690  144.8070 C   0  0  0  0  0  0  0  0  0  0  0  0
  187.0240  178.0260  147.0900 C   0  0  0  0  0  3  0  0  0  0  0  0
  191.7160  176.4480  145.4750 C   0  0  0  0  0  2  0  0  0  0  0  0
  190.3380  176.6810  143.5530 O   0  0  0  0  0  0  0  0  0  0  0  0
  191.6360  176.4510  146.9730 C   0  0  0  0  0  0  0  0  0  0  0  0
  185.7140  178.8220  140.7590 C   0  0  0  0  0  2  0  0  0  0  0  0
  187.6720  177.7930  138.7270 C   0  0  0  0  0  2  0  0  0  0  0  0
  187.2780  177.4020  136.3550 C   0  0  0  0  0  2  0  0  0  0  0  0
  185.3360  178.5810  139.3330 C   0  0  0  0  0  0  0  0  0  0  0  0
  189.5960  177.8220  137.1570 C   0  0  0  0  0  1  0  0  0  0  0  0
  185.9680  177.7950  137.0110 C   0  0  0  0  0  2  0  0  0  0  0  0
  188.2710  177.1640  137.4840 C   0  0  1  0  0  3  0  0  0  0  0  0
  186.2920  178.0740  138.3930 N   0  0  0  0  0  0  0  0  0  0  0  0
  184.1520  178.8120  138.9670 O   0  0  0  0  0  0  0  0  0  0  0  0
  1  5  2  0  0  0  0
  2  6  1  0  0  0  0
  4  9  1  0  0  0  0
  4  3  2  0  0  0  0
  5  3  1  0  0  0  0
  6  7  2  0  0  0  0
  6  1  1  0  0  0  0
  7  4  1  0  0  0  0
  8 13  2  0  0  0  0
  8  9  1  0  0  0  0
  9 16  2  0  0  0  0
 13 14  1  0  0  0  0
 14 11  1  0  0  0  0
 14 10  2  0  0  0  0
 15 17  1  0  0  0  0
 15 13  1  0  0  0  0
 16 10  1  0  0  0  0
 17 19  1  0  0  0  0
 18 15  2  0  0  0  0
 19 12  2  0  0  0  0
 19 11  1  0  0  0  0
 20  2  1  0  0  0  0
 22 25  1  0  0  0  0
 22 26  1  0  0  0  0
 23 20  1  0  0  0  0
 25 27  1  0  0  0  0
 26 24  1  6  0  0  0
 26 21  1  0  0  0  0
 27 21  1  0  0  0  0
 27 23  1  0  0  0  0
 28 23  2  0  0  0  0
M  END
>  <MODEL>
1

>  <REMARK>
 VINA RESULT:     -10.7      0.000      0.000
  Name = 
  3 active torsions:
  status: ('A' for Active; 'I' for Inactive)
    1  A    between atoms: N_5  and  C_24
    2  A    between atoms: C_6  and  C_14
    3  A    between atoms: C_7  and  C_24
                            x       y       z     vdW  Elec       q    Type
                         _______ _______ _______ _____ _____    ______ ____

>  <TORSDO>
F 3

$$$$
=
 OpenBabel10222416553D

 28 31  0  0  1  0  0  0  0  0999 V2000
  183.6460  178.8250  142.4400 C   0  0  0  0  0  3  0  0  0  0  0  0
  185.1770  178.6840  140.5440 N   0  0  0  0  0  2  0  0  0  0  0  0
  184.4680  178.4530  144.6800 C   0  0  0  0  0  3  0  0  0  0  0  0
  185.7530  178.2350  144.1610 C   0  0  0  0  0  0  0  0  0  0  0  0
  183.4160  178.7480  143.8140 C   0  0  0  0  0  3  0  0  0  0  0  0
  184.9350  178.6050  141.9510 C   0  0  0  0  0  0  0  0  0  0  0  0
  185.9490  178.3160  142.8140 N   0  0  0  0  0  0  0  0  0  0  0  0
  188.1410  177.5680  144.5280 C   0  0  0  0  0  3  0  0  0  0  0  0
  186.8900  177.9230  145.0530 C   0  0  0  0  0  0  0  0  0  0  0  0
  187.7970  177.6860  147.2950 C   0  0  0  0  0  3  0  0  0  0  0  0
  190.0930  177.0330  147.6330 O   0  0  0  0  0  0  0  0  0  0  0  0
  192.2610  176.3930  148.0180 O   0  0  0  0  0  0  0  0  0  0  0  0
  189.2180  177.2740  145.3750 C   0  0  0  0  0  0  0  0  0  0  0  0
  189.0410  177.3320  146.7660 C   0  0  0  0  0  0  0  0  0  0  0  0
  190.5330  176.9020  144.8240 C   0  0  0  0  0  0  0  0  0  0  0  0
  186.7290  177.9810  146.4450 C   0  0  0  0  0  3  0  0  0  0  0  0
  191.7140  176.6680  145.7180 C   0  0  0  0  0  2  0  0  0  0  0  0
  190.6880  176.7950  143.5790 O   0  0  0  0  0  0  0  0  0  0  0  0
  191.3700  176.6840  147.1790 C   0  0  0  0  0  0  0  0  0  0  0  0
  186.4960  178.5020  139.9530 C   0  0  0  0  0  2  0  0  0  0  0  0
  188.6850  176.9800  138.5680 C   0  0  0  0  0  2  0  0  0  0  0  0
  188.7100  176.1890  136.2640 C   0  0  0  0  0  2  0  0  0  0  0  0
  186.3730  178.0300  138.5400 C   0  0  0  0  0  0  0  0  0  0  0  0
  190.8640  176.5850  137.4460 C   0  0  0  0  0  1  0  0  0  0  0  0
  187.3490  176.7880  136.5610 C   0  0  0  0  0  2  0  0  0  0  0  0
  189.4390  176.0930  137.5970 C   0  0  1  0  0  3  0  0  0  0  0  0
  187.4310  177.2930  137.9150 N   0  0  0  0  0  0  0  0  0  0  0  0
  185.3110  178.2720  137.9050 O   0  0  0  0  0  0  0  0  0  0  0  0
  1  5  2  0  0  0  0
  2  6  1  0  0  0  0
  4  3  2  0  0  0  0
  4  9  1  0  0  0  0
  5  3  1  0  0  0  0
  6  1  1  0  0  0  0
  6  7  2  0  0  0  0
  7  4  1  0  0  0  0
  8  9  2  0  0  0  0
  8 13  1  0  0  0  0
  9 16  1  0  0  0  0
 13 14  2  0  0  0  0
 14 10  1  0  0  0  0
 14 11  1  0  0  0  0
 15 13  1  0  0  0  0
 15 17  1  0  0  0  0
 16 10  2  0  0  0  0
 17 19  1  0  0  0  0
 18 15  2  0  0  0  0
 19 11  1  0  0  0  0
 19 12  2  0  0  0  0
 20  2  1  0  0  0  0
 22 25  1  0  0  0  0
 22 26  1  0  0  0  0
 23 20  1  0  0  0  0
 25 27  1  0  0  0  0
 26 24  1  6  0  0  0
 26 21  1  0  0  0  0
 27 23  1  0  0  0  0
 27 21  1  0  0  0  0
 28 23  2  0  0  0  0
M  END
>  <MODEL>
2

>  <REMARK>
 VINA RESULT:     -10.0      0.998      1.107
  Name = 
  3 active torsions:
  status: ('A' for Active; 'I' for Inactive)
    1  A    between atoms: N_5  and  C_24
    2  A    between atoms: C_6  and  C_14
    3  A    between atoms: C_7  and  C_24
                            x       y       z     vdW  Elec       q    Type
                         _______ _______ _______ _____ _____    ______ ____

>  <TORSDO>
F 3

$$$$
=
 OpenBabel10222416553D

 28 31  0  0  1  0  0  0  0  0999 V2000
  190.7830  177.0490  146.3640 C   0  0  0  0  0  3  0  0  0  0  0  0
  191.4020  177.9010  144.1630 N   0  0  0  0  0  2  0  0  0  0  0  0
  188.4730  177.0960  147.0660 C   0  0  0  0  0  3  0  0  0  0  0  0
  188.1230  177.6780  145.8390 C   0  0  0  0  0  0  0  0  0  0  0  0
  189.8070  176.7830  147.3240 C   0  0  0  0  0  3  0  0  0  0  0  0
  190.4070  177.6280  145.1510 C   0  0  0  0  0  0  0  0  0  0  0  0
  189.0980  177.9280  144.9190 N   0  0  0  0  0  0  0  0  0  0  0  0
  186.2590  178.0660  144.2080 C   0  0  0  0  0  3  0  0  0  0  0  0
  186.7170  178.0190  145.5330 C   0  0  0  0  0  0  0  0  0  0  0  0
  184.4900  178.6260  146.2930 C   0  0  0  0  0  3  0  0  0  0  0  0
  182.7090  179.0060  144.7130 O   0  0  0  0  0  0  0  0  0  0  0  0
  180.9820  179.4030  143.2580 O   0  0  0  0  0  0  0  0  0  0  0  0
  184.9260  178.3880  143.9210 C   0  0  0  0  0  0  0  0  0  0  0  0
  184.0390  178.6710  144.9710 C   0  0  0  0  0  0  0  0  0  0  0  0
  184.4440  178.4360  142.5290 C   0  0  0  0  0  0  0  0  0  0  0  0
  185.8190  178.3010  146.5730 C   0  0  0  0  0  3  0  0  0  0  0  0
  183.0010  178.6970  142.2130 C   0  0  0  0  0  2  0  0  0  0  0  0
  185.2430  178.2360  141.5770 O   0  0  0  0  0  0  0  0  0  0  0  0
  182.1820  179.0590  143.4180 C   0  0  0  0  0  0  0  0  0  0  0  0
  191.0920  178.4720  142.8580 C   0  0  0  0  0  2  0  0  0  0  0  0
  189.4940  178.3300  140.3180 C   0  0  0  0  0  2  0  0  0  0  0  0
  189.7840  176.7670  138.4710 C   0  0  0  0  0  2  0  0  0  0  0  0
  191.3980  177.4890  141.7730 C   0  0  0  0  0  0  0  0  0  0  0  0
  187.5680  177.8410  138.8300 C   0  0  0  0  0  1  0  0  0  0  0  0
  190.8990  176.5500  139.4760 C   0  0  0  0  0  2  0  0  0  0  0  0
  189.0670  178.0430  138.8920 C   0  0  1  0  0  3  0  0  0  0  0  0
  190.6250  177.4600  140.5670 N   0  0  0  0  0  0  0  0  0  0  0  0
  192.3640  176.6950  141.9240 O   0  0  0  0  0  0  0  0  0  0  0  0
  1  5  2  0  0  0  0
  2  6  1  0  0  0  0
  3  5  1  0  0  0  0
  4  3  2  0  0  0  0
  6  1  1  0  0  0  0
  7  6  2  0  0  0  0
  7  4  1  0  0  0  0
  8  9  1  0  0  0  0
  9  4  1  0  0  0  0
  9 16  2  0  0  0  0
 10 16  1  0  0  0  0
 11 14  1  0  0  0  0
 12 19  2  0  0  0  0
 13  8  2  0  0  0  0
 13 14  1  0  0  0  0
 14 10  2  0  0  0  0
 15 13  1  0  0  0  0
 17 15  1  0  0  0  0
 17 19  1  0  0  0  0
 18 15  2  0  0  0  0
 19 11  1  0  0  0  0
 20  2  1  0  0  0  0
 21 27  1  0  0  0  0
 22 26  1  0  0  0  0
 22 25  1  0  0  0  0
 23 28  2  0  0  0  0
 23 20  1  0  0  0  0
 25 27  1  0  0  0  0
 26 24  1  1  0  0  0
 26 21  1  0  0  0  0
 27 23  1  0  0  0  0
M  END
>  <MODEL>
3

>  <REMARK>
 VINA RESULT:      -9.8      2.686      6.246
  Name = 
  3 active torsions:
  status: ('A' for Active; 'I' for Inactive)
    1  A    between atoms: N_5  and  C_24
    2  A    between atoms: C_6  and  C_14
    3  A    between atoms: C_7  and  C_24
                            x       y       z     vdW  Elec       q    Type
                         _______ _______ _______ _____ _____    ______ ____

>  <TORSDO>
F 3

$$$$
=
 OpenBabel10222416553D

 28 31  0  0  1  0  0  0  0  0999 V2000
  191.6410  176.8680  145.4480 C   0  0  0  0  0  3  0  0  0  0  0  0
  191.7540  177.4440  143.0790 N   0  0  0  0  0  2  0  0  0  0  0  0
  189.5530  177.0850  146.6400 C   0  0  0  0  0  3  0  0  0  0  0  0
  188.9400  177.5400  145.4630 C   0  0  0  0  0  0  0  0  0  0  0  0
  190.9060  176.7500  146.6270 C   0  0  0  0  0  3  0  0  0  0  0  0
  191.0060  177.3230  144.2910 C   0  0  0  0  0  0  0  0  0  0  0  0
  189.6830  177.6470  144.3250 N   0  0  0  0  0  0  0  0  0  0  0  0
  186.7940  177.9530  144.2360 C   0  0  0  0  0  3  0  0  0  0  0  0
  187.5070  177.9010  145.4430 C   0  0  0  0  0  0  0  0  0  0  0  0
  185.4850  178.5400  146.6310 C   0  0  0  0  0  3  0  0  0  0  0  0
  183.4300  178.9440  145.4360 O   0  0  0  0  0  0  0  0  0  0  0  0
  181.4530  179.3650  144.3540 O   0  0  0  0  0  0  0  0  0  0  0  0
  185.4350  178.2940  144.2200 C   0  0  0  0  0  0  0  0  0  0  0  0
  184.7800  178.5900  145.4250 C   0  0  0  0  0  0  0  0  0  0  0  0
  184.6850  178.3480  142.9530 C   0  0  0  0  0  0  0  0  0  0  0  0
  186.8390  178.1970  146.6410 C   0  0  0  0  0  3  0  0  0  0  0  0
  183.2110  178.6280  142.9300 C   0  0  0  0  0  2  0  0  0  0  0  0
  185.2750  178.1350  141.8610 O   0  0  0  0  0  0  0  0  0  0  0  0
  182.6550  179.0040  144.2730 C   0  0  0  0  0  0  0  0  0  0  0  0
  191.1630  177.8770  141.8200 C   0  0  0  0  0  2  0  0  0  0  0  0
  189.8870  177.2670  139.1690 C   0  0  0  0  0  2  0  0  0  0  0  0
  190.9540  176.3140  137.1960 C   0  0  0  0  0  2  0  0  0  0  0  0
  191.9390  177.3310  140.6640 C   0  0  0  0  0  0  0  0  0  0  0  0
  188.4970  176.0610  137.5020 C   0  0  0  0  0  1  0  0  0  0  0  0
  192.0140  176.5680  138.2510 C   0  0  0  0  0  2  0  0  0  0  0  0
  189.6810  176.9860  137.6930 C   0  0  1  0  0  3  0  0  0  0  0  0
  191.3020  177.0660  139.4080 N   0  0  0  0  0  0  0  0  0  0  0  0
  193.1740  177.1240  140.8020 O   0  0  0  0  0  0  0  0  0  0  0  0
  1  5  2  0  0  0  0
  2  6  1  0  0  0  0
  4  3  2  0  0  0  0
  5  3  1  0  0  0  0
  6  7  2  0  0  0  0
  6  1  1  0  0  0  0
  7  4  1  0  0  0  0
  8  9  1  0  0  0  0
  9  4  1  0  0  0  0
  9 16  2  0  0  0  0
 10 16  1  0  0  0  0
 13  8  2  0  0  0  0
 13 14  1  0  0  0  0
 14 11  1  0  0  0  0
 14 10  2  0  0  0  0
 15 13  1  0  0  0  0
 17 15  1  0  0  0  0
 17 19  1  0  0  0  0
 18 15  2  0  0  0  0
 19 12  2  0  0  0  0
 19 11  1  0  0  0  0
 20  2  1  0  0  0  0
 21 27  1  0  0  0  0
 22 26  1  0  0  0  0
 22 25  1  0  0  0  0
 23 28  2  0  0  0  0
 23 20  1  0  0  0  0
 25 27  1  0  0  0  0
 26 24  1  1  0  0  0
 26 21  1  0  0  0  0
 27 23  1  0  0  0  0
M  END
>  <MODEL>
4

>  <REMARK>
 VINA RESULT:      -9.7      3.050      6.184
  Name = 
  3 active torsions:
  status: ('A' for Active; 'I' for Inactive)
    1  A    between atoms: N_5  and  C_24
    2  A    between atoms: C_6  and  C_14
    3  A    between atoms: C_7  and  C_24
                            x       y       z     vdW  Elec       q    Type
                         _______ _______ _______ _____ _____    ______ ____

>  <TORSDO>
F 3

$$$$
=
 OpenBabel10222416553D

 28 31  0  0  1  0  0  0  0  0999 V2000
  187.2680  178.0840  146.9220 C   0  0  0  0  0  3  0  0  0  0  0  0
  188.7670  177.0200  145.3160 N   0  0  0  0  0  2  0  0  0  0  0  0
  185.1070  178.8850  146.2020 C   0  0  0  0  0  3  0  0  0  0  0  0
  185.3890  178.4460  144.9000 C   0  0  0  0  0  0  0  0  0  0  0  0
  186.0520  178.7020  147.2110 C   0  0  0  0  0  3  0  0  0  0  0  0
  187.5230  177.6560  145.6180 C   0  0  0  0  0  0  0  0  0  0  0  0
  186.5870  177.8460  144.6460 N   0  0  0  0  0  0  0  0  0  0  0  0
  184.8250  178.7130  142.4730 C   0  0  0  0  0  3  0  0  0  0  0  0
  184.4080  178.6220  143.8100 C   0  0  0  0  0  0  0  0  0  0  0  0
  182.1030  178.8700  143.0760 C   0  0  0  0  0  3  0  0  0  0  0  0
  181.5760  179.1370  140.7390 O   0  0  0  0  0  0  0  0  0  0  0  0
  181.0140  179.4180  138.5340 O   0  0  0  0  0  0  0  0  0  0  0  0
  183.8920  178.8800  141.4400 C   0  0  0  0  0  0  0  0  0  0  0  0
  182.5250  178.9600  141.7470 C   0  0  0  0  0  0  0  0  0  0  0  0
  184.3290  178.9730  140.0360 C   0  0  0  0  0  0  0  0  0  0  0  0
  183.0380  178.7010  144.1010 C   0  0  0  0  0  3  0  0  0  0  0  0
  183.3370  179.0670  138.9150 C   0  0  0  0  0  2  0  0  0  0  0  0
  185.5570  178.9560  139.7550 O   0  0  0  0  0  0  0  0  0  0  0  0
  181.9200  179.2230  139.3850 C   0  0  0  0  0  0  0  0  0  0  0  0
  189.0990  176.5130  143.9920 C   0  0  0  0  0  2  0  0  0  0  0  0
  189.9450  176.8900  141.1330 C   0  0  0  0  0  2  0  0  0  0  0  0
  192.1650  177.4670  140.3090 C   0  0  0  0  0  2  0  0  0  0  0  0
  190.4900  176.9130  143.6140 C   0  0  0  0  0  0  0  0  0  0  0  0
  190.5780  176.2670  138.8150 C   0  0  0  0  0  1  0  0  0  0  0  0
  192.1770  177.5160  141.8250 C   0  0  0  0  0  2  0  0  0  0  0  0
  190.7060  177.3210  139.8950 C   0  0  1  0  0  3  0  0  0  0  0  0
  190.8550  177.1000  142.2410 N   0  0  0  0  0  0  0  0  0  0  0  0
  191.3380  177.1060  144.5250 O   0  0  0  0  0  0  0  0  0  0  0  0
  1  5  2  0  0  0  0
  2  6  1  0  0  0  0
  3  5  1  0  0  0  0
  4  3  2  0  0  0  0
  6  1  1  0  0  0  0
  7  4  1  0  0  0  0
  7  6  2  0  0  0  0
  8  9  1  0  0  0  0
  9 16  2  0  0  0  0
  9  4  1  0  0  0  0
 10 16  1  0  0  0  0
 11 14  1  0  0  0  0
 12 19  2  0  0  0  0
 13 14  1  0  0  0  0
 13  8  2  0  0  0  0
 14 10  2  0  0  0  0
 15 13  1  0  0  0  0
 17 19  1  0  0  0  0
 17 15  1  0  0  0  0
 18 15  2  0  0  0  0
 19 11  1  0  0  0  0
 20  2  1  0  0  0  0
 21 27  1  0  0  0  0
 22 25  1  0  0  0  0
 23 20  1  0  0  0  0
 23 28  2  0  0  0  0
 25 27  1  0  0  0  0
 26 24  1  6  0  0  0
 26 22  1  0  0  0  0
 26 21  1  0  0  0  0
 27 23  1  0  0  0  0
M  END
>  <MODEL>
5

>  <REMARK>
 VINA RESULT:      -9.5      2.494      7.097
  Name = 
  3 active torsions:
  status: ('A' for Active; 'I' for Inactive)
    1  A    between atoms: N_5  and  C_24
    2  A    between atoms: C_6  and  C_14
    3  A    between atoms: C_7  and  C_24
                            x       y       z     vdW  Elec       q    Type
                         _______ _______ _______ _____ _____    ______ ____

>  <TORSDO>
F 3

$$$$
=
 OpenBabel10222416553D

 28 31  0  0  1  0  0  0  0  0999 V2000
  189.2800  177.2680  145.5600 C   0  0  0  0  0  3  0  0  0  0  0  0
  190.0440  177.7800  143.2990 N   0  0  0  0  0  2  0  0  0  0  0  0
  186.9470  177.5210  146.1280 C   0  0  0  0  0  3  0  0  0  0  0  0
  186.6840  177.9450  144.8170 C   0  0  0  0  0  0  0  0  0  0  0  0
  188.2490  177.1830  146.4950 C   0  0  0  0  0  3  0  0  0  0  0  0
  188.9910  177.6920  144.2620 C   0  0  0  0  0  0  0  0  0  0  0  0
  187.7120  178.0200  143.9240 N   0  0  0  0  0  0  0  0  0  0  0  0
  184.9390  178.2550  143.0440 C   0  0  0  0  0  3  0  0  0  0  0  0
  185.3150  178.3070  144.3950 C   0  0  0  0  0  0  0  0  0  0  0  0
  183.0720  179.0560  144.9590 C   0  0  0  0  0  3  0  0  0  0  0  0
  181.4070  179.3590  143.2430 O   0  0  0  0  0  0  0  0  0  0  0  0
  179.7870  179.6890  141.6530 O   0  0  0  0  0  0  0  0  0  0  0  0
  183.6400  178.5980  142.6480 C   0  0  0  0  0  0  0  0  0  0  0  0
  182.7040  179.0010  143.6120 C   0  0  0  0  0  0  0  0  0  0  0  0
  183.2440  178.5410  141.2300 C   0  0  0  0  0  0  0  0  0  0  0  0
  184.3680  178.7100  145.3490 C   0  0  0  0  0  3  0  0  0  0  0  0
  181.8340  178.8240  140.8020 C   0  0  0  0  0  2  0  0  0  0  0  0
  184.0910  178.2320  140.3500 O   0  0  0  0  0  0  0  0  0  0  0  0
  180.9600  179.3180  141.9170 C   0  0  0  0  0  0  0  0  0  0  0  0
  189.8240  178.1800  141.9150 C   0  0  0  0  0  2  0  0  0  0  0  0
  189.3800  178.3600  138.9490 C   0  0  0  0  0  2  0  0  0  0  0  0
  189.7360  176.6110  137.2890 C   0  0  0  0  0  2  0  0  0  0  0  0
  190.1230  177.0440  140.9900 C   0  0  0  0  0  0  0  0  0  0  0  0
  188.1300  178.4500  136.8060 C   0  0  0  0  0  1  0  0  0  0  0  0
  190.2170  176.1110  138.6380 C   0  0  0  0  0  2  0  0  0  0  0  0
  189.4510  178.0980  137.4580 C   0  0  1  0  0  3  0  0  0  0  0  0
  189.9140  177.1690  139.5780 N   0  0  0  0  0  0  0  0  0  0  0  0
  190.5840  175.9730  141.4680 O   0  0  0  0  0  0  0  0  0  0  0  0
  1  5  2  0  0  0  0
  2  6  1  0  0  0  0
  3  5  1  0  0  0  0
  4  3  2  0  0  0  0
  6  1  1  0  0  0  0
  7  6  2  0  0  0  0
  7  4  1  0  0  0  0
  8  9  1  0  0  0  0
  9  4  1  0  0  0  0
  9 16  2  0  0  0  0
 10 16  1  0  0  0  0
 11 14  1  0  0  0  0
 12 19  2  0  0  0  0
 13  8  2  0  0  0  0
 13 14  1  0  0  0  0
 14 10  2  0  0  0  0
 15 13  1  0  0  0  0
 17 15  1  0  0  0  0
 17 19  1  0  0  0  0
 18 15  2  0  0  0  0
 19 11  1  0  0  0  0
 20  2  1  0  0  0  0
 21 27  1  0  0  0  0
 22 26  1  0  0  0  0
 22 25  1  0  0  0  0
 23 28  2  0  0  0  0
 23 20  1  0  0  0  0
 25 27  1  0  0  0  0
 26 24  1  6  0  0  0
 26 21  1  0  0  0  0
 27 23  1  0  0  0  0
M  END
>  <MODEL>
6

>  <REMARK>
 VINA RESULT:      -9.4      2.514      6.488
  Name = 
  3 active torsions:
  status: ('A' for Active; 'I' for Inactive)
    1  A    between atoms: N_5  and  C_24
    2  A    between atoms: C_6  and  C_14
    3  A    between atoms: C_7  and  C_24
                            x       y       z     vdW  Elec       q    Type
                         _______ _______ _______ _____ _____    ______ ____

>  <TORSDO>
F 3

$$$$
=
 OpenBabel10222416553D

 28 31  0  0  1  0  0  0  0  0999 V2000
  184.7570  178.9560  141.0540 C   0  0  0  0  0  3  0  0  0  0  0  0
  186.5750  178.6240  139.4610 N   0  0  0  0  0  2  0  0  0  0  0  0
  185.1380  178.5830  143.4090 C   0  0  0  0  0  3  0  0  0  0  0  0
  186.4680  178.2380  143.1290 C   0  0  0  0  0  0  0  0  0  0  0  0
  184.2840  178.9420  142.3660 C   0  0  0  0  0  3  0  0  0  0  0  0
  186.0850  178.6090  140.8030 C   0  0  0  0  0  0  0  0  0  0  0  0
  186.9020  178.2600  141.8360 N   0  0  0  0  0  0  0  0  0  0  0  0
  188.7230  177.4890  143.9280 C   0  0  0  0  0  3  0  0  0  0  0  0
  187.3980  177.8570  144.2120 C   0  0  0  0  0  0  0  0  0  0  0  0
  187.8360  177.4970  146.5760 C   0  0  0  0  0  3  0  0  0  0  0  0
  190.0070  176.7670  147.3290 O   0  0  0  0  0  0  0  0  0  0  0  0
  192.0420  176.0500  148.1050 O   0  0  0  0  0  0  0  0  0  0  0  0
  189.6030  177.1290  144.9570 C   0  0  0  0  0  0  0  0  0  0  0  0
  189.1540  177.1320  146.2860 C   0  0  0  0  0  0  0  0  0  0  0  0
  190.9940  176.7450  144.6600 C   0  0  0  0  0  0  0  0  0  0  0  0
  186.9640  177.8580  145.5460 C   0  0  0  0  0  3  0  0  0  0  0  0
  191.9700  176.4390  145.7580 C   0  0  0  0  0  2  0  0  0  0  0  0
  191.3920  176.6880  143.4670 O   0  0  0  0  0  0  0  0  0  0  0  0
  191.3410  176.4020  147.1210 C   0  0  0  0  0  0  0  0  0  0  0  0
  187.9550  178.3090  139.1150 C   0  0  0  0  0  2  0  0  0  0  0  0
  187.1020  176.2210  137.1310 C   0  0  0  0  0  2  0  0  0  0  0  0
  187.4250  176.2520  134.7150 C   0  0  0  0  0  2  0  0  0  0  0  0
  188.1730  178.4660  137.6440 C   0  0  0  0  0  0  0  0  0  0  0  0
  187.1360  174.0740  135.8840 C   0  0  0  0  0  1  0  0  0  0  0  0
  187.8980  177.5740  135.2900 C   0  0  0  0  0  2  0  0  0  0  0  0
  186.7050  175.5250  135.8440 C   0  0  1  0  0  3  0  0  0  0  0  0
  187.7390  177.4560  136.7240 N   0  0  0  0  0  0  0  0  0  0  0  0
  188.7280  179.5130  137.2160 O   0  0  0  0  0  0  0  0  0  0  0  0
  1  5  2  0  0  0  0
  2  6  1  0  0  0  0
  4  3  2  0  0  0  0
  4  9  1  0  0  0  0
  5  3  1  0  0  0  0
  6  1  1  0  0  0  0
  6  7  2  0  0  0  0
  7  4  1  0  0  0  0
  8  9  2  0  0  0  0
  8 13  1  0  0  0  0
  9 16  1  0  0  0  0
 13 14  2  0  0  0  0
 14 10  1  0  0  0  0
 14 11  1  0  0  0  0
 15 13  1  0  0  0  0
 15 17  1  0  0  0  0
 16 10  2  0  0  0  0
 17 19  1  0  0  0  0
 18 15  2  0  0  0  0
 19 11  1  0  0  0  0
 19 12  2  0  0  0  0
 20  2  1  0  0  0  0
 22 25  1  0  0  0  0
 22 26  1  0  0  0  0
 23 20  1  0  0  0  0
 25 27  1  0  0  0  0
 26 24  1  1  0  0  0
 26 21  1  0  0  0  0
 27 21  1  0  0  0  0
 27 23  1  0  0  0  0
 28 23  2  0  0  0  0
M  END
>  <MODEL>
7

>  <REMARK>
 VINA RESULT:      -9.4      1.642      2.350
  Name = 
  3 active torsions:
  status: ('A' for Active; 'I' for Inactive)
    1  A    between atoms: N_5  and  C_24
    2  A    between atoms: C_6  and  C_14
    3  A    between atoms: C_7  and  C_24
                            x       y       z     vdW  Elec       q    Type
                         _______ _______ _______ _____ _____    ______ ____

>  <TORSDO>
F 3

$$$$
=
 OpenBabel10222416553D

 28 31  0  0  1  0  0  0  0  0999 V2000
  185.0670  178.6190  146.6120 C   0  0  0  0  0  3  0  0  0  0  0  0
  183.4380  179.0350  144.8430 N   0  0  0  0  0  2  0  0  0  0  0  0
  187.2880  177.8600  146.0480 C   0  0  0  0  0  3  0  0  0  0  0  0
  186.9400  177.8830  144.6890 C   0  0  0  0  0  0  0  0  0  0  0  0
  186.3460  178.2280  147.0070 C   0  0  0  0  0  3  0  0  0  0  0  0
  184.7470  178.6340  145.2530 C   0  0  0  0  0  0  0  0  0  0  0  0
  185.6820  178.2680  144.3320 N   0  0  0  0  0  0  0  0  0  0  0  0
  187.7450  177.9070  142.3150 C   0  0  0  0  0  3  0  0  0  0  0  0
  187.9170  177.5010  143.6480 C   0  0  0  0  0  0  0  0  0  0  0  0
  189.9620  176.3550  143.0050 C   0  0  0  0  0  3  0  0  0  0  0  0
  190.7190  176.3780  140.7160 O   0  0  0  0  0  0  0  0  0  0  0  0
  191.4770  176.3430  138.5520 O   0  0  0  0  0  0  0  0  0  0  0  0
  188.6730  177.5440  141.3300 C   0  0  0  0  0  0  0  0  0  0  0  0
  189.7850  176.7630  141.6790 C   0  0  0  0  0  0  0  0  0  0  0  0
  188.4950  177.9710  139.9320 C   0  0  0  0  0  0  0  0  0  0  0  0
  189.0350  176.7230  143.9830 C   0  0  0  0  0  3  0  0  0  0  0  0
  189.5240  177.6610  138.8850 C   0  0  0  0  0  2  0  0  0  0  0  0
  187.4740  178.6280  139.5970 O   0  0  0  0  0  0  0  0  0  0  0  0
  190.6180  176.7570  139.3730 C   0  0  0  0  0  0  0  0  0  0  0  0
  183.0320  179.1120  143.4460 C   0  0  0  0  0  2  0  0  0  0  0  0
  181.7180  178.7460  140.7690 C   0  0  0  0  0  2  0  0  0  0  0  0
  179.3710  178.2640  140.3240 C   0  0  0  0  0  2  0  0  0  0  0  0
  181.5830  178.7730  143.3040 C   0  0  0  0  0  0  0  0  0  0  0  0
  180.7470  179.3750  138.5720 C   0  0  0  0  0  1  0  0  0  0  0  0
  179.6020  178.2310  141.8230 C   0  0  0  0  0  2  0  0  0  0  0  0
  180.7480  178.3390  139.6770 C   0  0  1  0  0  3  0  0  0  0  0  0
  180.9920  178.5900  142.0120 N   0  0  0  0  0  0  0  0  0  0  0  0
  180.8850  178.6280  144.3440 O   0  0  0  0  0  0  0  0  0  0  0  0
  1  5  2  0  0  0  0
  2  6  1  0  0  0  0
  3  5  1  0  0  0  0
  4  3  2  0  0  0  0
  6  1  1  0  0  0  0
  7  4  1  0  0  0  0
  7  6  2  0  0  0  0
  8  9  1  0  0  0  0
  9 16  2  0  0  0  0
  9  4  1  0  0  0  0
 10 16  1  0  0  0  0
 11 14  1  0  0  0  0
 12 19  2  0  0  0  0
 13 14  1  0  0  0  0
 13  8  2  0  0  0  0
 14 10  2  0  0  0  0
 15 13  1  0  0  0  0
 17 19  1  0  0  0  0
 17 15  1  0  0  0  0
 18 15  2  0  0  0  0
 19 11  1  0  0  0  0
 20  2  1  0  0  0  0
 21 27  1  0  0  0  0
 22 25  1  0  0  0  0
 23 20  1  0  0  0  0
 23 28  2  0  0  0  0
 25 27  1  0  0  0  0
 26 24  1  6  0  0  0
 26 22  1  0  0  0  0
 26 21  1  0  0  0  0
 27 23  1  0  0  0  0
M  END
>  <MODEL>
8

>  <REMARK>
 VINA RESULT:      -9.3      3.087      5.691
  Name = 
  3 active torsions:
  status: ('A' for Active; 'I' for Inactive)
    1  A    between atoms: N_5  and  C_24
    2  A    between atoms: C_6  and  C_14
    3  A    between atoms: C_7  and  C_24
                            x       y       z     vdW  Elec       q    Type
                         _______ _______ _______ _____ _____    ______ ____

>  <TORSDO>
F 3

$$$$
=
 OpenBabel10222416553D

 28 31  0  0  1  0  0  0  0  0999 V2000
  190.9060  176.8930  143.4660 C   0  0  0  0  0  3  0  0  0  0  0  0
  190.7710  177.4300  141.0900 N   0  0  0  0  0  2  0  0  0  0  0  0
  188.9550  177.1380  144.8680 C   0  0  0  0  0  3  0  0  0  0  0  0
  188.2230  177.5770  143.7550 C   0  0  0  0  0  0  0  0  0  0  0  0
  190.2990  176.7970  144.7190 C   0  0  0  0  0  3  0  0  0  0  0  0
  190.1540  177.3320  142.3750 C   0  0  0  0  0  0  0  0  0  0  0  0
  188.8430  177.6620  142.5430 N   0  0  0  0  0  0  0  0  0  0  0  0
  185.9640  177.9930  142.7510 C   0  0  0  0  0  3  0  0  0  0  0  0
  186.7970  177.9430  143.8800 C   0  0  0  0  0  0  0  0  0  0  0  0
  184.9080  178.5950  145.2650 C   0  0  0  0  0  3  0  0  0  0  0  0
  182.7440  179.0020  144.2840 O   0  0  0  0  0  0  0  0  0  0  0  0
  180.6680  179.4250  143.4070 O   0  0  0  0  0  0  0  0  0  0  0  0
  184.6120  178.3390  142.8720 C   0  0  0  0  0  0  0  0  0  0  0  0
  184.0840  178.6430  144.1360 C   0  0  0  0  0  0  0  0  0  0  0  0
  183.7360  178.3900  141.6880 C   0  0  0  0  0  0  0  0  0  0  0  0
  186.2550  178.2460  145.1370 C   0  0  0  0  0  3  0  0  0  0  0  0
  182.2700  178.6760  141.8150 C   0  0  0  0  0  2  0  0  0  0  0  0
  184.2120  178.1710  140.5420 O   0  0  0  0  0  0  0  0  0  0  0  0
  181.8540  179.0590  143.2050 C   0  0  0  0  0  0  0  0  0  0  0  0
  190.0510  177.8460  139.8930 C   0  0  0  0  0  2  0  0  0  0  0  0
  187.7160  177.7200  138.0070 C   0  0  0  0  0  2  0  0  0  0  0  0
  187.1040  175.8830  136.5270 C   0  0  0  0  0  2  0  0  0  0  0  0
  189.8060  176.6730  138.9990 C   0  0  0  0  0  0  0  0  0  0  0  0
  185.3560  177.4900  137.2710 C   0  0  0  0  0  1  0  0  0  0  0  0
  188.4280  175.5560  137.1920 C   0  0  0  0  0  2  0  0  0  0  0  0
  186.8050  177.3400  136.8570 C   0  0  1  0  0  3  0  0  0  0  0  0
  188.6910  176.6530  138.0990 N   0  0  0  0  0  0  0  0  0  0  0  0
  190.6100  175.7030  139.0300 O   0  0  0  0  0  0  0  0  0  0  0  0
  1  5  2  0  0  0  0
  2  6  1  0  0  0  0
  4  9  1  0  0  0  0
  4  3  2  0  0  0  0
  5  3  1  0  0  0  0
  6  7  2  0  0  0  0
  6  1  1  0  0  0  0
  7  4  1  0  0  0  0
  8 13  2  0  0  0  0
  8  9  1  0  0  0  0
  9 16  2  0  0  0  0
 13 14  1  0  0  0  0
 14 11  1  0  0  0  0
 14 10  2  0  0  0  0
 15 17  1  0  0  0  0
 15 13  1  0  0  0  0
 16 10  1  0  0  0  0
 17 19  1  0  0  0  0
 18 15  2  0  0  0  0
 19 12  2  0  0  0  0
 19 11  1  0  0  0  0
 20  2  1  0  0  0  0
 21 27  1  0  0  0  0
 22 26  1  0  0  0  0
 22 25  1  0  0  0  0
 23 28  2  0  0  0  0
 23 20  1  0  0  0  0
 25 27  1  0  0  0  0
 26 24  1  1  0  0  0
 26 21  1  0  0  0  0
 27 23  1  0  0  0  0
M  END
>  <MODEL>
9

>  <REMARK>
 VINA RESULT:      -9.3      3.110      6.137
  Name = 
  3 active torsions:
  status: ('A' for Active; 'I' for Inactive)
    1  A    between atoms: N_5  and  C_24
    2  A    between atoms: C_6  and  C_14
    3  A    between atoms: C_7  and  C_24
                            x       y       z     vdW  Elec       q    Type
                         _______ _______ _______ _____ _____    ______ ____

>  <TORSDO>
F 3

$$$$
