=
 OpenBabel10222417103D

 25 27  0  0  1  0  0  0  0  0999 V2000
  187.1470  177.8620  145.0640 C   0  0  0  0  0  0  0  0  0  0  0  0
  186.7000  177.8940  143.8870 O   0  0  0  0  0  0  0  0  0  0  0  0
  189.4950  177.1870  144.3710 N   0  0  0  0  0  0  0  0  0  0  0  0
  188.9690  177.4930  146.7090 C   0  0  0  0  0  0  0  0  0  0  0  0
  188.5730  177.5020  145.3550 C   0  0  0  0  0  0  0  0  0  0  0  0
  188.3350  177.8280  148.9780 O   0  0  0  0  0  0  0  0  0  0  0  0
  186.6490  178.1640  147.4130 N   0  0  0  0  0  0  0  0  0  0  0  0
  191.6430  176.5700  143.8360 O   0  0  0  0  0  0  0  0  0  0  0  0
  187.9950  177.8300  147.7650 C   0  0  0  0  0  0  0  0  0  0  0  0
  190.7890  176.8620  144.7170 C   0  0  0  0  0  0  0  0  0  0  0  0
  190.2780  177.1640  147.0460 C   0  0  0  0  0  3  0  0  0  0  0  0
  184.8120  178.5440  145.9110 C   0  0  0  0  0  1  0  0  0  0  0  0
  186.2320  178.1860  146.1830 C   0  0  0  0  0  0  0  0  0  0  0  0
  191.1900  176.8480  146.0500 C   0  0  0  0  0  3  0  0  0  0  0  0
  189.7880  176.1190  142.1400 C   0  0  0  0  0  2  0  0  0  0  0  0
  190.2840  176.7960  140.8730 C   0  0  2  0  0  3  0  0  0  0  0  0
  189.3700  178.5280  142.2810 C   0  0  0  0  0  2  0  0  0  0  0  0
  189.0920  177.1980  142.9540 C   0  0  2  0  0  3  0  0  0  0  0  0
  189.6540  178.1750  140.8400 C   0  0  0  0  0  2  0  0  0  0  0  0
  189.8660  176.0370  139.7040 N   0  0  0  0  0  2  0  0  0  0  0  0
  191.1370  176.1240  138.5290 S   0  0  0  0  0  0  0  0  0  0  0  0
  192.3220  176.8450  139.1100 O   0  0  0  0  0  0  0  0  0  0  0  0
  191.5490  174.7380  138.1190 O   0  0  0  0  0  0  0  0  0  0  0  0
  189.0880  177.3440  137.2550 C   0  0  0  0  0  1  0  0  0  0  0  0
  190.5550  177.0030  137.0950 C   0  0  0  0  0  2  0  0  0  0  0  0
  1  5  1  0  0  0  0
  1 13  1  0  0  0  0
  2  1  2  0  0  0  0
  3 10  1  0  0  0  0
  3  5  1  0  0  0  0
  4 11  1  0  0  0  0
  4  9  1  0  0  0  0
  5  4  2  0  0  0  0
  7  9  1  0  0  0  0
  8 10  2  0  0  0  0
  9  6  2  0  0  0  0
 10 14  1  0  0  0  0
 12 13  1  0  0  0  0
 13  7  2  0  0  0  0
 14 11  2  0  0  0  0
 16 20  1  6  0  0  0
 16 15  1  0  0  0  0
 17 18  1  0  0  0  0
 18 15  1  6  0  0  0
 18  3  1  0  0  0  0
 19 16  1  0  0  0  0
 19 17  1  0  0  0  0
 21 22  2  0  0  0  0
 21 20  1  0  0  0  0
 23 21  2  0  0  0  0
 25 24  1  0  0  0  0
 25 21  1  0  0  0  0
M  END
>  <MODEL>
1

>  <REMARK>
 VINA RESULT:      -7.9      0.000      0.000
  Name = 
  4 active torsions:
  status: ('A' for Active; 'I' for Inactive)
    1  A    between atoms: S_1  and  N_7
    2  A    between atoms: S_1  and  C_25
    3  A    between atoms: C_5  and  N_7
    4  A    between atoms: C_8  and  N_11
                            x       y       z     vdW  Elec       q    Type
                         _______ _______ _______ _____ _____    ______ ____

>  <TORSDO>
F 4

$$$$
=
 OpenBabel10222417103D

 25 27  0  0  1  0  0  0  0  0999 V2000
  187.1800  177.8490  145.0830 C   0  0  0  0  0  0  0  0  0  0  0  0
  186.7530  177.8400  143.8980 O   0  0  0  0  0  0  0  0  0  0  0  0
  189.5380  177.1490  144.4550 N   0  0  0  0  0  0  0  0  0  0  0  0
  188.9730  177.5380  146.7710 C   0  0  0  0  0  0  0  0  0  0  0  0
  188.6000  177.4990  145.4100 C   0  0  0  0  0  0  0  0  0  0  0  0
  188.3010  177.9530  149.0150 O   0  0  0  0  0  0  0  0  0  0  0  0
  186.6430  178.2340  147.4110 N   0  0  0  0  0  0  0  0  0  0  0  0
  191.6950  176.5110  143.9780 O   0  0  0  0  0  0  0  0  0  0  0  0
  187.9820  177.9120  147.7980 C   0  0  0  0  0  0  0  0  0  0  0  0
  190.8260  176.8350  144.8340 C   0  0  0  0  0  0  0  0  0  0  0  0
  190.2760  177.2190  147.1410 C   0  0  0  0  0  3  0  0  0  0  0  0
  184.8320  178.5630  145.8660 C   0  0  0  0  0  1  0  0  0  0  0  0
  186.2460  178.2130  146.1740 C   0  0  0  0  0  0  0  0  0  0  0  0
  191.2040  176.8670  146.1730 C   0  0  0  0  0  3  0  0  0  0  0  0
  189.9480  176.0750  142.2450 C   0  0  0  0  0  2  0  0  0  0  0  0
  190.4130  176.7690  140.9750 C   0  0  2  0  0  3  0  0  0  0  0  0
  189.3500  178.4470  142.3430 C   0  0  0  0  0  2  0  0  0  0  0  0
  189.1600  177.1100  143.0320 C   0  0  2  0  0  3  0  0  0  0  0  0
  189.6830  178.0970  140.9120 C   0  0  0  0  0  2  0  0  0  0  0  0
  190.0740  175.9650  139.8120 N   0  0  0  0  0  2  0  0  0  0  0  0
  191.2030  176.3430  138.5530 S   0  0  0  0  0  0  0  0  0  0  0  0
  190.5960  177.3380  137.6030 O   0  0  0  0  0  0  0  0  0  0  0  0
  192.4550  176.9240  139.1490 O   0  0  0  0  0  0  0  0  0  0  0  0
  193.1230  174.6750  137.6350 C   0  0  0  0  0  1  0  0  0  0  0  0
  191.6190  174.8560  137.6670 C   0  0  0  0  0  2  0  0  0  0  0  0
  1  5  1  0  0  0  0
  1 13  1  0  0  0  0
  2  1  2  0  0  0  0
  3 10  1  0  0  0  0
  3  5  1  0  0  0  0
  4 11  1  0  0  0  0
  4  9  1  0  0  0  0
  5  4  2  0  0  0  0
  7  9  1  0  0  0  0
  8 10  2  0  0  0  0
  9  6  2  0  0  0  0
 10 14  1  0  0  0  0
 12 13  1  0  0  0  0
 13  7  2  0  0  0  0
 14 11  2  0  0  0  0
 16 20  1  6  0  0  0
 16 15  1  0  0  0  0
 17 18  1  0  0  0  0
 18 15  1  6  0  0  0
 18  3  1  0  0  0  0
 19 16  1  0  0  0  0
 19 17  1  0  0  0  0
 21 23  2  0  0  0  0
 21 20  1  0  0  0  0
 22 21  2  0  0  0  0
 24 25  1  0  0  0  0
 25 21  1  0  0  0  0
M  END
>  <MODEL>
2

>  <REMARK>
 VINA RESULT:      -7.8      1.017      1.298
  Name = 
  4 active torsions:
  status: ('A' for Active; 'I' for Inactive)
    1  A    between atoms: S_1  and  N_7
    2  A    between atoms: S_1  and  C_25
    3  A    between atoms: C_5  and  N_7
    4  A    between atoms: C_8  and  N_11
                            x       y       z     vdW  Elec       q    Type
                         _______ _______ _______ _____ _____    ______ ____

>  <TORSDO>
F 4

$$$$
=
 OpenBabel10222417103D

 25 27  0  0  1  0  0  0  0  0999 V2000
  190.1020  177.1340  145.5800 C   0  0  0  0  0  0  0  0  0  0  0  0
  190.9510  177.0450  144.6540 O   0  0  0  0  0  0  0  0  0  0  0  0
  188.1740  177.7160  144.0350 N   0  0  0  0  0  0  0  0  0  0  0  0
  187.8030  177.5530  146.4160 C   0  0  0  0  0  0  0  0  0  0  0  0
  188.6700  177.4770  145.3050 C   0  0  0  0  0  0  0  0  0  0  0  0
  187.5570  177.3600  148.7750 O   0  0  0  0  0  0  0  0  0  0  0  0
  189.7010  176.9750  147.9620 N   0  0  0  0  0  0  0  0  0  0  0  0
  186.3730  178.2530  142.7110 O   0  0  0  0  0  0  0  0  0  0  0  0
  188.3200  177.2980  147.7740 C   0  0  0  0  0  0  0  0  0  0  0  0
  186.8430  178.0300  143.8600 C   0  0  0  0  0  0  0  0  0  0  0  0
  186.4610  177.8720  146.2270 C   0  0  0  0  0  3  0  0  0  0  0  0
  191.9620  176.5520  147.2660 C   0  0  0  0  0  1  0  0  0  0  0  0
  190.5420  176.8940  146.9740 C   0  0  0  0  0  0  0  0  0  0  0  0
  185.9800  178.1110  144.9490 C   0  0  0  0  0  3  0  0  0  0  0  0
  188.6710  178.5910  141.7560 C   0  0  0  0  0  2  0  0  0  0  0  0
  188.7100  177.7860  140.4680 C   0  0  2  0  0  3  0  0  0  0  0  0
  189.1240  176.2410  142.2720 C   0  0  0  0  0  2  0  0  0  0  0  0
  189.0690  177.6340  142.8680 C   0  0  2  0  0  3  0  0  0  0  0  0
  189.3740  176.4640  140.8000 C   0  0  0  0  0  2  0  0  0  0  0  0
  189.4900  178.4890  139.4620 N   0  0  0  0  0  2  0  0  0  0  0  0
  188.5960  178.4630  137.9770 S   0  0  0  0  0  0  0  0  0  0  0  0
  187.1310  178.2890  138.2660 O   0  0  0  0  0  0  0  0  0  0  0  0
  188.8070  179.7510  137.2320 O   0  0  0  0  0  0  0  0  0  0  0  0
  190.5840  176.7400  137.3510 C   0  0  0  0  0  1  0  0  0  0  0  0
  189.1650  177.1100  136.9700 C   0  0  0  0  0  2  0  0  0  0  0  0
  1 13  1  0  0  0  0
  2  1  2  0  0  0  0
  3  5  1  0  0  0  0
  4  9  1  0  0  0  0
  5  1  1  0  0  0  0
  5  4  2  0  0  0  0
  8 10  2  0  0  0  0
  9  7  1  0  0  0  0
  9  6  2  0  0  0  0
 10  3  1  0  0  0  0
 10 14  1  0  0  0  0
 11  4  1  0  0  0  0
 13 12  1  0  0  0  0
 13  7  2  0  0  0  0
 14 11  2  0  0  0  0
 16 20  1  6  0  0  0
 16 19  1  0  0  0  0
 16 15  1  0  0  0  0
 17 18  1  0  0  0  0
 18 15  1  6  0  0  0
 18  3  1  0  0  0  0
 19 17  1  0  0  0  0
 21 22  2  0  0  0  0
 21 20  1  0  0  0  0
 23 21  2  0  0  0  0
 25 24  1  0  0  0  0
 25 21  1  0  0  0  0
M  END
>  <MODEL>
3

>  <REMARK>
 VINA RESULT:      -7.7      2.044      3.598
  Name = 
  4 active torsions:
  status: ('A' for Active; 'I' for Inactive)
    1  A    between atoms: S_1  and  N_7
    2  A    between atoms: S_1  and  C_25
    3  A    between atoms: C_5  and  N_7
    4  A    between atoms: C_8  and  N_11
                            x       y       z     vdW  Elec       q    Type
                         _______ _______ _______ _____ _____    ______ ____

>  <TORSDO>
F 4

$$$$
=
 OpenBabel10222417103D

 25 27  0  0  1  0  0  0  0  0999 V2000
  187.1060  177.8190  144.8500 C   0  0  0  0  0  0  0  0  0  0  0  0
  186.4670  177.8680  143.7650 O   0  0  0  0  0  0  0  0  0  0  0  0
  189.3380  177.3180  143.7490 N   0  0  0  0  0  0  0  0  0  0  0  0
  189.1940  177.5020  146.1530 C   0  0  0  0  0  0  0  0  0  0  0  0
  188.5770  177.5380  144.8840 C   0  0  0  0  0  0  0  0  0  0  0  0
  188.9310  177.7110  148.5080 O   0  0  0  0  0  0  0  0  0  0  0  0
  186.9910  178.0010  147.2600 N   0  0  0  0  0  0  0  0  0  0  0  0
  191.3970  176.8560  142.8380 O   0  0  0  0  0  0  0  0  0  0  0  0
  188.3930  177.7370  147.3700 C   0  0  0  0  0  0  0  0  0  0  0  0
  190.6870  177.0610  143.8610 C   0  0  0  0  0  0  0  0  0  0  0  0
  190.5570  177.2420  146.2530 C   0  0  0  0  0  3  0  0  0  0  0  0
  184.9110  178.3230  146.1010 C   0  0  0  0  0  1  0  0  0  0  0  0
  186.3740  178.0430  146.1180 C   0  0  0  0  0  0  0  0  0  0  0  0
  191.3050  177.0210  145.1070 C   0  0  0  0  0  3  0  0  0  0  0  0
  189.3790  176.4290  141.4220 C   0  0  0  0  0  2  0  0  0  0  0  0
  189.5680  177.2390  140.1490 C   0  0  2  0  0  3  0  0  0  0  0  0
  188.7020  178.7490  141.8170 C   0  0  0  0  0  2  0  0  0  0  0  0
  188.7040  177.3580  142.4190 C   0  0  2  0  0  3  0  0  0  0  0  0
  188.7790  178.5210  140.3260 C   0  0  0  0  0  2  0  0  0  0  0  0
  189.0550  176.5000  139.0060 N   0  0  0  0  0  2  0  0  0  0  0  0
  190.4020  176.0570  138.0090 S   0  0  0  0  0  0  0  0  0  0  0  0
  190.5050  174.5590  137.9250 O   0  0  0  0  0  0  0  0  0  0  0  0
  190.2210  176.6220  136.6270 O   0  0  0  0  0  0  0  0  0  0  0  0
  193.0910  176.3060  137.8720 C   0  0  0  0  0  1  0  0  0  0  0  0
  191.8990  176.7140  138.7130 C   0  0  0  0  0  2  0  0  0  0  0  0
  1  5  1  0  0  0  0
  1 13  1  0  0  0  0
  2  1  2  0  0  0  0
  3 10  1  0  0  0  0
  3  5  1  0  0  0  0
  4 11  1  0  0  0  0
  4  9  1  0  0  0  0
  5  4  2  0  0  0  0
  7  9  1  0  0  0  0
  8 10  2  0  0  0  0
  9  6  2  0  0  0  0
 10 14  1  0  0  0  0
 12 13  1  0  0  0  0
 13  7  2  0  0  0  0
 14 11  2  0  0  0  0
 16 20  1  6  0  0  0
 16 19  1  0  0  0  0
 16 15  1  0  0  0  0
 17 18  1  0  0  0  0
 18 15  1  6  0  0  0
 18  3  1  0  0  0  0
 19 17  1  0  0  0  0
 21 25  1  0  0  0  0
 21 20  1  0  0  0  0
 22 21  2  0  0  0  0
 23 21  2  0  0  0  0
 24 25  1  0  0  0  0
M  END
>  <MODEL>
4

>  <REMARK>
 VINA RESULT:      -7.6      1.199      1.441
  Name = 
  4 active torsions:
  status: ('A' for Active; 'I' for Inactive)
    1  A    between atoms: S_1  and  N_7
    2  A    between atoms: S_1  and  C_25
    3  A    between atoms: C_5  and  N_7
    4  A    between atoms: C_8  and  N_11
                            x       y       z     vdW  Elec       q    Type
                         _______ _______ _______ _____ _____    ______ ____

>  <TORSDO>
F 4

$$$$
=
 OpenBabel10222417103D

 25 27  0  0  1  0  0  0  0  0999 V2000
  188.4310  177.8820  145.9420 C   0  0  0  0  0  0  0  0  0  0  0  0
  189.6490  177.6570  145.7130 O   0  0  0  0  0  0  0  0  0  0  0  0
  187.7600  177.8860  143.4930 N   0  0  0  0  0  0  0  0  0  0  0  0
  186.0930  178.2640  145.2000 C   0  0  0  0  0  0  0  0  0  0  0  0
  187.4320  178.0080  144.8320 C   0  0  0  0  0  0  0  0  0  0  0  0
  184.5400  178.6190  146.9670 O   0  0  0  0  0  0  0  0  0  0  0  0
  186.7390  178.2600  147.6310 N   0  0  0  0  0  0  0  0  0  0  0  0
  187.0650  177.9130  141.3020 O   0  0  0  0  0  0  0  0  0  0  0  0
  185.7310  178.3930  146.6240 C   0  0  0  0  0  0  0  0  0  0  0  0
  186.7850  178.0190  142.5280 C   0  0  0  0  0  0  0  0  0  0  0  0
  185.1180  178.3960  144.2160 C   0  0  0  0  0  3  0  0  0  0  0  0
  188.9660  177.9050  148.4620 C   0  0  0  0  0  1  0  0  0  0  0  0
  187.9860  178.0270  147.3470 C   0  0  0  0  0  0  0  0  0  0  0  0
  185.4630  178.2730  142.8790 C   0  0  0  0  0  3  0  0  0  0  0  0
  189.4280  177.9620  141.6450 C   0  0  0  0  0  2  0  0  0  0  0  0
  190.1840  176.7790  141.0610 C   0  0  2  0  0  3  0  0  0  0  0  0
  189.5440  176.1640  143.3030 C   0  0  0  0  0  2  0  0  0  0  0  0
  189.1530  177.6140  143.0990 C   0  0  2  0  0  3  0  0  0  0  0  0
  190.5670  175.8880  142.2260 C   0  0  0  0  0  2  0  0  0  0  0  0
  191.3840  177.2400  140.3800 N   0  0  0  0  0  2  0  0  0  0  0  0
  191.3120  176.6880  138.7380 S   0  0  0  0  0  0  0  0  0  0  0  0
  192.6680  176.8040  138.1000 O   0  0  0  0  0  0  0  0  0  0  0  0
  190.8640  175.2530  138.7020 O   0  0  0  0  0  0  0  0  0  0  0  0
  188.8840  176.8850  137.5640 C   0  0  0  0  0  1  0  0  0  0  0  0
  190.1450  177.6810  137.8330 C   0  0  0  0  0  2  0  0  0  0  0  0
  1 13  1  0  0  0  0
  2  1  2  0  0  0  0
  3  5  1  0  0  0  0
  4  9  1  0  0  0  0
  5  4  2  0  0  0  0
  5  1  1  0  0  0  0
  8 10  2  0  0  0  0
  9  6  2  0  0  0  0
  9  7  1  0  0  0  0
 10 14  1  0  0  0  0
 10  3  1  0  0  0  0
 11  4  1  0  0  0  0
 13  7  2  0  0  0  0
 13 12  1  0  0  0  0
 14 11  2  0  0  0  0
 16 20  1  1  0  0  0
 16 15  1  0  0  0  0
 16 19  1  0  0  0  0
 18 15  1  6  0  0  0
 18 17  1  0  0  0  0
 18  3  1  0  0  0  0
 19 17  1  0  0  0  0
 21 20  1  0  0  0  0
 22 21  2  0  0  0  0
 23 21  2  0  0  0  0
 24 25  1  0  0  0  0
 25 21  1  0  0  0  0
M  END
>  <MODEL>
5

>  <REMARK>
 VINA RESULT:      -7.5      1.632      3.134
  Name = 
  4 active torsions:
  status: ('A' for Active; 'I' for Inactive)
    1  A    between atoms: S_1  and  N_7
    2  A    between atoms: S_1  and  C_25
    3  A    between atoms: C_5  and  N_7
    4  A    between atoms: C_8  and  N_11
                            x       y       z     vdW  Elec       q    Type
                         _______ _______ _______ _____ _____    ______ ____

>  <TORSDO>
F 4

$$$$
=
 OpenBabel10222417103D

 25 27  0  0  1  0  0  0  0  0999 V2000
  184.0570  178.2480  141.4570 C   0  0  0  0  0  0  0  0  0  0  0  0
  184.9980  177.8660  140.7120 O   0  0  0  0  0  0  0  0  0  0  0  0
  185.4350  178.1620  143.5870 N   0  0  0  0  0  0  0  0  0  0  0  0
  183.1180  178.8390  143.6770 C   0  0  0  0  0  0  0  0  0  0  0  0
  184.2390  178.4100  142.9360 C   0  0  0  0  0  0  0  0  0  0  0  0
  180.8310  179.4940  143.6410 O   0  0  0  0  0  0  0  0  0  0  0  0
  181.7390  178.9320  141.5760 N   0  0  0  0  0  0  0  0  0  0  0  0
  186.6050  178.1070  145.5650 O   0  0  0  0  0  0  0  0  0  0  0  0
  181.8390  179.1080  142.9930 C   0  0  0  0  0  0  0  0  0  0  0  0
  185.5250  178.3300  144.9530 C   0  0  0  0  0  0  0  0  0  0  0  0
  183.2210  179.0050  145.0550 C   0  0  0  0  0  3  0  0  0  0  0  0
  182.5400  178.3810  139.3790 C   0  0  0  0  0  1  0  0  0  0  0  0
  182.7390  178.5370  140.8460 C   0  0  0  0  0  0  0  0  0  0  0  0
  184.4250  178.7500  145.6940 C   0  0  0  0  0  3  0  0  0  0  0  0
  187.4890  176.7530  143.6040 C   0  0  0  0  0  2  0  0  0  0  0  0
  188.9190  177.2380  143.4260 C   0  0  2  0  0  3  0  0  0  0  0  0
  187.4890  178.8740  142.3790 C   0  0  0  0  0  2  0  0  0  0  0  0
  186.6130  177.7180  142.8220 C   0  0  2  0  0  3  0  0  0  0  0  0
  188.8870  178.3030  142.3470 C   0  0  0  0  0  2  0  0  0  0  0  0
  189.7720  176.1370  143.0050 N   0  0  0  0  0  2  0  0  0  0  0  0
  191.3780  176.4610  143.5680 S   0  0  0  0  0  0  0  0  0  0  0  0
  192.0480  175.1760  143.9670 O   0  0  0  0  0  0  0  0  0  0  0  0
  192.1770  177.1220  142.4800 O   0  0  0  0  0  0  0  0  0  0  0  0
  191.3700  176.7480  146.2570 C   0  0  0  0  0  1  0  0  0  0  0  0
  191.3020  177.5500  144.9740 C   0  0  0  0  0  2  0  0  0  0  0  0
  1  5  1  0  0  0  0
  2  1  2  0  0  0  0
  3 10  1  0  0  0  0
  4 11  1  0  0  0  0
  5  3  1  0  0  0  0
  5  4  2  0  0  0  0
  7  9  1  0  0  0  0
  9  6  2  0  0  0  0
  9  4  1  0  0  0  0
 10  8  2  0  0  0  0
 10 14  1  0  0  0  0
 11 14  2  0  0  0  0
 12 13  1  0  0  0  0
 13  1  1  0  0  0  0
 13  7  2  0  0  0  0
 16 20  1  6  0  0  0
 16 15  1  0  0  0  0
 18 17  1  1  0  0  0
 18  3  1  0  0  0  0
 18 15  1  0  0  0  0
 19 17  1  0  0  0  0
 19 16  1  0  0  0  0
 20 21  1  0  0  0  0
 21 22  2  0  0  0  0
 21 25  1  0  0  0  0
 23 21  2  0  0  0  0
 25 24  1  0  0  0  0
M  END
>  <MODEL>
6

>  <REMARK>
 VINA RESULT:      -7.3      3.538      5.851
  Name = 
  4 active torsions:
  status: ('A' for Active; 'I' for Inactive)
    1  A    between atoms: S_1  and  N_7
    2  A    between atoms: S_1  and  C_25
    3  A    between atoms: C_5  and  N_7
    4  A    between atoms: C_8  and  N_11
                            x       y       z     vdW  Elec       q    Type
                         _______ _______ _______ _____ _____    ______ ____

>  <TORSDO>
F 4

$$$$
=
 OpenBabel10222417103D

 25 27  0  0  1  0  0  0  0  0999 V2000
  187.8470  177.5360  144.9020 C   0  0  0  0  0  0  0  0  0  0  0  0
  186.8410  177.5580  145.6610 O   0  0  0  0  0  0  0  0  0  0  0  0
  186.5680  178.3030  142.8480 N   0  0  0  0  0  0  0  0  0  0  0  0
  188.9350  177.8470  142.6930 C   0  0  0  0  0  0  0  0  0  0  0  0
  187.7480  177.9090  143.4540 C   0  0  0  0  0  0  0  0  0  0  0  0
  191.2660  177.3730  142.6640 O   0  0  0  0  0  0  0  0  0  0  0  0
  190.2180  177.0890  144.7190 N   0  0  0  0  0  0  0  0  0  0  0  0
  185.4890  178.9870  140.9370 O   0  0  0  0  0  0  0  0  0  0  0  0
  190.1990  177.4310  143.3300 C   0  0  0  0  0  0  0  0  0  0  0  0
  186.5550  178.6280  141.5080 C   0  0  0  0  0  0  0  0  0  0  0  0
  188.9090  178.1770  141.3410 C   0  0  0  0  0  3  0  0  0  0  0  0
  189.2700  176.7520  146.9020 C   0  0  0  0  0  1  0  0  0  0  0  0
  189.1540  177.1270  145.4650 C   0  0  0  0  0  0  0  0  0  0  0  0
  187.7180  178.5680  140.7480 C   0  0  0  0  0  3  0  0  0  0  0  0
  184.0980  177.9820  142.8270 C   0  0  0  0  0  2  0  0  0  0  0  0
  183.0460  179.0440  143.1070 C   0  0  2  0  0  3  0  0  0  0  0  0
  185.0730  179.7600  144.2000 C   0  0  0  0  0  2  0  0  0  0  0  0
  185.3240  178.3760  143.6340 C   0  0  2  0  0  3  0  0  0  0  0  0
  183.5690  179.8830  144.2570 C   0  0  0  0  0  2  0  0  0  0  0  0
  181.7900  178.4170  143.4870 N   0  0  0  0  0  2  0  0  0  0  0  0
  180.5480  179.0380  142.4510 S   0  0  0  0  0  0  0  0  0  0  0  0
  179.3110  178.1910  142.5720 O   0  0  0  0  0  0  0  0  0  0  0  0
  180.2220  180.4540  142.8370 O   0  0  0  0  0  0  0  0  0  0  0  0
  181.0440  177.6050  140.2120 C   0  0  0  0  0  1  0  0  0  0  0  0
  181.1190  179.0130  140.7650 C   0  0  0  0  0  2  0  0  0  0  0  0
  1 13  1  0  0  0  0
  1  2  2  0  0  0  0
  3  5  1  0  0  0  0
  3 18  1  0  0  0  0
  4  9  1  0  0  0  0
  4  5  2  0  0  0  0
  5  1  1  0  0  0  0
  6  9  2  0  0  0  0
  7 13  2  0  0  0  0
  8 10  2  0  0  0  0
  9  7  1  0  0  0  0
 10  3  1  0  0  0  0
 11  4  1  0  0  0  0
 13 12  1  0  0  0  0
 14 11  2  0  0  0  0
 14 10  1  0  0  0  0
 15 16  1  0  0  0  0
 16 20  1  1  0  0  0
 16 19  1  0  0  0  0
 17 19  1  0  0  0  0
 18 15  1  6  0  0  0
 18 17  1  0  0  0  0
 21 22  2  0  0  0  0
 21 23  2  0  0  0  0
 21 20  1  0  0  0  0
 24 25  1  0  0  0  0
 25 21  1  0  0  0  0
M  END
>  <MODEL>
7

>  <REMARK>
 VINA RESULT:      -7.1      4.270      7.170
  Name = 
  4 active torsions:
  status: ('A' for Active; 'I' for Inactive)
    1  A    between atoms: S_1  and  N_7
    2  A    between atoms: S_1  and  C_25
    3  A    between atoms: C_5  and  N_7
    4  A    between atoms: C_8  and  N_11
                            x       y       z     vdW  Elec       q    Type
                         _______ _______ _______ _____ _____    ______ ____

>  <TORSDO>
F 4

$$$$
=
 OpenBabel10222417103D

 25 27  0  0  1  0  0  0  0  0999 V2000
  186.6030  178.1560  142.8410 C   0  0  0  0  0  0  0  0  0  0  0  0
  186.9890  177.8920  144.0110 O   0  0  0  0  0  0  0  0  0  0  0  0
  188.8350  177.6090  141.7620 N   0  0  0  0  0  0  0  0  0  0  0  0
  186.9850  178.3490  140.3960 C   0  0  0  0  0  0  0  0  0  0  0  0
  187.5180  178.0250  141.6620 C   0  0  0  0  0  0  0  0  0  0  0  0
  185.0920  179.0810  139.1540 O   0  0  0  0  0  0  0  0  0  0  0  0
  184.7660  178.8920  141.4480 N   0  0  0  0  0  0  0  0  0  0  0  0
  190.8200  177.1430  140.7020 O   0  0  0  0  0  0  0  0  0  0  0  0
  185.5820  178.7920  140.2770 C   0  0  0  0  0  0  0  0  0  0  0  0
  189.6180  177.5180  140.6310 C   0  0  0  0  0  0  0  0  0  0  0  0
  187.7850  178.2530  139.2620 C   0  0  0  0  0  3  0  0  0  0  0  0
  184.2840  178.7440  143.7980 C   0  0  0  0  0  1  0  0  0  0  0  0
  185.2070  178.6080  142.6370 C   0  0  0  0  0  0  0  0  0  0  0  0
  189.1030  177.8370  139.3790 C   0  0  0  0  0  3  0  0  0  0  0  0
  190.3270  178.3420  143.6170 C   0  0  0  0  0  2  0  0  0  0  0  0
  191.5700  177.6230  144.1140 C   0  0  2  0  0  3  0  0  0  0  0  0
  190.1780  175.9630  143.0540 C   0  0  0  0  0  2  0  0  0  0  0  0
  189.4000  177.2640  143.0780 C   0  0  2  0  0  3  0  0  0  0  0  0
  191.2510  176.1410  144.1020 C   0  0  0  0  0  2  0  0  0  0  0  0
  191.8860  178.0470  145.4690 N   0  0  0  0  0  2  0  0  0  0  0  0
  191.4780  176.7500  146.5430 S   0  0  0  0  0  0  0  0  0  0  0  0
  192.0530  175.4600  146.0280 O   0  0  0  0  0  0  0  0  0  0  0  0
  192.0300  177.0300  147.9130 O   0  0  0  0  0  0  0  0  0  0  0  0
  189.1260  177.8390  147.3140 C   0  0  0  0  0  1  0  0  0  0  0  0
  189.7070  176.6080  146.6500 C   0  0  0  0  0  2  0  0  0  0  0  0
  1  2  2  0  0  0  0
  4  5  2  0  0  0  0
  5  3  1  0  0  0  0
  5  1  1  0  0  0  0
  6  9  2  0  0  0  0
  7 13  2  0  0  0  0
  9  4  1  0  0  0  0
  9  7  1  0  0  0  0
 10  8  2  0  0  0  0
 10  3  1  0  0  0  0
 11 14  2  0  0  0  0
 11  4  1  0  0  0  0
 13  1  1  0  0  0  0
 13 12  1  0  0  0  0
 14 10  1  0  0  0  0
 15 16  1  0  0  0  0
 16 20  1  1  0  0  0
 17 18  1  0  0  0  0
 17 19  1  0  0  0  0
 18  3  1  6  0  0  0
 18 15  1  0  0  0  0
 19 16  1  0  0  0  0
 20 21  1  0  0  0  0
 21 25  1  0  0  0  0
 21 23  2  0  0  0  0
 22 21  2  0  0  0  0
 25 24  1  0  0  0  0
M  END
>  <MODEL>
8

>  <REMARK>
 VINA RESULT:      -6.8      3.050      6.150
  Name = 
  4 active torsions:
  status: ('A' for Active; 'I' for Inactive)
    1  A    between atoms: S_1  and  N_7
    2  A    between atoms: S_1  and  C_25
    3  A    between atoms: C_5  and  N_7
    4  A    between atoms: C_8  and  N_11
                            x       y       z     vdW  Elec       q    Type
                         _______ _______ _______ _____ _____    ______ ____

>  <TORSDO>
F 4

$$$$
=
 OpenBabel10222417103D

 25 27  0  0  1  0  0  0  0  0999 V2000
  186.7300  178.4070  140.2420 C   0  0  0  0  0  0  0  0  0  0  0  0
  186.1810  178.6660  141.3460 O   0  0  0  0  0  0  0  0  0  0  0  0
  188.9090  177.6180  141.2790 N   0  0  0  0  0  0  0  0  0  0  0  0
  188.6470  177.6180  138.8770 C   0  0  0  0  0  0  0  0  0  0  0  0
  188.1270  177.8710  140.1650 C   0  0  0  0  0  0  0  0  0  0  0  0
  188.2720  177.6590  136.5290 O   0  0  0  0  0  0  0  0  0  0  0  0
  186.4940  178.3940  137.8340 N   0  0  0  0  0  0  0  0  0  0  0  0
  190.9180  176.8940  142.1300 O   0  0  0  0  0  0  0  0  0  0  0  0
  187.8220  177.8820  137.6830 C   0  0  0  0  0  0  0  0  0  0  0  0
  190.1890  177.1280  141.1270 C   0  0  0  0  0  0  0  0  0  0  0  0
  189.9400  177.1230  138.7380 C   0  0  0  0  0  3  0  0  0  0  0  0
  184.5780  179.1790  139.0540 C   0  0  0  0  0  1  0  0  0  0  0  0
  185.9680  178.6450  138.9950 C   0  0  0  0  0  0  0  0  0  0  0  0
  190.7120  176.8780  139.8630 C   0  0  0  0  0  3  0  0  0  0  0  0
  189.4640  178.1920  143.6380 C   0  0  0  0  0  2  0  0  0  0  0  0
  189.1620  177.3500  144.8680 C   0  0  2  0  0  3  0  0  0  0  0  0
  187.5770  176.7040  143.1690 C   0  0  0  0  0  2  0  0  0  0  0  0
  188.3740  177.8740  142.6270 C   0  0  2  0  0  3  0  0  0  0  0  0
  187.7790  176.7630  144.6640 C   0  0  0  0  0  2  0  0  0  0  0  0
  189.1710  178.1840  146.0600 N   0  0  0  0  0  2  0  0  0  0  0  0
  189.9470  177.2940  147.3280 S   0  0  0  0  0  0  0  0  0  0  0  0
  190.1530  178.1820  148.5230 O   0  0  0  0  0  0  0  0  0  0  0  0
  189.0950  176.1190  147.7210 O   0  0  0  0  0  0  0  0  0  0  0  0
  192.0460  175.6280  147.6880 C   0  0  0  0  0  1  0  0  0  0  0  0
  191.5230  176.7000  146.7530 C   0  0  0  0  0  2  0  0  0  0  0  0
  1  2  2  0  0  0  0
  4  5  2  0  0  0  0
  5  1  1  0  0  0  0
  5  3  1  0  0  0  0
  6  9  2  0  0  0  0
  7 13  2  0  0  0  0
  9  7  1  0  0  0  0
  9  4  1  0  0  0  0
 10  3  1  0  0  0  0
 10  8  2  0  0  0  0
 11  4  1  0  0  0  0
 11 14  2  0  0  0  0
 13 12  1  0  0  0  0
 13  1  1  0  0  0  0
 14 10  1  0  0  0  0
 15 16  1  0  0  0  0
 16 20  1  1  0  0  0
 17 19  1  0  0  0  0
 18  3  1  6  0  0  0
 18 17  1  0  0  0  0
 18 15  1  0  0  0  0
 19 16  1  0  0  0  0
 20 21  1  0  0  0  0
 21 23  2  0  0  0  0
 21 22  2  0  0  0  0
 25 21  1  0  0  0  0
 25 24  1  0  0  0  0
M  END
>  <MODEL>
9

>  <REMARK>
 VINA RESULT:      -6.7      3.017      7.186
  Name = 
  4 active torsions:
  status: ('A' for Active; 'I' for Inactive)
    1  A    between atoms: S_1  and  N_7
    2  A    between atoms: S_1  and  C_25
    3  A    between atoms: C_5  and  N_7
    4  A    between atoms: C_8  and  N_11
                            x       y       z     vdW  Elec       q    Type
                         _______ _______ _______ _____ _____    ______ ____

>  <TORSDO>
F 4

$$$$
