=
 OpenBabel10222417093D

 25 27  0  0  1  0  0  0  0  0999 V2000
  190.2270  176.3400  136.6870 S   0  0  0  0  0  0  0  0  0  0  0  0
  190.4000  177.0330  139.2240 N   0  0  0  0  0  0  0  0  0  0  0  0
  189.3290  177.7500  138.6810 C   0  0  0  0  0  0  0  0  0  0  0  0
  189.1500  177.9220  140.9480 C   0  0  0  0  0  0  0  0  0  0  0  0
  189.0560  177.4990  137.4130 C   0  0  2  0  0  3  0  0  0  0  0  0
  190.9100  175.9900  138.3580 C   0  0  0  0  0  2  0  0  0  0  0  0
  190.3000  176.9940  140.6670 C   0  0  0  0  0  3  0  0  0  0  0  0
  188.6870  178.2080  142.1300 N   0  0  0  0  0  2  0  0  0  0  0  0
  188.4820  178.4130  139.7020 C   0  0  0  0  0  3  0  0  0  0  0  0
  186.7000  177.4530  137.3290 F   0  0  0  0  0  0  0  0  0  0  0  0
  187.8200  177.9750  136.7070 C   0  0  0  0  0  0  0  0  0  0  0  0
  187.7490  179.3550  136.7440 F   0  0  0  0  0  0  0  0  0  0  0  0
  187.8440  177.5630  135.3870 F   0  0  0  0  0  0  0  0  0  0  0  0
  189.2530  177.7890  143.3510 N   0  0  0  0  0  0  0  0  0  0  0  0
  188.5300  176.8290  144.1660 C   0  0  0  0  0  2  0  0  0  0  0  0
  187.3640  177.5130  144.8570 C   0  0  0  0  0  2  0  0  0  0  0  0
  187.4510  178.2850  148.3700 N   0  0  0  0  0  0  0  0  0  0  0  0
  188.7740  177.2120  146.9080 N   0  0  0  0  0  0  0  0  0  0  0  0
  187.6790  177.7080  146.3010 C   0  0  0  0  0  0  0  0  0  0  0  0
  188.6010  177.5950  148.1980 C   0  0  0  0  0  3  0  0  0  0  0  0
  185.6660  178.9580  146.9080 N   0  0  0  0  0  1  0  0  0  0  0  0
  186.8920  178.3400  147.1780 N   0  0  0  0  0  0  0  0  0  0  0  0
  190.4370  178.4160  143.9310 C   0  0  0  0  0  2  0  0  0  0  0  0
  191.4760  177.3610  144.2630 C   0  0  0  0  0  2  0  0  0  0  0  0
  191.7420  177.3910  145.6180 F   0  0  0  0  0  0  0  0  0  0  0  0
  1  5  1  0  0  0  0
  1  6  1  0  0  0  0
  2  7  1  0  0  0  0
  3  2  1  0  0  0  0
  3  9  2  0  0  0  0
  4  8  1  0  0  0  0
  5 11  1  1  0  0  0
  5  3  1  0  0  0  0
  6  2  1  0  0  0  0
  7  4  2  0  0  0  0
  8 14  1  0  0  0  0
  9  4  1  0  0  0  0
 11 12  1  0  0  0  0
 11 10  1  0  0  0  0
 13 11  1  0  0  0  0
 14 23  1  0  0  0  0
 14 15  1  0  0  0  0
 15 16  1  0  0  0  0
 16 19  1  0  0  0  0
 18 20  1  0  0  0  0
 19 18  2  0  0  0  0
 19 22  1  0  0  0  0
 20 17  2  0  0  0  0
 21 22  1  0  0  0  0
 22 17  1  0  0  0  0
 23 24  1  0  0  0  0
 24 25  1  0  0  0  0
M  END
>  <MODEL>
1

>  <REMARK>
 VINA RESULT:      -6.9      0.000      0.000
  Name = 
  7 active torsions:
  status: ('A' for Active; 'I' for Inactive)
    1  A    between atoms: C_6  and  C_10
    2  A    between atoms: C_6  and  C_14
    3  A    between atoms: C_8  and  C_11
    4  A    between atoms: C_14  and  N_23
    5  A    between atoms: C_16  and  C_18
    6  A    between atoms: C_18  and  N_23
    7  A    between atoms: N_21  and  N_23
                            x       y       z     vdW  Elec       q    Type
                         _______ _______ _______ _____ _____    ______ ____

>  <TORSDO>
F 7

$$$$
=
 OpenBabel10222417093D

 25 27  0  0  1  0  0  0  0  0999 V2000
  190.3950  176.3370  136.9260 S   0  0  0  0  0  0  0  0  0  0  0  0
  190.3980  177.0020  139.4760 N   0  0  0  0  0  0  0  0  0  0  0  0
  189.4100  177.7750  138.8570 C   0  0  0  0  0  0  0  0  0  0  0  0
  189.0590  177.9390  141.1050 C   0  0  0  0  0  0  0  0  0  0  0  0
  189.2270  177.5470  137.5690 C   0  0  2  0  0  3  0  0  0  0  0  0
  190.9250  175.9420  138.6410 C   0  0  0  0  0  2  0  0  0  0  0  0
  190.1830  176.9570  140.9060 C   0  0  0  0  0  3  0  0  0  0  0  0
  188.5180  178.2380  142.2500 N   0  0  0  0  0  2  0  0  0  0  0  0
  188.5170  178.4710  139.8160 C   0  0  0  0  0  3  0  0  0  0  0  0
  188.0860  179.4700  136.8210 F   0  0  0  0  0  0  0  0  0  0  0  0
  188.0750  178.0880  136.7730 C   0  0  0  0  0  0  0  0  0  0  0  0
  188.1760  177.6860  135.4530 F   0  0  0  0  0  0  0  0  0  0  0  0
  186.8830  177.6200  137.2930 F   0  0  0  0  0  0  0  0  0  0  0  0
  188.9640  177.7840  143.5070 N   0  0  0  0  0  0  0  0  0  0  0  0
  188.0770  176.9600  144.3100 C   0  0  0  0  0  2  0  0  0  0  0  0
  187.5110  177.7770  145.4560 C   0  0  0  0  0  2  0  0  0  0  0  0
  184.1700  179.1070  145.3480 N   0  0  0  0  0  0  0  0  0  0  0  0
  185.5220  177.9920  143.9460 N   0  0  0  0  0  0  0  0  0  0  0  0
  186.1150  178.1920  145.1380 C   0  0  0  0  0  0  0  0  0  0  0  0
  184.3070  178.5720  144.1140 C   0  0  0  0  0  3  0  0  0  0  0  0
  185.5970  179.2630  147.2750 N   0  0  0  0  0  1  0  0  0  0  0  0
  185.3070  178.8630  145.9670 N   0  0  0  0  0  0  0  0  0  0  0  0
  190.1970  178.2570  144.1280 C   0  0  0  0  0  2  0  0  0  0  0  0
  191.0790  177.0800  144.5020 C   0  0  0  0  0  2  0  0  0  0  0  0
  191.1490  176.9780  145.8780 F   0  0  0  0  0  0  0  0  0  0  0  0
  1  5  1  0  0  0  0
  1  6  1  0  0  0  0
  2  7  1  0  0  0  0
  3  2  1  0  0  0  0
  3  9  2  0  0  0  0
  4  8  1  0  0  0  0
  5 11  1  1  0  0  0
  5  3  1  0  0  0  0
  6  2  1  0  0  0  0
  7  4  2  0  0  0  0
  8 14  1  0  0  0  0
  9  4  1  0  0  0  0
 11 10  1  0  0  0  0
 11 13  1  0  0  0  0
 12 11  1  0  0  0  0
 14 23  1  0  0  0  0
 14 15  1  0  0  0  0
 15 16  1  0  0  0  0
 17 22  1  0  0  0  0
 18 20  1  0  0  0  0
 18 19  2  0  0  0  0
 19 16  1  0  0  0  0
 19 22  1  0  0  0  0
 20 17  2  0  0  0  0
 22 21  1  0  0  0  0
 23 24  1  0  0  0  0
 24 25  1  0  0  0  0
M  END
>  <MODEL>
2

>  <REMARK>
 VINA RESULT:      -6.9      1.140      2.029
  Name = 
  7 active torsions:
  status: ('A' for Active; 'I' for Inactive)
    1  A    between atoms: C_6  and  C_10
    2  A    between atoms: C_6  and  C_14
    3  A    between atoms: C_8  and  C_11
    4  A    between atoms: C_14  and  N_23
    5  A    between atoms: C_16  and  C_18
    6  A    between atoms: C_18  and  N_23
    7  A    between atoms: N_21  and  N_23
                            x       y       z     vdW  Elec       q    Type
                         _______ _______ _______ _____ _____    ______ ____

>  <TORSDO>
F 7

$$$$
=
 OpenBabel10222417093D

 25 27  0  0  1  0  0  0  0  0999 V2000
  185.2050  178.3790  146.9550 S   0  0  0  0  0  0  0  0  0  0  0  0
  187.2740  177.4740  145.5970 N   0  0  0  0  0  0  0  0  0  0  0  0
  186.3060  177.8460  144.6590 C   0  0  0  0  0  0  0  0  0  0  0  0
  188.2610  177.5810  143.5130 C   0  0  0  0  0  0  0  0  0  0  0  0
  185.2000  178.3720  145.1550 C   0  0  2  0  0  3  0  0  0  0  0  0
  186.9810  177.9050  146.9480 C   0  0  0  0  0  2  0  0  0  0  0  0
  188.5770  177.3930  144.9730 C   0  0  0  0  0  3  0  0  0  0  0  0
  189.1340  177.5820  142.5500 N   0  0  0  0  0  2  0  0  0  0  0  0
  186.8180  177.8970  143.2680 C   0  0  0  0  0  3  0  0  0  0  0  0
  184.6090  180.2770  143.8970 F   0  0  0  0  0  0  0  0  0  0  0  0
  184.1440  179.0480  144.3290 C   0  0  0  0  0  0  0  0  0  0  0  0
  183.8310  178.2740  143.2260 F   0  0  0  0  0  0  0  0  0  0  0  0
  183.0010  179.2310  145.0860 F   0  0  0  0  0  0  0  0  0  0  0  0
  190.5070  177.2950  142.6930 N   0  0  0  0  0  0  0  0  0  0  0  0
  191.1840  176.5650  141.6350 C   0  0  0  0  0  2  0  0  0  0  0  0
  191.3180  177.4440  140.4050 C   0  0  0  0  0  2  0  0  0  0  0  0
  188.9730  176.7640  137.7640 N   0  0  0  0  0  0  0  0  0  0  0  0
  190.7330  175.7190  138.6840 N   0  0  0  0  0  0  0  0  0  0  0  0
  190.4870  176.8910  139.2980 C   0  0  0  0  0  0  0  0  0  0  0  0
  189.7660  175.6690  137.7340 C   0  0  0  0  0  3  0  0  0  0  0  0
  188.9160  178.7560  139.1060 N   0  0  0  0  0  1  0  0  0  0  0  0
  189.4420  177.5120  138.7410 N   0  0  0  0  0  0  0  0  0  0  0  0
  191.2380  177.5240  143.9340 C   0  0  0  0  0  2  0  0  0  0  0  0
  191.8420  178.9160  143.9360 C   0  0  0  0  0  2  0  0  0  0  0  0
  190.8290  179.8550  143.9570 F   0  0  0  0  0  0  0  0  0  0  0  0
  2  6  1  0  0  0  0
  3  5  1  0  0  0  0
  3  2  1  0  0  0  0
  4  7  2  0  0  0  0
  5 11  1  6  0  0  0
  5  1  1  0  0  0  0
  6  1  1  0  0  0  0
  7  2  1  0  0  0  0
  8 14  1  0  0  0  0
  8  4  1  0  0  0  0
  9  4  1  0  0  0  0
  9  3  2  0  0  0  0
 10 11  1  0  0  0  0
 11 13  1  0  0  0  0
 12 11  1  0  0  0  0
 14 23  1  0  0  0  0
 15 14  1  0  0  0  0
 16 15  1  0  0  0  0
 17 22  1  0  0  0  0
 18 19  2  0  0  0  0
 19 16  1  0  0  0  0
 20 17  2  0  0  0  0
 20 18  1  0  0  0  0
 22 21  1  0  0  0  0
 22 19  1  0  0  0  0
 23 24  1  0  0  0  0
 24 25  1  0  0  0  0
M  END
>  <MODEL>
3

>  <REMARK>
 VINA RESULT:      -6.8      3.952      7.292
  Name = 
  7 active torsions:
  status: ('A' for Active; 'I' for Inactive)
    1  A    between atoms: C_6  and  C_10
    2  A    between atoms: C_6  and  C_14
    3  A    between atoms: C_8  and  C_11
    4  A    between atoms: C_14  and  N_23
    5  A    between atoms: C_16  and  C_18
    6  A    between atoms: C_18  and  N_23
    7  A    between atoms: N_21  and  N_23
                            x       y       z     vdW  Elec       q    Type
                         _______ _______ _______ _____ _____    ______ ____

>  <TORSDO>
F 7

$$$$
=
 OpenBabel10222417093D

 25 27  0  0  1  0  0  0  0  0999 V2000
  185.3220  178.6670  146.9030 S   0  0  0  0  0  0  0  0  0  0  0  0
  187.1530  177.4300  145.4660 N   0  0  0  0  0  0  0  0  0  0  0  0
  186.1190  177.7810  144.5910 C   0  0  0  0  0  0  0  0  0  0  0  0
  187.9100  177.2120  143.2970 C   0  0  0  0  0  0  0  0  0  0  0  0
  185.1190  178.4570  145.1270 C   0  0  2  0  0  3  0  0  0  0  0  0
  187.0440  178.0360  146.7780 C   0  0  0  0  0  2  0  0  0  0  0  0
  188.3690  177.1620  144.7300 C   0  0  0  0  0  3  0  0  0  0  0  0
  188.6700  177.0260  142.2580 N   0  0  0  0  0  2  0  0  0  0  0  0
  186.4790  177.6280  143.1600 C   0  0  0  0  0  3  0  0  0  0  0  0
  184.4910  180.3460  143.8630 F   0  0  0  0  0  0  0  0  0  0  0  0
  184.0350  179.1280  144.3350 C   0  0  0  0  0  0  0  0  0  0  0  0
  183.6710  178.3400  143.2590 F   0  0  0  0  0  0  0  0  0  0  0  0
  182.9260  179.3330  145.1350 F   0  0  0  0  0  0  0  0  0  0  0  0
  190.0240  176.6340  142.2980 N   0  0  0  0  0  0  0  0  0  0  0  0
  190.4110  175.5380  143.1700 C   0  0  0  0  0  2  0  0  0  0  0  0
  191.8500  175.7180  143.6170 C   0  0  0  0  0  2  0  0  0  0  0  0
  191.7870  177.0000  146.9780 N   0  0  0  0  0  0  0  0  0  0  0  0
  192.0320  174.9900  146.0080 N   0  0  0  0  0  0  0  0  0  0  0  0
  191.8940  175.9620  145.0870 C   0  0  0  0  0  0  0  0  0  0  0  0
  191.9650  175.6740  147.1780 C   0  0  0  0  0  3  0  0  0  0  0  0
  191.5520  178.3830  145.0270 N   0  0  0  0  0  1  0  0  0  0  0  0
  191.7420  177.1550  145.6700 N   0  0  0  0  0  0  0  0  0  0  0  0
  191.0880  177.3970  141.6540 C   0  0  0  0  0  2  0  0  0  0  0  0
  191.0940  177.1270  140.1610 C   0  0  0  0  0  2  0  0  0  0  0  0
  192.3860  177.2310  139.6810 F   0  0  0  0  0  0  0  0  0  0  0  0
  2  6  1  0  0  0  0
  3  5  1  0  0  0  0
  3  2  1  0  0  0  0
  4  7  2  0  0  0  0
  5 11  1  6  0  0  0
  5  1  1  0  0  0  0
  6  1  1  0  0  0  0
  7  2  1  0  0  0  0
  8 14  1  0  0  0  0
  8  4  1  0  0  0  0
  9  4  1  0  0  0  0
  9  3  2  0  0  0  0
 10 11  1  0  0  0  0
 11 13  1  0  0  0  0
 12 11  1  0  0  0  0
 14 15  1  0  0  0  0
 15 16  1  0  0  0  0
 16 19  1  0  0  0  0
 17 20  2  0  0  0  0
 18 20  1  0  0  0  0
 19 22  1  0  0  0  0
 19 18  2  0  0  0  0
 21 22  1  0  0  0  0
 22 17  1  0  0  0  0
 23 14  1  0  0  0  0
 24 23  1  0  0  0  0
 25 24  1  0  0  0  0
M  END
>  <MODEL>
4

>  <REMARK>
 VINA RESULT:      -6.7      4.264      6.290
  Name = 
  7 active torsions:
  status: ('A' for Active; 'I' for Inactive)
    1  A    between atoms: C_6  and  C_10
    2  A    between atoms: C_6  and  C_14
    3  A    between atoms: C_8  and  C_11
    4  A    between atoms: C_14  and  N_23
    5  A    between atoms: C_16  and  C_18
    6  A    between atoms: C_18  and  N_23
    7  A    between atoms: N_21  and  N_23
                            x       y       z     vdW  Elec       q    Type
                         _______ _______ _______ _____ _____    ______ ____

>  <TORSDO>
F 7

$$$$
=
 OpenBabel10222417093D

 25 27  0  0  1  0  0  0  0  0999 V2000
  190.1530  177.0200  146.4160 S   0  0  0  0  0  0  0  0  0  0  0  0
  188.0500  177.1830  144.8350 N   0  0  0  0  0  0  0  0  0  0  0  0
  187.6240  177.5520  146.1150 C   0  0  0  0  0  0  0  0  0  0  0  0
  185.9860  178.2000  144.6660 C   0  0  0  0  0  0  0  0  0  0  0  0
  188.5600  177.5740  147.0460 C   0  0  2  0  0  3  0  0  0  0  0  0
  189.4880  177.0730  144.7030 C   0  0  0  0  0  2  0  0  0  0  0  0
  187.1180  177.6590  143.8360 C   0  0  0  0  0  3  0  0  0  0  0  0
  184.9000  178.7400  144.1950 N   0  0  0  0  0  2  0  0  0  0  0  0
  186.2770  178.1720  146.1340 C   0  0  0  0  0  3  0  0  0  0  0  0
  187.6320  179.3250  148.3250 F   0  0  0  0  0  0  0  0  0  0  0  0
  188.3730  178.1600  148.4160 C   0  0  0  0  0  0  0  0  0  0  0  0
  187.7040  177.2670  149.2310 F   0  0  0  0  0  0  0  0  0  0  0  0
  189.6040  178.4430  148.9780 F   0  0  0  0  0  0  0  0  0  0  0  0
  184.5480  178.8070  142.8310 N   0  0  0  0  0  0  0  0  0  0  0  0
  185.5290  179.2970  141.8780 C   0  0  0  0  0  2  0  0  0  0  0  0
  185.2390  178.7280  140.5010 C   0  0  0  0  0  2  0  0  0  0  0  0
  187.8900  178.0450  138.1680 N   0  0  0  0  0  0  0  0  0  0  0  0
  187.7370  178.6390  140.3280 N   0  0  0  0  0  0  0  0  0  0  0  0
  186.5180  178.4810  139.7780 C   0  0  0  0  0  0  0  0  0  0  0  0
  188.5700  178.3540  139.2950 C   0  0  0  0  0  3  0  0  0  0  0  0
  185.5590  177.9060  137.6030 N   0  0  0  0  0  1  0  0  0  0  0  0
  186.6160  178.1340  138.4910 N   0  0  0  0  0  0  0  0  0  0  0  0
  183.1860  178.5920  142.3540 C   0  0  0  0  0  2  0  0  0  0  0  0
  182.1890  179.1450  143.3540 C   0  0  0  0  0  2  0  0  0  0  0  0
  182.0720  178.2710  144.4180 F   0  0  0  0  0  0  0  0  0  0  0  0
  1  5  1  0  0  0  0
  2  3  1  0  0  0  0
  3  9  2  0  0  0  0
  3  5  1  0  0  0  0
  4  9  1  0  0  0  0
  5 11  1  6  0  0  0
  6  2  1  0  0  0  0
  6  1  1  0  0  0  0
  7  4  2  0  0  0  0
  7  2  1  0  0  0  0
  8  4  1  0  0  0  0
 10 11  1  0  0  0  0
 11 13  1  0  0  0  0
 11 12  1  0  0  0  0
 14  8  1  0  0  0  0
 15 14  1  0  0  0  0
 16 15  1  0  0  0  0
 17 22  1  0  0  0  0
 17 20  2  0  0  0  0
 19 18  2  0  0  0  0
 19 16  1  0  0  0  0
 20 18  1  0  0  0  0
 21 22  1  0  0  0  0
 22 19  1  0  0  0  0
 23 14  1  0  0  0  0
 23 24  1  0  0  0  0
 24 25  1  0  0  0  0
M  END
>  <MODEL>
5

>  <REMARK>
 VINA RESULT:      -6.7      4.426      8.477
  Name = 
  7 active torsions:
  status: ('A' for Active; 'I' for Inactive)
    1  A    between atoms: C_6  and  C_10
    2  A    between atoms: C_6  and  C_14
    3  A    between atoms: C_8  and  C_11
    4  A    between atoms: C_14  and  N_23
    5  A    between atoms: C_16  and  C_18
    6  A    between atoms: C_18  and  N_23
    7  A    between atoms: N_21  and  N_23
                            x       y       z     vdW  Elec       q    Type
                         _______ _______ _______ _____ _____    ______ ____

>  <TORSDO>
F 7

$$$$
=
 OpenBabel10222417093D

 25 27  0  0  1  0  0  0  0  0999 V2000
  189.6970  177.5550  146.6730 S   0  0  0  0  0  0  0  0  0  0  0  0
  189.8790  177.1110  144.0810 N   0  0  0  0  0  0  0  0  0  0  0  0
  188.5150  177.1890  144.3840 C   0  0  0  0  0  0  0  0  0  0  0  0
  188.6930  177.3470  142.1160 C   0  0  0  0  0  0  0  0  0  0  0  0
  188.2230  177.4540  145.6440 C   0  0  2  0  0  3  0  0  0  0  0  0
  190.7470  177.5260  145.1640 C   0  0  0  0  0  2  0  0  0  0  0  0
  190.0940  177.3170  142.6660 C   0  0  0  0  0  3  0  0  0  0  0  0
  188.3810  177.5110  140.8630 N   0  0  0  0  0  2  0  0  0  0  0  0
  187.6480  177.2900  143.1850 C   0  0  0  0  0  3  0  0  0  0  0  0
  186.4400  178.9950  145.5480 F   0  0  0  0  0  0  0  0  0  0  0  0
  186.8490  177.8100  146.1340 C   0  0  0  0  0  0  0  0  0  0  0  0
  185.9500  176.8140  145.8020 F   0  0  0  0  0  0  0  0  0  0  0  0
  186.8630  177.9610  147.5080 F   0  0  0  0  0  0  0  0  0  0  0  0
  189.3000  177.5740  139.7960 N   0  0  0  0  0  0  0  0  0  0  0  0
  189.2460  178.7090  138.8910 C   0  0  0  0  0  2  0  0  0  0  0  0
  188.7960  178.2520  137.5160 C   0  0  0  0  0  2  0  0  0  0  0  0
  185.5580  176.6870  137.4600 N   0  0  0  0  0  0  0  0  0  0  0  0
  186.3710  178.7260  137.9320 N   0  0  0  0  0  0  0  0  0  0  0  0
  187.3520  177.8850  137.5540 C   0  0  0  0  0  0  0  0  0  0  0  0
  185.2630  177.9450  137.8570 C   0  0  0  0  0  3  0  0  0  0  0  0
  187.5920  175.5470  136.8800 N   0  0  0  0  0  1  0  0  0  0  0  0
  186.8630  176.6710  137.2810 N   0  0  0  0  0  0  0  0  0  0  0  0
  190.1750  176.4630  139.4380 C   0  0  0  0  0  2  0  0  0  0  0  0
  191.5870  176.9650  139.2010 C   0  0  0  0  0  2  0  0  0  0  0  0
  192.0100  177.6820  140.3030 F   0  0  0  0  0  0  0  0  0  0  0  0
  2  3  1  0  0  0  0
  2  6  1  0  0  0  0
  3  5  1  0  0  0  0
  4  7  2  0  0  0  0
  4  9  1  0  0  0  0
  5 11  1  6  0  0  0
  5  1  1  0  0  0  0
  6  1  1  0  0  0  0
  7  2  1  0  0  0  0
  8  4  1  0  0  0  0
  9  3  2  0  0  0  0
 10 11  1  0  0  0  0
 11 13  1  0  0  0  0
 12 11  1  0  0  0  0
 14  8  1  0  0  0  0
 15 14  1  0  0  0  0
 16 19  1  0  0  0  0
 16 15  1  0  0  0  0
 17 20  2  0  0  0  0
 19 18  2  0  0  0  0
 20 18  1  0  0  0  0
 21 22  1  0  0  0  0
 22 17  1  0  0  0  0
 22 19  1  0  0  0  0
 23 14  1  0  0  0  0
 24 23  1  0  0  0  0
 24 25  1  0  0  0  0
M  END
>  <MODEL>
6

>  <REMARK>
 VINA RESULT:      -6.4      3.758      7.753
  Name = 
  7 active torsions:
  status: ('A' for Active; 'I' for Inactive)
    1  A    between atoms: C_6  and  C_10
    2  A    between atoms: C_6  and  C_14
    3  A    between atoms: C_8  and  C_11
    4  A    between atoms: C_14  and  N_23
    5  A    between atoms: C_16  and  C_18
    6  A    between atoms: C_18  and  N_23
    7  A    between atoms: N_21  and  N_23
                            x       y       z     vdW  Elec       q    Type
                         _______ _______ _______ _____ _____    ______ ____

>  <TORSDO>
F 7

$$$$
=
 OpenBabel10222417093D

 25 27  0  0  1  0  0  0  0  0999 V2000
  190.0610  176.7820  147.1720 S   0  0  0  0  0  0  0  0  0  0  0  0
  188.0980  177.9030  145.8170 N   0  0  0  0  0  0  0  0  0  0  0  0
  189.1250  177.6460  144.9040 C   0  0  0  0  0  0  0  0  0  0  0  0
  187.2560  178.1010  143.6780 C   0  0  0  0  0  0  0  0  0  0  0  0
  190.1900  177.0380  145.3950 C   0  0  2  0  0  3  0  0  0  0  0  0
  188.2940  177.2850  147.1120 C   0  0  0  0  0  2  0  0  0  0  0  0
  186.8420  178.0920  145.1240 C   0  0  0  0  0  3  0  0  0  0  0  0
  186.4510  178.2480  142.6670 N   0  0  0  0  0  2  0  0  0  0  0  0
  188.7100  177.7970  143.4880 C   0  0  0  0  0  3  0  0  0  0  0  0
  191.9870  177.4890  143.9360 F   0  0  0  0  0  0  0  0  0  0  0  0
  191.2950  176.4640  144.5560 C   0  0  0  0  0  0  0  0  0  0  0  0
  192.1730  175.7470  145.3480 F   0  0  0  0  0  0  0  0  0  0  0  0
  190.7670  175.6210  143.5960 F   0  0  0  0  0  0  0  0  0  0  0  0
  185.0740  178.5370  142.7560 N   0  0  0  0  0  0  0  0  0  0  0  0
  184.1700  177.9440  141.7860 C   0  0  0  0  0  2  0  0  0  0  0  0
  183.9230  178.9180  140.6480 C   0  0  0  0  0  2  0  0  0  0  0  0
  184.9480  177.5490  137.4840 N   0  0  0  0  0  0  0  0  0  0  0  0
  185.9140  178.7190  139.1390 N   0  0  0  0  0  0  0  0  0  0  0  0
  184.6260  178.4480  139.4210 C   0  0  0  0  0  0  0  0  0  0  0  0
  186.0830  178.1390  137.9240 C   0  0  0  0  0  3  0  0  0  0  0  0
  182.7270  177.3210  138.3690 N   0  0  0  0  0  1  0  0  0  0  0  0
  184.0540  177.7560  138.4290 N   0  0  0  0  0  0  0  0  0  0  0  0
  184.5350  179.5530  143.6540 C   0  0  0  0  0  2  0  0  0  0  0  0
  183.2950  179.0270  144.3520 C   0  0  0  0  0  2  0  0  0  0  0  0
  183.6110  178.6840  145.6530 F   0  0  0  0  0  0  0  0  0  0  0  0
  2  6  1  0  0  0  0
  3  5  1  0  0  0  0
  3  2  1  0  0  0  0
  4  7  2  0  0  0  0
  5 11  1  6  0  0  0
  5  1  1  0  0  0  0
  6  1  1  0  0  0  0
  7  2  1  0  0  0  0
  8 14  1  0  0  0  0
  8  4  1  0  0  0  0
  9  4  1  0  0  0  0
  9  3  2  0  0  0  0
 10 11  1  0  0  0  0
 11 12  1  0  0  0  0
 13 11  1  0  0  0  0
 14 23  1  0  0  0  0
 15 14  1  0  0  0  0
 16 15  1  0  0  0  0
 17 20  2  0  0  0  0
 17 22  1  0  0  0  0
 18 19  2  0  0  0  0
 19 16  1  0  0  0  0
 20 18  1  0  0  0  0
 21 22  1  0  0  0  0
 22 19  1  0  0  0  0
 23 24  1  0  0  0  0
 24 25  1  0  0  0  0
M  END
>  <MODEL>
7

>  <REMARK>
 VINA RESULT:      -6.4      4.325      7.826
  Name = 
  7 active torsions:
  status: ('A' for Active; 'I' for Inactive)
    1  A    between atoms: C_6  and  C_10
    2  A    between atoms: C_6  and  C_14
    3  A    between atoms: C_8  and  C_11
    4  A    between atoms: C_14  and  N_23
    5  A    between atoms: C_16  and  C_18
    6  A    between atoms: C_18  and  N_23
    7  A    between atoms: N_21  and  N_23
                            x       y       z     vdW  Elec       q    Type
                         _______ _______ _______ _____ _____    ______ ____

>  <TORSDO>
F 7

$$$$
=
 OpenBabel10222417093D

 25 27  0  0  1  0  0  0  0  0999 V2000
  191.0450  177.0760  144.6960 S   0  0  0  0  0  0  0  0  0  0  0  0
  188.6380  177.2450  143.6350 N   0  0  0  0  0  0  0  0  0  0  0  0
  188.4650  177.1500  145.0200 C   0  0  0  0  0  0  0  0  0  0  0  0
  186.4670  177.8310  144.1540 C   0  0  0  0  0  0  0  0  0  0  0  0
  189.5750  177.1010  145.7340 C   0  0  2  0  0  3  0  0  0  0  0  0
  190.0100  177.4680  143.2280 C   0  0  0  0  0  2  0  0  0  0  0  0
  187.4470  177.7820  143.0130 C   0  0  0  0  0  3  0  0  0  0  0  0
  185.2390  178.2510  144.0720 N   0  0  0  0  0  2  0  0  0  0  0  0
  187.0830  177.4550  145.4660 C   0  0  0  0  0  3  0  0  0  0  0  0
  189.2340  178.5100  147.5940 F   0  0  0  0  0  0  0  0  0  0  0  0
  189.6220  177.2330  147.2290 C   0  0  0  0  0  0  0  0  0  0  0  0
  188.7660  176.3200  147.8170 F   0  0  0  0  0  0  0  0  0  0  0  0
  190.9070  176.9980  147.6810 F   0  0  0  0  0  0  0  0  0  0  0  0
  184.5820  178.6220  142.8810 N   0  0  0  0  0  0  0  0  0  0  0  0
  185.3810  179.0250  141.7370 C   0  0  0  0  0  2  0  0  0  0  0  0
  184.5280  179.0100  140.4810 C   0  0  0  0  0  2  0  0  0  0  0  0
  185.8400  177.8440  137.3410 N   0  0  0  0  0  0  0  0  0  0  0  0
  186.6850  178.4770  139.3220 N   0  0  0  0  0  0  0  0  0  0  0  0
  185.3400  178.5320  139.3260 C   0  0  0  0  0  0  0  0  0  0  0  0
  186.9630  178.0390  138.0680 C   0  0  0  0  0  3  0  0  0  0  0  0
  183.4930  178.1150  137.7790 N   0  0  0  0  0  1  0  0  0  0  0  0
  184.8430  178.1600  138.1420 N   0  0  0  0  0  0  0  0  0  0  0  0
  183.1370  178.8070  142.7980 C   0  0  0  0  0  2  0  0  0  0  0  0
  182.5370  178.8630  144.1910 C   0  0  0  0  0  2  0  0  0  0  0  0
  181.2390  178.3920  144.1510 F   0  0  0  0  0  0  0  0  0  0  0  0
  1  5  1  0  0  0  0
  2  3  1  0  0  0  0
  3  9  2  0  0  0  0
  3  5  1  0  0  0  0
  4  9  1  0  0  0  0
  5 11  1  1  0  0  0
  6  2  1  0  0  0  0
  6  1  1  0  0  0  0
  7  2  1  0  0  0  0
  7  4  2  0  0  0  0
  8  4  1  0  0  0  0
 11 10  1  0  0  0  0
 11 13  1  0  0  0  0
 11 12  1  0  0  0  0
 14  8  1  0  0  0  0
 15 14  1  0  0  0  0
 16 15  1  0  0  0  0
 17 20  2  0  0  0  0
 17 22  1  0  0  0  0
 18 19  2  0  0  0  0
 19 16  1  0  0  0  0
 20 18  1  0  0  0  0
 21 22  1  0  0  0  0
 22 19  1  0  0  0  0
 23 14  1  0  0  0  0
 23 24  1  0  0  0  0
 25 24  1  0  0  0  0
M  END
>  <MODEL>
8

>  <REMARK>
 VINA RESULT:      -6.4      4.486      8.189
  Name = 
  7 active torsions:
  status: ('A' for Active; 'I' for Inactive)
    1  A    between atoms: C_6  and  C_10
    2  A    between atoms: C_6  and  C_14
    3  A    between atoms: C_8  and  C_11
    4  A    between atoms: C_14  and  N_23
    5  A    between atoms: C_16  and  C_18
    6  A    between atoms: C_18  and  N_23
    7  A    between atoms: N_21  and  N_23
                            x       y       z     vdW  Elec       q    Type
                         _______ _______ _______ _____ _____    ______ ____

>  <TORSDO>
F 7

$$$$
=
 OpenBabel10222417093D

 25 27  0  0  1  0  0  0  0  0999 V2000
  187.9270  177.5200  147.3990 S   0  0  0  0  0  0  0  0  0  0  0  0
  188.6240  177.0520  144.9010 N   0  0  0  0  0  0  0  0  0  0  0  0
  187.3060  177.5220  144.8730 C   0  0  0  0  0  0  0  0  0  0  0  0
  188.0870  177.6310  142.7320 C   0  0  0  0  0  0  0  0  0  0  0  0
  186.7930  177.8560  146.0430 C   0  0  2  0  0  3  0  0  0  0  0  0
  189.2720  177.1940  146.1880 C   0  0  0  0  0  2  0  0  0  0  0  0
  189.2370  177.1930  143.5980 C   0  0  0  0  0  3  0  0  0  0  0  0
  188.1590  177.8840  141.4580 N   0  0  0  0  0  2  0  0  0  0  0  0
  186.8330  177.8760  143.5130 C   0  0  0  0  0  3  0  0  0  0  0  0
  184.5330  178.0370  145.3930 F   0  0  0  0  0  0  0  0  0  0  0  0
  185.4960  178.5940  146.2150 C   0  0  0  0  0  0  0  0  0  0  0  0
  185.0680  178.5090  147.5270 F   0  0  0  0  0  0  0  0  0  0  0  0
  185.6660  179.9250  145.8840 F   0  0  0  0  0  0  0  0  0  0  0  0
  189.2960  177.6810  140.6500 N   0  0  0  0  0  0  0  0  0  0  0  0
  189.3180  178.2540  139.3160 C   0  0  0  0  0  2  0  0  0  0  0  0
  188.8480  177.2260  138.3040 C   0  0  0  0  0  2  0  0  0  0  0  0
  185.4480  177.1660  137.1310 N   0  0  0  0  0  0  0  0  0  0  0  0
  186.6730  178.4540  138.5030 N   0  0  0  0  0  0  0  0  0  0  0  0
  187.4150  177.4640  137.9720 C   0  0  0  0  0  0  0  0  0  0  0  0
  185.4510  178.2400  137.9520 C   0  0  0  0  0  3  0  0  0  0  0  0
  187.1110  175.5690  136.4560 N   0  0  0  0  0  1  0  0  0  0  0  0
  186.6790  176.6960  137.1610 N   0  0  0  0  0  0  0  0  0  0  0  0
  190.3710  176.7630  141.0120 C   0  0  0  0  0  2  0  0  0  0  0  0
  191.6960  177.5020  141.0550 C   0  0  0  0  0  2  0  0  0  0  0  0
  192.4280  177.0690  142.1430 F   0  0  0  0  0  0  0  0  0  0  0  0
  2  6  1  0  0  0  0
  3  2  1  0  0  0  0
  3  5  1  0  0  0  0
  4  9  1  0  0  0  0
  4  7  2  0  0  0  0
  5 11  1  6  0  0  0
  5  1  1  0  0  0  0
  6  1  1  0  0  0  0
  7  2  1  0  0  0  0
  8  4  1  0  0  0  0
  9  3  2  0  0  0  0
 10 11  1  0  0  0  0
 11 12  1  0  0  0  0
 13 11  1  0  0  0  0
 14 23  1  0  0  0  0
 14  8  1  0  0  0  0
 15 14  1  0  0  0  0
 16 15  1  0  0  0  0
 17 22  1  0  0  0  0
 17 20  2  0  0  0  0
 19 16  1  0  0  0  0
 19 18  2  0  0  0  0
 20 18  1  0  0  0  0
 21 22  1  0  0  0  0
 22 19  1  0  0  0  0
 23 24  1  0  0  0  0
 24 25  1  0  0  0  0
M  END
>  <MODEL>
9

>  <REMARK>
 VINA RESULT:      -6.4      3.995      7.797
  Name = 
  7 active torsions:
  status: ('A' for Active; 'I' for Inactive)
    1  A    between atoms: C_6  and  C_10
    2  A    between atoms: C_6  and  C_14
    3  A    between atoms: C_8  and  C_11
    4  A    between atoms: C_14  and  N_23
    5  A    between atoms: C_16  and  C_18
    6  A    between atoms: C_18  and  N_23
    7  A    between atoms: N_21  and  N_23
                            x       y       z     vdW  Elec       q    Type
                         _______ _______ _______ _____ _____    ______ ____

>  <TORSDO>
F 7

$$$$
