=
 OpenBabel10222420013D

 54 57  0  0  1  0  0  0  0  0999 V2000
  185.3010  178.6230  141.1280 C   0  0  1  0  0  3  0  0  0  0  0  0
  182.5950  177.6230  139.2440 C   0  0  0  0  0  0  0  0  0  0  0  0
  182.9790  178.4850  140.2350 C   0  0  0  0  0  0  0  0  0  0  0  0
  181.3470  176.9990  139.2970 C   0  0  0  0  0  0  0  0  0  0  0  0
  184.7300  178.4790  138.6150 C   0  0  0  0  0  3  0  0  0  0  0  0
  180.8900  178.1320  141.3500 C   0  0  0  0  0  0  0  0  0  0  0  0
  183.6370  177.4760  138.1980 C   0  0  0  0  0  3  0  0  0  0  0  0
  180.5210  177.2760  140.3530 N   0  0  0  0  0  0  0  0  0  0  0  0
  179.7910  178.4490  142.6750 Cl  0  0  0  0  0  0  0  0  0  0  0  0
  184.3360  179.0370  139.9970 C   0  0  2  0  0  3  0  0  0  0  0  0
  182.1420  178.7640  141.3100 C   0  0  0  0  0  3  0  0  0  0  0  0
  180.9180  174.8040  138.4710 C   0  0  0  0  0  3  0  0  0  0  0  0
  180.9460  176.0810  138.2720 N   0  0  0  0  0  0  0  0  0  0  0  0
  183.0790  173.5010  137.0880 C   0  0  0  0  0  1  0  0  0  0  0  0
  180.5070  173.8800  137.3650 C   0  0  2  0  0  3  0  0  0  0  0  0
  180.0310  172.6240  137.9330 N   0  0  0  0  0  2  0  0  0  0  0  0
  181.1200  171.9270  137.2510 C   0  0  0  0  0  2  0  0  0  0  0  0
  181.6560  173.1930  136.6350 C   0  0  0  0  0  0  0  0  0  0  0  0
  181.4800  173.2120  135.1290 C   0  0  0  0  0  1  0  0  0  0  0  0
  187.3780  177.8410  139.8780 N   0  0  0  0  0  2  0  0  0  0  0  0
  187.4400  179.6680  141.3290 O   0  0  0  0  0  0  0  0  0  0  0  0
  186.7610  178.7600  140.7840 C   0  0  0  0  0  0  0  0  0  0  0  0
  188.7920  177.9110  139.5420 C   0  0  0  0  0  2  0  0  0  0  0  0
  189.0100  177.4360  138.1140 C   0  0  2  0  0  3  0  0  0  0  0  0
  188.9490  179.7030  137.4710 O   0  0  0  0  0  0  0  0  0  0  0  0
  188.7480  178.5440  137.1450 C   0  0  0  0  0  3  0  0  0  0  0  0
  188.1530  176.3650  137.8430 O   0  0  0  0  0  0  0  0  0  0  0  0
  188.6250  175.7980  136.6510 C   0  0  2  0  0  3  0  0  0  0  0  0
  187.5910  174.9710  136.0230 N   0  0  0  0  0  2  0  0  0  0  0  0
  186.5440  174.6580  136.9900 C   0  0  0  0  0  2  0  0  0  0  0  0
  186.6400  173.3210  137.3670 O   0  0  0  0  0  1  0  0  0  0  0  0
  189.7730  175.0410  136.9130 O   0  0  0  0  0  0  0  0  0  0  0  0
  190.0950  174.4340  135.6960 C   0  0  0  0  0  2  0  0  0  0  0  0
  190.6510  173.1150  135.9440 N   0  0  0  0  0  1  0  0  0  0  0  0
  184.9880  179.3030  142.3860 N   0  0  0  0  0  2  0  0  0  0  0  0
  185.0180  178.3550  143.5020 C   0  0  0  0  0  2  0  0  0  0  0  0
  184.5470  178.9830  144.8100 C   0  0  1  0  0  3  0  0  0  0  0  0
  183.0970  179.0010  144.8590 N   0  0  0  0  0  1  0  0  0  0  0  0
  185.0810  178.1990  145.9970 C   0  0  0  0  0  2  0  0  0  0  0  0
  186.4650  178.5610  146.2600 N   0  0  0  0  0  2  0  0  0  0  0  0
  187.2090  177.3710  146.2210 N   0  0  0  0  0  2  0  0  0  0  0  0
  191.0440  176.1150  145.4090 C   0  0  0  0  0  2  0  0  0  0  0  0
  188.5910  177.7340  145.9430 C   0  0  1  0  0  3  0  0  0  0  0  0
  189.3910  177.9710  148.1750 O   0  0  0  0  0  1  0  0  0  0  0  0
  189.4930  177.1630  147.0440 C   0  0  2  0  0  3  0  0  0  0  0  0
  190.1770  176.5420  144.3120 N   0  0  0  0  0  0  0  0  0  0  0  0
  188.9620  177.2770  144.5570 C   0  0  0  0  0  0  0  0  0  0  0  0
  188.2170  177.6020  143.5910 O   0  0  0  0  0  0  0  0  0  0  0  0
  190.9540  177.0720  146.5890 C   0  0  1  0  0  3  0  0  0  0  0  0
  191.8340  176.5310  147.7100 C   0  0  0  0  0  2  0  0  0  0  0  0
  192.6270  175.4950  147.2230 O   0  0  0  0  0  1  0  0  0  0  0  0
  190.4390  176.0140  142.9780 C   0  0  0  0  0  2  0  0  0  0  0  0
  191.1200  177.0400  142.1270 C   0  0  0  0  0  3  0  0  0  0  0  0
  192.1730  177.5390  142.4790 O   0  0  0  0  0  0  0  0  0  0  0  0
  1 22  1  6  0  0  0
  1 35  1  0  0  0  0
  2  4  1  0  0  0  0
  2  3  2  0  0  0  0
  3 11  1  0  0  0  0
  4  8  2  0  0  0  0
  5 10  1  0  0  0  0
  6  9  1  0  0  0  0
  7  5  2  0  0  0  0
  7  2  1  0  0  0  0
  8  6  1  0  0  0  0
 10  3  1  0  0  0  0
 10  1  1  1  0  0  0
 11  6  2  0  0  0  0
 13 12  2  0  0  0  0
 13  4  1  0  0  0  0
 15 16  1  0  0  0  0
 15 12  1  1  0  0  0
 17 16  1  0  0  0  0
 18 14  1  0  0  0  0
 18 17  1  0  0  0  0
 18 15  1  0  0  0  0
 19 18  1  0  0  0  0
 20 22  1  0  0  0  0
 22 21  2  0  0  0  0
 23 20  1  0  0  0  0
 24 26  1  6  0  0  0
 24 23  1  0  0  0  0
 26 25  2  0  0  0  0
 27 24  1  0  0  0  0
 28 29  1  1  0  0  0
 28 32  1  0  0  0  0
 28 27  1  0  0  0  0
 29 30  1  0  0  0  0
 30 31  1  0  0  0  0
 33 34  1  0  0  0  0
 33 32  1  0  0  0  0
 35 36  1  0  0  0  0
 36 37  1  0  0  0  0
 37 38  1  6  0  0  0
 37 39  1  0  0  0  0
 39 40  1  0  0  0  0
 41 40  1  0  0  0  0
 42 49  1  0  0  0  0
 43 41  1  1  0  0  0
 43 45  1  0  0  0  0
 45 44  1  1  0  0  0
 46 47  1  0  0  0  0
 46 42  1  0  0  0  0
 47 43  1  0  0  0  0
 48 47  2  0  0  0  0
 49 45  1  0  0  0  0
 49 50  1  1  0  0  0
 51 50  1  0  0  0  0
 52 46  1  0  0  0  0
 53 54  2  0  0  0  0
 53 52  1  0  0  0  0
M  END
>  <MODEL>
1

>  <REMARK>
 VINA RESULT:      -6.5      0.000      0.000
  Name = 
  23 active torsions:
  status: ('A' for Active; 'I' for Inactive)
    1  A    between atoms: C_2  and  O_5
    2  A    between atoms: C_2  and  O_19
    3  A    between atoms: C_2  and  N_50
    4  A    between atoms: N_4  and  C_27
    5  A    between atoms: N_4  and  C_37
    6  A    between atoms: O_5  and  C_48
    7  A    between atoms: C_6  and  C_46
    8  A    between atoms: C_7  and  N_51
    9  A    between atoms: C_9  and  C_41
   10  A    between atoms: N_10  and  C_49
   11  A    between atoms: C_14  and  N_53
   12  A    between atoms: C_15  and  C_21
   13  A    between atoms: C_17  and  C_32
   14  A    between atoms: C_17  and  N_54
   15  A    between atoms: O_19  and  C_39
   16  A    between atoms: C_21  and  N_25
   17  A    between atoms: C_24  and  N_50
   18  A    between atoms: C_27  and  C_33
   19  A    between atoms: C_27  and  C_42
   20  A    between atoms: C_28  and  C_48
   21  A    between atoms: C_32  and  C_37
   22  A    between atoms: C_48  and  C_49
   23  A    between atoms: N_51  and  N_54
                            x       y       z     vdW  Elec       q    Type
                         _______ _______ _______ _____ _____    ______ ____

>  <TORSDO>
F 23

$$$$
=
 OpenBabel10222420013D

 54 57  0  0  1  0  0  0  0  0999 V2000
  185.1420  178.6560  140.8890 C   0  0  1  0  0  3  0  0  0  0  0  0
  182.4270  177.5700  139.0660 C   0  0  0  0  0  0  0  0  0  0  0  0
  182.8000  178.4200  140.0720 C   0  0  0  0  0  0  0  0  0  0  0  0
  181.2170  176.8780  139.1410 C   0  0  0  0  0  0  0  0  0  0  0  0
  184.4880  178.5630  138.3940 C   0  0  0  0  0  3  0  0  0  0  0  0
  180.7750  177.9160  141.2460 C   0  0  0  0  0  0  0  0  0  0  0  0
  183.4370  177.5150  137.9800 C   0  0  0  0  0  3  0  0  0  0  0  0
  180.4160  177.0740  140.2330 N   0  0  0  0  0  0  0  0  0  0  0  0
  179.7090  178.1300  142.6180 Cl  0  0  0  0  0  0  0  0  0  0  0  0
  184.1150  179.0530  139.8070 C   0  0  2  0  0  3  0  0  0  0  0  0
  181.9880  178.6170  141.1840 C   0  0  0  0  0  3  0  0  0  0  0  0
  180.9390  174.6910  138.2310 C   0  0  0  0  0  3  0  0  0  0  0  0
  180.8300  175.9720  138.0990 N   0  0  0  0  0  0  0  0  0  0  0  0
  183.1120  173.5220  136.7510 C   0  0  0  0  0  1  0  0  0  0  0  0
  180.5350  173.7820  137.1100 C   0  0  2  0  0  3  0  0  0  0  0  0
  180.1280  172.4910  137.6520 N   0  0  0  0  0  2  0  0  0  0  0  0
  181.2260  171.8610  136.9200 C   0  0  0  0  0  2  0  0  0  0  0  0
  181.6910  173.1670  136.3290 C   0  0  0  0  0  0  0  0  0  0  0  0
  181.4720  173.2210  134.8290 C   0  0  0  0  0  1  0  0  0  0  0  0
  186.9670  178.1470  139.1870 N   0  0  0  0  0  2  0  0  0  0  0  0
  187.4380  179.2450  141.1920 O   0  0  0  0  0  0  0  0  0  0  0  0
  186.5780  178.7180  140.4390 C   0  0  0  0  0  0  0  0  0  0  0  0
  188.3470  178.1510  138.7250 C   0  0  0  0  0  2  0  0  0  0  0  0
  188.7420  176.7600  138.2580 C   0  0  2  0  0  3  0  0  0  0  0  0
  190.7330  175.5020  138.3330 O   0  0  0  0  0  0  0  0  0  0  0  0
  190.2280  176.6100  138.2450 C   0  0  0  0  0  3  0  0  0  0  0  0
  188.2380  176.5390  136.9730 O   0  0  0  0  0  0  0  0  0  0  0  0
  187.5270  175.3330  137.0490 C   0  0  2  0  0  3  0  0  0  0  0  0
  188.0810  174.3420  136.1210 N   0  0  0  0  0  2  0  0  0  0  0  0
  188.6140  173.2040  136.8630 C   0  0  0  0  0  2  0  0  0  0  0  0
  187.5690  172.3670  137.2490 O   0  0  0  0  0  1  0  0  0  0  0  0
  186.1740  175.5670  136.7730 O   0  0  0  0  0  0  0  0  0  0  0  0
  186.1700  176.4730  135.7090 C   0  0  0  0  0  2  0  0  0  0  0  0
  185.4310  175.9070  134.5940 N   0  0  0  0  0  1  0  0  0  0  0  0
  184.9430  179.4090  142.1290 N   0  0  0  0  0  2  0  0  0  0  0  0
  184.8150  178.4960  143.2670 C   0  0  0  0  0  2  0  0  0  0  0  0
  184.2420  179.1850  144.5010 C   0  0  1  0  0  3  0  0  0  0  0  0
  182.8300  178.8790  144.6320 N   0  0  0  0  0  1  0  0  0  0  0  0
  184.9740  178.7250  145.7520 C   0  0  0  0  0  2  0  0  0  0  0  0
  185.9690  177.7190  145.4150 N   0  0  0  0  0  2  0  0  0  0  0  0
  187.1990  178.1870  145.9030 N   0  0  0  0  0  2  0  0  0  0  0  0
  191.1660  177.4370  145.1010 C   0  0  0  0  0  2  0  0  0  0  0  0
  188.2150  177.2210  145.5090 C   0  0  1  0  0  3  0  0  0  0  0  0
  188.0070  177.3740  143.1410 O   0  0  0  0  0  1  0  0  0  0  0  0
  188.8640  177.6790  144.1980 C   0  0  2  0  0  3  0  0  0  0  0  0
  190.6170  177.0900  146.4100 N   0  0  0  0  0  0  0  0  0  0  0  0
  189.1950  177.0350  146.6380 C   0  0  0  0  0  0  0  0  0  0  0  0
  188.7510  176.7660  147.7890 O   0  0  0  0  0  0  0  0  0  0  0  0
  190.2280  177.0160  143.9780 C   0  0  1  0  0  3  0  0  0  0  0  0
  190.8380  177.4630  142.6550 C   0  0  0  0  0  2  0  0  0  0  0  0
  192.1320  176.9630  142.5430 O   0  0  0  0  0  1  0  0  0  0  0  0
  191.5280  177.0250  147.5480 C   0  0  0  0  0  2  0  0  0  0  0  0
  192.1840  175.6820  147.6240 C   0  0  0  0  0  3  0  0  0  0  0  0
  192.3560  175.0180  146.6190 O   0  0  0  0  0  0  0  0  0  0  0  0
  1 22  1  6  0  0  0
  1 35  1  0  0  0  0
  2  4  1  0  0  0  0
  2  3  2  0  0  0  0
  3 11  1  0  0  0  0
  4  8  2  0  0  0  0
  5 10  1  0  0  0  0
  6  9  1  0  0  0  0
  7  5  2  0  0  0  0
  7  2  1  0  0  0  0
  8  6  1  0  0  0  0
 10  3  1  0  0  0  0
 10  1  1  1  0  0  0
 11  6  2  0  0  0  0
 13 12  2  0  0  0  0
 13  4  1  0  0  0  0
 15 16  1  0  0  0  0
 15 12  1  1  0  0  0
 17 16  1  0  0  0  0
 18 14  1  0  0  0  0
 18 17  1  0  0  0  0
 18 15  1  0  0  0  0
 19 18  1  0  0  0  0
 20 22  1  0  0  0  0
 22 21  2  0  0  0  0
 23 20  1  0  0  0  0
 24 26  1  6  0  0  0
 24 23  1  0  0  0  0
 26 25  2  0  0  0  0
 27 28  1  0  0  0  0
 27 24  1  0  0  0  0
 28 29  1  6  0  0  0
 29 30  1  0  0  0  0
 30 31  1  0  0  0  0
 32 28  1  0  0  0  0
 33 32  1  0  0  0  0
 34 33  1  0  0  0  0
 35 36  1  0  0  0  0
 36 37  1  0  0  0  0
 37 38  1  1  0  0  0
 37 39  1  0  0  0  0
 40 39  1  0  0  0  0
 40 41  1  0  0  0  0
 42 46  1  0  0  0  0
 43 41  1  1  0  0  0
 43 47  1  0  0  0  0
 45 44  1  6  0  0  0
 45 43  1  0  0  0  0
 46 47  1  0  0  0  0
 46 52  1  0  0  0  0
 47 48  2  0  0  0  0
 49 50  1  6  0  0  0
 49 45  1  0  0  0  0
 49 42  1  0  0  0  0
 51 50  1  0  0  0  0
 52 53  1  0  0  0  0
 54 53  2  0  0  0  0
M  END
>  <MODEL>
2

>  <REMARK>
 VINA RESULT:      -6.3      1.039      2.445
  Name = 
  23 active torsions:
  status: ('A' for Active; 'I' for Inactive)
    1  A    between atoms: C_2  and  O_5
    2  A    between atoms: C_2  and  O_19
    3  A    between atoms: C_2  and  N_50
    4  A    between atoms: N_4  and  C_27
    5  A    between atoms: N_4  and  C_37
    6  A    between atoms: O_5  and  C_48
    7  A    between atoms: C_6  and  C_46
    8  A    between atoms: C_7  and  N_51
    9  A    between atoms: C_9  and  C_41
   10  A    between atoms: N_10  and  C_49
   11  A    between atoms: C_14  and  N_53
   12  A    between atoms: C_15  and  C_21
   13  A    between atoms: C_17  and  C_32
   14  A    between atoms: C_17  and  N_54
   15  A    between atoms: O_19  and  C_39
   16  A    between atoms: C_21  and  N_25
   17  A    between atoms: C_24  and  N_50
   18  A    between atoms: C_27  and  C_33
   19  A    between atoms: C_27  and  C_42
   20  A    between atoms: C_28  and  C_48
   21  A    between atoms: C_32  and  C_37
   22  A    between atoms: C_48  and  C_49
   23  A    between atoms: N_51  and  N_54
                            x       y       z     vdW  Elec       q    Type
                         _______ _______ _______ _____ _____    ______ ____

>  <TORSDO>
F 23

$$$$
=
 OpenBabel10222420013D

 54 57  0  0  1  0  0  0  0  0999 V2000
  185.6500  177.3460  136.3570 C   0  0  1  0  0  3  0  0  0  0  0  0
  188.3360  175.6030  135.0820 C   0  0  0  0  0  0  0  0  0  0  0  0
  186.9750  175.5670  135.2220 C   0  0  0  0  0  0  0  0  0  0  0  0
  189.0880  174.4340  135.2060 C   0  0  0  0  0  0  0  0  0  0  0  0
  187.5470  177.8150  134.6690 C   0  0  0  0  0  3  0  0  0  0  0  0
  187.0790  173.2060  135.6070 C   0  0  0  0  0  0  0  0  0  0  0  0
  188.8310  176.9730  134.8010 C   0  0  0  0  0  3  0  0  0  0  0  0
  188.4350  173.2580  135.4630 N   0  0  0  0  0  0  0  0  0  0  0  0
  186.2980  171.6740  135.9320 Cl  0  0  0  0  0  0  0  0  0  0  0  0
  186.3620  176.9080  135.0590 C   0  0  2  0  0  3  0  0  0  0  0  0
  186.3110  174.3730  135.4860 C   0  0  0  0  0  3  0  0  0  0  0  0
  191.2950  174.4320  136.1100 C   0  0  0  0  0  3  0  0  0  0  0  0
  190.5160  174.4690  135.0790 N   0  0  0  0  0  0  0  0  0  0  0  0
  192.6400  176.5020  137.5900 C   0  0  0  0  0  1  0  0  0  0  0  0
  192.7820  174.4860  135.9310 C   0  0  2  0  0  3  0  0  0  0  0  0
  193.4060  173.4310  136.7200 N   0  0  0  0  0  2  0  0  0  0  0  0
  194.1020  174.4540  137.4990 C   0  0  0  0  0  2  0  0  0  0  0  0
  193.4890  175.5860  136.7160 C   0  0  0  0  0  0  0  0  0  0  0  0
  194.5190  176.3240  135.8830 C   0  0  0  0  0  1  0  0  0  0  0  0
  183.7010  176.0850  137.4030 N   0  0  0  0  0  2  0  0  0  0  0  0
  183.4010  177.4890  135.5630 O   0  0  0  0  0  0  0  0  0  0  0  0
  184.1860  176.9970  136.4150 C   0  0  0  0  0  0  0  0  0  0  0  0
  182.3020  175.6900  137.4770 C   0  0  0  0  0  2  0  0  0  0  0  0
  181.6410  176.3490  138.6770 C   0  0  2  0  0  3  0  0  0  0  0  0
  180.3130  175.1720  140.2290 O   0  0  0  0  0  0  0  0  0  0  0  0
  180.4190  175.5910  139.0870 C   0  0  0  0  0  3  0  0  0  0  0  0
  181.2900  177.6630  138.3530 O   0  0  0  0  0  0  0  0  0  0  0  0
  181.8770  178.4640  139.3410 C   0  0  2  0  0  3  0  0  0  0  0  0
  181.1110  179.6990  139.5340 N   0  0  0  0  0  2  0  0  0  0  0  0
  180.4410  179.6760  140.8300 C   0  0  0  0  0  2  0  0  0  0  0  0
  180.4380  178.3770  141.3320 O   0  0  0  0  0  1  0  0  0  0  0  0
  183.2010  178.7530  138.9870 O   0  0  0  0  0  0  0  0  0  0  0  0
  183.8460  179.0430  140.1930 C   0  0  0  0  0  2  0  0  0  0  0  0
  183.8040  177.8750  141.0560 N   0  0  0  0  0  1  0  0  0  0  0  0
  186.3550  176.8730  137.5490 N   0  0  0  0  0  2  0  0  0  0  0  0
  186.8840  178.0040  138.3150 C   0  0  0  0  0  2  0  0  0  0  0  0
  188.4040  178.1020  138.2300 C   0  0  1  0  0  3  0  0  0  0  0  0
  188.7870  179.3540  137.6060 N   0  0  0  0  0  1  0  0  0  0  0  0
  189.0180  178.0230  139.6180 C   0  0  0  0  0  2  0  0  0  0  0  0
  187.9750  177.9810  140.6310 N   0  0  0  0  0  2  0  0  0  0  0  0
  188.4270  177.1160  141.6410 N   0  0  0  0  0  2  0  0  0  0  0  0
  189.0500  177.1630  145.7090 C   0  0  0  0  0  2  0  0  0  0  0  0
  188.5540  177.9040  142.8590 C   0  0  1  0  0  3  0  0  0  0  0  0
  186.2520  178.0960  143.4450 O   0  0  0  0  0  1  0  0  0  0  0  0
  187.4480  177.4970  143.8400 C   0  0  2  0  0  3  0  0  0  0  0  0
  190.1640  177.4440  144.8060 N   0  0  0  0  0  0  0  0  0  0  0  0
  189.9450  177.7490  143.4150 C   0  0  0  0  0  0  0  0  0  0  0  0
  190.9300  177.9530  142.6520 O   0  0  0  0  0  0  0  0  0  0  0  0
  187.7890  177.9000  145.2780 C   0  0  1  0  0  3  0  0  0  0  0  0
  186.6620  177.5120  146.2280 C   0  0  0  0  0  2  0  0  0  0  0  0
  185.6760  178.4950  146.2100 O   0  0  0  0  0  1  0  0  0  0  0  0
  191.5200  177.1830  145.2780 C   0  0  0  0  0  2  0  0  0  0  0  0
  191.4940  176.4190  146.5640 C   0  0  0  0  0  3  0  0  0  0  0  0
  192.5280  176.0400  147.0820 O   0  0  0  0  0  0  0  0  0  0  0  0
  1 22  1  6  0  0  0
  1 35  1  0  0  0  0
  2  4  1  0  0  0  0
  2  3  2  0  0  0  0
  3 11  1  0  0  0  0
  4  8  2  0  0  0  0
  5  7  2  0  0  0  0
  5 10  1  0  0  0  0
  6  9  1  0  0  0  0
  7  2  1  0  0  0  0
  8  6  1  0  0  0  0
 10  3  1  0  0  0  0
 10  1  1  1  0  0  0
 11  6  2  0  0  0  0
 13  4  1  0  0  0  0
 13 12  2  0  0  0  0
 15 12  1  1  0  0  0
 15 18  1  0  0  0  0
 15 16  1  0  0  0  0
 16 17  1  0  0  0  0
 18 17  1  0  0  0  0
 18 14  1  0  0  0  0
 19 18  1  0  0  0  0
 20 23  1  0  0  0  0
 21 22  2  0  0  0  0
 22 20  1  0  0  0  0
 24 23  1  6  0  0  0
 24 26  1  0  0  0  0
 26 25  2  0  0  0  0
 27 24  1  0  0  0  0
 28 27  1  6  0  0  0
 28 29  1  0  0  0  0
 29 30  1  0  0  0  0
 30 31  1  0  0  0  0
 32 28  1  0  0  0  0
 32 33  1  0  0  0  0
 33 34  1  0  0  0  0
 35 36  1  0  0  0  0
 37 38  1  1  0  0  0
 37 36  1  0  0  0  0
 37 39  1  0  0  0  0
 39 40  1  0  0  0  0
 40 41  1  0  0  0  0
 43 41  1  6  0  0  0
 43 47  1  0  0  0  0
 43 45  1  0  0  0  0
 45 44  1  6  0  0  0
 45 49  1  0  0  0  0
 46 52  1  0  0  0  0
 46 42  1  0  0  0  0
 47 46  1  0  0  0  0
 48 47  2  0  0  0  0
 49 42  1  0  0  0  0
 49 50  1  1  0  0  0
 51 50  1  0  0  0  0
 52 53  1  0  0  0  0
 53 54  2  0  0  0  0
M  END
>  <MODEL>
3

>  <REMARK>
 VINA RESULT:      -6.2      3.265      7.918
  Name = 
  23 active torsions:
  status: ('A' for Active; 'I' for Inactive)
    1  A    between atoms: C_2  and  O_5
    2  A    between atoms: C_2  and  O_19
    3  A    between atoms: C_2  and  N_50
    4  A    between atoms: N_4  and  C_27
    5  A    between atoms: N_4  and  C_37
    6  A    between atoms: O_5  and  C_48
    7  A    between atoms: C_6  and  C_46
    8  A    between atoms: C_7  and  N_51
    9  A    between atoms: C_9  and  C_41
   10  A    between atoms: N_10  and  C_49
   11  A    between atoms: C_14  and  N_53
   12  A    between atoms: C_15  and  C_21
   13  A    between atoms: C_17  and  C_32
   14  A    between atoms: C_17  and  N_54
   15  A    between atoms: O_19  and  C_39
   16  A    between atoms: C_21  and  N_25
   17  A    between atoms: C_24  and  N_50
   18  A    between atoms: C_27  and  C_33
   19  A    between atoms: C_27  and  C_42
   20  A    between atoms: C_28  and  C_48
   21  A    between atoms: C_32  and  C_37
   22  A    between atoms: C_48  and  C_49
   23  A    between atoms: N_51  and  N_54
                            x       y       z     vdW  Elec       q    Type
                         _______ _______ _______ _____ _____    ______ ____

>  <TORSDO>
F 23

$$$$
=
 OpenBabel10222420013D

 54 57  0  0  1  0  0  0  0  0999 V2000
  189.1230  176.9870  141.2870 C   0  0  1  0  0  3  0  0  0  0  0  0
  190.4440  176.3330  138.1720 C   0  0  0  0  0  0  0  0  0  0  0  0
  189.3550  176.8620  138.8090 C   0  0  0  0  0  0  0  0  0  0  0  0
  190.2830  175.5760  137.0100 C   0  0  0  0  0  0  0  0  0  0  0  0
  191.2780  177.6070  140.0070 C   0  0  0  0  0  3  0  0  0  0  0  0
  187.9210  175.9060  137.1480 C   0  0  0  0  0  0  0  0  0  0  0  0
  191.7130  176.6690  138.8650 C   0  0  0  0  0  3  0  0  0  0  0  0
  189.0170  175.3860  136.5230 N   0  0  0  0  0  0  0  0  0  0  0  0
  186.3270  175.6310  136.4780 Cl  0  0  0  0  0  0  0  0  0  0  0  0
  189.7360  177.6270  140.0220 C   0  0  2  0  0  3  0  0  0  0  0  0
  188.0690  176.6660  138.3170 C   0  0  0  0  0  3  0  0  0  0  0  0
  191.6680  173.7360  136.3930 C   0  0  0  0  0  3  0  0  0  0  0  0
  191.4180  175.0040  136.3490 N   0  0  0  0  0  0  0  0  0  0  0  0
  194.1550  174.0610  137.8040 C   0  0  0  0  0  1  0  0  0  0  0  0
  192.8750  173.1820  135.7000 C   0  0  2  0  0  3  0  0  0  0  0  0
  192.9050  171.7330  135.8570 N   0  0  0  0  0  2  0  0  0  0  0  0
  194.1670  171.8580  136.5840 C   0  0  0  0  0  2  0  0  0  0  0  0
  194.1900  173.3590  136.4510 C   0  0  0  0  0  0  0  0  0  0  0  0
  195.3140  173.8320  135.5500 C   0  0  0  0  0  1  0  0  0  0  0  0
  190.8310  177.4840  143.1100 N   0  0  0  0  0  2  0  0  0  0  0  0
  190.3800  175.3010  142.4190 O   0  0  0  0  0  0  0  0  0  0  0  0
  190.1320  176.5290  142.3070 C   0  0  0  0  0  0  0  0  0  0  0  0
  191.8390  177.0920  144.0840 C   0  0  0  0  0  2  0  0  0  0  0  0
  191.2400  177.0960  145.4810 C   0  0  2  0  0  3  0  0  0  0  0  0
  192.4730  176.3070  147.3280 O   0  0  0  0  0  0  0  0  0  0  0  0
  191.8500  176.0190  146.3180 C   0  0  0  0  0  3  0  0  0  0  0  0
  189.8580  176.8980  145.3970 O   0  0  0  0  0  0  0  0  0  0  0  0
  189.2900  177.8350  146.2700 C   0  0  2  0  0  3  0  0  0  0  0  0
  189.0780  177.2500  147.5970 N   0  0  0  0  0  2  0  0  0  0  0  0
  188.5460  178.2560  148.5100 C   0  0  0  0  0  2  0  0  0  0  0  0
  187.6260  177.6650  149.3730 O   0  0  0  0  0  1  0  0  0  0  0  0
  188.0820  178.3020  145.7370 O   0  0  0  0  0  0  0  0  0  0  0  0
  187.4930  177.1850  145.1370 C   0  0  0  0  0  2  0  0  0  0  0  0
  186.1420  177.5160  144.7180 N   0  0  0  0  0  1  0  0  0  0  0  0
  188.1100  177.8520  141.8960 N   0  0  0  0  0  2  0  0  0  0  0  0
  187.4180  178.6320  140.8680 C   0  0  0  0  0  2  0  0  0  0  0  0
  185.9060  178.6400  141.0660 C   0  0  1  0  0  3  0  0  0  0  0  0
  185.5370  179.6520  142.0370 N   0  0  0  0  0  1  0  0  0  0  0  0
  185.2010  178.9250  139.7490 C   0  0  0  0  0  2  0  0  0  0  0  0
  183.7790  179.1360  139.9730 N   0  0  0  0  0  2  0  0  0  0  0  0
  183.3260  179.9680  138.9370 N   0  0  0  0  0  2  0  0  0  0  0  0
  179.9600  177.7760  139.8370 C   0  0  0  0  0  2  0  0  0  0  0  0
  182.0410  179.4460  138.4940 C   0  0  1  0  0  3  0  0  0  0  0  0
  182.7750  177.4450  137.4300 O   0  0  0  0  0  1  0  0  0  0  0  0
  182.0760  177.9140  138.5410 C   0  0  2  0  0  3  0  0  0  0  0  0
  179.9140  179.2350  139.9180 N   0  0  0  0  0  0  0  0  0  0  0  0
  180.9390  180.0530  139.3230 C   0  0  0  0  0  0  0  0  0  0  0  0
  180.8900  181.3090  139.4400 O   0  0  0  0  0  0  0  0  0  0  0  0
  180.6650  177.3150  138.5690 C   0  0  1  0  0  3  0  0  0  0  0  0
  180.7270  175.7920  138.5840 C   0  0  0  0  0  2  0  0  0  0  0  0
  181.2470  175.3570  139.8010 O   0  0  0  0  0  1  0  0  0  0  0  0
  178.9360  179.8470  140.8110 C   0  0  0  0  0  2  0  0  0  0  0  0
  179.4390  179.8570  142.2200 C   0  0  0  0  0  3  0  0  0  0  0  0
  180.0370  180.8210  142.6590 O   0  0  0  0  0  0  0  0  0  0  0  0
  1 35  1  1  0  0  0
  1 22  1  0  0  0  0
  2  3  2  0  0  0  0
  2  7  1  0  0  0  0
  3 10  1  0  0  0  0
  4  2  1  0  0  0  0
  5 10  1  0  0  0  0
  6 11  2  0  0  0  0
  7  5  2  0  0  0  0
  8  4  2  0  0  0  0
  8  6  1  0  0  0  0
  9  6  1  0  0  0  0
 10  1  1  1  0  0  0
 11  3  1  0  0  0  0
 13 12  2  0  0  0  0
 13  4  1  0  0  0  0
 15 16  1  0  0  0  0
 15 12  1  1  0  0  0
 15 18  1  0  0  0  0
 16 17  1  0  0  0  0
 18 17  1  0  0  0  0
 18 14  1  0  0  0  0
 19 18  1  0  0  0  0
 20 23  1  0  0  0  0
 22 21  2  0  0  0  0
 22 20  1  0  0  0  0
 24 23  1  6  0  0  0
 24 26  1  0  0  0  0
 26 25  2  0  0  0  0
 27 24  1  0  0  0  0
 28 27  1  6  0  0  0
 28 29  1  0  0  0  0
 29 30  1  0  0  0  0
 30 31  1  0  0  0  0
 32 28  1  0  0  0  0
 33 32  1  0  0  0  0
 34 33  1  0  0  0  0
 36 37  1  0  0  0  0
 36 35  1  0  0  0  0
 37 38  1  1  0  0  0
 39 40  1  0  0  0  0
 39 37  1  0  0  0  0
 41 40  1  0  0  0  0
 42 46  1  0  0  0  0
 43 45  1  0  0  0  0
 43 41  1  1  0  0  0
 43 47  1  0  0  0  0
 45 44  1  6  0  0  0
 45 49  1  0  0  0  0
 46 52  1  0  0  0  0
 47 48  2  0  0  0  0
 47 46  1  0  0  0  0
 49 50  1  1  0  0  0
 49 42  1  0  0  0  0
 50 51  1  0  0  0  0
 52 53  1  0  0  0  0
 53 54  2  0  0  0  0
M  END
>  <MODEL>
4

>  <REMARK>
 VINA RESULT:      -6.1      3.118      9.872
  Name = 
  23 active torsions:
  status: ('A' for Active; 'I' for Inactive)
    1  A    between atoms: C_2  and  O_5
    2  A    between atoms: C_2  and  O_19
    3  A    between atoms: C_2  and  N_50
    4  A    between atoms: N_4  and  C_27
    5  A    between atoms: N_4  and  C_37
    6  A    between atoms: O_5  and  C_48
    7  A    between atoms: C_6  and  C_46
    8  A    between atoms: C_7  and  N_51
    9  A    between atoms: C_9  and  C_41
   10  A    between atoms: N_10  and  C_49
   11  A    between atoms: C_14  and  N_53
   12  A    between atoms: C_15  and  C_21
   13  A    between atoms: C_17  and  C_32
   14  A    between atoms: C_17  and  N_54
   15  A    between atoms: O_19  and  C_39
   16  A    between atoms: C_21  and  N_25
   17  A    between atoms: C_24  and  N_50
   18  A    between atoms: C_27  and  C_33
   19  A    between atoms: C_27  and  C_42
   20  A    between atoms: C_28  and  C_48
   21  A    between atoms: C_32  and  C_37
   22  A    between atoms: C_48  and  C_49
   23  A    between atoms: N_51  and  N_54
                            x       y       z     vdW  Elec       q    Type
                         _______ _______ _______ _____ _____    ______ ____

>  <TORSDO>
F 23

$$$$
=
 OpenBabel10222420013D

 54 57  0  0  1  0  0  0  0  0999 V2000
  187.2370  177.2940  136.7200 C   0  0  1  0  0  3  0  0  0  0  0  0
  189.9360  175.4180  135.6850 C   0  0  0  0  0  0  0  0  0  0  0  0
  188.5680  175.4400  135.7210 C   0  0  0  0  0  0  0  0  0  0  0  0
  190.6280  174.2220  135.8860 C   0  0  0  0  0  0  0  0  0  0  0  0
  189.2740  177.6510  135.1750 C   0  0  0  0  0  3  0  0  0  0  0  0
  188.5440  173.0850  136.1530 C   0  0  0  0  0  0  0  0  0  0  0  0
  190.5080  176.7620  135.4190 C   0  0  0  0  0  3  0  0  0  0  0  0
  189.9080  173.0800  136.1120 N   0  0  0  0  0  0  0  0  0  0  0  0
  187.6770  171.5920  136.4430 Cl  0  0  0  0  0  0  0  0  0  0  0  0
  188.0260  176.8010  135.4890 C   0  0  2  0  0  3  0  0  0  0  0  0
  187.8370  174.2790  135.9540 C   0  0  0  0  0  3  0  0  0  0  0  0
  192.7490  173.7060  136.8460 C   0  0  0  0  0  3  0  0  0  0  0  0
  192.0610  174.1970  135.8680 N   0  0  0  0  0  0  0  0  0  0  0  0
  193.9730  171.1630  136.2820 C   0  0  0  0  0  1  0  0  0  0  0  0
  194.2460  173.7130  136.7910 C   0  0  2  0  0  3  0  0  0  0  0  0
  194.6830  174.2750  135.5190 N   0  0  0  0  0  2  0  0  0  0  0  0
  195.3120  172.9970  135.1930 C   0  0  0  0  0  2  0  0  0  0  0  0
  194.8890  172.3630  136.4930 C   0  0  0  0  0  0  0  0  0  0  0  0
  196.0730  172.0730  137.3960 C   0  0  0  0  0  1  0  0  0  0  0  0
  185.0260  176.4110  137.6250 N   0  0  0  0  0  2  0  0  0  0  0  0
  185.1410  177.5860  135.6120 O   0  0  0  0  0  0  0  0  0  0  0  0
  185.7440  177.1240  136.6150 C   0  0  0  0  0  0  0  0  0  0  0  0
  183.5900  176.1910  137.5500 C   0  0  0  0  0  2  0  0  0  0  0  0
  182.8820  177.0230  138.6070 C   0  0  2  0  0  3  0  0  0  0  0  0
  181.2420  175.3300  138.6600 O   0  0  0  0  0  0  0  0  0  0  0  0
  181.4970  176.5110  138.8410 C   0  0  0  0  0  3  0  0  0  0  0  0
  182.8230  178.3560  138.1900 O   0  0  0  0  0  0  0  0  0  0  0  0
  183.6600  179.0620  139.0650 C   0  0  2  0  0  3  0  0  0  0  0  0
  183.6770  178.4340  140.3900 N   0  0  0  0  0  2  0  0  0  0  0  0
  184.8550  178.8660  141.1350 C   0  0  0  0  0  2  0  0  0  0  0  0
  185.9490  178.9430  140.2750 O   0  0  0  0  0  1  0  0  0  0  0  0
  183.2330  180.3920  139.1540 O   0  0  0  0  0  0  0  0  0  0  0  0
  182.0730  180.4540  138.3770 C   0  0  0  0  0  2  0  0  0  0  0  0
  180.9820  180.9820  139.1780 N   0  0  0  0  0  1  0  0  0  0  0  0
  187.7500  176.7120  137.9620 N   0  0  0  0  0  2  0  0  0  0  0  0
  188.6680  177.6420  138.6230 C   0  0  0  0  0  2  0  0  0  0  0  0
  189.6330  176.9320  139.5670 C   0  0  1  0  0  3  0  0  0  0  0  0
  190.9780  176.9710  139.0250 N   0  0  0  0  0  1  0  0  0  0  0  0
  189.6220  177.5970  140.9340 C   0  0  0  0  0  2  0  0  0  0  0  0
  188.4170  177.2340  141.6640 N   0  0  0  0  0  2  0  0  0  0  0  0
  188.8220  176.4120  142.7280 N   0  0  0  0  0  2  0  0  0  0  0  0
  189.6200  176.7950  146.7480 C   0  0  0  0  0  2  0  0  0  0  0  0
  189.1870  177.2860  143.8340 C   0  0  1  0  0  3  0  0  0  0  0  0
  187.0260  178.0970  144.4240 O   0  0  0  0  0  1  0  0  0  0  0  0
  188.0610  177.2790  144.8740 C   0  0  2  0  0  3  0  0  0  0  0  0
  190.7270  176.6870  145.8000 N   0  0  0  0  0  0  0  0  0  0  0  0
  190.5250  176.8680  144.3850 C   0  0  0  0  0  0  0  0  0  0  0  0
  191.4950  176.7340  143.5880 O   0  0  0  0  0  0  0  0  0  0  0  0
  188.5530  177.7570  146.2450 C   0  0  1  0  0  3  0  0  0  0  0  0
  187.4090  177.7710  147.2520 C   0  0  0  0  0  2  0  0  0  0  0  0
  187.9050  177.5070  148.5270 O   0  0  0  0  0  1  0  0  0  0  0  0
  192.0020  176.1660  146.2820 C   0  0  0  0  0  2  0  0  0  0  0  0
  191.9910  176.0390  147.7730 C   0  0  0  0  0  3  0  0  0  0  0  0
  193.0300  176.0780  148.4060 O   0  0  0  0  0  0  0  0  0  0  0  0
  1 22  1  6  0  0  0
  1 35  1  0  0  0  0
  2  3  2  0  0  0  0
  2  4  1  0  0  0  0
  3 11  1  0  0  0  0
  4  8  2  0  0  0  0
  5  7  2  0  0  0  0
  5 10  1  0  0  0  0
  6  9  1  0  0  0  0
  7  2  1  0  0  0  0
  8  6  1  0  0  0  0
 10  3  1  0  0  0  0
 10  1  1  1  0  0  0
 11  6  2  0  0  0  0
 13  4  1  0  0  0  0
 13 12  2  0  0  0  0
 14 18  1  0  0  0  0
 15 12  1  6  0  0  0
 16 15  1  0  0  0  0
 17 16  1  0  0  0  0
 17 18  1  0  0  0  0
 18 15  1  0  0  0  0
 18 19  1  0  0  0  0
 21 22  2  0  0  0  0
 22 20  1  0  0  0  0
 23 20  1  0  0  0  0
 24 23  1  6  0  0  0
 24 26  1  0  0  0  0
 25 26  2  0  0  0  0
 27 24  1  0  0  0  0
 28 27  1  6  0  0  0
 28 32  1  0  0  0  0
 28 29  1  0  0  0  0
 29 30  1  0  0  0  0
 31 30  1  0  0  0  0
 33 32  1  0  0  0  0
 33 34  1  0  0  0  0
 35 36  1  0  0  0  0
 36 37  1  0  0  0  0
 37 38  1  6  0  0  0
 37 39  1  0  0  0  0
 39 40  1  0  0  0  0
 40 41  1  0  0  0  0
 43 41  1  6  0  0  0
 43 47  1  0  0  0  0
 43 45  1  0  0  0  0
 45 44  1  6  0  0  0
 45 49  1  0  0  0  0
 46 52  1  0  0  0  0
 46 42  1  0  0  0  0
 47 46  1  0  0  0  0
 48 47  2  0  0  0  0
 49 42  1  0  0  0  0
 49 50  1  1  0  0  0
 50 51  1  0  0  0  0
 52 53  1  0  0  0  0
 53 54  2  0  0  0  0
M  END
>  <MODEL>
5

>  <REMARK>
 VINA RESULT:      -6.1      3.245      8.185
  Name = 
  23 active torsions:
  status: ('A' for Active; 'I' for Inactive)
    1  A    between atoms: C_2  and  O_5
    2  A    between atoms: C_2  and  O_19
    3  A    between atoms: C_2  and  N_50
    4  A    between atoms: N_4  and  C_27
    5  A    between atoms: N_4  and  C_37
    6  A    between atoms: O_5  and  C_48
    7  A    between atoms: C_6  and  C_46
    8  A    between atoms: C_7  and  N_51
    9  A    between atoms: C_9  and  C_41
   10  A    between atoms: N_10  and  C_49
   11  A    between atoms: C_14  and  N_53
   12  A    between atoms: C_15  and  C_21
   13  A    between atoms: C_17  and  C_32
   14  A    between atoms: C_17  and  N_54
   15  A    between atoms: O_19  and  C_39
   16  A    between atoms: C_21  and  N_25
   17  A    between atoms: C_24  and  N_50
   18  A    between atoms: C_27  and  C_33
   19  A    between atoms: C_27  and  C_42
   20  A    between atoms: C_28  and  C_48
   21  A    between atoms: C_32  and  C_37
   22  A    between atoms: C_48  and  C_49
   23  A    between atoms: N_51  and  N_54
                            x       y       z     vdW  Elec       q    Type
                         _______ _______ _______ _____ _____    ______ ____

>  <TORSDO>
F 23

$$$$
=
 OpenBabel10222420013D

 54 57  0  0  1  0  0  0  0  0999 V2000
  189.1400  175.8440  136.8450 C   0  0  1  0  0  3  0  0  0  0  0  0
  185.8160  175.6160  135.9650 C   0  0  0  0  0  0  0  0  0  0  0  0
  186.7810  176.4950  136.3770 C   0  0  0  0  0  0  0  0  0  0  0  0
  184.5090  175.7310  136.4400 C   0  0  0  0  0  0  0  0  0  0  0  0
  187.8080  175.0510  134.7820 C   0  0  0  0  0  3  0  0  0  0  0  0
  185.1680  177.6240  137.7400 C   0  0  0  0  0  0  0  0  0  0  0  0
  186.3490  174.6110  135.0110 C   0  0  0  0  0  3  0  0  0  0  0  0
  184.2170  176.7400  137.3170 N   0  0  0  0  0  0  0  0  0  0  0  0
  184.7350  178.8960  138.8610 Cl  0  0  0  0  0  0  0  0  0  0  0  0
  188.0990  176.2040  135.7630 C   0  0  2  0  0  3  0  0  0  0  0  0
  186.4850  177.5190  137.2710 C   0  0  0  0  0  3  0  0  0  0  0  0
  183.1090  173.8310  136.7860 C   0  0  0  0  0  3  0  0  0  0  0  0
  183.4990  174.8020  136.0260 N   0  0  0  0  0  0  0  0  0  0  0  0
  180.5020  174.1750  137.9540 C   0  0  0  0  0  1  0  0  0  0  0  0
  182.0600  172.8740  136.3060 C   0  0  2  0  0  3  0  0  0  0  0  0
  181.5920  173.2860  134.9880 N   0  0  0  0  0  2  0  0  0  0  0  0
  180.2550  173.4790  135.5460 C   0  0  0  0  0  2  0  0  0  0  0  0
  180.6810  173.0610  136.9300 C   0  0  0  0  0  0  0  0  0  0  0  0
  180.0500  171.7460  137.3450 C   0  0  0  0  0  1  0  0  0  0  0  0
  191.0510  174.5990  135.7120 N   0  0  0  0  0  2  0  0  0  0  0  0
  189.5200  173.4980  137.0860 O   0  0  0  0  0  0  0  0  0  0  0  0
  189.9110  174.5790  136.5740 C   0  0  0  0  0  0  0  0  0  0  0  0
  191.8070  173.3970  135.3930 C   0  0  0  0  0  2  0  0  0  0  0  0
  193.2270  173.5210  135.9220 C   0  0  2  0  0  3  0  0  0  0  0  0
  193.2610  171.1650  135.8540 O   0  0  0  0  0  0  0  0  0  0  0  0
  193.7640  172.1810  136.3080 C   0  0  0  0  0  3  0  0  0  0  0  0
  193.2380  174.3680  137.0340 O   0  0  0  0  0  0  0  0  0  0  0  0
  194.4950  174.9890  137.0220 C   0  0  2  0  0  3  0  0  0  0  0  0
  194.9810  175.2080  138.3870 N   0  0  0  0  0  2  0  0  0  0  0  0
  195.8200  174.0890  138.8050 C   0  0  0  0  0  2  0  0  0  0  0  0
  196.5060  174.4290  139.9690 O   0  0  0  0  0  1  0  0  0  0  0  0
  194.4130  176.2010  136.3250 O   0  0  0  0  0  0  0  0  0  0  0  0
  195.6700  176.3700  135.7390 C   0  0  0  0  0  2  0  0  0  0  0  0
  195.7650  177.7040  135.1710 N   0  0  0  0  0  1  0  0  0  0  0  0
  190.0420  176.9630  137.1240 N   0  0  0  0  0  2  0  0  0  0  0  0
  190.7110  176.7720  138.4130 C   0  0  0  0  0  2  0  0  0  0  0  0
  190.1780  177.7130  139.4880 C   0  0  1  0  0  3  0  0  0  0  0  0
  189.2720  178.6800  138.8990 N   0  0  0  0  0  1  0  0  0  0  0  0
  189.4450  176.9280  140.5640 C   0  0  0  0  0  2  0  0  0  0  0  0
  189.0060  177.8170  141.6280 N   0  0  0  0  0  2  0  0  0  0  0  0
  188.5660  177.0000  142.6810 N   0  0  0  0  0  2  0  0  0  0  0  0
  186.3900  177.3990  146.1530 C   0  0  0  0  0  2  0  0  0  0  0  0
  188.0750  177.8780  143.7340 C   0  0  1  0  0  3  0  0  0  0  0  0
  186.1000  178.6920  142.6790 O   0  0  0  0  0  1  0  0  0  0  0  0
  186.5420  177.8760  143.7190 C   0  0  2  0  0  3  0  0  0  0  0  0
  187.8460  177.2880  146.2230 N   0  0  0  0  0  0  0  0  0  0  0  0
  188.6700  177.4620  145.0540 C   0  0  0  0  0  0  0  0  0  0  0  0
  189.9220  177.3260  145.1390 O   0  0  0  0  0  0  0  0  0  0  0  0
  185.9610  178.3590  145.0520 C   0  0  1  0  0  3  0  0  0  0  0  0
  184.4380  178.3770  145.0010 C   0  0  0  0  0  2  0  0  0  0  0  0
  183.9410  179.0750  146.0990 O   0  0  0  0  0  1  0  0  0  0  0  0
  188.4410  176.7680  147.4490 C   0  0  0  0  0  2  0  0  0  0  0  0
  188.3240  177.7650  148.5580 C   0  0  0  0  0  3  0  0  0  0  0  0
  188.0250  178.9220  148.3240 O   0  0  0  0  0  0  0  0  0  0  0  0
  1 22  1  6  0  0  0
  1 35  1  0  0  0  0
  2  3  2  0  0  0  0
  2  4  1  0  0  0  0
  3 11  1  0  0  0  0
  4  8  2  0  0  0  0
  5  7  2  0  0  0  0
  5 10  1  0  0  0  0
  6  9  1  0  0  0  0
  7  2  1  0  0  0  0
  8  6  1  0  0  0  0
 10  3  1  0  0  0  0
 10  1  1  1  0  0  0
 11  6  2  0  0  0  0
 13  4  1  0  0  0  0
 13 12  2  0  0  0  0
 15 12  1  1  0  0  0
 15 18  1  0  0  0  0
 16 17  1  0  0  0  0
 16 15  1  0  0  0  0
 17 18  1  0  0  0  0
 18 19  1  0  0  0  0
 18 14  1  0  0  0  0
 20 22  1  0  0  0  0
 22 21  2  0  0  0  0
 23 20  1  0  0  0  0
 24 23  1  1  0  0  0
 24 26  1  0  0  0  0
 24 27  1  0  0  0  0
 25 26  2  0  0  0  0
 28 32  1  1  0  0  0
 28 27  1  0  0  0  0
 28 29  1  0  0  0  0
 29 30  1  0  0  0  0
 30 31  1  0  0  0  0
 33 32  1  0  0  0  0
 34 33  1  0  0  0  0
 35 36  1  0  0  0  0
 36 37  1  0  0  0  0
 37 38  1  6  0  0  0
 37 39  1  0  0  0  0
 39 40  1  0  0  0  0
 40 41  1  0  0  0  0
 42 46  1  0  0  0  0
 43 41  1  6  0  0  0
 43 47  1  0  0  0  0
 45 44  1  6  0  0  0
 45 43  1  0  0  0  0
 45 49  1  0  0  0  0
 46 52  1  0  0  0  0
 47 48  2  0  0  0  0
 47 46  1  0  0  0  0
 49 50  1  6  0  0  0
 49 42  1  0  0  0  0
 50 51  1  0  0  0  0
 52 53  1  0  0  0  0
 54 53  2  0  0  0  0
M  END
>  <MODEL>
6

>  <REMARK>
 VINA RESULT:      -6.0      3.084      6.083
  Name = 
  23 active torsions:
  status: ('A' for Active; 'I' for Inactive)
    1  A    between atoms: C_2  and  O_5
    2  A    between atoms: C_2  and  O_19
    3  A    between atoms: C_2  and  N_50
    4  A    between atoms: N_4  and  C_27
    5  A    between atoms: N_4  and  C_37
    6  A    between atoms: O_5  and  C_48
    7  A    between atoms: C_6  and  C_46
    8  A    between atoms: C_7  and  N_51
    9  A    between atoms: C_9  and  C_41
   10  A    between atoms: N_10  and  C_49
   11  A    between atoms: C_14  and  N_53
   12  A    between atoms: C_15  and  C_21
   13  A    between atoms: C_17  and  C_32
   14  A    between atoms: C_17  and  N_54
   15  A    between atoms: O_19  and  C_39
   16  A    between atoms: C_21  and  N_25
   17  A    between atoms: C_24  and  N_50
   18  A    between atoms: C_27  and  C_33
   19  A    between atoms: C_27  and  C_42
   20  A    between atoms: C_28  and  C_48
   21  A    between atoms: C_32  and  C_37
   22  A    between atoms: C_48  and  C_49
   23  A    between atoms: N_51  and  N_54
                            x       y       z     vdW  Elec       q    Type
                         _______ _______ _______ _____ _____    ______ ____

>  <TORSDO>
F 23

$$$$
=
 OpenBabel10222420013D

 54 57  0  0  1  0  0  0  0  0999 V2000
  187.1750  177.6960  137.1550 C   0  0  1  0  0  3  0  0  0  0  0  0
  189.7780  175.5030  136.6190 C   0  0  0  0  0  0  0  0  0  0  0  0
  188.4360  175.6790  136.4150 C   0  0  0  0  0  0  0  0  0  0  0  0
  190.2820  174.2420  136.9450 C   0  0  0  0  0  0  0  0  0  0  0  0
  189.4750  177.7820  135.9880 C   0  0  0  0  0  3  0  0  0  0  0  0
  188.0660  173.3530  136.8500 C   0  0  0  0  0  0  0  0  0  0  0  0
  190.5380  176.7660  136.4490 C   0  0  0  0  0  3  0  0  0  0  0  0
  189.4070  173.1940  137.0490 N   0  0  0  0  0  0  0  0  0  0  0  0
  186.9970  171.9760  136.9940 Cl  0  0  0  0  0  0  0  0  0  0  0  0
  188.1030  177.0850  136.0830 C   0  0  2  0  0  3  0  0  0  0  0  0
  187.5470  174.6140  136.5230 C   0  0  0  0  0  3  0  0  0  0  0  0
  192.5330  173.9700  136.2070 C   0  0  0  0  0  3  0  0  0  0  0  0
  191.6840  174.0560  137.1780 N   0  0  0  0  0  0  0  0  0  0  0  0
  194.2140  176.2690  135.7950 C   0  0  0  0  0  1  0  0  0  0  0  0
  193.9880  173.7600  136.4970 C   0  0  2  0  0  3  0  0  0  0  0  0
  194.2050  173.7830  137.9380 N   0  0  0  0  0  2  0  0  0  0  0  0
  195.0610  174.9560  137.7700 C   0  0  0  0  0  2  0  0  0  0  0  0
  194.8740  174.9810  136.2750 C   0  0  0  0  0  0  0  0  0  0  0  0
  196.1540  174.6430  135.5370 C   0  0  0  0  0  1  0  0  0  0  0  0
  184.7350  177.7630  137.8830 N   0  0  0  0  0  2  0  0  0  0  0  0
  185.3400  177.2820  135.6810 O   0  0  0  0  0  0  0  0  0  0  0  0
  185.7040  177.5790  136.8480 C   0  0  0  0  0  0  0  0  0  0  0  0
  183.3060  177.6260  137.6440 C   0  0  0  0  0  2  0  0  0  0  0  0
  182.7240  176.5700  138.5700 C   0  0  2  0  0  3  0  0  0  0  0  0
  182.7170  174.4780  137.4850 O   0  0  0  0  0  0  0  0  0  0  0  0
  182.0790  175.4760  137.7830 C   0  0  0  0  0  3  0  0  0  0  0  0
  181.7780  177.1600  139.4140 O   0  0  0  0  0  0  0  0  0  0  0  0
  180.6130  176.3940  139.2670 C   0  0  2  0  0  3  0  0  0  0  0  0
  179.4830  177.2370  138.8650 N   0  0  0  0  0  2  0  0  0  0  0  0
  179.6920  178.6070  139.3220 C   0  0  0  0  0  2  0  0  0  0  0  0
  179.5540  178.6640  140.7070 O   0  0  0  0  0  1  0  0  0  0  0  0
  180.3330  175.7310  140.4680 O   0  0  0  0  0  0  0  0  0  0  0  0
  179.1970  174.9610  140.2020 C   0  0  0  0  0  2  0  0  0  0  0  0
  179.5970  173.6020  139.8810 N   0  0  0  0  0  1  0  0  0  0  0  0
  187.4790  177.1840  138.4920 N   0  0  0  0  0  2  0  0  0  0  0  0
  188.2880  178.1500  139.2380 C   0  0  0  0  0  2  0  0  0  0  0  0
  188.9800  177.5190  140.4430 C   0  0  1  0  0  3  0  0  0  0  0  0
  190.4190  177.5670  140.2710 N   0  0  0  0  0  1  0  0  0  0  0  0
  188.6010  178.2560  141.7170 C   0  0  0  0  0  2  0  0  0  0  0  0
  187.6250  177.4880  142.4750 N   0  0  0  0  0  2  0  0  0  0  0  0
  188.3520  176.6250  143.3100 N   0  0  0  0  0  2  0  0  0  0  0  0
  189.7870  176.8050  147.1640 C   0  0  0  0  0  2  0  0  0  0  0  0
  188.9260  177.4360  144.3750 C   0  0  1  0  0  3  0  0  0  0  0  0
  186.9230  178.3070  145.3290 O   0  0  0  0  0  1  0  0  0  0  0  0
  187.9780  177.4300  145.5800 C   0  0  2  0  0  3  0  0  0  0  0  0
  190.7260  176.6940  146.0500 N   0  0  0  0  0  0  0  0  0  0  0  0
  190.3130  176.9420  144.6920 C   0  0  0  0  0  0  0  0  0  0  0  0
  191.1380  176.8040  143.7470 O   0  0  0  0  0  0  0  0  0  0  0  0
  188.7000  177.8300  146.8720 C   0  0  1  0  0  3  0  0  0  0  0  0
  187.7300  177.8450  148.0470 C   0  0  0  0  0  2  0  0  0  0  0  0
  188.4270  178.1060  149.2250 O   0  0  0  0  0  1  0  0  0  0  0  0
  192.0350  176.1020  146.3040 C   0  0  0  0  0  2  0  0  0  0  0  0
  192.1710  175.7200  147.7440 C   0  0  0  0  0  3  0  0  0  0  0  0
  192.8070  176.4160  148.5140 O   0  0  0  0  0  0  0  0  0  0  0  0
  1 22  1  6  0  0  0
  1 35  1  0  0  0  0
  2  4  1  0  0  0  0
  3 11  1  0  0  0  0
  3  2  2  0  0  0  0
  4  8  2  0  0  0  0
  4 13  1  0  0  0  0
  5 10  1  0  0  0  0
  5  7  2  0  0  0  0
  6  9  1  0  0  0  0
  6  8  1  0  0  0  0
  7  2  1  0  0  0  0
 10  3  1  0  0  0  0
 10  1  1  1  0  0  0
 11  6  2  0  0  0  0
 12 13  2  0  0  0  0
 14 18  1  0  0  0  0
 15 12  1  1  0  0  0
 15 16  1  0  0  0  0
 17 16  1  0  0  0  0
 18 15  1  0  0  0  0
 18 17  1  0  0  0  0
 19 18  1  0  0  0  0
 21 22  2  0  0  0  0
 22 20  1  0  0  0  0
 23 20  1  0  0  0  0
 24 23  1  6  0  0  0
 24 27  1  0  0  0  0
 25 26  2  0  0  0  0
 26 24  1  0  0  0  0
 28 29  1  1  0  0  0
 28 27  1  0  0  0  0
 28 32  1  0  0  0  0
 29 30  1  0  0  0  0
 30 31  1  0  0  0  0
 33 32  1  0  0  0  0
 34 33  1  0  0  0  0
 35 36  1  0  0  0  0
 36 37  1  0  0  0  0
 37 38  1  6  0  0  0
 37 39  1  0  0  0  0
 39 40  1  0  0  0  0
 40 41  1  0  0  0  0
 43 41  1  6  0  0  0
 43 47  1  0  0  0  0
 43 45  1  0  0  0  0
 45 44  1  6  0  0  0
 45 49  1  0  0  0  0
 46 52  1  0  0  0  0
 46 42  1  0  0  0  0
 47 46  1  0  0  0  0
 48 47  2  0  0  0  0
 49 42  1  0  0  0  0
 49 50  1  1  0  0  0
 50 51  1  0  0  0  0
 52 53  1  0  0  0  0
 53 54  2  0  0  0  0
M  END
>  <MODEL>
7

>  <REMARK>
 VINA RESULT:      -5.9      3.307      8.080
  Name = 
  23 active torsions:
  status: ('A' for Active; 'I' for Inactive)
    1  A    between atoms: C_2  and  O_5
    2  A    between atoms: C_2  and  O_19
    3  A    between atoms: C_2  and  N_50
    4  A    between atoms: N_4  and  C_27
    5  A    between atoms: N_4  and  C_37
    6  A    between atoms: O_5  and  C_48
    7  A    between atoms: C_6  and  C_46
    8  A    between atoms: C_7  and  N_51
    9  A    between atoms: C_9  and  C_41
   10  A    between atoms: N_10  and  C_49
   11  A    between atoms: C_14  and  N_53
   12  A    between atoms: C_15  and  C_21
   13  A    between atoms: C_17  and  C_32
   14  A    between atoms: C_17  and  N_54
   15  A    between atoms: O_19  and  C_39
   16  A    between atoms: C_21  and  N_25
   17  A    between atoms: C_24  and  N_50
   18  A    between atoms: C_27  and  C_33
   19  A    between atoms: C_27  and  C_42
   20  A    between atoms: C_28  and  C_48
   21  A    between atoms: C_32  and  C_37
   22  A    between atoms: C_48  and  C_49
   23  A    between atoms: N_51  and  N_54
                            x       y       z     vdW  Elec       q    Type
                         _______ _______ _______ _____ _____    ______ ____

>  <TORSDO>
F 23

$$$$
=
 OpenBabel10222420013D

 54 57  0  0  1  0  0  0  0  0999 V2000
  185.4250  178.6560  141.0730 C   0  0  1  0  0  3  0  0  0  0  0  0
  182.6980  177.9120  139.1020 C   0  0  0  0  0  0  0  0  0  0  0  0
  183.0900  178.6210  140.2050 C   0  0  0  0  0  0  0  0  0  0  0  0
  181.4590  177.2710  139.0800 C   0  0  0  0  0  0  0  0  0  0  0  0
  184.8120  178.8830  138.5760 C   0  0  0  0  0  3  0  0  0  0  0  0
  181.0250  178.0750  141.2870 C   0  0  0  0  0  0  0  0  0  0  0  0
  183.7240  177.9390  138.0290 C   0  0  0  0  0  3  0  0  0  0  0  0
  180.6480  177.3740  140.1780 N   0  0  0  0  0  0  0  0  0  0  0  0
  179.9450  178.1750  142.6610 Cl  0  0  0  0  0  0  0  0  0  0  0  0
  184.4350  179.2220  140.0330 C   0  0  2  0  0  3  0  0  0  0  0  0
  182.2680  178.7230  141.3230 C   0  0  0  0  0  3  0  0  0  0  0  0
  181.3940  175.2750  137.7760 C   0  0  0  0  0  3  0  0  0  0  0  0
  181.0510  176.5110  137.9340 N   0  0  0  0  0  0  0  0  0  0  0  0
  183.1890  173.2040  136.8980 C   0  0  0  0  0  1  0  0  0  0  0  0
  180.9570  174.5230  136.5550 C   0  0  2  0  0  3  0  0  0  0  0  0
  179.9260  173.5600  136.9200 N   0  0  0  0  0  2  0  0  0  0  0  0
  180.8120  172.4800  136.4900 C   0  0  0  0  0  2  0  0  0  0  0  0
  181.9130  173.4280  136.0940 C   0  0  0  0  0  0  0  0  0  0  0  0
  182.1350  173.4470  134.5940 C   0  0  0  0  0  1  0  0  0  0  0  0
  187.2280  177.9650  139.4120 N   0  0  0  0  0  2  0  0  0  0  0  0
  187.7410  179.1800  141.3370 O   0  0  0  0  0  0  0  0  0  0  0  0
  186.8620  178.6340  140.6220 C   0  0  0  0  0  0  0  0  0  0  0  0
  188.6060  177.8870  138.9520 C   0  0  0  0  0  2  0  0  0  0  0  0
  188.6850  177.0410  137.6910 C   0  0  2  0  0  3  0  0  0  0  0  0
  186.8800  175.9180  136.6740 O   0  0  0  0  0  0  0  0  0  0  0  0
  187.3580  176.9920  137.0060 C   0  0  0  0  0  3  0  0  0  0  0  0
  189.0890  175.7450  138.0240 O   0  0  0  0  0  0  0  0  0  0  0  0
  190.2090  175.4820  137.2230 C   0  0  2  0  0  3  0  0  0  0  0  0
  189.8460  174.6400  136.0790 N   0  0  0  0  0  2  0  0  0  0  0  0
  190.2210  175.2990  134.8330 C   0  0  0  0  0  2  0  0  0  0  0  0
  191.5960  175.5270  134.8210 O   0  0  0  0  0  1  0  0  0  0  0  0
  191.2030  174.8670  137.9940 O   0  0  0  0  0  0  0  0  0  0  0  0
  192.2970  175.7360  137.9360 C   0  0  0  0  0  2  0  0  0  0  0  0
  192.1520  176.7650  138.9510 N   0  0  0  0  0  1  0  0  0  0  0  0
  185.2890  179.3200  142.3710 N   0  0  0  0  0  2  0  0  0  0  0  0
  184.5370  178.4760  143.3020 C   0  0  0  0  0  2  0  0  0  0  0  0
  184.9150  178.7370  144.7560 C   0  0  1  0  0  3  0  0  0  0  0  0
  183.7350  179.0940  145.5200 N   0  0  0  0  0  1  0  0  0  0  0  0
  185.5560  177.5010  145.3670 C   0  0  0  0  0  2  0  0  0  0  0  0
  186.4250  177.8760  146.4720 N   0  0  0  0  0  2  0  0  0  0  0  0
  187.6310  178.3170  145.9050 N   0  0  0  0  0  2  0  0  0  0  0  0
  191.1650  176.7510  144.4890 C   0  0  0  0  0  2  0  0  0  0  0  0
  188.3960  177.1320  145.5420 C   0  0  1  0  0  3  0  0  0  0  0  0
  187.6440  176.8510  143.2980 O   0  0  0  0  0  1  0  0  0  0  0  0
  188.7610  177.2040  144.0540 C   0  0  2  0  0  3  0  0  0  0  0  0
  190.9090  176.7680  145.9280 N   0  0  0  0  0  0  0  0  0  0  0  0
  189.5880  177.0040  146.4530 C   0  0  0  0  0  0  0  0  0  0  0  0
  189.4050  177.0470  147.7020 O   0  0  0  0  0  0  0  0  0  0  0  0
  189.9400  176.2860  143.7140 C   0  0  1  0  0  3  0  0  0  0  0  0
  190.2630  176.3530  142.2260 C   0  0  0  0  0  2  0  0  0  0  0  0
  191.0580  177.4670  141.9700 O   0  0  0  0  0  1  0  0  0  0  0  0
  192.0520  176.7710  146.8340 C   0  0  0  0  0  2  0  0  0  0  0  0
  192.2180  175.4310  147.4810 C   0  0  0  0  0  3  0  0  0  0  0  0
  192.8920  175.3060  148.4860 O   0  0  0  0  0  0  0  0  0  0  0  0
  1 22  1  6  0  0  0
  1 35  1  0  0  0  0
  2  3  2  0  0  0  0
  3 11  1  0  0  0  0
  4  2  1  0  0  0  0
  4  8  2  0  0  0  0
  5 10  1  0  0  0  0
  6 11  2  0  0  0  0
  6  9  1  0  0  0  0
  7  5  2  0  0  0  0
  7  2  1  0  0  0  0
  8  6  1  0  0  0  0
 10  3  1  0  0  0  0
 10  1  1  1  0  0  0
 12 13  2  0  0  0  0
 13  4  1  0  0  0  0
 15 16  1  0  0  0  0
 15 12  1  1  0  0  0
 17 16  1  0  0  0  0
 18 17  1  0  0  0  0
 18 15  1  0  0  0  0
 18 14  1  0  0  0  0
 19 18  1  0  0  0  0
 20 22  1  0  0  0  0
 22 21  2  0  0  0  0
 23 20  1  0  0  0  0
 24 26  1  1  0  0  0
 24 27  1  0  0  0  0
 24 23  1  0  0  0  0
 25 26  2  0  0  0  0
 28 29  1  6  0  0  0
 28 32  1  0  0  0  0
 28 27  1  0  0  0  0
 30 29  1  0  0  0  0
 31 30  1  0  0  0  0
 33 32  1  0  0  0  0
 33 34  1  0  0  0  0
 35 36  1  0  0  0  0
 36 37  1  0  0  0  0
 37 39  1  0  0  0  0
 37 38  1  1  0  0  0
 39 40  1  0  0  0  0
 41 40  1  0  0  0  0
 42 46  1  0  0  0  0
 43 41  1  1  0  0  0
 43 47  1  0  0  0  0
 45 44  1  6  0  0  0
 45 43  1  0  0  0  0
 46 47  1  0  0  0  0
 46 52  1  0  0  0  0
 47 48  2  0  0  0  0
 49 50  1  6  0  0  0
 49 45  1  0  0  0  0
 49 42  1  0  0  0  0
 51 50  1  0  0  0  0
 52 53  1  0  0  0  0
 53 54  2  0  0  0  0
M  END
>  <MODEL>
8

>  <REMARK>
 VINA RESULT:      -5.6      1.296      2.632
  Name = 
  23 active torsions:
  status: ('A' for Active; 'I' for Inactive)
    1  A    between atoms: C_2  and  O_5
    2  A    between atoms: C_2  and  O_19
    3  A    between atoms: C_2  and  N_50
    4  A    between atoms: N_4  and  C_27
    5  A    between atoms: N_4  and  C_37
    6  A    between atoms: O_5  and  C_48
    7  A    between atoms: C_6  and  C_46
    8  A    between atoms: C_7  and  N_51
    9  A    between atoms: C_9  and  C_41
   10  A    between atoms: N_10  and  C_49
   11  A    between atoms: C_14  and  N_53
   12  A    between atoms: C_15  and  C_21
   13  A    between atoms: C_17  and  C_32
   14  A    between atoms: C_17  and  N_54
   15  A    between atoms: O_19  and  C_39
   16  A    between atoms: C_21  and  N_25
   17  A    between atoms: C_24  and  N_50
   18  A    between atoms: C_27  and  C_33
   19  A    between atoms: C_27  and  C_42
   20  A    between atoms: C_28  and  C_48
   21  A    between atoms: C_32  and  C_37
   22  A    between atoms: C_48  and  C_49
   23  A    between atoms: N_51  and  N_54
                            x       y       z     vdW  Elec       q    Type
                         _______ _______ _______ _____ _____    ______ ____

>  <TORSDO>
F 23

$$$$
=
 OpenBabel10222420013D

 54 57  0  0  1  0  0  0  0  0999 V2000
  187.4480  178.0340  138.0310 C   0  0  1  0  0  3  0  0  0  0  0  0
  188.5190  175.5220  135.9290 C   0  0  0  0  0  0  0  0  0  0  0  0
  187.4190  176.0060  136.5840 C   0  0  0  0  0  0  0  0  0  0  0  0
  188.7280  174.1460  135.8240 C   0  0  0  0  0  0  0  0  0  0  0  0
  188.5860  177.8960  135.7190 C   0  0  0  0  0  3  0  0  0  0  0  0
  186.7080  173.7660  137.0410 C   0  0  0  0  0  0  0  0  0  0  0  0
  189.3740  176.6120  135.3970 C   0  0  0  0  0  3  0  0  0  0  0  0
  187.8090  173.2990  136.3830 N   0  0  0  0  0  0  0  0  0  0  0  0
  185.5650  172.6350  137.7330 Cl  0  0  0  0  0  0  0  0  0  0  0  0
  187.3800  177.4890  136.5890 C   0  0  2  0  0  3  0  0  0  0  0  0
  186.4860  175.1460  137.1550 C   0  0  0  0  0  3  0  0  0  0  0  0
  190.9730  173.3430  135.7950 C   0  0  0  0  0  3  0  0  0  0  0  0
  189.8880  173.6340  135.1550 N   0  0  0  0  0  0  0  0  0  0  0  0
  193.5110  173.7990  137.0730 C   0  0  0  0  0  1  0  0  0  0  0  0
  192.1670  172.8240  135.0530 C   0  0  2  0  0  3  0  0  0  0  0  0
  192.2640  171.3810  135.2360 N   0  0  0  0  0  2  0  0  0  0  0  0
  193.5540  171.5720  135.8960 C   0  0  0  0  0  2  0  0  0  0  0  0
  193.5090  173.0690  135.7340 C   0  0  0  0  0  0  0  0  0  0  0  0
  194.5670  173.5680  134.7690 C   0  0  0  0  0  1  0  0  0  0  0  0
  184.9030  178.0570  137.9320 N   0  0  0  0  0  2  0  0  0  0  0  0
  186.0560  178.6510  139.8730 O   0  0  0  0  0  0  0  0  0  0  0  0
  186.1060  178.2550  138.6790 C   0  0  0  0  0  0  0  0  0  0  0  0
  183.5850  178.2910  138.5030 C   0  0  0  0  0  2  0  0  0  0  0  0
  182.5870  177.2970  137.9300 C   0  0  2  0  0  3  0  0  0  0  0  0
  182.9290  175.5230  136.4160 O   0  0  0  0  0  0  0  0  0  0  0  0
  183.1030  176.7080  136.6570 C   0  0  0  0  0  3  0  0  0  0  0  0
  181.3720  177.9440  137.6880 O   0  0  0  0  0  0  0  0  0  0  0  0
  180.9720  178.4710  138.9230 C   0  0  2  0  0  3  0  0  0  0  0  0
  180.2950  177.4520  139.7300 N   0  0  0  0  0  2  0  0  0  0  0  0
  180.7920  177.4880  141.1020 C   0  0  0  0  0  2  0  0  0  0  0  0
  180.0900  178.4480  141.8280 O   0  0  0  0  0  1  0  0  0  0  0  0
  180.1360  179.5750  138.7150 O   0  0  0  0  0  0  0  0  0  0  0  0
  179.9820  179.6590  137.3280 C   0  0  0  0  0  2  0  0  0  0  0  0
  180.6310  180.8630  136.8420 N   0  0  0  0  0  1  0  0  0  0  0  0
  188.3170  177.2170  138.8800 N   0  0  0  0  0  2  0  0  0  0  0  0
  189.6200  177.8630  139.0510 C   0  0  0  0  0  2  0  0  0  0  0  0
  190.7000  176.8820  139.4940 C   0  0  1  0  0  3  0  0  0  0  0  0
  191.5340  176.5170  138.3650 N   0  0  0  0  0  1  0  0  0  0  0  0
  191.5660  177.5020  140.5790 C   0  0  0  0  0  2  0  0  0  0  0  0
  190.9210  177.3720  141.8770 N   0  0  0  0  0  2  0  0  0  0  0  0
  190.1790  176.1810  141.8420 N   0  0  0  0  0  2  0  0  0  0  0  0
  189.5170  177.4590  145.6980 C   0  0  0  0  0  2  0  0  0  0  0  0
  189.8610  175.8300  143.2190 C   0  0  1  0  0  3  0  0  0  0  0  0
  192.0500  175.3220  144.0110 O   0  0  0  0  0  1  0  0  0  0  0  0
  191.0200  176.2540  144.1280 C   0  0  2  0  0  3  0  0  0  0  0  0
  188.3780  177.1760  144.8270 N   0  0  0  0  0  0  0  0  0  0  0  0
  188.5370  176.4380  143.5990 C   0  0  0  0  0  0  0  0  0  0  0  0
  187.5400  176.2400  142.8500 O   0  0  0  0  0  0  0  0  0  0  0  0
  190.5790  176.3730  145.5910 C   0  0  1  0  0  3  0  0  0  0  0  0
  191.7540  176.7660  146.4780 C   0  0  0  0  0  2  0  0  0  0  0  0
  191.3420  177.7170  147.4070 O   0  0  0  0  0  1  0  0  0  0  0  0
  187.1140  177.8500  145.1000 C   0  0  0  0  0  2  0  0  0  0  0  0
  186.9780  178.1490  146.5600 C   0  0  0  0  0  3  0  0  0  0  0  0
  186.1890  178.9880  146.9520 O   0  0  0  0  0  0  0  0  0  0  0  0
  1 22  1  1  0  0  0
  1 35  1  0  0  0  0
  2  3  2  0  0  0  0
  3 10  1  0  0  0  0
  3 11  1  0  0  0  0
  4  2  1  0  0  0  0
  4  8  2  0  0  0  0
  5 10  1  0  0  0  0
  6 11  2  0  0  0  0
  6  9  1  0  0  0  0
  7  5  2  0  0  0  0
  7  2  1  0  0  0  0
  8  6  1  0  0  0  0
 10  1  1  1  0  0  0
 13 12  2  0  0  0  0
 13  4  1  0  0  0  0
 15 16  1  0  0  0  0
 15 18  1  0  0  0  0
 15 12  1  1  0  0  0
 16 17  1  0  0  0  0
 18 17  1  0  0  0  0
 18 14  1  0  0  0  0
 19 18  1  0  0  0  0
 20 23  1  0  0  0  0
 20 22  1  0  0  0  0
 22 21  2  0  0  0  0
 24 26  1  6  0  0  0
 24 23  1  0  0  0  0
 25 26  2  0  0  0  0
 27 24  1  0  0  0  0
 28 27  1  6  0  0  0
 28 29  1  0  0  0  0
 29 30  1  0  0  0  0
 30 31  1  0  0  0  0
 32 28  1  0  0  0  0
 33 32  1  0  0  0  0
 34 33  1  0  0  0  0
 35 36  1  0  0  0  0
 36 37  1  0  0  0  0
 37 38  1  6  0  0  0
 37 39  1  0  0  0  0
 39 40  1  0  0  0  0
 41 40  1  0  0  0  0
 43 41  1  6  0  0  0
 43 47  1  0  0  0  0
 43 45  1  0  0  0  0
 45 44  1  1  0  0  0
 45 49  1  0  0  0  0
 46 52  1  0  0  0  0
 46 42  1  0  0  0  0
 47 46  1  0  0  0  0
 48 47  2  0  0  0  0
 49 42  1  0  0  0  0
 49 50  1  1  0  0  0
 50 51  1  0  0  0  0
 52 53  1  0  0  0  0
 53 54  2  0  0  0  0
M  END
>  <MODEL>
9

>  <REMARK>
 VINA RESULT:      -5.6      3.132      7.666
  Name = 
  23 active torsions:
  status: ('A' for Active; 'I' for Inactive)
    1  A    between atoms: C_2  and  O_5
    2  A    between atoms: C_2  and  O_19
    3  A    between atoms: C_2  and  N_50
    4  A    between atoms: N_4  and  C_27
    5  A    between atoms: N_4  and  C_37
    6  A    between atoms: O_5  and  C_48
    7  A    between atoms: C_6  and  C_46
    8  A    between atoms: C_7  and  N_51
    9  A    between atoms: C_9  and  C_41
   10  A    between atoms: N_10  and  C_49
   11  A    between atoms: C_14  and  N_53
   12  A    between atoms: C_15  and  C_21
   13  A    between atoms: C_17  and  C_32
   14  A    between atoms: C_17  and  N_54
   15  A    between atoms: O_19  and  C_39
   16  A    between atoms: C_21  and  N_25
   17  A    between atoms: C_24  and  N_50
   18  A    between atoms: C_27  and  C_33
   19  A    between atoms: C_27  and  C_42
   20  A    between atoms: C_28  and  C_48
   21  A    between atoms: C_32  and  C_37
   22  A    between atoms: C_48  and  C_49
   23  A    between atoms: N_51  and  N_54
                            x       y       z     vdW  Elec       q    Type
                         _______ _______ _______ _____ _____    ______ ____

>  <TORSDO>
F 23

$$$$
