=
 OpenBabel10222420183D

 27 29  0  0  1  0  0  0  0  0999 V2000
  187.7280  178.0790  142.2290 C   0  0  1  0  0  3  0  0  0  0  0  0
  184.4460  178.5080  144.0650 C   0  0  0  0  0  3  0  0  0  0  0  0
  185.4040  178.5720  141.4790 N   0  0  0  0  0  0  0  0  0  0  0  0
  185.7990  178.2760  143.8150 C   0  0  0  0  0  3  0  0  0  0  0  0
  183.5710  178.7730  143.0040 C   0  0  0  0  0  0  0  0  0  0  0  0
  186.2660  178.3040  142.5000 C   0  0  0  0  0  0  0  0  0  0  0  0
  184.0830  178.8020  141.7020 C   0  0  0  0  0  3  0  0  0  0  0  0
  181.3870  179.7350  142.3260 O   0  0  0  0  0  0  0  0  0  0  0  0
  182.1410  179.0200  143.2480 C   0  0  0  0  0  0  0  0  0  0  0  0
  181.5880  178.5870  144.2950 O   0  0  0  0  0  1  0  0  0  0  0  0
  189.6700  177.9530  143.8640 C   0  0  0  0  0  0  0  0  0  0  0  0
  188.4200  177.4670  143.3630 N   0  0  0  0  0  2  0  0  0  0  0  0
  190.2410  178.9250  143.2990 O   0  0  0  0  0  0  0  0  0  0  0  0
  190.2780  176.7850  147.4020 C   0  0  0  0  0  3  0  0  0  0  0  0
  192.0760  175.5070  148.2980 F   0  0  0  0  0  0  0  0  0  0  0  0
  189.6810  177.3920  146.2960 C   0  0  0  0  0  3  0  0  0  0  0  0
  191.4840  176.1020  147.2360 C   0  0  0  0  0  0  0  0  0  0  0  0
  192.0660  176.0330  146.0080 N   0  0  0  0  0  0  0  0  0  0  0  0
  191.5000  176.6190  144.9190 C   0  0  0  0  0  3  0  0  0  0  0  0
  190.2890  177.3140  145.0380 C   0  0  0  0  0  0  0  0  0  0  0  0
  187.9640  177.3830  141.0200 O   0  0  0  0  0  0  0  0  0  0  0  0
  190.1460  177.4340  140.0720 C   0  0  0  0  0  2  0  0  0  0  0  0
  188.8180  178.1430  140.2020 C   0  0  1  0  0  3  0  0  0  0  0  0
  188.2560  178.1990  138.7970 C   0  0  0  0  0  2  0  0  0  0  0  0
  189.1710  177.8400  136.6770 C   0  0  0  0  0  1  0  0  0  0  0  0
  190.3040  177.1430  138.5970 C   0  0  0  0  0  2  0  0  0  0  0  0
  188.9890  177.2400  137.9860 N   0  0  0  0  0  0  0  0  0  0  0  0
  1 21  1  6  0  0  0
  1  6  1  0  0  0  0
  1 12  1  0  0  0  0
  3  7  2  0  0  0  0
  3  6  1  0  0  0  0
  4  2  1  0  0  0  0
  5  9  1  0  0  0  0
  5  2  2  0  0  0  0
  6  4  2  0  0  0  0
  7  5  1  0  0  0  0
  8  9  2  0  0  0  0
  9 10  1  0  0  0  0
 11 20  1  0  0  0  0
 12 11  1  0  0  0  0
 13 11  2  0  0  0  0
 16 14  2  0  0  0  0
 17 14  1  0  0  0  0
 17 15  1  0  0  0  0
 18 17  2  0  0  0  0
 19 20  2  0  0  0  0
 19 18  1  0  0  0  0
 20 16  1  0  0  0  0
 22 23  1  0  0  0  0
 23 21  1  1  0  0  0
 24 23  1  0  0  0  0
 25 27  1  0  0  0  0
 26 22  1  0  0  0  0
 27 26  1  0  0  0  0
 27 24  1  0  0  0  0
M  END
>  <MODEL>
1

>  <REMARK>
 VINA RESULT:      -7.9      0.000      0.000
  Name = 
  6 active torsions:
  status: ('A' for Active; 'I' for Inactive)
    1  A    between atoms: C_6  and  C_21
    2  A    between atoms: C_8  and  O_10
    3  A    between atoms: C_8  and  N_15
    4  A    between atoms: C_8  and  C_18
    5  A    between atoms: O_10  and  C_23
    6  A    between atoms: C_11  and  C_17
                            x       y       z     vdW  Elec       q    Type
                         _______ _______ _______ _____ _____    ______ ____

>  <TORSDO>
F 6

$$$$
=
 OpenBabel10222420183D

 27 29  0  0  1  0  0  0  0  0999 V2000
  187.3640  177.9700  143.2680 C   0  0  1  0  0  3  0  0  0  0  0  0
  188.7540  178.1440  139.7510 C   0  0  0  0  0  3  0  0  0  0  0  0
  189.3110  176.8920  142.1450 N   0  0  0  0  0  0  0  0  0  0  0  0
  187.9370  178.3640  140.8600 C   0  0  0  0  0  3  0  0  0  0  0  0
  189.8570  177.2870  139.8490 C   0  0  0  0  0  0  0  0  0  0  0  0
  188.2280  177.7160  142.0630 C   0  0  0  0  0  0  0  0  0  0  0  0
  190.1190  176.6660  141.0760 C   0  0  0  0  0  3  0  0  0  0  0  0
  190.2890  177.3460  137.4070 O   0  0  0  0  0  0  0  0  0  0  0  0
  190.7300  177.0440  138.6900 C   0  0  0  0  0  0  0  0  0  0  0  0
  191.8820  176.5590  138.8490 O   0  0  0  0  0  1  0  0  0  0  0  0
  184.9790  178.7610  143.6430 C   0  0  0  0  0  0  0  0  0  0  0  0
  185.9380  177.9580  142.9480 N   0  0  0  0  0  2  0  0  0  0  0  0
  185.3450  179.4910  144.6040 O   0  0  0  0  0  0  0  0  0  0  0  0
  181.2070  178.7950  143.8000 C   0  0  0  0  0  3  0  0  0  0  0  0
  179.6060  178.6360  142.0450 F   0  0  0  0  0  0  0  0  0  0  0  0
  182.5450  178.8270  144.1940 C   0  0  0  0  0  3  0  0  0  0  0  0
  180.8990  178.6670  142.4440 C   0  0  0  0  0  0  0  0  0  0  0  0
  181.8970  178.5750  141.5250 N   0  0  0  0  0  0  0  0  0  0  0  0
  183.2070  178.6030  141.8890 C   0  0  0  0  0  3  0  0  0  0  0  0
  183.5630  178.7310  143.2380 C   0  0  0  0  0  0  0  0  0  0  0  0
  187.6750  177.1220  144.3560 O   0  0  0  0  0  0  0  0  0  0  0  0
  187.5400  177.5680  146.6900 C   0  0  0  0  0  2  0  0  0  0  0  0
  188.2470  177.8820  145.3920 C   0  0  1  0  0  3  0  0  0  0  0  0
  189.6830  177.4480  145.6050 C   0  0  0  0  0  2  0  0  0  0  0  0
  190.9350  176.8810  147.4940 C   0  0  0  0  0  1  0  0  0  0  0  0
  188.6040  177.0000  147.6010 C   0  0  0  0  0  2  0  0  0  0  0  0
  189.7160  176.5750  146.7670 N   0  0  0  0  0  0  0  0  0  0  0  0
  1 12  1  6  0  0  0
  1 21  1  0  0  0  0
  2  5  2  0  0  0  0
  2  4  1  0  0  0  0
  4  6  2  0  0  0  0
  5  7  1  0  0  0  0
  6  3  1  0  0  0  0
  6  1  1  0  0  0  0
  7  3  2  0  0  0  0
  8  9  2  0  0  0  0
  9 10  1  0  0  0  0
  9  5  1  0  0  0  0
 11 13  2  0  0  0  0
 12 11  1  0  0  0  0
 14 16  1  0  0  0  0
 15 17  1  0  0  0  0
 17 14  2  0  0  0  0
 18 19  2  0  0  0  0
 18 17  1  0  0  0  0
 19 20  1  0  0  0  0
 20 11  1  0  0  0  0
 20 16  2  0  0  0  0
 22 26  1  0  0  0  0
 23 21  1  6  0  0  0
 23 24  1  0  0  0  0
 23 22  1  0  0  0  0
 24 27  1  0  0  0  0
 27 25  1  0  0  0  0
 27 26  1  0  0  0  0
M  END
>  <MODEL>
2

>  <REMARK>
 VINA RESULT:      -7.6      3.426      8.066
  Name = 
  6 active torsions:
  status: ('A' for Active; 'I' for Inactive)
    1  A    between atoms: C_6  and  C_21
    2  A    between atoms: C_8  and  O_10
    3  A    between atoms: C_8  and  N_15
    4  A    between atoms: C_8  and  C_18
    5  A    between atoms: O_10  and  C_23
    6  A    between atoms: C_11  and  C_17
                            x       y       z     vdW  Elec       q    Type
                         _______ _______ _______ _____ _____    ______ ____

>  <TORSDO>
F 6

$$$$
=
 OpenBabel10222420183D

 27 29  0  0  1  0  0  0  0  0999 V2000
  189.9720  177.4800  141.6260 C   0  0  1  0  0  3  0  0  0  0  0  0
  189.0800  178.1940  138.0170 C   0  0  0  0  0  3  0  0  0  0  0  0
  190.4730  176.3150  139.4810 N   0  0  0  0  0  0  0  0  0  0  0  0
  189.1600  178.3090  139.4050 C   0  0  0  0  0  3  0  0  0  0  0  0
  189.7060  177.1250  137.3630 C   0  0  0  0  0  0  0  0  0  0  0  0
  189.8620  177.3450  140.1320 C   0  0  0  0  0  0  0  0  0  0  0  0
  190.4070  176.1870  138.1300 C   0  0  0  0  0  3  0  0  0  0  0  0
  190.5870  176.2430  135.2190 O   0  0  0  0  0  0  0  0  0  0  0  0
  189.6320  176.9870  135.9010 C   0  0  0  0  0  0  0  0  0  0  0  0
  188.7040  177.5430  135.2530 O   0  0  0  0  0  1  0  0  0  0  0  0
  187.8470  177.1190  142.9710 C   0  0  0  0  0  0  0  0  0  0  0  0
  188.7360  177.9670  142.2370 N   0  0  0  0  0  2  0  0  0  0  0  0
  188.0940  175.8870  143.0790 O   0  0  0  0  0  0  0  0  0  0  0  0
  185.4160  178.3810  145.5690 C   0  0  0  0  0  3  0  0  0  0  0  0
  183.2260  179.2770  145.3020 F   0  0  0  0  0  0  0  0  0  0  0  0
  186.5650  177.8450  144.9860 C   0  0  0  0  0  3  0  0  0  0  0  0
  184.3480  178.7540  144.7520 C   0  0  0  0  0  0  0  0  0  0  0  0
  184.4320  178.5940  143.4040 N   0  0  0  0  0  0  0  0  0  0  0  0
  185.5430  178.0730  142.8170 C   0  0  0  0  0  3  0  0  0  0  0  0
  186.6400  177.6860  143.5970 C   0  0  0  0  0  0  0  0  0  0  0  0
  190.4500  176.3050  142.2510 O   0  0  0  0  0  0  0  0  0  0  0  0
  191.5030  178.0330  143.5020 C   0  0  0  0  0  2  0  0  0  0  0  0
  191.5970  176.6100  143.0060 C   0  0  1  0  0  3  0  0  0  0  0  0
  191.6240  175.7530  144.2550 C   0  0  0  0  0  2  0  0  0  0  0  0
  191.9660  176.2110  146.5200 C   0  0  0  0  0  1  0  0  0  0  0  0
  191.5130  177.9360  145.0110 C   0  0  0  0  0  2  0  0  0  0  0  0
  191.1630  176.5700  145.3650 N   0  0  0  0  0  0  0  0  0  0  0  0
  1 12  1  1  0  0  0
  1 21  1  0  0  0  0
  2  4  1  0  0  0  0
  3  6  1  0  0  0  0
  4  6  2  0  0  0  0
  5  2  2  0  0  0  0
  5  7  1  0  0  0  0
  6  1  1  0  0  0  0
  7  3  2  0  0  0  0
  8  9  2  0  0  0  0
  9  5  1  0  0  0  0
 10  9  1  0  0  0  0
 11 13  2  0  0  0  0
 11 20  1  0  0  0  0
 12 11  1  0  0  0  0
 16 14  1  0  0  0  0
 17 15  1  0  0  0  0
 17 14  2  0  0  0  0
 18 17  1  0  0  0  0
 19 18  2  0  0  0  0
 19 20  1  0  0  0  0
 20 16  2  0  0  0  0
 22 26  1  0  0  0  0
 23 21  1  6  0  0  0
 23 22  1  0  0  0  0
 23 24  1  0  0  0  0
 24 27  1  0  0  0  0
 26 27  1  0  0  0  0
 27 25  1  0  0  0  0
M  END
>  <MODEL>
3

>  <REMARK>
 VINA RESULT:      -7.6      3.221      7.019
  Name = 
  6 active torsions:
  status: ('A' for Active; 'I' for Inactive)
    1  A    between atoms: C_6  and  C_21
    2  A    between atoms: C_8  and  O_10
    3  A    between atoms: C_8  and  N_15
    4  A    between atoms: C_8  and  C_18
    5  A    between atoms: O_10  and  C_23
    6  A    between atoms: C_11  and  C_17
                            x       y       z     vdW  Elec       q    Type
                         _______ _______ _______ _____ _____    ______ ____

>  <TORSDO>
F 6

$$$$
=
 OpenBabel10222420183D

 27 29  0  0  1  0  0  0  0  0999 V2000
  188.3540  177.7180  142.6020 C   0  0  1  0  0  3  0  0  0  0  0  0
  189.5070  177.1450  146.1620 C   0  0  0  0  0  3  0  0  0  0  0  0
  190.5480  177.0970  143.6080 N   0  0  0  0  0  0  0  0  0  0  0  0
  188.6920  177.4440  145.0700 C   0  0  0  0  0  3  0  0  0  0  0  0
  190.8550  176.8210  145.9650 C   0  0  0  0  0  0  0  0  0  0  0  0
  189.2360  177.4220  143.7840 C   0  0  0  0  0  0  0  0  0  0  0  0
  191.3580  176.8020  144.6590 C   0  0  0  0  0  3  0  0  0  0  0  0
  192.5240  175.3640  147.0810 O   0  0  0  0  0  0  0  0  0  0  0  0
  191.7300  176.5040  147.1050 C   0  0  0  0  0  0  0  0  0  0  0  0
  191.7670  177.2620  148.1110 O   0  0  0  0  0  1  0  0  0  0  0  0
  188.8690  177.8030  140.1150 C   0  0  0  0  0  0  0  0  0  0  0  0
  188.8490  177.1110  141.3680 N   0  0  0  0  0  2  0  0  0  0  0  0
  188.4100  178.9750  140.0350 O   0  0  0  0  0  0  0  0  0  0  0  0
  191.0820  175.7240  137.8730 C   0  0  0  0  0  3  0  0  0  0  0  0
  190.9360  175.3260  135.5300 F   0  0  0  0  0  0  0  0  0  0  0  0
  190.5640  176.3410  139.0120 C   0  0  0  0  0  3  0  0  0  0  0  0
  190.4470  175.9180  136.6450 C   0  0  0  0  0  0  0  0  0  0  0  0
  189.3380  176.7020  136.5670 N   0  0  0  0  0  0  0  0  0  0  0  0
  188.8190  177.3120  137.6660 C   0  0  0  0  0  3  0  0  0  0  0  0
  189.4220  177.1450  138.9200 C   0  0  0  0  0  0  0  0  0  0  0  0
  186.9940  177.4110  142.8400 O   0  0  0  0  0  0  0  0  0  0  0  0
  185.2960  178.5090  141.5850 C   0  0  0  0  0  2  0  0  0  0  0  0
  186.2300  178.5900  142.7690 C   0  0  1  0  0  3  0  0  0  0  0  0
  185.3280  178.6820  143.9830 C   0  0  0  0  0  2  0  0  0  0  0  0
  183.0530  179.1270  144.2730 C   0  0  0  0  0  1  0  0  0  0  0  0
  183.9020  178.5910  142.1640 C   0  0  0  0  0  2  0  0  0  0  0  0
  183.9940  178.2680  143.5790 N   0  0  0  0  0  0  0  0  0  0  0  0
  1 12  1  6  0  0  0
  1 21  1  0  0  0  0
  1  6  1  0  0  0  0
  3  6  2  0  0  0  0
  3  7  1  0  0  0  0
  4  2  2  0  0  0  0
  5  2  1  0  0  0  0
  5  9  1  0  0  0  0
  6  4  1  0  0  0  0
  7  5  2  0  0  0  0
  8  9  2  0  0  0  0
  9 10  1  0  0  0  0
 11 12  1  0  0  0  0
 13 11  2  0  0  0  0
 14 16  1  0  0  0  0
 15 17  1  0  0  0  0
 17 14  2  0  0  0  0
 18 17  1  0  0  0  0
 18 19  2  0  0  0  0
 19 20  1  0  0  0  0
 20 16  2  0  0  0  0
 20 11  1  0  0  0  0
 22 26  1  0  0  0  0
 22 23  1  0  0  0  0
 23 21  1  1  0  0  0
 23 24  1  0  0  0  0
 26 27  1  0  0  0  0
 27 24  1  0  0  0  0
 27 25  1  0  0  0  0
M  END
>  <MODEL>
4

>  <REMARK>
 VINA RESULT:      -7.6      3.274      7.605
  Name = 
  6 active torsions:
  status: ('A' for Active; 'I' for Inactive)
    1  A    between atoms: C_6  and  C_21
    2  A    between atoms: C_8  and  O_10
    3  A    between atoms: C_8  and  N_15
    4  A    between atoms: C_8  and  C_18
    5  A    between atoms: O_10  and  C_23
    6  A    between atoms: C_11  and  C_17
                            x       y       z     vdW  Elec       q    Type
                         _______ _______ _______ _____ _____    ______ ____

>  <TORSDO>
F 6

$$$$
=
 OpenBabel10222420183D

 27 29  0  0  1  0  0  0  0  0999 V2000
  189.6580  178.0330  143.0240 C   0  0  1  0  0  3  0  0  0  0  0  0
  191.8300  177.1370  140.0560 C   0  0  0  0  0  3  0  0  0  0  0  0
  189.1560  177.4690  140.6490 N   0  0  0  0  0  0  0  0  0  0  0  0
  191.4400  177.4980  141.3460 C   0  0  0  0  0  3  0  0  0  0  0  0
  190.8660  176.9440  139.0590 C   0  0  0  0  0  0  0  0  0  0  0  0
  190.0830  177.6690  141.6270 C   0  0  0  0  0  0  0  0  0  0  0  0
  189.5160  177.1160  139.3870 C   0  0  0  0  0  3  0  0  0  0  0  0
  192.5950  176.3350  137.3870 O   0  0  0  0  0  1  0  0  0  0  0  0
  191.2590  176.5640  137.6930 C   0  0  0  0  0  0  0  0  0  0  0  0
  190.3890  176.4420  136.7890 O   0  0  0  0  0  0  0  0  0  0  0  0
  187.1900  177.5580  143.4000 C   0  0  0  0  0  0  0  0  0  0  0  0
  188.2600  178.4560  143.0910 N   0  0  0  0  0  2  0  0  0  0  0  0
  187.4280  176.3330  143.5900 O   0  0  0  0  0  0  0  0  0  0  0  0
  183.9620  178.9200  144.8060 C   0  0  0  0  0  3  0  0  0  0  0  0
  181.9270  179.4680  143.6980 F   0  0  0  0  0  0  0  0  0  0  0  0
  185.2720  178.4450  144.7280 C   0  0  0  0  0  3  0  0  0  0  0  0
  183.1990  179.0080  143.6400 C   0  0  0  0  0  0  0  0  0  0  0  0
  183.7320  178.6330  142.4460 N   0  0  0  0  0  0  0  0  0  0  0  0
  185.0060  178.1670  142.3500 C   0  0  0  0  0  3  0  0  0  0  0  0
  185.8090  178.0630  143.4940 C   0  0  0  0  0  0  0  0  0  0  0  0
  189.9560  177.0240  143.9700 O   0  0  0  0  0  0  0  0  0  0  0  0
  189.5000  177.5900  146.2360 C   0  0  0  0  0  2  0  0  0  0  0  0
  190.5160  177.6120  145.1180 C   0  0  1  0  0  3  0  0  0  0  0  0
  191.6700  176.7630  145.6110 C   0  0  0  0  0  2  0  0  0  0  0  0
  192.2730  175.9160  147.7020 C   0  0  0  0  0  1  0  0  0  0  0  0
  190.1260  176.7590  147.3330 C   0  0  0  0  0  2  0  0  0  0  0  0
  191.1930  175.9740  146.7340 N   0  0  0  0  0  0  0  0  0  0  0  0
  1 12  1  6  0  0  0
  1 21  1  0  0  0  0
  2  4  1  0  0  0  0
  3  6  1  0  0  0  0
  4  6  2  0  0  0  0
  5  7  1  0  0  0  0
  5  2  2  0  0  0  0
  6  1  1  0  0  0  0
  7  3  2  0  0  0  0
  8  9  1  0  0  0  0
  9  5  1  0  0  0  0
 10  9  2  0  0  0  0
 11 20  1  0  0  0  0
 11 13  2  0  0  0  0
 12 11  1  0  0  0  0
 16 14  1  0  0  0  0
 17 15  1  0  0  0  0
 17 14  2  0  0  0  0
 18 17  1  0  0  0  0
 19 18  2  0  0  0  0
 19 20  1  0  0  0  0
 20 16  2  0  0  0  0
 22 26  1  0  0  0  0
 23 21  1  6  0  0  0
 23 24  1  0  0  0  0
 23 22  1  0  0  0  0
 24 27  1  0  0  0  0
 27 26  1  0  0  0  0
 27 25  1  0  0  0  0
M  END
>  <MODEL>
5

>  <REMARK>
 VINA RESULT:      -7.4      3.213      7.697
  Name = 
  6 active torsions:
  status: ('A' for Active; 'I' for Inactive)
    1  A    between atoms: C_6  and  C_21
    2  A    between atoms: C_8  and  O_10
    3  A    between atoms: C_8  and  N_15
    4  A    between atoms: C_8  and  C_18
    5  A    between atoms: O_10  and  C_23
    6  A    between atoms: C_11  and  C_17
                            x       y       z     vdW  Elec       q    Type
                         _______ _______ _______ _____ _____    ______ ____

>  <TORSDO>
F 6

$$$$
=
 OpenBabel10222420183D

 27 29  0  0  1  0  0  0  0  0999 V2000
  188.2100  177.0080  142.7750 C   0  0  1  0  0  3  0  0  0  0  0  0
  189.4650  177.0970  146.3450 C   0  0  0  0  0  3  0  0  0  0  0  0
  190.4370  176.5950  143.8120 N   0  0  0  0  0  0  0  0  0  0  0  0
  188.6170  177.1870  145.2410 C   0  0  0  0  0  3  0  0  0  0  0  0
  190.8120  176.7530  146.1710 C   0  0  0  0  0  0  0  0  0  0  0  0
  189.1270  176.9370  143.9650 C   0  0  0  0  0  0  0  0  0  0  0  0
  191.2790  176.5010  144.8750 C   0  0  0  0  0  3  0  0  0  0  0  0
  192.6410  175.6150  147.4010 O   0  0  0  0  0  0  0  0  0  0  0  0
  191.7200  176.6530  147.3230 C   0  0  0  0  0  0  0  0  0  0  0  0
  191.6730  177.5070  148.2500 O   0  0  0  0  0  1  0  0  0  0  0  0
  186.0950  178.4090  142.6190 C   0  0  0  0  0  0  0  0  0  0  0  0
  186.8270  177.2990  143.1500 N   0  0  0  0  0  2  0  0  0  0  0  0
  186.6540  179.2090  141.8190 O   0  0  0  0  0  0  0  0  0  0  0  0
  183.0070  179.0020  144.7080 C   0  0  0  0  0  3  0  0  0  0  0  0
  180.7290  179.1910  144.0430 F   0  0  0  0  0  0  0  0  0  0  0  0
  184.3420  178.8090  144.3500 C   0  0  0  0  0  3  0  0  0  0  0  0
  182.0280  179.0030  143.7120 C   0  0  0  0  0  0  0  0  0  0  0  0
  182.3780  178.8150  142.4120 N   0  0  0  0  0  0  0  0  0  0  0  0
  183.6730  178.6240  142.0430 C   0  0  0  0  0  3  0  0  0  0  0  0
  184.6900  178.6170  143.0080 C   0  0  0  0  0  0  0  0  0  0  0  0
  188.6840  177.8790  141.7650 O   0  0  0  0  0  0  0  0  0  0  0  0
  188.5330  178.1340  139.4050 C   0  0  0  0  0  2  0  0  0  0  0  0
  188.7730  177.1790  140.5490 C   0  0  1  0  0  3  0  0  0  0  0  0
  190.1890  176.6750  140.3580 C   0  0  0  0  0  2  0  0  0  0  0  0
  191.7040  176.7520  138.5820 C   0  0  0  0  0  1  0  0  0  0  0  0
  189.8060  178.1130  138.5890 C   0  0  0  0  0  2  0  0  0  0  0  0
  190.8590  177.5720  139.4310 N   0  0  0  0  0  0  0  0  0  0  0  0
  1 21  1  6  0  0  0
  1 12  1  0  0  0  0
  1  6  1  0  0  0  0
  3  6  2  0  0  0  0
  3  7  1  0  0  0  0
  4  2  2  0  0  0  0
  5  2  1  0  0  0  0
  5  9  1  0  0  0  0
  6  4  1  0  0  0  0
  7  5  2  0  0  0  0
  9  8  2  0  0  0  0
  9 10  1  0  0  0  0
 11 20  1  0  0  0  0
 11 12  1  0  0  0  0
 13 11  2  0  0  0  0
 16 14  1  0  0  0  0
 17 15  1  0  0  0  0
 17 14  2  0  0  0  0
 18 17  1  0  0  0  0
 19 18  2  0  0  0  0
 19 20  1  0  0  0  0
 20 16  2  0  0  0  0
 22 23  1  0  0  0  0
 23 21  1  1  0  0  0
 24 23  1  0  0  0  0
 25 27  1  0  0  0  0
 26 22  1  0  0  0  0
 26 27  1  0  0  0  0
 27 24  1  0  0  0  0
M  END
>  <MODEL>
6

>  <REMARK>
 VINA RESULT:      -7.3      3.166      6.906
  Name = 
  6 active torsions:
  status: ('A' for Active; 'I' for Inactive)
    1  A    between atoms: C_6  and  C_21
    2  A    between atoms: C_8  and  O_10
    3  A    between atoms: C_8  and  N_15
    4  A    between atoms: C_8  and  C_18
    5  A    between atoms: O_10  and  C_23
    6  A    between atoms: C_11  and  C_17
                            x       y       z     vdW  Elec       q    Type
                         _______ _______ _______ _____ _____    ______ ____

>  <TORSDO>
F 6

$$$$
=
 OpenBabel10222420183D

 27 29  0  0  1  0  0  0  0  0999 V2000
  188.0970  177.7080  141.7730 C   0  0  1  0  0  3  0  0  0  0  0  0
  191.7250  177.2610  140.7890 C   0  0  0  0  0  3  0  0  0  0  0  0
  189.2270  177.1590  139.6210 N   0  0  0  0  0  0  0  0  0  0  0  0
  190.5850  177.5120  141.5540 C   0  0  0  0  0  3  0  0  0  0  0  0
  191.6040  176.9580  139.4270 C   0  0  0  0  0  0  0  0  0  0  0  0
  189.3290  177.4640  140.9460 C   0  0  0  0  0  0  0  0  0  0  0  0
  190.3250  176.9110  138.8600 C   0  0  0  0  0  3  0  0  0  0  0  0
  192.6600  176.3940  137.2540 O   0  0  0  0  0  0  0  0  0  0  0  0
  192.7950  176.6910  138.6050 C   0  0  0  0  0  0  0  0  0  0  0  0
  193.9460  176.7280  139.1170 O   0  0  0  0  0  1  0  0  0  0  0  0
  187.7600  177.2530  144.2500 C   0  0  0  0  0  0  0  0  0  0  0  0
  188.4060  177.9520  143.1810 N   0  0  0  0  0  2  0  0  0  0  0  0
  186.8530  176.4130  143.9980 O   0  0  0  0  0  0  0  0  0  0  0  0
  187.5950  178.2140  147.8970 C   0  0  0  0  0  3  0  0  0  0  0  0
  189.3130  178.2490  149.5440 F   0  0  0  0  0  0  0  0  0  0  0  0
  187.2110  177.9630  146.5790 C   0  0  0  0  0  3  0  0  0  0  0  0
  188.9250  178.0120  148.2690 C   0  0  0  0  0  0  0  0  0  0  0  0
  189.8310  177.5780  147.3530 N   0  0  0  0  0  0  0  0  0  0  0  0
  189.4770  177.3300  146.0630 C   0  0  0  0  0  3  0  0  0  0  0  0
  188.1530  177.5170  145.6450 C   0  0  0  0  0  0  0  0  0  0  0  0
  187.2590  178.7110  141.2290 O   0  0  0  0  0  0  0  0  0  0  0  0
  184.9780  178.5590  141.8880 C   0  0  0  0  0  2  0  0  0  0  0  0
  186.0210  178.1440  140.8780 C   0  0  1  0  0  3  0  0  0  0  0  0
  185.5530  178.7260  139.5600 C   0  0  0  0  0  2  0  0  0  0  0  0
  183.5330  179.6410  138.8250 C   0  0  0  0  0  1  0  0  0  0  0  0
  183.9420  179.3320  141.1040 C   0  0  0  0  0  2  0  0  0  0  0  0
  184.5550  179.7420  139.8510 N   0  0  0  0  0  0  0  0  0  0  0  0
  1 21  1  6  0  0  0
  1 12  1  0  0  0  0
  2  4  1  0  0  0  0
  3  6  1  0  0  0  0
  5  2  2  0  0  0  0
  6  4  2  0  0  0  0
  6  1  1  0  0  0  0
  7  5  1  0  0  0  0
  7  3  2  0  0  0  0
  8  9  2  0  0  0  0
  9 10  1  0  0  0  0
  9  5  1  0  0  0  0
 11 20  1  0  0  0  0
 12 11  1  0  0  0  0
 13 11  2  0  0  0  0
 14 17  1  0  0  0  0
 16 14  2  0  0  0  0
 17 15  1  0  0  0  0
 18 17  2  0  0  0  0
 19 18  1  0  0  0  0
 20 19  2  0  0  0  0
 20 16  1  0  0  0  0
 23 21  1  1  0  0  0
 23 22  1  0  0  0  0
 24 27  1  0  0  0  0
 24 23  1  0  0  0  0
 25 27  1  0  0  0  0
 26 22  1  0  0  0  0
 27 26  1  0  0  0  0
M  END
>  <MODEL>
7

>  <REMARK>
 VINA RESULT:      -7.2      2.596      6.095
  Name = 
  6 active torsions:
  status: ('A' for Active; 'I' for Inactive)
    1  A    between atoms: C_6  and  C_21
    2  A    between atoms: C_8  and  O_10
    3  A    between atoms: C_8  and  N_15
    4  A    between atoms: C_8  and  C_18
    5  A    between atoms: O_10  and  C_23
    6  A    between atoms: C_11  and  C_17
                            x       y       z     vdW  Elec       q    Type
                         _______ _______ _______ _____ _____    ______ ____

>  <TORSDO>
F 6

$$$$
=
 OpenBabel10222420183D

 27 29  0  0  1  0  0  0  0  0999 V2000
  187.6990  178.5310  141.4800 C   0  0  1  0  0  3  0  0  0  0  0  0
  183.9240  178.5920  141.7540 C   0  0  0  0  0  3  0  0  0  0  0  0
  185.8720  178.8900  139.8230 N   0  0  0  0  0  0  0  0  0  0  0  0
  185.2710  178.4800  142.0980 C   0  0  0  0  0  3  0  0  0  0  0  0
  183.5570  178.8550  140.4280 C   0  0  0  0  0  0  0  0  0  0  0  0
  186.2440  178.6260  141.1080 C   0  0  0  0  0  0  0  0  0  0  0  0
  184.5650  179.0030  139.4690 C   0  0  0  0  0  3  0  0  0  0  0  0
  181.1470  178.4800  140.8810 O   0  0  0  0  0  1  0  0  0  0  0  0
  182.1410  178.9760  140.0470 C   0  0  0  0  0  0  0  0  0  0  0  0
  181.8170  179.5300  138.9620 O   0  0  0  0  0  0  0  0  0  0  0  0
  188.0400  177.4150  143.7370 C   0  0  0  0  0  0  0  0  0  0  0  0
  187.9120  178.5870  142.9250 N   0  0  0  0  0  2  0  0  0  0  0  0
  187.9300  176.2710  143.2160 O   0  0  0  0  0  0  0  0  0  0  0  0
  187.5070  177.9390  147.4370 C   0  0  0  0  0  3  0  0  0  0  0  0
  189.0790  177.9080  149.2240 F   0  0  0  0  0  0  0  0  0  0  0  0
  187.2510  177.8140  146.0710 C   0  0  0  0  0  3  0  0  0  0  0  0
  188.8150  177.7910  147.9020 C   0  0  0  0  0  0  0  0  0  0  0  0
  189.8240  177.5310  147.0270 N   0  0  0  0  0  0  0  0  0  0  0  0
  189.5950  177.4070  145.6930 C   0  0  0  0  0  3  0  0  0  0  0  0
  188.2980  177.5460  145.1810 C   0  0  0  0  0  0  0  0  0  0  0  0
  188.3480  177.4230  140.8860 O   0  0  0  0  0  0  0  0  0  0  0  0
  190.6440  177.0280  140.4020 C   0  0  0  0  0  2  0  0  0  0  0  0
  189.4290  177.8760  140.1090 C   0  0  1  0  0  3  0  0  0  0  0  0
  189.1280  177.6490  138.6420 C   0  0  0  0  0  2  0  0  0  0  0  0
  190.3280  176.7030  136.8750 C   0  0  0  0  0  1  0  0  0  0  0  0
  191.0070  176.3780  139.0860 C   0  0  0  0  0  2  0  0  0  0  0  0
  189.8420  176.4550  138.2200 N   0  0  0  0  0  0  0  0  0  0  0  0
  1 21  1  1  0  0  0
  1 12  1  0  0  0  0
  2  4  1  0  0  0  0
  3  6  1  0  0  0  0
  5  2  2  0  0  0  0
  6  1  1  0  0  0  0
  6  4  2  0  0  0  0
  7  3  2  0  0  0  0
  7  5  1  0  0  0  0
  9  5  1  0  0  0  0
  9  8  1  0  0  0  0
 10  9  2  0  0  0  0
 11 20  1  0  0  0  0
 12 11  1  0  0  0  0
 13 11  2  0  0  0  0
 14 17  1  0  0  0  0
 16 14  2  0  0  0  0
 17 15  1  0  0  0  0
 18 17  2  0  0  0  0
 19 18  1  0  0  0  0
 20 19  2  0  0  0  0
 20 16  1  0  0  0  0
 23 22  1  0  0  0  0
 23 21  1  1  0  0  0
 24 23  1  0  0  0  0
 25 27  1  0  0  0  0
 26 22  1  0  0  0  0
 27 24  1  0  0  0  0
 27 26  1  0  0  0  0
M  END
>  <MODEL>
8

>  <REMARK>
 VINA RESULT:      -7.1      1.933      2.381
  Name = 
  6 active torsions:
  status: ('A' for Active; 'I' for Inactive)
    1  A    between atoms: C_6  and  C_21
    2  A    between atoms: C_8  and  O_10
    3  A    between atoms: C_8  and  N_15
    4  A    between atoms: C_8  and  C_18
    5  A    between atoms: O_10  and  C_23
    6  A    between atoms: C_11  and  C_17
                            x       y       z     vdW  Elec       q    Type
                         _______ _______ _______ _____ _____    ______ ____

>  <TORSDO>
F 6

$$$$
=
 OpenBabel10222420183D

 27 29  0  0  1  0  0  0  0  0999 V2000
  184.5280  178.9990  139.5690 C   0  0  1  0  0  3  0  0  0  0  0  0
  186.5920  177.5900  136.7260 C   0  0  0  0  0  3  0  0  0  0  0  0
  186.9720  178.6270  139.2540 N   0  0  0  0  0  0  0  0  0  0  0  0
  185.4960  178.0080  137.4810 C   0  0  0  0  0  3  0  0  0  0  0  0
  187.8870  177.6950  137.2490 C   0  0  0  0  0  0  0  0  0  0  0  0
  185.7050  178.5230  138.7620 C   0  0  0  0  0  0  0  0  0  0  0  0
  188.0520  178.2270  138.5330 C   0  0  0  0  0  3  0  0  0  0  0  0
  190.1290  176.6430  137.0970 O   0  0  0  0  0  1  0  0  0  0  0  0
  189.0550  177.2590  136.4670 C   0  0  0  0  0  0  0  0  0  0  0  0
  189.0920  177.4400  135.2200 O   0  0  0  0  0  0  0  0  0  0  0  0
  184.0010  178.4460  141.9930 C   0  0  0  0  0  0  0  0  0  0  0  0
  184.8220  179.0700  141.0000 N   0  0  0  0  0  2  0  0  0  0  0  0
  182.9510  177.8350  141.6520 O   0  0  0  0  0  0  0  0  0  0  0  0
  186.0220  178.2490  145.1750 C   0  0  0  0  0  3  0  0  0  0  0  0
  185.3910  178.7460  147.4160 F   0  0  0  0  0  0  0  0  0  0  0  0
  185.6730  178.1770  143.8260 C   0  0  0  0  0  3  0  0  0  0  0  0
  185.0680  178.6690  146.1040 C   0  0  0  0  0  0  0  0  0  0  0  0
  183.8150  179.0020  145.6910 N   0  0  0  0  0  0  0  0  0  0  0  0
  183.4560  178.9360  144.3810 C   0  0  0  0  0  3  0  0  0  0  0  0
  184.3810  178.5210  143.4140 C   0  0  0  0  0  0  0  0  0  0  0  0
  183.9740  180.2040  139.0770 O   0  0  0  0  0  0  0  0  0  0  0  0
  181.9770  181.2900  138.3750 C   0  0  0  0  0  2  0  0  0  0  0  0
  182.5710  180.1350  139.1450 C   0  0  1  0  0  3  0  0  0  0  0  0
  182.0910  178.8890  138.4290 C   0  0  0  0  0  2  0  0  0  0  0  0
  180.4360  178.4830  136.8310 C   0  0  0  0  0  1  0  0  0  0  0  0
  181.1560  180.6610  137.2730 C   0  0  0  0  0  2  0  0  0  0  0  0
  181.6090  179.2880  137.1170 N   0  0  0  0  0  0  0  0  0  0  0  0
  1 21  1  6  0  0  0
  1 12  1  0  0  0  0
  2  5  2  0  0  0  0
  2  4  1  0  0  0  0
  4  6  2  0  0  0  0
  5  7  1  0  0  0  0
  6  3  1  0  0  0  0
  6  1  1  0  0  0  0
  7  3  2  0  0  0  0
  9  8  1  0  0  0  0
  9  5  1  0  0  0  0
 10  9  2  0  0  0  0
 11 20  1  0  0  0  0
 12 11  1  0  0  0  0
 13 11  2  0  0  0  0
 14 17  1  0  0  0  0
 16 14  2  0  0  0  0
 17 15  1  0  0  0  0
 18 17  2  0  0  0  0
 19 18  1  0  0  0  0
 20 16  1  0  0  0  0
 20 19  2  0  0  0  0
 22 23  1  0  0  0  0
 23 21  1  6  0  0  0
 24 23  1  0  0  0  0
 25 27  1  0  0  0  0
 26 22  1  0  0  0  0
 27 26  1  0  0  0  0
 27 24  1  0  0  0  0
M  END
>  <MODEL>
9

>  <REMARK>
 VINA RESULT:      -6.9      3.939      7.331
  Name = 
  6 active torsions:
  status: ('A' for Active; 'I' for Inactive)
    1  A    between atoms: C_6  and  C_21
    2  A    between atoms: C_8  and  O_10
    3  A    between atoms: C_8  and  N_15
    4  A    between atoms: C_8  and  C_18
    5  A    between atoms: O_10  and  C_23
    6  A    between atoms: C_11  and  C_17
                            x       y       z     vdW  Elec       q    Type
                         _______ _______ _______ _____ _____    ______ ____

>  <TORSDO>
F 6

$$$$
