=
 OpenBabel10222416093D

 26 27  0  0  0  0  0  0  0  0999 V2000
  187.2750  177.6440  144.1960 C   0  0  0  0  0  0  0  0  0  0  0  0
  186.0400  178.1490  144.0430 C   0  0  0  0  0  3  0  0  0  0  0  0
  187.8740  177.6310  145.5590 C   0  0  0  0  0  0  0  0  0  0  0  0
  187.6880  178.0080  147.9590 C   0  0  0  0  0  3  0  0  0  0  0  0
  187.1190  178.0090  146.6840 C   0  0  0  0  0  3  0  0  0  0  0  0
  189.2150  177.2620  145.7460 C   0  0  0  0  0  3  0  0  0  0  0  0
  189.7970  177.2570  147.0220 C   0  0  0  0  0  0  0  0  0  0  0  0
  189.0220  177.6320  148.1280 C   0  0  0  0  0  3  0  0  0  0  0  0
  191.8720  176.1040  146.1900 N   0  0  0  0  0  1  0  0  0  0  0  0
  191.8350  177.1930  148.2360 O   0  0  0  0  0  0  0  0  0  0  0  0
  191.2060  176.8630  147.1950 C   0  0  0  0  0  0  0  0  0  0  0  0
  188.6380  177.9840  142.0870 N   0  0  0  0  0  2  0  0  0  0  0  0
  188.1780  175.8550  142.9150 O   0  0  0  0  0  0  0  0  0  0  0  0
  188.0400  177.1030  143.0430 C   0  0  0  0  0  0  0  0  0  0  0  0
  189.4730  177.5110  140.9910 C   0  0  0  0  0  2  0  0  0  0  0  0
  188.9050  177.9460  139.6840 C   0  0  0  0  0  0  0  0  0  0  0  0
  188.6090  178.3510  137.5770 C   0  0  0  0  0  3  0  0  0  0  0  0
  187.4720  178.6410  138.2420 N   0  0  0  0  0  0  0  0  0  0  0  0
  189.5610  177.8930  138.4720 C   0  0  0  0  0  3  0  0  0  0  0  0
  187.6490  178.3900  139.5260 N   0  0  0  0  0  2  0  0  0  0  0  0
  185.2880  178.1980  142.7550 C   0  0  0  0  0  2  0  0  0  0  0  0
  183.8870  178.5280  143.0180 C   0  0  0  0  0  0  0  0  0  0  0  0
  182.7320  178.7980  143.2350 C   0  0  0  0  0  0  0  0  0  0  0  0
  180.7660  180.2000  142.8510 O   0  0  0  0  0  0  0  0  0  0  0  0
  180.6900  178.4270  144.3020 O   0  0  0  0  0  1  0  0  0  0  0  0
  181.3580  179.1210  143.4940 C   0  0  0  0  0  0  0  0  0  0  0  0
  1  3  1  0  0  0  0
  2  1  2  0  0  0  0
  3  6  2  0  0  0  0
  3  5  1  0  0  0  0
  4  8  1  0  0  0  0
  5  4  2  0  0  0  0
  6  7  1  0  0  0  0
  7 11  1  0  0  0  0
  7  8  2  0  0  0  0
  9 11  1  0  0  0  0
 11 10  2  0  0  0  0
 12 14  1  0  0  0  0
 13 14  2  0  0  0  0
 14  1  1  0  0  0  0
 15 12  1  0  0  0  0
 16 15  1  0  0  0  0
 17 18  2  0  0  0  0
 17 19  1  0  0  0  0
 18 20  1  0  0  0  0
 19 16  2  0  0  0  0
 20 16  1  0  0  0  0
 21 22  1  0  0  0  0
 21  2  1  0  0  0  0
 22 23  3  0  0  0  0
 23 26  1  0  0  0  0
 24 26  2  0  0  0  0
 26 25  1  0  0  0  0
M  END
>  <MODEL>
1

>  <REMARK>
 VINA RESULT:      -9.0      0.000      0.000
  Name = 
  8 active torsions:
  status: ('A' for Active; 'I' for Inactive)
    1  A    between atoms: C_2  and  C_12
    2  A    between atoms: C_4  and  C_25
    3  A    between atoms: N_5  and  C_25
    4  A    between atoms: C_8  and  C_12
    5  A    between atoms: C_17  and  C_26
    6  A    between atoms: C_18  and  C_22
    7  A    between atoms: C_19  and  C_20
    8  A    between atoms: C_23  and  C_26
                            x       y       z     vdW  Elec       q    Type
                         _______ _______ _______ _____ _____    ______ ____

>  <TORSDO>
F 8

$$$$
=
 OpenBabel10222416093D

 26 27  0  0  0  0  0  0  0  0999 V2000
  188.4240  177.4450  144.4170 C   0  0  0  0  0  0  0  0  0  0  0  0
  189.4270  177.4480  145.3090 C   0  0  0  0  0  3  0  0  0  0  0  0
  187.0680  177.8630  144.8690 C   0  0  0  0  0  0  0  0  0  0  0  0
  185.5070  178.4080  146.6580 C   0  0  0  0  0  3  0  0  0  0  0  0
  186.7830  178.0290  146.2360 C   0  0  0  0  0  3  0  0  0  0  0  0
  186.0390  178.0780  143.9390 C   0  0  0  0  0  3  0  0  0  0  0  0
  184.7550  178.4600  144.3510 C   0  0  0  0  0  0  0  0  0  0  0  0
  184.4960  178.6230  145.7190 C   0  0  0  0  0  3  0  0  0  0  0  0
  182.4450  179.2530  143.7500 N   0  0  0  0  0  1  0  0  0  0  0  0
  183.8720  178.3720  142.1510 O   0  0  0  0  0  0  0  0  0  0  0  0
  183.6910  178.6830  143.3580 C   0  0  0  0  0  0  0  0  0  0  0  0
  189.0380  178.0060  142.0220 N   0  0  0  0  0  2  0  0  0  0  0  0
  188.4980  175.8330  142.6690 O   0  0  0  0  0  0  0  0  0  0  0  0
  188.6430  177.0410  143.0030 C   0  0  0  0  0  0  0  0  0  0  0  0
  189.3550  177.6500  140.6460 C   0  0  0  0  0  2  0  0  0  0  0  0
  188.1930  177.9380  139.7580 C   0  0  0  0  0  0  0  0  0  0  0  0
  186.8170  177.9910  138.0870 C   0  0  0  0  0  3  0  0  0  0  0  0
  186.2560  178.6250  139.1360 N   0  0  0  0  0  0  0  0  0  0  0  0
  188.0700  177.5250  138.4480 C   0  0  0  0  0  3  0  0  0  0  0  0
  187.0910  178.5890  140.1570 N   0  0  0  0  0  2  0  0  0  0  0  0
  190.8460  177.0950  145.0040 C   0  0  0  0  0  2  0  0  0  0  0  0
  191.5230  176.6840  146.2340 C   0  0  0  0  0  0  0  0  0  0  0  0
  192.0810  176.3440  147.2480 C   0  0  0  0  0  0  0  0  0  0  0  0
  193.3990  176.8820  149.2350 O   0  0  0  0  0  1  0  0  0  0  0  0
  192.7350  174.7320  148.8030 O   0  0  0  0  0  0  0  0  0  0  0  0
  192.7450  175.9400  148.4530 C   0  0  0  0  0  0  0  0  0  0  0  0
  1  3  1  0  0  0  0
  1  2  2  0  0  0  0
  3  5  1  0  0  0  0
  5  4  2  0  0  0  0
  6  7  1  0  0  0  0
  6  3  2  0  0  0  0
  7  8  2  0  0  0  0
  8  4  1  0  0  0  0
 10 11  2  0  0  0  0
 11  9  1  0  0  0  0
 11  7  1  0  0  0  0
 12 14  1  0  0  0  0
 13 14  2  0  0  0  0
 14  1  1  0  0  0  0
 15 12  1  0  0  0  0
 16 20  1  0  0  0  0
 16 15  1  0  0  0  0
 17 19  1  0  0  0  0
 17 18  2  0  0  0  0
 18 20  1  0  0  0  0
 19 16  2  0  0  0  0
 21  2  1  0  0  0  0
 21 22  1  0  0  0  0
 22 23  3  0  0  0  0
 23 26  1  0  0  0  0
 26 25  2  0  0  0  0
 26 24  1  0  0  0  0
M  END
>  <MODEL>
2

>  <REMARK>
 VINA RESULT:      -8.5      1.955      6.689
  Name = 
  8 active torsions:
  status: ('A' for Active; 'I' for Inactive)
    1  A    between atoms: C_2  and  C_12
    2  A    between atoms: C_4  and  C_25
    3  A    between atoms: N_5  and  C_25
    4  A    between atoms: C_8  and  C_12
    5  A    between atoms: C_17  and  C_26
    6  A    between atoms: C_18  and  C_22
    7  A    between atoms: C_19  and  C_20
    8  A    between atoms: C_23  and  C_26
                            x       y       z     vdW  Elec       q    Type
                         _______ _______ _______ _____ _____    ______ ____

>  <TORSDO>
F 8

$$$$
=
 OpenBabel10222416093D

 26 27  0  0  0  0  0  0  0  0999 V2000
  187.0000  177.6880  144.1400 C   0  0  0  0  0  0  0  0  0  0  0  0
  185.7970  178.2700  144.0080 C   0  0  0  0  0  3  0  0  0  0  0  0
  187.6470  177.6880  145.4810 C   0  0  0  0  0  0  0  0  0  0  0  0
  187.5430  178.0780  147.8830 C   0  0  0  0  0  3  0  0  0  0  0  0
  186.9290  178.0660  146.6290 C   0  0  0  0  0  3  0  0  0  0  0  0
  188.9980  177.3320  145.6220 C   0  0  0  0  0  3  0  0  0  0  0  0
  189.6240  177.3400  146.8760 C   0  0  0  0  0  0  0  0  0  0  0  0
  188.8860  177.7150  148.0070 C   0  0  0  0  0  3  0  0  0  0  0  0
  191.7460  176.4230  145.8860 N   0  0  0  0  0  1  0  0  0  0  0  0
  191.6440  177.1050  148.0980 O   0  0  0  0  0  0  0  0  0  0  0  0
  191.0410  176.9600  147.0020 C   0  0  0  0  0  0  0  0  0  0  0  0
  188.0880  177.8310  141.8560 N   0  0  0  0  0  2  0  0  0  0  0  0
  187.9250  175.8120  143.0080 O   0  0  0  0  0  0  0  0  0  0  0  0
  187.6830  177.0500  142.9850 C   0  0  0  0  0  0  0  0  0  0  0  0
  188.8410  177.2750  140.7390 C   0  0  0  0  0  2  0  0  0  0  0  0
  190.3050  177.4100  140.9860 C   0  0  0  0  0  0  0  0  0  0  0  0
  192.2470  177.5800  141.9290 C   0  0  0  0  0  3  0  0  0  0  0  0
  192.4160  177.4650  140.5960 N   0  0  0  0  0  0  0  0  0  0  0  0
  190.8950  177.5440  142.2250 C   0  0  0  0  0  2  0  0  0  0  0  0
  191.2340  177.3560  140.0200 N   0  0  0  0  0  0  0  0  0  0  0  0
  185.0020  178.3190  142.7450 C   0  0  0  0  0  2  0  0  0  0  0  0
  183.6090  178.6420  143.0550 C   0  0  0  0  0  0  0  0  0  0  0  0
  182.4620  178.9100  143.3110 C   0  0  0  0  0  0  0  0  0  0  0  0
  180.5000  180.3440  143.0430 O   0  0  0  0  0  0  0  0  0  0  0  0
  180.4380  178.4960  144.3970 O   0  0  0  0  0  1  0  0  0  0  0  0
  181.0960  179.2280  143.6140 C   0  0  0  0  0  0  0  0  0  0  0  0
  1  3  1  0  0  0  0
  2  1  2  0  0  0  0
  3  6  2  0  0  0  0
  3  5  1  0  0  0  0
  4  8  1  0  0  0  0
  5  4  2  0  0  0  0
  6  7  1  0  0  0  0
  7 11  1  0  0  0  0
  7  8  2  0  0  0  0
  9 11  1  0  0  0  0
 11 10  2  0  0  0  0
 12 14  1  0  0  0  0
 14 13  2  0  0  0  0
 14  1  1  0  0  0  0
 15 16  1  0  0  0  0
 15 12  1  0  0  0  0
 16 19  1  0  0  0  0
 17 19  1  0  0  0  0
 18 17  2  0  0  0  0
 20 18  1  0  0  0  0
 20 16  2  0  0  0  0
 21 22  1  0  0  0  0
 21  2  1  0  0  0  0
 22 23  3  0  0  0  0
 23 26  1  0  0  0  0
 24 26  2  0  0  0  0
 26 25  1  0  0  0  0
M  END
>  <MODEL>
3

>  <REMARK>
 VINA RESULT:      -8.3      1.293      1.968
  Name = 
  8 active torsions:
  status: ('A' for Active; 'I' for Inactive)
    1  A    between atoms: C_2  and  C_12
    2  A    between atoms: C_4  and  C_25
    3  A    between atoms: N_5  and  C_25
    4  A    between atoms: C_8  and  C_12
    5  A    between atoms: C_17  and  C_26
    6  A    between atoms: C_18  and  C_22
    7  A    between atoms: C_19  and  C_20
    8  A    between atoms: C_23  and  C_26
                            x       y       z     vdW  Elec       q    Type
                         _______ _______ _______ _____ _____    ______ ____

>  <TORSDO>
F 8

$$$$
=
 OpenBabel10222416093D

 26 27  0  0  0  0  0  0  0  0999 V2000
  188.2570  177.4610  144.4870 C   0  0  0  0  0  0  0  0  0  0  0  0
  189.3100  177.5800  145.3110 C   0  0  0  0  0  3  0  0  0  0  0  0
  186.9220  177.9090  144.9690 C   0  0  0  0  0  0  0  0  0  0  0  0
  185.4160  178.4980  146.7920 C   0  0  0  0  0  3  0  0  0  0  0  0
  186.6740  178.0910  146.3410 C   0  0  0  0  0  3  0  0  0  0  0  0
  185.8740  178.1360  144.0630 C   0  0  0  0  0  3  0  0  0  0  0  0
  184.6080  178.5450  144.5040 C   0  0  0  0  0  0  0  0  0  0  0  0
  184.3870  178.7260  145.8760 C   0  0  0  0  0  3  0  0  0  0  0  0
  183.7830  178.7350  142.1350 N   0  0  0  0  0  1  0  0  0  0  0  0
  182.3550  179.0270  143.9360 O   0  0  0  0  0  0  0  0  0  0  0  0
  183.5240  178.7810  143.5360 C   0  0  0  0  0  0  0  0  0  0  0  0
  188.6860  177.7560  142.0060 N   0  0  0  0  0  2  0  0  0  0  0  0
  188.2930  175.6560  142.9370 O   0  0  0  0  0  0  0  0  0  0  0  0
  188.4030  176.9000  143.1180 C   0  0  0  0  0  0  0  0  0  0  0  0
  188.9290  177.2510  140.6620 C   0  0  0  0  0  2  0  0  0  0  0  0
  190.3900  177.2470  140.3680 C   0  0  0  0  0  0  0  0  0  0  0  0
  192.5460  177.3550  140.5430 C   0  0  0  0  0  3  0  0  0  0  0  0
  192.2280  176.9570  139.2940 N   0  0  0  0  0  0  0  0  0  0  0  0
  191.3860  177.5480  141.2730 C   0  0  0  0  0  2  0  0  0  0  0  0
  190.9140  176.8860  139.1870 N   0  0  0  0  0  0  0  0  0  0  0  0
  190.7160  177.2150  144.9640 C   0  0  0  0  0  2  0  0  0  0  0  0
  191.4160  176.7640  146.1670 C   0  0  0  0  0  0  0  0  0  0  0  0
  191.9920  176.3920  147.1590 C   0  0  0  0  0  0  0  0  0  0  0  0
  193.3470  176.8660  149.1380 O   0  0  0  0  0  1  0  0  0  0  0  0
  192.6760  174.7300  148.6470 O   0  0  0  0  0  0  0  0  0  0  0  0
  192.6790  175.9490  148.3380 C   0  0  0  0  0  0  0  0  0  0  0  0
  1  3  1  0  0  0  0
  1  2  2  0  0  0  0
  3  5  1  0  0  0  0
  5  4  2  0  0  0  0
  6  7  1  0  0  0  0
  6  3  2  0  0  0  0
  7  8  2  0  0  0  0
  8  4  1  0  0  0  0
  9 11  1  0  0  0  0
 11 10  2  0  0  0  0
 11  7  1  0  0  0  0
 12 14  1  0  0  0  0
 13 14  2  0  0  0  0
 14  1  1  0  0  0  0
 15 12  1  0  0  0  0
 16 15  1  0  0  0  0
 16 19  1  0  0  0  0
 17 19  1  0  0  0  0
 18 17  2  0  0  0  0
 20 18  1  0  0  0  0
 20 16  2  0  0  0  0
 21  2  1  0  0  0  0
 21 22  1  0  0  0  0
 22 23  3  0  0  0  0
 23 26  1  0  0  0  0
 26 25  2  0  0  0  0
 26 24  1  0  0  0  0
M  END
>  <MODEL>
4

>  <REMARK>
 VINA RESULT:      -8.3      2.054      6.836
  Name = 
  8 active torsions:
  status: ('A' for Active; 'I' for Inactive)
    1  A    between atoms: C_2  and  C_12
    2  A    between atoms: C_4  and  C_25
    3  A    between atoms: N_5  and  C_25
    4  A    between atoms: C_8  and  C_12
    5  A    between atoms: C_17  and  C_26
    6  A    between atoms: C_18  and  C_22
    7  A    between atoms: C_19  and  C_20
    8  A    between atoms: C_23  and  C_26
                            x       y       z     vdW  Elec       q    Type
                         _______ _______ _______ _____ _____    ______ ____

>  <TORSDO>
F 8

$$$$
=
 OpenBabel10222416093D

 26 27  0  0  0  0  0  0  0  0999 V2000
  187.8720  177.6680  142.2230 C   0  0  0  0  0  0  0  0  0  0  0  0
  188.0130  178.1520  140.9790 C   0  0  0  0  0  3  0  0  0  0  0  0
  186.6440  178.0200  142.9890 C   0  0  0  0  0  0  0  0  0  0  0  0
  184.3090  178.7110  143.0470 C   0  0  0  0  0  3  0  0  0  0  0  0
  185.4550  178.3680  142.3250 C   0  0  0  0  0  3  0  0  0  0  0  0
  186.6570  178.0330  144.3930 C   0  0  0  0  0  3  0  0  0  0  0  0
  185.5130  178.3750  145.1270 C   0  0  0  0  0  0  0  0  0  0  0  0
  184.3380  178.7140  144.4420 C   0  0  0  0  0  3  0  0  0  0  0  0
  186.7930  178.3600  147.2920 N   0  0  0  0  0  1  0  0  0  0  0  0
  184.4760  178.4000  147.2610 O   0  0  0  0  0  0  0  0  0  0  0  0
  185.5480  178.3800  146.5990 C   0  0  0  0  0  0  0  0  0  0  0  0
  190.1190  177.3530  143.3510 N   0  0  0  0  0  2  0  0  0  0  0  0
  188.7040  175.5520  142.9230 O   0  0  0  0  0  0  0  0  0  0  0  0
  188.9060  176.7940  142.8370 C   0  0  0  0  0  0  0  0  0  0  0  0
  191.1240  176.5570  144.0440 C   0  0  0  0  0  2  0  0  0  0  0  0
  191.0250  176.7680  145.5160 C   0  0  0  0  0  0  0  0  0  0  0  0
  190.2850  177.1390  147.5170 C   0  0  0  0  0  3  0  0  0  0  0  0
  191.5920  176.8130  147.5870 N   0  0  0  0  0  0  0  0  0  0  0  0
  189.8760  177.1180  146.1950 C   0  0  0  0  0  3  0  0  0  0  0  0
  192.0430  176.5810  146.3680 N   0  0  0  0  0  2  0  0  0  0  0  0
  189.1620  177.8610  140.0710 C   0  0  0  0  0  2  0  0  0  0  0  0
  188.6830  177.1430  138.8900 C   0  0  0  0  0  0  0  0  0  0  0  0
  188.2880  176.5510  137.9160 C   0  0  0  0  0  0  0  0  0  0  0  0
  188.7100  175.4940  135.7510 O   0  0  0  0  0  0  0  0  0  0  0  0
  186.6030  175.5470  136.6530 O   0  0  0  0  0  1  0  0  0  0  0  0
  187.8200  175.8460  136.7570 C   0  0  0  0  0  0  0  0  0  0  0  0
  1 14  1  0  0  0  0
  1  3  1  0  0  0  0
  2  1  2  0  0  0  0
  3  6  1  0  0  0  0
  4  8  2  0  0  0  0
  5  3  2  0  0  0  0
  5  4  1  0  0  0  0
  6  7  2  0  0  0  0
  7 11  1  0  0  0  0
  8  7  1  0  0  0  0
 11 10  2  0  0  0  0
 11  9  1  0  0  0  0
 12 15  1  0  0  0  0
 14 13  2  0  0  0  0
 14 12  1  0  0  0  0
 15 16  1  0  0  0  0
 16 19  2  0  0  0  0
 16 20  1  0  0  0  0
 17 18  2  0  0  0  0
 19 17  1  0  0  0  0
 20 18  1  0  0  0  0
 21  2  1  0  0  0  0
 22 21  1  0  0  0  0
 23 22  3  0  0  0  0
 24 26  2  0  0  0  0
 25 26  1  0  0  0  0
 26 23  1  0  0  0  0
M  END
>  <MODEL>
5

>  <REMARK>
 VINA RESULT:      -8.1      2.762      6.617
  Name = 
  8 active torsions:
  status: ('A' for Active; 'I' for Inactive)
    1  A    between atoms: C_2  and  C_12
    2  A    between atoms: C_4  and  C_25
    3  A    between atoms: N_5  and  C_25
    4  A    between atoms: C_8  and  C_12
    5  A    between atoms: C_17  and  C_26
    6  A    between atoms: C_18  and  C_22
    7  A    between atoms: C_19  and  C_20
    8  A    between atoms: C_23  and  C_26
                            x       y       z     vdW  Elec       q    Type
                         _______ _______ _______ _____ _____    ______ ____

>  <TORSDO>
F 8

$$$$
=
 OpenBabel10222416093D

 26 27  0  0  0  0  0  0  0  0999 V2000
  187.5000  177.8650  142.6700 C   0  0  0  0  0  0  0  0  0  0  0  0
  187.5870  178.4530  141.4670 C   0  0  0  0  0  3  0  0  0  0  0  0
  186.3190  178.1670  143.5260 C   0  0  0  0  0  0  0  0  0  0  0  0
  185.3300  178.5120  145.7250 C   0  0  0  0  0  3  0  0  0  0  0  0
  186.4420  178.2420  144.9250 C   0  0  0  0  0  3  0  0  0  0  0  0
  185.0520  178.3590  142.9530 C   0  0  0  0  0  3  0  0  0  0  0  0
  183.9290  178.6310  143.7470 C   0  0  0  0  0  0  0  0  0  0  0  0
  184.0780  178.7060  145.1380 C   0  0  0  0  0  3  0  0  0  0  0  0
  182.4320  178.6240  141.7260 N   0  0  0  0  0  1  0  0  0  0  0  0
  181.6250  179.1910  143.8230 O   0  0  0  0  0  0  0  0  0  0  0  0
  182.6100  178.8320  143.1240 C   0  0  0  0  0  0  0  0  0  0  0  0
  189.8190  177.4170  143.5890 N   0  0  0  0  0  2  0  0  0  0  0  0
  188.3060  175.6890  143.1960 O   0  0  0  0  0  0  0  0  0  0  0  0
  188.5470  176.9270  143.1530 C   0  0  0  0  0  0  0  0  0  0  0  0
  190.8460  176.5540  144.1560 C   0  0  0  0  0  2  0  0  0  0  0  0
  190.9280  176.7490  145.6310 C   0  0  0  0  0  0  0  0  0  0  0  0
  190.4430  177.1210  147.7090 C   0  0  0  0  0  3  0  0  0  0  0  0
  191.7350  176.7450  147.6220 N   0  0  0  0  0  0  0  0  0  0  0  0
  189.8810  177.1320  146.4440 C   0  0  0  0  0  2  0  0  0  0  0  0
  192.0310  176.5130  146.3570 N   0  0  0  0  0  0  0  0  0  0  0  0
  188.6840  178.2260  140.4790 C   0  0  0  0  0  2  0  0  0  0  0  0
  188.1070  177.8970  139.1750 C   0  0  0  0  0  0  0  0  0  0  0  0
  187.6330  177.6270  138.1000 C   0  0  0  0  0  0  0  0  0  0  0  0
  186.8110  175.9820  136.4880 O   0  0  0  0  0  1  0  0  0  0  0  0
  186.8080  178.2210  135.9990 O   0  0  0  0  0  0  0  0  0  0  0  0
  187.0690  177.3060  136.8200 C   0  0  0  0  0  0  0  0  0  0  0  0
  1 14  1  0  0  0  0
  1  3  1  0  0  0  0
  2  1  2  0  0  0  0
  3  5  1  0  0  0  0
  5  4  2  0  0  0  0
  6  3  2  0  0  0  0
  6  7  1  0  0  0  0
  7  8  2  0  0  0  0
  8  4  1  0  0  0  0
  9 11  1  0  0  0  0
 11  7  1  0  0  0  0
 11 10  2  0  0  0  0
 12 15  1  0  0  0  0
 14 13  2  0  0  0  0
 14 12  1  0  0  0  0
 15 16  1  0  0  0  0
 16 20  2  0  0  0  0
 16 19  1  0  0  0  0
 18 17  2  0  0  0  0
 19 17  1  0  0  0  0
 20 18  1  0  0  0  0
 21  2  1  0  0  0  0
 22 21  1  0  0  0  0
 23 22  3  0  0  0  0
 24 26  1  0  0  0  0
 25 26  2  0  0  0  0
 26 23  1  0  0  0  0
M  END
>  <MODEL>
6

>  <REMARK>
 VINA RESULT:      -7.9      2.571      6.990
  Name = 
  8 active torsions:
  status: ('A' for Active; 'I' for Inactive)
    1  A    between atoms: C_2  and  C_12
    2  A    between atoms: C_4  and  C_25
    3  A    between atoms: N_5  and  C_25
    4  A    between atoms: C_8  and  C_12
    5  A    between atoms: C_17  and  C_26
    6  A    between atoms: C_18  and  C_22
    7  A    between atoms: C_19  and  C_20
    8  A    between atoms: C_23  and  C_26
                            x       y       z     vdW  Elec       q    Type
                         _______ _______ _______ _____ _____    ______ ____

>  <TORSDO>
F 8

$$$$
=
 OpenBabel10222416093D

 26 27  0  0  0  0  0  0  0  0999 V2000
  189.6190  177.6470  142.1650 C   0  0  0  0  0  0  0  0  0  0  0  0
  190.4880  178.2950  142.9560 C   0  0  0  0  0  3  0  0  0  0  0  0
  190.0180  177.3530  140.7610 C   0  0  0  0  0  0  0  0  0  0  0  0
  189.4250  176.8850  138.4440 C   0  0  0  0  0  3  0  0  0  0  0  0
  189.0480  177.1740  139.7580 C   0  0  0  0  0  3  0  0  0  0  0  0
  191.3720  177.2250  140.4140 C   0  0  0  0  0  3  0  0  0  0  0  0
  191.7610  176.9360  139.0990 C   0  0  0  0  0  0  0  0  0  0  0  0
  190.7770  176.7670  138.1160 C   0  0  0  0  0  3  0  0  0  0  0  0
  193.5950  176.6610  137.4000 N   0  0  0  0  0  1  0  0  0  0  0  0
  194.0640  176.8300  139.6630 O   0  0  0  0  0  0  0  0  0  0  0  0
  193.1880  176.8090  138.7570 C   0  0  0  0  0  0  0  0  0  0  0  0
  187.2010  178.1520  142.7310 N   0  0  0  0  0  2  0  0  0  0  0  0
  188.1020  176.0220  143.0130 O   0  0  0  0  0  0  0  0  0  0  0  0
  188.2850  177.2210  142.6630 C   0  0  0  0  0  0  0  0  0  0  0  0
  185.8520  177.7680  143.1240 C   0  0  0  0  0  2  0  0  0  0  0  0
  185.6030  178.1390  144.5460 C   0  0  0  0  0  0  0  0  0  0  0  0
  185.7700  178.3750  146.6920 C   0  0  0  0  0  3  0  0  0  0  0  0
  184.7280  179.1080  146.2510 N   0  0  0  0  0  0  0  0  0  0  0  0
  186.3680  177.7350  145.6200 C   0  0  0  0  0  2  0  0  0  0  0  0
  184.6280  178.9700  144.9420 N   0  0  0  0  0  0  0  0  0  0  0  0
  190.2560  178.6280  144.3930 C   0  0  0  0  0  2  0  0  0  0  0  0
  190.9460  177.6550  145.2390 C   0  0  0  0  0  0  0  0  0  0  0  0
  191.5160  176.8530  145.9360 C   0  0  0  0  0  0  0  0  0  0  0  0
  192.6000  174.6810  146.2360 O   0  0  0  0  0  0  0  0  0  0  0  0
  192.4230  176.1650  147.9730 O   0  0  0  0  0  1  0  0  0  0  0  0
  192.1950  175.8990  146.7660 C   0  0  0  0  0  0  0  0  0  0  0  0
  1 14  1  0  0  0  0
  1  2  2  0  0  0  0
  2 21  1  0  0  0  0
  3  1  1  0  0  0  0
  4  5  1  0  0  0  0
  5  3  2  0  0  0  0
  6  3  1  0  0  0  0
  7  6  2  0  0  0  0
  8  4  2  0  0  0  0
  8  7  1  0  0  0  0
  9 11  1  0  0  0  0
 11  7  1  0  0  0  0
 11 10  2  0  0  0  0
 12 15  1  0  0  0  0
 14 12  1  0  0  0  0
 14 13  2  0  0  0  0
 15 16  1  0  0  0  0
 16 20  2  0  0  0  0
 16 19  1  0  0  0  0
 18 17  2  0  0  0  0
 19 17  1  0  0  0  0
 20 18  1  0  0  0  0
 21 22  1  0  0  0  0
 22 23  3  0  0  0  0
 23 26  1  0  0  0  0
 24 26  2  0  0  0  0
 26 25  1  0  0  0  0
M  END
>  <MODEL>
7

>  <REMARK>
 VINA RESULT:      -7.9      3.293      7.869
  Name = 
  8 active torsions:
  status: ('A' for Active; 'I' for Inactive)
    1  A    between atoms: C_2  and  C_12
    2  A    between atoms: C_4  and  C_25
    3  A    between atoms: N_5  and  C_25
    4  A    between atoms: C_8  and  C_12
    5  A    between atoms: C_17  and  C_26
    6  A    between atoms: C_18  and  C_22
    7  A    between atoms: C_19  and  C_20
    8  A    between atoms: C_23  and  C_26
                            x       y       z     vdW  Elec       q    Type
                         _______ _______ _______ _____ _____    ______ ____

>  <TORSDO>
F 8

$$$$
=
 OpenBabel10222416093D

 26 27  0  0  0  0  0  0  0  0999 V2000
  186.7070  178.1040  143.0750 C   0  0  0  0  0  0  0  0  0  0  0  0
  185.8960  178.6170  142.1370 C   0  0  0  0  0  3  0  0  0  0  0  0
  186.2970  178.2060  144.5030 C   0  0  0  0  0  0  0  0  0  0  0  0
  184.6220  178.7230  146.1940 C   0  0  0  0  0  3  0  0  0  0  0  0
  184.9990  178.6160  144.8540 C   0  0  0  0  0  3  0  0  0  0  0  0
  187.2090  177.9170  145.5310 C   0  0  0  0  0  3  0  0  0  0  0  0
  186.8410  178.0210  146.8790 C   0  0  0  0  0  0  0  0  0  0  0  0
  185.5400  178.4260  147.2030 C   0  0  0  0  0  3  0  0  0  0  0  0
  188.8460  176.7530  147.7170 N   0  0  0  0  0  1  0  0  0  0  0  0
  187.7410  178.2860  149.0590 O   0  0  0  0  0  0  0  0  0  0  0  0
  187.8130  177.7090  147.9410 C   0  0  0  0  0  0  0  0  0  0  0  0
  189.1710  178.2160  142.4910 N   0  0  0  0  0  2  0  0  0  0  0  0
  188.0380  176.1840  142.6250 O   0  0  0  0  0  0  0  0  0  0  0  0
  187.9880  177.4420  142.7150 C   0  0  0  0  0  0  0  0  0  0  0  0
  190.4710  177.6150  142.2260 C   0  0  0  0  0  2  0  0  0  0  0  0
  191.0610  177.0850  143.4880 C   0  0  0  0  0  0  0  0  0  0  0  0
  191.6770  176.8310  145.5490 C   0  0  0  0  0  3  0  0  0  0  0  0
  191.9760  175.7100  144.8610 N   0  0  0  0  0  0  0  0  0  0  0  0
  191.0780  177.7450  144.6990 C   0  0  0  0  0  2  0  0  0  0  0  0
  191.5970  175.8610  143.6060 N   0  0  0  0  0  0  0  0  0  0  0  0
  186.1440  178.5610  140.6660 C   0  0  0  0  0  2  0  0  0  0  0  0
  184.9350  178.9680  139.9490 C   0  0  0  0  0  0  0  0  0  0  0  0
  183.9380  179.3040  139.3590 C   0  0  0  0  0  0  0  0  0  0  0  0
  182.3950  181.0450  138.6060 O   0  0  0  0  0  1  0  0  0  0  0  0
  182.0380  178.8410  138.0860 O   0  0  0  0  0  0  0  0  0  0  0  0
  182.7530  179.7040  138.6570 C   0  0  0  0  0  0  0  0  0  0  0  0
  1  3  1  0  0  0  0
  2  1  2  0  0  0  0
  3  5  2  0  0  0  0
  3  6  1  0  0  0  0
  4  8  2  0  0  0  0
  5  4  1  0  0  0  0
  6  7  2  0  0  0  0
  7  8  1  0  0  0  0
  7 11  1  0  0  0  0
  9 11  1  0  0  0  0
 11 10  2  0  0  0  0
 12 14  1  0  0  0  0
 13 14  2  0  0  0  0
 14  1  1  0  0  0  0
 15 12  1  0  0  0  0
 15 16  1  0  0  0  0
 16 20  2  0  0  0  0
 16 19  1  0  0  0  0
 18 17  2  0  0  0  0
 19 17  1  0  0  0  0
 20 18  1  0  0  0  0
 21  2  1  0  0  0  0
 22 21  1  0  0  0  0
 23 22  3  0  0  0  0
 24 26  1  0  0  0  0
 25 26  2  0  0  0  0
 26 23  1  0  0  0  0
M  END
>  <MODEL>
8

>  <REMARK>
 VINA RESULT:      -7.7      2.794      4.265
  Name = 
  8 active torsions:
  status: ('A' for Active; 'I' for Inactive)
    1  A    between atoms: C_2  and  C_12
    2  A    between atoms: C_4  and  C_25
    3  A    between atoms: N_5  and  C_25
    4  A    between atoms: C_8  and  C_12
    5  A    between atoms: C_17  and  C_26
    6  A    between atoms: C_18  and  C_22
    7  A    between atoms: C_19  and  C_20
    8  A    between atoms: C_23  and  C_26
                            x       y       z     vdW  Elec       q    Type
                         _______ _______ _______ _____ _____    ______ ____

>  <TORSDO>
F 8

$$$$
=
 OpenBabel10222416093D

 26 27  0  0  0  0  0  0  0  0999 V2000
  186.3240  178.0900  143.1710 C   0  0  0  0  0  0  0  0  0  0  0  0
  186.9740  178.4240  142.0450 C   0  0  0  0  0  3  0  0  0  0  0  0
  184.8770  178.4240  143.2830 C   0  0  0  0  0  0  0  0  0  0  0  0
  182.9350  178.9990  144.6350 C   0  0  0  0  0  3  0  0  0  0  0  0
  184.2950  178.7000  144.5330 C   0  0  0  0  0  3  0  0  0  0  0  0
  184.0580  178.4460  142.1430 C   0  0  0  0  0  3  0  0  0  0  0  0
  182.6920  178.7450  142.2340 C   0  0  0  0  0  0  0  0  0  0  0  0
  182.1360  179.0230  143.4900 C   0  0  0  0  0  3  0  0  0  0  0  0
  182.1200  177.8760  139.9440 N   0  0  0  0  0  1  0  0  0  0  0  0
  180.8890  179.5720  140.9330 O   0  0  0  0  0  0  0  0  0  0  0  0
  181.8530  178.7660  141.0240 C   0  0  0  0  0  0  0  0  0  0  0  0
  187.5840  178.1460  145.3690 N   0  0  0  0  0  2  0  0  0  0  0  0
  187.0860  176.1380  144.2970 O   0  0  0  0  0  0  0  0  0  0  0  0
  187.0150  177.3980  144.2900 C   0  0  0  0  0  0  0  0  0  0  0  0
  188.1910  177.5170  146.5340 C   0  0  0  0  0  2  0  0  0  0  0  0
  189.6440  177.2870  146.2970 C   0  0  0  0  0  0  0  0  0  0  0  0
  191.6240  177.2290  145.4210 C   0  0  0  0  0  3  0  0  0  0  0  0
  191.6970  176.7980  146.6960 N   0  0  0  0  0  0  0  0  0  0  0  0
  190.3140  177.5610  145.1230 C   0  0  0  0  0  3  0  0  0  0  0  0
  190.4920  176.8370  147.2340 N   0  0  0  0  0  2  0  0  0  0  0  0
  188.4100  178.1260  141.7630 C   0  0  0  0  0  2  0  0  0  0  0  0
  188.6710  178.2840  140.3330 C   0  0  0  0  0  0  0  0  0  0  0  0
  188.8880  178.4160  139.1540 C   0  0  0  0  0  0  0  0  0  0  0  0
  188.7020  179.7060  137.0850 O   0  0  0  0  0  0  0  0  0  0  0  0
  189.7730  177.6800  137.1240 O   0  0  0  0  0  1  0  0  0  0  0  0
  189.1460  178.5710  137.7510 C   0  0  0  0  0  0  0  0  0  0  0  0
  1  3  1  0  0  0  0
  1 14  1  0  0  0  0
  2  1  2  0  0  0  0
  3  5  1  0  0  0  0
  5  4  2  0  0  0  0
  6  7  1  0  0  0  0
  6  3  2  0  0  0  0
  7  8  2  0  0  0  0
  8  4  1  0  0  0  0
  9 11  1  0  0  0  0
 10 11  2  0  0  0  0
 11  7  1  0  0  0  0
 12 15  1  0  0  0  0
 14 13  2  0  0  0  0
 14 12  1  0  0  0  0
 16 15  1  0  0  0  0
 16 20  1  0  0  0  0
 17 18  2  0  0  0  0
 18 20  1  0  0  0  0
 19 17  1  0  0  0  0
 19 16  2  0  0  0  0
 21  2  1  0  0  0  0
 22 21  1  0  0  0  0
 23 22  3  0  0  0  0
 24 26  2  0  0  0  0
 25 26  1  0  0  0  0
 26 23  1  0  0  0  0
M  END
>  <MODEL>
9

>  <REMARK>
 VINA RESULT:      -7.7      2.562      7.588
  Name = 
  8 active torsions:
  status: ('A' for Active; 'I' for Inactive)
    1  A    between atoms: C_2  and  C_12
    2  A    between atoms: C_4  and  C_25
    3  A    between atoms: N_5  and  C_25
    4  A    between atoms: C_8  and  C_12
    5  A    between atoms: C_17  and  C_26
    6  A    between atoms: C_18  and  C_22
    7  A    between atoms: C_19  and  C_20
    8  A    between atoms: C_23  and  C_26
                            x       y       z     vdW  Elec       q    Type
                         _______ _______ _______ _____ _____    ______ ____

>  <TORSDO>
F 8

$$$$
