=
 OpenBabel10222420563D

 56 60  0  0  1  0  0  0  0  0999 V2000
  186.9700  177.1860  135.8820 C   0  0  1  0  0  3  0  0  0  0  0  0
  190.0420  176.4500  138.0350 C   0  0  2  0  0  3  0  0  0  0  0  0
  186.2050  178.8270  137.4610 O   0  0  0  0  0  0  0  0  0  0  0  0
  188.0750  178.0600  139.4590 C   0  0  0  0  0  2  0  0  0  0  0  0
  187.7290  177.2620  138.2960 N   0  0  0  0  0  0  0  0  0  0  0  0
  186.9010  177.7970  137.2530 C   0  0  0  0  0  0  0  0  0  0  0  0
  187.3430  175.7320  135.9450 C   0  0  0  0  0  3  0  0  0  0  0  0
  189.5410  178.4950  139.3410 C   0  0  0  0  0  2  0  0  0  0  0  0
  188.0930  175.2160  136.9270 C   0  0  0  0  0  0  0  0  0  0  0  0
  188.5490  176.0760  138.0760 C   0  0  1  0  0  3  0  0  0  0  0  0
  190.4710  177.3720  139.1100 N   0  0  0  0  0  0  0  0  0  0  0  0
  190.5600  176.7820  136.7610 O   0  0  0  0  0  0  0  0  0  0  0  0
  191.6640  175.9680  136.4790 C   0  0  0  0  0  2  0  0  0  0  0  0
  191.7260  174.8350  137.4830 C   0  0  0  0  0  1  0  0  0  0  0  0
  185.6750  177.3770  135.0970 C   0  0  0  0  0  2  0  0  0  0  0  0
  184.6050  176.4070  135.5750 C   0  0  1  0  0  3  0  0  0  0  0  0
  183.3350  177.1390  135.7860 C   0  0  1  0  0  3  0  0  0  0  0  0
  183.5580  176.3600  134.6350 O   0  0  0  0  0  0  0  0  0  0  0  0
  182.4320  176.3720  136.7480 C   0  0  2  0  0  3  0  0  0  0  0  0
  180.8980  174.4920  136.0140 C   0  0  0  0  0  3  0  0  0  0  0  0
  178.9310  174.9540  134.6810 C   0  0  0  0  0  3  0  0  0  0  0  0
  179.2450  176.3180  134.6860 C   0  0  0  0  0  3  0  0  0  0  0  0
  180.3860  176.7700  135.3540 C   0  0  0  0  0  3  0  0  0  0  0  0
  179.7580  174.0410  135.3440 C   0  0  0  0  0  3  0  0  0  0  0  0
  181.2190  175.8600  136.0210 C   0  0  0  0  0  0  0  0  0  0  0  0
  182.5350  178.5360  137.7950 O   0  0  0  0  0  1  0  0  0  0  0  0
  182.0470  177.2380  137.9560 C   0  0  2  0  0  3  0  0  0  0  0  0
  181.7760  175.6370  139.7120 O   0  0  0  0  0  1  0  0  0  0  0  0
  182.6110  176.6540  139.2440 C   0  0  0  0  0  2  0  0  0  0  0  0
  188.4640  173.8610  136.9650 O   0  0  0  0  0  0  0  0  0  0  0  0
  189.3730  172.8370  134.9950 C   0  0  0  0  0  2  0  0  0  0  0  0
  188.4300  172.9120  135.9270 C   0  0  0  0  0  0  0  0  0  0  0  0
  187.3790  171.9940  135.8790 O   0  0  0  0  0  0  0  0  0  0  0  0
  186.5780  171.8190  134.7160 C   0  0  0  0  0  2  0  0  0  0  0  0
  185.1300  171.7430  135.0840 C   0  0  0  0  0  0  0  0  0  0  0  0
  184.6770  170.7190  135.5730 O   0  0  0  0  0  0  0  0  0  0  0  0
  184.2290  172.9010  134.8270 C   0  0  0  0  0  1  0  0  0  0  0  0
  190.6120  176.6080  140.3430 C   0  0  0  0  0  2  0  0  0  0  0  0
  191.3140  177.4620  141.3870 C   0  0  0  0  0  2  0  0  0  0  0  0
  191.4930  176.6820  142.6800 C   0  0  0  0  0  2  0  0  0  0  0  0
  191.3020  177.5490  143.8400 N   0  0  0  0  0  0  0  0  0  0  0  0
  190.4520  177.3730  146.1670 C   0  0  0  0  0  2  0  0  0  0  0  0
  188.8550  177.2960  144.2940 C   0  0  2  0  0  3  0  0  0  0  0  0
  190.2910  176.9200  144.7030 C   0  0  1  0  0  3  0  0  0  0  0  0
  186.9190  178.0230  145.6940 C   0  0  0  0  0  3  0  0  0  0  0  0
  187.4560  177.8760  148.6020 C   0  0  0  0  0  1  0  0  0  0  0  0
  189.7960  178.1170  148.8470 O   0  0  0  0  0  0  0  0  0  0  0  0
  188.8450  177.8940  148.0560 C   0  0  0  0  0  0  0  0  0  0  0  0
  188.1960  177.6480  145.5780 C   0  0  0  0  0  0  0  0  0  0  0  0
  189.1160  177.6400  146.6640 N   0  0  0  0  0  0  0  0  0  0  0  0
  188.2360  176.1790  143.7300 O   0  0  0  0  0  1  0  0  0  0  0  0
  185.9910  178.1130  144.5290 C   0  0  0  0  0  2  0  0  0  0  0  0
  184.8690  179.0910  144.8340 C   0  0  0  0  0  2  0  0  0  0  0  0
  184.5060  178.9800  146.1780 O   0  0  0  0  0  1  0  0  0  0  0  0
  191.2250  179.8700  144.0890 O   0  0  0  0  0  1  0  0  0  0  0  0
  190.7590  178.8010  143.3160 C   0  0  0  0  0  2  0  0  0  0  0  0
  1 15  1  1  0  0  0
  1  7  1  0  0  0  0
  1  6  1  0  0  0  0
  2 12  1  6  0  0  0
  2 10  1  0  0  0  0
  2 11  1  0  0  0  0
  5  4  1  0  0  0  0
  6  3  2  0  0  0  0
  6  5  1  0  0  0  0
  7  9  2  0  0  0  0
  8  4  1  0  0  0  0
  9 30  1  0  0  0  0
 10  9  1  6  0  0  0
 10  5  1  0  0  0  0
 11  8  1  0  0  0  0
 11 38  1  0  0  0  0
 13 12  1  0  0  0  0
 13 14  1  0  0  0  0
 16 15  1  6  0  0  0
 16 17  1  0  0  0  0
 17 19  1  1  0  0  0
 18 16  1  0  0  0  0
 18 17  1  0  0  0  0
 19 27  1  1  0  0  0
 20 25  1  0  0  0  0
 21 22  2  0  0  0  0
 21 24  1  0  0  0  0
 22 23  1  0  0  0  0
 23 25  2  0  0  0  0
 24 20  2  0  0  0  0
 25 19  1  0  0  0  0
 27 26  1  6  0  0  0
 27 29  1  0  0  0  0
 29 28  1  0  0  0  0
 31 32  2  0  0  0  0
 32 30  1  0  0  0  0
 33 32  1  0  0  0  0
 34 35  1  0  0  0  0
 34 33  1  0  0  0  0
 35 36  2  0  0  0  0
 37 35  1  0  0  0  0
 38 39  1  0  0  0  0
 39 40  1  0  0  0  0
 40 41  1  0  0  0  0
 42 50  1  0  0  0  0
 43 51  1  1  0  0  0
 43 44  1  0  0  0  0
 43 49  1  0  0  0  0
 44 41  1  6  0  0  0
 44 42  1  0  0  0  0
 48 46  1  0  0  0  0
 48 47  2  0  0  0  0
 49 45  2  0  0  0  0
 49 50  1  0  0  0  0
 50 48  1  0  0  0  0
 52 53  1  0  0  0  0
 52 45  1  0  0  0  0
 53 54  1  0  0  0  0
 56 41  1  0  0  0  0
 56 55  1  0  0  0  0
M  END
>  <MODEL>
1

>  <REMARK>
 VINA RESULT:      -6.5      0.000      0.000
  Name = 
  21 active torsions:
  status: ('A' for Active; 'I' for Inactive)
    1  A    between atoms: C_1  and  C_14
    2  A    between atoms: C_1  and  C_35
    3  A    between atoms: C_3  and  O_43
    4  A    between atoms: C_4  and  C_36
    5  A    between atoms: C_5  and  O_43
    6  A    between atoms: O_7  and  C_25
    7  A    between atoms: O_7  and  C_47
    8  A    between atoms: C_11  and  C_30
    9  A    between atoms: C_11  and  C_34
   10  A    between atoms: C_11  and  C_55
   11  A    between atoms: C_12  and  N_42
   12  A    between atoms: C_14  and  N_51
   13  A    between atoms: C_17  and  C_36
   14  A    between atoms: C_18  and  C_21
   15  A    between atoms: C_21  and  O_22
   16  A    between atoms: O_22  and  C_25
   17  A    between atoms: C_23  and  C_53
   18  A    between atoms: C_27  and  N_42
   19  A    between atoms: C_34  and  C_44
   20  A    between atoms: C_35  and  N_42
   21  A    between atoms: C_37  and  C_53
                            x       y       z     vdW  Elec       q    Type
                         _______ _______ _______ _____ _____    ______ ____

>  <TORSDO>
F 21

$$$$
=
 OpenBabel10222420563D

 56 60  0  0  1  0  0  0  0  0999 V2000
  189.8080  176.8000  139.3850 C   0  0  1  0  0  3  0  0  0  0  0  0
  187.2950  175.7130  136.7160 C   0  0  2  0  0  3  0  0  0  0  0  0
  188.7930  178.9730  139.5140 O   0  0  0  0  0  0  0  0  0  0  0  0
  187.2080  178.5870  137.1860 C   0  0  0  0  0  2  0  0  0  0  0  0
  188.3550  177.7740  137.5550 N   0  0  0  0  0  0  0  0  0  0  0  0
  188.9950  177.9350  138.8290 C   0  0  0  0  0  0  0  0  0  0  0  0
  190.3980  175.9590  138.2890 C   0  0  0  0  0  3  0  0  0  0  0  0
  185.9460  177.7190  137.2570 C   0  0  0  0  0  2  0  0  0  0  0  0
  189.8250  175.8230  137.0870 C   0  0  0  0  0  0  0  0  0  0  0  0
  188.5680  176.5790  136.7480 C   0  0  1  0  0  3  0  0  0  0  0  0
  186.0460  176.4700  136.4770 N   0  0  0  0  0  0  0  0  0  0  0  0
  187.1830  174.7420  137.7400 O   0  0  0  0  0  0  0  0  0  0  0  0
  186.7470  173.5310  137.1900 C   0  0  0  0  0  2  0  0  0  0  0  0
  187.9170  172.5750  137.0800 C   0  0  0  0  0  1  0  0  0  0  0  0
  190.8950  177.2800  140.3410 C   0  0  0  0  0  2  0  0  0  0  0  0
  190.2840  177.9360  141.5710 C   0  0  1  0  0  3  0  0  0  0  0  0
  190.5060  177.0720  142.7520 C   0  0  1  0  0  3  0  0  0  0  0  0
  191.2950  178.2120  142.5100 O   0  0  0  0  0  0  0  0  0  0  0  0
  189.4840  177.3880  143.8420 C   0  0  2  0  0  3  0  0  0  0  0  0
  191.3580  176.5620  145.3350 C   0  0  0  0  0  3  0  0  0  0  0  0
  191.1640  176.6950  147.7450 C   0  0  0  0  0  3  0  0  0  0  0  0
  189.8900  177.2620  147.6140 C   0  0  0  0  0  3  0  0  0  0  0  0
  189.3500  177.4780  146.3430 C   0  0  0  0  0  3  0  0  0  0  0  0
  191.8970  176.3450  146.6060 C   0  0  0  0  0  3  0  0  0  0  0  0
  190.0790  177.1290  145.1980 C   0  0  0  0  0  0  0  0  0  0  0  0
  188.4220  175.4950  142.8050 O   0  0  0  0  0  1  0  0  0  0  0  0
  188.1860  176.5950  143.6300 C   0  0  2  0  0  3  0  0  0  0  0  0
  186.2260  177.9210  143.9740 O   0  0  0  0  0  1  0  0  0  0  0  0
  187.1140  177.4690  142.9960 C   0  0  0  0  0  2  0  0  0  0  0  0
  190.3660  175.0100  136.0760 O   0  0  0  0  0  0  0  0  0  0  0  0
  192.0020  173.5860  135.0480 C   0  0  0  0  0  2  0  0  0  0  0  0
  191.6540  174.4480  135.9970 C   0  0  0  0  0  0  0  0  0  0  0  0
  192.6180  174.8230  136.9350 O   0  0  0  0  0  0  0  0  0  0  0  0
  193.5840  173.9060  137.4370 C   0  0  0  0  0  2  0  0  0  0  0  0
  194.8750  174.6070  137.7190 C   0  0  0  0  0  0  0  0  0  0  0  0
  195.3100  175.4280  136.9270 O   0  0  0  0  0  0  0  0  0  0  0  0
  195.6490  174.2830  138.9500 C   0  0  0  0  0  1  0  0  0  0  0  0
  185.9640  176.7860  135.0570 C   0  0  0  0  0  2  0  0  0  0  0  0
  184.5080  176.7700  134.6210 C   0  0  0  0  0  2  0  0  0  0  0  0
  183.6640  175.9810  135.6110 C   0  0  0  0  0  2  0  0  0  0  0  0
  182.3580  175.6630  135.0410 N   0  0  0  0  0  0  0  0  0  0  0  0
  180.9110  175.3530  137.0360 C   0  0  0  0  0  2  0  0  0  0  0  0
  181.8440  177.5820  136.5610 C   0  0  2  0  0  3  0  0  0  0  0  0
  181.3360  176.2920  135.8910 C   0  0  1  0  0  3  0  0  0  0  0  0
  181.6400  178.3580  138.9260 C   0  0  0  0  0  3  0  0  0  0  0  0
  179.9260  176.6070  140.5890 C   0  0  0  0  0  1  0  0  0  0  0  0
  180.0420  174.4580  139.6080 O   0  0  0  0  0  0  0  0  0  0  0  0
  180.2710  175.6860  139.4660 C   0  0  0  0  0  0  0  0  0  0  0  0
  181.4180  177.4440  137.9770 C   0  0  0  0  0  0  0  0  0  0  0  0
  180.8320  176.1720  138.2310 N   0  0  0  0  0  0  0  0  0  0  0  0
  181.2100  178.6790  135.9750 O   0  0  0  0  0  1  0  0  0  0  0  0
  182.3370  179.6510  138.6600 C   0  0  0  0  0  2  0  0  0  0  0  0
  181.3530  180.8030  138.7780 C   0  0  0  0  0  2  0  0  0  0  0  0
  181.9940  181.9990  138.4460 O   0  0  0  0  0  1  0  0  0  0  0  0
  183.4770  173.6430  135.3920 O   0  0  0  0  0  1  0  0  0  0  0  0
  182.2230  174.2110  135.1410 C   0  0  0  0  0  2  0  0  0  0  0  0
  1 15  1  6  0  0  0
  2 10  1  0  0  0  0
  2 12  1  1  0  0  0
  4  8  1  0  0  0  0
  4  5  1  0  0  0  0
  5  6  1  0  0  0  0
  6  1  1  0  0  0  0
  6  3  2  0  0  0  0
  7  1  1  0  0  0  0
  9  7  2  0  0  0  0
 10  9  1  1  0  0  0
 10  5  1  0  0  0  0
 11  2  1  0  0  0  0
 11  8  1  0  0  0  0
 13 12  1  0  0  0  0
 14 13  1  0  0  0  0
 16 15  1  6  0  0  0
 16 18  1  0  0  0  0
 16 17  1  0  0  0  0
 17 19  1  1  0  0  0
 18 17  1  0  0  0  0
 19 27  1  6  0  0  0
 19 25  1  0  0  0  0
 20 24  1  0  0  0  0
 22 21  1  0  0  0  0
 23 22  2  0  0  0  0
 24 21  2  0  0  0  0
 25 20  2  0  0  0  0
 25 23  1  0  0  0  0
 27 26  1  6  0  0  0
 29 27  1  0  0  0  0
 29 28  1  0  0  0  0
 30  9  1  0  0  0  0
 31 32  2  0  0  0  0
 32 30  1  0  0  0  0
 32 33  1  0  0  0  0
 33 34  1  0  0  0  0
 34 35  1  0  0  0  0
 35 37  1  0  0  0  0
 36 35  2  0  0  0  0
 38 11  1  0  0  0  0
 39 38  1  0  0  0  0
 39 40  1  0  0  0  0
 41 56  1  0  0  0  0
 41 40  1  0  0  0  0
 42 50  1  0  0  0  0
 43 51  1  6  0  0  0
 43 49  1  0  0  0  0
 44 41  1  1  0  0  0
 44 43  1  0  0  0  0
 44 42  1  0  0  0  0
 48 47  2  0  0  0  0
 48 46  1  0  0  0  0
 49 50  1  0  0  0  0
 49 45  2  0  0  0  0
 50 48  1  0  0  0  0
 52 53  1  0  0  0  0
 52 45  1  0  0  0  0
 54 53  1  0  0  0  0
 56 55  1  0  0  0  0
M  END
>  <MODEL>
2

>  <REMARK>
 VINA RESULT:      -5.7      2.564      9.547
  Name = 
  21 active torsions:
  status: ('A' for Active; 'I' for Inactive)
    1  A    between atoms: C_1  and  C_14
    2  A    between atoms: C_1  and  C_35
    3  A    between atoms: C_3  and  O_43
    4  A    between atoms: C_4  and  C_36
    5  A    between atoms: C_5  and  O_43
    6  A    between atoms: O_7  and  C_25
    7  A    between atoms: O_7  and  C_47
    8  A    between atoms: C_11  and  C_30
    9  A    between atoms: C_11  and  C_34
   10  A    between atoms: C_11  and  C_55
   11  A    between atoms: C_12  and  N_42
   12  A    between atoms: C_14  and  N_51
   13  A    between atoms: C_17  and  C_36
   14  A    between atoms: C_18  and  C_21
   15  A    between atoms: C_21  and  O_22
   16  A    between atoms: O_22  and  C_25
   17  A    between atoms: C_23  and  C_53
   18  A    between atoms: C_27  and  N_42
   19  A    between atoms: C_34  and  C_44
   20  A    between atoms: C_35  and  N_42
   21  A    between atoms: C_37  and  C_53
                            x       y       z     vdW  Elec       q    Type
                         _______ _______ _______ _____ _____    ______ ____

>  <TORSDO>
F 21

$$$$
=
 OpenBabel10222420563D

 56 60  0  0  1  0  0  0  0  0999 V2000
  184.1380  178.1980  143.4360 C   0  0  1  0  0  3  0  0  0  0  0  0
  182.5260  177.9350  139.9790 C   0  0  2  0  0  3  0  0  0  0  0  0
  182.0790  179.0010  144.3790 O   0  0  0  0  0  0  0  0  0  0  0  0
  180.8540  179.4170  141.8490 C   0  0  0  0  0  2  0  0  0  0  0  0
  182.2800  179.2310  142.0610 N   0  0  0  0  0  0  0  0  0  0  0  0
  182.7930  178.8630  143.3500 C   0  0  0  0  0  0  0  0  0  0  0  0
  185.0320  178.6210  142.3050 C   0  0  0  0  0  3  0  0  0  0  0  0
  180.3130  178.2210  141.0560 C   0  0  0  0  0  2  0  0  0  0  0  0
  184.5640  178.9930  141.1070 C   0  0  0  0  0  0  0  0  0  0  0  0
  183.0830  179.0720  140.8540 C   0  0  1  0  0  3  0  0  0  0  0  0
  181.0560  177.9580  139.8080 N   0  0  0  0  0  0  0  0  0  0  0  0
  183.0470  176.6450  140.2380 O   0  0  0  0  0  0  0  0  0  0  0  0
  182.7280  175.7900  139.1760 C   0  0  0  0  0  2  0  0  0  0  0  0
  181.4530  175.0380  139.4990 C   0  0  0  0  0  1  0  0  0  0  0  0
  184.8170  178.4400  144.7810 C   0  0  0  0  0  2  0  0  0  0  0  0
  186.3140  178.6460  144.6010 C   0  0  1  0  0  3  0  0  0  0  0  0
  187.0490  177.6160  145.3700 C   0  0  1  0  0  3  0  0  0  0  0  0
  186.8740  177.5150  143.9770 O   0  0  0  0  0  0  0  0  0  0  0  0
  188.4700  178.0870  145.6670 C   0  0  2  0  0  3  0  0  0  0  0  0
  190.6980  178.1000  144.4590 C   0  0  0  0  0  3  0  0  0  0  0  0
  191.1740  176.4720  142.7320 C   0  0  0  0  0  3  0  0  0  0  0  0
  189.9040  175.9100  142.9080 C   0  0  0  0  0  3  0  0  0  0  0  0
  189.0300  176.4440  143.8590 C   0  0  0  0  0  3  0  0  0  0  0  0
  191.5710  177.5670  143.5070 C   0  0  0  0  0  3  0  0  0  0  0  0
  189.4210  177.5410  144.6390 C   0  0  0  0  0  0  0  0  0  0  0  0
  189.4580  176.4270  147.1020 O   0  0  0  0  0  1  0  0  0  0  0  0
  188.8940  177.7040  147.0930 C   0  0  2  0  0  3  0  0  0  0  0  0
  187.1810  179.0180  148.1210 O   0  0  0  0  0  1  0  0  0  0  0  0
  187.7010  177.7250  148.0380 C   0  0  0  0  0  2  0  0  0  0  0  0
  185.4080  179.3570  140.0440 O   0  0  0  0  0  0  0  0  0  0  0  0
  185.9630  178.1990  138.0160 C   0  0  0  0  0  2  0  0  0  0  0  0
  186.2480  178.5370  139.2690 C   0  0  0  0  0  0  0  0  0  0  0  0
  187.4440  178.0720  139.8220 O   0  0  0  0  0  0  0  0  0  0  0  0
  188.7090  178.6030  139.4460 C   0  0  0  0  0  2  0  0  0  0  0  0
  189.6410  177.5040  139.0460 C   0  0  0  0  0  0  0  0  0  0  0  0
  190.7810  177.4790  139.4840 O   0  0  0  0  0  0  0  0  0  0  0  0
  189.1940  176.4530  138.0900 C   0  0  0  0  0  1  0  0  0  0  0  0
  180.7230  178.9840  138.8290 C   0  0  0  0  0  2  0  0  0  0  0  0
  181.2050  178.5440  137.4560 C   0  0  0  0  0  2  0  0  0  0  0  0
  180.2810  177.4800  136.8830 C   0  0  0  0  0  2  0  0  0  0  0  0
  180.3560  177.4580  135.4240 N   0  0  0  0  0  0  0  0  0  0  0  0
  182.2320  175.8320  135.3850 C   0  0  0  0  0  2  0  0  0  0  0  0
  179.9360  175.0110  135.7220 C   0  0  2  0  0  3  0  0  0  0  0  0
  180.7610  176.1050  135.0190 C   0  0  1  0  0  3  0  0  0  0  0  0
  180.6730  172.9000  136.8340 C   0  0  0  0  0  3  0  0  0  0  0  0
  183.5610  172.3430  136.4930 C   0  0  0  0  0  1  0  0  0  0  0  0
  184.6000  174.4460  136.1890 O   0  0  0  0  0  0  0  0  0  0  0  0
  183.5160  173.8080  136.2080 C   0  0  0  0  0  0  0  0  0  0  0  0
  180.9530  174.0310  136.1820 C   0  0  0  0  0  0  0  0  0  0  0  0
  182.2780  174.4910  135.9360 N   0  0  0  0  0  0  0  0  0  0  0  0
  179.0840  174.4140  134.7900 O   0  0  0  0  0  1  0  0  0  0  0  0
  179.2790  172.4770  137.1630 C   0  0  0  0  0  2  0  0  0  0  0  0
  178.9310  171.2080  136.4030 C   0  0  0  0  0  2  0  0  0  0  0  0
  180.1040  170.5450  136.0380 O   0  0  0  0  0  1  0  0  0  0  0  0
  180.8570  179.6190  134.6910 O   0  0  0  0  0  1  0  0  0  0  0  0
  181.4200  178.3940  135.0660 C   0  0  0  0  0  2  0  0  0  0  0  0
  1 15  1  1  0  0  0
  2 12  1  1  0  0  0
  2 10  1  0  0  0  0
  4  5  1  0  0  0  0
  5  6  1  0  0  0  0
  6  1  1  0  0  0  0
  6  3  2  0  0  0  0
  7  1  1  0  0  0  0
  8  4  1  0  0  0  0
  9  7  2  0  0  0  0
 10  9  1  1  0  0  0
 10  5  1  0  0  0  0
 11  2  1  0  0  0  0
 11  8  1  0  0  0  0
 13 14  1  0  0  0  0
 13 12  1  0  0  0  0
 16 15  1  1  0  0  0
 16 17  1  0  0  0  0
 17 19  1  6  0  0  0
 18 16  1  0  0  0  0
 18 17  1  0  0  0  0
 19 27  1  1  0  0  0
 20 25  1  0  0  0  0
 21 22  2  0  0  0  0
 21 24  1  0  0  0  0
 22 23  1  0  0  0  0
 23 25  2  0  0  0  0
 24 20  2  0  0  0  0
 25 19  1  0  0  0  0
 27 26  1  6  0  0  0
 27 29  1  0  0  0  0
 29 28  1  0  0  0  0
 30  9  1  0  0  0  0
 31 32  2  0  0  0  0
 32 33  1  0  0  0  0
 32 30  1  0  0  0  0
 34 33  1  0  0  0  0
 35 34  1  0  0  0  0
 35 36  2  0  0  0  0
 37 35  1  0  0  0  0
 38 11  1  0  0  0  0
 39 38  1  0  0  0  0
 40 39  1  0  0  0  0
 41 40  1  0  0  0  0
 42 50  1  0  0  0  0
 43 51  1  6  0  0  0
 43 49  1  0  0  0  0
 44 42  1  0  0  0  0
 44 41  1  1  0  0  0
 44 43  1  0  0  0  0
 45 52  1  0  0  0  0
 47 48  2  0  0  0  0
 48 46  1  0  0  0  0
 49 45  2  0  0  0  0
 50 49  1  0  0  0  0
 50 48  1  0  0  0  0
 53 52  1  0  0  0  0
 54 53  1  0  0  0  0
 55 56  1  0  0  0  0
 56 41  1  0  0  0  0
M  END
>  <MODEL>
3

>  <REMARK>
 VINA RESULT:      -5.5      3.143     10.921
  Name = 
  21 active torsions:
  status: ('A' for Active; 'I' for Inactive)
    1  A    between atoms: C_1  and  C_14
    2  A    between atoms: C_1  and  C_35
    3  A    between atoms: C_3  and  O_43
    4  A    between atoms: C_4  and  C_36
    5  A    between atoms: C_5  and  O_43
    6  A    between atoms: O_7  and  C_25
    7  A    between atoms: O_7  and  C_47
    8  A    between atoms: C_11  and  C_30
    9  A    between atoms: C_11  and  C_34
   10  A    between atoms: C_11  and  C_55
   11  A    between atoms: C_12  and  N_42
   12  A    between atoms: C_14  and  N_51
   13  A    between atoms: C_17  and  C_36
   14  A    between atoms: C_18  and  C_21
   15  A    between atoms: C_21  and  O_22
   16  A    between atoms: O_22  and  C_25
   17  A    between atoms: C_23  and  C_53
   18  A    between atoms: C_27  and  N_42
   19  A    between atoms: C_34  and  C_44
   20  A    between atoms: C_35  and  N_42
   21  A    between atoms: C_37  and  C_53
                            x       y       z     vdW  Elec       q    Type
                         _______ _______ _______ _____ _____    ______ ____

>  <TORSDO>
F 21

$$$$
=
 OpenBabel10222420563D

 56 60  0  0  1  0  0  0  0  0999 V2000
  182.5790  177.2410  136.5230 C   0  0  1  0  0  3  0  0  0  0  0  0
  181.5790  178.1670  140.0950 C   0  0  2  0  0  3  0  0  0  0  0  0
  184.8940  177.1260  137.1570 O   0  0  0  0  0  0  0  0  0  0  0  0
  184.4610  178.3310  139.6950 C   0  0  0  0  0  2  0  0  0  0  0  0
  183.5200  178.3650  138.5870 N   0  0  0  0  0  0  0  0  0  0  0  0
  183.7480  177.5910  137.4010 C   0  0  0  0  0  0  0  0  0  0  0  0
  181.4970  178.2790  136.6100 C   0  0  0  0  0  3  0  0  0  0  0  0
  183.8500  177.5090  140.8360 C   0  0  0  0  0  2  0  0  0  0  0  0
  181.2920  179.0260  137.7020 C   0  0  0  0  0  0  0  0  0  0  0  0
  182.2010  178.9050  138.8960 C   0  0  1  0  0  3  0  0  0  0  0  0
  182.5030  177.9630  141.2330 N   0  0  0  0  0  0  0  0  0  0  0  0
  180.8030  177.0260  139.7820 O   0  0  0  0  0  0  0  0  0  0  0  0
  179.7300  176.9320  140.6770 C   0  0  0  0  0  2  0  0  0  0  0  0
  178.9350  178.2210  140.6500 C   0  0  0  0  0  1  0  0  0  0  0  0
  182.9930  177.0140  135.0720 C   0  0  0  0  0  2  0  0  0  0  0  0
  182.5560  175.6370  134.5940 C   0  0  1  0  0  3  0  0  0  0  0  0
  182.4930  174.7130  135.7480 C   0  0  1  0  0  3  0  0  0  0  0  0
  181.3330  175.2940  135.2020 O   0  0  0  0  0  0  0  0  0  0  0  0
  182.6010  173.2640  135.2760 C   0  0  2  0  0  3  0  0  0  0  0  0
  180.9970  172.4380  137.0550 C   0  0  0  0  0  3  0  0  0  0  0  0
  179.1000  171.0570  136.4600 C   0  0  0  0  0  3  0  0  0  0  0  0
  179.4830  171.1050  135.1150 C   0  0  0  0  0  3  0  0  0  0  0  0
  180.6250  171.8190  134.7390 C   0  0  0  0  0  3  0  0  0  0  0  0
  179.8560  171.7230  137.4300 C   0  0  0  0  0  3  0  0  0  0  0  0
  181.3870  172.4880  135.7060 C   0  0  0  0  0  0  0  0  0  0  0  0
  184.2100  173.0820  137.0560 O   0  0  0  0  0  1  0  0  0  0  0  0
  183.8990  172.6140  135.7780 C   0  0  2  0  0  3  0  0  0  0  0  0
  185.9190  173.8480  135.4350 O   0  0  0  0  0  1  0  0  0  0  0  0
  185.0580  172.9230  134.8410 C   0  0  0  0  0  2  0  0  0  0  0  0
  180.2580  179.9740  137.7880 O   0  0  0  0  0  0  0  0  0  0  0  0
  179.5280  180.4930  135.5620 C   0  0  0  0  0  2  0  0  0  0  0  0
  179.8050  180.8720  136.8040 C   0  0  0  0  0  0  0  0  0  0  0  0
  179.6150  182.2140  137.1420 O   0  0  0  0  0  0  0  0  0  0  0  0
  180.6770  183.0330  137.6160 C   0  0  0  0  0  2  0  0  0  0  0  0
  180.4630  184.4560  137.2080 C   0  0  0  0  0  0  0  0  0  0  0  0
  181.2700  185.0110  136.4780 O   0  0  0  0  0  0  0  0  0  0  0  0
  179.2830  185.2120  137.7150 C   0  0  0  0  0  1  0  0  0  0  0  0
  182.6190  179.2190  141.9620 C   0  0  0  0  0  2  0  0  0  0  0  0
  183.2360  178.9540  143.3260 C   0  0  0  0  0  2  0  0  0  0  0  0
  184.7160  179.3050  143.3180 C   0  0  0  0  0  2  0  0  0  0  0  0
  185.3200  179.0390  144.6210 N   0  0  0  0  0  0  0  0  0  0  0  0
  186.7840  177.7550  143.0800 C   0  0  0  0  0  2  0  0  0  0  0  0
  187.3370  177.8340  145.4780 C   0  0  2  0  0  3  0  0  0  0  0  0
  186.1590  177.8400  144.4850 C   0  0  1  0  0  3  0  0  0  0  0  0
  189.7510  177.3080  145.1110 C   0  0  0  0  0  3  0  0  0  0  0  0
  190.3300  176.3020  142.3880 C   0  0  0  0  0  1  0  0  0  0  0  0
  188.6520  177.2060  140.9870 O   0  0  0  0  0  0  0  0  0  0  0  0
  189.0190  176.9820  142.1690 C   0  0  0  0  0  0  0  0  0  0  0  0
  188.5070  177.4530  144.6460 C   0  0  0  0  0  0  0  0  0  0  0  0
  188.1670  177.3580  143.2670 N   0  0  0  0  0  0  0  0  0  0  0  0
  187.1060  176.8610  146.4520 O   0  0  0  0  0  1  0  0  0  0  0  0
  190.1060  177.4990  146.5490 C   0  0  0  0  0  2  0  0  0  0  0  0
  191.0490  176.3970  147.0000 C   0  0  0  0  0  2  0  0  0  0  0  0
  191.9290  176.8990  147.9610 O   0  0  0  0  0  1  0  0  0  0  0  0
  184.6220  178.9060  146.8460 O   0  0  0  0  0  1  0  0  0  0  0  0
  184.2080  178.7350  145.5200 C   0  0  0  0  0  2  0  0  0  0  0  0
  1 15  1  6  0  0  0
  1  7  1  0  0  0  0
  1  6  1  0  0  0  0
  2 12  1  6  0  0  0
  2 11  1  0  0  0  0
  3  6  2  0  0  0  0
  4  8  1  0  0  0  0
  5 10  1  0  0  0  0
  5  4  1  0  0  0  0
  6  5  1  0  0  0  0
  7  9  2  0  0  0  0
  8 11  1  0  0  0  0
  9 30  1  0  0  0  0
 10  9  1  6  0  0  0
 10  2  1  0  0  0  0
 11 38  1  0  0  0  0
 12 13  1  0  0  0  0
 14 13  1  0  0  0  0
 16 15  1  1  0  0  0
 16 18  1  0  0  0  0
 16 17  1  0  0  0  0
 17 19  1  6  0  0  0
 18 17  1  0  0  0  0
 19 25  1  0  0  0  0
 19 27  1  1  0  0  0
 20 24  1  0  0  0  0
 21 24  2  0  0  0  0
 22 21  1  0  0  0  0
 23 22  2  0  0  0  0
 23 25  1  0  0  0  0
 25 20  2  0  0  0  0
 27 26  1  1  0  0  0
 29 28  1  0  0  0  0
 29 27  1  0  0  0  0
 31 32  2  0  0  0  0
 32 33  1  0  0  0  0
 32 30  1  0  0  0  0
 33 34  1  0  0  0  0
 35 34  1  0  0  0  0
 35 37  1  0  0  0  0
 36 35  2  0  0  0  0
 38 39  1  0  0  0  0
 40 39  1  0  0  0  0
 40 41  1  0  0  0  0
 41 56  1  0  0  0  0
 42 50  1  0  0  0  0
 42 44  1  0  0  0  0
 43 51  1  1  0  0  0
 44 41  1  6  0  0  0
 44 43  1  0  0  0  0
 45 52  1  0  0  0  0
 47 48  2  0  0  0  0
 48 46  1  0  0  0  0
 48 50  1  0  0  0  0
 49 45  2  0  0  0  0
 49 43  1  0  0  0  0
 50 49  1  0  0  0  0
 52 53  1  0  0  0  0
 53 54  1  0  0  0  0
 56 55  1  0  0  0  0
M  END
>  <MODEL>
4

>  <REMARK>
 VINA RESULT:      -5.3      3.160      7.496
  Name = 
  21 active torsions:
  status: ('A' for Active; 'I' for Inactive)
    1  A    between atoms: C_1  and  C_14
    2  A    between atoms: C_1  and  C_35
    3  A    between atoms: C_3  and  O_43
    4  A    between atoms: C_4  and  C_36
    5  A    between atoms: C_5  and  O_43
    6  A    between atoms: O_7  and  C_25
    7  A    between atoms: O_7  and  C_47
    8  A    between atoms: C_11  and  C_30
    9  A    between atoms: C_11  and  C_34
   10  A    between atoms: C_11  and  C_55
   11  A    between atoms: C_12  and  N_42
   12  A    between atoms: C_14  and  N_51
   13  A    between atoms: C_17  and  C_36
   14  A    between atoms: C_18  and  C_21
   15  A    between atoms: C_21  and  O_22
   16  A    between atoms: O_22  and  C_25
   17  A    between atoms: C_23  and  C_53
   18  A    between atoms: C_27  and  N_42
   19  A    between atoms: C_34  and  C_44
   20  A    between atoms: C_35  and  N_42
   21  A    between atoms: C_37  and  C_53
                            x       y       z     vdW  Elec       q    Type
                         _______ _______ _______ _____ _____    ______ ____

>  <TORSDO>
F 21

$$$$
=
 OpenBabel10222420563D

 56 60  0  0  1  0  0  0  0  0999 V2000
  185.8650  178.2220  142.4900 C   0  0  1  0  0  3  0  0  0  0  0  0
  189.4280  176.9240  141.9970 C   0  0  2  0  0  3  0  0  0  0  0  0
  185.9190  179.3030  140.3460 O   0  0  0  0  0  0  0  0  0  0  0  0
  188.7170  178.9330  140.0100 C   0  0  0  0  0  2  0  0  0  0  0  0
  188.0070  178.8030  141.2720 N   0  0  0  0  0  0  0  0  0  0  0  0
  186.5730  178.8440  141.3200 C   0  0  0  0  0  0  0  0  0  0  0  0
  186.7130  178.2620  143.7300 C   0  0  0  0  0  3  0  0  0  0  0  0
  189.2630  177.5580  139.6080 C   0  0  0  0  0  2  0  0  0  0  0  0
  188.0510  178.2520  143.6970 C   0  0  0  0  0  0  0  0  0  0  0  0
  188.7860  178.2690  142.3830 C   0  0  1  0  0  3  0  0  0  0  0  0
  190.0680  176.9120  140.6630 N   0  0  0  0  0  0  0  0  0  0  0  0
  188.6530  175.7710  142.2660 O   0  0  0  0  0  0  0  0  0  0  0  0
  189.2180  175.0670  143.3360 C   0  0  0  0  0  2  0  0  0  0  0  0
  190.6870  175.4160  143.4520 C   0  0  0  0  0  1  0  0  0  0  0  0
  184.5020  178.8580  142.7470 C   0  0  0  0  0  2  0  0  0  0  0  0
  183.3810  177.9380  142.2860 C   0  0  1  0  0  3  0  0  0  0  0  0
  182.7010  178.5390  141.1160 C   0  0  1  0  0  3  0  0  0  0  0  0
  183.6400  177.5010  140.9740 O   0  0  0  0  0  0  0  0  0  0  0  0
  181.2920  177.9700  140.9690 C   0  0  2  0  0  3  0  0  0  0  0  0
  181.3850  177.7770  138.4440 C   0  0  0  0  0  3  0  0  0  0  0  0
  181.0120  175.6480  137.3540 C   0  0  0  0  0  3  0  0  0  0  0  0
  180.8150  175.0410  138.6010 C   0  0  0  0  0  3  0  0  0  0  0  0
  180.9020  175.8040  139.7690 C   0  0  0  0  0  3  0  0  0  0  0  0
  181.2960  177.0150  137.2760 C   0  0  0  0  0  3  0  0  0  0  0  0
  181.1860  177.1740  139.6980 C   0  0  0  0  0  0  0  0  0  0  0  0
  180.7770  180.2300  141.6140 O   0  0  0  0  0  1  0  0  0  0  0  0
  180.2350  179.0820  141.0330 C   0  0  2  0  0  3  0  0  0  0  0  0
  179.3690  177.5470  142.6500 O   0  0  0  0  0  1  0  0  0  0  0  0
  179.0280  178.6380  141.8470 C   0  0  0  0  0  2  0  0  0  0  0  0
  188.8380  178.2600  144.8610 O   0  0  0  0  0  0  0  0  0  0  0  0
  187.2410  177.5250  146.4950 C   0  0  0  0  0  2  0  0  0  0  0  0
  188.4800  177.8720  146.1660 C   0  0  0  0  0  0  0  0  0  0  0  0
  189.4640  177.8260  147.1560 O   0  0  0  0  0  0  0  0  0  0  0  0
  190.1480  176.6240  147.4880 C   0  0  0  0  0  2  0  0  0  0  0  0
  191.4900  176.5850  146.8280 C   0  0  0  0  0  0  0  0  0  0  0  0
  191.8070  177.4580  146.0350 O   0  0  0  0  0  0  0  0  0  0  0  0
  192.4310  175.4650  147.1100 C   0  0  0  0  0  1  0  0  0  0  0  0
  191.3540  177.5900  140.7640 C   0  0  0  0  0  2  0  0  0  0  0  0
  192.2590  177.1210  139.6360 C   0  0  0  0  0  2  0  0  0  0  0  0
  191.4770  176.2780  138.6410 C   0  0  0  0  0  2  0  0  0  0  0  0
  191.9990  176.4540  137.2880 N   0  0  0  0  0  0  0  0  0  0  0  0
  190.5180  174.6260  136.4930 C   0  0  0  0  0  2  0  0  0  0  0  0
  189.6460  176.9260  136.5870 C   0  0  2  0  0  3  0  0  0  0  0  0
  190.9250  176.1050  136.3470 C   0  0  1  0  0  3  0  0  0  0  0  0
  187.2600  176.1970  136.7040 C   0  0  0  0  0  3  0  0  0  0  0  0
  186.8730  173.3430  136.0150 C   0  0  0  0  0  1  0  0  0  0  0  0
  188.9110  172.2630  136.5370 O   0  0  0  0  0  0  0  0  0  0  0  0
  188.3260  173.3610  136.3530 C   0  0  0  0  0  0  0  0  0  0  0  0
  188.5570  175.9160  136.5540 C   0  0  0  0  0  0  0  0  0  0  0  0
  189.0690  174.5920  136.4480 N   0  0  0  0  0  0  0  0  0  0  0  0
  189.4860  177.8350  135.5390 O   0  0  0  0  0  1  0  0  0  0  0  0
  186.7480  177.5850  136.9050 C   0  0  0  0  0  2  0  0  0  0  0  0
  185.3360  177.5400  137.4640 C   0  0  0  0  0  2  0  0  0  0  0  0
  184.8000  176.2640  137.2760 O   0  0  0  0  0  1  0  0  0  0  0  0
  194.2770  176.1510  136.8700 O   0  0  0  0  0  1  0  0  0  0  0  0
  193.0810  175.4810  137.1490 C   0  0  0  0  0  2  0  0  0  0  0  0
  1 15  1  1  0  0  0
  1  7  1  0  0  0  0
  2 12  1  6  0  0  0
  2 10  1  0  0  0  0
  3  6  2  0  0  0  0
  4  5  1  0  0  0  0
  5  6  1  0  0  0  0
  5 10  1  0  0  0  0
  6  1  1  0  0  0  0
  8  4  1  0  0  0  0
  8 11  1  0  0  0  0
  9  7  2  0  0  0  0
  9 30  1  0  0  0  0
 10  9  1  1  0  0  0
 11 38  1  0  0  0  0
 11  2  1  0  0  0  0
 12 13  1  0  0  0  0
 13 14  1  0  0  0  0
 16 15  1  6  0  0  0
 17 19  1  1  0  0  0
 17 16  1  0  0  0  0
 18 17  1  0  0  0  0
 18 16  1  0  0  0  0
 19 27  1  6  0  0  0
 20 25  1  0  0  0  0
 21 22  2  0  0  0  0
 22 23  1  0  0  0  0
 24 21  1  0  0  0  0
 24 20  2  0  0  0  0
 25 23  2  0  0  0  0
 25 19  1  0  0  0  0
 27 26  1  1  0  0  0
 27 29  1  0  0  0  0
 29 28  1  0  0  0  0
 30 32  1  0  0  0  0
 32 31  2  0  0  0  0
 32 33  1  0  0  0  0
 33 34  1  0  0  0  0
 35 37  1  0  0  0  0
 35 34  1  0  0  0  0
 36 35  2  0  0  0  0
 39 38  1  0  0  0  0
 40 39  1  0  0  0  0
 41 40  1  0  0  0  0
 43 51  1  6  0  0  0
 44 42  1  0  0  0  0
 44 43  1  0  0  0  0
 44 41  1  1  0  0  0
 45 52  1  0  0  0  0
 46 48  1  0  0  0  0
 48 50  1  0  0  0  0
 48 47  2  0  0  0  0
 49 43  1  0  0  0  0
 49 45  2  0  0  0  0
 50 42  1  0  0  0  0
 50 49  1  0  0  0  0
 52 53  1  0  0  0  0
 54 53  1  0  0  0  0
 55 56  1  0  0  0  0
 56 41  1  0  0  0  0
M  END
>  <MODEL>
5

>  <REMARK>
 VINA RESULT:      -5.1      2.284      8.057
  Name = 
  21 active torsions:
  status: ('A' for Active; 'I' for Inactive)
    1  A    between atoms: C_1  and  C_14
    2  A    between atoms: C_1  and  C_35
    3  A    between atoms: C_3  and  O_43
    4  A    between atoms: C_4  and  C_36
    5  A    between atoms: C_5  and  O_43
    6  A    between atoms: O_7  and  C_25
    7  A    between atoms: O_7  and  C_47
    8  A    between atoms: C_11  and  C_30
    9  A    between atoms: C_11  and  C_34
   10  A    between atoms: C_11  and  C_55
   11  A    between atoms: C_12  and  N_42
   12  A    between atoms: C_14  and  N_51
   13  A    between atoms: C_17  and  C_36
   14  A    between atoms: C_18  and  C_21
   15  A    between atoms: C_21  and  O_22
   16  A    between atoms: O_22  and  C_25
   17  A    between atoms: C_23  and  C_53
   18  A    between atoms: C_27  and  N_42
   19  A    between atoms: C_34  and  C_44
   20  A    between atoms: C_35  and  N_42
   21  A    between atoms: C_37  and  C_53
                            x       y       z     vdW  Elec       q    Type
                         _______ _______ _______ _____ _____    ______ ____

>  <TORSDO>
F 21

$$$$
=
 OpenBabel10222420563D

 56 60  0  0  1  0  0  0  0  0999 V2000
  185.3720  177.3810  136.3390 C   0  0  1  0  0  3  0  0  0  0  0  0
  188.9320  176.5420  137.4520 C   0  0  2  0  0  3  0  0  0  0  0  0
  185.1190  178.9180  138.1680 O   0  0  0  0  0  0  0  0  0  0  0  0
  187.4840  178.0490  139.4820 C   0  0  0  0  0  2  0  0  0  0  0  0
  186.8040  177.3180  138.4250 N   0  0  0  0  0  0  0  0  0  0  0  0
  185.7130  177.9080  137.7040 C   0  0  0  0  0  0  0  0  0  0  0  0
  185.7330  175.9290  136.2040 C   0  0  0  0  0  3  0  0  0  0  0  0
  188.8550  178.5010  138.9670 C   0  0  0  0  0  2  0  0  0  0  0  0
  186.7320  175.3610  136.8920 C   0  0  0  0  0  0  0  0  0  0  0  0
  187.5130  176.1550  137.9050 C   0  0  1  0  0  3  0  0  0  0  0  0
  189.6660  177.4020  138.4070 N   0  0  0  0  0  0  0  0  0  0  0  0
  189.0580  176.9540  136.1040 O   0  0  0  0  0  0  0  0  0  0  0  0
  190.2760  176.4940  135.5870 C   0  0  0  0  0  2  0  0  0  0  0  0
  190.3480  174.9870  135.7300 C   0  0  0  0  0  1  0  0  0  0  0  0
  183.9060  177.6080  135.9800 C   0  0  0  0  0  2  0  0  0  0  0  0
  183.0010  176.7070  136.8070 C   0  0  1  0  0  3  0  0  0  0  0  0
  181.7010  177.3820  137.0240 C   0  0  1  0  0  3  0  0  0  0  0  0
  181.8580  176.3710  136.0570 O   0  0  0  0  0  0  0  0  0  0  0  0
  180.9990  176.8020  138.2500 C   0  0  2  0  0  3  0  0  0  0  0  0
  182.8440  177.0620  139.9670 C   0  0  0  0  0  3  0  0  0  0  0  0
  182.5900  178.5890  141.8290 C   0  0  0  0  0  3  0  0  0  0  0  0
  181.3140  178.9400  141.3710 C   0  0  0  0  0  3  0  0  0  0  0  0
  180.8030  178.3500  140.2110 C   0  0  0  0  0  3  0  0  0  0  0  0
  183.3540  177.6500  141.1280 C   0  0  0  0  0  3  0  0  0  0  0  0
  181.5630  177.4090  139.5040 C   0  0  0  0  0  0  0  0  0  0  0  0
  180.2390  174.7210  137.3090 O   0  0  0  0  0  1  0  0  0  0  0  0
  181.0930  175.2690  138.2680 C   0  0  2  0  0  3  0  0  0  0  0  0
  179.3350  174.7940  139.8190 O   0  0  0  0  0  1  0  0  0  0  0  0
  180.7170  174.7190  139.6370 C   0  0  0  0  0  2  0  0  0  0  0  0
  187.0850  174.0100  136.7380 O   0  0  0  0  0  0  0  0  0  0  0  0
  186.6050  171.8270  135.8640 C   0  0  0  0  0  2  0  0  0  0  0  0
  186.2420  172.8970  136.5620 C   0  0  0  0  0  0  0  0  0  0  0  0
  184.9800  172.8980  137.1600 O   0  0  0  0  0  0  0  0  0  0  0  0
  183.7800  172.8490  136.3960 C   0  0  0  0  0  2  0  0  0  0  0  0
  183.0710  171.5510  136.6180 C   0  0  0  0  0  0  0  0  0  0  0  0
  182.3460  171.4070  137.5910 O   0  0  0  0  0  0  0  0  0  0  0  0
  183.2690  170.4180  135.6700 C   0  0  0  0  0  1  0  0  0  0  0  0
  190.1540  176.5670  139.4970 C   0  0  0  0  0  2  0  0  0  0  0  0
  191.4680  177.1300  140.0120 C   0  0  0  0  0  2  0  0  0  0  0  0
  191.3480  177.5020  141.4820 C   0  0  0  0  0  2  0  0  0  0  0  0
  190.1150  176.9670  142.0540 N   0  0  0  0  0  0  0  0  0  0  0  0
  188.2150  177.6390  143.5060 C   0  0  0  0  0  2  0  0  0  0  0  0
  190.5020  177.6850  144.4180 C   0  0  2  0  0  3  0  0  0  0  0  0
  189.6880  177.8790  143.1250 C   0  0  1  0  0  3  0  0  0  0  0  0
  189.7400  177.5110  146.7900 C   0  0  0  0  0  3  0  0  0  0  0  0
  186.8430  178.0170  147.1300 C   0  0  0  0  0  1  0  0  0  0  0  0
  185.8320  177.4370  145.0720 O   0  0  0  0  0  0  0  0  0  0  0  0
  186.9070  177.6870  145.6760 C   0  0  0  0  0  0  0  0  0  0  0  0
  189.4730  177.6490  145.4890 C   0  0  0  0  0  0  0  0  0  0  0  0
  188.1540  177.6740  144.9550 N   0  0  0  0  0  0  0  0  0  0  0  0
  191.3400  178.7870  144.5980 O   0  0  0  0  0  1  0  0  0  0  0  0
  191.1290  177.3950  147.3250 C   0  0  0  0  0  2  0  0  0  0  0  0
  191.4330  175.9470  147.6690 C   0  0  0  0  0  2  0  0  0  0  0  0
  192.8080  175.7230  147.5780 O   0  0  0  0  0  1  0  0  0  0  0  0
  191.7140  175.7950  143.2880 O   0  0  0  0  0  1  0  0  0  0  0  0
  190.4760  175.6810  142.6470 C   0  0  0  0  0  2  0  0  0  0  0  0
  1 15  1  1  0  0  0
  1  6  1  0  0  0  0
  2 12  1  6  0  0  0
  2 10  1  0  0  0  0
  2 11  1  0  0  0  0
  5  4  1  0  0  0  0
  6  3  2  0  0  0  0
  6  5  1  0  0  0  0
  7  1  1  0  0  0  0
  7  9  2  0  0  0  0
  8  4  1  0  0  0  0
 10  9  1  6  0  0  0
 10  5  1  0  0  0  0
 11  8  1  0  0  0  0
 11 38  1  0  0  0  0
 13 14  1  0  0  0  0
 13 12  1  0  0  0  0
 16 15  1  6  0  0  0
 16 17  1  0  0  0  0
 17 19  1  1  0  0  0
 18 16  1  0  0  0  0
 18 17  1  0  0  0  0
 19 27  1  1  0  0  0
 19 25  1  0  0  0  0
 20 24  1  0  0  0  0
 22 21  1  0  0  0  0
 23 22  2  0  0  0  0
 24 21  2  0  0  0  0
 25 20  2  0  0  0  0
 25 23  1  0  0  0  0
 27 26  1  6  0  0  0
 27 29  1  0  0  0  0
 29 28  1  0  0  0  0
 30  9  1  0  0  0  0
 31 32  2  0  0  0  0
 32 30  1  0  0  0  0
 32 33  1  0  0  0  0
 34 35  1  0  0  0  0
 34 33  1  0  0  0  0
 35 36  2  0  0  0  0
 37 35  1  0  0  0  0
 38 39  1  0  0  0  0
 39 40  1  0  0  0  0
 40 41  1  0  0  0  0
 41 56  1  0  0  0  0
 42 50  1  0  0  0  0
 43 51  1  1  0  0  0
 43 49  1  0  0  0  0
 44 41  1  6  0  0  0
 44 42  1  0  0  0  0
 44 43  1  0  0  0  0
 45 52  1  0  0  0  0
 47 48  2  0  0  0  0
 48 46  1  0  0  0  0
 49 45  2  0  0  0  0
 50 49  1  0  0  0  0
 50 48  1  0  0  0  0
 52 53  1  0  0  0  0
 54 53  1  0  0  0  0
 56 55  1  0  0  0  0
M  END
>  <MODEL>
6

>  <REMARK>
 VINA RESULT:      -4.9      1.905      3.579
  Name = 
  21 active torsions:
  status: ('A' for Active; 'I' for Inactive)
    1  A    between atoms: C_1  and  C_14
    2  A    between atoms: C_1  and  C_35
    3  A    between atoms: C_3  and  O_43
    4  A    between atoms: C_4  and  C_36
    5  A    between atoms: C_5  and  O_43
    6  A    between atoms: O_7  and  C_25
    7  A    between atoms: O_7  and  C_47
    8  A    between atoms: C_11  and  C_30
    9  A    between atoms: C_11  and  C_34
   10  A    between atoms: C_11  and  C_55
   11  A    between atoms: C_12  and  N_42
   12  A    between atoms: C_14  and  N_51
   13  A    between atoms: C_17  and  C_36
   14  A    between atoms: C_18  and  C_21
   15  A    between atoms: C_21  and  O_22
   16  A    between atoms: O_22  and  C_25
   17  A    between atoms: C_23  and  C_53
   18  A    between atoms: C_27  and  N_42
   19  A    between atoms: C_34  and  C_44
   20  A    between atoms: C_35  and  N_42
   21  A    between atoms: C_37  and  C_53
                            x       y       z     vdW  Elec       q    Type
                         _______ _______ _______ _____ _____    ______ ____

>  <TORSDO>
F 21

$$$$
=
 OpenBabel10222420563D

 56 60  0  0  1  0  0  0  0  0999 V2000
  184.1080  179.1600  138.3540 C   0  0  1  0  0  3  0  0  0  0  0  0
  187.7290  177.9770  138.6860 C   0  0  2  0  0  3  0  0  0  0  0  0
  184.0470  179.7590  140.6790 O   0  0  0  0  0  0  0  0  0  0  0  0
  186.4940  178.4450  141.2840 C   0  0  0  0  0  2  0  0  0  0  0  0
  185.7100  178.2290  140.0790 N   0  0  0  0  0  0  0  0  0  0  0  0
  184.5750  179.0550  139.7780 C   0  0  0  0  0  0  0  0  0  0  0  0
  184.4220  177.9110  137.5790 C   0  0  0  0  0  3  0  0  0  0  0  0
  187.8270  179.0950  140.8950 C   0  0  0  0  0  2  0  0  0  0  0  0
  185.4610  177.1180  137.8670 C   0  0  0  0  0  0  0  0  0  0  0  0
  186.3440  177.4110  139.0510 C   0  0  1  0  0  3  0  0  0  0  0  0
  188.5610  178.3550  139.8510 N   0  0  0  0  0  0  0  0  0  0  0  0
  187.7500  178.9290  137.6400 O   0  0  0  0  0  0  0  0  0  0  0  0
  189.0640  179.0930  137.1840 C   0  0  0  0  0  2  0  0  0  0  0  0
  189.3040  178.1850  135.9960 C   0  0  0  0  0  1  0  0  0  0  0  0
  182.6230  179.4960  138.2560 C   0  0  0  0  0  2  0  0  0  0  0  0
  181.7710  178.3360  138.7490 C   0  0  1  0  0  3  0  0  0  0  0  0
  180.3680  178.7850  138.9000 C   0  0  1  0  0  3  0  0  0  0  0  0
  180.7880  178.0320  137.7880 O   0  0  0  0  0  0  0  0  0  0  0  0
  179.6210  177.8750  139.8720 C   0  0  2  0  0  3  0  0  0  0  0  0
  181.0740  179.0810  141.5620 C   0  0  0  0  0  3  0  0  0  0  0  0
  180.7320  178.7570  143.9370 C   0  0  0  0  0  3  0  0  0  0  0  0
  179.6870  177.8650  143.6680 C   0  0  0  0  0  3  0  0  0  0  0  0
  179.3370  177.5790  142.3450 C   0  0  0  0  0  3  0  0  0  0  0  0
  181.4250  179.3640  142.8850 C   0  0  0  0  0  3  0  0  0  0  0  0
  180.0270  178.1840  141.2860 C   0  0  0  0  0  0  0  0  0  0  0  0
  178.9320  175.9840  138.5530 O   0  0  0  0  0  1  0  0  0  0  0  0
  179.8430  176.3950  139.5280 C   0  0  2  0  0  3  0  0  0  0  0  0
  179.9700  174.1920  140.4490 O   0  0  0  0  0  1  0  0  0  0  0  0
  179.6750  175.5200  140.7620 C   0  0  0  0  0  2  0  0  0  0  0  0
  185.7680  175.9690  137.1200 O   0  0  0  0  0  0  0  0  0  0  0  0
  186.1890  176.2320  134.7720 C   0  0  0  0  0  2  0  0  0  0  0  0
  186.5870  175.8540  135.9810 C   0  0  0  0  0  0  0  0  0  0  0  0
  187.8790  175.3440  136.1220 O   0  0  0  0  0  0  0  0  0  0  0  0
  188.1240  173.9960  136.5080 C   0  0  0  0  0  2  0  0  0  0  0  0
  189.5940  173.7350  136.5940 C   0  0  0  0  0  0  0  0  0  0  0  0
  190.2030  173.9990  137.6190 O   0  0  0  0  0  0  0  0  0  0  0  0
  190.3270  173.1810  135.4210 C   0  0  0  0  0  1  0  0  0  0  0  0
  189.1190  177.1400  140.4300 C   0  0  0  0  0  2  0  0  0  0  0  0
  190.4340  177.4700  141.1190 C   0  0  0  0  0  2  0  0  0  0  0  0
  190.1820  177.9950  142.5240 C   0  0  0  0  0  2  0  0  0  0  0  0
  190.9550  177.2410  143.5060 N   0  0  0  0  0  0  0  0  0  0  0  0
  190.3770  177.1320  145.9190 C   0  0  0  0  0  2  0  0  0  0  0  0
  188.5680  177.1730  144.2490 C   0  0  2  0  0  3  0  0  0  0  0  0
  190.0100  176.6910  144.4890 C   0  0  1  0  0  3  0  0  0  0  0  0
  186.8710  178.0460  145.8610 C   0  0  0  0  0  3  0  0  0  0  0  0
  187.7360  177.8620  148.6860 C   0  0  0  0  0  1  0  0  0  0  0  0
  190.1000  177.9260  148.6510 O   0  0  0  0  0  0  0  0  0  0  0  0
  189.0470  177.7740  147.9790 C   0  0  0  0  0  0  0  0  0  0  0  0
  188.0930  177.5760  145.5980 C   0  0  0  0  0  0  0  0  0  0  0  0
  189.1320  177.5000  146.5680 N   0  0  0  0  0  0  0  0  0  0  0  0
  187.8040  176.1060  143.7730 O   0  0  0  0  0  1  0  0  0  0  0  0
  185.8200  178.2040  144.8120 C   0  0  0  0  0  2  0  0  0  0  0  0
  184.9630  179.4210  145.1170 C   0  0  0  0  0  2  0  0  0  0  0  0
  183.6640  179.0120  145.4250 O   0  0  0  0  0  1  0  0  0  0  0  0
  191.1960  179.4740  144.1460 O   0  0  0  0  0  1  0  0  0  0  0  0
  191.8120  178.2180  144.1740 C   0  0  0  0  0  2  0  0  0  0  0  0
  1 15  1  1  0  0  0
  1  6  1  0  0  0  0
  2 12  1  6  0  0  0
  2 10  1  0  0  0  0
  2 11  1  0  0  0  0
  5  4  1  0  0  0  0
  6  5  1  0  0  0  0
  6  3  2  0  0  0  0
  7  9  2  0  0  0  0
  7  1  1  0  0  0  0
  8  4  1  0  0  0  0
 10  9  1  6  0  0  0
 10  5  1  0  0  0  0
 11 38  1  0  0  0  0
 11  8  1  0  0  0  0
 13 12  1  0  0  0  0
 14 13  1  0  0  0  0
 16 15  1  6  0  0  0
 16 17  1  0  0  0  0
 17 19  1  1  0  0  0
 18 16  1  0  0  0  0
 18 17  1  0  0  0  0
 19 27  1  6  0  0  0
 19 25  1  0  0  0  0
 20 24  1  0  0  0  0
 22 21  1  0  0  0  0
 23 22  2  0  0  0  0
 24 21  2  0  0  0  0
 25 20  2  0  0  0  0
 25 23  1  0  0  0  0
 27 26  1  6  0  0  0
 27 29  1  0  0  0  0
 28 29  1  0  0  0  0
 30  9  1  0  0  0  0
 31 32  2  0  0  0  0
 32 33  1  0  0  0  0
 32 30  1  0  0  0  0
 33 34  1  0  0  0  0
 34 35  1  0  0  0  0
 35 36  2  0  0  0  0
 37 35  1  0  0  0  0
 38 39  1  0  0  0  0
 39 40  1  0  0  0  0
 40 41  1  0  0  0  0
 41 56  1  0  0  0  0
 42 50  1  0  0  0  0
 43 51  1  1  0  0  0
 43 44  1  0  0  0  0
 43 49  1  0  0  0  0
 44 41  1  6  0  0  0
 44 42  1  0  0  0  0
 48 47  2  0  0  0  0
 48 46  1  0  0  0  0
 49 45  2  0  0  0  0
 49 50  1  0  0  0  0
 50 48  1  0  0  0  0
 52 53  1  0  0  0  0
 52 45  1  0  0  0  0
 53 54  1  0  0  0  0
 55 56  1  0  0  0  0
M  END
>  <MODEL>
7

>  <REMARK>
 VINA RESULT:      -4.9      2.400      4.051
  Name = 
  21 active torsions:
  status: ('A' for Active; 'I' for Inactive)
    1  A    between atoms: C_1  and  C_14
    2  A    between atoms: C_1  and  C_35
    3  A    between atoms: C_3  and  O_43
    4  A    between atoms: C_4  and  C_36
    5  A    between atoms: C_5  and  O_43
    6  A    between atoms: O_7  and  C_25
    7  A    between atoms: O_7  and  C_47
    8  A    between atoms: C_11  and  C_30
    9  A    between atoms: C_11  and  C_34
   10  A    between atoms: C_11  and  C_55
   11  A    between atoms: C_12  and  N_42
   12  A    between atoms: C_14  and  N_51
   13  A    between atoms: C_17  and  C_36
   14  A    between atoms: C_18  and  C_21
   15  A    between atoms: C_21  and  O_22
   16  A    between atoms: O_22  and  C_25
   17  A    between atoms: C_23  and  C_53
   18  A    between atoms: C_27  and  N_42
   19  A    between atoms: C_34  and  C_44
   20  A    between atoms: C_35  and  N_42
   21  A    between atoms: C_37  and  C_53
                            x       y       z     vdW  Elec       q    Type
                         _______ _______ _______ _____ _____    ______ ____

>  <TORSDO>
F 21

$$$$
=
 OpenBabel10222420563D

 56 60  0  0  1  0  0  0  0  0999 V2000
  183.9600  178.8640  137.3980 C   0  0  1  0  0  3  0  0  0  0  0  0
  187.4680  177.3450  137.3410 C   0  0  2  0  0  3  0  0  0  0  0  0
  184.3300  179.7380  139.6040 O   0  0  0  0  0  0  0  0  0  0  0  0
  186.7170  178.2480  140.0070 C   0  0  0  0  0  2  0  0  0  0  0  0
  185.7320  177.9770  138.9730 N   0  0  0  0  0  0  0  0  0  0  0  0
  184.6410  178.8790  138.7370 C   0  0  0  0  0  0  0  0  0  0  0  0
  184.0330  177.5070  136.7590 C   0  0  0  0  0  3  0  0  0  0  0  0
  188.0210  178.7000  139.3400 C   0  0  0  0  0  2  0  0  0  0  0  0
  185.0320  176.6460  136.9920 C   0  0  0  0  0  0  0  0  0  0  0  0
  186.1170  176.9800  137.9810 C   0  0  1  0  0  3  0  0  0  0  0  0
  188.5080  177.7660  138.3060 N   0  0  0  0  0  0  0  0  0  0  0  0
  187.4040  178.1580  136.1850 O   0  0  0  0  0  0  0  0  0  0  0  0
  187.6430  177.3760  135.0490 C   0  0  0  0  0  2  0  0  0  0  0  0
  188.6900  176.3290  135.3670 C   0  0  0  0  0  1  0  0  0  0  0  0
  182.5140  179.3460  137.4780 C   0  0  0  0  0  2  0  0  0  0  0  0
  181.6130  178.2600  138.0470 C   0  0  1  0  0  3  0  0  0  0  0  0
  180.6680  178.8620  139.0150 C   0  0  1  0  0  3  0  0  0  0  0  0
  180.2750  178.5310  137.7040 O   0  0  0  0  0  0  0  0  0  0  0  0
  180.1480  177.8010  139.9810 C   0  0  2  0  0  3  0  0  0  0  0  0
  179.7620  177.8410  142.4850 C   0  0  0  0  0  3  0  0  0  0  0  0
  181.4630  178.6950  143.9820 C   0  0  0  0  0  3  0  0  0  0  0  0
  182.2910  178.9710  142.8880 C   0  0  0  0  0  3  0  0  0  0  0  0
  181.8540  178.6830  141.5910 C   0  0  0  0  0  3  0  0  0  0  0  0
  180.1990  178.1310  143.7810 C   0  0  0  0  0  3  0  0  0  0  0  0
  180.5880  178.1180  141.3830 C   0  0  0  0  0  0  0  0  0  0  0  0
  179.5620  175.4760  139.7700 O   0  0  0  0  0  1  0  0  0  0  0  0
  180.5910  176.3940  139.5500 C   0  0  2  0  0  3  0  0  0  0  0  0
  182.8620  175.6530  139.4430 O   0  0  0  0  0  1  0  0  0  0  0  0
  181.8230  175.9530  140.3260 C   0  0  0  0  0  2  0  0  0  0  0  0
  185.1100  175.3890  136.3680 O   0  0  0  0  0  0  0  0  0  0  0  0
  185.4860  173.4080  137.6690 C   0  0  0  0  0  2  0  0  0  0  0  0
  184.7150  174.1340  136.8670 C   0  0  0  0  0  0  0  0  0  0  0  0
  183.4550  173.6340  136.5310 O   0  0  0  0  0  0  0  0  0  0  0  0
  182.4530  174.4470  135.9320 C   0  0  0  0  0  2  0  0  0  0  0  0
  181.1410  174.2590  136.6260 C   0  0  0  0  0  0  0  0  0  0  0  0
  181.0130  173.3790  137.4630 O   0  0  0  0  0  0  0  0  0  0  0  0
  179.9790  175.1230  136.2780 C   0  0  0  0  0  1  0  0  0  0  0  0
  189.0440  176.5750  138.9530 C   0  0  0  0  0  2  0  0  0  0  0  0
  190.2960  176.9460  139.7310 C   0  0  0  0  0  2  0  0  0  0  0  0
  189.9750  177.1150  141.2080 C   0  0  0  0  0  2  0  0  0  0  0  0
  190.9720  176.4430  142.0370 N   0  0  0  0  0  0  0  0  0  0  0  0
  191.0940  176.3720  144.5160 C   0  0  0  0  0  2  0  0  0  0  0  0
  188.8980  176.5980  143.4250 C   0  0  2  0  0  3  0  0  0  0  0  0
  190.2980  175.9790  143.2580 C   0  0  1  0  0  3  0  0  0  0  0  0
  187.8170  177.6170  145.4330 C   0  0  0  0  0  3  0  0  0  0  0  0
  189.4260  177.3310  147.9020 C   0  0  0  0  0  1  0  0  0  0  0  0
  191.6780  177.1700  147.1980 O   0  0  0  0  0  0  0  0  0  0  0  0
  190.4690  177.1240  146.8550 C   0  0  0  0  0  0  0  0  0  0  0  0
  188.8650  177.0340  144.8450 C   0  0  0  0  0  0  0  0  0  0  0  0
  190.1240  176.8530  145.4830 N   0  0  0  0  0  0  0  0  0  0  0  0
  187.9350  175.6110  143.2060 O   0  0  0  0  0  1  0  0  0  0  0  0
  186.5310  177.8820  144.7210 C   0  0  0  0  0  2  0  0  0  0  0  0
  185.5820  178.6400  145.6320 C   0  0  0  0  0  2  0  0  0  0  0  0
  185.0260  179.7170  144.9370 O   0  0  0  0  0  1  0  0  0  0  0  0
  191.3030  178.7090  142.4950 O   0  0  0  0  0  1  0  0  0  0  0  0
  191.9460  177.4710  142.4000 C   0  0  0  0  0  2  0  0  0  0  0  0
  1 15  1  1  0  0  0
  1  6  1  0  0  0  0
  2 12  1  6  0  0  0
  2 10  1  0  0  0  0
  2 11  1  0  0  0  0
  5  4  1  0  0  0  0
  6  5  1  0  0  0  0
  6  3  2  0  0  0  0
  7  9  2  0  0  0  0
  7  1  1  0  0  0  0
  8  4  1  0  0  0  0
 10  9  1  6  0  0  0
 10  5  1  0  0  0  0
 11 38  1  0  0  0  0
 11  8  1  0  0  0  0
 13 14  1  0  0  0  0
 13 12  1  0  0  0  0
 16 15  1  6  0  0  0
 16 17  1  0  0  0  0
 17 19  1  1  0  0  0
 18 16  1  0  0  0  0
 18 17  1  0  0  0  0
 19 27  1  6  0  0  0
 19 25  1  0  0  0  0
 20 24  1  0  0  0  0
 22 21  1  0  0  0  0
 23 22  2  0  0  0  0
 24 21  2  0  0  0  0
 25 23  1  0  0  0  0
 25 20  2  0  0  0  0
 27 26  1  1  0  0  0
 27 29  1  0  0  0  0
 28 29  1  0  0  0  0
 30 32  1  0  0  0  0
 30  9  1  0  0  0  0
 32 31  2  0  0  0  0
 33 32  1  0  0  0  0
 34 33  1  0  0  0  0
 34 35  1  0  0  0  0
 35 36  2  0  0  0  0
 37 35  1  0  0  0  0
 38 39  1  0  0  0  0
 39 40  1  0  0  0  0
 40 41  1  0  0  0  0
 41 56  1  0  0  0  0
 42 50  1  0  0  0  0
 43 51  1  1  0  0  0
 43 49  1  0  0  0  0
 44 41  1  6  0  0  0
 44 43  1  0  0  0  0
 44 42  1  0  0  0  0
 48 47  2  0  0  0  0
 48 46  1  0  0  0  0
 49 45  2  0  0  0  0
 49 50  1  0  0  0  0
 50 48  1  0  0  0  0
 52 45  1  0  0  0  0
 52 53  1  0  0  0  0
 54 53  1  0  0  0  0
 56 55  1  0  0  0  0
M  END
>  <MODEL>
8

>  <REMARK>
 VINA RESULT:      -4.8      2.118      4.031
  Name = 
  21 active torsions:
  status: ('A' for Active; 'I' for Inactive)
    1  A    between atoms: C_1  and  C_14
    2  A    between atoms: C_1  and  C_35
    3  A    between atoms: C_3  and  O_43
    4  A    between atoms: C_4  and  C_36
    5  A    between atoms: C_5  and  O_43
    6  A    between atoms: O_7  and  C_25
    7  A    between atoms: O_7  and  C_47
    8  A    between atoms: C_11  and  C_30
    9  A    between atoms: C_11  and  C_34
   10  A    between atoms: C_11  and  C_55
   11  A    between atoms: C_12  and  N_42
   12  A    between atoms: C_14  and  N_51
   13  A    between atoms: C_17  and  C_36
   14  A    between atoms: C_18  and  C_21
   15  A    between atoms: C_21  and  O_22
   16  A    between atoms: O_22  and  C_25
   17  A    between atoms: C_23  and  C_53
   18  A    between atoms: C_27  and  N_42
   19  A    between atoms: C_34  and  C_44
   20  A    between atoms: C_35  and  N_42
   21  A    between atoms: C_37  and  C_53
                            x       y       z     vdW  Elec       q    Type
                         _______ _______ _______ _____ _____    ______ ____

>  <TORSDO>
F 21

$$$$
=
 OpenBabel10222420563D

 56 60  0  0  1  0  0  0  0  0999 V2000
  188.1060  178.7760  140.2440 C   0  0  1  0  0  3  0  0  0  0  0  0
  184.6800  178.7780  141.9420 C   0  0  2  0  0  3  0  0  0  0  0  0
  187.0800  178.5840  138.0810 O   0  0  0  0  0  0  0  0  0  0  0  0
  184.5050  178.0070  139.1370 C   0  0  0  0  0  2  0  0  0  0  0  0
  185.7470  177.9300  139.8880 N   0  0  0  0  0  0  0  0  0  0  0  0
  186.9810  178.3970  139.3230 C   0  0  0  0  0  0  0  0  0  0  0  0
  188.0540  177.9950  141.5270 C   0  0  0  0  0  3  0  0  0  0  0  0
  183.6470  179.1370  139.7190 C   0  0  0  0  0  2  0  0  0  0  0  0
  186.9120  177.5310  142.0490 C   0  0  0  0  0  0  0  0  0  0  0  0
  185.6060  177.7150  141.3230 C   0  0  1  0  0  3  0  0  0  0  0  0
  183.4390  179.0290  141.1760 N   0  0  0  0  0  0  0  0  0  0  0  0
  185.3140  179.9580  142.3970 O   0  0  0  0  0  0  0  0  0  0  0  0
  185.0990  180.1030  143.7730 C   0  0  0  0  0  2  0  0  0  0  0  0
  184.0780  179.0840  144.2350 C   0  0  0  0  0  1  0  0  0  0  0  0
  189.4720  178.6310  139.5800 C   0  0  0  0  0  2  0  0  0  0  0  0
  189.8010  177.1660  139.3340 C   0  0  1  0  0  3  0  0  0  0  0  0
  190.7560  177.0590  138.2070 C   0  0  1  0  0  3  0  0  0  0  0  0
  191.1760  176.9500  139.5460 O   0  0  0  0  0  0  0  0  0  0  0  0
  190.6890  175.6660  137.5850 C   0  0  2  0  0  3  0  0  0  0  0  0
  192.3600  173.8560  136.9900 C   0  0  0  0  0  3  0  0  0  0  0  0
  194.6320  174.4270  136.3780 C   0  0  0  0  0  3  0  0  0  0  0  0
  194.3430  175.7840  136.5590 C   0  0  0  0  0  3  0  0  0  0  0  0
  193.0620  176.1780  136.9570 C   0  0  0  0  0  3  0  0  0  0  0  0
  193.6420  173.4630  136.5940 C   0  0  0  0  0  3  0  0  0  0  0  0
  192.0650  175.2170  137.1740 C   0  0  0  0  0  0  0  0  0  0  0  0
  189.5310  176.9160  135.8860 O   0  0  0  0  0  1  0  0  0  0  0  0
  189.7050  175.6320  136.4060 C   0  0  2  0  0  3  0  0  0  0  0  0
  188.2150  173.7630  136.4260 O   0  0  0  0  0  1  0  0  0  0  0  0
  188.3530  175.0880  136.8430 C   0  0  0  0  0  2  0  0  0  0  0  0
  186.8660  176.8270  143.2650 O   0  0  0  0  0  0  0  0  0  0  0  0
  186.7980  177.4640  145.5770 C   0  0  0  0  0  2  0  0  0  0  0  0
  187.4860  177.1440  144.4870 C   0  0  0  0  0  0  0  0  0  0  0  0
  188.8790  177.1020  144.5740 O   0  0  0  0  0  0  0  0  0  0  0  0
  189.5760  177.4730  145.7580 C   0  0  0  0  0  2  0  0  0  0  0  0
  190.9380  176.8560  145.7790 C   0  0  0  0  0  0  0  0  0  0  0  0
  191.5390  176.7360  146.8360 O   0  0  0  0  0  0  0  0  0  0  0  0
  191.5810  176.4150  144.5090 C   0  0  0  0  0  1  0  0  0  0  0  0
  182.5060  177.9430  141.4450 C   0  0  0  0  0  2  0  0  0  0  0  0
  181.0830  178.4730  141.3760 C   0  0  0  0  0  2  0  0  0  0  0  0
  180.4110  178.0310  140.0840 C   0  0  0  0  0  2  0  0  0  0  0  0
  180.2850  176.5770  140.0370 N   0  0  0  0  0  0  0  0  0  0  0  0
  181.1780  177.0760  137.7740 C   0  0  0  0  0  2  0  0  0  0  0  0
  180.7500  174.7360  138.4090 C   0  0  2  0  0  3  0  0  0  0  0  0
  180.2570  176.1790  138.6220 C   0  0  1  0  0  3  0  0  0  0  0  0
  182.3440  173.8090  136.7250 C   0  0  0  0  0  3  0  0  0  0  0  0
  183.1840  175.7920  134.6930 C   0  0  0  0  0  1  0  0  0  0  0  0
  182.9930  177.9100  135.7290 O   0  0  0  0  0  0  0  0  0  0  0  0
  182.6990  176.6880  135.7830 C   0  0  0  0  0  0  0  0  0  0  0  0
  181.6890  174.8410  137.2640 C   0  0  0  0  0  0  0  0  0  0  0  0
  181.8910  176.1940  136.8690 N   0  0  0  0  0  0  0  0  0  0  0  0
  179.6630  173.9300  138.0640 O   0  0  0  0  0  1  0  0  0  0  0  0
  182.1880  172.4070  137.2120 C   0  0  0  0  0  2  0  0  0  0  0  0
  183.4370  171.6040  136.8890 C   0  0  0  0  0  2  0  0  0  0  0  0
  183.0740  170.3190  136.4790 O   0  0  0  0  0  1  0  0  0  0  0  0
  179.1420  175.2520  141.5840 O   0  0  0  0  0  1  0  0  0  0  0  0
  178.9880  176.2710  140.6370 C   0  0  0  0  0  2  0  0  0  0  0  0
  1 15  1  6  0  0  0
  1  7  1  0  0  0  0
  2 12  1  6  0  0  0
  3  6  2  0  0  0  0
  4  8  1  0  0  0  0
  4  5  1  0  0  0  0
  5 10  1  0  0  0  0
  6  5  1  0  0  0  0
  6  1  1  0  0  0  0
  7  9  2  0  0  0  0
  8 11  1  0  0  0  0
  9 30  1  0  0  0  0
 10  2  1  0  0  0  0
 10  9  1  1  0  0  0
 11 38  1  0  0  0  0
 11  2  1  0  0  0  0
 12 13  1  0  0  0  0
 13 14  1  0  0  0  0
 16 18  1  0  0  0  0
 16 15  1  1  0  0  0
 17 19  1  6  0  0  0
 17 16  1  0  0  0  0
 17 18  1  0  0  0  0
 19 27  1  6  0  0  0
 20 25  1  0  0  0  0
 21 22  2  0  0  0  0
 21 24  1  0  0  0  0
 22 23  1  0  0  0  0
 23 25  2  0  0  0  0
 24 20  2  0  0  0  0
 25 19  1  0  0  0  0
 27 26  1  1  0  0  0
 27 29  1  0  0  0  0
 28 29  1  0  0  0  0
 30 32  1  0  0  0  0
 32 33  1  0  0  0  0
 32 31  2  0  0  0  0
 33 34  1  0  0  0  0
 34 35  1  0  0  0  0
 35 36  2  0  0  0  0
 37 35  1  0  0  0  0
 39 38  1  0  0  0  0
 40 39  1  0  0  0  0
 41 40  1  0  0  0  0
 41 56  1  0  0  0  0
 42 44  1  0  0  0  0
 43 51  1  6  0  0  0
 43 44  1  0  0  0  0
 44 41  1  1  0  0  0
 45 52  1  0  0  0  0
 45 49  2  0  0  0  0
 46 48  1  0  0  0  0
 47 48  2  0  0  0  0
 48 50  1  0  0  0  0
 49 43  1  0  0  0  0
 50 49  1  0  0  0  0
 50 42  1  0  0  0  0
 53 52  1  0  0  0  0
 54 53  1  0  0  0  0
 56 55  1  0  0  0  0
M  END
>  <MODEL>
9

>  <REMARK>
 VINA RESULT:      -4.7      2.597     10.321
  Name = 
  21 active torsions:
  status: ('A' for Active; 'I' for Inactive)
    1  A    between atoms: C_1  and  C_14
    2  A    between atoms: C_1  and  C_35
    3  A    between atoms: C_3  and  O_43
    4  A    between atoms: C_4  and  C_36
    5  A    between atoms: C_5  and  O_43
    6  A    between atoms: O_7  and  C_25
    7  A    between atoms: O_7  and  C_47
    8  A    between atoms: C_11  and  C_30
    9  A    between atoms: C_11  and  C_34
   10  A    between atoms: C_11  and  C_55
   11  A    between atoms: C_12  and  N_42
   12  A    between atoms: C_14  and  N_51
   13  A    between atoms: C_17  and  C_36
   14  A    between atoms: C_18  and  C_21
   15  A    between atoms: C_21  and  O_22
   16  A    between atoms: O_22  and  C_25
   17  A    between atoms: C_23  and  C_53
   18  A    between atoms: C_27  and  N_42
   19  A    between atoms: C_34  and  C_44
   20  A    between atoms: C_35  and  N_42
   21  A    between atoms: C_37  and  C_53
                            x       y       z     vdW  Elec       q    Type
                         _______ _______ _______ _____ _____    ______ ____

>  <TORSDO>
F 21

$$$$
