=
 OpenBabel10222419453D

 33 36  0  0  1  0  0  0  0  0999 V2000
  187.7760  177.7340  142.7900 C   0  0  1  0  0  3  0  0  0  0  0  0
  189.4350  177.1090  144.5960 C   0  0  0  0  0  0  0  0  0  0  0  0
  189.3040  177.8140  147.1360 C   0  0  0  0  0  1  0  0  0  0  0  0
  191.0860  176.4690  145.9770 C   0  0  0  0  0  0  0  0  0  0  0  0
  188.2130  177.7210  144.1800 N   0  0  0  0  0  2  0  0  0  0  0  0
  191.2920  176.0190  144.6100 C   0  0  0  0  0  0  0  0  0  0  0  0
  192.1360  175.1060  144.2530 N   0  0  0  0  0  2  0  0  0  0  0  0
  189.9510  177.1510  145.9650 C   0  0  0  0  0  0  0  0  0  0  0  0
  190.1980  176.4290  143.7970 N   0  0  0  0  0  0  0  0  0  0  0  0
  192.6170  176.0110  148.0250 N   0  0  0  0  0  0  0  0  0  0  0  0
  191.9340  176.2170  147.1150 C   0  0  0  0  0  0  0  0  0  0  0  0
  186.3890  178.2780  142.6910 C   0  0  0  0  0  0  0  0  0  0  0  0
  183.3200  178.6690  142.7740 C   0  0  0  0  0  3  0  0  0  0  0  0
  182.4860  177.8860  140.5050 C   0  0  0  0  0  1  0  0  0  0  0  0
  183.6110  178.3520  141.3590 C   0  0  0  0  0  0  0  0  0  0  0  0
  184.8080  178.5070  140.7900 C   0  0  0  0  0  3  0  0  0  0  0  0
  185.9900  179.0890  141.4950 C   0  0  0  0  0  2  0  0  0  0  0  0
  185.5770  178.1270  143.7390 C   0  0  0  0  0  3  0  0  0  0  0  0
  184.1690  178.5700  143.8040 C   0  0  0  0  0  3  0  0  0  0  0  0
  188.6830  178.5470  141.9840 N   0  0  0  0  0  2  0  0  0  0  0  0
  188.8770  176.7790  137.8900 C   0  0  0  0  0  2  0  0  0  0  0  0
  189.5680  177.2120  140.0960 C   0  0  0  0  0  0  0  0  0  0  0  0
  189.6540  177.6940  141.4380 N   0  0  0  0  0  2  0  0  0  0  0  0
  190.3830  176.3320  139.6370 N   0  0  0  0  0  0  0  0  0  0  0  0
  188.6830  178.9790  138.7970 O   0  0  0  0  0  1  0  0  0  0  0  0
  188.5230  177.6290  139.1100 C   0  0  1  0  0  3  0  0  0  0  0  0
  190.0410  176.0230  138.3240 N   0  0  0  0  0  0  0  0  0  0  0  0
  192.1010  174.8880  137.6040 C   0  0  0  0  0  3  0  0  0  0  0  0
  192.0070  173.0330  136.0470 C   0  0  0  0  0  3  0  0  0  0  0  0
  190.7060  175.0160  137.5490 C   0  0  0  0  0  0  0  0  0  0  0  0
  192.7500  173.9000  136.8560 C   0  0  0  0  0  3  0  0  0  0  0  0
  189.9680  174.1440  136.7330 C   0  0  0  0  0  3  0  0  0  0  0  0
  190.6160  173.1550  135.9850 C   0  0  0  0  0  3  0  0  0  0  0  0
  1 20  1  6  0  0  0
  1  5  1  0  0  0  0
  2  8  1  0  0  0  0
  4 11  1  0  0  0  0
  5  2  1  0  0  0  0
  6  4  1  0  0  0  0
  7  6  2  0  0  0  0
  8  4  2  0  0  0  0
  8  3  1  0  0  0  0
  9  2  2  0  0  0  0
  9  6  1  0  0  0  0
 11 10  3  0  0  0  0
 12  1  1  0  0  0  0
 12 18  2  0  0  0  0
 13 19  2  0  0  0  0
 14 15  1  0  0  0  0
 15 13  1  0  0  0  0
 16 15  2  0  0  0  0
 16 17  1  0  0  0  0
 17 12  1  0  0  0  0
 18 19  1  0  0  0  0
 21 27  1  0  0  0  0
 21 26  1  0  0  0  0
 22 23  1  0  0  0  0
 23 20  1  0  0  0  0
 24 22  2  0  0  0  0
 26 25  1  6  0  0  0
 26 22  1  0  0  0  0
 27 24  1  0  0  0  0
 29 31  1  0  0  0  0
 30 28  1  0  0  0  0
 30 27  1  0  0  0  0
 31 28  2  0  0  0  0
 32 30  2  0  0  0  0
 33 29  2  0  0  0  0
 33 32  1  0  0  0  0
M  END
>  <MODEL>
1

>  <REMARK>
 VINA RESULT:      -9.6      0.000      0.000
  Name = 
  6 active torsions:
  status: ('A' for Active; 'I' for Inactive)
    1  A    between atoms: C_3  and  C_33
    2  A    between atoms: C_8  and  C_27
    3  A    between atoms: N_11  and  C_33
    4  A    between atoms: C_12  and  N_31
    5  A    between atoms: N_13  and  N_32
    6  A    between atoms: N_32  and  C_33
                            x       y       z     vdW  Elec       q    Type
                         _______ _______ _______ _____ _____    ______ ____

>  <TORSDO>
F 6

$$$$
=
 OpenBabel10222419453D

 33 36  0  0  1  0  0  0  0  0999 V2000
  184.9870  178.1890  141.6250 C   0  0  1  0  0  3  0  0  0  0  0  0
  185.9890  178.0310  143.9440 C   0  0  0  0  0  0  0  0  0  0  0  0
  184.8360  178.8030  146.1890 C   0  0  0  0  0  1  0  0  0  0  0  0
  187.1370  177.8380  145.8650 C   0  0  0  0  0  0  0  0  0  0  0  0
  184.8990  178.3360  143.0720 N   0  0  0  0  0  2  0  0  0  0  0  0
  187.8950  177.3840  144.7100 C   0  0  0  0  0  0  0  0  0  0  0  0
  188.9700  176.6670  144.7680 N   0  0  0  0  0  2  0  0  0  0  0  0
  185.9700  178.2490  145.3920 C   0  0  0  0  0  0  0  0  0  0  0  0
  187.1010  177.5030  143.5340 N   0  0  0  0  0  0  0  0  0  0  0  0
  187.9020  177.8320  148.3470 N   0  0  0  0  0  0  0  0  0  0  0  0
  187.5600  177.8330  147.2420 C   0  0  0  0  0  0  0  0  0  0  0  0
  183.6190  178.1060  141.0310 C   0  0  0  0  0  0  0  0  0  0  0  0
  180.5950  177.6650  140.5460 C   0  0  0  0  0  3  0  0  0  0  0  0
  180.3900  175.2620  139.7480 C   0  0  0  0  0  1  0  0  0  0  0  0
  181.2380  176.4630  139.9710 C   0  0  0  0  0  0  0  0  0  0  0  0
  182.5160  176.4090  139.5930 C   0  0  0  0  0  3  0  0  0  0  0  0
  183.4430  177.5800  139.6390 C   0  0  0  0  0  2  0  0  0  0  0  0
  182.6010  178.6220  141.7210 C   0  0  0  0  0  3  0  0  0  0  0  0
  181.1840  178.5980  141.3050 C   0  0  0  0  0  3  0  0  0  0  0  0
  185.7080  179.3200  141.0470 N   0  0  0  0  0  2  0  0  0  0  0  0
  187.6990  177.0280  137.7740 C   0  0  0  0  0  2  0  0  0  0  0  0
  187.5370  178.2110  139.8000 C   0  0  0  0  0  0  0  0  0  0  0  0
  187.0560  178.9520  140.9230 N   0  0  0  0  0  2  0  0  0  0  0  0
  188.7400  177.7630  139.7480 N   0  0  0  0  0  0  0  0  0  0  0  0
  186.3480  178.9930  137.9120 O   0  0  0  0  0  1  0  0  0  0  0  0
  186.7100  177.8400  138.6110 C   0  0  1  0  0  3  0  0  0  0  0  0
  188.9170  177.0490  138.5660 N   0  0  0  0  0  0  0  0  0  0  0  0
  190.0780  175.1530  137.5120 C   0  0  0  0  0  3  0  0  0  0  0  0
  192.4960  174.9980  137.5760 C   0  0  0  0  0  3  0  0  0  0  0  0
  190.1270  176.3530  138.2370 C   0  0  0  0  0  0  0  0  0  0  0  0
  191.2580  174.4780  137.1830 C   0  0  0  0  0  3  0  0  0  0  0  0
  191.3730  176.8660  138.6300 C   0  0  0  0  0  3  0  0  0  0  0  0
  192.5540  176.1930  138.2990 C   0  0  0  0  0  3  0  0  0  0  0  0
  1 20  1  6  0  0  0
  1  5  1  0  0  0  0
  2  8  1  0  0  0  0
  4 11  1  0  0  0  0
  5  2  1  0  0  0  0
  6  7  2  0  0  0  0
  6  4  1  0  0  0  0
  8  4  2  0  0  0  0
  8  3  1  0  0  0  0
  9  2  2  0  0  0  0
  9  6  1  0  0  0  0
 11 10  3  0  0  0  0
 12  1  1  0  0  0  0
 12 18  2  0  0  0  0
 13 19  2  0  0  0  0
 14 15  1  0  0  0  0
 15 13  1  0  0  0  0
 16 17  1  0  0  0  0
 16 15  2  0  0  0  0
 17 12  1  0  0  0  0
 19 18  1  0  0  0  0
 21 27  1  0  0  0  0
 21 26  1  0  0  0  0
 22 23  1  0  0  0  0
 23 20  1  0  0  0  0
 24 22  2  0  0  0  0
 26 25  1  6  0  0  0
 26 22  1  0  0  0  0
 27 24  1  0  0  0  0
 28 30  1  0  0  0  0
 29 33  2  0  0  0  0
 30 27  1  0  0  0  0
 30 32  2  0  0  0  0
 31 28  2  0  0  0  0
 31 29  1  0  0  0  0
 33 32  1  0  0  0  0
M  END
>  <MODEL>
2

>  <REMARK>
 VINA RESULT:      -9.2      2.170      3.323
  Name = 
  6 active torsions:
  status: ('A' for Active; 'I' for Inactive)
    1  A    between atoms: C_3  and  C_33
    2  A    between atoms: C_8  and  C_27
    3  A    between atoms: N_11  and  C_33
    4  A    between atoms: C_12  and  N_31
    5  A    between atoms: N_13  and  N_32
    6  A    between atoms: N_32  and  C_33
                            x       y       z     vdW  Elec       q    Type
                         _______ _______ _______ _____ _____    ______ ____

>  <TORSDO>
F 6

$$$$
=
 OpenBabel10222419453D

 33 36  0  0  1  0  0  0  0  0999 V2000
  185.2720  179.0810  142.2020 C   0  0  1  0  0  3  0  0  0  0  0  0
  183.1290  178.2060  141.1770 C   0  0  0  0  0  0  0  0  0  0  0  0
  182.9440  176.3180  139.3420 C   0  0  0  0  0  1  0  0  0  0  0  0
  181.0960  177.6680  140.3880 C   0  0  0  0  0  0  0  0  0  0  0  0
  184.5480  178.1590  141.3360 N   0  0  0  0  0  2  0  0  0  0  0  0
  181.0490  178.7250  141.3850 C   0  0  0  0  0  0  0  0  0  0  0  0
  179.9790  179.1170  141.9950 N   0  0  0  0  0  2  0  0  0  0  0  0
  182.3770  177.3580  140.2510 C   0  0  0  0  0  0  0  0  0  0  0  0
  182.3620  178.9950  141.8640 N   0  0  0  0  0  0  0  0  0  0  0  0
  179.0840  176.5930  139.1470 N   0  0  0  0  0  0  0  0  0  0  0  0
  179.9810  177.0690  139.6990 C   0  0  0  0  0  0  0  0  0  0  0  0
  185.3740  178.5180  143.5820 C   0  0  0  0  0  0  0  0  0  0  0  0
  185.6720  178.1350  146.6380 C   0  0  0  0  0  3  0  0  0  0  0  0
  188.1670  177.8730  147.0380 C   0  0  0  0  0  1  0  0  0  0  0  0
  187.0150  177.8330  146.0980 C   0  0  0  0  0  0  0  0  0  0  0  0
  187.2480  177.4770  144.8340 C   0  0  0  0  0  3  0  0  0  0  0  0
  186.1710  177.2710  143.8190 C   0  0  0  0  0  2  0  0  0  0  0  0
  184.6440  179.0800  144.5470 C   0  0  0  0  0  3  0  0  0  0  0  0
  184.6470  178.6760  145.9680 C   0  0  0  0  0  3  0  0  0  0  0  0
  186.6080  179.3290  141.6700 N   0  0  0  0  0  2  0  0  0  0  0  0
  190.0490  177.3800  139.5980 C   0  0  0  0  0  2  0  0  0  0  0  0
  187.8560  178.1900  139.8600 C   0  0  0  0  0  0  0  0  0  0  0  0
  186.6640  178.7840  140.3780 N   0  0  0  0  0  2  0  0  0  0  0  0
  187.9480  177.8090  138.6370 N   0  0  0  0  0  0  0  0  0  0  0  0
  188.8920  177.0650  141.6630 O   0  0  0  0  0  1  0  0  0  0  0  0
  189.1150  177.9910  140.6440 C   0  0  1  0  0  3  0  0  0  0  0  0
  189.2260  177.3080  138.4020 N   0  0  0  0  0  0  0  0  0  0  0  0
  190.8760  176.1500  136.9920 C   0  0  0  0  0  3  0  0  0  0  0  0
  190.5590  176.0000  134.5940 C   0  0  0  0  0  3  0  0  0  0  0  0
  189.6790  176.8720  137.1140 C   0  0  0  0  0  0  0  0  0  0  0  0
  191.3140  175.7160  135.7370 C   0  0  0  0  0  3  0  0  0  0  0  0
  188.9280  177.1540  135.9620 C   0  0  0  0  0  3  0  0  0  0  0  0
  189.3650  176.7190  134.7060 C   0  0  0  0  0  3  0  0  0  0  0  0
  1  5  1  6  0  0  0
  1 12  1  0  0  0  0
  2  5  1  0  0  0  0
  2  9  2  0  0  0  0
  3  8  1  0  0  0  0
  4  6  1  0  0  0  0
  6  9  1  0  0  0  0
  6  7  2  0  0  0  0
  8  4  2  0  0  0  0
  8  2  1  0  0  0  0
 10 11  3  0  0  0  0
 11  4  1  0  0  0  0
 12 17  1  0  0  0  0
 12 18  2  0  0  0  0
 15 13  1  0  0  0  0
 15 14  1  0  0  0  0
 16 15  2  0  0  0  0
 17 16  1  0  0  0  0
 18 19  1  0  0  0  0
 19 13  2  0  0  0  0
 20  1  1  0  0  0  0
 21 26  1  0  0  0  0
 22 23  1  0  0  0  0
 22 26  1  0  0  0  0
 23 20  1  0  0  0  0
 24 22  2  0  0  0  0
 26 25  1  1  0  0  0
 27 24  1  0  0  0  0
 27 21  1  0  0  0  0
 28 30  1  0  0  0  0
 29 33  2  0  0  0  0
 29 31  1  0  0  0  0
 30 27  1  0  0  0  0
 31 28  2  0  0  0  0
 32 30  2  0  0  0  0
 33 32  1  0  0  0  0
M  END
>  <MODEL>
3

>  <REMARK>
 VINA RESULT:      -9.0      3.252      6.764
  Name = 
  6 active torsions:
  status: ('A' for Active; 'I' for Inactive)
    1  A    between atoms: C_3  and  C_33
    2  A    between atoms: C_8  and  C_27
    3  A    between atoms: N_11  and  C_33
    4  A    between atoms: C_12  and  N_31
    5  A    between atoms: N_13  and  N_32
    6  A    between atoms: N_32  and  C_33
                            x       y       z     vdW  Elec       q    Type
                         _______ _______ _______ _____ _____    ______ ____

>  <TORSDO>
F 6

$$$$
=
 OpenBabel10222419453D

 33 36  0  0  1  0  0  0  0  0999 V2000
  183.1550  179.2170  139.1480 C   0  0  1  0  0  3  0  0  0  0  0  0
  184.9780  177.9170  137.9660 C   0  0  0  0  0  0  0  0  0  0  0  0
  184.7130  175.5420  136.8470 C   0  0  0  0  0  1  0  0  0  0  0  0
  186.7840  176.9560  137.0410 C   0  0  0  0  0  0  0  0  0  0  0  0
  183.6160  178.0740  138.3700 N   0  0  0  0  0  2  0  0  0  0  0  0
  187.0770  178.2550  137.6260 C   0  0  0  0  0  0  0  0  0  0  0  0
  188.1460  178.9440  137.3950 N   0  0  0  0  0  2  0  0  0  0  0  0
  185.4960  176.7430  137.2630 C   0  0  0  0  0  0  0  0  0  0  0  0
  185.8870  178.8200  138.1650 N   0  0  0  0  0  0  0  0  0  0  0  0
  188.4340  175.3820  135.7970 N   0  0  0  0  0  0  0  0  0  0  0  0
  187.7010  176.0840  136.3510 C   0  0  0  0  0  0  0  0  0  0  0  0
  182.0190  179.8900  138.4510 C   0  0  0  0  0  0  0  0  0  0  0  0
  180.1410  181.1790  136.3570 C   0  0  0  0  0  3  0  0  0  0  0  0
  180.7920  183.6350  136.2980 C   0  0  0  0  0  1  0  0  0  0  0  0
  180.8070  182.3280  137.0090 C   0  0  0  0  0  0  0  0  0  0  0  0
  181.3730  182.2760  138.2150 C   0  0  0  0  0  3  0  0  0  0  0  0
  181.3450  181.0660  139.0920 C   0  0  0  0  0  2  0  0  0  0  0  0
  181.5560  179.3420  137.3270 C   0  0  0  0  0  3  0  0  0  0  0  0
  180.4670  179.8880  136.4920 C   0  0  0  0  0  3  0  0  0  0  0  0
  182.7330  178.7850  140.4770 N   0  0  0  0  0  2  0  0  0  0  0  0
  184.2270  179.1500  144.6680 C   0  0  0  0  0  2  0  0  0  0  0  0
  184.1680  178.3680  142.4510 C   0  0  0  0  0  0  0  0  0  0  0  0
  183.8200  178.1370  141.0850 N   0  0  0  0  0  2  0  0  0  0  0  0
  185.2350  177.8770  142.9710 N   0  0  0  0  0  0  0  0  0  0  0  0
  182.1380  178.6300  143.6340 O   0  0  0  0  0  1  0  0  0  0  0  0
  183.3800  179.2180  143.3960 C   0  0  1  0  0  3  0  0  0  0  0  0
  185.3410  178.2940  144.2940 N   0  0  0  0  0  0  0  0  0  0  0  0
  187.6520  177.5000  144.5760 C   0  0  0  0  0  3  0  0  0  0  0  0
  188.6600  177.3970  146.7770 C   0  0  0  0  0  3  0  0  0  0  0  0
  186.4610  177.9850  145.1350 C   0  0  0  0  0  0  0  0  0  0  0  0
  188.7480  177.2070  145.3940 C   0  0  0  0  0  3  0  0  0  0  0  0
  186.3800  178.1710  146.5240 C   0  0  0  0  0  3  0  0  0  0  0  0
  187.4760  177.8790  147.3430 C   0  0  0  0  0  3  0  0  0  0  0  0
  1  5  1  6  0  0  0
  1 20  1  0  0  0  0
  2  9  2  0  0  0  0
  2  5  1  0  0  0  0
  3  8  1  0  0  0  0
  4  8  2  0  0  0  0
  4  6  1  0  0  0  0
  6  9  1  0  0  0  0
  7  6  2  0  0  0  0
  8  2  1  0  0  0  0
 10 11  3  0  0  0  0
 11  4  1  0  0  0  0
 12 17  1  0  0  0  0
 12  1  1  0  0  0  0
 13 19  2  0  0  0  0
 13 15  1  0  0  0  0
 14 15  1  0  0  0  0
 15 16  2  0  0  0  0
 16 17  1  0  0  0  0
 18 12  2  0  0  0  0
 19 18  1  0  0  0  0
 20 23  1  0  0  0  0
 22 24  2  0  0  0  0
 22 26  1  0  0  0  0
 23 22  1  0  0  0  0
 24 27  1  0  0  0  0
 26 25  1  1  0  0  0
 26 21  1  0  0  0  0
 27 21  1  0  0  0  0
 27 30  1  0  0  0  0
 28 30  2  0  0  0  0
 28 31  1  0  0  0  0
 29 33  1  0  0  0  0
 30 32  1  0  0  0  0
 31 29  2  0  0  0  0
 32 33  2  0  0  0  0
M  END
>  <MODEL>
4

>  <REMARK>
 VINA RESULT:      -9.0      3.965      8.639
  Name = 
  6 active torsions:
  status: ('A' for Active; 'I' for Inactive)
    1  A    between atoms: C_3  and  C_33
    2  A    between atoms: C_8  and  C_27
    3  A    between atoms: N_11  and  C_33
    4  A    between atoms: C_12  and  N_31
    5  A    between atoms: N_13  and  N_32
    6  A    between atoms: N_32  and  C_33
                            x       y       z     vdW  Elec       q    Type
                         _______ _______ _______ _____ _____    ______ ____

>  <TORSDO>
F 6

$$$$
=
 OpenBabel10222419453D

 33 36  0  0  1  0  0  0  0  0999 V2000
  187.2170  177.5860  143.7990 C   0  0  1  0  0  3  0  0  0  0  0  0
  189.1060  177.1300  145.4210 C   0  0  0  0  0  0  0  0  0  0  0  0
  189.0750  177.6110  148.0150 C   0  0  0  0  0  1  0  0  0  0  0  0
  190.9540  176.6890  146.6190 C   0  0  0  0  0  0  0  0  0  0  0  0
  187.7670  177.5470  145.1480 N   0  0  0  0  0  2  0  0  0  0  0  0
  191.1150  176.3850  145.2060 C   0  0  0  0  0  0  0  0  0  0  0  0
  192.0670  175.6630  144.7110 N   0  0  0  0  0  2  0  0  0  0  0  0
  189.7230  177.1600  146.7480 C   0  0  0  0  0  0  0  0  0  0  0  0
  189.9020  176.6560  144.5130 N   0  0  0  0  0  0  0  0  0  0  0  0
  192.7050  176.3550  148.5080 N   0  0  0  0  0  0  0  0  0  0  0  0
  191.9260  176.5060  147.6660 C   0  0  0  0  0  0  0  0  0  0  0  0
  185.9130  178.3140  143.7960 C   0  0  0  0  0  0  0  0  0  0  0  0
  182.9350  179.1120  144.0700 C   0  0  0  0  0  3  0  0  0  0  0  0
  181.8770  178.5190  141.8370 C   0  0  0  0  0  1  0  0  0  0  0  0
  183.1020  178.8020  142.6330 C   0  0  0  0  0  0  0  0  0  0  0  0
  184.2750  178.8130  141.9980 C   0  0  0  0  0  3  0  0  0  0  0  0
  185.5630  179.2090  142.6450 C   0  0  0  0  0  2  0  0  0  0  0  0
  185.1480  178.2410  144.8860 C   0  0  0  0  0  3  0  0  0  0  0  0
  183.8190  178.8670  145.0450 C   0  0  0  0  0  3  0  0  0  0  0  0
  188.1520  178.2460  142.8920 N   0  0  0  0  0  2  0  0  0  0  0  0
  191.0070  177.1550  139.6390 C   0  0  0  0  0  2  0  0  0  0  0  0
  188.9160  177.4900  140.6620 C   0  0  0  0  0  0  0  0  0  0  0  0
  187.8760  177.7990  141.5910 N   0  0  0  0  0  2  0  0  0  0  0  0
  188.6680  177.2060  139.4340 N   0  0  0  0  0  0  0  0  0  0  0  0
  190.6620  176.4930  141.9070 O   0  0  0  0  0  1  0  0  0  0  0  0
  190.3760  177.5030  140.9870 C   0  0  1  0  0  3  0  0  0  0  0  0
  189.8640  176.9890  138.7570 N   0  0  0  0  0  0  0  0  0  0  0  0
  190.8590  175.7940  136.8510 C   0  0  0  0  0  3  0  0  0  0  0  0
  190.0760  176.2030  134.5940 C   0  0  0  0  0  3  0  0  0  0  0  0
  189.9400  176.7280  137.3490 C   0  0  0  0  0  0  0  0  0  0  0  0
  190.9270  175.5330  135.4780 C   0  0  0  0  0  3  0  0  0  0  0  0
  189.0900  177.3990  136.4550 C   0  0  0  0  0  3  0  0  0  0  0  0
  189.1560  177.1360  135.0820 C   0  0  0  0  0  3  0  0  0  0  0  0
  1 20  1  6  0  0  0
  1  5  1  0  0  0  0
  2  8  1  0  0  0  0
  4  8  2  0  0  0  0
  4 11  1  0  0  0  0
  5  2  1  0  0  0  0
  6  4  1  0  0  0  0
  7  6  2  0  0  0  0
  8  3  1  0  0  0  0
  9  6  1  0  0  0  0
  9  2  2  0  0  0  0
 11 10  3  0  0  0  0
 12  1  1  0  0  0  0
 12 18  2  0  0  0  0
 13 19  2  0  0  0  0
 14 15  1  0  0  0  0
 15 13  1  0  0  0  0
 16 15  2  0  0  0  0
 16 17  1  0  0  0  0
 17 12  1  0  0  0  0
 18 19  1  0  0  0  0
 21 26  1  0  0  0  0
 22 26  1  0  0  0  0
 22 23  1  0  0  0  0
 23 20  1  0  0  0  0
 24 22  2  0  0  0  0
 26 25  1  1  0  0  0
 27 24  1  0  0  0  0
 27 21  1  0  0  0  0
 28 30  1  0  0  0  0
 29 33  2  0  0  0  0
 29 31  1  0  0  0  0
 30 27  1  0  0  0  0
 31 28  2  0  0  0  0
 32 30  2  0  0  0  0
 33 32  1  0  0  0  0
M  END
>  <MODEL>
5

>  <REMARK>
 VINA RESULT:      -8.9      1.539      1.966
  Name = 
  6 active torsions:
  status: ('A' for Active; 'I' for Inactive)
    1  A    between atoms: C_3  and  C_33
    2  A    between atoms: C_8  and  C_27
    3  A    between atoms: N_11  and  C_33
    4  A    between atoms: C_12  and  N_31
    5  A    between atoms: N_13  and  N_32
    6  A    between atoms: N_32  and  C_33
                            x       y       z     vdW  Elec       q    Type
                         _______ _______ _______ _____ _____    ______ ____

>  <TORSDO>
F 6

$$$$
=
 OpenBabel10222419453D

 33 36  0  0  1  0  0  0  0  0999 V2000
  185.7110  179.2050  141.4790 C   0  0  1  0  0  3  0  0  0  0  0  0
  184.0690  178.8330  139.5890 C   0  0  0  0  0  0  0  0  0  0  0  0
  183.9440  176.7010  138.0380 C   0  0  0  0  0  1  0  0  0  0  0  0
  182.5510  178.7930  137.9340 C   0  0  0  0  0  0  0  0  0  0  0  0
  185.1270  178.3750  140.4340 N   0  0  0  0  0  2  0  0  0  0  0  0
  182.5140  180.0280  138.7010 C   0  0  0  0  0  0  0  0  0  0  0  0
  181.5460  180.8860  138.6720 N   0  0  0  0  0  2  0  0  0  0  0  0
  183.5170  178.0640  138.4720 C   0  0  0  0  0  0  0  0  0  0  0  0
  183.4750  179.9750  139.7490 N   0  0  0  0  0  0  0  0  0  0  0  0
  181.0250  178.1350  135.9390 N   0  0  0  0  0  0  0  0  0  0  0  0
  181.7050  178.4300  136.8260 C   0  0  0  0  0  0  0  0  0  0  0  0
  185.2280  178.7590  142.8200 C   0  0  0  0  0  0  0  0  0  0  0  0
  184.0670  178.6280  145.6860 C   0  0  0  0  0  3  0  0  0  0  0  0
  186.0560  178.9720  147.2290 C   0  0  0  0  0  1  0  0  0  0  0  0
  185.5330  178.6140  145.8830 C   0  0  0  0  0  0  0  0  0  0  0  0
  186.4090  178.2520  144.9450 C   0  0  0  0  0  3  0  0  0  0  0  0
  186.0140  177.7450  143.5950 C   0  0  0  0  0  2  0  0  0  0  0  0
  184.0360  179.1910  143.2360 C   0  0  0  0  0  3  0  0  0  0  0  0
  183.4190  178.8800  144.5410 C   0  0  0  0  0  3  0  0  0  0  0  0
  187.1680  179.1270  141.4290 N   0  0  0  0  0  2  0  0  0  0  0  0
  190.9320  177.0420  140.2420 C   0  0  0  0  0  2  0  0  0  0  0  0
  188.7850  177.9580  139.9630 C   0  0  0  0  0  0  0  0  0  0  0  0
  187.5280  178.6030  140.1780 N   0  0  0  0  0  2  0  0  0  0  0  0
  189.1680  177.5930  138.7920 N   0  0  0  0  0  0  0  0  0  0  0  0
  189.2740  176.7500  141.9350 O   0  0  0  0  0  1  0  0  0  0  0  0
  189.7910  177.6810  141.0340 C   0  0  1  0  0  3  0  0  0  0  0  0
  190.4390  177.0330  138.8740 N   0  0  0  0  0  0  0  0  0  0  0  0
  192.5680  176.3740  137.8310 C   0  0  0  0  0  3  0  0  0  0  0  0
  192.6470  175.7230  135.4980 C   0  0  0  0  0  3  0  0  0  0  0  0
  191.1870  176.5960  137.7310 C   0  0  0  0  0  0  0  0  0  0  0  0
  193.2960  175.9400  136.7190 C   0  0  0  0  0  3  0  0  0  0  0  0
  190.5440  176.3780  136.5020 C   0  0  0  0  0  3  0  0  0  0  0  0
  191.2710  175.9420  135.3900 C   0  0  0  0  0  3  0  0  0  0  0  0
  1  5  1  6  0  0  0
  1 12  1  0  0  0  0
  2  9  2  0  0  0  0
  2  5  1  0  0  0  0
  3  8  1  0  0  0  0
  4  8  2  0  0  0  0
  4  6  1  0  0  0  0
  6  9  1  0  0  0  0
  7  6  2  0  0  0  0
  8  2  1  0  0  0  0
 10 11  3  0  0  0  0
 11  4  1  0  0  0  0
 12 18  2  0  0  0  0
 12 17  1  0  0  0  0
 13 15  1  0  0  0  0
 15 14  1  0  0  0  0
 16 15  2  0  0  0  0
 17 16  1  0  0  0  0
 18 19  1  0  0  0  0
 19 13  2  0  0  0  0
 20  1  1  0  0  0  0
 21 26  1  0  0  0  0
 22 23  1  0  0  0  0
 22 26  1  0  0  0  0
 23 20  1  0  0  0  0
 24 27  1  0  0  0  0
 24 22  2  0  0  0  0
 26 25  1  1  0  0  0
 27 21  1  0  0  0  0
 29 31  1  0  0  0  0
 30 28  1  0  0  0  0
 30 27  1  0  0  0  0
 31 28  2  0  0  0  0
 32 30  2  0  0  0  0
 33 29  2  0  0  0  0
 33 32  1  0  0  0  0
M  END
>  <MODEL>
6

>  <REMARK>
 VINA RESULT:      -8.9      3.278      6.799
  Name = 
  6 active torsions:
  status: ('A' for Active; 'I' for Inactive)
    1  A    between atoms: C_3  and  C_33
    2  A    between atoms: C_8  and  C_27
    3  A    between atoms: N_11  and  C_33
    4  A    between atoms: C_12  and  N_31
    5  A    between atoms: N_13  and  N_32
    6  A    between atoms: N_32  and  C_33
                            x       y       z     vdW  Elec       q    Type
                         _______ _______ _______ _____ _____    ______ ____

>  <TORSDO>
F 6

$$$$
=
 OpenBabel10222419453D

 33 36  0  0  1  0  0  0  0  0999 V2000
  188.5890  177.4250  140.9710 C   0  0  1  0  0  3  0  0  0  0  0  0
  190.6620  176.7540  139.6810 C   0  0  0  0  0  0  0  0  0  0  0  0
  193.1340  177.5030  140.2180 C   0  0  0  0  0  1  0  0  0  0  0  0
  192.3130  176.0640  138.3250 C   0  0  0  0  0  0  0  0  0  0  0  0
  190.0340  177.4130  140.7840 N   0  0  0  0  0  2  0  0  0  0  0  0
  191.0060  175.5840  137.9070 C   0  0  0  0  0  0  0  0  0  0  0  0
  190.8070  174.6300  137.0570 N   0  0  0  0  0  2  0  0  0  0  0  0
  192.0990  176.7950  139.4090 C   0  0  0  0  0  0  0  0  0  0  0  0
  190.0120  176.0300  138.8230 N   0  0  0  0  0  0  0  0  0  0  0  0
  194.6030  175.5710  137.2020 N   0  0  0  0  0  0  0  0  0  0  0  0
  193.5830  175.7920  137.7000 C   0  0  0  0  0  0  0  0  0  0  0  0
  188.2550  177.1870  142.4070 C   0  0  0  0  0  0  0  0  0  0  0  0
  187.4940  177.5040  145.3900 C   0  0  0  0  0  3  0  0  0  0  0  0
  189.7020  177.7860  146.6160 C   0  0  0  0  0  1  0  0  0  0  0  0
  188.9650  177.3450  145.4010 C   0  0  0  0  0  0  0  0  0  0  0  0
  189.6620  176.7840  144.4130 C   0  0  0  0  0  3  0  0  0  0  0  0
  189.0370  176.1810  143.1970 C   0  0  0  0  0  2  0  0  0  0  0  0
  187.1800  177.7950  142.9130 C   0  0  0  0  0  3  0  0  0  0  0  0
  186.7220  177.7010  144.3140 C   0  0  0  0  0  3  0  0  0  0  0  0
  188.0360  178.7060  140.5410 N   0  0  0  0  0  2  0  0  0  0  0  0
  183.7980  178.1430  139.2550 C   0  0  0  0  0  2  0  0  0  0  0  0
  186.1250  178.3690  139.0030 C   0  0  0  0  0  0  0  0  0  0  0  0
  187.5230  178.5390  139.2450 N   0  0  0  0  0  2  0  0  0  0  0  0
  185.6690  178.0880  137.8350 N   0  0  0  0  0  0  0  0  0  0  0  0
  184.9940  179.7520  140.5510 O   0  0  0  0  0  1  0  0  0  0  0  0
  185.0650  178.4500  140.0540 C   0  0  1  0  0  3  0  0  0  0  0  0
  184.2860  177.9410  137.9010 N   0  0  0  0  0  0  0  0  0  0  0  0
  184.0330  176.7920  135.7400 C   0  0  0  0  0  3  0  0  0  0  0  0
  181.8940  176.7630  134.6030 C   0  0  0  0  0  3  0  0  0  0  0  0
  183.4790  177.5480  136.7830 C   0  0  0  0  0  0  0  0  0  0  0  0
  183.2440  176.4010  134.6540 C   0  0  0  0  0  3  0  0  0  0  0  0
  182.1230  177.9090  136.7220 C   0  0  0  0  0  3  0  0  0  0  0  0
  181.3330  177.5170  135.6380 C   0  0  0  0  0  3  0  0  0  0  0  0
  1 20  1  1  0  0  0
  1 12  1  0  0  0  0
  2  5  1  0  0  0  0
  4  8  2  0  0  0  0
  5  1  1  0  0  0  0
  6  4  1  0  0  0  0
  6  9  1  0  0  0  0
  7  6  2  0  0  0  0
  8  2  1  0  0  0  0
  8  3  1  0  0  0  0
  9  2  2  0  0  0  0
 10 11  3  0  0  0  0
 11  4  1  0  0  0  0
 12 18  2  0  0  0  0
 12 17  1  0  0  0  0
 13 15  1  0  0  0  0
 15 14  1  0  0  0  0
 16 15  2  0  0  0  0
 17 16  1  0  0  0  0
 18 19  1  0  0  0  0
 19 13  2  0  0  0  0
 21 26  1  0  0  0  0
 22 23  1  0  0  0  0
 22 26  1  0  0  0  0
 23 20  1  0  0  0  0
 24 27  1  0  0  0  0
 24 22  2  0  0  0  0
 26 25  1  6  0  0  0
 27 21  1  0  0  0  0
 28 30  1  0  0  0  0
 29 31  1  0  0  0  0
 29 33  2  0  0  0  0
 30 27  1  0  0  0  0
 31 28  2  0  0  0  0
 32 30  2  0  0  0  0
 33 32  1  0  0  0  0
M  END
>  <MODEL>
7

>  <REMARK>
 VINA RESULT:      -8.9      3.113      6.684
  Name = 
  6 active torsions:
  status: ('A' for Active; 'I' for Inactive)
    1  A    between atoms: C_3  and  C_33
    2  A    between atoms: C_8  and  C_27
    3  A    between atoms: N_11  and  C_33
    4  A    between atoms: C_12  and  N_31
    5  A    between atoms: N_13  and  N_32
    6  A    between atoms: N_32  and  C_33
                            x       y       z     vdW  Elec       q    Type
                         _______ _______ _______ _____ _____    ______ ____

>  <TORSDO>
F 6

$$$$
=
 OpenBabel10222419453D

 33 36  0  0  1  0  0  0  0  0999 V2000
  190.1700  176.1750  138.6510 C   0  0  1  0  0  3  0  0  0  0  0  0
  188.0930  176.5130  137.2430 C   0  0  0  0  0  0  0  0  0  0  0  0
  187.4310  178.7220  135.9610 C   0  0  0  0  0  1  0  0  0  0  0  0
  186.1500  176.5620  136.1190 C   0  0  0  0  0  0  0  0  0  0  0  0
  189.3460  176.9740  137.7540 N   0  0  0  0  0  2  0  0  0  0  0  0
  186.3820  175.2900  136.7820 C   0  0  0  0  0  0  0  0  0  0  0  0
  185.7370  174.1970  136.5310 N   0  0  0  0  0  2  0  0  0  0  0  0
  187.1960  177.3190  136.4140 C   0  0  0  0  0  0  0  0  0  0  0  0
  187.6410  175.3150  137.4470 N   0  0  0  0  0  0  0  0  0  0  0  0
  184.1160  177.2180  134.6430 N   0  0  0  0  0  0  0  0  0  0  0  0
  185.0220  176.9240  135.2990 C   0  0  0  0  0  0  0  0  0  0  0  0
  191.2890  175.5390  137.8920 C   0  0  0  0  0  0  0  0  0  0  0  0
  193.3840  173.5690  136.7510 C   0  0  0  0  0  3  0  0  0  0  0  0
  195.3950  173.7670  138.2910 C   0  0  0  0  0  1  0  0  0  0  0  0
  194.1250  174.3410  137.7720 C   0  0  0  0  0  0  0  0  0  0  0  0
  193.7500  175.5410  138.2170 C   0  0  0  0  0  3  0  0  0  0  0  0
  192.5700  176.2890  137.6880 C   0  0  0  0  0  2  0  0  0  0  0  0
  191.0640  174.3600  137.3100 C   0  0  0  0  0  3  0  0  0  0  0  0
  192.0600  173.5750  136.5520 C   0  0  0  0  0  3  0  0  0  0  0  0
  190.7110  177.0110  139.7180 N   0  0  0  0  0  2  0  0  0  0  0  0
  188.3590  176.4550  143.4720 C   0  0  0  0  0  2  0  0  0  0  0  0
  189.0070  177.4740  141.4540 C   0  0  0  0  0  0  0  0  0  0  0  0
  189.6610  177.7930  140.2250 N   0  0  0  0  0  2  0  0  0  0  0  0
  187.9660  178.1110  141.8540 N   0  0  0  0  0  0  0  0  0  0  0  0
  190.6730  176.6460  142.9140 O   0  0  0  0  0  1  0  0  0  0  0  0
  189.4180  176.3670  142.3720 C   0  0  1  0  0  3  0  0  0  0  0  0
  187.5200  177.5660  143.0540 N   0  0  0  0  0  0  0  0  0  0  0  0
  186.2760  178.0200  145.1270 C   0  0  0  0  0  3  0  0  0  0  0  0
  184.0060  178.8630  145.0420 C   0  0  0  0  0  3  0  0  0  0  0  0
  186.3300  177.9980  143.7260 C   0  0  0  0  0  0  0  0  0  0  0  0
  185.1190  178.4510  145.7830 C   0  0  0  0  0  3  0  0  0  0  0  0
  185.2080  178.4110  142.9900 C   0  0  0  0  0  3  0  0  0  0  0  0
  184.0500  178.8440  143.6460 C   0  0  0  0  0  3  0  0  0  0  0  0
  1  5  1  6  0  0  0
  1 20  1  0  0  0  0
  2  9  2  0  0  0  0
  2  5  1  0  0  0  0
  3  8  1  0  0  0  0
  4  8  2  0  0  0  0
  4  6  1  0  0  0  0
  6  9  1  0  0  0  0
  7  6  2  0  0  0  0
  8  2  1  0  0  0  0
 10 11  3  0  0  0  0
 11  4  1  0  0  0  0
 12  1  1  0  0  0  0
 13 15  1  0  0  0  0
 15 16  2  0  0  0  0
 15 14  1  0  0  0  0
 17 12  1  0  0  0  0
 17 16  1  0  0  0  0
 18 12  2  0  0  0  0
 19 13  2  0  0  0  0
 19 18  1  0  0  0  0
 20 23  1  0  0  0  0
 22 24  2  0  0  0  0
 22 26  1  0  0  0  0
 23 22  1  0  0  0  0
 24 27  1  0  0  0  0
 26 25  1  1  0  0  0
 26 21  1  0  0  0  0
 27 21  1  0  0  0  0
 27 30  1  0  0  0  0
 28 31  1  0  0  0  0
 29 31  2  0  0  0  0
 30 28  2  0  0  0  0
 32 33  2  0  0  0  0
 32 30  1  0  0  0  0
 33 29  1  0  0  0  0
M  END
>  <MODEL>
8

>  <REMARK>
 VINA RESULT:      -8.8      2.710      9.427
  Name = 
  6 active torsions:
  status: ('A' for Active; 'I' for Inactive)
    1  A    between atoms: C_3  and  C_33
    2  A    between atoms: C_8  and  C_27
    3  A    between atoms: N_11  and  C_33
    4  A    between atoms: C_12  and  N_31
    5  A    between atoms: N_13  and  N_32
    6  A    between atoms: N_32  and  C_33
                            x       y       z     vdW  Elec       q    Type
                         _______ _______ _______ _____ _____    ______ ____

>  <TORSDO>
F 6

$$$$
=
 OpenBabel10222419453D

 33 36  0  0  1  0  0  0  0  0999 V2000
  189.9540  177.1080  142.5250 C   0  0  1  0  0  3  0  0  0  0  0  0
  191.1730  176.7580  140.3350 C   0  0  0  0  0  0  0  0  0  0  0  0
  193.6430  177.5130  139.7940 C   0  0  0  0  0  1  0  0  0  0  0  0
  191.9880  176.3800  138.2760 C   0  0  0  0  0  0  0  0  0  0  0  0
  191.1490  177.1920  141.6960 N   0  0  0  0  0  2  0  0  0  0  0  0
  190.6170  175.9210  138.4300 C   0  0  0  0  0  0  0  0  0  0  0  0
  190.0120  175.1160  137.6180 N   0  0  0  0  0  2  0  0  0  0  0  0
  192.3250  176.9060  139.4440 C   0  0  0  0  0  0  0  0  0  0  0  0
  190.1740  176.1610  139.7610 N   0  0  0  0  0  0  0  0  0  0  0  0
  193.4840  176.1890  136.1610 N   0  0  0  0  0  0  0  0  0  0  0  0
  192.8160  176.2730  137.1020 C   0  0  0  0  0  0  0  0  0  0  0  0
  190.3180  177.2480  143.9670 C   0  0  0  0  0  0  0  0  0  0  0  0
  190.9530  176.7320  146.9520 C   0  0  0  0  0  3  0  0  0  0  0  0
  188.7250  176.9440  148.1550 C   0  0  0  0  0  1  0  0  0  0  0  0
  189.5570  177.2210  146.9530 C   0  0  0  0  0  0  0  0  0  0  0  0
  189.0160  177.9360  145.9660 C   0  0  0  0  0  3  0  0  0  0  0  0
  189.7750  178.3960  144.7640 C   0  0  0  0  0  2  0  0  0  0  0  0
  191.2210  176.4070  144.4730 C   0  0  0  0  0  3  0  0  0  0  0  0
  191.6720  176.3780  145.8790 C   0  0  0  0  0  3  0  0  0  0  0  0
  189.0070  178.1550  142.1520 N   0  0  0  0  0  2  0  0  0  0  0  0
  184.9350  179.2470  140.6840 C   0  0  0  0  0  2  0  0  0  0  0  0
  186.5340  178.2490  142.0910 C   0  0  0  0  0  0  0  0  0  0  0  0
  187.7560  177.8130  142.6890 N   0  0  0  0  0  2  0  0  0  0  0  0
  185.3950  178.0470  142.6510 N   0  0  0  0  0  0  0  0  0  0  0  0
  186.8680  178.2000  139.7510 O   0  0  0  0  0  1  0  0  0  0  0  0
  186.4400  179.0070  140.8050 C   0  0  1  0  0  3  0  0  0  0  0  0
  184.3890  178.6090  141.8710 N   0  0  0  0  0  0  0  0  0  0  0  0
  182.0020  178.6310  141.2780 C   0  0  0  0  0  3  0  0  0  0  0  0
  180.3020  178.6440  143.0060 C   0  0  0  0  0  3  0  0  0  0  0  0
  183.0070  178.6270  142.2550 C   0  0  0  0  0  0  0  0  0  0  0  0
  180.6540  178.6400  141.6520 C   0  0  0  0  0  3  0  0  0  0  0  0
  182.6460  178.6340  143.6110 C   0  0  0  0  0  3  0  0  0  0  0  0
  181.2990  178.6410  143.9860 C   0  0  0  0  0  3  0  0  0  0  0  0
  1  5  1  6  0  0  0
  1 12  1  0  0  0  0
  2  5  1  0  0  0  0
  4  6  1  0  0  0  0
  4  8  2  0  0  0  0
  6  9  1  0  0  0  0
  7  6  2  0  0  0  0
  8  3  1  0  0  0  0
  8  2  1  0  0  0  0
  9  2  2  0  0  0  0
 10 11  3  0  0  0  0
 11  4  1  0  0  0  0
 12 18  2  0  0  0  0
 12 17  1  0  0  0  0
 13 15  1  0  0  0  0
 15 14  1  0  0  0  0
 16 15  2  0  0  0  0
 17 16  1  0  0  0  0
 18 19  1  0  0  0  0
 19 13  2  0  0  0  0
 20  1  1  0  0  0  0
 20 23  1  0  0  0  0
 21 26  1  0  0  0  0
 21 27  1  0  0  0  0
 22 24  2  0  0  0  0
 22 23  1  0  0  0  0
 26 25  1  6  0  0  0
 26 22  1  0  0  0  0
 27 30  1  0  0  0  0
 27 24  1  0  0  0  0
 28 31  2  0  0  0  0
 28 30  1  0  0  0  0
 29 33  2  0  0  0  0
 30 32  2  0  0  0  0
 31 29  1  0  0  0  0
 32 33  1  0  0  0  0
M  END
>  <MODEL>
9

>  <REMARK>
 VINA RESULT:      -8.8      2.103      7.958
  Name = 
  6 active torsions:
  status: ('A' for Active; 'I' for Inactive)
    1  A    between atoms: C_3  and  C_33
    2  A    between atoms: C_8  and  C_27
    3  A    between atoms: N_11  and  C_33
    4  A    between atoms: C_12  and  N_31
    5  A    between atoms: N_13  and  N_32
    6  A    between atoms: N_32  and  C_33
                            x       y       z     vdW  Elec       q    Type
                         _______ _______ _______ _____ _____    ______ ____

>  <TORSDO>
F 6

$$$$
