=
 OpenBabel10222417383D

 30 34  0  0  1  0  0  0  0  0999 V2000
  181.6860  177.8790  138.5490 C   0  0  0  0  0  0  0  0  0  0  0  0
  185.1800  178.4610  140.5480 C   0  0  0  0  0  0  0  0  0  0  0  0
  184.9180  178.1910  142.7810 C   0  0  0  0  0  0  0  0  0  0  0  0
  180.7370  178.6010  143.1110 C   0  0  0  0  0  2  0  0  0  0  0  0
  187.2570  178.5550  142.0850 N   0  0  0  0  0  0  0  0  0  0  0  0
  182.8640  178.9540  144.3500 C   0  0  0  0  0  3  0  0  0  0  0  0
  182.6980  178.6740  137.7430 C   0  0  0  0  0  2  0  0  0  0  0  0
  186.6640  178.5760  140.8000 C   0  0  0  0  0  3  0  0  0  0  0  0
  180.1840  176.6250  140.5760 C   0  0  0  0  0  0  0  0  0  0  0  0
  186.3030  178.3420  142.9980 C   0  0  0  0  0  0  0  0  0  0  0  0
  184.3890  179.2020  144.6240 C   0  0  0  0  0  2  0  0  0  0  0  0
  180.0530  179.8130  142.9110 O   0  0  0  0  0  0  0  0  0  0  0  0
  180.6670  178.5230  139.2110 N   0  0  0  0  0  0  0  0  0  0  0  0
  179.5260  176.0270  141.5990 F   0  0  0  0  0  0  0  0  0  0  0  0
  184.5950  178.3000  139.1990 C   0  0  0  0  0  2  0  0  0  0  0  0
  182.2250  178.8150  143.1330 C   0  0  0  0  0  0  0  0  0  0  0  0
  179.7570  179.9520  141.5260 C   0  0  1  0  0  3  0  0  0  0  0  0
  178.9310  178.8020  140.9070 C   0  0  0  0  0  2  0  0  0  0  0  0
  184.2720  178.2960  141.6580 C   0  0  0  0  0  0  0  0  0  0  0  0
  181.9360  176.5310  138.8430 C   0  0  0  0  0  0  0  0  0  0  0  0
  185.4010  178.1100  144.0950 C   0  0  1  0  0  3  0  0  0  0  0  0
  181.2090  175.9350  139.9060 C   0  0  0  0  0  3  0  0  0  0  0  0
  183.7030  179.1780  138.7410 C   0  0  0  0  0  2  0  0  0  0  0  0
  179.8950  177.9370  140.1670 C   0  0  0  0  0  0  0  0  0  0  0  0
  182.8820  178.8580  141.7300 C   0  0  0  0  0  2  0  0  0  0  0  0
  182.8880  175.7650  138.0600 N   0  0  0  0  0  0  0  0  0  0  0  0
  182.5700  174.6110  137.5630 C   0  0  0  0  0  2  0  0  0  0  0  0
  179.0210  181.2720  141.2810 C   0  0  0  0  0  2  0  0  0  0  0  0
  180.3430  181.7240  139.5020 O   0  0  0  0  0  1  0  0  0  0  0  0
  179.0430  181.6240  139.8620 N   0  0  0  0  0  2  0  0  0  0  0  0
  1 20  2  0  0  0  0
  1 13  1  0  0  0  0
  2  8  2  0  0  0  0
  2 19  1  0  0  0  0
  3 10  1  0  0  0  0
  3 21  1  0  0  0  0
  4 16  1  0  0  0  0
  5 10  2  0  0  0  0
  6 11  1  0  0  0  0
  7  1  1  0  0  0  0
  7 23  1  0  0  0  0
  8  5  1  0  0  0  0
  9 14  1  0  0  0  0
 10 21  1  0  0  0  0
 12  4  1  0  0  0  0
 13 24  2  0  0  0  0
 15  2  1  0  0  0  0
 16  6  2  0  0  0  0
 17 28  1  1  0  0  0
 17 12  1  0  0  0  0
 18 17  1  0  0  0  0
 19 25  1  0  0  0  0
 19  3  2  0  0  0  0
 20 22  1  0  0  0  0
 21 11  1  1  0  0  0
 22  9  2  0  0  0  0
 23 15  1  0  0  0  0
 24  9  1  0  0  0  0
 24 18  1  0  0  0  0
 25 16  1  0  0  0  0
 26 20  1  0  0  0  0
 27 26  2  0  0  0  0
 29 30  1  0  0  0  0
 30 28  1  0  0  0  0
M  END
>  <MODEL>
1

>  <REMARK>
 VINA RESULT:      -7.1      0.000      0.000
  Name = 
  3 active torsions:
  status: ('A' for Active; 'I' for Inactive)
    1  A    between atoms: N_14  and  C_27
    2  A    between atoms: C_19  and  C_27
    3  A    between atoms: N_20  and  C_23
                            x       y       z     vdW  Elec       q    Type
                         _______ _______ _______ _____ _____    ______ ____

>  <TORSDO>
F 3

$$$$
=
 OpenBabel10222417383D

 30 34  0  0  1  0  0  0  0  0999 V2000
  188.5950  178.3540  137.7170 C   0  0  0  0  0  0  0  0  0  0  0  0
  185.4400  175.9430  136.8340 C   0  0  0  0  0  0  0  0  0  0  0  0
  185.9470  173.7580  137.1460 C   0  0  0  0  0  0  0  0  0  0  0  0
  190.1570  173.9430  137.1230 C   0  0  0  0  0  2  0  0  0  0  0  0
  183.5840  174.1640  136.5640 N   0  0  0  0  0  0  0  0  0  0  0  0
  188.2380  172.4550  136.5870 C   0  0  0  0  0  3  0  0  0  0  0  0
  187.5700  179.0320  136.8260 C   0  0  0  0  0  2  0  0  0  0  0  0
  184.0150  175.5120  136.5860 C   0  0  0  0  0  3  0  0  0  0  0  0
  190.2120  176.5220  139.1200 C   0  0  0  0  0  0  0  0  0  0  0  0
  184.6190  173.3740  136.8700 C   0  0  0  0  0  0  0  0  0  0  0  0
  186.7880  171.9970  136.2030 C   0  0  0  0  0  2  0  0  0  0  0  0
  190.9200  174.2300  135.9770 O   0  0  0  0  0  0  0  0  0  0  0  0
  189.7420  177.8230  137.1750 N   0  0  0  0  0  0  0  0  0  0  0  0
  190.9320  175.5850  139.7850 F   0  0  0  0  0  0  0  0  0  0  0  0
  185.8390  177.3530  137.0360 C   0  0  0  0  0  2  0  0  0  0  0  0
  188.7090  173.7400  136.7740 C   0  0  0  0  0  0  0  0  0  0  0  0
  191.0560  175.6410  135.8540 C   0  0  1  0  0  3  0  0  0  0  0  0
  191.6910  176.3530  137.0700 C   0  0  0  0  0  2  0  0  0  0  0  0
  186.4580  174.9530  137.0910 C   0  0  0  0  0  0  0  0  0  0  0  0
  188.2600  178.0270  139.0390 C   0  0  0  0  0  0  0  0  0  0  0  0
  185.6220  172.3950  137.1930 C   0  0  1  0  0  3  0  0  0  0  0  0
  189.0540  177.0590  139.7080 C   0  0  0  0  0  3  0  0  0  0  0  0
  186.7450  177.9200  136.2410 C   0  0  0  0  0  2  0  0  0  0  0  0
  190.5690  176.9660  137.8370 C   0  0  0  0  0  0  0  0  0  0  0  0
  187.8920  175.0520  136.6590 C   0  0  0  0  0  2  0  0  0  0  0  0
  187.1530  178.6850  139.7080 N   0  0  0  0  0  0  0  0  0  0  0  0
  187.0210  178.6280  140.9960 C   0  0  0  0  0  2  0  0  0  0  0  0
  191.8750  175.9780  134.6050 C   0  0  0  0  0  2  0  0  0  0  0  0
  193.8780  174.9300  134.6630 O   0  0  0  0  0  1  0  0  0  0  0  0
  193.2920  176.1190  134.9350 N   0  0  0  0  0  2  0  0  0  0  0  0
  1 20  1  0  0  0  0
  2 15  1  0  0  0  0
  2 19  1  0  0  0  0
  3 21  1  0  0  0  0
  5  8  1  0  0  0  0
  5 10  2  0  0  0  0
  6 16  2  0  0  0  0
  7  1  1  0  0  0  0
  8  2  2  0  0  0  0
  9 22  1  0  0  0  0
  9 14  1  0  0  0  0
 10  3  1  0  0  0  0
 10 21  1  0  0  0  0
 11  6  1  0  0  0  0
 12  4  1  0  0  0  0
 13  1  2  0  0  0  0
 13 24  1  0  0  0  0
 16  4  1  0  0  0  0
 17 28  1  6  0  0  0
 17 12  1  0  0  0  0
 17 18  1  0  0  0  0
 18 24  1  0  0  0  0
 19  3  2  0  0  0  0
 20 22  2  0  0  0  0
 20 26  1  0  0  0  0
 21 11  1  6  0  0  0
 23  7  1  0  0  0  0
 23 15  1  0  0  0  0
 24  9  2  0  0  0  0
 25 16  1  0  0  0  0
 25 19  1  0  0  0  0
 26 27  2  0  0  0  0
 28 30  1  0  0  0  0
 29 30  1  0  0  0  0
M  END
>  <MODEL>
2

>  <REMARK>
 VINA RESULT:      -5.6      6.383      9.938
  Name = 
  3 active torsions:
  status: ('A' for Active; 'I' for Inactive)
    1  A    between atoms: N_14  and  C_27
    2  A    between atoms: C_19  and  C_27
    3  A    between atoms: N_20  and  C_23
                            x       y       z     vdW  Elec       q    Type
                         _______ _______ _______ _____ _____    ______ ____

>  <TORSDO>
F 3

$$$$
=
 OpenBabel10222417383D

 30 34  0  0  1  0  0  0  0  0999 V2000
  184.1800  176.7370  136.0080 C   0  0  0  0  0  0  0  0  0  0  0  0
  188.0700  177.2730  137.0670 C   0  0  0  0  0  0  0  0  0  0  0  0
  188.3080  177.4450  139.3120 C   0  0  0  0  0  0  0  0  0  0  0  0
  184.3530  178.3810  140.4250 C   0  0  0  0  0  2  0  0  0  0  0  0
  190.4450  177.4080  138.0800 N   0  0  0  0  0  0  0  0  0  0  0  0
  186.7260  178.7090  141.0900 C   0  0  0  0  0  3  0  0  0  0  0  0
  185.0330  177.2520  134.8640 C   0  0  0  0  0  2  0  0  0  0  0  0
  189.5770  177.2630  136.9710 C   0  0  0  0  0  3  0  0  0  0  0  0
  183.0970  176.0520  138.5180 C   0  0  0  0  0  0  0  0  0  0  0  0
  189.7130  177.4750  139.1960 C   0  0  0  0  0  0  0  0  0  0  0  0
  188.2870  178.8280  140.9810 C   0  0  0  0  0  2  0  0  0  0  0  0
  183.7280  179.6060  140.1320 O   0  0  0  0  0  0  0  0  0  0  0  0
  183.3870  177.6020  136.7260 N   0  0  0  0  0  0  0  0  0  0  0  0
  182.6500  175.7290  139.7560 F   0  0  0  0  0  0  0  0  0  0  0  0
  187.1830  176.9370  135.9320 C   0  0  0  0  0  2  0  0  0  0  0  0
  185.8170  178.4250  140.0900 C   0  0  0  0  0  0  0  0  0  0  0  0
  183.1330  179.5240  138.8420 C   0  0  1  0  0  3  0  0  0  0  0  0
  182.1090  178.3810  138.6570 C   0  0  0  0  0  2  0  0  0  0  0  0
  187.4300  177.4170  138.3520 C   0  0  0  0  0  0  0  0  0  0  0  0
  184.3940  175.4450  136.5100 C   0  0  0  0  0  0  0  0  0  0  0  0
  189.0720  177.5510  140.4830 C   0  0  1  0  0  3  0  0  0  0  0  0
  183.8900  175.1400  137.8010 C   0  0  0  0  0  3  0  0  0  0  0  0
  186.2730  177.8110  135.5040 C   0  0  0  0  0  2  0  0  0  0  0  0
  182.8150  177.2920  137.9220 C   0  0  0  0  0  0  0  0  0  0  0  0
  186.1370  178.1370  138.6010 C   0  0  0  0  0  2  0  0  0  0  0  0
  185.0860  174.4470  135.7170 N   0  0  0  0  0  0  0  0  0  0  0  0
  185.7270  173.4720  136.2810 C   0  0  0  0  0  2  0  0  0  0  0  0
  182.4560  180.8520  138.4950 C   0  0  0  0  0  2  0  0  0  0  0  0
  180.9490  181.7240  137.0520 O   0  0  0  0  0  1  0  0  0  0  0  0
  181.1890  180.6240  137.8010 N   0  0  0  0  0  2  0  0  0  0  0  0
  1 20  2  0  0  0  0
  1 13  1  0  0  0  0
  2 19  1  0  0  0  0
  3 21  1  0  0  0  0
  5 10  2  0  0  0  0
  7 23  1  0  0  0  0
  7  1  1  0  0  0  0
  8  2  2  0  0  0  0
  8  5  1  0  0  0  0
  9 14  1  0  0  0  0
 10  3  1  0  0  0  0
 10 21  1  0  0  0  0
 11  6  1  0  0  0  0
 12  4  1  0  0  0  0
 13 24  2  0  0  0  0
 15  2  1  0  0  0  0
 16  4  1  0  0  0  0
 16  6  2  0  0  0  0
 17 28  1  1  0  0  0
 17 12  1  0  0  0  0
 18 17  1  0  0  0  0
 19 25  1  0  0  0  0
 19  3  2  0  0  0  0
 20 22  1  0  0  0  0
 21 11  1  6  0  0  0
 22  9  2  0  0  0  0
 23 15  1  0  0  0  0
 24  9  1  0  0  0  0
 24 18  1  0  0  0  0
 25 16  1  0  0  0  0
 26 27  2  0  0  0  0
 26 20  1  0  0  0  0
 29 30  1  0  0  0  0
 30 28  1  0  0  0  0
M  END
>  <MODEL>
3

>  <REMARK>
 VINA RESULT:      -5.4      2.991      4.302
  Name = 
  3 active torsions:
  status: ('A' for Active; 'I' for Inactive)
    1  A    between atoms: N_14  and  C_27
    2  A    between atoms: C_19  and  C_27
    3  A    between atoms: N_20  and  C_23
                            x       y       z     vdW  Elec       q    Type
                         _______ _______ _______ _____ _____    ______ ____

>  <TORSDO>
F 3

$$$$
=
 OpenBabel10222417383D

 30 34  0  0  1  0  0  0  0  0999 V2000
  183.0050  178.0470  137.5610 C   0  0  0  0  0  0  0  0  0  0  0  0
  183.2540  178.5610  141.5880 C   0  0  0  0  0  0  0  0  0  0  0  0
  181.2070  178.8020  142.5260 C   0  0  0  0  0  0  0  0  0  0  0  0
  178.9310  179.8290  139.1310 C   0  0  0  0  0  2  0  0  0  0  0  0
  183.0510  178.6960  144.1620 N   0  0  0  0  0  0  0  0  0  0  0  0
  179.0650  180.1450  141.5940 C   0  0  0  0  0  3  0  0  0  0  0  0
  184.3780  178.5130  138.0090 C   0  0  0  0  0  2  0  0  0  0  0  0
  183.8210  178.5270  142.9870 C   0  0  0  0  0  3  0  0  0  0  0  0
  180.2600  177.4580  137.3280 C   0  0  0  0  0  0  0  0  0  0  0  0
  181.7620  178.8090  143.8220 C   0  0  0  0  0  0  0  0  0  0  0  0
  179.6670  180.2390  143.0400 C   0  0  0  0  0  2  0  0  0  0  0  0
  179.0540  181.0530  138.4490 O   0  0  0  0  0  0  0  0  0  0  0  0
  182.1040  178.9460  137.0400 N   0  0  0  0  0  0  0  0  0  0  0  0
  178.9330  177.1810  137.2960 F   0  0  0  0  0  0  0  0  0  0  0  0
  184.0350  178.2020  140.3850 C   0  0  0  0  0  2  0  0  0  0  0  0
  179.7150  179.8420  140.4140 C   0  0  0  0  0  0  0  0  0  0  0  0
  180.0850  180.9370  137.4760 C   0  0  1  0  0  3  0  0  0  0  0  0
  179.8950  179.8040  136.4420 C   0  0  0  0  0  2  0  0  0  0  0  0
  181.8370  178.7560  141.3900 C   0  0  0  0  0  0  0  0  0  0  0  0
  182.5520  176.7690  137.9200 C   0  0  0  0  0  0  0  0  0  0  0  0
  180.3420  178.9350  143.6230 C   0  0  1  0  0  3  0  0  0  0  0  0
  181.1590  176.5120  137.8500 C   0  0  0  0  0  3  0  0  0  0  0  0
  184.1840  179.0750  139.3900 C   0  0  0  0  0  2  0  0  0  0  0  0
  180.7780  178.6820  136.8750 C   0  0  0  0  0  0  0  0  0  0  0  0
  181.2170  179.5020  140.2440 C   0  0  0  0  0  2  0  0  0  0  0  0
  183.4890  175.7360  138.3210 N   0  0  0  0  0  0  0  0  0  0  0  0
  183.3370  174.5090  137.9320 C   0  0  0  0  0  2  0  0  0  0  0  0
  180.2450  182.2630  136.7280 C   0  0  0  0  0  2  0  0  0  0  0  0
  180.9090  184.4010  137.0460 O   0  0  0  0  0  1  0  0  0  0  0  0
  181.2040  183.1320  137.4090 N   0  0  0  0  0  2  0  0  0  0  0  0
  1 20  1  0  0  0  0
  1  7  1  0  0  0  0
  2  8  1  0  0  0  0
  3 21  1  0  0  0  0
  3 10  2  0  0  0  0
  4 16  1  0  0  0  0
  6 11  1  0  0  0  0
  7 23  1  0  0  0  0
  8  5  2  0  0  0  0
  9 22  1  0  0  0  0
 10  5  1  0  0  0  0
 12  4  1  0  0  0  0
 13  1  2  0  0  0  0
 14  9  1  0  0  0  0
 15  2  1  0  0  0  0
 16  6  2  0  0  0  0
 17 28  1  6  0  0  0
 17 12  1  0  0  0  0
 18 24  1  0  0  0  0
 18 17  1  0  0  0  0
 19  2  2  0  0  0  0
 19  3  1  0  0  0  0
 20 26  1  0  0  0  0
 21 11  1  6  0  0  0
 21 10  1  0  0  0  0
 22 20  2  0  0  0  0
 23 15  1  0  0  0  0
 24 13  1  0  0  0  0
 24  9  2  0  0  0  0
 25 16  1  0  0  0  0
 25 19  1  0  0  0  0
 27 26  2  0  0  0  0
 28 30  1  0  0  0  0
 29 30  1  0  0  0  0
M  END
>  <MODEL>
4

>  <REMARK>
 VINA RESULT:      -5.3      2.271      3.537
  Name = 
  3 active torsions:
  status: ('A' for Active; 'I' for Inactive)
    1  A    between atoms: N_14  and  C_27
    2  A    between atoms: C_19  and  C_27
    3  A    between atoms: N_20  and  C_23
                            x       y       z     vdW  Elec       q    Type
                         _______ _______ _______ _____ _____    ______ ____

>  <TORSDO>
F 3

$$$$
=
 OpenBabel10222417383D

 30 34  0  0  1  0  0  0  0  0999 V2000
  179.8110  178.3560  139.8650 C   0  0  0  0  0  0  0  0  0  0  0  0
  182.0260  178.5590  143.2700 C   0  0  0  0  0  0  0  0  0  0  0  0
  184.1380  179.2620  142.8510 C   0  0  0  0  0  0  0  0  0  0  0  0
  184.3820  178.5100  138.7120 C   0  0  0  0  0  2  0  0  0  0  0  0
  183.6280  178.9980  145.2510 N   0  0  0  0  0  0  0  0  0  0  0  0
  185.7500  178.6400  140.7840 C   0  0  0  0  0  3  0  0  0  0  0  0
  179.2350  177.5160  140.9900 C   0  0  0  0  0  2  0  0  0  0  0  0
  182.3560  178.6490  144.7410 C   0  0  0  0  0  3  0  0  0  0  0  0
  181.4630  179.8470  138.1360 C   0  0  0  0  0  0  0  0  0  0  0  0
  184.4360  179.2990  144.2280 C   0  0  0  0  0  0  0  0  0  0  0  0
  186.1310  178.6090  142.3060 C   0  0  0  0  0  2  0  0  0  0  0  0
  184.4180  177.2200  138.1530 O   0  0  0  0  0  0  0  0  0  0  0  0
  180.5550  177.7650  138.8700 N   0  0  0  0  0  0  0  0  0  0  0  0
  182.3080  180.5760  137.3660 F   0  0  0  0  0  0  0  0  0  0  0  0
  180.6520  178.3750  142.7550 C   0  0  0  0  0  2  0  0  0  0  0  0
  184.5080  178.4560  140.2080 C   0  0  0  0  0  0  0  0  0  0  0  0
  183.0840  176.7660  137.9540 C   0  0  1  0  0  3  0  0  0  0  0  0
  182.2020  177.6730  137.0670 C   0  0  0  0  0  2  0  0  0  0  0  0
  183.0380  178.8590  142.2850 C   0  0  0  0  0  0  0  0  0  0  0  0
  179.8200  179.7540  139.9730 C   0  0  0  0  0  0  0  0  0  0  0  0
  185.4220  179.6630  143.2450 C   0  0  1  0  0  3  0  0  0  0  0  0
  180.7020  180.4820  139.1330 C   0  0  0  0  0  3  0  0  0  0  0  0
  180.3570  177.3360  141.9750 C   0  0  0  0  0  2  0  0  0  0  0  0
  181.3330  178.4570  137.9920 C   0  0  0  0  0  0  0  0  0  0  0  0
  183.1740  178.1880  140.9500 C   0  0  0  0  0  2  0  0  0  0  0  0
  178.9310  180.4320  140.8980 N   0  0  0  0  0  0  0  0  0  0  0  0
  179.0110  181.7110  141.0860 C   0  0  0  0  0  2  0  0  0  0  0  0
  183.0980  175.3570  137.3570 C   0  0  0  0  0  2  0  0  0  0  0  0
  181.8910  173.4600  137.1080 O   0  0  0  0  0  1  0  0  0  0  0  0
  181.7520  174.7850  137.3430 N   0  0  0  0  0  2  0  0  0  0  0  0
  1 20  1  0  0  0  0
  1  7  1  0  0  0  0
  2  8  1  0  0  0  0
  3 21  1  0  0  0  0
  3 10  2  0  0  0  0
  4 16  1  0  0  0  0
  6 11  1  0  0  0  0
  7 23  1  0  0  0  0
  8  5  2  0  0  0  0
  9 22  1  0  0  0  0
 10  5  1  0  0  0  0
 12  4  1  0  0  0  0
 13  1  2  0  0  0  0
 14  9  1  0  0  0  0
 15  2  1  0  0  0  0
 16  6  2  0  0  0  0
 16 25  1  0  0  0  0
 17 28  1  6  0  0  0
 17 12  1  0  0  0  0
 18 17  1  0  0  0  0
 18 24  1  0  0  0  0
 19  3  1  0  0  0  0
 19  2  2  0  0  0  0
 20 26  1  0  0  0  0
 21 11  1  6  0  0  0
 21 10  1  0  0  0  0
 22 20  2  0  0  0  0
 23 15  1  0  0  0  0
 24  9  2  0  0  0  0
 24 13  1  0  0  0  0
 25 19  1  0  0  0  0
 26 27  2  0  0  0  0
 29 30  1  0  0  0  0
 30 28  1  0  0  0  0
M  END
>  <MODEL>
5

>  <REMARK>
 VINA RESULT:      -5.0      2.719      5.138
  Name = 
  3 active torsions:
  status: ('A' for Active; 'I' for Inactive)
    1  A    between atoms: N_14  and  C_27
    2  A    between atoms: C_19  and  C_27
    3  A    between atoms: N_20  and  C_23
                            x       y       z     vdW  Elec       q    Type
                         _______ _______ _______ _____ _____    ______ ____

>  <TORSDO>
F 3

$$$$
=
 OpenBabel10222417383D

 30 34  0  0  1  0  0  0  0  0999 V2000
  180.6730  178.5020  139.0150 C   0  0  0  0  0  0  0  0  0  0  0  0
  184.6670  178.5170  139.7870 C   0  0  0  0  0  0  0  0  0  0  0  0
  185.8700  177.9050  137.9690 C   0  0  0  0  0  0  0  0  0  0  0  0
  182.8850  175.9940  135.6900 C   0  0  0  0  0  2  0  0  0  0  0  0
  187.2480  178.6280  139.8830 N   0  0  0  0  0  0  0  0  0  0  0  0
  185.3290  175.9970  136.1440 C   0  0  0  0  0  3  0  0  0  0  0  0
  180.9840  178.4280  140.4990 C   0  0  0  0  0  2  0  0  0  0  0  0
  185.9760  178.8410  140.4650 C   0  0  0  0  0  3  0  0  0  0  0  0
  180.7360  178.3940  136.2000 C   0  0  0  0  0  0  0  0  0  0  0  0
  187.0820  178.1750  138.6360 C   0  0  0  0  0  0  0  0  0  0  0  0
  186.6920  176.2120  136.8930 C   0  0  0  0  0  2  0  0  0  0  0  0
  182.2990  174.7650  136.0430 O   0  0  0  0  0  0  0  0  0  0  0  0
  180.3470  177.3630  138.3180 N   0  0  0  0  0  0  0  0  0  0  0  0
  180.8460  178.3440  134.8500 F   0  0  0  0  0  0  0  0  0  0  0  0
  183.3500  178.9140  140.3300 C   0  0  0  0  0  2  0  0  0  0  0  0
  184.0560  176.3110  136.5760 C   0  0  0  0  0  0  0  0  0  0  0  0
  181.1980  175.0120  136.9100 C   0  0  1  0  0  3  0  0  0  0  0  0
  180.1040  175.9440  136.3420 C   0  0  0  0  0  2  0  0  0  0  0  0
  184.6640  177.9710  138.4500 C   0  0  0  0  0  0  0  0  0  0  0  0
  180.9770  179.6680  138.2980 C   0  0  0  0  0  0  0  0  0  0  0  0
  187.0730  177.6950  137.2790 C   0  0  1  0  0  3  0  0  0  0  0  0
  181.0600  179.5780  136.8840 C   0  0  0  0  0  3  0  0  0  0  0  0
  182.4210  177.9950  140.5900 C   0  0  0  0  0  2  0  0  0  0  0  0
  180.3270  177.2850  136.9580 C   0  0  0  0  0  0  0  0  0  0  0  0
  183.6720  176.9760  137.9230 C   0  0  0  0  0  2  0  0  0  0  0  0
  181.1700  180.9330  138.9840 N   0  0  0  0  0  0  0  0  0  0  0  0
  181.5670  181.9860  138.3440 C   0  0  0  0  0  2  0  0  0  0  0  0
  180.5500  173.6860  137.3180 C   0  0  0  0  0  2  0  0  0  0  0  0
  179.6810  173.7940  139.4040 O   0  0  0  0  0  1  0  0  0  0  0  0
  179.3370  173.9200  138.1020 N   0  0  0  0  0  2  0  0  0  0  0  0
  1  7  1  0  0  0  0
  2 15  1  0  0  0  0
  2  8  1  0  0  0  0
  3 19  1  0  0  0  0
  3 10  2  0  0  0  0
  4 12  1  0  0  0  0
  4 16  1  0  0  0  0
  5  8  2  0  0  0  0
  6 16  2  0  0  0  0
  6 11  1  0  0  0  0
  7 23  1  0  0  0  0
  9 22  2  0  0  0  0
  9 24  1  0  0  0  0
 10  5  1  0  0  0  0
 12 17  1  0  0  0  0
 13  1  1  0  0  0  0
 14  9  1  0  0  0  0
 15 23  1  0  0  0  0
 16 25  1  0  0  0  0
 17 28  1  6  0  0  0
 18 17  1  0  0  0  0
 18 24  1  0  0  0  0
 19  2  2  0  0  0  0
 20 26  1  0  0  0  0
 20  1  2  0  0  0  0
 21 11  1  1  0  0  0
 21  3  1  0  0  0  0
 21 10  1  0  0  0  0
 22 20  1  0  0  0  0
 24 13  2  0  0  0  0
 25 19  1  0  0  0  0
 27 26  2  0  0  0  0
 28 30  1  0  0  0  0
 30 29  1  0  0  0  0
M  END
>  <MODEL>
6

>  <REMARK>
 VINA RESULT:      -4.9      3.258      5.749
  Name = 
  3 active torsions:
  status: ('A' for Active; 'I' for Inactive)
    1  A    between atoms: N_14  and  C_27
    2  A    between atoms: C_19  and  C_27
    3  A    between atoms: N_20  and  C_23
                            x       y       z     vdW  Elec       q    Type
                         _______ _______ _______ _____ _____    ______ ____

>  <TORSDO>
F 3

$$$$
=
 OpenBabel10222417383D

 30 34  0  0  1  0  0  0  0  0999 V2000
  180.4230  176.9200  137.6610 C   0  0  0  0  0  0  0  0  0  0  0  0
  183.7820  175.7500  135.6880 C   0  0  0  0  0  0  0  0  0  0  0  0
  185.6540  176.2550  136.8560 C   0  0  0  0  0  0  0  0  0  0  0  0
  184.1400  179.1670  139.4980 C   0  0  0  0  0  2  0  0  0  0  0  0
  186.0760  174.9490  134.8060 N   0  0  0  0  0  0  0  0  0  0  0  0
  186.2030  178.4590  138.3060 C   0  0  0  0  0  3  0  0  0  0  0  0
  180.1890  176.7150  136.1760 C   0  0  0  0  0  2  0  0  0  0  0  0
  184.6650  175.0060  134.7160 C   0  0  0  0  0  3  0  0  0  0  0  0
  181.5120  177.3750  140.2200 C   0  0  0  0  0  0  0  0  0  0  0  0
  186.4640  175.5890  135.9140 C   0  0  0  0  0  0  0  0  0  0  0  0
  187.1320  177.7960  137.2290 C   0  0  0  0  0  2  0  0  0  0  0  0
  183.7280  180.4500  139.0940 O   0  0  0  0  0  0  0  0  0  0  0  0
  180.6070  178.1860  138.1650 N   0  0  0  0  0  0  0  0  0  0  0  0
  182.1070  177.5700  141.4220 F   0  0  0  0  0  0  0  0  0  0  0  0
  182.3060  175.6470  135.6870 C   0  0  0  0  0  2  0  0  0  0  0  0
  184.8240  178.4390  138.3760 C   0  0  0  0  0  0  0  0  0  0  0  0
  182.3640  180.3920  138.6940 C   0  0  1  0  0  3  0  0  0  0  0  0
  181.3820  179.8640  139.7640 C   0  0  0  0  0  2  0  0  0  0  0  0
  184.3690  176.4470  136.8070 C   0  0  0  0  0  0  0  0  0  0  0  0
  180.7200  175.8190  138.4780 C   0  0  0  0  0  0  0  0  0  0  0  0
  187.0400  176.2270  137.0690 C   0  0  1  0  0  3  0  0  0  0  0  0
  181.3220  176.0680  139.7380 C   0  0  0  0  0  3  0  0  0  0  0  0
  181.5530  176.7370  135.5440 C   0  0  0  0  0  2  0  0  0  0  0  0
  181.0920  178.4430  139.4120 C   0  0  0  0  0  0  0  0  0  0  0  0
  183.8560  177.7290  137.3950 C   0  0  0  0  0  2  0  0  0  0  0  0
  180.3930  174.4700  138.0530 N   0  0  0  0  0  0  0  0  0  0  0  0
  179.6450  173.7040  138.7810 C   0  0  0  0  0  2  0  0  0  0  0  0
  181.8960  181.7760  138.2380 C   0  0  0  0  0  2  0  0  0  0  0  0
  180.8250  181.1270  136.3550 O   0  0  0  0  0  1  0  0  0  0  0  0
  180.6010  181.6910  137.5640 N   0  0  0  0  0  2  0  0  0  0  0  0
  1 13  2  0  0  0  0
  1 20  1  0  0  0  0
  2 19  1  0  0  0  0
  3 21  1  0  0  0  0
  5 10  2  0  0  0  0
  6 16  2  0  0  0  0
  7  1  1  0  0  0  0
  8  5  1  0  0  0  0
  8  2  2  0  0  0  0
  9 14  1  0  0  0  0
 10  3  1  0  0  0  0
 10 21  1  0  0  0  0
 11  6  1  0  0  0  0
 12  4  1  0  0  0  0
 13 24  1  0  0  0  0
 15  2  1  0  0  0  0
 16  4  1  0  0  0  0
 17 28  1  1  0  0  0
 17 12  1  0  0  0  0
 17 18  1  0  0  0  0
 19  3  2  0  0  0  0
 19 25  1  0  0  0  0
 20 22  2  0  0  0  0
 21 11  1  6  0  0  0
 22  9  1  0  0  0  0
 23 15  1  0  0  0  0
 23  7  1  0  0  0  0
 24 18  1  0  0  0  0
 24  9  2  0  0  0  0
 25 16  1  0  0  0  0
 26 20  1  0  0  0  0
 26 27  2  0  0  0  0
 29 30  1  0  0  0  0
 30 28  1  0  0  0  0
M  END
>  <MODEL>
7

>  <REMARK>
 VINA RESULT:      -4.8      3.200      4.853
  Name = 
  3 active torsions:
  status: ('A' for Active; 'I' for Inactive)
    1  A    between atoms: N_14  and  C_27
    2  A    between atoms: C_19  and  C_27
    3  A    between atoms: N_20  and  C_23
                            x       y       z     vdW  Elec       q    Type
                         _______ _______ _______ _____ _____    ______ ____

>  <TORSDO>
F 3

$$$$
=
 OpenBabel10222417383D

 30 34  0  0  1  0  0  0  0  0999 V2000
  180.9940  178.6850  139.9820 C   0  0  0  0  0  0  0  0  0  0  0  0
  184.7870  178.0390  138.6620 C   0  0  0  0  0  0  0  0  0  0  0  0
  184.8140  176.7420  136.8050 C   0  0  0  0  0  0  0  0  0  0  0  0
  180.9840  175.0020  137.0370 C   0  0  0  0  0  2  0  0  0  0  0  0
  187.0300  177.6150  137.4490 N   0  0  0  0  0  0  0  0  0  0  0  0
  183.2950  174.5960  136.2160 C   0  0  0  0  0  3  0  0  0  0  0  0
  182.0390  178.9250  141.0570 C   0  0  0  0  0  2  0  0  0  0  0  0
  186.2710  178.2360  138.4690 C   0  0  0  0  0  3  0  0  0  0  0  0
  179.5540  177.8560  137.7070 C   0  0  0  0  0  0  0  0  0  0  0  0
  186.2070  176.9070  136.6680 C   0  0  0  0  0  0  0  0  0  0  0  0
  184.8560  174.6970  136.0900 C   0  0  0  0  0  2  0  0  0  0  0  0
  180.6120  174.0580  138.0110 O   0  0  0  0  0  0  0  0  0  0  0  0
  180.2910  177.5030  139.9500 N   0  0  0  0  0  0  0  0  0  0  0  0
  178.9310  177.4420  136.5760 F   0  0  0  0  0  0  0  0  0  0  0  0
  183.9780  178.8330  139.6110 C   0  0  0  0  0  2  0  0  0  0  0  0
  182.4600  175.2750  137.0820 C   0  0  0  0  0  0  0  0  0  0  0  0
  180.1500  174.7460  139.1680 C   0  0  1  0  0  3  0  0  0  0  0  0
  178.9700  175.7170  138.9330 C   0  0  0  0  0  2  0  0  0  0  0  0
  184.0500  177.1860  137.7600 C   0  0  0  0  0  0  0  0  0  0  0  0
  180.9310  179.5380  138.8710 C   0  0  0  0  0  0  0  0  0  0  0  0
  185.4580  176.1120  135.7300 C   0  0  1  0  0  3  0  0  0  0  0  0
  180.2490  179.0770  137.7150 C   0  0  0  0  0  3  0  0  0  0  0  0
  183.2820  178.2310  140.5750 C   0  0  0  0  0  2  0  0  0  0  0  0
  179.5520  177.0890  138.8830 C   0  0  0  0  0  0  0  0  0  0  0  0
  182.8810  176.3260  138.1410 C   0  0  0  0  0  2  0  0  0  0  0  0
  181.5210  180.8630  138.9180 N   0  0  0  0  0  0  0  0  0  0  0  0
  180.8540  181.9050  138.5340 C   0  0  0  0  0  2  0  0  0  0  0  0
  179.7500  173.7390  140.2480 C   0  0  0  0  0  2  0  0  0  0  0  0
  179.1960  173.5840  142.4360 O   0  0  0  0  0  1  0  0  0  0  0  0
  179.0950  174.4110  141.3700 N   0  0  0  0  0  2  0  0  0  0  0  0
  1  7  1  0  0  0  0
  2 15  1  0  0  0  0
  3 19  1  0  0  0  0
  4 16  1  0  0  0  0
  4 12  1  0  0  0  0
  5  8  2  0  0  0  0
  6 16  2  0  0  0  0
  8  2  1  0  0  0  0
  9 22  2  0  0  0  0
  9 24  1  0  0  0  0
 10  3  2  0  0  0  0
 10  5  1  0  0  0  0
 11  6  1  0  0  0  0
 12 17  1  0  0  0  0
 13  1  1  0  0  0  0
 14  9  1  0  0  0  0
 15 23  1  0  0  0  0
 16 25  1  0  0  0  0
 17 28  1  1  0  0  0
 18 17  1  0  0  0  0
 19 25  1  0  0  0  0
 19  2  2  0  0  0  0
 20 26  1  0  0  0  0
 20  1  2  0  0  0  0
 21 11  1  1  0  0  0
 21 10  1  0  0  0  0
 21  3  1  0  0  0  0
 22 20  1  0  0  0  0
 23  7  1  0  0  0  0
 24 18  1  0  0  0  0
 24 13  2  0  0  0  0
 27 26  2  0  0  0  0
 28 30  1  0  0  0  0
 30 29  1  0  0  0  0
M  END
>  <MODEL>
8

>  <REMARK>
 VINA RESULT:      -4.7      3.192      5.672
  Name = 
  3 active torsions:
  status: ('A' for Active; 'I' for Inactive)
    1  A    between atoms: N_14  and  C_27
    2  A    between atoms: C_19  and  C_27
    3  A    between atoms: N_20  and  C_23
                            x       y       z     vdW  Elec       q    Type
                         _______ _______ _______ _____ _____    ______ ____

>  <TORSDO>
F 3

$$$$
=
 OpenBabel10222417383D

 30 34  0  0  1  0  0  0  0  0999 V2000
  190.2890  175.2940  137.0230 C   0  0  0  0  0  0  0  0  0  0  0  0
  186.7600  173.6890  135.7920 C   0  0  0  0  0  0  0  0  0  0  0  0
  185.1420  175.2630  135.6240 C   0  0  0  0  0  0  0  0  0  0  0  0
  186.8080  178.3230  137.9950 C   0  0  0  0  0  2  0  0  0  0  0  0
  184.4530  173.0310  134.8300 N   0  0  0  0  0  0  0  0  0  0  0  0
  184.6430  177.3580  137.2430 C   0  0  0  0  0  3  0  0  0  0  0  0
  190.2150  173.7950  137.2510 C   0  0  0  0  0  2  0  0  0  0  0  0
  185.7900  172.7150  135.1690 C   0  0  0  0  0  3  0  0  0  0  0  0
  189.7410  178.0240  136.5990 C   0  0  0  0  0  0  0  0  0  0  0  0
  184.2380  174.3270  135.0820 C   0  0  0  0  0  0  0  0  0  0  0  0
  183.5940  176.3170  136.7160 C   0  0  0  0  0  2  0  0  0  0  0  0
  186.9500  178.2390  139.3910 O   0  0  0  0  0  0  0  0  0  0  0  0
  190.0580  176.1650  138.0610 N   0  0  0  0  0  0  0  0  0  0  0  0
  189.4040  179.3170  136.3670 F   0  0  0  0  0  0  0  0  0  0  0  0
  188.2000  173.4000  135.9690 C   0  0  0  0  0  2  0  0  0  0  0  0
  185.9940  177.1770  137.4620 C   0  0  0  0  0  0  0  0  0  0  0  0
  188.1880  177.6060  139.6920 C   0  0  1  0  0  3  0  0  0  0  0  0
  189.4420  178.2890  139.1010 C   0  0  0  0  0  2  0  0  0  0  0  0
  186.3480  175.0460  136.0580 C   0  0  0  0  0  0  0  0  0  0  0  0
  190.3250  175.7980  135.7150 C   0  0  0  0  0  0  0  0  0  0  0  0
  183.8520  175.6980  135.2850 C   0  0  1  0  0  3  0  0  0  0  0  0
  189.9890  177.1620  135.5170 C   0  0  0  0  0  3  0  0  0  0  0  0
  188.7540  173.4470  137.1790 C   0  0  0  0  0  2  0  0  0  0  0  0
  189.8290  177.4980  137.8970 C   0  0  0  0  0  0  0  0  0  0  0  0
  186.8060  175.8790  137.2190 C   0  0  0  0  0  2  0  0  0  0  0  0
  190.7240  174.9520  134.6040 N   0  0  0  0  0  0  0  0  0  0  0  0
  191.8780  174.3650  134.5940 C   0  0  0  0  0  2  0  0  0  0  0  0
  188.3590  177.4930  141.2090 C   0  0  0  0  0  2  0  0  0  0  0  0
  189.9260  176.2280  142.2400 O   0  0  0  0  0  1  0  0  0  0  0  0
  189.7740  177.3920  141.5660 N   0  0  0  0  0  2  0  0  0  0  0  0
  1  7  1  0  0  0  0
  1 13  1  0  0  0  0
  2 15  1  0  0  0  0
  2 19  1  0  0  0  0
  3 19  2  0  0  0  0
  4 12  1  0  0  0  0
  5 10  2  0  0  0  0
  5  8  1  0  0  0  0
  6 16  2  0  0  0  0
  8  2  2  0  0  0  0
  9 24  1  0  0  0  0
 10 21  1  0  0  0  0
 10  3  1  0  0  0  0
 11  6  1  0  0  0  0
 12 17  1  0  0  0  0
 14  9  1  0  0  0  0
 15 23  1  0  0  0  0
 16  4  1  0  0  0  0
 17 28  1  1  0  0  0
 18 17  1  0  0  0  0
 19 25  1  0  0  0  0
 20  1  2  0  0  0  0
 21  3  1  0  0  0  0
 21 11  1  1  0  0  0
 22 20  1  0  0  0  0
 22  9  2  0  0  0  0
 23  7  1  0  0  0  0
 24 13  2  0  0  0  0
 24 18  1  0  0  0  0
 25 16  1  0  0  0  0
 26 20  1  0  0  0  0
 27 26  2  0  0  0  0
 28 30  1  0  0  0  0
 30 29  1  0  0  0  0
M  END
>  <MODEL>
9

>  <REMARK>
 VINA RESULT:      -4.6      5.787      9.042
  Name = 
  3 active torsions:
  status: ('A' for Active; 'I' for Inactive)
    1  A    between atoms: N_14  and  C_27
    2  A    between atoms: C_19  and  C_27
    3  A    between atoms: N_20  and  C_23
                            x       y       z     vdW  Elec       q    Type
                         _______ _______ _______ _____ _____    ______ ____

>  <TORSDO>
F 3

$$$$
