=
 OpenBabel10222416213D

 62 68  0  0  1  0  0  0  0  0999 V2000
  186.9560  174.8250  135.5960 C   0  0  2  0  0  3  0  0  0  0  0  0
  187.3460  177.4780  137.9110 C   0  0  1  0  0  3  0  0  0  0  0  0
  187.1180  175.3070  136.9060 O   0  0  0  0  0  0  0  0  0  0  0  0
  184.9690  177.9210  138.0580 N   0  0  0  0  0  0  0  0  0  0  0  0
  185.4760  174.5730  135.2550 C   0  0  0  0  0  2  0  0  0  0  0  0
  186.2960  178.5130  138.2680 C   0  0  0  0  0  2  0  0  0  0  0  0
  184.8070  175.8430  134.9960 N   0  0  0  0  0  2  0  0  0  0  0  0
  186.6530  176.6290  136.8890 C   0  0  1  0  0  3  0  0  0  0  0  0
  185.2140  176.6570  137.3460 C   0  0  2  0  0  3  0  0  0  0  0  0
  184.1860  176.3400  136.2270 C   0  0  1  0  0  3  0  0  0  0  0  0
  189.2720  171.2930  135.0060 N   0  0  0  0  0  0  0  0  0  0  0  0
  187.7850  173.5950  135.3970 C   0  0  0  0  0  0  0  0  0  0  0  0
  189.9030  172.4990  135.0030 C   0  0  0  0  0  0  0  0  0  0  0  0
  189.1690  173.6730  135.1850 C   0  0  0  0  0  3  0  0  0  0  0  0
  187.1600  172.3460  135.3930 C   0  0  0  0  0  3  0  0  0  0  0  0
  187.9270  171.1950  135.1920 C   0  0  0  0  0  3  0  0  0  0  0  0
  191.3800  172.5680  134.8240 C   0  0  0  0  0  2  0  0  0  0  0  0
  192.0360  172.8040  136.1020 N   0  0  0  0  0  2  0  0  0  0  0  0
  193.8300  174.3030  136.7140 C   0  0  0  0  0  2  0  0  0  0  0  0
  192.6240  174.6430  137.5660 C   0  0  0  0  0  2  0  0  0  0  0  0
  192.4360  174.1990  136.1290 C   0  0  0  0  0  3  0  0  0  0  0  0
  188.5820  178.1160  137.3540 C   0  0  0  0  0  0  0  0  0  0  0  0
  188.7610  179.3220  137.4430 O   0  0  0  0  0  0  0  0  0  0  0  0
  189.6040  177.2680  136.6760 C   0  0  0  0  0  1  0  0  0  0  0  0
  183.2700  177.5110  135.8920 C   0  0  0  0  0  2  0  0  0  0  0  0
  182.1900  177.0470  134.9330 C   0  0  0  0  0  2  0  0  0  0  0  0
  180.9600  177.9220  135.0680 C   0  0  0  0  0  2  0  0  0  0  0  0
  180.2790  177.6090  136.3900 C   0  0  2  0  0  3  0  0  0  0  0  0
  179.4580  176.4880  136.2320 O   0  0  0  0  0  0  0  0  0  0  0  0
  179.9980  175.5170  137.0760 C   0  0  0  0  0  2  0  0  0  0  0  0
  179.6890  173.3390  136.8930 C   0  0  0  0  0  1  0  0  0  0  0  0
  179.0550  174.5150  137.2960 O   0  0  0  0  0  0  0  0  0  0  0  0
  179.4950  178.7160  136.8200 O   0  0  0  0  0  0  0  0  0  0  0  0
  179.7660  181.1870  139.5870 C   0  0  0  0  0  3  0  0  0  0  0  0
  179.9860  178.0280  141.6520 C   0  0  0  0  0  1  0  0  0  0  0  0
  179.8530  178.9400  140.4880 C   0  0  0  0  0  0  0  0  0  0  0  0
  179.6310  180.6620  138.3010 C   0  0  0  0  0  3  0  0  0  0  0  0
  179.7130  178.4150  139.2020 C   0  0  0  0  0  3  0  0  0  0  0  0
  179.8820  180.3250  140.6810 C   0  0  0  0  0  3  0  0  0  0  0  0
  179.6080  179.2700  138.0990 C   0  0  0  0  0  0  0  0  0  0  0  0
  184.3910  177.6810  139.3940 C   0  0  2  0  0  3  0  0  0  0  0  0
  182.6730  175.9150  139.5050 C   0  0  0  0  0  2  0  0  0  0  0  0
  182.9590  177.2040  139.3480 C   0  0  0  0  0  3  0  0  0  0  0  0
  184.5100  178.9590  140.2470 C   0  0  1  0  0  3  0  0  0  0  0  0
  183.3850  180.4580  139.0460 C   0  0  0  0  0  1  0  0  0  0  0  0
  183.3290  179.7160  140.2300 O   0  0  0  0  0  0  0  0  0  0  0  0
  184.9560  178.6670  141.6770 C   0  0  0  0  0  2  0  0  0  0  0  0
  186.4460  178.9030  141.8890 C   0  0  0  0  0  2  0  0  0  0  0  0
  188.8220  176.3900  143.2520 C   0  0  0  0  0  2  0  0  0  0  0  0
  186.9580  177.9580  142.8630 N   0  0  0  0  0  0  0  0  0  0  0  0
  186.5940  178.1130  144.2380 C   0  0  0  0  0  3  0  0  0  0  0  0
  188.9790  177.9140  145.0990 C   0  0  2  0  0  3  0  0  0  0  0  0
  186.9240  178.1790  146.6340 C   0  0  0  0  0  2  0  0  0  0  0  0
  189.0770  177.3080  147.5600 C   0  0  0  0  0  2  0  0  0  0  0  0
  187.6270  176.7540  142.3780 C   0  0  0  0  0  2  0  0  0  0  0  0
  189.6270  176.9990  146.1670 C   0  0  2  0  0  3  0  0  0  0  0  0
  187.5570  177.1650  147.5820 C   0  0  0  0  0  2  0  0  0  0  0  0
  187.4610  177.9970  145.2540 C   0  0  0  0  0  0  0  0  0  0  0  0
  189.4590  177.6050  143.7460 N   0  0  0  0  0  2  0  0  0  0  0  0
  191.7010  176.6680  147.5520 C   0  0  0  0  0  1  0  0  0  0  0  0
  191.7560  176.3880  145.1790 O   0  0  0  0  0  1  0  0  0  0  0  0
  191.1550  177.1140  146.2120 C   0  0  1  0  0  3  0  0  0  0  0  0
  1 12  1  1  0  0  0
  1  3  1  0  0  0  0
  2 22  1  6  0  0  0
  2  6  1  0  0  0  0
  4  6  1  0  0  0  0
  4 41  1  0  0  0  0
  5  1  1  0  0  0  0
  7  5  1  0  0  0  0
  7 10  1  0  0  0  0
  8  3  1  1  0  0  0
  8  9  1  0  0  0  0
  8  2  1  0  0  0  0
  9  4  1  6  0  0  0
 10 25  1  6  0  0  0
 10  9  1  0  0  0  0
 11 16  1  0  0  0  0
 13 11  2  0  0  0  0
 13 14  1  0  0  0  0
 14 12  2  0  0  0  0
 15 12  1  0  0  0  0
 16 15  2  0  0  0  0
 17 13  1  0  0  0  0
 17 18  1  0  0  0  0
 18 21  1  0  0  0  0
 19 20  1  0  0  0  0
 21 19  1  0  0  0  0
 21 20  1  0  0  0  0
 22 23  2  0  0  0  0
 24 22  1  0  0  0  0
 26 27  1  0  0  0  0
 26 25  1  0  0  0  0
 28 27  1  6  0  0  0
 28 33  1  0  0  0  0
 29 28  1  0  0  0  0
 29 30  1  0  0  0  0
 30 32  1  0  0  0  0
 31 32  1  0  0  0  0
 33 40  1  0  0  0  0
 34 39  1  0  0  0  0
 36 39  2  0  0  0  0
 36 35  1  0  0  0  0
 37 34  2  0  0  0  0
 38 36  1  0  0  0  0
 40 37  1  0  0  0  0
 40 38  2  0  0  0  0
 41 43  1  6  0  0  0
 41 44  1  0  0  0  0
 43 42  2  0  0  0  0
 44 47  1  1  0  0  0
 45 46  1  0  0  0  0
 46 44  1  0  0  0  0
 47 48  1  0  0  0  0
 48 50  1  0  0  0  0
 49 59  1  0  0  0  0
 50 51  1  0  0  0  0
 51 58  2  0  0  0  0
 52 59  1  6  0  0  0
 52 58  1  0  0  0  0
 52 56  1  0  0  0  0
 53 57  1  0  0  0  0
 54 57  1  0  0  0  0
 55 50  1  0  0  0  0
 55 49  1  0  0  0  0
 56 62  1  1  0  0  0
 56 54  1  0  0  0  0
 58 53  1  0  0  0  0
 61 62  1  0  0  0  0
 62 60  1  1  0  0  0
M  END
>  <MODEL>
1

>  <REMARK>
 VINA RESULT:      -6.1      0.000      0.000
  Name = 
  22 active torsions:
  status: ('A' for Active; 'I' for Inactive)
    1  A    between atoms: O_1  and  C_17
    2  A    between atoms: O_1  and  C_61
    3  A    between atoms: C_4  and  C_5
    4  A    between atoms: N_8  and  C_18
    5  A    between atoms: C_9  and  C_30
    6  A    between atoms: C_10  and  C_11
    7  A    between atoms: C_16  and  C_59
    8  A    between atoms: C_16  and  C_62
    9  A    between atoms: C_17  and  O_36
   10  A    between atoms: C_17  and  C_62
   11  A    between atoms: C_18  and  C_54
   12  A    between atoms: N_19  and  C_57
   13  A    between atoms: N_21  and  C_30
   14  A    between atoms: N_21  and  C_39
   15  A    between atoms: C_35  and  O_36
   16  A    between atoms: C_35  and  O_42
   17  A    between atoms: C_41  and  C_54
   18  A    between atoms: C_41  and  O_56
   19  A    between atoms: C_41  and  C_57
   20  A    between atoms: C_43  and  C_51
   21  A    between atoms: C_55  and  C_59
   22  A    between atoms: C_57  and  C_60
                            x       y       z     vdW  Elec       q    Type
                         _______ _______ _______ _____ _____    ______ ____

>  <TORSDO>
F 22

$$$$
=
 OpenBabel10222416213D

 62 68  0  0  1  0  0  0  0  0999 V2000
  187.1980  175.4340  135.9420 C   0  0  2  0  0  3  0  0  0  0  0  0
  187.0380  177.7510  138.6180 C   0  0  1  0  0  3  0  0  0  0  0  0
  187.1370  175.7350  137.3140 O   0  0  0  0  0  0  0  0  0  0  0  0
  184.6340  178.0120  138.4680 N   0  0  0  0  0  0  0  0  0  0  0  0
  185.8060  175.1370  135.3560 C   0  0  0  0  0  2  0  0  0  0  0  0
  185.8650  178.6540  138.9490 C   0  0  0  0  0  2  0  0  0  0  0  0
  185.0730  176.3840  135.1700 N   0  0  0  0  0  2  0  0  0  0  0  0
  186.5680  177.0130  137.4010 C   0  0  1  0  0  3  0  0  0  0  0  0
  185.0820  176.8800  137.6410 C   0  0  2  0  0  3  0  0  0  0  0  0
  184.2480  176.6590  136.3500 C   0  0  1  0  0  3  0  0  0  0  0  0
  189.8670  172.1840  135.2400 N   0  0  0  0  0  0  0  0  0  0  0  0
  188.1490  174.3020  135.7080 C   0  0  0  0  0  0  0  0  0  0  0  0
  190.3870  173.4060  135.5360 C   0  0  0  0  0  0  0  0  0  0  0  0
  189.5380  174.4910  135.7610 C   0  0  0  0  0  3  0  0  0  0  0  0
  187.6400  173.0390  135.4000 C   0  0  0  0  0  3  0  0  0  0  0  0
  188.5230  171.9820  135.1650 C   0  0  0  0  0  3  0  0  0  0  0  0
  191.8620  173.5860  135.6370 C   0  0  0  0  0  2  0  0  0  0  0  0
  192.5530  172.4240  135.0950 N   0  0  0  0  0  2  0  0  0  0  0  0
  194.7250  171.3970  134.8450 C   0  0  0  0  0  2  0  0  0  0  0  0
  194.3770  171.4040  136.3190 C   0  0  0  0  0  2  0  0  0  0  0  0
  193.9570  172.5610  135.4360 C   0  0  0  0  0  3  0  0  0  0  0  0
  188.2800  178.5420  138.3380 C   0  0  0  0  0  0  0  0  0  0  0  0
  188.4890  179.0120  137.2290 O   0  0  0  0  0  0  0  0  0  0  0  0
  189.2770  178.7520  139.4270 C   0  0  0  0  0  1  0  0  0  0  0  0
  183.2910  177.8030  136.0400 C   0  0  0  0  0  2  0  0  0  0  0  0
  182.5090  177.4780  134.7810 C   0  0  0  0  0  2  0  0  0  0  0  0
  181.1430  178.1330  134.8310 C   0  0  0  0  0  2  0  0  0  0  0  0
  180.2680  177.3670  135.8080 C   0  0  2  0  0  3  0  0  0  0  0  0
  179.1440  176.8780  135.1350 O   0  0  0  0  0  0  0  0  0  0  0  0
  178.9550  175.5860  135.6310 C   0  0  0  0  0  2  0  0  0  0  0  0
  180.2830  173.8330  135.8140 C   0  0  0  0  0  1  0  0  0  0  0  0
  180.1250  175.1490  136.2480 O   0  0  0  0  0  0  0  0  0  0  0  0
  179.8530  178.2150  136.8730 O   0  0  0  0  0  0  0  0  0  0  0  0
  181.1870  181.5400  137.8750 C   0  0  0  0  0  3  0  0  0  0  0  0
  179.1020  182.6540  134.9250 C   0  0  0  0  0  1  0  0  0  0  0  0
  179.7520  181.7860  135.9390 C   0  0  0  0  0  0  0  0  0  0  0  0
  180.9560  180.1630  137.8660 C   0  0  0  0  0  3  0  0  0  0  0  0
  179.5250  180.4080  135.9270 C   0  0  0  0  0  3  0  0  0  0  0  0
  180.5800  182.3520  136.9140 C   0  0  0  0  0  3  0  0  0  0  0  0
  180.1190  179.5880  136.8940 C   0  0  0  0  0  0  0  0  0  0  0  0
  183.9010  177.5470  139.6610 C   0  0  2  0  0  3  0  0  0  0  0  0
  182.0140  175.9800  139.9240 C   0  0  0  0  0  2  0  0  0  0  0  0
  182.4980  177.0800  139.3550 C   0  0  0  0  0  3  0  0  0  0  0  0
  183.8830  178.6620  140.7250 C   0  0  1  0  0  3  0  0  0  0  0  0
  182.2820  179.1930  142.1780 C   0  0  0  0  0  1  0  0  0  0  0  0
  182.6250  179.2750  140.8240 O   0  0  0  0  0  0  0  0  0  0  0  0
  184.3670  178.1750  142.0880 C   0  0  0  0  0  2  0  0  0  0  0  0
  185.7150  178.7660  142.4810 C   0  0  0  0  0  2  0  0  0  0  0  0
  188.3620  176.3360  143.4310 C   0  0  0  0  0  2  0  0  0  0  0  0
  186.4150  177.8480  143.3590 N   0  0  0  0  0  0  0  0  0  0  0  0
  186.2910  178.0120  144.7750 C   0  0  0  0  0  3  0  0  0  0  0  0
  188.7950  177.8890  145.2090 C   0  0  2  0  0  3  0  0  0  0  0  0
  187.0310  178.1180  147.0760 C   0  0  0  0  0  2  0  0  0  0  0  0
  189.3360  177.3190  147.6200 C   0  0  0  0  0  2  0  0  0  0  0  0
  187.0240  176.6560  142.7750 C   0  0  0  0  0  2  0  0  0  0  0  0
  189.6450  177.0060  146.1560 C   0  0  2  0  0  3  0  0  0  0  0  0
  187.8490  177.1350  147.9080 C   0  0  0  0  0  2  0  0  0  0  0  0
  187.3250  177.9320  145.6250 C   0  0  0  0  0  0  0  0  0  0  0  0
  189.0400  177.5750  143.7950 N   0  0  0  0  0  2  0  0  0  0  0  0
  191.9430  176.5850  147.0880 C   0  0  0  0  0  1  0  0  0  0  0  0
  191.5590  176.5770  144.7290 O   0  0  0  0  0  1  0  0  0  0  0  0
  191.1540  177.1620  145.9320 C   0  0  1  0  0  3  0  0  0  0  0  0
  1 12  1  1  0  0  0
  1  3  1  0  0  0  0
  2 22  1  6  0  0  0
  2  6  1  0  0  0  0
  4  6  1  0  0  0  0
  4 41  1  0  0  0  0
  5  1  1  0  0  0  0
  7  5  1  0  0  0  0
  7 10  1  0  0  0  0
  8  3  1  1  0  0  0
  8  9  1  0  0  0  0
  8  2  1  0  0  0  0
  9  4  1  6  0  0  0
 10 25  1  6  0  0  0
 10  9  1  0  0  0  0
 11 13  1  0  0  0  0
 12 14  1  0  0  0  0
 13 17  1  0  0  0  0
 13 14  2  0  0  0  0
 15 12  2  0  0  0  0
 16 11  2  0  0  0  0
 16 15  1  0  0  0  0
 18 21  1  0  0  0  0
 18 17  1  0  0  0  0
 19 21  1  0  0  0  0
 19 20  1  0  0  0  0
 21 20  1  0  0  0  0
 22 24  1  0  0  0  0
 23 22  2  0  0  0  0
 26 27  1  0  0  0  0
 26 25  1  0  0  0  0
 28 27  1  6  0  0  0
 28 33  1  0  0  0  0
 29 30  1  0  0  0  0
 29 28  1  0  0  0  0
 30 32  1  0  0  0  0
 31 32  1  0  0  0  0
 33 40  1  0  0  0  0
 35 36  1  0  0  0  0
 36 39  1  0  0  0  0
 37 34  1  0  0  0  0
 38 36  2  0  0  0  0
 38 40  1  0  0  0  0
 39 34  2  0  0  0  0
 40 37  2  0  0  0  0
 41 43  1  6  0  0  0
 41 44  1  0  0  0  0
 43 42  2  0  0  0  0
 44 46  1  0  0  0  0
 44 47  1  1  0  0  0
 46 45  1  0  0  0  0
 47 48  1  0  0  0  0
 48 50  1  0  0  0  0
 49 59  1  0  0  0  0
 50 51  1  0  0  0  0
 51 58  2  0  0  0  0
 52 59  1  6  0  0  0
 52 58  1  0  0  0  0
 52 56  1  0  0  0  0
 53 57  1  0  0  0  0
 54 57  1  0  0  0  0
 55 50  1  0  0  0  0
 55 49  1  0  0  0  0
 56 62  1  1  0  0  0
 56 54  1  0  0  0  0
 58 53  1  0  0  0  0
 61 62  1  0  0  0  0
 62 60  1  1  0  0  0
M  END
>  <MODEL>
2

>  <REMARK>
 VINA RESULT:      -5.4      1.337      1.917
  Name = 
  22 active torsions:
  status: ('A' for Active; 'I' for Inactive)
    1  A    between atoms: O_1  and  C_17
    2  A    between atoms: O_1  and  C_61
    3  A    between atoms: C_4  and  C_5
    4  A    between atoms: N_8  and  C_18
    5  A    between atoms: C_9  and  C_30
    6  A    between atoms: C_10  and  C_11
    7  A    between atoms: C_16  and  C_59
    8  A    between atoms: C_16  and  C_62
    9  A    between atoms: C_17  and  O_36
   10  A    between atoms: C_17  and  C_62
   11  A    between atoms: C_18  and  C_54
   12  A    between atoms: N_19  and  C_57
   13  A    between atoms: N_21  and  C_30
   14  A    between atoms: N_21  and  C_39
   15  A    between atoms: C_35  and  O_36
   16  A    between atoms: C_35  and  O_42
   17  A    between atoms: C_41  and  C_54
   18  A    between atoms: C_41  and  O_56
   19  A    between atoms: C_41  and  C_57
   20  A    between atoms: C_43  and  C_51
   21  A    between atoms: C_55  and  C_59
   22  A    between atoms: C_57  and  C_60
                            x       y       z     vdW  Elec       q    Type
                         _______ _______ _______ _____ _____    ______ ____

>  <TORSDO>
F 22

$$$$
=
 OpenBabel10222416213D

 62 68  0  0  1  0  0  0  0  0999 V2000
  183.4540  175.8500  136.4730 C   0  0  2  0  0  3  0  0  0  0  0  0
  186.8520  176.8050  136.7840 C   0  0  1  0  0  3  0  0  0  0  0  0
  184.7620  175.6290  136.9380 O   0  0  0  0  0  0  0  0  0  0  0  0
  186.4420  178.2630  138.6750 N   0  0  0  0  0  0  0  0  0  0  0  0
  182.5700  176.5180  137.5410 C   0  0  0  0  0  2  0  0  0  0  0  0
  187.3790  177.9850  137.5780 C   0  0  0  0  0  2  0  0  0  0  0  0
  182.9010  177.9360  137.6380 N   0  0  0  0  0  2  0  0  0  0  0  0
  185.3700  176.8910  136.9900 C   0  0  1  0  0  3  0  0  0  0  0  0
  185.2550  177.4410  138.3910 C   0  0  2  0  0  3  0  0  0  0  0  0
  183.9020  178.1430  138.6890 C   0  0  1  0  0  3  0  0  0  0  0  0
  181.7110  172.2190  135.0730 N   0  0  0  0  0  0  0  0  0  0  0  0
  182.8590  174.5650  135.9880 C   0  0  0  0  0  0  0  0  0  0  0  0
  183.0670  172.3170  135.1270 C   0  0  0  0  0  0  0  0  0  0  0  0
  183.6660  173.4960  135.5720 C   0  0  0  0  0  3  0  0  0  0  0  0
  181.4700  174.4420  135.9210 C   0  0  0  0  0  3  0  0  0  0  0  0
  180.9080  173.2510  135.4550 C   0  0  0  0  0  3  0  0  0  0  0  0
  183.9150  171.1590  134.7270 C   0  0  0  0  0  2  0  0  0  0  0  0
  185.0240  170.9970  135.6580 N   0  0  0  0  0  2  0  0  0  0  0  0
  187.4390  170.9360  135.6310 C   0  0  0  0  0  2  0  0  0  0  0  0
  187.0100  172.3230  136.0610 C   0  0  0  0  0  2  0  0  0  0  0  0
  186.2010  171.5670  135.0280 C   0  0  0  0  0  3  0  0  0  0  0  0
  187.2160  176.9100  135.3340 C   0  0  0  0  0  0  0  0  0  0  0  0
  187.1640  177.9830  134.7500 O   0  0  0  0  0  0  0  0  0  0  0  0
  187.6400  175.6880  134.5940 C   0  0  0  0  0  1  0  0  0  0  0  0
  184.0390  179.6350  138.9680 C   0  0  0  0  0  2  0  0  0  0  0  0
  182.7360  180.3320  138.6240 C   0  0  0  0  0  2  0  0  0  0  0  0
  181.6430  179.8990  139.5800 C   0  0  0  0  0  2  0  0  0  0  0  0
  180.4610  180.8430  139.4320 C   0  0  2  0  0  3  0  0  0  0  0  0
  179.3940  180.3700  140.2010 O   0  0  0  0  0  0  0  0  0  0  0  0
  179.9600  179.4530  141.0880 C   0  0  0  0  0  2  0  0  0  0  0  0
  179.3250  180.4560  142.9480 C   0  0  0  0  0  1  0  0  0  0  0  0
  180.4560  180.1270  142.2020 O   0  0  0  0  0  0  0  0  0  0  0  0
  180.0630  180.9300  138.0680 O   0  0  0  0  0  0  0  0  0  0  0  0
  179.9160  183.4410  135.3280 C   0  0  0  0  0  3  0  0  0  0  0  0
  179.6780  185.8170  138.2590 C   0  0  0  0  0  1  0  0  0  0  0  0
  179.7780  184.5630  137.4710 C   0  0  0  0  0  0  0  0  0  0  0  0
  179.9930  182.2100  135.9820 C   0  0  0  0  0  3  0  0  0  0  0  0
  179.8510  183.3310  138.1250 C   0  0  0  0  0  3  0  0  0  0  0  0
  179.8140  184.6180  136.0730 C   0  0  0  0  0  3  0  0  0  0  0  0
  179.9660  182.1470  137.3860 C   0  0  0  0  0  0  0  0  0  0  0  0
  187.1050  177.8360  139.9220 C   0  0  2  0  0  3  0  0  0  0  0  0
  186.2050  178.4510  142.1350 C   0  0  0  0  0  2  0  0  0  0  0  0
  186.9090  178.8050  141.0640 C   0  0  0  0  0  3  0  0  0  0  0  0
  188.6050  177.6030  139.6580 C   0  0  1  0  0  3  0  0  0  0  0  0
  189.8050  178.7740  138.1940 C   0  0  0  0  0  1  0  0  0  0  0  0
  189.3050  178.8080  139.5000 O   0  0  0  0  0  0  0  0  0  0  0  0
  189.2560  176.7240  140.7220 C   0  0  0  0  0  2  0  0  0  0  0  0
  190.7050  177.1060  140.9960 C   0  0  0  0  0  2  0  0  0  0  0  0
  189.7830  179.0040  144.0560 C   0  0  0  0  0  2  0  0  0  0  0  0
  190.8430  177.5480  142.3710 N   0  0  0  0  0  0  0  0  0  0  0  0
  191.5430  176.7160  143.3010 C   0  0  0  0  0  3  0  0  0  0  0  0
  189.7290  176.8340  145.0800 C   0  0  2  0  0  3  0  0  0  0  0  0
  191.9630  175.5860  145.3980 C   0  0  0  0  0  2  0  0  0  0  0  0
  190.5880  176.2240  147.3860 C   0  0  0  0  0  2  0  0  0  0  0  0
  190.4710  178.9230  142.6990 C   0  0  0  0  0  2  0  0  0  0  0  0
  189.7640  177.2260  146.5770 C   0  0  2  0  0  3  0  0  0  0  0  0
  192.0040  176.1170  146.8270 C   0  0  0  0  0  2  0  0  0  0  0  0
  191.1130  176.4690  144.5460 C   0  0  0  0  0  0  0  0  0  0  0  0
  188.9790  177.8070  144.2740 N   0  0  0  0  0  2  0  0  0  0  0  0
  188.4420  177.8480  148.6260 C   0  0  0  0  0  1  0  0  0  0  0  0
  187.5160  178.1290  146.4400 O   0  0  0  0  0  1  0  0  0  0  0  0
  188.3690  177.3280  147.2060 C   0  0  1  0  0  3  0  0  0  0  0  0
  1 12  1  1  0  0  0
  1  3  1  0  0  0  0
  1  5  1  0  0  0  0
  2 22  1  6  0  0  0
  2  8  1  0  0  0  0
  2  6  1  0  0  0  0
  4 41  1  0  0  0  0
  5  7  1  0  0  0  0
  6  4  1  0  0  0  0
  7 10  1  0  0  0  0
  8  3  1  1  0  0  0
  8  9  1  0  0  0  0
  9  4  1  6  0  0  0
  9 10  1  0  0  0  0
 10 25  1  6  0  0  0
 11 13  2  0  0  0  0
 11 16  1  0  0  0  0
 13 14  1  0  0  0  0
 14 12  2  0  0  0  0
 15 12  1  0  0  0  0
 16 15  2  0  0  0  0
 17 13  1  0  0  0  0
 17 18  1  0  0  0  0
 19 20  1  0  0  0  0
 21 19  1  0  0  0  0
 21 18  1  0  0  0  0
 21 20  1  0  0  0  0
 23 22  2  0  0  0  0
 24 22  1  0  0  0  0
 26 25  1  0  0  0  0
 26 27  1  0  0  0  0
 28 27  1  6  0  0  0
 28 29  1  0  0  0  0
 29 30  1  0  0  0  0
 30 32  1  0  0  0  0
 32 31  1  0  0  0  0
 33 28  1  0  0  0  0
 34 37  2  0  0  0  0
 34 39  1  0  0  0  0
 36 38  1  0  0  0  0
 36 35  1  0  0  0  0
 37 40  1  0  0  0  0
 39 36  2  0  0  0  0
 40 33  1  0  0  0  0
 40 38  2  0  0  0  0
 41 43  1  1  0  0  0
 43 42  2  0  0  0  0
 44 41  1  0  0  0  0
 44 47  1  1  0  0  0
 45 46  1  0  0  0  0
 46 44  1  0  0  0  0
 47 48  1  0  0  0  0
 48 50  1  0  0  0  0
 49 59  1  0  0  0  0
 50 55  1  0  0  0  0
 50 51  1  0  0  0  0
 51 58  2  0  0  0  0
 52 59  1  6  0  0  0
 52 56  1  0  0  0  0
 53 57  1  0  0  0  0
 55 49  1  0  0  0  0
 56 62  1  1  0  0  0
 56 54  1  0  0  0  0
 57 54  1  0  0  0  0
 58 52  1  0  0  0  0
 58 53  1  0  0  0  0
 61 62  1  0  0  0  0
 62 60  1  1  0  0  0
M  END
>  <MODEL>
3

>  <REMARK>
 VINA RESULT:      -5.0      2.655      4.927
  Name = 
  22 active torsions:
  status: ('A' for Active; 'I' for Inactive)
    1  A    between atoms: O_1  and  C_17
    2  A    between atoms: O_1  and  C_61
    3  A    between atoms: C_4  and  C_5
    4  A    between atoms: N_8  and  C_18
    5  A    between atoms: C_9  and  C_30
    6  A    between atoms: C_10  and  C_11
    7  A    between atoms: C_16  and  C_59
    8  A    between atoms: C_16  and  C_62
    9  A    between atoms: C_17  and  O_36
   10  A    between atoms: C_17  and  C_62
   11  A    between atoms: C_18  and  C_54
   12  A    between atoms: N_19  and  C_57
   13  A    between atoms: N_21  and  C_30
   14  A    between atoms: N_21  and  C_39
   15  A    between atoms: C_35  and  O_36
   16  A    between atoms: C_35  and  O_42
   17  A    between atoms: C_41  and  C_54
   18  A    between atoms: C_41  and  O_56
   19  A    between atoms: C_41  and  C_57
   20  A    between atoms: C_43  and  C_51
   21  A    between atoms: C_55  and  C_59
   22  A    between atoms: C_57  and  C_60
                            x       y       z     vdW  Elec       q    Type
                         _______ _______ _______ _____ _____    ______ ____

>  <TORSDO>
F 22

$$$$
=
 OpenBabel10222416213D

 62 68  0  0  1  0  0  0  0  0999 V2000
  184.4590  175.3130  136.2940 C   0  0  2  0  0  3  0  0  0  0  0  0
  187.5860  176.8550  136.9260 C   0  0  1  0  0  3  0  0  0  0  0  0
  185.7360  175.3220  136.8830 O   0  0  0  0  0  0  0  0  0  0  0  0
  186.7450  178.1890  138.7650 N   0  0  0  0  0  0  0  0  0  0  0  0
  183.3730  175.7970  137.2710 C   0  0  0  0  0  2  0  0  0  0  0  0
  187.8160  178.0980  137.7630 C   0  0  0  0  0  2  0  0  0  0  0  0
  183.4340  177.2490  137.3960 N   0  0  0  0  0  2  0  0  0  0  0  0
  186.1000  176.6710  136.9890 C   0  0  1  0  0  3  0  0  0  0  0  0
  185.7560  177.1720  138.3710 C   0  0  2  0  0  3  0  0  0  0  0  0
  184.2770  177.6170  138.5370 C   0  0  1  0  0  3  0  0  0  0  0  0
  183.6310  171.4080  134.7960 N   0  0  0  0  0  0  0  0  0  0  0  0
  184.1520  173.9500  135.7580 C   0  0  0  0  0  0  0  0  0  0  0  0
  182.5980  172.2790  134.9600 C   0  0  0  0  0  0  0  0  0  0  0  0
  182.8380  173.5610  135.4570 C   0  0  0  0  0  3  0  0  0  0  0  0
  185.1940  173.0370  135.5840 C   0  0  0  0  0  3  0  0  0  0  0  0
  184.9120  171.7570  135.0980 C   0  0  0  0  0  3  0  0  0  0  0  0
  181.2130  171.8730  134.5940 C   0  0  0  0  0  2  0  0  0  0  0  0
  180.5000  171.3880  135.7670 N   0  0  0  0  0  2  0  0  0  0  0  0
  179.7640  173.6630  136.1160 C   0  0  0  0  0  2  0  0  0  0  0  0
  179.3350  172.8430  137.3150 C   0  0  0  0  0  2  0  0  0  0  0  0
  179.3250  172.2250  135.9310 C   0  0  0  0  0  3  0  0  0  0  0  0
  188.0600  177.0440  135.5170 C   0  0  0  0  0  0  0  0  0  0  0  0
  187.5310  177.8640  134.7810 O   0  0  0  0  0  0  0  0  0  0  0  0
  189.1900  176.2160  135.0050 C   0  0  0  0  0  1  0  0  0  0  0  0
  184.1180  179.1040  138.8230 C   0  0  0  0  0  2  0  0  0  0  0  0
  182.7340  179.5540  138.3930 C   0  0  0  0  0  2  0  0  0  0  0  0
  181.8060  179.6050  139.5900 C   0  0  0  0  0  2  0  0  0  0  0  0
  180.5010  180.2610  139.1710 C   0  0  2  0  0  3  0  0  0  0  0  0
  179.4320  179.5810  139.7600 O   0  0  0  0  0  0  0  0  0  0  0  0
  179.9480  178.3380  140.1300 C   0  0  0  0  0  2  0  0  0  0  0  0
  179.3800  176.2420  140.5260 C   0  0  0  0  0  1  0  0  0  0  0  0
  178.9310  177.5540  140.6720 O   0  0  0  0  0  0  0  0  0  0  0  0
  180.3630  180.2300  137.7540 O   0  0  0  0  0  0  0  0  0  0  0  0
  180.2420  182.5160  134.8220 C   0  0  0  0  0  3  0  0  0  0  0  0
  181.5200  184.9830  137.3860 C   0  0  0  0  0  1  0  0  0  0  0  0
  181.0260  183.7270  136.7690 C   0  0  0  0  0  0  0  0  0  0  0  0
  180.1210  181.3590  135.5950 C   0  0  0  0  0  3  0  0  0  0  0  0
  180.9000  182.5710  137.5430 C   0  0  0  0  0  3  0  0  0  0  0  0
  180.7000  183.6980  135.4090 C   0  0  0  0  0  3  0  0  0  0  0  0
  180.4540  181.3780  136.9610 C   0  0  0  0  0  0  0  0  0  0  0  0
  187.3520  177.8690  140.0710 C   0  0  2  0  0  3  0  0  0  0  0  0
  186.1520  179.3310  141.6530 C   0  0  0  0  0  2  0  0  0  0  0  0
  187.2950  179.0150  141.0530 C   0  0  0  0  0  3  0  0  0  0  0  0
  188.8070  177.4010  139.8650 C   0  0  1  0  0  3  0  0  0  0  0  0
  190.5710  178.0360  138.6650 C   0  0  0  0  0  1  0  0  0  0  0  0
  189.6800  178.4780  139.6480 O   0  0  0  0  0  0  0  0  0  0  0  0
  189.3000  176.5120  141.0020 C   0  0  0  0  0  2  0  0  0  0  0  0
  190.8110  176.5770  141.1870 C   0  0  0  0  0  2  0  0  0  0  0  0
  190.4840  178.9040  144.0670 C   0  0  0  0  0  2  0  0  0  0  0  0
  191.1210  177.1080  142.5000 N   0  0  0  0  0  0  0  0  0  0  0  0
  191.6970  176.2410  143.4820 C   0  0  0  0  0  3  0  0  0  0  0  0
  190.0590  176.8970  145.3140 C   0  0  2  0  0  3  0  0  0  0  0  0
  192.0120  175.2500  145.6670 C   0  0  0  0  0  2  0  0  0  0  0  0
  190.9220  176.3430  147.6330 C   0  0  0  0  0  2  0  0  0  0  0  0
  191.0560  178.5540  142.6980 C   0  0  0  0  0  2  0  0  0  0  0  0
  190.2660  177.4120  146.7590 C   0  0  2  0  0  3  0  0  0  0  0  0
  192.2490  175.8930  147.0290 C   0  0  0  0  0  2  0  0  0  0  0  0
  191.3050  176.2050  144.7630 C   0  0  0  0  0  0  0  0  0  0  0  0
  189.4720  177.9230  144.4430 N   0  0  0  0  0  2  0  0  0  0  0  0
  188.0780  176.6730  147.7560 C   0  0  0  0  0  1  0  0  0  0  0  0
  189.2100  178.6080  148.5870 O   0  0  0  0  0  1  0  0  0  0  0  0
  188.9630  177.8590  147.4330 C   0  0  1  0  0  3  0  0  0  0  0  0
  1 12  1  1  0  0  0
  1  3  1  0  0  0  0
  1  5  1  0  0  0  0
  2 22  1  6  0  0  0
  2  8  1  0  0  0  0
  2  6  1  0  0  0  0
  4 41  1  0  0  0  0
  5  7  1  0  0  0  0
  6  4  1  0  0  0  0
  7 10  1  0  0  0  0
  8  3  1  1  0  0  0
  8  9  1  0  0  0  0
  9 10  1  0  0  0  0
  9  4  1  6  0  0  0
 10 25  1  6  0  0  0
 11 13  2  0  0  0  0
 11 16  1  0  0  0  0
 13 14  1  0  0  0  0
 14 12  2  0  0  0  0
 15 12  1  0  0  0  0
 16 15  2  0  0  0  0
 17 13  1  0  0  0  0
 17 18  1  0  0  0  0
 18 21  1  0  0  0  0
 19 20  1  0  0  0  0
 21 19  1  0  0  0  0
 21 20  1  0  0  0  0
 23 22  2  0  0  0  0
 24 22  1  0  0  0  0
 26 25  1  0  0  0  0
 26 27  1  0  0  0  0
 28 27  1  6  0  0  0
 28 29  1  0  0  0  0
 29 30  1  0  0  0  0
 30 32  1  0  0  0  0
 31 32  1  0  0  0  0
 33 28  1  0  0  0  0
 34 39  2  0  0  0  0
 34 37  1  0  0  0  0
 36 35  1  0  0  0  0
 36 38  2  0  0  0  0
 37 40  2  0  0  0  0
 39 36  1  0  0  0  0
 40 38  1  0  0  0  0
 40 33  1  0  0  0  0
 41 43  1  1  0  0  0
 43 42  2  0  0  0  0
 44 41  1  0  0  0  0
 44 47  1  1  0  0  0
 45 46  1  0  0  0  0
 46 44  1  0  0  0  0
 47 48  1  0  0  0  0
 48 50  1  0  0  0  0
 49 59  1  0  0  0  0
 50 55  1  0  0  0  0
 50 51  1  0  0  0  0
 51 58  2  0  0  0  0
 52 59  1  6  0  0  0
 52 56  1  0  0  0  0
 53 57  1  0  0  0  0
 55 49  1  0  0  0  0
 56 62  1  1  0  0  0
 56 54  1  0  0  0  0
 57 54  1  0  0  0  0
 58 52  1  0  0  0  0
 58 53  1  0  0  0  0
 62 60  1  1  0  0  0
 62 61  1  0  0  0  0
M  END
>  <MODEL>
4

>  <REMARK>
 VINA RESULT:      -4.7      2.694      5.400
  Name = 
  22 active torsions:
  status: ('A' for Active; 'I' for Inactive)
    1  A    between atoms: O_1  and  C_17
    2  A    between atoms: O_1  and  C_61
    3  A    between atoms: C_4  and  C_5
    4  A    between atoms: N_8  and  C_18
    5  A    between atoms: C_9  and  C_30
    6  A    between atoms: C_10  and  C_11
    7  A    between atoms: C_16  and  C_59
    8  A    between atoms: C_16  and  C_62
    9  A    between atoms: C_17  and  O_36
   10  A    between atoms: C_17  and  C_62
   11  A    between atoms: C_18  and  C_54
   12  A    between atoms: N_19  and  C_57
   13  A    between atoms: N_21  and  C_30
   14  A    between atoms: N_21  and  C_39
   15  A    between atoms: C_35  and  O_36
   16  A    between atoms: C_35  and  O_42
   17  A    between atoms: C_41  and  C_54
   18  A    between atoms: C_41  and  O_56
   19  A    between atoms: C_41  and  C_57
   20  A    between atoms: C_43  and  C_51
   21  A    between atoms: C_55  and  C_59
   22  A    between atoms: C_57  and  C_60
                            x       y       z     vdW  Elec       q    Type
                         _______ _______ _______ _____ _____    ______ ____

>  <TORSDO>
F 22

$$$$
=
 OpenBabel10222416213D

 62 68  0  0  1  0  0  0  0  0999 V2000
  184.5660  178.3490  138.8590 C   0  0  2  0  0  3  0  0  0  0  0  0
  186.4700  177.0140  136.1860 C   0  0  1  0  0  3  0  0  0  0  0  0
  184.9420  177.2850  138.0210 O   0  0  0  0  0  0  0  0  0  0  0  0
  188.4200  176.5980  137.5620 N   0  0  0  0  0  0  0  0  0  0  0  0
  185.3520  178.3420  140.1830 C   0  0  0  0  0  2  0  0  0  0  0  0
  187.9720  176.8010  136.1780 C   0  0  0  0  0  2  0  0  0  0  0  0
  186.7030  178.8430  139.9570 N   0  0  0  0  0  2  0  0  0  0  0  0
  186.2170  177.6080  137.5380 C   0  0  1  0  0  3  0  0  0  0  0  0
  187.2600  176.9400  138.4020 C   0  0  2  0  0  3  0  0  0  0  0  0
  187.6120  177.7240  139.6950 C   0  0  1  0  0  3  0  0  0  0  0  0
  180.3650  178.2370  139.5810 N   0  0  0  0  0  0  0  0  0  0  0  0
  183.0880  178.3180  139.0940 C   0  0  0  0  0  0  0  0  0  0  0  0
  180.8640  179.2070  138.7670 C   0  0  0  0  0  0  0  0  0  0  0  0
  182.2370  179.2740  138.5200 C   0  0  0  0  0  3  0  0  0  0  0  0
  182.5520  177.3340  139.9280 C   0  0  0  0  0  3  0  0  0  0  0  0
  181.1750  177.3100  140.1630 C   0  0  0  0  0  3  0  0  0  0  0  0
  179.9470  180.1880  138.1250 C   0  0  0  0  0  2  0  0  0  0  0  0
  180.6590  180.9680  137.1230 N   0  0  0  0  0  2  0  0  0  0  0  0
  179.5570  182.0290  135.2520 C   0  0  0  0  0  2  0  0  0  0  0  0
  180.5530  183.0130  135.8290 C   0  0  0  0  0  2  0  0  0  0  0  0
  179.7970  182.0750  136.7470 C   0  0  0  0  0  3  0  0  0  0  0  0
  186.0380  177.9370  135.0870 C   0  0  0  0  0  0  0  0  0  0  0  0
  186.8220  178.7350  134.5940 O   0  0  0  0  0  0  0  0  0  0  0  0
  184.6320  177.8840  134.5940 C   0  0  0  0  0  1  0  0  0  0  0  0
  189.0510  178.2240  139.7300 C   0  0  0  0  0  2  0  0  0  0  0  0
  189.4450  178.5200  141.1650 C   0  0  0  0  0  2  0  0  0  0  0  0
  189.8540  177.2420  141.8700 C   0  0  0  0  0  2  0  0  0  0  0  0
  191.3510  177.2800  142.1230 C   0  0  2  0  0  3  0  0  0  0  0  0
  192.0170  176.6940  141.0420 O   0  0  0  0  0  0  0  0  0  0  0  0
  192.8520  177.6950  140.5420 C   0  0  0  0  0  2  0  0  0  0  0  0
  194.6150  176.4160  140.1840 C   0  0  0  0  0  1  0  0  0  0  0  0
  193.6470  177.1720  139.5230 O   0  0  0  0  0  0  0  0  0  0  0  0
  191.6710  176.5750  143.3180 O   0  0  0  0  0  0  0  0  0  0  0  0
  190.9710  176.9720  146.9500 C   0  0  0  0  0  3  0  0  0  0  0  0
  187.4460  177.4230  145.6620 C   0  0  0  0  0  1  0  0  0  0  0  0
  188.9140  177.2070  145.6920 C   0  0  0  0  0  0  0  0  0  0  0  0
  191.6720  176.7750  145.7580 C   0  0  0  0  0  3  0  0  0  0  0  0
  189.6160  177.0150  144.5000 C   0  0  0  0  0  3  0  0  0  0  0  0
  189.5910  177.1830  146.9160 C   0  0  0  0  0  3  0  0  0  0  0  0
  190.9980  176.7900  144.5250 C   0  0  0  0  0  0  0  0  0  0  0  0
  188.7740  175.1720  137.6920 C   0  0  2  0  0  3  0  0  0  0  0  0
  191.1380  175.8470  137.4910 C   0  0  0  0  0  2  0  0  0  0  0  0
  190.2540  174.9400  137.8940 C   0  0  0  0  0  3  0  0  0  0  0  0
  188.2660  174.3970  136.4600 C   0  0  1  0  0  3  0  0  0  0  0  0
  189.7800  172.7880  136.1920 C   0  0  0  0  0  1  0  0  0  0  0  0
  189.3170  173.9820  135.6290 O   0  0  0  0  0  0  0  0  0  0  0  0
  187.3670  173.2240  136.8390 C   0  0  0  0  0  2  0  0  0  0  0  0
  186.3940  172.8450  135.7300 C   0  0  0  0  0  2  0  0  0  0  0  0
  183.4850  174.2140  137.5940 C   0  0  0  0  0  2  0  0  0  0  0  0
  185.0380  172.8550  136.2430 N   0  0  0  0  0  0  0  0  0  0  0  0
  184.0330  172.0970  135.5630 C   0  0  0  0  0  3  0  0  0  0  0  0
  182.3600  174.0120  135.4830 C   0  0  2  0  0  3  0  0  0  0  0  0
  181.8630  171.6430  134.5940 C   0  0  0  0  0  2  0  0  0  0  0  0
  179.9840  173.2120  135.1020 C   0  0  0  0  0  2  0  0  0  0  0  0
  184.7980  173.4410  137.5600 C   0  0  0  0  0  2  0  0  0  0  0  0
  180.8840  174.1240  135.9370 C   0  0  2  0  0  3  0  0  0  0  0  0
  180.4620  171.7650  135.1830 C   0  0  0  0  0  2  0  0  0  0  0  0
  182.8010  172.5600  135.3050 C   0  0  0  0  0  0  0  0  0  0  0  0
  183.2520  174.8460  136.3000 N   0  0  0  0  0  2  0  0  0  0  0  0
  179.1670  175.6410  134.8970 C   0  0  0  0  0  1  0  0  0  0  0  0
  179.9650  176.0340  137.1160 O   0  0  0  0  0  1  0  0  0  0  0  0
  180.3350  175.5540  135.8560 C   0  0  1  0  0  3  0  0  0  0  0  0
  1 12  1  1  0  0  0
  1  5  1  0  0  0  0
  2 22  1  6  0  0  0
  2  8  1  0  0  0  0
  3  1  1  0  0  0  0
  4 41  1  0  0  0  0
  6  2  1  0  0  0  0
  6  4  1  0  0  0  0
  7  5  1  0  0  0  0
  8  3  1  1  0  0  0
  8  9  1  0  0  0  0
  9  4  1  6  0  0  0
  9 10  1  0  0  0  0
 10 25  1  6  0  0  0
 10  7  1  0  0  0  0
 11 16  1  0  0  0  0
 12 15  1  0  0  0  0
 13 11  2  0  0  0  0
 14 13  1  0  0  0  0
 14 12  2  0  0  0  0
 15 16  2  0  0  0  0
 17 13  1  0  0  0  0
 18 17  1  0  0  0  0
 19 20  1  0  0  0  0
 19 21  1  0  0  0  0
 20 21  1  0  0  0  0
 21 18  1  0  0  0  0
 23 22  2  0  0  0  0
 24 22  1  0  0  0  0
 25 26  1  0  0  0  0
 26 27  1  0  0  0  0
 28 27  1  6  0  0  0
 28 33  1  0  0  0  0
 29 28  1  0  0  0  0
 30 29  1  0  0  0  0
 32 31  1  0  0  0  0
 32 30  1  0  0  0  0
 33 40  1  0  0  0  0
 35 36  1  0  0  0  0
 36 39  2  0  0  0  0
 37 34  2  0  0  0  0
 38 40  2  0  0  0  0
 38 36  1  0  0  0  0
 39 34  1  0  0  0  0
 40 37  1  0  0  0  0
 41 43  1  6  0  0  0
 42 43  2  0  0  0  0
 44 47  1  1  0  0  0
 44 41  1  0  0  0  0
 46 45  1  0  0  0  0
 46 44  1  0  0  0  0
 48 50  1  0  0  0  0
 48 47  1  0  0  0  0
 50 55  1  0  0  0  0
 51 50  1  0  0  0  0
 52 58  1  1  0  0  0
 52 56  1  0  0  0  0
 52 59  1  0  0  0  0
 53 57  1  0  0  0  0
 53 58  1  0  0  0  0
 54 57  1  0  0  0  0
 54 56  1  0  0  0  0
 55 49  1  0  0  0  0
 56 62  1  6  0  0  0
 58 51  2  0  0  0  0
 59 49  1  0  0  0  0
 62 60  1  6  0  0  0
 62 61  1  0  0  0  0
M  END
>  <MODEL>
5

>  <REMARK>
 VINA RESULT:      -4.4      2.527     10.871
  Name = 
  22 active torsions:
  status: ('A' for Active; 'I' for Inactive)
    1  A    between atoms: O_1  and  C_17
    2  A    between atoms: O_1  and  C_61
    3  A    between atoms: C_4  and  C_5
    4  A    between atoms: N_8  and  C_18
    5  A    between atoms: C_9  and  C_30
    6  A    between atoms: C_10  and  C_11
    7  A    between atoms: C_16  and  C_59
    8  A    between atoms: C_16  and  C_62
    9  A    between atoms: C_17  and  O_36
   10  A    between atoms: C_17  and  C_62
   11  A    between atoms: C_18  and  C_54
   12  A    between atoms: N_19  and  C_57
   13  A    between atoms: N_21  and  C_30
   14  A    between atoms: N_21  and  C_39
   15  A    between atoms: C_35  and  O_36
   16  A    between atoms: C_35  and  O_42
   17  A    between atoms: C_41  and  C_54
   18  A    between atoms: C_41  and  O_56
   19  A    between atoms: C_41  and  C_57
   20  A    between atoms: C_43  and  C_51
   21  A    between atoms: C_55  and  C_59
   22  A    between atoms: C_57  and  C_60
                            x       y       z     vdW  Elec       q    Type
                         _______ _______ _______ _____ _____    ______ ____

>  <TORSDO>
F 22

$$$$
=
 OpenBabel10222416213D

 62 68  0  0  1  0  0  0  0  0999 V2000
  184.8770  178.5150  139.3610 C   0  0  2  0  0  3  0  0  0  0  0  0
  187.4590  177.9910  136.9910 C   0  0  1  0  0  3  0  0  0  0  0  0
  185.5720  177.6990  138.4500 O   0  0  0  0  0  0  0  0  0  0  0  0
  189.1350  177.5150  138.6740 N   0  0  0  0  0  0  0  0  0  0  0  0
  185.3740  178.3170  140.8040 C   0  0  0  0  0  2  0  0  0  0  0  0
  188.9460  177.9530  137.2850 C   0  0  0  0  0  2  0  0  0  0  0  0
  186.6500  179.0020  140.9840 N   0  0  0  0  0  2  0  0  0  0  0  0
  186.8520  178.2570  138.3360 C   0  0  1  0  0  3  0  0  0  0  0  0
  187.7930  177.5420  139.2770 C   0  0  2  0  0  3  0  0  0  0  0  0
  187.7540  178.0710  140.7360 C   0  0  1  0  0  3  0  0  0  0  0  0
  180.6910  177.7660  139.0500 N   0  0  0  0  0  0  0  0  0  0  0  0
  183.4050  178.2710  139.2460 C   0  0  0  0  0  0  0  0  0  0  0  0
  181.1120  179.0320  139.3160 C   0  0  0  0  0  0  0  0  0  0  0  0
  182.4760  179.3050  139.4330 C   0  0  0  0  0  3  0  0  0  0  0  0
  182.9480  176.9800  138.9760 C   0  0  0  0  0  3  0  0  0  0  0  0
  181.5740  176.7430  138.8820 C   0  0  0  0  0  3  0  0  0  0  0  0
  180.1200  180.1330  139.4670 C   0  0  0  0  0  2  0  0  0  0  0  0
  180.7410  181.4190  139.1830 N   0  0  0  0  0  2  0  0  0  0  0  0
  179.7170  181.8330  137.0340 C   0  0  0  0  0  2  0  0  0  0  0  0
  180.4430  183.0930  137.4570 C   0  0  0  0  0  2  0  0  0  0  0  0
  179.7530  182.2310  138.4950 C   0  0  0  0  0  3  0  0  0  0  0  0
  187.1180  179.0710  136.0090 C   0  0  0  0  0  0  0  0  0  0  0  0
  187.1700  180.2500  136.3280 O   0  0  0  0  0  0  0  0  0  0  0  0
  186.7050  178.7000  134.6250 C   0  0  0  0  0  1  0  0  0  0  0  0
  189.0620  178.7090  141.1860 C   0  0  0  0  0  2  0  0  0  0  0  0
  189.6760  177.8720  142.2930 C   0  0  0  0  0  2  0  0  0  0  0  0
  189.6090  178.6180  143.6110 C   0  0  0  0  0  2  0  0  0  0  0  0
  188.8860  177.7520  144.6280 C   0  0  2  0  0  3  0  0  0  0  0  0
  187.5390  178.1220  144.6740 O   0  0  0  0  0  0  0  0  0  0  0  0
  187.0460  177.5640  145.8550 C   0  0  0  0  0  2  0  0  0  0  0  0
  185.4190  178.7900  145.0050 C   0  0  0  0  0  1  0  0  0  0  0  0
  185.6720  177.7820  145.9350 O   0  0  0  0  0  0  0  0  0  0  0  0
  189.4670  177.9100  145.9180 O   0  0  0  0  0  0  0  0  0  0  0  0
  192.0190  176.3730  148.1450 C   0  0  0  0  0  3  0  0  0  0  0  0
  192.5850  174.2140  145.0940 C   0  0  0  0  0  1  0  0  0  0  0  0
  192.0250  175.2480  145.9990 C   0  0  0  0  0  0  0  0  0  0  0  0
  190.9940  177.2100  147.6990 C   0  0  0  0  0  3  0  0  0  0  0  0
  190.9970  176.0820  145.5550 C   0  0  0  0  0  3  0  0  0  0  0  0
  192.5380  175.3960  147.2930 C   0  0  0  0  0  3  0  0  0  0  0  0
  190.4790  177.0730  146.3980 C   0  0  0  0  0  0  0  0  0  0  0  0
  189.6710  176.1420  138.6200 C   0  0  2  0  0  3  0  0  0  0  0  0
  191.3090  176.6880  140.3830 C   0  0  0  0  0  2  0  0  0  0  0  0
  191.0240  176.0040  139.2790 C   0  0  0  0  0  3  0  0  0  0  0  0
  189.7290  175.6650  137.1560 C   0  0  1  0  0  3  0  0  0  0  0  0
  190.8500  175.4920  135.2410 C   0  0  0  0  0  1  0  0  0  0  0  0
  190.9550  175.9760  136.5490 O   0  0  0  0  0  0  0  0  0  0  0  0
  189.4040  174.1810  137.0120 C   0  0  0  0  0  2  0  0  0  0  0  0
  188.4660  173.8930  135.8470 C   0  0  0  0  0  2  0  0  0  0  0  0
  185.0220  174.4970  137.1090 C   0  0  0  0  0  2  0  0  0  0  0  0
  187.1580  173.5220  136.3530 N   0  0  0  0  0  0  0  0  0  0  0  0
  186.6380  172.2240  136.0480 C   0  0  0  0  0  3  0  0  0  0  0  0
  184.3760  173.0910  135.2740 C   0  0  2  0  0  3  0  0  0  0  0  0
  184.9830  170.5870  135.3900 C   0  0  0  0  0  2  0  0  0  0  0  0
  182.5870  171.2940  135.2980 C   0  0  0  0  0  2  0  0  0  0  0  0
  186.5240  174.3890  137.3430 C   0  0  0  0  0  2  0  0  0  0  0  0
  182.9270  172.7330  135.6880 C   0  0  2  0  0  3  0  0  0  0  0  0
  183.5790  170.3180  135.9230 C   0  0  0  0  0  2  0  0  0  0  0  0
  185.3740  172.0010  135.6640 C   0  0  0  0  0  0  0  0  0  0  0  0
  184.7430  174.4550  135.6780 N   0  0  0  0  0  2  0  0  0  0  0  0
  180.4800  173.1070  135.2420 C   0  0  0  0  0  1  0  0  0  0  0  0
  181.9530  174.9530  135.6110 O   0  0  0  0  0  1  0  0  0  0  0  0
  181.8770  173.6650  135.0720 C   0  0  1  0  0  3  0  0  0  0  0  0
  1 12  1  1  0  0  0
  1  5  1  0  0  0  0
  2 22  1  6  0  0  0
  2  6  1  0  0  0  0
  2  8  1  0  0  0  0
  3  1  1  0  0  0  0
  5  7  1  0  0  0  0
  6  4  1  0  0  0  0
  8  3  1  6  0  0  0
  8  9  1  0  0  0  0
  9  4  1  6  0  0  0
  9 10  1  0  0  0  0
 10  7  1  0  0  0  0
 10 25  1  6  0  0  0
 11 13  1  0  0  0  0
 12 14  1  0  0  0  0
 13 14  2  0  0  0  0
 13 17  1  0  0  0  0
 15 12  2  0  0  0  0
 16 15  1  0  0  0  0
 16 11  2  0  0  0  0
 18 17  1  0  0  0  0
 19 20  1  0  0  0  0
 19 21  1  0  0  0  0
 20 21  1  0  0  0  0
 21 18  1  0  0  0  0
 22 23  2  0  0  0  0
 24 22  1  0  0  0  0
 25 26  1  0  0  0  0
 26 27  1  0  0  0  0
 28 27  1  6  0  0  0
 28 29  1  0  0  0  0
 28 33  1  0  0  0  0
 29 30  1  0  0  0  0
 30 32  1  0  0  0  0
 31 32  1  0  0  0  0
 33 40  1  0  0  0  0
 35 36  1  0  0  0  0
 36 39  1  0  0  0  0
 37 34  1  0  0  0  0
 38 36  2  0  0  0  0
 38 40  1  0  0  0  0
 39 34  2  0  0  0  0
 40 37  2  0  0  0  0
 41  4  1  0  0  0  0
 41 43  1  6  0  0  0
 43 42  2  0  0  0  0
 44 47  1  1  0  0  0
 44 41  1  0  0  0  0
 45 46  1  0  0  0  0
 46 44  1  0  0  0  0
 48 50  1  0  0  0  0
 48 47  1  0  0  0  0
 49 55  1  0  0  0  0
 50 55  1  0  0  0  0
 51 50  1  0  0  0  0
 52 58  1  1  0  0  0
 52 59  1  0  0  0  0
 52 56  1  0  0  0  0
 53 58  1  0  0  0  0
 53 57  1  0  0  0  0
 54 56  1  0  0  0  0
 54 57  1  0  0  0  0
 56 62  1  6  0  0  0
 58 51  2  0  0  0  0
 59 49  1  0  0  0  0
 62 60  1  1  0  0  0
 62 61  1  0  0  0  0
M  END
>  <MODEL>
6

>  <REMARK>
 VINA RESULT:      -4.4      2.525     10.764
  Name = 
  22 active torsions:
  status: ('A' for Active; 'I' for Inactive)
    1  A    between atoms: O_1  and  C_17
    2  A    between atoms: O_1  and  C_61
    3  A    between atoms: C_4  and  C_5
    4  A    between atoms: N_8  and  C_18
    5  A    between atoms: C_9  and  C_30
    6  A    between atoms: C_10  and  C_11
    7  A    between atoms: C_16  and  C_59
    8  A    between atoms: C_16  and  C_62
    9  A    between atoms: C_17  and  O_36
   10  A    between atoms: C_17  and  C_62
   11  A    between atoms: C_18  and  C_54
   12  A    between atoms: N_19  and  C_57
   13  A    between atoms: N_21  and  C_30
   14  A    between atoms: N_21  and  C_39
   15  A    between atoms: C_35  and  O_36
   16  A    between atoms: C_35  and  O_42
   17  A    between atoms: C_41  and  C_54
   18  A    between atoms: C_41  and  O_56
   19  A    between atoms: C_41  and  C_57
   20  A    between atoms: C_43  and  C_51
   21  A    between atoms: C_55  and  C_59
   22  A    between atoms: C_57  and  C_60
                            x       y       z     vdW  Elec       q    Type
                         _______ _______ _______ _____ _____    ______ ____

>  <TORSDO>
F 22

$$$$
=
 OpenBabel10222416213D

 62 68  0  0  1  0  0  0  0  0999 V2000
  186.6980  177.0790  137.2600 C   0  0  2  0  0  3  0  0  0  0  0  0
  187.0610  178.0930  140.6350 C   0  0  1  0  0  3  0  0  0  0  0  0
  186.7140  176.8020  138.6380 O   0  0  0  0  0  0  0  0  0  0  0  0
  184.7690  178.8510  140.8280 N   0  0  0  0  0  0  0  0  0  0  0  0
  185.2700  177.3200  136.7390 C   0  0  0  0  0  2  0  0  0  0  0  0
  186.1130  178.9920  141.4050 C   0  0  0  0  0  2  0  0  0  0  0  0
  184.8210  178.6520  137.1300 N   0  0  0  0  0  2  0  0  0  0  0  0
  186.4330  178.0180  139.2770 C   0  0  1  0  0  3  0  0  0  0  0  0
  184.9560  178.0900  139.5830 C   0  0  2  0  0  3  0  0  0  0  0  0
  184.0840  178.5780  138.3950 C   0  0  1  0  0  3  0  0  0  0  0  0
  188.6220  173.9660  135.0720 N   0  0  0  0  0  0  0  0  0  0  0  0
  187.3810  175.9790  136.5090 C   0  0  0  0  0  0  0  0  0  0  0  0
  189.1830  174.3900  136.2370 C   0  0  0  0  0  0  0  0  0  0  0  0
  188.5800  175.4140  136.9700 C   0  0  0  0  0  3  0  0  0  0  0  0
  186.8270  175.5280  135.3090 C   0  0  0  0  0  3  0  0  0  0  0  0
  187.4690  174.5120  134.5970 C   0  0  0  0  0  3  0  0  0  0  0  0
  190.4300  173.7520  136.7410 C   0  0  0  0  0  2  0  0  0  0  0  0
  191.0030  174.5430  137.8220 N   0  0  0  0  0  2  0  0  0  0  0  0
  193.1710  174.9900  136.8540 C   0  0  0  0  0  2  0  0  0  0  0  0
  193.0240  175.8500  138.0910 C   0  0  0  0  0  2  0  0  0  0  0  0
  191.8210  175.5760  137.2120 C   0  0  0  0  0  3  0  0  0  0  0  0
  188.4420  178.6730  140.5750 C   0  0  0  0  0  0  0  0  0  0  0  0
  188.9330  179.2280  141.5470 O   0  0  0  0  0  0  0  0  0  0  0  0
  189.2240  178.5760  139.3090 C   0  0  0  0  0  1  0  0  0  0  0  0
  183.3920  179.9100  138.6540 C   0  0  0  0  0  2  0  0  0  0  0  0
  182.0520  179.9280  137.9440 C   0  0  0  0  0  2  0  0  0  0  0  0
  181.1320  180.9460  138.5880 C   0  0  0  0  0  2  0  0  0  0  0  0
  179.7080  180.6760  138.1330 C   0  0  2  0  0  3  0  0  0  0  0  0
  179.1280  181.8720  137.7000 O   0  0  0  0  0  0  0  0  0  0  0  0
  179.9520  182.8810  138.2010 C   0  0  0  0  0  2  0  0  0  0  0  0
  179.4290  183.8440  136.2850 C   0  0  0  0  0  1  0  0  0  0  0  0
  180.5020  183.6010  137.1420 O   0  0  0  0  0  0  0  0  0  0  0  0
  178.9400  180.1330  139.2020 O   0  0  0  0  0  0  0  0  0  0  0  0
  179.1890  177.1030  141.3440 C   0  0  0  0  0  3  0  0  0  0  0  0
  179.4290  175.4100  137.9720 C   0  0  0  0  0  1  0  0  0  0  0  0
  179.2920  176.4620  139.0100 C   0  0  0  0  0  0  0  0  0  0  0  0
  179.0590  178.4410  140.9670 C   0  0  0  0  0  3  0  0  0  0  0  0
  179.1570  177.8010  138.6330 C   0  0  0  0  0  3  0  0  0  0  0  0
  179.3110  176.1140  140.3640 C   0  0  0  0  0  3  0  0  0  0  0  0
  179.0470  178.8000  139.6080 C   0  0  0  0  0  0  0  0  0  0  0  0
  183.9620  178.0940  141.8040 C   0  0  2  0  0  3  0  0  0  0  0  0
  182.9370  176.9350  139.8830 C   0  0  0  0  0  2  0  0  0  0  0  0
  182.8630  177.2780  141.1650 C   0  0  0  0  0  3  0  0  0  0  0  0
  183.3820  179.0580  142.8570 C   0  0  1  0  0  3  0  0  0  0  0  0
  181.4490  178.8630  143.9440 C   0  0  0  0  0  1  0  0  0  0  0  0
  181.9970  179.2270  142.7100 O   0  0  0  0  0  0  0  0  0  0  0  0
  183.7380  178.6480  144.2830 C   0  0  0  0  0  2  0  0  0  0  0  0
  185.0290  179.2900  144.7750 C   0  0  0  0  0  2  0  0  0  0  0  0
  187.6670  176.7400  144.1760 C   0  0  0  0  0  2  0  0  0  0  0  0
  185.9790  178.2570  145.1430 N   0  0  0  0  0  0  0  0  0  0  0  0
  186.4890  178.2270  146.4800 C   0  0  0  0  0  3  0  0  0  0  0  0
  188.9210  178.0340  145.7610 C   0  0  2  0  0  3  0  0  0  0  0  0
  188.1530  178.0150  148.2230 C   0  0  0  0  0  2  0  0  0  0  0  0
  190.4120  177.1380  147.6070 C   0  0  0  0  0  2  0  0  0  0  0  0
  186.2000  177.1530  144.2130 C   0  0  0  0  0  2  0  0  0  0  0  0
  190.0380  177.0260  146.1290 C   0  0  2  0  0  3  0  0  0  0  0  0
  189.1850  176.9240  148.4900 C   0  0  0  0  0  2  0  0  0  0  0  0
  187.7810  178.0270  146.7780 C   0  0  0  0  0  0  0  0  0  0  0  0
  188.5130  177.9140  144.3560 N   0  0  0  0  0  2  0  0  0  0  0  0
  191.7340  175.8980  144.6520 C   0  0  0  0  0  1  0  0  0  0  0  0
  191.1480  178.1910  144.3140 O   0  0  0  0  0  1  0  0  0  0  0  0
  191.3100  177.2040  145.2910 C   0  0  1  0  0  3  0  0  0  0  0  0
  1 12  1  6  0  0  0
  1  3  1  0  0  0  0
  2 22  1  6  0  0  0
  2  6  1  0  0  0  0
  4  6  1  0  0  0  0
  4 41  1  0  0  0  0
  5  7  1  0  0  0  0
  5  1  1  0  0  0  0
  7 10  1  0  0  0  0
  8  3  1  1  0  0  0
  8  9  1  0  0  0  0
  8  2  1  0  0  0  0
  9  4  1  1  0  0  0
 10 25  1  1  0  0  0
 10  9  1  0  0  0  0
 11 13  1  0  0  0  0
 12 14  1  0  0  0  0
 13 17  1  0  0  0  0
 13 14  2  0  0  0  0
 15 12  2  0  0  0  0
 16 11  2  0  0  0  0
 16 15  1  0  0  0  0
 17 18  1  0  0  0  0
 19 21  1  0  0  0  0
 19 20  1  0  0  0  0
 21 18  1  0  0  0  0
 21 20  1  0  0  0  0
 22 23  2  0  0  0  0
 24 22  1  0  0  0  0
 26 27  1  0  0  0  0
 26 25  1  0  0  0  0
 28 27  1  1  0  0  0
 28 33  1  0  0  0  0
 29 28  1  0  0  0  0
 29 30  1  0  0  0  0
 31 32  1  0  0  0  0
 32 30  1  0  0  0  0
 33 40  1  0  0  0  0
 35 36  1  0  0  0  0
 36 39  1  0  0  0  0
 37 34  1  0  0  0  0
 38 36  2  0  0  0  0
 38 40  1  0  0  0  0
 39 34  2  0  0  0  0
 40 37  2  0  0  0  0
 41 43  1  6  0  0  0
 41 44  1  0  0  0  0
 42 43  2  0  0  0  0
 44 47  1  1  0  0  0
 46 44  1  0  0  0  0
 46 45  1  0  0  0  0
 47 48  1  0  0  0  0
 48 50  1  0  0  0  0
 49 55  1  0  0  0  0
 49 59  1  0  0  0  0
 50 51  1  0  0  0  0
 51 58  2  0  0  0  0
 52 59  1  6  0  0  0
 52 56  1  0  0  0  0
 52 58  1  0  0  0  0
 53 57  1  0  0  0  0
 54 57  1  0  0  0  0
 55 50  1  0  0  0  0
 56 62  1  6  0  0  0
 56 54  1  0  0  0  0
 58 53  1  0  0  0  0
 61 62  1  0  0  0  0
 62 60  1  6  0  0  0
M  END
>  <MODEL>
7

>  <REMARK>
 VINA RESULT:      -4.2      2.046      3.486
  Name = 
  22 active torsions:
  status: ('A' for Active; 'I' for Inactive)
    1  A    between atoms: O_1  and  C_17
    2  A    between atoms: O_1  and  C_61
    3  A    between atoms: C_4  and  C_5
    4  A    between atoms: N_8  and  C_18
    5  A    between atoms: C_9  and  C_30
    6  A    between atoms: C_10  and  C_11
    7  A    between atoms: C_16  and  C_59
    8  A    between atoms: C_16  and  C_62
    9  A    between atoms: C_17  and  O_36
   10  A    between atoms: C_17  and  C_62
   11  A    between atoms: C_18  and  C_54
   12  A    between atoms: N_19  and  C_57
   13  A    between atoms: N_21  and  C_30
   14  A    between atoms: N_21  and  C_39
   15  A    between atoms: C_35  and  O_36
   16  A    between atoms: C_35  and  O_42
   17  A    between atoms: C_41  and  C_54
   18  A    between atoms: C_41  and  O_56
   19  A    between atoms: C_41  and  C_57
   20  A    between atoms: C_43  and  C_51
   21  A    between atoms: C_55  and  C_59
   22  A    between atoms: C_57  and  C_60
                            x       y       z     vdW  Elec       q    Type
                         _______ _______ _______ _____ _____    ______ ____

>  <TORSDO>
F 22

$$$$
=
 OpenBabel10222416213D

 62 68  0  0  1  0  0  0  0  0999 V2000
  185.2930  177.9610  138.7530 C   0  0  2  0  0  3  0  0  0  0  0  0
  187.1100  177.1260  135.8280 C   0  0  1  0  0  3  0  0  0  0  0  0
  185.5880  177.0920  137.6880 O   0  0  0  0  0  0  0  0  0  0  0  0
  189.0020  176.2410  137.0550 N   0  0  0  0  0  0  0  0  0  0  0  0
  186.0590  177.5820  140.0320 C   0  0  0  0  0  2  0  0  0  0  0  0
  188.5880  176.7960  135.7590 C   0  0  0  0  0  2  0  0  0  0  0  0
  187.4500  178.0070  139.9180 N   0  0  0  0  0  2  0  0  0  0  0  0
  186.8910  177.4110  137.2830 C   0  0  1  0  0  3  0  0  0  0  0  0
  187.8650  176.4750  137.9600 C   0  0  2  0  0  3  0  0  0  0  0  0
  188.2660  176.9070  139.3960 C   0  0  1  0  0  3  0  0  0  0  0  0
  181.0870  178.0300  139.4560 N   0  0  0  0  0  0  0  0  0  0  0  0
  183.8150  178.0000  138.9860 C   0  0  0  0  0  0  0  0  0  0  0  0
  181.7060  179.1790  139.0720 C   0  0  0  0  0  0  0  0  0  0  0  0
  183.0840  179.1890  138.8430 C   0  0  0  0  0  3  0  0  0  0  0  0
  183.1580  176.8340  139.3850 C   0  0  0  0  0  3  0  0  0  0  0  0
  181.7800  176.8690  139.6190 C   0  0  0  0  0  3  0  0  0  0  0  0
  180.9140  180.4250  138.8770 C   0  0  0  0  0  2  0  0  0  0  0  0
  181.3270  181.1040  137.6570 N   0  0  0  0  0  2  0  0  0  0  0  0
  180.1890  181.8060  135.6440 C   0  0  0  0  0  2  0  0  0  0  0  0
  180.6430  183.0470  136.3830 C   0  0  0  0  0  2  0  0  0  0  0  0
  180.1750  181.8330  137.1590 C   0  0  0  0  0  3  0  0  0  0  0  0
  186.7690  178.3110  134.9760 C   0  0  0  0  0  0  0  0  0  0  0  0
  187.6390  179.0810  134.5950 O   0  0  0  0  0  0  0  0  0  0  0  0
  185.3490  178.5560  134.5940 C   0  0  0  0  0  1  0  0  0  0  0  0
  189.7410  177.2630  139.5350 C   0  0  0  0  0  2  0  0  0  0  0  0
  190.2380  176.8240  140.9000 C   0  0  0  0  0  2  0  0  0  0  0  0
  190.7640  178.0170  141.6730 C   0  0  0  0  0  2  0  0  0  0  0  0
  190.5790  177.7570  143.1580 C   0  0  2  0  0  3  0  0  0  0  0  0
  191.7380  177.1680  143.6720 O   0  0  0  0  0  0  0  0  0  0  0  0
  192.0730  177.9330  144.7910 C   0  0  0  0  0  2  0  0  0  0  0  0
  192.1310  176.0210  145.8920 C   0  0  0  0  0  1  0  0  0  0  0  0
  191.5960  177.3070  145.9420 O   0  0  0  0  0  0  0  0  0  0  0  0
  189.4680  176.8950  143.3780 O   0  0  0  0  0  0  0  0  0  0  0  0
  186.6510  177.5590  145.7130 C   0  0  0  0  0  3  0  0  0  0  0  0
  185.2020  179.1970  142.6290 C   0  0  0  0  0  1  0  0  0  0  0  0
  186.1380  178.4820  143.5320 C   0  0  0  0  0  0  0  0  0  0  0  0
  187.8830  177.1140  145.2310 C   0  0  0  0  0  3  0  0  0  0  0  0
  187.3730  178.0400  143.0510 C   0  0  0  0  0  3  0  0  0  0  0  0
  185.7760  178.2390  144.8620 C   0  0  0  0  0  3  0  0  0  0  0  0
  188.2500  177.3480  143.8940 C   0  0  0  0  0  0  0  0  0  0  0  0
  189.2350  174.7990  136.8480 C   0  0  2  0  0  3  0  0  0  0  0  0
  187.3720  173.1900  137.0070 C   0  0  0  0  0  2  0  0  0  0  0  0
  188.2880  173.9230  137.6330 C   0  0  0  0  0  3  0  0  0  0  0  0
  190.6990  174.4570  137.1860 C   0  0  1  0  0  3  0  0  0  0  0  0
  191.0290  173.5170  135.1960 C   0  0  0  0  0  1  0  0  0  0  0  0
  191.1180  173.2690  136.5690 O   0  0  0  0  0  0  0  0  0  0  0  0
  191.6540  175.6050  136.8740 C   0  0  0  0  0  2  0  0  0  0  0  0
  192.4500  176.0570  138.0920 C   0  0  0  0  0  2  0  0  0  0  0  0
  195.6660  174.5120  139.1360 C   0  0  0  0  0  2  0  0  0  0  0  0
  193.8380  175.6620  137.9430 N   0  0  0  0  0  0  0  0  0  0  0  0
  194.3710  175.4820  136.6280 C   0  0  0  0  0  3  0  0  0  0  0  0
  195.3970  173.2110  137.1370 C   0  0  2  0  0  3  0  0  0  0  0  0
  195.6360  174.4100  134.8660 C   0  0  0  0  0  2  0  0  0  0  0  0
  197.2160  172.5750  135.4870 C   0  0  0  0  0  2  0  0  0  0  0  0
  194.6990  175.6900  139.1230 C   0  0  0  0  0  2  0  0  0  0  0  0
  196.8330  172.6560  136.9650 C   0  0  2  0  0  3  0  0  0  0  0  0
  197.0870  173.9420  134.8220 C   0  0  0  0  0  2  0  0  0  0  0  0
  195.1520  174.4500  136.2770 C   0  0  0  0  0  0  0  0  0  0  0  0
  195.0230  173.3410  138.5510 N   0  0  0  0  0  2  0  0  0  0  0  0
  196.0060  170.2820  137.0600 C   0  0  0  0  0  1  0  0  0  0  0  0
  198.3180  170.7860  137.3930 O   0  0  0  0  0  1  0  0  0  0  0  0
  197.0220  171.2700  137.5930 C   0  0  1  0  0  3  0  0  0  0  0  0
  1 12  1  1  0  0  0
  1  5  1  0  0  0  0
  2 22  1  6  0  0  0
  2  8  1  0  0  0  0
  3  1  1  0  0  0  0
  6  2  1  0  0  0  0
  6  4  1  0  0  0  0
  7  5  1  0  0  0  0
  8  3  1  1  0  0  0
  8  9  1  0  0  0  0
  9  4  1  6  0  0  0
  9 10  1  0  0  0  0
 10 25  1  6  0  0  0
 10  7  1  0  0  0  0
 11 16  1  0  0  0  0
 12 15  1  0  0  0  0
 13 11  2  0  0  0  0
 14 12  2  0  0  0  0
 14 13  1  0  0  0  0
 15 16  2  0  0  0  0
 17 13  1  0  0  0  0
 18 17  1  0  0  0  0
 19 20  1  0  0  0  0
 19 21  1  0  0  0  0
 20 21  1  0  0  0  0
 21 18  1  0  0  0  0
 23 22  2  0  0  0  0
 24 22  1  0  0  0  0
 25 26  1  0  0  0  0
 26 27  1  0  0  0  0
 28 27  1  6  0  0  0
 28 33  1  0  0  0  0
 28 29  1  0  0  0  0
 29 30  1  0  0  0  0
 30 32  1  0  0  0  0
 31 32  1  0  0  0  0
 33 40  1  0  0  0  0
 35 36  1  0  0  0  0
 36 39  1  0  0  0  0
 37 34  1  0  0  0  0
 38 36  2  0  0  0  0
 38 40  1  0  0  0  0
 39 34  2  0  0  0  0
 40 37  2  0  0  0  0
 41  4  1  0  0  0  0
 41 44  1  0  0  0  0
 41 43  1  1  0  0  0
 42 43  2  0  0  0  0
 44 47  1  6  0  0  0
 45 46  1  0  0  0  0
 46 44  1  0  0  0  0
 47 48  1  0  0  0  0
 50 48  1  0  0  0  0
 50 55  1  0  0  0  0
 51 50  1  0  0  0  0
 52 58  1  1  0  0  0
 52 59  1  0  0  0  0
 53 58  1  0  0  0  0
 54 56  1  0  0  0  0
 55 49  1  0  0  0  0
 56 52  1  0  0  0  0
 56 62  1  6  0  0  0
 57 53  1  0  0  0  0
 57 54  1  0  0  0  0
 58 51  2  0  0  0  0
 59 49  1  0  0  0  0
 61 62  1  0  0  0  0
 62 60  1  6  0  0  0
M  END
>  <MODEL>
8

>  <REMARK>
 VINA RESULT:      -3.9      2.904     10.161
  Name = 
  22 active torsions:
  status: ('A' for Active; 'I' for Inactive)
    1  A    between atoms: O_1  and  C_17
    2  A    between atoms: O_1  and  C_61
    3  A    between atoms: C_4  and  C_5
    4  A    between atoms: N_8  and  C_18
    5  A    between atoms: C_9  and  C_30
    6  A    between atoms: C_10  and  C_11
    7  A    between atoms: C_16  and  C_59
    8  A    between atoms: C_16  and  C_62
    9  A    between atoms: C_17  and  O_36
   10  A    between atoms: C_17  and  C_62
   11  A    between atoms: C_18  and  C_54
   12  A    between atoms: N_19  and  C_57
   13  A    between atoms: N_21  and  C_30
   14  A    between atoms: N_21  and  C_39
   15  A    between atoms: C_35  and  O_36
   16  A    between atoms: C_35  and  O_42
   17  A    between atoms: C_41  and  C_54
   18  A    between atoms: C_41  and  O_56
   19  A    between atoms: C_41  and  C_57
   20  A    between atoms: C_43  and  C_51
   21  A    between atoms: C_55  and  C_59
   22  A    between atoms: C_57  and  C_60
                            x       y       z     vdW  Elec       q    Type
                         _______ _______ _______ _____ _____    ______ ____

>  <TORSDO>
F 22

$$$$
=
 OpenBabel10222416213D

 62 68  0  0  1  0  0  0  0  0999 V2000
  183.7810  178.1650  139.9310 C   0  0  2  0  0  3  0  0  0  0  0  0
  187.0440  178.2550  141.3090 C   0  0  1  0  0  3  0  0  0  0  0  0
  184.9540  178.8540  140.2860 O   0  0  0  0  0  0  0  0  0  0  0  0
  188.1110  177.5270  139.2600 N   0  0  0  0  0  0  0  0  0  0  0  0
  183.7940  177.7330  138.4540 C   0  0  0  0  0  2  0  0  0  0  0  0
  188.2820  177.6110  140.7160 C   0  0  0  0  0  2  0  0  0  0  0  0
  184.6660  176.5750  138.2860 N   0  0  0  0  0  2  0  0  0  0  0  0
  185.9680  177.8880  140.3330 C   0  0  1  0  0  3  0  0  0  0  0  0
  186.7010  177.8710  139.0130 C   0  0  2  0  0  3  0  0  0  0  0  0
  186.0140  177.0150  137.9150 C   0  0  1  0  0  3  0  0  0  0  0  0
  180.3790  180.5450  140.9000 N   0  0  0  0  0  0  0  0  0  0  0  0
  182.5810  178.9990  140.2510 C   0  0  0  0  0  0  0  0  0  0  0  0
  180.8360  180.5470  139.6180 C   0  0  0  0  0  0  0  0  0  0  0  0
  181.9530  179.7840  139.2730 C   0  0  0  0  0  3  0  0  0  0  0  0
  182.0950  179.0160  141.5600 C   0  0  0  0  0  3  0  0  0  0  0  0
  180.9830  179.8040  141.8690 C   0  0  0  0  0  3  0  0  0  0  0  0
  180.1350  181.3480  138.5770 C   0  0  0  0  0  2  0  0  0  0  0  0
  181.0660  181.7430  137.5290 N   0  0  0  0  0  2  0  0  0  0  0  0
  181.1840  182.8650  135.3920 C   0  0  0  0  0  2  0  0  0  0  0  0
  180.3180  183.7000  136.3120 C   0  0  0  0  0  2  0  0  0  0  0  0
  180.2740  182.1880  136.3960 C   0  0  0  0  0  3  0  0  0  0  0  0
  186.7500  177.7260  142.6800 C   0  0  0  0  0  0  0  0  0  0  0  0
  187.3920  176.7950  143.1450 O   0  0  0  0  0  0  0  0  0  0  0  0
  185.6560  178.3400  143.4860 C   0  0  0  0  0  1  0  0  0  0  0  0
  186.8360  175.8080  137.4810 C   0  0  0  0  0  2  0  0  0  0  0  0
  186.8970  175.7590  135.9650 C   0  0  0  0  0  2  0  0  0  0  0  0
  186.7190  174.3350  135.4810 C   0  0  0  0  0  2  0  0  0  0  0  0
  185.2460  173.9710  135.5600 C   0  0  2  0  0  3  0  0  0  0  0  0
  185.0490  172.7130  134.9850 O   0  0  0  0  0  0  0  0  0  0  0  0
  185.9690  171.8740  135.6150 C   0  0  0  0  0  2  0  0  0  0  0  0
  185.6510  169.7690  135.0330 C   0  0  0  0  0  1  0  0  0  0  0  0
  186.4030  170.9000  134.7180 O   0  0  0  0  0  0  0  0  0  0  0  0
  184.4580  174.9380  134.8740 O   0  0  0  0  0  0  0  0  0  0  0  0
  181.1330  176.5970  135.0360 C   0  0  0  0  0  3  0  0  0  0  0  0
  180.7730  174.3570  138.0600 C   0  0  0  0  0  1  0  0  0  0  0  0
  181.3400  175.0070  136.8520 C   0  0  0  0  0  0  0  0  0  0  0  0
  182.4120  176.2540  134.5940 C   0  0  0  0  0  3  0  0  0  0  0  0
  182.6180  174.6600  136.4070 C   0  0  0  0  0  3  0  0  0  0  0  0
  180.5990  175.9770  136.1680 C   0  0  0  0  0  3  0  0  0  0  0  0
  183.1660  175.2860  135.2810 C   0  0  0  0  0  0  0  0  0  0  0  0
  189.0190  178.5250  138.6640 C   0  0  2  0  0  3  0  0  0  0  0  0
  188.8970  178.8480  136.2220 C   0  0  0  0  0  2  0  0  0  0  0  0
  188.4530  179.1850  137.4280 C   0  0  0  0  0  3  0  0  0  0  0  0
  190.3790  177.8690  138.3560 C   0  0  1  0  0  3  0  0  0  0  0  0
  192.2150  177.5590  139.5750 C   0  0  0  0  0  1  0  0  0  0  0  0
  190.8810  177.1560  139.4550 O   0  0  0  0  0  0  0  0  0  0  0  0
  190.3350  176.9950  137.1060 C   0  0  0  0  0  2  0  0  0  0  0  0
  190.7460  175.5540  137.3810 C   0  0  0  0  0  2  0  0  0  0  0  0
  194.0670  176.2460  135.8600 C   0  0  0  0  0  2  0  0  0  0  0  0
  191.9550  175.2400  136.6420 N   0  0  0  0  0  0  0  0  0  0  0  0
  192.3950  173.8800  136.5770 C   0  0  0  0  0  3  0  0  0  0  0  0
  194.7940  174.4150  137.2320 C   0  0  2  0  0  3  0  0  0  0  0  0
  193.9720  172.0460  136.6310 C   0  0  0  0  0  2  0  0  0  0  0  0
  196.4140  172.5780  136.5740 C   0  0  0  0  0  2  0  0  0  0  0  0
  192.5440  176.2790  135.8010 C   0  0  0  0  0  2  0  0  0  0  0  0
  196.1530  174.0850  136.5670 C   0  0  2  0  0  3  0  0  0  0  0  0
  195.2800  171.8320  135.8760 C   0  0  0  0  0  2  0  0  0  0  0  0
  193.6720  173.5040  136.7360 C   0  0  0  0  0  0  0  0  0  0  0  0
  194.4990  175.8540  137.1970 N   0  0  0  0  0  2  0  0  0  0  0  0
  198.5050  173.8400  137.4240 C   0  0  0  0  0  1  0  0  0  0  0  0
  197.7420  175.9170  136.5190 O   0  0  0  0  0  1  0  0  0  0  0  0
  197.3390  174.7870  137.2380 C   0  0  1  0  0  3  0  0  0  0  0  0
  1 12  1  6  0  0  0
  1  3  1  0  0  0  0
  2 22  1  1  0  0  0
  4  6  1  0  0  0  0
  5  1  1  0  0  0  0
  6  2  1  0  0  0  0
  7  5  1  0  0  0  0
  8  3  1  6  0  0  0
  8  2  1  0  0  0  0
  9  4  1  1  0  0  0
  9  8  1  0  0  0  0
 10 25  1  1  0  0  0
 10  7  1  0  0  0  0
 10  9  1  0  0  0  0
 11 16  1  0  0  0  0
 12 15  1  0  0  0  0
 13 11  2  0  0  0  0
 14 13  1  0  0  0  0
 14 12  2  0  0  0  0
 15 16  2  0  0  0  0
 17 13  1  0  0  0  0
 18 17  1  0  0  0  0
 19 20  1  0  0  0  0
 19 21  1  0  0  0  0
 20 21  1  0  0  0  0
 21 18  1  0  0  0  0
 22 23  2  0  0  0  0
 22 24  1  0  0  0  0
 26 25  1  0  0  0  0
 27 26  1  0  0  0  0
 28 27  1  6  0  0  0
 29 28  1  0  0  0  0
 29 30  1  0  0  0  0
 32 31  1  0  0  0  0
 32 30  1  0  0  0  0
 33 40  1  0  0  0  0
 33 28  1  0  0  0  0
 34 39  1  0  0  0  0
 36 35  1  0  0  0  0
 37 34  2  0  0  0  0
 37 40  1  0  0  0  0
 38 36  1  0  0  0  0
 39 36  2  0  0  0  0
 40 38  2  0  0  0  0
 41 43  1  6  0  0  0
 41  4  1  0  0  0  0
 42 43  2  0  0  0  0
 44 47  1  6  0  0  0
 44 41  1  0  0  0  0
 44 46  1  0  0  0  0
 46 45  1  0  0  0  0
 47 48  1  0  0  0  0
 49 59  1  0  0  0  0
 50 48  1  0  0  0  0
 51 50  1  0  0  0  0
 51 58  2  0  0  0  0
 52 58  1  6  0  0  0
 53 58  1  0  0  0  0
 55 49  1  0  0  0  0
 55 50  1  0  0  0  0
 56 54  1  0  0  0  0
 56 52  1  0  0  0  0
 56 62  1  1  0  0  0
 57 54  1  0  0  0  0
 57 53  1  0  0  0  0
 59 52  1  0  0  0  0
 61 62  1  0  0  0  0
 62 60  1  6  0  0  0
M  END
>  <MODEL>
9

>  <REMARK>
 VINA RESULT:      -3.7      2.923      9.044
  Name = 
  22 active torsions:
  status: ('A' for Active; 'I' for Inactive)
    1  A    between atoms: O_1  and  C_17
    2  A    between atoms: O_1  and  C_61
    3  A    between atoms: C_4  and  C_5
    4  A    between atoms: N_8  and  C_18
    5  A    between atoms: C_9  and  C_30
    6  A    between atoms: C_10  and  C_11
    7  A    between atoms: C_16  and  C_59
    8  A    between atoms: C_16  and  C_62
    9  A    between atoms: C_17  and  O_36
   10  A    between atoms: C_17  and  C_62
   11  A    between atoms: C_18  and  C_54
   12  A    between atoms: N_19  and  C_57
   13  A    between atoms: N_21  and  C_30
   14  A    between atoms: N_21  and  C_39
   15  A    between atoms: C_35  and  O_36
   16  A    between atoms: C_35  and  O_42
   17  A    between atoms: C_41  and  C_54
   18  A    between atoms: C_41  and  O_56
   19  A    between atoms: C_41  and  C_57
   20  A    between atoms: C_43  and  C_51
   21  A    between atoms: C_55  and  C_59
   22  A    between atoms: C_57  and  C_60
                            x       y       z     vdW  Elec       q    Type
                         _______ _______ _______ _____ _____    ______ ____

>  <TORSDO>
F 22

$$$$
