=
 OpenBabel10222418583D

 43 46  0  0  1  0  0  0  0  0999 V2000
  181.7980  179.0560  140.5700 C   0  0  0  0  0  0  0  0  0  0  0  0
  181.6220  179.0060  143.3600 N   0  0  0  0  0  0  0  0  0  0  0  0
  184.0950  178.6120  140.6510 N   0  0  0  0  0  0  0  0  0  0  0  0
  185.2880  178.5110  142.6780 C   0  0  0  0  0  0  0  0  0  0  0  0
  180.6380  179.4130  142.6510 N   0  0  0  0  0  0  0  0  0  0  0  0
  182.8580  178.6380  142.7390 C   0  0  0  0  0  0  0  0  0  0  0  0
  182.8330  178.2770  141.2840 C   0  0  1  0  0  3  0  0  0  0  0  0
  184.0120  178.6760  143.4080 C   0  0  0  0  0  3  0  0  0  0  0  0
  185.3000  178.5450  141.3740 N   0  0  0  0  0  0  0  0  0  0  0  0
  182.2440  179.4260  138.8780 S   0  0  0  0  0  0  0  0  0  0  0  0
  180.7330  179.5580  141.2190 C   0  0  0  0  0  0  0  0  0  0  0  0
  184.0160  179.2330  139.3320 C   0  0  2  0  0  3  0  0  0  0  0  0
  179.6820  180.3280  140.4990 C   0  0  0  0  0  1  0  0  0  0  0  0
  184.7380  178.4050  138.3220 C   0  0  0  0  0  0  0  0  0  0  0  0
  184.1720  177.4090  137.7910 O   0  0  0  0  0  0  0  0  0  0  0  0
  186.0920  178.7270  137.9990 N   0  0  0  0  0  2  0  0  0  0  0  0
  186.8640  177.9880  137.0110 C   0  0  0  0  0  2  0  0  0  0  0  0
  189.3010  177.2470  137.1720 N   0  0  0  0  0  2  0  0  0  0  0  0
  188.3210  178.2910  137.1600 C   0  0  0  0  0  0  0  0  0  0  0  0
  188.6910  179.4850  137.3000 O   0  0  0  0  0  0  0  0  0  0  0  0
  188.9730  175.8390  136.9950 C   0  0  0  0  0  2  0  0  0  0  0  0
  191.1540  174.9260  136.2020 C   0  0  0  0  0  1  0  0  0  0  0  0
  190.1630  174.9610  137.3470 C   0  0  1  0  0  3  0  0  0  0  0  0
  190.8160  175.4850  138.5300 N   0  0  0  0  0  1  0  0  0  0  0  0
  186.5770  178.4680  143.4470 C   0  0  1  0  0  3  0  0  0  0  0  0
  186.2500  178.1310  144.9000 C   0  0  0  0  0  1  0  0  0  0  0  0
  187.5280  177.5020  142.8630 N   0  0  0  0  0  0  0  0  0  0  0  0
  189.0890  177.4670  140.9780 C   0  0  0  0  0  2  0  0  0  0  0  0
  188.1610  178.6430  140.7970 C   0  0  0  0  0  2  0  0  0  0  0  0
  188.6020  178.2400  142.1960 C   0  0  0  0  0  3  0  0  0  0  0  0
  188.1680  176.7740  143.9560 C   0  0  0  0  0  2  0  0  0  0  0  0
  189.3690  177.4030  144.2920 O   0  0  0  0  0  0  0  0  0  0  0  0
  190.1700  176.3870  144.8190 C   0  0  1  0  0  3  0  0  0  0  0  0
  190.4980  175.1180  142.8260 F   0  0  0  0  0  0  0  0  0  0  0  0
  191.1600  175.8850  143.7670 C   0  0  0  0  0  0  0  0  0  0  0  0
  192.1530  175.1250  144.3590 F   0  0  0  0  0  0  0  0  0  0  0  0
  191.7380  176.9660  143.1300 F   0  0  0  0  0  0  0  0  0  0  0  0
  192.0560  177.2810  145.9940 O   0  0  0  0  0  0  0  0  0  0  0  0
  190.8670  176.8720  146.0600 C   0  0  0  0  0  0  0  0  0  0  0  0
  190.1990  176.8700  147.3220 N   0  0  0  0  0  2  0  0  0  0  0  0
  188.8310  176.4020  147.4820 C   0  0  0  0  0  2  0  0  0  0  0  0
  188.9040  178.5790  148.6840 C   0  0  0  0  0  1  0  0  0  0  0  0
  188.0200  177.4260  148.2540 C   0  0  0  0  0  2  0  0  0  0  0  0
  1 11  2  0  0  0  0
  3  7  1  0  0  0  0
  3  9  1  0  0  0  0
  4  8  1  0  0  0  0
  4 25  1  0  0  0  0
  5  2  2  0  0  0  0
  6  2  1  0  0  0  0
  6  8  2  0  0  0  0
  7  1  1  6  0  0  0
  7  6  1  0  0  0  0
  9  4  2  0  0  0  0
 10 12  1  0  0  0  0
 10  1  1  0  0  0  0
 11  5  1  0  0  0  0
 12 14  1  6  0  0  0
 12  3  1  0  0  0  0
 13 11  1  0  0  0  0
 15 14  2  0  0  0  0
 16 14  1  0  0  0  0
 17 19  1  0  0  0  0
 17 16  1  0  0  0  0
 19 18  1  0  0  0  0
 19 20  2  0  0  0  0
 21 18  1  0  0  0  0
 21 23  1  0  0  0  0
 23 22  1  6  0  0  0
 23 24  1  0  0  0  0
 25 26  1  1  0  0  0
 27 25  1  0  0  0  0
 27 31  1  0  0  0  0
 28 30  1  0  0  0  0
 29 28  1  0  0  0  0
 29 30  1  0  0  0  0
 30 27  1  0  0  0  0
 31 32  1  0  0  0  0
 33 32  1  6  0  0  0
 33 39  1  0  0  0  0
 34 35  1  0  0  0  0
 35 36  1  0  0  0  0
 35 33  1  0  0  0  0
 37 35  1  0  0  0  0
 38 39  2  0  0  0  0
 39 40  1  0  0  0  0
 40 41  1  0  0  0  0
 41 43  1  0  0  0  0
 43 42  1  0  0  0  0
M  END
>  <MODEL>
1

>  <REMARK>
 VINA RESULT:      -7.9      0.000      0.000
  Name = 
  15 active torsions:
  status: ('A' for Active; 'I' for Inactive)
    1  A    between atoms: N_1  and  C_42
    2  A    between atoms: C_2  and  C_10
    3  A    between atoms: C_6  and  C_18
    4  A    between atoms: N_7  and  C_35
    5  A    between atoms: N_7  and  C_39
    6  A    between atoms: N_7  and  C_43
    7  A    between atoms: N_9  and  C_17
    8  A    between atoms: C_10  and  N_40
    9  A    between atoms: C_11  and  C_18
   10  A    between atoms: C_12  and  C_42
   11  A    between atoms: C_15  and  C_36
   12  A    between atoms: C_17  and  C_33
   13  A    between atoms: C_18  and  O_32
   14  A    between atoms: C_20  and  C_39
   15  A    between atoms: O_32  and  C_43
                            x       y       z     vdW  Elec       q    Type
                         _______ _______ _______ _____ _____    ______ ____

>  <TORSDO>
F 15

$$$$
=
 OpenBabel10222418583D

 43 46  0  0  1  0  0  0  0  0999 V2000
  186.2180  178.0730  144.1340 C   0  0  0  0  0  0  0  0  0  0  0  0
  188.7150  176.9920  144.7800 N   0  0  0  0  0  0  0  0  0  0  0  0
  186.8210  178.2640  141.8800 N   0  0  0  0  0  0  0  0  0  0  0  0
  188.9920  177.7760  141.1110 C   0  0  0  0  0  0  0  0  0  0  0  0
  187.8970  177.3420  145.7000 N   0  0  0  0  0  0  0  0  0  0  0  0
  188.3930  177.2140  143.4030 C   0  0  0  0  0  0  0  0  0  0  0  0
  186.9510  177.4010  143.0390 C   0  0  1  0  0  3  0  0  0  0  0  0
  189.3460  177.3220  142.4740 C   0  0  0  0  0  3  0  0  0  0  0  0
  187.8090  178.2720  140.8780 N   0  0  0  0  0  0  0  0  0  0  0  0
  184.8950  179.1230  143.5480 S   0  0  0  0  0  0  0  0  0  0  0  0
  186.6510  178.0060  145.4050 C   0  0  0  0  0  0  0  0  0  0  0  0
  185.7610  179.2660  141.9320 C   0  0  2  0  0  3  0  0  0  0  0  0
  185.9050  178.6680  146.5100 C   0  0  0  0  0  1  0  0  0  0  0  0
  184.8090  179.0770  140.7980 C   0  0  0  0  0  0  0  0  0  0  0  0
  185.0820  179.5340  139.6540 O   0  0  0  0  0  0  0  0  0  0  0  0
  183.5670  178.4120  141.0370 N   0  0  0  0  0  2  0  0  0  0  0  0
  182.5900  178.1660  139.9860 C   0  0  0  0  0  2  0  0  0  0  0  0
  180.4720  179.4550  140.5880 N   0  0  0  0  0  2  0  0  0  0  0  0
  181.6840  179.3450  139.8350 C   0  0  0  0  0  0  0  0  0  0  0  0
  181.9820  180.2500  139.0120 O   0  0  0  0  0  0  0  0  0  0  0  0
  180.0540  178.4720  141.5780 C   0  0  0  0  0  2  0  0  0  0  0  0
  180.9610  178.6610  143.8940 C   0  0  0  0  0  1  0  0  0  0  0  0
  179.8780  179.1230  142.9410 C   0  0  1  0  0  3  0  0  0  0  0  0
  179.9470  180.5640  142.8000 N   0  0  0  0  0  1  0  0  0  0  0  0
  190.0520  177.8120  140.0490 C   0  0  1  0  0  3  0  0  0  0  0  0
  191.3950  177.5020  140.7080 C   0  0  0  0  0  1  0  0  0  0  0  0
  189.7540  176.8720  138.9500 N   0  0  0  0  0  0  0  0  0  0  0  0
  188.2320  177.8310  137.2910 C   0  0  0  0  0  2  0  0  0  0  0  0
  189.0050  178.9610  137.9270 C   0  0  0  0  0  2  0  0  0  0  0  0
  189.6840  177.6200  137.6930 C   0  0  0  0  0  3  0  0  0  0  0  0
  190.8880  175.9630  138.8070 C   0  0  0  0  0  2  0  0  0  0  0  0
  191.5930  176.2800  137.6430 O   0  0  0  0  0  0  0  0  0  0  0  0
  192.4630  175.2040  137.4470 C   0  0  1  0  0  3  0  0  0  0  0  0
  191.6620  173.0750  136.7280 F   0  0  0  0  0  0  0  0  0  0  0  0
  191.9900  174.3400  136.2770 C   0  0  0  0  0  0  0  0  0  0  0  0
  192.9820  174.2390  135.3170 F   0  0  0  0  0  0  0  0  0  0  0  0
  190.8680  174.9120  135.7080 F   0  0  0  0  0  0  0  0  0  0  0  0
  194.0630  176.7850  136.6260 O   0  0  0  0  0  0  0  0  0  0  0  0
  193.8650  175.7060  137.2440 C   0  0  0  0  0  0  0  0  0  0  0  0
  194.9840  174.9690  137.7390 N   0  0  0  0  0  2  0  0  0  0  0  0
  194.8390  173.7100  138.4520 C   0  0  0  0  0  2  0  0  0  0  0  0
  194.9250  171.9900  136.6590 C   0  0  0  0  0  1  0  0  0  0  0  0
  195.6890  172.6400  137.7940 C   0  0  0  0  0  2  0  0  0  0  0  0
  1 11  2  0  0  0  0
  2  5  2  0  0  0  0
  3 12  1  0  0  0  0
  3  7  1  0  0  0  0
  4  8  1  0  0  0  0
  6  2  1  0  0  0  0
  7  6  1  1  0  0  0
  7  1  1  0  0  0  0
  8  6  2  0  0  0  0
  9  4  2  0  0  0  0
  9  3  1  0  0  0  0
 10  1  1  0  0  0  0
 11  5  1  0  0  0  0
 11 13  1  0  0  0  0
 12 14  1  6  0  0  0
 12 10  1  0  0  0  0
 14 16  1  0  0  0  0
 15 14  2  0  0  0  0
 17 16  1  0  0  0  0
 18 21  1  0  0  0  0
 19 17  1  0  0  0  0
 19 18  1  0  0  0  0
 20 19  2  0  0  0  0
 21 23  1  0  0  0  0
 23 22  1  1  0  0  0
 24 23  1  0  0  0  0
 25 26  1  1  0  0  0
 25  4  1  0  0  0  0
 27 25  1  0  0  0  0
 28 30  1  0  0  0  0
 28 29  1  0  0  0  0
 30 29  1  0  0  0  0
 30 27  1  0  0  0  0
 31 27  1  0  0  0  0
 32 31  1  0  0  0  0
 33 39  1  6  0  0  0
 33 32  1  0  0  0  0
 35 34  1  0  0  0  0
 35 33  1  0  0  0  0
 36 35  1  0  0  0  0
 37 35  1  0  0  0  0
 38 39  2  0  0  0  0
 39 40  1  0  0  0  0
 40 41  1  0  0  0  0
 42 43  1  0  0  0  0
 43 41  1  0  0  0  0
M  END
>  <MODEL>
2

>  <REMARK>
 VINA RESULT:      -7.9      3.337      7.871
  Name = 
  15 active torsions:
  status: ('A' for Active; 'I' for Inactive)
    1  A    between atoms: N_1  and  C_42
    2  A    between atoms: C_2  and  C_10
    3  A    between atoms: C_6  and  C_18
    4  A    between atoms: N_7  and  C_35
    5  A    between atoms: N_7  and  C_39
    6  A    between atoms: N_7  and  C_43
    7  A    between atoms: N_9  and  C_17
    8  A    between atoms: C_10  and  N_40
    9  A    between atoms: C_11  and  C_18
   10  A    between atoms: C_12  and  C_42
   11  A    between atoms: C_15  and  C_36
   12  A    between atoms: C_17  and  C_33
   13  A    between atoms: C_18  and  O_32
   14  A    between atoms: C_20  and  C_39
   15  A    between atoms: O_32  and  C_43
                            x       y       z     vdW  Elec       q    Type
                         _______ _______ _______ _____ _____    ______ ____

>  <TORSDO>
F 15

$$$$
=
 OpenBabel10222418583D

 43 46  0  0  1  0  0  0  0  0999 V2000
  186.2240  178.0340  143.9240 C   0  0  0  0  0  0  0  0  0  0  0  0
  188.7260  176.9670  144.5700 N   0  0  0  0  0  0  0  0  0  0  0  0
  186.8340  178.2500  141.6740 N   0  0  0  0  0  0  0  0  0  0  0  0
  189.0130  177.7870  140.9100 C   0  0  0  0  0  0  0  0  0  0  0  0
  187.9020  177.3020  145.4900 N   0  0  0  0  0  0  0  0  0  0  0  0
  188.4090  177.1990  143.1940 C   0  0  0  0  0  0  0  0  0  0  0  0
  186.9660  177.3770  142.8260 C   0  0  1  0  0  3  0  0  0  0  0  0
  189.3650  177.3230  142.2710 C   0  0  0  0  0  3  0  0  0  0  0  0
  187.8270  178.2750  140.6770 N   0  0  0  0  0  0  0  0  0  0  0  0
  184.8940  179.0790  143.3420 S   0  0  0  0  0  0  0  0  0  0  0  0
  186.6510  177.9590  145.1960 C   0  0  0  0  0  0  0  0  0  0  0  0
  185.7660  179.2430  141.7310 C   0  0  2  0  0  3  0  0  0  0  0  0
  185.8960  178.6040  146.3040 C   0  0  0  0  0  1  0  0  0  0  0  0
  184.8210  179.0560  140.5910 C   0  0  0  0  0  0  0  0  0  0  0  0
  184.9440  179.7450  139.5410 O   0  0  0  0  0  0  0  0  0  0  0  0
  183.7480  178.1210  140.7240 N   0  0  0  0  0  2  0  0  0  0  0  0
  182.7940  177.8600  139.6560 C   0  0  0  0  0  2  0  0  0  0  0  0
  183.5930  175.9050  138.2240 N   0  0  0  0  0  2  0  0  0  0  0  0
  182.7970  176.4070  139.3030 C   0  0  0  0  0  0  0  0  0  0  0  0
  182.0690  175.6140  139.9530 O   0  0  0  0  0  0  0  0  0  0  0  0
  184.4830  176.7410  137.4300 C   0  0  0  0  0  2  0  0  0  0  0  0
  185.2940  177.0460  135.0910 C   0  0  0  0  0  1  0  0  0  0  0  0
  184.8710  176.0380  136.1390 C   0  0  1  0  0  3  0  0  0  0  0  0
  185.9670  175.1260  136.3970 N   0  0  0  0  0  1  0  0  0  0  0  0
  190.0770  177.8400  139.8530 C   0  0  1  0  0  3  0  0  0  0  0  0
  191.4190  177.5380  140.5150 C   0  0  0  0  0  1  0  0  0  0  0  0
  189.7920  176.9070  138.7460 N   0  0  0  0  0  0  0  0  0  0  0  0
  188.3820  177.8230  136.9670 C   0  0  0  0  0  2  0  0  0  0  0  0
  189.0720  178.9730  137.6580 C   0  0  0  0  0  2  0  0  0  0  0  0
  189.8030  177.6510  137.4840 C   0  0  0  0  0  3  0  0  0  0  0  0
  190.8980  175.9570  138.6540 C   0  0  0  0  0  2  0  0  0  0  0  0
  191.7010  176.2830  137.5590 O   0  0  0  0  0  0  0  0  0  0  0  0
  192.5620  175.1930  137.4080 C   0  0  1  0  0  3  0  0  0  0  0  0
  191.4280  173.1740  136.8380 F   0  0  0  0  0  0  0  0  0  0  0  0
  192.0690  174.2710  136.2930 C   0  0  0  0  0  0  0  0  0  0  0  0
  193.1290  173.8400  135.5150 F   0  0  0  0  0  0  0  0  0  0  0  0
  191.1720  174.9550  135.4950 F   0  0  0  0  0  0  0  0  0  0  0  0
  194.1600  176.7040  136.4580 O   0  0  0  0  0  0  0  0  0  0  0  0
  193.9640  175.6760  137.1580 C   0  0  0  0  0  0  0  0  0  0  0  0
  195.0860  174.9780  137.7020 N   0  0  0  0  0  2  0  0  0  0  0  0
  194.9430  173.7770  138.5100 C   0  0  0  0  0  2  0  0  0  0  0  0
  194.9730  171.6620  137.2030 C   0  0  0  0  0  1  0  0  0  0  0  0
  195.8180  172.6700  137.9530 C   0  0  0  0  0  2  0  0  0  0  0  0
  1 11  2  0  0  0  0
  2  5  2  0  0  0  0
  3 12  1  0  0  0  0
  3  7  1  0  0  0  0
  4  8  1  0  0  0  0
  6  2  1  0  0  0  0
  7  6  1  1  0  0  0
  7  1  1  0  0  0  0
  8  6  2  0  0  0  0
  9  4  2  0  0  0  0
  9  3  1  0  0  0  0
 10  1  1  0  0  0  0
 11  5  1  0  0  0  0
 11 13  1  0  0  0  0
 12 14  1  6  0  0  0
 12 10  1  0  0  0  0
 14 16  1  0  0  0  0
 15 14  2  0  0  0  0
 17 16  1  0  0  0  0
 18 19  1  0  0  0  0
 19 17  1  0  0  0  0
 19 20  2  0  0  0  0
 21 18  1  0  0  0  0
 23 22  1  6  0  0  0
 23 24  1  0  0  0  0
 23 21  1  0  0  0  0
 25 26  1  1  0  0  0
 25  4  1  0  0  0  0
 27 25  1  0  0  0  0
 28 30  1  0  0  0  0
 28 29  1  0  0  0  0
 30 29  1  0  0  0  0
 30 27  1  0  0  0  0
 31 27  1  0  0  0  0
 32 31  1  0  0  0  0
 33 39  1  6  0  0  0
 33 32  1  0  0  0  0
 35 34  1  0  0  0  0
 35 33  1  0  0  0  0
 36 35  1  0  0  0  0
 37 35  1  0  0  0  0
 38 39  2  0  0  0  0
 39 40  1  0  0  0  0
 40 41  1  0  0  0  0
 42 43  1  0  0  0  0
 43 41  1  0  0  0  0
M  END
>  <MODEL>
3

>  <REMARK>
 VINA RESULT:      -7.6      3.489      7.028
  Name = 
  15 active torsions:
  status: ('A' for Active; 'I' for Inactive)
    1  A    between atoms: N_1  and  C_42
    2  A    between atoms: C_2  and  C_10
    3  A    between atoms: C_6  and  C_18
    4  A    between atoms: N_7  and  C_35
    5  A    between atoms: N_7  and  C_39
    6  A    between atoms: N_7  and  C_43
    7  A    between atoms: N_9  and  C_17
    8  A    between atoms: C_10  and  N_40
    9  A    between atoms: C_11  and  C_18
   10  A    between atoms: C_12  and  C_42
   11  A    between atoms: C_15  and  C_36
   12  A    between atoms: C_17  and  C_33
   13  A    between atoms: C_18  and  O_32
   14  A    between atoms: C_20  and  C_39
   15  A    between atoms: O_32  and  C_43
                            x       y       z     vdW  Elec       q    Type
                         _______ _______ _______ _____ _____    ______ ____

>  <TORSDO>
F 15

$$$$
=
 OpenBabel10222418583D

 43 46  0  0  1  0  0  0  0  0999 V2000
  186.7640  177.7600  144.2920 C   0  0  0  0  0  0  0  0  0  0  0  0
  189.3340  176.7320  144.6970 N   0  0  0  0  0  0  0  0  0  0  0  0
  187.1790  178.0480  142.0060 N   0  0  0  0  0  0  0  0  0  0  0  0
  189.2940  177.6520  141.0500 C   0  0  0  0  0  0  0  0  0  0  0  0
  188.5830  177.0260  145.6920 N   0  0  0  0  0  0  0  0  0  0  0  0
  188.8960  176.9930  143.3600 C   0  0  0  0  0  0  0  0  0  0  0  0
  187.4250  177.1480  143.1190 C   0  0  1  0  0  3  0  0  0  0  0  0
  189.7680  177.1620  142.3630 C   0  0  0  0  0  3  0  0  0  0  0  0
  188.0830  178.1200  140.9300 N   0  0  0  0  0  0  0  0  0  0  0  0
  185.3700  178.7900  143.8530 S   0  0  0  0  0  0  0  0  0  0  0  0
  187.2990  177.6620  145.5210 C   0  0  0  0  0  0  0  0  0  0  0  0
  186.1000  179.0150  142.1800 C   0  0  2  0  0  3  0  0  0  0  0  0
  186.6280  178.2620  146.7060 C   0  0  0  0  0  1  0  0  0  0  0  0
  185.0650  178.8370  141.1190 C   0  0  0  0  0  0  0  0  0  0  0  0
  185.1250  179.5080  140.0510 O   0  0  0  0  0  0  0  0  0  0  0  0
  183.9830  177.9320  141.3470 N   0  0  0  0  0  2  0  0  0  0  0  0
  182.9430  177.6810  140.3600 C   0  0  0  0  0  2  0  0  0  0  0  0
  181.4310  179.6170  139.6710 N   0  0  0  0  0  2  0  0  0  0  0  0
  181.7750  178.5830  140.5990 C   0  0  0  0  0  0  0  0  0  0  0  0
  181.0930  178.4440  141.6470 O   0  0  0  0  0  0  0  0  0  0  0  0
  182.1450  179.8410  138.4210 C   0  0  0  0  0  2  0  0  0  0  0  0
  181.7270  178.2200  136.5730 C   0  0  0  0  0  1  0  0  0  0  0  0
  181.2630  179.5030  137.2300 C   0  0  1  0  0  3  0  0  0  0  0  0
  179.8920  179.3460  137.6730 N   0  0  0  0  0  1  0  0  0  0  0  0
  190.2630  177.7570  139.9090 C   0  0  1  0  0  3  0  0  0  0  0  0
  191.6650  177.4830  140.4510 C   0  0  0  0  0  1  0  0  0  0  0  0
  189.9130  176.8350  138.8110 N   0  0  0  0  0  0  0  0  0  0  0  0
  188.5390  177.6590  136.9610 C   0  0  0  0  0  2  0  0  0  0  0  0
  189.1260  178.8520  137.6760 C   0  0  0  0  0  2  0  0  0  0  0  0
  189.9410  177.5740  137.5460 C   0  0  0  0  0  3  0  0  0  0  0  0
  190.9680  175.8300  138.7040 C   0  0  0  0  0  2  0  0  0  0  0  0
  191.2960  175.6420  137.3600 O   0  0  0  0  0  0  0  0  0  0  0  0
  192.4370  174.8340  137.3790 C   0  0  1  0  0  3  0  0  0  0  0  0
  192.4270  172.6600  136.3990 F   0  0  0  0  0  0  0  0  0  0  0  0
  192.5270  174.0050  136.0970 C   0  0  0  0  0  0  0  0  0  0  0  0
  193.7290  174.2400  135.4520 F   0  0  0  0  0  0  0  0  0  0  0  0
  191.4880  174.3490  135.2540 F   0  0  0  0  0  0  0  0  0  0  0  0
  193.6580  176.8900  137.2450 O   0  0  0  0  0  0  0  0  0  0  0  0
  193.6630  175.6790  137.5890 C   0  0  0  0  0  0  0  0  0  0  0  0
  194.8420  175.1230  138.1720 N   0  0  0  0  0  2  0  0  0  0  0  0
  194.9300  173.7320  138.5850 C   0  0  0  0  0  2  0  0  0  0  0  0
  196.7640  174.0170  136.9290 C   0  0  0  0  0  1  0  0  0  0  0  0
  196.1200  173.0670  137.9180 C   0  0  0  0  0  2  0  0  0  0  0  0
  1 11  2  0  0  0  0
  2  5  2  0  0  0  0
  3 12  1  0  0  0  0
  3  7  1  0  0  0  0
  4  8  1  0  0  0  0
  6  2  1  0  0  0  0
  7  6  1  1  0  0  0
  7  1  1  0  0  0  0
  8  6  2  0  0  0  0
  9  4  2  0  0  0  0
  9  3  1  0  0  0  0
 10  1  1  0  0  0  0
 11  5  1  0  0  0  0
 11 13  1  0  0  0  0
 12 14  1  6  0  0  0
 12 10  1  0  0  0  0
 14 16  1  0  0  0  0
 15 14  2  0  0  0  0
 17 19  1  0  0  0  0
 17 16  1  0  0  0  0
 18 19  1  0  0  0  0
 19 20  2  0  0  0  0
 21 18  1  0  0  0  0
 23 22  1  1  0  0  0
 23 24  1  0  0  0  0
 23 21  1  0  0  0  0
 25 26  1  1  0  0  0
 25  4  1  0  0  0  0
 27 25  1  0  0  0  0
 28 30  1  0  0  0  0
 28 29  1  0  0  0  0
 30 29  1  0  0  0  0
 30 27  1  0  0  0  0
 31 27  1  0  0  0  0
 32 31  1  0  0  0  0
 33 32  1  6  0  0  0
 33 39  1  0  0  0  0
 35 34  1  0  0  0  0
 35 33  1  0  0  0  0
 36 35  1  0  0  0  0
 37 35  1  0  0  0  0
 38 39  2  0  0  0  0
 39 40  1  0  0  0  0
 40 41  1  0  0  0  0
 42 43  1  0  0  0  0
 43 41  1  0  0  0  0
M  END
>  <MODEL>
4

>  <REMARK>
 VINA RESULT:      -7.5      3.524      7.733
  Name = 
  15 active torsions:
  status: ('A' for Active; 'I' for Inactive)
    1  A    between atoms: N_1  and  C_42
    2  A    between atoms: C_2  and  C_10
    3  A    between atoms: C_6  and  C_18
    4  A    between atoms: N_7  and  C_35
    5  A    between atoms: N_7  and  C_39
    6  A    between atoms: N_7  and  C_43
    7  A    between atoms: N_9  and  C_17
    8  A    between atoms: C_10  and  N_40
    9  A    between atoms: C_11  and  C_18
   10  A    between atoms: C_12  and  C_42
   11  A    between atoms: C_15  and  C_36
   12  A    between atoms: C_17  and  C_33
   13  A    between atoms: C_18  and  O_32
   14  A    between atoms: C_20  and  C_39
   15  A    between atoms: O_32  and  C_43
                            x       y       z     vdW  Elec       q    Type
                         _______ _______ _______ _____ _____    ______ ____

>  <TORSDO>
F 15

$$$$
=
 OpenBabel10222418583D

 43 46  0  0  1  0  0  0  0  0999 V2000
  186.4360  178.3480  144.9010 C   0  0  0  0  0  0  0  0  0  0  0  0
  183.7980  179.0150  145.5450 N   0  0  0  0  0  0  0  0  0  0  0  0
  185.9610  178.4450  142.6110 N   0  0  0  0  0  0  0  0  0  0  0  0
  183.7820  178.7900  141.7900 C   0  0  0  0  0  0  0  0  0  0  0  0
  184.6120  178.6220  146.4510 N   0  0  0  0  0  0  0  0  0  0  0  0
  184.2050  179.0510  144.1740 C   0  0  0  0  0  0  0  0  0  0  0  0
  185.6740  179.0940  143.8770 C   0  0  1  0  0  3  0  0  0  0  0  0
  183.3140  178.9800  143.1810 C   0  0  0  0  0  3  0  0  0  0  0  0
  185.0270  178.4790  141.5600 N   0  0  0  0  0  0  0  0  0  0  0  0
  187.9050  177.5660  144.2480 S   0  0  0  0  0  0  0  0  0  0  0  0
  185.9440  178.1630  146.1380 C   0  0  0  0  0  0  0  0  0  0  0  0
  187.1350  177.5780  142.5780 C   0  0  2  0  0  3  0  0  0  0  0  0
  186.7170  177.4280  147.1760 C   0  0  0  0  0  1  0  0  0  0  0  0
  188.1040  178.0530  141.5470 C   0  0  0  0  0  0  0  0  0  0  0  0
  188.0110  179.2190  141.0730 O   0  0  0  0  0  0  0  0  0  0  0  0
  189.1100  177.1560  141.0720 N   0  0  0  0  0  2  0  0  0  0  0  0
  190.1080  177.5410  140.0850 C   0  0  0  0  0  2  0  0  0  0  0  0
  189.2190  177.1530  137.7250 N   0  0  0  0  0  2  0  0  0  0  0  0
  189.9710  176.7010  138.8550 C   0  0  0  0  0  0  0  0  0  0  0  0
  190.5120  175.5660  138.8220 O   0  0  0  0  0  0  0  0  0  0  0  0
  188.5770  178.4590  137.6610 C   0  0  0  0  0  2  0  0  0  0  0  0
  187.2080  178.2030  135.5920 C   0  0  0  0  0  1  0  0  0  0  0  0
  187.1690  178.3390  137.1000 C   0  0  1  0  0  3  0  0  0  0  0  0
  186.5190  177.1760  137.6700 N   0  0  0  0  0  1  0  0  0  0  0  0
  182.7820  178.7980  140.6700 C   0  0  1  0  0  3  0  0  0  0  0  0
  183.5310  179.0750  139.3680 C   0  0  0  0  0  1  0  0  0  0  0  0
  182.0270  177.5320  140.6060 N   0  0  0  0  0  0  0  0  0  0  0  0
  179.7230  177.4910  141.4320 C   0  0  0  0  0  2  0  0  0  0  0  0
  180.1010  178.9280  141.1670 C   0  0  0  0  0  2  0  0  0  0  0  0
  180.6340  177.8290  140.2610 C   0  0  0  0  0  3  0  0  0  0  0  0
  182.5500  176.7440  139.4930 C   0  0  0  0  0  2  0  0  0  0  0  0
  181.5070  176.4210  138.6220 O   0  0  0  0  0  0  0  0  0  0  0  0
  181.5820  175.0330  138.4720 C   0  0  1  0  0  3  0  0  0  0  0  0
  179.1970  175.0670  138.4490 F   0  0  0  0  0  0  0  0  0  0  0  0
  180.2860  174.3730  138.9430 C   0  0  0  0  0  0  0  0  0  0  0  0
  180.2250  174.3540  140.3250 F   0  0  0  0  0  0  0  0  0  0  0  0
  180.2340  173.0750  138.4710 F   0  0  0  0  0  0  0  0  0  0  0  0
  181.0070  174.7580  136.1640 O   0  0  0  0  0  0  0  0  0  0  0  0
  181.9030  174.6850  137.0450 C   0  0  0  0  0  0  0  0  0  0  0  0
  183.2160  174.2650  136.6730 N   0  0  0  0  0  2  0  0  0  0  0  0
  184.3010  174.1450  137.6340 C   0  0  0  0  0  2  0  0  0  0  0  0
  184.2590  171.9440  136.4770 C   0  0  0  0  0  1  0  0  0  0  0  0
  184.8290  172.7220  137.6450 C   0  0  0  0  0  2  0  0  0  0  0  0
  1 11  2  0  0  0  0
  2  5  2  0  0  0  0
  3  7  1  0  0  0  0
  4  8  1  0  0  0  0
  6  2  1  0  0  0  0
  7  6  1  1  0  0  0
  7  1  1  0  0  0  0
  8  6  2  0  0  0  0
  9  4  2  0  0  0  0
  9  3  1  0  0  0  0
 10  1  1  0  0  0  0
 11  5  1  0  0  0  0
 11 13  1  0  0  0  0
 12 14  1  6  0  0  0
 12  3  1  0  0  0  0
 12 10  1  0  0  0  0
 15 14  2  0  0  0  0
 16 14  1  0  0  0  0
 17 16  1  0  0  0  0
 18 19  1  0  0  0  0
 19 17  1  0  0  0  0
 20 19  2  0  0  0  0
 21 18  1  0  0  0  0
 23 22  1  6  0  0  0
 23 21  1  0  0  0  0
 23 24  1  0  0  0  0
 25 26  1  6  0  0  0
 25  4  1  0  0  0  0
 27 25  1  0  0  0  0
 29 28  1  0  0  0  0
 30 27  1  0  0  0  0
 30 29  1  0  0  0  0
 30 28  1  0  0  0  0
 31 27  1  0  0  0  0
 32 31  1  0  0  0  0
 33 39  1  6  0  0  0
 33 32  1  0  0  0  0
 33 35  1  0  0  0  0
 34 35  1  0  0  0  0
 35 36  1  0  0  0  0
 37 35  1  0  0  0  0
 38 39  2  0  0  0  0
 40 39  1  0  0  0  0
 40 41  1  0  0  0  0
 41 43  1  0  0  0  0
 42 43  1  0  0  0  0
M  END
>  <MODEL>
5

>  <REMARK>
 VINA RESULT:      -7.3      4.263      8.060
  Name = 
  15 active torsions:
  status: ('A' for Active; 'I' for Inactive)
    1  A    between atoms: N_1  and  C_42
    2  A    between atoms: C_2  and  C_10
    3  A    between atoms: C_6  and  C_18
    4  A    between atoms: N_7  and  C_35
    5  A    between atoms: N_7  and  C_39
    6  A    between atoms: N_7  and  C_43
    7  A    between atoms: N_9  and  C_17
    8  A    between atoms: C_10  and  N_40
    9  A    between atoms: C_11  and  C_18
   10  A    between atoms: C_12  and  C_42
   11  A    between atoms: C_15  and  C_36
   12  A    between atoms: C_17  and  C_33
   13  A    between atoms: C_18  and  O_32
   14  A    between atoms: C_20  and  C_39
   15  A    between atoms: O_32  and  C_43
                            x       y       z     vdW  Elec       q    Type
                         _______ _______ _______ _____ _____    ______ ____

>  <TORSDO>
F 15

$$$$
=
 OpenBabel10222418583D

 43 46  0  0  1  0  0  0  0  0999 V2000
  188.7820  177.0030  136.8530 C   0  0  0  0  0  0  0  0  0  0  0  0
  186.2830  177.4250  135.6730 N   0  0  0  0  0  0  0  0  0  0  0  0
  187.9610  177.6390  138.9510 N   0  0  0  0  0  0  0  0  0  0  0  0
  185.7790  178.4700  139.2510 C   0  0  0  0  0  0  0  0  0  0  0  0
  187.3180  177.2110  134.9510 N   0  0  0  0  0  0  0  0  0  0  0  0
  186.4010  177.5240  137.0960 C   0  0  0  0  0  0  0  0  0  0  0  0
  187.6060  176.9140  137.7460 C   0  0  1  0  0  3  0  0  0  0  0  0
  185.5050  178.1960  137.8230 C   0  0  0  0  0  3  0  0  0  0  0  0
  186.9680  178.2510  139.7380 N   0  0  0  0  0  0  0  0  0  0  0  0
  190.3220  177.1940  137.7430 S   0  0  0  0  0  0  0  0  0  0  0  0
  188.6390  177.1020  135.5200 C   0  0  0  0  0  0  0  0  0  0  0  0
  189.3830  177.8920  139.1620 C   0  0  2  0  0  3  0  0  0  0  0  0
  189.8220  177.1740  134.6200 C   0  0  0  0  0  1  0  0  0  0  0  0
  189.8350  177.2870  140.4490 C   0  0  0  0  0  0  0  0  0  0  0  0
  190.4940  176.2100  140.4520 O   0  0  0  0  0  0  0  0  0  0  0  0
  189.4720  177.9180  141.6790 N   0  0  0  0  0  2  0  0  0  0  0  0
  189.8860  177.4090  142.9790 C   0  0  0  0  0  2  0  0  0  0  0  0
  188.6550  177.1250  145.1960 N   0  0  0  0  0  2  0  0  0  0  0  0
  188.6930  176.9810  143.7720 C   0  0  0  0  0  0  0  0  0  0  0  0
  187.7120  176.4650  143.1780 O   0  0  0  0  0  0  0  0  0  0  0  0
  189.7320  177.7310  145.9670 C   0  0  0  0  0  2  0  0  0  0  0  0
  191.3220  176.7420  147.6150 C   0  0  0  0  0  1  0  0  0  0  0  0
  189.8690  177.0530  147.3220 C   0  0  1  0  0  3  0  0  0  0  0  0
  189.3490  177.9280  148.3540 N   0  0  0  0  0  1  0  0  0  0  0  0
  184.7310  179.1480  140.0850 C   0  0  1  0  0  3  0  0  0  0  0  0
  183.6890  179.7470  139.1410 C   0  0  0  0  0  1  0  0  0  0  0  0
  184.1190  178.2180  141.0540 N   0  0  0  0  0  0  0  0  0  0  0  0
  184.5180  178.2460  143.4680 C   0  0  0  0  0  2  0  0  0  0  0  0
  185.1390  179.4880  142.8750 C   0  0  0  0  0  2  0  0  0  0  0  0
  183.8430  178.9430  142.2960 C   0  0  0  0  0  3  0  0  0  0  0  0
  182.8150  177.8120  140.5350 C   0  0  0  0  0  2  0  0  0  0  0  0
  182.8890  176.4960  140.0730 O   0  0  0  0  0  0  0  0  0  0  0  0
  182.0530  176.4610  138.9540 C   0  0  1  0  0  3  0  0  0  0  0  0
  181.6400  174.4240  137.7840 F   0  0  0  0  0  0  0  0  0  0  0  0
  182.5630  175.4420  137.9350 C   0  0  0  0  0  0  0  0  0  0  0  0
  183.7700  174.9070  138.3470 F   0  0  0  0  0  0  0  0  0  0  0  0
  182.7390  176.0640  136.7130 F   0  0  0  0  0  0  0  0  0  0  0  0
  180.3990  175.2140  140.1570 O   0  0  0  0  0  0  0  0  0  0  0  0
  180.6390  176.1730  139.3770 C   0  0  0  0  0  0  0  0  0  0  0  0
  179.5560  176.9720  138.8990 N   0  0  0  0  0  2  0  0  0  0  0  0
  179.7490  178.0890  137.9880 C   0  0  0  0  0  2  0  0  0  0  0  0
  180.2350  180.5280  137.9930 C   0  0  0  0  0  1  0  0  0  0  0  0
  179.5330  179.4000  138.7210 C   0  0  0  0  0  2  0  0  0  0  0  0
  1 10  1  0  0  0  0
  2  6  1  0  0  0  0
  3 12  1  0  0  0  0
  3  9  1  0  0  0  0
  4  9  2  0  0  0  0
  4 25  1  0  0  0  0
  5 11  1  0  0  0  0
  5  2  2  0  0  0  0
  6  7  1  0  0  0  0
  6  8  2  0  0  0  0
  7  1  1  6  0  0  0
  7  3  1  0  0  0  0
  8  4  1  0  0  0  0
 10 12  1  0  0  0  0
 11  1  2  0  0  0  0
 12 14  1  1  0  0  0
 13 11  1  0  0  0  0
 14 15  2  0  0  0  0
 14 16  1  0  0  0  0
 16 17  1  0  0  0  0
 17 19  1  0  0  0  0
 18 21  1  0  0  0  0
 19 18  1  0  0  0  0
 20 19  2  0  0  0  0
 21 23  1  0  0  0  0
 23 22  1  1  0  0  0
 23 24  1  0  0  0  0
 25 26  1  6  0  0  0
 25 27  1  0  0  0  0
 27 30  1  0  0  0  0
 29 28  1  0  0  0  0
 30 29  1  0  0  0  0
 30 28  1  0  0  0  0
 31 27  1  0  0  0  0
 32 31  1  0  0  0  0
 33 39  1  1  0  0  0
 33 32  1  0  0  0  0
 34 35  1  0  0  0  0
 35 36  1  0  0  0  0
 35 33  1  0  0  0  0
 37 35  1  0  0  0  0
 39 38  2  0  0  0  0
 40 39  1  0  0  0  0
 41 43  1  0  0  0  0
 41 40  1  0  0  0  0
 42 43  1  0  0  0  0
M  END
>  <MODEL>
6

>  <REMARK>
 VINA RESULT:      -7.2      3.577      8.788
  Name = 
  15 active torsions:
  status: ('A' for Active; 'I' for Inactive)
    1  A    between atoms: N_1  and  C_42
    2  A    between atoms: C_2  and  C_10
    3  A    between atoms: C_6  and  C_18
    4  A    between atoms: N_7  and  C_35
    5  A    between atoms: N_7  and  C_39
    6  A    between atoms: N_7  and  C_43
    7  A    between atoms: N_9  and  C_17
    8  A    between atoms: C_10  and  N_40
    9  A    between atoms: C_11  and  C_18
   10  A    between atoms: C_12  and  C_42
   11  A    between atoms: C_15  and  C_36
   12  A    between atoms: C_17  and  C_33
   13  A    between atoms: C_18  and  O_32
   14  A    between atoms: C_20  and  C_39
   15  A    between atoms: O_32  and  C_43
                            x       y       z     vdW  Elec       q    Type
                         _______ _______ _______ _____ _____    ______ ____

>  <TORSDO>
F 15

$$$$
=
 OpenBabel10222418583D

 43 46  0  0  1  0  0  0  0  0999 V2000
  181.8700  179.2740  140.3010 C   0  0  0  0  0  0  0  0  0  0  0  0
  180.9930  179.3390  142.9550 N   0  0  0  0  0  0  0  0  0  0  0  0
  184.0630  178.8120  140.9770 N   0  0  0  0  0  0  0  0  0  0  0  0
  184.7030  178.7820  143.2430 C   0  0  0  0  0  0  0  0  0  0  0  0
  180.2280  179.7250  142.0050 N   0  0  0  0  0  0  0  0  0  0  0  0
  182.3380  178.9330  142.6820 C   0  0  0  0  0  0  0  0  0  0  0  0
  182.6760  178.5150  141.2820 C   0  0  1  0  0  3  0  0  0  0  0  0
  183.2870  178.9890  143.6200 C   0  0  0  0  0  3  0  0  0  0  0  0
  185.0440  178.7630  141.9850 N   0  0  0  0  0  0  0  0  0  0  0  0
  182.7360  179.5700  138.7650 S   0  0  0  0  0  0  0  0  0  0  0  0
  180.6860  179.8110  140.6400 C   0  0  0  0  0  0  0  0  0  0  0  0
  184.3320  179.3790  139.6600 C   0  0  2  0  0  3  0  0  0  0  0  0
  179.8660  180.5610  139.6490 C   0  0  0  0  0  1  0  0  0  0  0  0
  185.2700  178.5040  138.8970 C   0  0  0  0  0  0  0  0  0  0  0  0
  184.8260  177.6600  138.0720 O   0  0  0  0  0  0  0  0  0  0  0  0
  186.6730  178.6040  139.1490 N   0  0  0  0  0  2  0  0  0  0  0  0
  187.6600  177.8060  138.4360 C   0  0  0  0  0  2  0  0  0  0  0  0
  190.1800  177.8060  138.8400 N   0  0  0  0  0  2  0  0  0  0  0  0
  188.9880  178.4940  138.4480 C   0  0  0  0  0  0  0  0  0  0  0  0
  189.0550  179.7090  138.1270 O   0  0  0  0  0  0  0  0  0  0  0  0
  190.2060  176.3960  139.2060 C   0  0  0  0  0  2  0  0  0  0  0  0
  190.4580  174.8350  137.2770 C   0  0  0  0  0  1  0  0  0  0  0  0
  191.1910  175.6320  138.3360 C   0  0  1  0  0  3  0  0  0  0  0  0
  192.0920  176.5680  137.6920 N   0  0  0  0  0  1  0  0  0  0  0  0
  185.7530  178.7590  144.3150 C   0  0  1  0  0  3  0  0  0  0  0  0
  185.0510  178.6290  145.6650 C   0  0  0  0  0  1  0  0  0  0  0  0
  186.7260  177.6700  144.1000 N   0  0  0  0  0  0  0  0  0  0  0  0
  188.4220  178.2570  142.4350 C   0  0  0  0  0  2  0  0  0  0  0  0
  188.3030  176.7520  142.4740 C   0  0  0  0  0  2  0  0  0  0  0  0
  187.0650  177.6120  142.6760 C   0  0  0  0  0  3  0  0  0  0  0  0
  187.9670  178.0240  144.7860 C   0  0  0  0  0  2  0  0  0  0  0  0
  188.2060  177.1090  145.8140 O   0  0  0  0  0  0  0  0  0  0  0  0
  189.1330  177.7410  146.6480 C   0  0  1  0  0  3  0  0  0  0  0  0
  187.5090  179.0030  147.8550 F   0  0  0  0  0  0  0  0  0  0  0  0
  188.5040  178.0550  148.0050 C   0  0  0  0  0  0  0  0  0  0  0  0
  189.4610  178.5340  148.8840 F   0  0  0  0  0  0  0  0  0  0  0  0
  187.9450  176.9050  148.5290 F   0  0  0  0  0  0  0  0  0  0  0  0
  190.4420  176.0350  147.7020 O   0  0  0  0  0  0  0  0  0  0  0  0
  190.3660  176.8920  146.7820 C   0  0  0  0  0  0  0  0  0  0  0  0
  191.4630  177.0480  145.8810 N   0  0  0  0  0  2  0  0  0  0  0  0
  191.4570  178.0230  144.8020 C   0  0  0  0  0  2  0  0  0  0  0  0
  191.6540  175.8250  143.6550 C   0  0  0  0  0  1  0  0  0  0  0  0
  191.6970  177.3290  143.4750 C   0  0  0  0  0  2  0  0  0  0  0  0
  1 11  2  0  0  0  0
  3  7  1  0  0  0  0
  3  9  1  0  0  0  0
  4  8  1  0  0  0  0
  4 25  1  0  0  0  0
  5  2  2  0  0  0  0
  6  2  1  0  0  0  0
  6  8  2  0  0  0  0
  7  1  1  6  0  0  0
  7  6  1  0  0  0  0
  9  4  2  0  0  0  0
 10 12  1  0  0  0  0
 10  1  1  0  0  0  0
 11  5  1  0  0  0  0
 12 14  1  6  0  0  0
 12  3  1  0  0  0  0
 13 11  1  0  0  0  0
 14 16  1  0  0  0  0
 15 14  2  0  0  0  0
 17 19  1  0  0  0  0
 17 16  1  0  0  0  0
 18 21  1  0  0  0  0
 19 18  1  0  0  0  0
 20 19  2  0  0  0  0
 23 22  1  6  0  0  0
 23 21  1  0  0  0  0
 24 23  1  0  0  0  0
 25 26  1  1  0  0  0
 27 25  1  0  0  0  0
 27 31  1  0  0  0  0
 28 29  1  0  0  0  0
 28 30  1  0  0  0  0
 29 30  1  0  0  0  0
 30 27  1  0  0  0  0
 31 32  1  0  0  0  0
 33 32  1  6  0  0  0
 33 39  1  0  0  0  0
 33 35  1  0  0  0  0
 34 35  1  0  0  0  0
 35 37  1  0  0  0  0
 35 36  1  0  0  0  0
 39 38  2  0  0  0  0
 40 39  1  0  0  0  0
 41 40  1  0  0  0  0
 43 42  1  0  0  0  0
 43 41  1  0  0  0  0
M  END
>  <MODEL>
7

>  <REMARK>
 VINA RESULT:      -7.2      2.084      2.772
  Name = 
  15 active torsions:
  status: ('A' for Active; 'I' for Inactive)
    1  A    between atoms: N_1  and  C_42
    2  A    between atoms: C_2  and  C_10
    3  A    between atoms: C_6  and  C_18
    4  A    between atoms: N_7  and  C_35
    5  A    between atoms: N_7  and  C_39
    6  A    between atoms: N_7  and  C_43
    7  A    between atoms: N_9  and  C_17
    8  A    between atoms: C_10  and  N_40
    9  A    between atoms: C_11  and  C_18
   10  A    between atoms: C_12  and  C_42
   11  A    between atoms: C_15  and  C_36
   12  A    between atoms: C_17  and  C_33
   13  A    between atoms: C_18  and  O_32
   14  A    between atoms: C_20  and  C_39
   15  A    between atoms: O_32  and  C_43
                            x       y       z     vdW  Elec       q    Type
                         _______ _______ _______ _____ _____    ______ ____

>  <TORSDO>
F 15

$$$$
=
 OpenBabel10222418583D

 43 46  0  0  1  0  0  0  0  0999 V2000
  181.5300  179.0270  140.6320 C   0  0  0  0  0  0  0  0  0  0  0  0
  181.7560  179.0650  143.4190 N   0  0  0  0  0  0  0  0  0  0  0  0
  183.8020  178.5130  140.3990 N   0  0  0  0  0  0  0  0  0  0  0  0
  185.2710  178.4340  142.2370 C   0  0  0  0  0  0  0  0  0  0  0  0
  180.6910  179.4810  142.8450 N   0  0  0  0  0  0  0  0  0  0  0  0
  182.8790  178.6390  142.6410 C   0  0  0  0  0  0  0  0  0  0  0  0
  182.6350  178.2370  141.2170 C   0  0  1  0  0  3  0  0  0  0  0  0
  184.1180  178.6610  143.1360 C   0  0  0  0  0  3  0  0  0  0  0  0
  185.0960  178.4300  140.9450 N   0  0  0  0  0  0  0  0  0  0  0  0
  181.7380  179.3330  138.8830 S   0  0  0  0  0  0  0  0  0  0  0  0
  180.5840  179.5810  141.4100 C   0  0  0  0  0  0  0  0  0  0  0  0
  183.5500  179.0980  139.0850 C   0  0  2  0  0  3  0  0  0  0  0  0
  179.4610  180.3620  140.8220 C   0  0  0  0  0  1  0  0  0  0  0  0
  184.0970  178.2180  138.0110 C   0  0  0  0  0  0  0  0  0  0  0  0
  185.2690  178.3950  137.5760 O   0  0  0  0  0  0  0  0  0  0  0  0
  183.2610  177.2030  137.4500 N   0  0  0  0  0  2  0  0  0  0  0  0
  183.7190  176.2880  136.4150 C   0  0  0  0  0  2  0  0  0  0  0  0
  185.7260  174.8070  136.9540 N   0  0  0  0  0  2  0  0  0  0  0  0
  184.3210  175.0660  137.0330 C   0  0  0  0  0  0  0  0  0  0  0  0
  183.5730  174.2400  137.6160 O   0  0  0  0  0  0  0  0  0  0  0  0
  186.6730  175.7140  136.3200 C   0  0  0  0  0  2  0  0  0  0  0  0
  188.7910  174.5150  136.8620 C   0  0  0  0  0  1  0  0  0  0  0  0
  187.9740  175.7670  137.1040 C   0  0  1  0  0  3  0  0  0  0  0  0
  188.7400  176.9260  136.6910 N   0  0  0  0  0  1  0  0  0  0  0  0
  186.6550  178.3740  142.8150 C   0  0  1  0  0  3  0  0  0  0  0  0
  186.5410  177.9270  144.2720 C   0  0  0  0  0  1  0  0  0  0  0  0
  187.5310  177.4770  142.0370 N   0  0  0  0  0  0  0  0  0  0  0  0
  189.1780  177.4760  140.2260 C   0  0  0  0  0  2  0  0  0  0  0  0
  188.1270  178.5100  139.9040 C   0  0  0  0  0  2  0  0  0  0  0  0
  188.5430  178.2830  141.3490 C   0  0  0  0  0  3  0  0  0  0  0  0
  188.2690  176.6330  142.9740 C   0  0  0  0  0  2  0  0  0  0  0  0
  189.6370  176.8860  142.8490 O   0  0  0  0  0  0  0  0  0  0  0  0
  190.1490  176.7340  144.1410 C   0  0  1  0  0  3  0  0  0  0  0  0
  191.4060  174.7810  143.5980 F   0  0  0  0  0  0  0  0  0  0  0  0
  191.5230  176.0660  144.0970 C   0  0  0  0  0  0  0  0  0  0  0  0
  192.0780  176.0140  145.3640 F   0  0  0  0  0  0  0  0  0  0  0  0
  192.3590  176.7880  143.2670 F   0  0  0  0  0  0  0  0  0  0  0  0
  190.6240  179.0800  144.2240 O   0  0  0  0  0  0  0  0  0  0  0  0
  190.1940  178.0670  144.8360 C   0  0  0  0  0  0  0  0  0  0  0  0
  189.7600  178.2000  146.1900 N   0  0  0  0  0  2  0  0  0  0  0  0
  189.2630  177.0760  146.9660 C   0  0  0  0  0  2  0  0  0  0  0  0
  188.1660  178.2390  148.8710 C   0  0  0  0  0  1  0  0  0  0  0  0
  187.9360  177.4350  147.6080 C   0  0  0  0  0  2  0  0  0  0  0  0
  1 11  2  0  0  0  0
  3  9  1  0  0  0  0
  3  7  1  0  0  0  0
  4 25  1  0  0  0  0
  4  8  1  0  0  0  0
  5  2  2  0  0  0  0
  6  8  2  0  0  0  0
  6  2  1  0  0  0  0
  7  1  1  6  0  0  0
  7  6  1  0  0  0  0
  9  4  2  0  0  0  0
 10 12  1  0  0  0  0
 10  1  1  0  0  0  0
 11  5  1  0  0  0  0
 12 14  1  6  0  0  0
 12  3  1  0  0  0  0
 13 11  1  0  0  0  0
 15 14  2  0  0  0  0
 16 14  1  0  0  0  0
 17 19  1  0  0  0  0
 17 16  1  0  0  0  0
 18 19  1  0  0  0  0
 19 20  2  0  0  0  0
 21 18  1  0  0  0  0
 21 23  1  0  0  0  0
 23 22  1  6  0  0  0
 24 23  1  0  0  0  0
 25 26  1  1  0  0  0
 27 25  1  0  0  0  0
 27 31  1  0  0  0  0
 28 30  1  0  0  0  0
 29 28  1  0  0  0  0
 29 30  1  0  0  0  0
 30 27  1  0  0  0  0
 32 31  1  0  0  0  0
 33 32  1  6  0  0  0
 33 39  1  0  0  0  0
 34 35  1  0  0  0  0
 35 33  1  0  0  0  0
 35 36  1  0  0  0  0
 37 35  1  0  0  0  0
 38 39  2  0  0  0  0
 39 40  1  0  0  0  0
 40 41  1  0  0  0  0
 41 43  1  0  0  0  0
 43 42  1  0  0  0  0
M  END
>  <MODEL>
8

>  <REMARK>
 VINA RESULT:      -7.1      1.504      2.064
  Name = 
  15 active torsions:
  status: ('A' for Active; 'I' for Inactive)
    1  A    between atoms: N_1  and  C_42
    2  A    between atoms: C_2  and  C_10
    3  A    between atoms: C_6  and  C_18
    4  A    between atoms: N_7  and  C_35
    5  A    between atoms: N_7  and  C_39
    6  A    between atoms: N_7  and  C_43
    7  A    between atoms: N_9  and  C_17
    8  A    between atoms: C_10  and  N_40
    9  A    between atoms: C_11  and  C_18
   10  A    between atoms: C_12  and  C_42
   11  A    between atoms: C_15  and  C_36
   12  A    between atoms: C_17  and  C_33
   13  A    between atoms: C_18  and  O_32
   14  A    between atoms: C_20  and  C_39
   15  A    between atoms: O_32  and  C_43
                            x       y       z     vdW  Elec       q    Type
                         _______ _______ _______ _____ _____    ______ ____

>  <TORSDO>
F 15

$$$$
=
 OpenBabel10222418583D

 43 46  0  0  1  0  0  0  0  0999 V2000
  183.3480  178.7540  140.8490 C   0  0  0  0  0  0  0  0  0  0  0  0
  181.6930  178.6250  143.0990 N   0  0  0  0  0  0  0  0  0  0  0  0
  185.2670  178.7120  142.1880 N   0  0  0  0  0  0  0  0  0  0  0  0
  185.1640  178.7840  144.5400 C   0  0  0  0  0  0  0  0  0  0  0  0
  181.2040  178.8670  141.9420 N   0  0  0  0  0  0  0  0  0  0  0  0
  183.1070  178.4860  143.2720 C   0  0  0  0  0  0  0  0  0  0  0  0
  183.9340  178.1530  142.0670 C   0  0  1  0  0  3  0  0  0  0  0  0
  183.6890  178.7130  144.4520 C   0  0  0  0  0  3  0  0  0  0  0  0
  185.8770  178.8430  143.4500 N   0  0  0  0  0  0  0  0  0  0  0  0
  184.5790  179.2250  139.6400 S   0  0  0  0  0  0  0  0  0  0  0  0
  182.0390  179.0520  140.7800 C   0  0  0  0  0  0  0  0  0  0  0  0
  185.8230  179.3330  140.9900 C   0  0  2  0  0  3  0  0  0  0  0  0
  181.4450  179.6410  139.5490 C   0  0  0  0  0  1  0  0  0  0  0  0
  187.0960  178.6610  140.5980 C   0  0  0  0  0  0  0  0  0  0  0  0
  188.1240  178.7700  141.3220 O   0  0  0  0  0  0  0  0  0  0  0  0
  187.1470  177.9320  139.3690 N   0  0  0  0  0  2  0  0  0  0  0  0
  188.3400  177.2290  138.9200 C   0  0  0  0  0  2  0  0  0  0  0  0
  189.7390  177.4070  136.7930 N   0  0  0  0  0  2  0  0  0  0  0  0
  189.0560  178.0350  137.8830 C   0  0  0  0  0  0  0  0  0  0  0  0
  189.0780  179.2890  137.9850 O   0  0  0  0  0  0  0  0  0  0  0  0
  189.7510  175.9670  136.5800 C   0  0  0  0  0  2  0  0  0  0  0  0
  191.9830  176.3850  137.6120 C   0  0  0  0  0  1  0  0  0  0  0  0
  191.1370  175.3970  136.8360 C   0  0  1  0  0  3  0  0  0  0  0  0
  191.0210  174.1670  137.5940 N   0  0  0  0  0  1  0  0  0  0  0  0
  185.8150  178.9510  145.8820 C   0  0  1  0  0  3  0  0  0  0  0  0
  184.9420  178.2530  146.9230 C   0  0  0  0  0  1  0  0  0  0  0  0
  187.1950  178.4260  145.8870 N   0  0  0  0  0  0  0  0  0  0  0  0
  188.8190  177.9050  147.6430 C   0  0  0  0  0  2  0  0  0  0  0  0
  187.6560  178.6260  148.2790 C   0  0  0  0  0  2  0  0  0  0  0  0
  187.4080  177.6690  147.1230 C   0  0  0  0  0  3  0  0  0  0  0  0
  187.3190  177.4560  144.8030 C   0  0  0  0  0  2  0  0  0  0  0  0
  188.3150  177.8730  143.9180 O   0  0  0  0  0  0  0  0  0  0  0  0
  189.4110  177.0530  144.2000 C   0  0  1  0  0  3  0  0  0  0  0  0
  188.5260  175.2800  142.8730 F   0  0  0  0  0  0  0  0  0  0  0  0
  189.6490  176.0650  143.0580 C   0  0  0  0  0  0  0  0  0  0  0  0
  190.7330  175.2510  143.3370 F   0  0  0  0  0  0  0  0  0  0  0  0
  189.8980  176.7630  141.8910 F   0  0  0  0  0  0  0  0  0  0  0  0
  190.7550  179.0150  143.9150 O   0  0  0  0  0  0  0  0  0  0  0  0
  190.6260  177.8950  144.4760 C   0  0  0  0  0  0  0  0  0  0  0  0
  191.6460  177.4380  145.3650 N   0  0  0  0  0  2  0  0  0  0  0  0
  191.5750  176.1520  146.0410 C   0  0  0  0  0  2  0  0  0  0  0  0
  192.8810  175.6280  148.0920 C   0  0  0  0  0  1  0  0  0  0  0  0
  191.6680  176.3500  147.5430 C   0  0  0  0  0  2  0  0  0  0  0  0
  2  6  1  0  0  0  0
  3  9  1  0  0  0  0
  4 25  1  0  0  0  0
  5  2  2  0  0  0  0
  6  8  2  0  0  0  0
  7  1  1  6  0  0  0
  7  3  1  0  0  0  0
  7  6  1  0  0  0  0
  8  4  1  0  0  0  0
  9  4  2  0  0  0  0
 10  1  1  0  0  0  0
 10 12  1  0  0  0  0
 11  1  2  0  0  0  0
 11  5  1  0  0  0  0
 12 14  1  6  0  0  0
 12  3  1  0  0  0  0
 13 11  1  0  0  0  0
 14 15  2  0  0  0  0
 16 14  1  0  0  0  0
 17 16  1  0  0  0  0
 18 19  1  0  0  0  0
 19 20  2  0  0  0  0
 19 17  1  0  0  0  0
 21 18  1  0  0  0  0
 21 23  1  0  0  0  0
 23 24  1  0  0  0  0
 23 22  1  1  0  0  0
 25 27  1  0  0  0  0
 25 26  1  1  0  0  0
 27 30  1  0  0  0  0
 28 29  1  0  0  0  0
 30 28  1  0  0  0  0
 30 29  1  0  0  0  0
 31 27  1  0  0  0  0
 32 31  1  0  0  0  0
 33 32  1  6  0  0  0
 33 39  1  0  0  0  0
 34 35  1  0  0  0  0
 35 36  1  0  0  0  0
 35 33  1  0  0  0  0
 37 35  1  0  0  0  0
 38 39  2  0  0  0  0
 39 40  1  0  0  0  0
 40 41  1  0  0  0  0
 41 43  1  0  0  0  0
 43 42  1  0  0  0  0
M  END
>  <MODEL>
9

>  <REMARK>
 VINA RESULT:      -6.9      1.776      2.804
  Name = 
  15 active torsions:
  status: ('A' for Active; 'I' for Inactive)
    1  A    between atoms: N_1  and  C_42
    2  A    between atoms: C_2  and  C_10
    3  A    between atoms: C_6  and  C_18
    4  A    between atoms: N_7  and  C_35
    5  A    between atoms: N_7  and  C_39
    6  A    between atoms: N_7  and  C_43
    7  A    between atoms: N_9  and  C_17
    8  A    between atoms: C_10  and  N_40
    9  A    between atoms: C_11  and  C_18
   10  A    between atoms: C_12  and  C_42
   11  A    between atoms: C_15  and  C_36
   12  A    between atoms: C_17  and  C_33
   13  A    between atoms: C_18  and  O_32
   14  A    between atoms: C_20  and  C_39
   15  A    between atoms: O_32  and  C_43
                            x       y       z     vdW  Elec       q    Type
                         _______ _______ _______ _____ _____    ______ ____

>  <TORSDO>
F 15

$$$$
