=
 OpenBabel10222420083D

 48 50  0  0  1  0  0  0  0  0999 V2000
  190.7310  177.1470  139.3070 N   0  0  0  0  0  0  0  0  0  0  0  0
  190.0220  177.4820  140.5110 C   0  0  0  0  0  0  0  0  0  0  0  0
  188.7650  177.5890  140.4880 O   0  0  0  0  0  0  0  0  0  0  0  0
  192.1280  176.7270  139.3490 C   0  0  0  0  0  2  0  0  0  0  0  0
  192.6930  176.6120  137.9420 C   0  0  0  0  0  2  0  0  0  0  0  0
  193.2530  175.2230  137.6920 C   0  0  0  0  0  2  0  0  0  0  0  0
  193.8340  175.1430  136.2930 C   0  0  0  0  0  2  0  0  0  0  0  0
  194.8370  176.1770  136.1200 N   0  0  0  0  0  2  0  0  0  0  0  0
  195.7810  175.6780  135.1340 C   0  0  0  0  0  2  0  0  0  0  0  0
  197.2030  176.0010  135.5590 C   0  0  0  0  0  2  0  0  0  0  0  0
  197.7730  174.9030  136.4580 C   0  0  1  0  0  3  0  0  0  0  0  0
  197.8510  175.3140  137.7950 O   0  0  0  0  0  1  0  0  0  0  0  0
  197.0800  173.6810  136.3260 O   0  0  0  0  0  0  0  0  0  0  0  0
  196.6400  171.6060  137.4220 C   0  0  0  0  0  1  0  0  0  0  0  0
  197.6110  172.7570  137.2410 C   0  0  0  0  0  2  0  0  0  0  0  0
  190.7540  177.6630  141.8070 C   0  0  0  0  0  2  0  0  0  0  0  0
  186.3330  178.4070  147.4260 C   0  0  0  0  0  3  0  0  0  0  0  0
  188.3020  177.6420  146.2470 C   0  0  0  0  0  0  0  0  0  0  0  0
  189.6340  177.1960  146.2610 C   0  0  0  0  0  3  0  0  0  0  0  0
  189.5560  176.9850  143.8620 C   0  0  0  0  0  0  0  0  0  0  0  0
  185.6250  178.5010  146.2150 C   0  0  0  0  0  0  0  0  0  0  0  0
  191.5100  176.3650  144.8210 N   0  0  0  0  0  0  0  0  0  0  0  0
  186.2620  178.1660  145.0140 C   0  0  0  0  0  3  0  0  0  0  0  0
  190.2190  176.8760  145.0380 C   0  0  0  0  0  0  0  0  0  0  0  0
  187.6630  177.9780  147.4420 C   0  0  0  0  0  3  0  0  0  0  0  0
  187.5920  177.7410  145.0150 C   0  0  0  0  0  0  0  0  0  0  0  0
  191.7100  176.1070  143.4500 N   0  0  0  0  0  0  0  0  0  0  0  0
  188.2260  177.4050  143.8060 C   0  0  0  0  0  3  0  0  0  0  0  0
  190.4580  176.5220  142.7740 C   0  0  2  0  0  3  0  0  0  0  0  0
  184.2930  178.9220  146.1770 O   0  0  0  0  0  0  0  0  0  0  0  0
  183.5350  178.9660  144.9750 C   0  0  0  0  0  1  0  0  0  0  0  0
  190.0310  177.1100  138.0300 C   0  0  0  0  0  2  0  0  0  0  0  0
  189.1300  175.9260  137.9740 C   0  0  0  0  0  3  0  0  0  0  0  0
  186.7070  176.1730  137.0320 C   0  0  0  0  0  3  0  0  0  0  0  0
  187.9210  176.0490  137.5040 C   0  0  0  0  0  0  0  0  0  0  0  0
  185.6850  175.1140  137.1280 C   0  0  0  0  0  0  0  0  0  0  0  0
  186.0490  173.8250  137.1810 C   0  0  0  0  0  3  0  0  0  0  0  0
  185.0980  172.6800  137.2910 C   0  0  0  0  0  1  0  0  0  0  0  0
  183.9930  175.6280  137.1920 S   0  0  0  0  0  0  0  0  0  0  0  0
  183.3150  175.2170  135.9140 O   0  0  0  0  0  0  0  0  0  0  0  0
  183.2760  174.9650  138.3350 O   0  0  0  0  0  0  0  0  0  0  0  0
  183.8930  177.3530  137.3410 N   0  0  0  0  0  2  0  0  0  0  0  0
  182.5760  177.6980  137.8560 C   0  0  0  0  0  2  0  0  0  0  0  0
  182.5850  179.1080  138.4210 C   0  0  0  0  0  2  0  0  0  0  0  0
  184.0040  179.5300  138.7610 C   0  0  0  0  0  2  0  0  0  0  0  0
  184.1830  179.5370  140.2020 N   0  0  0  0  0  2  0  0  0  0  0  0
  185.4220  178.8310  140.4800 C   0  0  0  0  0  2  0  0  0  0  0  0
  185.4620  178.4730  141.8280 O   0  0  0  0  0  1  0  0  0  0  0  0
  1  4  1  0  0  0  0
  1  2  1  0  0  0  0
  2 16  1  0  0  0  0
  3  2  2  0  0  0  0
  5  4  1  0  0  0  0
  6  5  1  0  0  0  0
  7  6  1  0  0  0  0
  8  7  1  0  0  0  0
  9 10  1  0  0  0  0
  9  8  1  0  0  0  0
 10 11  1  0  0  0  0
 11 12  1  1  0  0  0
 13 11  1  0  0  0  0
 13 15  1  0  0  0  0
 15 14  1  0  0  0  0
 17 25  1  0  0  0  0
 18 19  1  0  0  0  0
 18 25  2  0  0  0  0
 20 24  1  0  0  0  0
 21 17  2  0  0  0  0
 22 24  1  0  0  0  0
 23 26  2  0  0  0  0
 23 21  1  0  0  0  0
 24 19  2  0  0  0  0
 26 18  1  0  0  0  0
 27 22  2  0  0  0  0
 28 20  2  0  0  0  0
 28 26  1  0  0  0  0
 29 16  1  6  0  0  0
 29 27  1  0  0  0  0
 29 20  1  0  0  0  0
 30 21  1  0  0  0  0
 31 30  1  0  0  0  0
 32  1  1  0  0  0  0
 33 32  1  0  0  0  0
 34 36  1  0  0  0  0
 34 35  2  0  0  0  0
 35 33  2  0  0  0  0
 36 37  2  0  0  0  0
 36 39  1  0  0  0  0
 37 38  1  0  0  0  0
 39 42  1  0  0  0  0
 39 41  2  0  0  0  0
 40 39  2  0  0  0  0
 42 43  1  0  0  0  0
 43 44  1  0  0  0  0
 44 45  1  0  0  0  0
 45 46  1  0  0  0  0
 46 47  1  0  0  0  0
 47 48  1  0  0  0  0
M  END
>  <MODEL>
1

>  <REMARK>
 VINA RESULT:      -7.2      0.000      0.000
  Name = 
  23 active torsions:
  status: ('A' for Active; 'I' for Inactive)
    1  A    between atoms: C_3  and  N_17
    2  A    between atoms: C_3  and  C_47
    3  A    between atoms: N_5  and  C_23
    4  A    between atoms: N_5  and  C_29
    5  A    between atoms: C_7  and  O_8
    6  A    between atoms: C_9  and  C_24
    7  A    between atoms: C_9  and  N_43
    8  A    between atoms: C_10  and  N_17
    9  A    between atoms: C_10  and  C_27
   10  A    between atoms: C_12  and  C_13
   11  A    between atoms: C_13  and  N_14
   12  A    between atoms: N_14  and  C_25
   13  A    between atoms: C_16  and  C_19
   14  A    between atoms: C_19  and  C_46
   15  A    between atoms: C_20  and  C_21
   16  A    between atoms: C_20  and  S_28
   17  A    between atoms: C_24  and  C_29
   18  A    between atoms: C_25  and  C_35
   19  A    between atoms: C_27  and  C_35
   20  A    between atoms: S_28  and  N_43
   21  A    between atoms: C_38  and  O_48
   22  A    between atoms: C_39  and  C_47
   23  A    between atoms: C_39  and  O_48
                            x       y       z     vdW  Elec       q    Type
                         _______ _______ _______ _____ _____    ______ ____

>  <TORSDO>
F 23

$$$$
=
 OpenBabel10222420083D

 48 50  0  0  1  0  0  0  0  0999 V2000
  187.7450  177.7290  137.0770 N   0  0  0  0  0  0  0  0  0  0  0  0
  188.4210  178.5720  138.0250 C   0  0  0  0  0  0  0  0  0  0  0  0
  189.1300  179.5320  137.6140 O   0  0  0  0  0  0  0  0  0  0  0  0
  186.6970  176.8080  137.5050 C   0  0  0  0  0  2  0  0  0  0  0  0
  185.3340  177.4770  137.4210 C   0  0  0  0  0  2  0  0  0  0  0  0
  184.2920  176.5220  136.8660 C   0  0  0  0  0  2  0  0  0  0  0  0
  183.1170  176.4250  137.8200 C   0  0  0  0  0  2  0  0  0  0  0  0
  183.0660  177.6100  138.6550 N   0  0  0  0  0  2  0  0  0  0  0  0
  183.0650  177.1470  140.0330 C   0  0  0  0  0  2  0  0  0  0  0  0
  183.1900  178.3260  140.9830 C   0  0  0  0  0  2  0  0  0  0  0  0
  184.6470  178.5550  141.3880 C   0  0  1  0  0  3  0  0  0  0  0  0
  185.2420  179.5750  140.6330 O   0  0  0  0  0  1  0  0  0  0  0  0
  184.7950  178.7770  142.7740 O   0  0  0  0  0  0  0  0  0  0  0  0
  183.6590  179.0190  144.8600 C   0  0  0  0  0  1  0  0  0  0  0  0
  183.5200  178.8670  143.3570 C   0  0  0  0  0  2  0  0  0  0  0  0
  188.2610  178.3520  139.4990 C   0  0  0  0  0  2  0  0  0  0  0  0
  190.0700  177.3510  146.3830 C   0  0  0  0  0  3  0  0  0  0  0  0
  190.3970  177.3390  143.9860 C   0  0  0  0  0  0  0  0  0  0  0  0
  191.2540  177.3680  142.8730 C   0  0  0  0  0  3  0  0  0  0  0  0
  189.3300  177.2330  141.4290 C   0  0  0  0  0  0  0  0  0  0  0  0
  188.6780  177.2450  146.2090 C   0  0  0  0  0  0  0  0  0  0  0  0
  191.3300  177.2730  140.3700 N   0  0  0  0  0  0  0  0  0  0  0  0
  188.1460  177.1900  144.9170 C   0  0  0  0  0  3  0  0  0  0  0  0
  190.6700  177.3100  141.6090 C   0  0  0  0  0  0  0  0  0  0  0  0
  190.9240  177.3950  145.2780 C   0  0  0  0  0  3  0  0  0  0  0  0
  188.9870  177.2390  143.8030 C   0  0  0  0  0  0  0  0  0  0  0  0
  190.3960  177.1490  139.3210 N   0  0  0  0  0  0  0  0  0  0  0  0
  188.4460  177.1820  142.5070 C   0  0  0  0  0  3  0  0  0  0  0  0
  189.0620  177.1430  139.9680 C   0  0  2  0  0  3  0  0  0  0  0  0
  187.8070  177.1940  147.3010 O   0  0  0  0  0  0  0  0  0  0  0  0
  188.0590  177.8830  148.5180 C   0  0  0  0  0  1  0  0  0  0  0  0
  188.0160  177.8640  135.6520 C   0  0  0  0  0  2  0  0  0  0  0  0
  189.2830  177.1640  135.3030 C   0  0  0  0  0  3  0  0  0  0  0  0
  189.7540  174.7720  136.2380 C   0  0  0  0  0  3  0  0  0  0  0  0
  189.5190  175.9700  135.7700 C   0  0  0  0  0  0  0  0  0  0  0  0
  191.0580  174.0930  136.1160 C   0  0  0  0  0  0  0  0  0  0  0  0
  191.1240  172.8290  135.6730 C   0  0  0  0  0  3  0  0  0  0  0  0
  192.3900  172.0570  135.5010 C   0  0  0  0  0  1  0  0  0  0  0  0
  192.4980  175.0250  136.5530 S   0  0  0  0  0  0  0  0  0  0  0  0
  193.3200  175.2510  135.3150 O   0  0  0  0  0  0  0  0  0  0  0  0
  192.1160  176.3680  137.1130 O   0  0  0  0  0  0  0  0  0  0  0  0
  193.4570  174.1470  137.7010 N   0  0  0  0  0  2  0  0  0  0  0  0
  194.5800  174.9830  138.1010 C   0  0  0  0  0  2  0  0  0  0  0  0
  195.6900  174.1260  138.6850 C   0  0  0  0  0  2  0  0  0  0  0  0
  196.8430  174.0150  137.7010 C   0  0  0  0  0  2  0  0  0  0  0  0
  197.3520  175.3390  137.3890 N   0  0  0  0  0  2  0  0  0  0  0  0
  197.7090  175.3360  135.9810 C   0  0  0  0  0  2  0  0  0  0  0  0
  196.7160  175.9860  135.2470 O   0  0  0  0  0  1  0  0  0  0  0  0
  1  4  1  0  0  0  0
  1  2  1  0  0  0  0
  2 16  1  0  0  0  0
  3  2  2  0  0  0  0
  5  4  1  0  0  0  0
  6  5  1  0  0  0  0
  6  7  1  0  0  0  0
  7  8  1  0  0  0  0
  8  9  1  0  0  0  0
  9 10  1  0  0  0  0
 10 11  1  0  0  0  0
 11 12  1  6  0  0  0
 11 13  1  0  0  0  0
 13 15  1  0  0  0  0
 15 14  1  0  0  0  0
 18 25  1  0  0  0  0
 19 18  2  0  0  0  0
 20 24  2  0  0  0  0
 20 28  1  0  0  0  0
 21 17  1  0  0  0  0
 21 30  1  0  0  0  0
 22 24  1  0  0  0  0
 23 21  2  0  0  0  0
 24 19  1  0  0  0  0
 25 17  2  0  0  0  0
 26 18  1  0  0  0  0
 26 23  1  0  0  0  0
 27 29  1  0  0  0  0
 27 22  2  0  0  0  0
 28 26  2  0  0  0  0
 29 16  1  6  0  0  0
 29 20  1  0  0  0  0
 30 31  1  0  0  0  0
 32  1  1  0  0  0  0
 33 32  1  0  0  0  0
 33 35  2  0  0  0  0
 35 34  2  0  0  0  0
 36 34  1  0  0  0  0
 36 39  1  0  0  0  0
 37 36  2  0  0  0  0
 38 37  1  0  0  0  0
 39 41  2  0  0  0  0
 39 42  1  0  0  0  0
 40 39  2  0  0  0  0
 42 43  1  0  0  0  0
 43 44  1  0  0  0  0
 45 44  1  0  0  0  0
 46 45  1  0  0  0  0
 47 46  1  0  0  0  0
 48 47  1  0  0  0  0
M  END
>  <MODEL>
2

>  <REMARK>
 VINA RESULT:      -6.9      2.712      8.990
  Name = 
  23 active torsions:
  status: ('A' for Active; 'I' for Inactive)
    1  A    between atoms: C_3  and  N_17
    2  A    between atoms: C_3  and  C_47
    3  A    between atoms: N_5  and  C_23
    4  A    between atoms: N_5  and  C_29
    5  A    between atoms: C_7  and  O_8
    6  A    between atoms: C_9  and  C_24
    7  A    between atoms: C_9  and  N_43
    8  A    between atoms: C_10  and  N_17
    9  A    between atoms: C_10  and  C_27
   10  A    between atoms: C_12  and  C_13
   11  A    between atoms: C_13  and  N_14
   12  A    between atoms: N_14  and  C_25
   13  A    between atoms: C_16  and  C_19
   14  A    between atoms: C_19  and  C_46
   15  A    between atoms: C_20  and  C_21
   16  A    between atoms: C_20  and  S_28
   17  A    between atoms: C_24  and  C_29
   18  A    between atoms: C_25  and  C_35
   19  A    between atoms: C_27  and  C_35
   20  A    between atoms: S_28  and  N_43
   21  A    between atoms: C_38  and  O_48
   22  A    between atoms: C_39  and  C_47
   23  A    between atoms: C_39  and  O_48
                            x       y       z     vdW  Elec       q    Type
                         _______ _______ _______ _____ _____    ______ ____

>  <TORSDO>
F 23

$$$$
=
 OpenBabel10222420083D

 48 50  0  0  1  0  0  0  0  0999 V2000
  190.3030  177.0390  139.9010 N   0  0  0  0  0  0  0  0  0  0  0  0
  188.9710  177.4860  139.5980 C   0  0  0  0  0  0  0  0  0  0  0  0
  188.5130  178.5170  140.1640 O   0  0  0  0  0  0  0  0  0  0  0  0
  190.9700  176.0460  139.0660 C   0  0  0  0  0  2  0  0  0  0  0  0
  191.6390  176.7130  137.8740 C   0  0  0  0  0  2  0  0  0  0  0  0
  193.1160  176.3690  137.8160 C   0  0  0  0  0  2  0  0  0  0  0  0
  193.5160  176.0400  136.3890 C   0  0  0  0  0  2  0  0  0  0  0  0
  194.7150  176.7760  136.0360 N   0  0  0  0  0  2  0  0  0  0  0  0
  195.4640  175.9320  135.1200 C   0  0  0  0  0  2  0  0  0  0  0  0
  196.9520  176.2180  135.2410 C   0  0  0  0  0  2  0  0  0  0  0  0
  197.6490  175.1590  136.0970 C   0  0  1  0  0  3  0  0  0  0  0  0
  198.8960  174.8020  135.5690 O   0  0  0  0  0  1  0  0  0  0  0  0
  197.7440  175.5360  137.4540 O   0  0  0  0  0  0  0  0  0  0  0  0
  196.1290  174.1940  138.5900 C   0  0  0  0  0  1  0  0  0  0  0  0
  197.5950  174.3920  138.2540 C   0  0  0  0  0  2  0  0  0  0  0  0
  188.1330  176.7690  138.5840 C   0  0  0  0  0  2  0  0  0  0  0  0
  181.1450  178.4570  138.5450 C   0  0  0  0  0  3  0  0  0  0  0  0
  183.2950  177.9130  137.5770 C   0  0  0  0  0  0  0  0  0  0  0  0
  184.0590  177.4110  136.5100 C   0  0  0  0  0  3  0  0  0  0  0  0
  186.0600  177.8520  137.7770 C   0  0  0  0  0  0  0  0  0  0  0  0
  181.7740  178.9480  139.7030 C   0  0  0  0  0  0  0  0  0  0  0  0
  186.3970  177.0010  135.7070 N   0  0  0  0  0  0  0  0  0  0  0  0
  183.1700  178.9170  139.7980 C   0  0  0  0  0  3  0  0  0  0  0  0
  185.4440  177.4040  136.6570 C   0  0  0  0  0  0  0  0  0  0  0  0
  181.9020  177.9440  137.4870 C   0  0  0  0  0  3  0  0  0  0  0  0
  183.9380  178.4030  138.7510 C   0  0  0  0  0  0  0  0  0  0  0  0
  187.7010  177.2040  136.2050 N   0  0  0  0  0  0  0  0  0  0  0  0
  185.3400  178.3750  138.8520 C   0  0  0  0  0  3  0  0  0  0  0  0
  187.5300  177.7410  137.5760 C   0  0  2  0  0  3  0  0  0  0  0  0
  181.0370  179.4700  140.7700 O   0  0  0  0  0  0  0  0  0  0  0  0
  179.8030  178.9110  141.1970 C   0  0  0  0  0  1  0  0  0  0  0  0
  191.0560  177.6570  140.9840 C   0  0  0  0  0  2  0  0  0  0  0  0
  190.9180  176.8510  142.2290 C   0  0  0  0  0  3  0  0  0  0  0  0
  190.4820  178.0400  144.5120 C   0  0  0  0  0  3  0  0  0  0  0  0
  190.7010  177.4450  143.3680 C   0  0  0  0  0  0  0  0  0  0  0  0
  190.5370  177.3480  145.8130 C   0  0  0  0  0  0  0  0  0  0  0  0
  191.6010  176.6000  146.1380 C   0  0  0  0  0  3  0  0  0  0  0  0
  191.7610  175.8700  147.4300 C   0  0  0  0  0  1  0  0  0  0  0  0
  189.1630  177.5730  146.9060 S   0  0  0  0  0  0  0  0  0  0  0  0
  188.6740  176.2220  147.3510 O   0  0  0  0  0  0  0  0  0  0  0  0
  189.5740  178.3470  148.1280 O   0  0  0  0  0  0  0  0  0  0  0  0
  187.8690  178.3870  146.0870 N   0  0  0  0  0  2  0  0  0  0  0  0
  186.8560  177.4060  145.7300 C   0  0  0  0  0  2  0  0  0  0  0  0
  186.9520  177.0650  144.2530 C   0  0  0  0  0  2  0  0  0  0  0  0
  186.1930  178.0890  143.4260 C   0  0  0  0  0  2  0  0  0  0  0  0
  185.0560  178.5860  144.1820 N   0  0  0  0  0  2  0  0  0  0  0  0
  183.8980  178.5060  143.3090 C   0  0  0  0  0  2  0  0  0  0  0  0
  182.9060  179.3710  143.7710 O   0  0  0  0  0  1  0  0  0  0  0  0
  1 32  1  0  0  0  0
  2  1  1  0  0  0  0
  2  3  2  0  0  0  0
  4  1  1  0  0  0  0
  5  4  1  0  0  0  0
  6  5  1  0  0  0  0
  7  6  1  0  0  0  0
  8  7  1  0  0  0  0
  9 10  1  0  0  0  0
  9  8  1  0  0  0  0
 10 11  1  0  0  0  0
 11 12  1  6  0  0  0
 11 13  1  0  0  0  0
 13 15  1  0  0  0  0
 15 14  1  0  0  0  0
 16  2  1  0  0  0  0
 17 21  1  0  0  0  0
 18 26  1  0  0  0  0
 19 24  1  0  0  0  0
 19 18  2  0  0  0  0
 20 28  1  0  0  0  0
 21 23  2  0  0  0  0
 21 30  1  0  0  0  0
 22 27  2  0  0  0  0
 22 24  1  0  0  0  0
 24 20  2  0  0  0  0
 25 18  1  0  0  0  0
 25 17  2  0  0  0  0
 26 28  2  0  0  0  0
 26 23  1  0  0  0  0
 27 29  1  0  0  0  0
 29 20  1  0  0  0  0
 29 16  1  1  0  0  0
 30 31  1  0  0  0  0
 32 33  1  0  0  0  0
 33 35  2  0  0  0  0
 34 36  1  0  0  0  0
 35 34  2  0  0  0  0
 36 37  2  0  0  0  0
 36 39  1  0  0  0  0
 37 38  1  0  0  0  0
 39 40  2  0  0  0  0
 39 41  2  0  0  0  0
 42 39  1  0  0  0  0
 43 42  1  0  0  0  0
 44 43  1  0  0  0  0
 45 46  1  0  0  0  0
 45 44  1  0  0  0  0
 47 48  1  0  0  0  0
 47 46  1  0  0  0  0
M  END
>  <MODEL>
3

>  <REMARK>
 VINA RESULT:      -6.7      2.863      7.052
  Name = 
  23 active torsions:
  status: ('A' for Active; 'I' for Inactive)
    1  A    between atoms: C_3  and  N_17
    2  A    between atoms: C_3  and  C_47
    3  A    between atoms: N_5  and  C_23
    4  A    between atoms: N_5  and  C_29
    5  A    between atoms: C_7  and  O_8
    6  A    between atoms: C_9  and  C_24
    7  A    between atoms: C_9  and  N_43
    8  A    between atoms: C_10  and  N_17
    9  A    between atoms: C_10  and  C_27
   10  A    between atoms: C_12  and  C_13
   11  A    between atoms: C_13  and  N_14
   12  A    between atoms: N_14  and  C_25
   13  A    between atoms: C_16  and  C_19
   14  A    between atoms: C_19  and  C_46
   15  A    between atoms: C_20  and  C_21
   16  A    between atoms: C_20  and  S_28
   17  A    between atoms: C_24  and  C_29
   18  A    between atoms: C_25  and  C_35
   19  A    between atoms: C_27  and  C_35
   20  A    between atoms: S_28  and  N_43
   21  A    between atoms: C_38  and  O_48
   22  A    between atoms: C_39  and  C_47
   23  A    between atoms: C_39  and  O_48
                            x       y       z     vdW  Elec       q    Type
                         _______ _______ _______ _____ _____    ______ ____

>  <TORSDO>
F 23

$$$$
=
 OpenBabel10222420083D

 48 50  0  0  1  0  0  0  0  0999 V2000
  190.2300  177.2280  139.8410 N   0  0  0  0  0  0  0  0  0  0  0  0
  189.0300  177.7910  139.2860 C   0  0  0  0  0  0  0  0  0  0  0  0
  188.6350  178.9260  139.6700 O   0  0  0  0  0  0  0  0  0  0  0  0
  190.8740  176.0740  139.2230 C   0  0  0  0  0  2  0  0  0  0  0  0
  191.9470  176.5230  138.2430 C   0  0  0  0  0  2  0  0  0  0  0  0
  192.1400  175.4980  137.1400 C   0  0  0  0  0  2  0  0  0  0  0  0
  190.9670  174.5350  137.1150 C   0  0  0  0  0  2  0  0  0  0  0  0
  190.4710  174.4040  135.7580 N   0  0  0  0  0  2  0  0  0  0  0  0
  189.0230  174.3200  135.8530 C   0  0  0  0  0  2  0  0  0  0  0  0
  188.6250  173.3450  136.9480 C   0  0  0  0  0  2  0  0  0  0  0  0
  187.1890  172.8540  136.7530 C   0  0  1  0  0  3  0  0  0  0  0  0
  187.1370  171.7020  135.9590 O   0  0  0  0  0  1  0  0  0  0  0  0
  186.5080  172.6770  137.9760 O   0  0  0  0  0  0  0  0  0  0  0  0
  184.7140  174.1430  137.3950 C   0  0  0  0  0  1  0  0  0  0  0  0
  185.1250  172.7230  137.7350 C   0  0  0  0  0  2  0  0  0  0  0  0
  188.2620  177.0640  138.2230 C   0  0  0  0  0  2  0  0  0  0  0  0
  181.1010  177.6070  137.9210 C   0  0  0  0  0  3  0  0  0  0  0  0
  183.3520  177.5300  137.0390 C   0  0  0  0  0  0  0  0  0  0  0  0
  184.2360  177.2840  135.9750 C   0  0  0  0  0  3  0  0  0  0  0  0
  186.0770  177.8890  137.4070 C   0  0  0  0  0  0  0  0  0  0  0  0
  181.5860  178.0540  139.1630 C   0  0  0  0  0  0  0  0  0  0  0  0
  186.6440  177.3490  135.2830 N   0  0  0  0  0  0  0  0  0  0  0  0
  182.9620  178.2360  139.3430 C   0  0  0  0  0  3  0  0  0  0  0  0
  185.5950  177.4810  136.2080 C   0  0  0  0  0  0  0  0  0  0  0  0
  181.9790  177.3480  136.8650 C   0  0  0  0  0  3  0  0  0  0  0  0
  183.8520  177.9760  138.2980 C   0  0  0  0  0  0  0  0  0  0  0  0
  187.8720  177.6990  135.8820 N   0  0  0  0  0  0  0  0  0  0  0  0
  185.2320  178.1620  138.4830 C   0  0  0  0  0  3  0  0  0  0  0  0
  187.5530  178.0380  137.2890 C   0  0  2  0  0  3  0  0  0  0  0  0
  180.7260  178.3240  140.2310 O   0  0  0  0  0  0  0  0  0  0  0  0
  181.1900  178.7630  141.5000 C   0  0  0  0  0  1  0  0  0  0  0  0
  190.8900  177.8740  140.9670 C   0  0  0  0  0  2  0  0  0  0  0  0
  190.7450  177.0410  142.1930 C   0  0  0  0  0  3  0  0  0  0  0  0
  190.2670  178.1780  144.4950 C   0  0  0  0  0  3  0  0  0  0  0  0
  190.5070  177.6090  143.3420 C   0  0  0  0  0  0  0  0  0  0  0  0
  190.3130  177.4590  145.7820 C   0  0  0  0  0  0  0  0  0  0  0  0
  191.4040  176.7620  146.1300 C   0  0  0  0  0  3  0  0  0  0  0  0
  191.5570  176.0120  147.4110 C   0  0  0  0  0  1  0  0  0  0  0  0
  188.8900  177.5830  146.8270 S   0  0  0  0  0  0  0  0  0  0  0  0
  188.6020  176.2290  147.4130 O   0  0  0  0  0  0  0  0  0  0  0  0
  189.1420  178.5390  147.9610 O   0  0  0  0  0  0  0  0  0  0  0  0
  187.5110  178.0940  145.9080 N   0  0  0  0  0  2  0  0  0  0  0  0
  187.2260  177.0830  144.9000 C   0  0  0  0  0  2  0  0  0  0  0  0
  186.2240  177.6160  143.8900 C   0  0  0  0  0  2  0  0  0  0  0  0
  185.6450  178.9360  144.3680 C   0  0  0  0  0  2  0  0  0  0  0  0
  184.3640  179.1730  143.7250 N   0  0  0  0  0  2  0  0  0  0  0  0
  183.3380  178.9690  144.7330 C   0  0  0  0  0  2  0  0  0  0  0  0
  183.9230  178.9710  146.0000 O   0  0  0  0  0  1  0  0  0  0  0  0
  1 32  1  0  0  0  0
  2  3  2  0  0  0  0
  2  1  1  0  0  0  0
  4  1  1  0  0  0  0
  5  4  1  0  0  0  0
  6  5  1  0  0  0  0
  7  6  1  0  0  0  0
  8  9  1  0  0  0  0
  8  7  1  0  0  0  0
  9 10  1  0  0  0  0
 11 12  1  1  0  0  0
 11 10  1  0  0  0  0
 11 13  1  0  0  0  0
 14 15  1  0  0  0  0
 15 13  1  0  0  0  0
 16  2  1  0  0  0  0
 17 21  1  0  0  0  0
 18 26  1  0  0  0  0
 19 24  1  0  0  0  0
 19 18  2  0  0  0  0
 20 28  1  0  0  0  0
 21 23  2  0  0  0  0
 21 30  1  0  0  0  0
 22 27  2  0  0  0  0
 22 24  1  0  0  0  0
 24 20  2  0  0  0  0
 25 18  1  0  0  0  0
 25 17  2  0  0  0  0
 26 28  2  0  0  0  0
 26 23  1  0  0  0  0
 27 29  1  0  0  0  0
 29 20  1  0  0  0  0
 29 16  1  1  0  0  0
 30 31  1  0  0  0  0
 32 33  1  0  0  0  0
 33 35  2  0  0  0  0
 34 36  1  0  0  0  0
 35 34  2  0  0  0  0
 36 37  2  0  0  0  0
 36 39  1  0  0  0  0
 37 38  1  0  0  0  0
 39 40  2  0  0  0  0
 39 41  2  0  0  0  0
 42 39  1  0  0  0  0
 43 42  1  0  0  0  0
 44 45  1  0  0  0  0
 44 43  1  0  0  0  0
 46 45  1  0  0  0  0
 46 47  1  0  0  0  0
 47 48  1  0  0  0  0
M  END
>  <MODEL>
4

>  <REMARK>
 VINA RESULT:      -6.5      3.762      8.242
  Name = 
  23 active torsions:
  status: ('A' for Active; 'I' for Inactive)
    1  A    between atoms: C_3  and  N_17
    2  A    between atoms: C_3  and  C_47
    3  A    between atoms: N_5  and  C_23
    4  A    between atoms: N_5  and  C_29
    5  A    between atoms: C_7  and  O_8
    6  A    between atoms: C_9  and  C_24
    7  A    between atoms: C_9  and  N_43
    8  A    between atoms: C_10  and  N_17
    9  A    between atoms: C_10  and  C_27
   10  A    between atoms: C_12  and  C_13
   11  A    between atoms: C_13  and  N_14
   12  A    between atoms: N_14  and  C_25
   13  A    between atoms: C_16  and  C_19
   14  A    between atoms: C_19  and  C_46
   15  A    between atoms: C_20  and  C_21
   16  A    between atoms: C_20  and  S_28
   17  A    between atoms: C_24  and  C_29
   18  A    between atoms: C_25  and  C_35
   19  A    between atoms: C_27  and  C_35
   20  A    between atoms: S_28  and  N_43
   21  A    between atoms: C_38  and  O_48
   22  A    between atoms: C_39  and  C_47
   23  A    between atoms: C_39  and  O_48
                            x       y       z     vdW  Elec       q    Type
                         _______ _______ _______ _____ _____    ______ ____

>  <TORSDO>
F 23

$$$$
=
 OpenBabel10222420083D

 48 50  0  0  1  0  0  0  0  0999 V2000
  188.7990  178.1050  140.6590 N   0  0  0  0  0  0  0  0  0  0  0  0
  189.3010  178.1540  139.3140 C   0  0  0  0  0  0  0  0  0  0  0  0
  188.9700  179.1080  138.5560 O   0  0  0  0  0  0  0  0  0  0  0  0
  189.3800  177.2000  141.6450 C   0  0  0  0  0  2  0  0  0  0  0  0
  189.6430  177.9330  142.9520 C   0  0  0  0  0  2  0  0  0  0  0  0
  191.1130  178.2850  143.0920 C   0  0  0  0  0  2  0  0  0  0  0  0
  191.5790  178.0080  144.5100 C   0  0  0  0  0  2  0  0  0  0  0  0
  191.1780  176.6710  144.9040 N   0  0  0  0  0  2  0  0  0  0  0  0
  190.8480  176.7380  146.3180 C   0  0  0  0  0  2  0  0  0  0  0  0
  189.6320  177.6230  146.5320 C   0  0  0  0  0  2  0  0  0  0  0  0
  189.0680  177.4540  147.9430 C   0  0  1  0  0  3  0  0  0  0  0  0
  189.4910  178.4800  148.7980 O   0  0  0  0  0  1  0  0  0  0  0  0
  187.6640  177.3110  147.9520 O   0  0  0  0  0  0  0  0  0  0  0  0
  185.8190  178.5400  147.0650 C   0  0  0  0  0  1  0  0  0  0  0  0
  187.1450  177.8650  146.7700 C   0  0  0  0  0  2  0  0  0  0  0  0
  190.2500  177.1080  138.8100 C   0  0  0  0  0  2  0  0  0  0  0  0
  185.6970  172.1530  136.2820 C   0  0  0  0  0  3  0  0  0  0  0  0
  187.7490  173.4310  136.3700 C   0  0  0  0  0  0  0  0  0  0  0  0
  189.1190  173.5570  136.0860 C   0  0  0  0  0  3  0  0  0  0  0  0
  189.0970  175.7420  137.1000 C   0  0  0  0  0  0  0  0  0  0  0  0
  185.0010  173.1990  136.9130 C   0  0  0  0  0  0  0  0  0  0  0  0
  191.0890  175.0990  136.2410 N   0  0  0  0  0  0  0  0  0  0  0  0
  185.6850  174.3640  137.2770 C   0  0  0  0  0  3  0  0  0  0  0  0
  189.7510  174.7380  136.4700 C   0  0  0  0  0  0  0  0  0  0  0  0
  187.0630  172.2690  136.0100 C   0  0  0  0  0  3  0  0  0  0  0  0
  187.0510  174.4920  137.0170 C   0  0  0  0  0  0  0  0  0  0  0  0
  191.3340  176.4020  136.7220 N   0  0  0  0  0  0  0  0  0  0  0  0
  187.7320  175.6650  137.3830 C   0  0  0  0  0  3  0  0  0  0  0  0
  190.0560  176.8580  137.3190 C   0  0  2  0  0  3  0  0  0  0  0  0
  183.6340  173.1060  137.1890 O   0  0  0  0  0  0  0  0  0  0  0  0
  182.6400  173.1590  136.1740 C   0  0  0  0  0  1  0  0  0  0  0  0
  187.7740  179.0440  141.0940 C   0  0  0  0  0  2  0  0  0  0  0  0
  186.4250  178.4260  140.9650 C   0  0  0  0  0  3  0  0  0  0  0  0
  185.1440  178.5500  138.6930 C   0  0  0  0  0  3  0  0  0  0  0  0
  185.7860  178.4880  139.8320 C   0  0  0  0  0  0  0  0  0  0  0  0
  183.7330  178.1510  138.5320 C   0  0  0  0  0  0  0  0  0  0  0  0
  183.4130  176.8680  138.3120 C   0  0  0  0  0  3  0  0  0  0  0  0
  182.0200  176.3580  138.1480 C   0  0  0  0  0  1  0  0  0  0  0  0
  182.5140  179.4260  138.6660 S   0  0  0  0  0  0  0  0  0  0  0  0
  183.2120  180.7440  138.8530 O   0  0  0  0  0  0  0  0  0  0  0  0
  181.6870  179.5090  137.4130 O   0  0  0  0  0  0  0  0  0  0  0  0
  181.4930  179.1420  140.0400 N   0  0  0  0  0  2  0  0  0  0  0  0
  182.3320  178.7900  141.1760 C   0  0  0  0  0  2  0  0  0  0  0  0
  181.5680  178.9860  142.4740 C   0  0  0  0  0  2  0  0  0  0  0  0
  182.5060  179.4590  143.5710 C   0  0  0  0  0  2  0  0  0  0  0  0
  183.2620  178.3320  144.0900 N   0  0  0  0  0  2  0  0  0  0  0  0
  184.6690  178.6520  143.9200 C   0  0  0  0  0  2  0  0  0  0  0  0
  184.8110  180.0200  143.6840 O   0  0  0  0  0  1  0  0  0  0  0  0
  1 32  1  0  0  0  0
  1  4  1  0  0  0  0
  2  1  1  0  0  0  0
  3  2  2  0  0  0  0
  4  5  1  0  0  0  0
  5  6  1  0  0  0  0
  6  7  1  0  0  0  0
  7  8  1  0  0  0  0
  8  9  1  0  0  0  0
  9 10  1  0  0  0  0
 10 11  1  0  0  0  0
 11 13  1  0  0  0  0
 11 12  1  1  0  0  0
 15 14  1  0  0  0  0
 15 13  1  0  0  0  0
 16  2  1  0  0  0  0
 17 21  1  0  0  0  0
 18 26  1  0  0  0  0
 19 18  2  0  0  0  0
 19 24  1  0  0  0  0
 20 29  1  0  0  0  0
 20 28  1  0  0  0  0
 21 30  1  0  0  0  0
 21 23  2  0  0  0  0
 22 24  1  0  0  0  0
 22 27  2  0  0  0  0
 24 20  2  0  0  0  0
 25 17  2  0  0  0  0
 25 18  1  0  0  0  0
 26 23  1  0  0  0  0
 26 28  2  0  0  0  0
 27 29  1  0  0  0  0
 29 16  1  1  0  0  0
 31 30  1  0  0  0  0
 33 32  1  0  0  0  0
 34 35  2  0  0  0  0
 35 33  2  0  0  0  0
 36 39  1  0  0  0  0
 36 34  1  0  0  0  0
 37 36  2  0  0  0  0
 38 37  1  0  0  0  0
 39 40  2  0  0  0  0
 39 42  1  0  0  0  0
 41 39  2  0  0  0  0
 42 43  1  0  0  0  0
 43 44  1  0  0  0  0
 44 45  1  0  0  0  0
 45 46  1  0  0  0  0
 47 46  1  0  0  0  0
 48 47  1  0  0  0  0
M  END
>  <MODEL>
5

>  <REMARK>
 VINA RESULT:      -6.5      3.682      8.468
  Name = 
  23 active torsions:
  status: ('A' for Active; 'I' for Inactive)
    1  A    between atoms: C_3  and  N_17
    2  A    between atoms: C_3  and  C_47
    3  A    between atoms: N_5  and  C_23
    4  A    between atoms: N_5  and  C_29
    5  A    between atoms: C_7  and  O_8
    6  A    between atoms: C_9  and  C_24
    7  A    between atoms: C_9  and  N_43
    8  A    between atoms: C_10  and  N_17
    9  A    between atoms: C_10  and  C_27
   10  A    between atoms: C_12  and  C_13
   11  A    between atoms: C_13  and  N_14
   12  A    between atoms: N_14  and  C_25
   13  A    between atoms: C_16  and  C_19
   14  A    between atoms: C_19  and  C_46
   15  A    between atoms: C_20  and  C_21
   16  A    between atoms: C_20  and  S_28
   17  A    between atoms: C_24  and  C_29
   18  A    between atoms: C_25  and  C_35
   19  A    between atoms: C_27  and  C_35
   20  A    between atoms: S_28  and  N_43
   21  A    between atoms: C_38  and  O_48
   22  A    between atoms: C_39  and  C_47
   23  A    between atoms: C_39  and  O_48
                            x       y       z     vdW  Elec       q    Type
                         _______ _______ _______ _____ _____    ______ ____

>  <TORSDO>
F 23

$$$$
=
 OpenBabel10222420083D

 48 50  0  0  1  0  0  0  0  0999 V2000
  188.2170  177.8800  136.7910 N   0  0  0  0  0  0  0  0  0  0  0  0
  189.3790  177.7350  137.6230 C   0  0  0  0  0  0  0  0  0  0  0  0
  190.4600  177.3180  137.1220 O   0  0  0  0  0  0  0  0  0  0  0  0
  187.0510  178.6260  137.2510 C   0  0  0  0  0  2  0  0  0  0  0  0
  186.3250  177.8590  138.3460 C   0  0  0  0  0  2  0  0  0  0  0  0
  184.8330  178.1370  138.3080 C   0  0  0  0  0  2  0  0  0  0  0  0
  184.5100  179.3500  139.1610 C   0  0  0  0  0  2  0  0  0  0  0  0
  185.3030  179.3190  140.3750 N   0  0  0  0  0  2  0  0  0  0  0  0
  184.6840  178.3360  141.2490 C   0  0  0  0  0  2  0  0  0  0  0  0
  184.2010  179.0020  142.5270 C   0  0  0  0  0  2  0  0  0  0  0  0
  182.7450  178.6390  142.8210 C   0  0  1  0  0  3  0  0  0  0  0  0
  182.1580  179.5360  143.7240 O   0  0  0  0  0  1  0  0  0  0  0  0
  181.9740  178.4990  141.6470 O   0  0  0  0  0  0  0  0  0  0  0  0
  180.6090  180.0850  140.4960 C   0  0  0  0  0  1  0  0  0  0  0  0
  180.8170  179.2870  141.7690 C   0  0  0  0  0  2  0  0  0  0  0  0
  189.3370  178.1140  139.0730 C   0  0  0  0  0  2  0  0  0  0  0  0
  188.4170  177.8450  146.1970 C   0  0  0  0  0  3  0  0  0  0  0  0
  189.6450  177.6940  144.1180 C   0  0  0  0  0  0  0  0  0  0  0  0
  190.8600  177.7430  143.4150 C   0  0  0  0  0  3  0  0  0  0  0  0
  189.6630  177.2750  141.3770 C   0  0  0  0  0  0  0  0  0  0  0  0
  187.2140  177.5640  145.5240 C   0  0  0  0  0  0  0  0  0  0  0  0
  191.9060  177.4730  141.1530 N   0  0  0  0  0  0  0  0  0  0  0  0
  187.2290  177.3500  144.1420 C   0  0  0  0  0  3  0  0  0  0  0  0
  190.8180  177.5230  142.0400 C   0  0  0  0  0  0  0  0  0  0  0  0
  189.6250  177.9080  145.4980 C   0  0  0  0  0  3  0  0  0  0  0  0
  188.4290  177.4150  143.4290 C   0  0  0  0  0  0  0  0  0  0  0  0
  191.4640  177.1610  139.8510 N   0  0  0  0  0  0  0  0  0  0  0  0
  188.4370  177.1990  142.0410 C   0  0  0  0  0  3  0  0  0  0  0  0
  189.9890  177.0460  139.9430 C   0  0  2  0  0  3  0  0  0  0  0  0
  185.9960  177.4910  146.2050 O   0  0  0  0  0  0  0  0  0  0  0  0
  185.1870  178.6320  146.4570 C   0  0  0  0  0  1  0  0  0  0  0  0
  188.2280  177.3810  135.4220 C   0  0  0  0  0  2  0  0  0  0  0  0
  187.1700  176.3480  135.2440 C   0  0  0  0  0  3  0  0  0  0  0  0
  187.4330  174.0040  136.3650 C   0  0  0  0  0  3  0  0  0  0  0  0
  187.3010  175.1780  135.8030 C   0  0  0  0  0  0  0  0  0  0  0  0
  186.5450  172.8620  136.0780 C   0  0  0  0  0  0  0  0  0  0  0  0
  187.0310  171.7560  135.4960 C   0  0  0  0  0  3  0  0  0  0  0  0
  186.2230  170.5430  135.1750 C   0  0  0  0  0  1  0  0  0  0  0  0
  184.8480  173.0180  136.5550 S   0  0  0  0  0  0  0  0  0  0  0  0
  184.2360  171.6460  136.6190 O   0  0  0  0  0  0  0  0  0  0  0  0
  184.7310  173.6450  137.9170 O   0  0  0  0  0  0  0  0  0  0  0  0
  183.9780  173.9580  135.3860 N   0  0  0  0  0  2  0  0  0  0  0  0
  183.1710  174.9440  136.0910 C   0  0  0  0  0  2  0  0  0  0  0  0
  181.7020  174.7580  135.7550 C   0  0  0  0  0  2  0  0  0  0  0  0
  180.9190  176.0130  136.1020 C   0  0  0  0  0  2  0  0  0  0  0  0
  181.8380  177.1020  136.3830 N   0  0  0  0  0  2  0  0  0  0  0  0
  181.2190  177.9260  137.4070 C   0  0  0  0  0  2  0  0  0  0  0  0
  181.3670  177.3120  138.6520 O   0  0  0  0  0  1  0  0  0  0  0  0
  1  4  1  0  0  0  0
  1  2  1  0  0  0  0
  2 16  1  0  0  0  0
  3  2  2  0  0  0  0
  4  5  1  0  0  0  0
  6  5  1  0  0  0  0
  6  7  1  0  0  0  0
  7  8  1  0  0  0  0
  8  9  1  0  0  0  0
  9 10  1  0  0  0  0
 10 11  1  0  0  0  0
 11 12  1  1  0  0  0
 13 15  1  0  0  0  0
 13 11  1  0  0  0  0
 14 15  1  0  0  0  0
 18 25  1  0  0  0  0
 19 18  2  0  0  0  0
 20 24  2  0  0  0  0
 20 28  1  0  0  0  0
 21 17  1  0  0  0  0
 21 30  1  0  0  0  0
 22 24  1  0  0  0  0
 23 21  2  0  0  0  0
 24 19  1  0  0  0  0
 25 17  2  0  0  0  0
 26 18  1  0  0  0  0
 26 23  1  0  0  0  0
 27 29  1  0  0  0  0
 27 22  2  0  0  0  0
 28 26  2  0  0  0  0
 29 16  1  6  0  0  0
 29 20  1  0  0  0  0
 30 31  1  0  0  0  0
 32  1  1  0  0  0  0
 33 32  1  0  0  0  0
 33 35  2  0  0  0  0
 35 34  2  0  0  0  0
 36 34  1  0  0  0  0
 36 39  1  0  0  0  0
 37 36  2  0  0  0  0
 38 37  1  0  0  0  0
 39 40  2  0  0  0  0
 39 41  2  0  0  0  0
 42 43  1  0  0  0  0
 42 39  1  0  0  0  0
 44 43  1  0  0  0  0
 44 45  1  0  0  0  0
 45 46  1  0  0  0  0
 46 47  1  0  0  0  0
 47 48  1  0  0  0  0
M  END
>  <MODEL>
6

>  <REMARK>
 VINA RESULT:      -6.2      3.810      7.533
  Name = 
  23 active torsions:
  status: ('A' for Active; 'I' for Inactive)
    1  A    between atoms: C_3  and  N_17
    2  A    between atoms: C_3  and  C_47
    3  A    between atoms: N_5  and  C_23
    4  A    between atoms: N_5  and  C_29
    5  A    between atoms: C_7  and  O_8
    6  A    between atoms: C_9  and  C_24
    7  A    between atoms: C_9  and  N_43
    8  A    between atoms: C_10  and  N_17
    9  A    between atoms: C_10  and  C_27
   10  A    between atoms: C_12  and  C_13
   11  A    between atoms: C_13  and  N_14
   12  A    between atoms: N_14  and  C_25
   13  A    between atoms: C_16  and  C_19
   14  A    between atoms: C_19  and  C_46
   15  A    between atoms: C_20  and  C_21
   16  A    between atoms: C_20  and  S_28
   17  A    between atoms: C_24  and  C_29
   18  A    between atoms: C_25  and  C_35
   19  A    between atoms: C_27  and  C_35
   20  A    between atoms: S_28  and  N_43
   21  A    between atoms: C_38  and  O_48
   22  A    between atoms: C_39  and  C_47
   23  A    between atoms: C_39  and  O_48
                            x       y       z     vdW  Elec       q    Type
                         _______ _______ _______ _____ _____    ______ ____

>  <TORSDO>
F 23

$$$$
=
 OpenBabel10222420083D

 48 50  0  0  1  0  0  0  0  0999 V2000
  186.5050  178.5030  141.8250 N   0  0  0  0  0  0  0  0  0  0  0  0
  185.5790  178.6780  140.7410 C   0  0  0  0  0  0  0  0  0  0  0  0
  186.0070  178.9860  139.5950 O   0  0  0  0  0  0  0  0  0  0  0  0
  186.0920  177.8680  143.0720 C   0  0  0  0  0  2  0  0  0  0  0  0
  187.0690  178.2010  144.1890 C   0  0  0  0  0  2  0  0  0  0  0  0
  187.2450  177.0210  145.1280 C   0  0  0  0  0  2  0  0  0  0  0  0
  187.1700  177.4890  146.5690 C   0  0  0  0  0  2  0  0  0  0  0  0
  188.2250  178.4500  146.8270 N   0  0  0  0  0  2  0  0  0  0  0  0
  189.0700  177.8720  147.8590 C   0  0  0  0  0  2  0  0  0  0  0  0
  189.7930  176.6490  147.3200 C   0  0  0  0  0  2  0  0  0  0  0  0
  191.1860  177.0160  146.8040 C   0  0  1  0  0  3  0  0  0  0  0  0
  192.1960  176.5310  147.6450 O   0  0  0  0  0  1  0  0  0  0  0  0
  191.3870  176.6220  145.4640 O   0  0  0  0  0  0  0  0  0  0  0  0
  191.6420  177.5750  143.2890 C   0  0  0  0  0  1  0  0  0  0  0  0
  190.9120  177.6370  144.6180 C   0  0  0  0  0  2  0  0  0  0  0  0
  184.1100  178.4580  140.9440 C   0  0  0  0  0  2  0  0  0  0  0  0
  179.1950  182.5200  137.6260 C   0  0  0  0  0  3  0  0  0  0  0  0
  180.1810  180.4680  138.4450 C   0  0  0  0  0  0  0  0  0  0  0  0
  180.0470  179.1330  138.8600 C   0  0  0  0  0  3  0  0  0  0  0  0
  182.4260  179.0420  139.2290 C   0  0  0  0  0  0  0  0  0  0  0  0
  180.4610  183.1300  137.5850 C   0  0  0  0  0  0  0  0  0  0  0  0
  181.3120  177.1140  139.6370 N   0  0  0  0  0  0  0  0  0  0  0  0
  181.5910  182.4050  137.9790 C   0  0  0  0  0  3  0  0  0  0  0  0
  181.2040  178.4570  139.2410 C   0  0  0  0  0  0  0  0  0  0  0  0
  179.0560  181.1960  138.0520 C   0  0  0  0  0  3  0  0  0  0  0  0
  181.4670  181.0830  138.4120 C   0  0  0  0  0  0  0  0  0  0  0  0
  182.6610  176.7820  139.8810 N   0  0  0  0  0  0  0  0  0  0  0  0
  182.6050  180.3590  138.8060 C   0  0  0  0  0  3  0  0  0  0  0  0
  183.4310  178.0280  139.6490 C   0  0  2  0  0  3  0  0  0  0  0  0
  180.6230  184.4510  137.1570 O   0  0  0  0  0  0  0  0  0  0  0  0
  179.7080  185.4850  137.4940 C   0  0  0  0  0  1  0  0  0  0  0  0
  187.9090  178.8530  141.6540 C   0  0  0  0  0  2  0  0  0  0  0  0
  188.6530  177.7110  141.0540 C   0  0  0  0  0  3  0  0  0  0  0  0
  189.7050  177.9440  138.6760 C   0  0  0  0  0  3  0  0  0  0  0  0
  189.1780  177.8270  139.8670 C   0  0  0  0  0  0  0  0  0  0  0  0
  190.2760  176.8100  137.9240 C   0  0  0  0  0  0  0  0  0  0  0  0
  191.3800  176.1920  138.3660 C   0  0  0  0  0  3  0  0  0  0  0  0
  192.0290  175.0300  137.6900 C   0  0  0  0  0  1  0  0  0  0  0  0
  189.4290  176.3090  136.4540 S   0  0  0  0  0  0  0  0  0  0  0  0
  190.3850  176.3820  135.2960 O   0  0  0  0  0  0  0  0  0  0  0  0
  188.9470  174.8890  136.5720 O   0  0  0  0  0  0  0  0  0  0  0  0
  188.0940  177.3700  136.1360 N   0  0  0  0  0  2  0  0  0  0  0  0
  187.5390  177.0390  134.8310 C   0  0  0  0  0  2  0  0  0  0  0  0
  186.0260  177.1660  134.8560 C   0  0  0  0  0  2  0  0  0  0  0  0
  185.3790  175.8150  134.6060 C   0  0  0  0  0  2  0  0  0  0  0  0
  184.1450  175.7130  135.3640 N   0  0  0  0  0  2  0  0  0  0  0  0
  184.4720  176.0010  136.7500 C   0  0  0  0  0  2  0  0  0  0  0  0
  184.6970  174.8060  137.4330 O   0  0  0  0  0  1  0  0  0  0  0  0
  1  4  1  0  0  0  0
  2 16  1  0  0  0  0
  2  1  1  0  0  0  0
  3  2  2  0  0  0  0
  4  5  1  0  0  0  0
  5  6  1  0  0  0  0
  6  7  1  0  0  0  0
  7  8  1  0  0  0  0
  8  9  1  0  0  0  0
 10  9  1  0  0  0  0
 11 10  1  0  0  0  0
 11 12  1  1  0  0  0
 13 11  1  0  0  0  0
 14 15  1  0  0  0  0
 15 13  1  0  0  0  0
 17 25  1  0  0  0  0
 18 19  1  0  0  0  0
 19 24  2  0  0  0  0
 20 24  1  0  0  0  0
 20 29  1  0  0  0  0
 21 17  2  0  0  0  0
 21 23  1  0  0  0  0
 22 27  2  0  0  0  0
 23 26  2  0  0  0  0
 24 22  1  0  0  0  0
 25 18  2  0  0  0  0
 26 18  1  0  0  0  0
 26 28  1  0  0  0  0
 28 20  2  0  0  0  0
 29 27  1  0  0  0  0
 29 16  1  1  0  0  0
 30 31  1  0  0  0  0
 30 21  1  0  0  0  0
 32  1  1  0  0  0  0
 33 32  1  0  0  0  0
 34 35  2  0  0  0  0
 35 33  2  0  0  0  0
 36 37  2  0  0  0  0
 36 34  1  0  0  0  0
 38 37  1  0  0  0  0
 39 41  2  0  0  0  0
 39 36  1  0  0  0  0
 40 39  2  0  0  0  0
 42 39  1  0  0  0  0
 43 44  1  0  0  0  0
 43 42  1  0  0  0  0
 45 44  1  0  0  0  0
 45 46  1  0  0  0  0
 46 47  1  0  0  0  0
 47 48  1  0  0  0  0
M  END
>  <MODEL>
7

>  <REMARK>
 VINA RESULT:      -6.1      3.509      8.997
  Name = 
  23 active torsions:
  status: ('A' for Active; 'I' for Inactive)
    1  A    between atoms: C_3  and  N_17
    2  A    between atoms: C_3  and  C_47
    3  A    between atoms: N_5  and  C_23
    4  A    between atoms: N_5  and  C_29
    5  A    between atoms: C_7  and  O_8
    6  A    between atoms: C_9  and  C_24
    7  A    between atoms: C_9  and  N_43
    8  A    between atoms: C_10  and  N_17
    9  A    between atoms: C_10  and  C_27
   10  A    between atoms: C_12  and  C_13
   11  A    between atoms: C_13  and  N_14
   12  A    between atoms: N_14  and  C_25
   13  A    between atoms: C_16  and  C_19
   14  A    between atoms: C_19  and  C_46
   15  A    between atoms: C_20  and  C_21
   16  A    between atoms: C_20  and  S_28
   17  A    between atoms: C_24  and  C_29
   18  A    between atoms: C_25  and  C_35
   19  A    between atoms: C_27  and  C_35
   20  A    between atoms: S_28  and  N_43
   21  A    between atoms: C_38  and  O_48
   22  A    between atoms: C_39  and  C_47
   23  A    between atoms: C_39  and  O_48
                            x       y       z     vdW  Elec       q    Type
                         _______ _______ _______ _____ _____    ______ ____

>  <TORSDO>
F 23

$$$$
=
 OpenBabel10222420083D

 48 50  0  0  1  0  0  0  0  0999 V2000
  186.0790  178.0090  137.6620 N   0  0  0  0  0  0  0  0  0  0  0  0
  185.0480  178.4780  138.5480 C   0  0  0  0  0  0  0  0  0  0  0  0
  185.3370  179.2870  139.4720 O   0  0  0  0  0  0  0  0  0  0  0  0
  185.7460  177.3190  136.4210 C   0  0  0  0  0  2  0  0  0  0  0  0
  186.1720  175.8610  136.4900 C   0  0  0  0  0  2  0  0  0  0  0  0
  186.1090  175.2090  135.1210 C   0  0  0  0  0  2  0  0  0  0  0  0
  187.4470  174.5780  134.7840 C   0  0  0  0  0  2  0  0  0  0  0  0
  188.0520  174.0430  135.9890 N   0  0  0  0  0  2  0  0  0  0  0  0
  189.4670  174.3720  135.9230 C   0  0  0  0  0  2  0  0  0  0  0  0
  190.1760  173.8900  137.1780 C   0  0  0  0  0  2  0  0  0  0  0  0
  191.2950  174.8520  137.5820 C   0  0  1  0  0  3  0  0  0  0  0  0
  190.9800  175.5520  138.7540 O   0  0  0  0  0  1  0  0  0  0  0  0
  192.5500  174.2130  137.6750 O   0  0  0  0  0  0  0  0  0  0  0  0
  193.2620  175.9710  136.2250 C   0  0  0  0  0  1  0  0  0  0  0  0
  193.5600  175.1690  137.4770 C   0  0  0  0  0  2  0  0  0  0  0  0
  183.6240  178.0510  138.3610 C   0  0  0  0  0  2  0  0  0  0  0  0
  180.5080  171.7840  136.7190 C   0  0  0  0  0  3  0  0  0  0  0  0
  180.8620  173.8130  137.9890 C   0  0  0  0  0  0  0  0  0  0  0  0
  180.3810  174.8040  138.8610 C   0  0  0  0  0  3  0  0  0  0  0  0
  182.5410  175.8690  138.7910 C   0  0  0  0  0  0  0  0  0  0  0  0
  181.8400  171.8160  136.2690 C   0  0  0  0  0  0  0  0  0  0  0  0
  181.0160  176.8670  140.1340 N   0  0  0  0  0  0  0  0  0  0  0  0
  182.6840  172.8540  136.6790 C   0  0  0  0  0  3  0  0  0  0  0  0
  181.2630  175.8140  139.2370 C   0  0  0  0  0  0  0  0  0  0  0  0
  180.0230  172.7760  137.5760 C   0  0  0  0  0  3  0  0  0  0  0  0
  182.2110  173.8550  137.5300 C   0  0  0  0  0  0  0  0  0  0  0  0
  182.1790  177.6460  140.3070 N   0  0  0  0  0  0  0  0  0  0  0  0
  183.0630  174.8950  137.9400 C   0  0  0  0  0  3  0  0  0  0  0  0
  183.2040  177.0410  139.4230 C   0  0  2  0  0  3  0  0  0  0  0  0
  182.3480  170.8310  135.4160 O   0  0  0  0  0  0  0  0  0  0  0  0
  183.6460  170.2760  135.5720 C   0  0  0  0  0  1  0  0  0  0  0  0
  187.4760  178.3180  137.9350 C   0  0  0  0  0  2  0  0  0  0  0  0
  187.9990  177.4250  139.0060 C   0  0  0  0  0  3  0  0  0  0  0  0
  188.8880  178.4480  141.2380 C   0  0  0  0  0  3  0  0  0  0  0  0
  188.4430  177.9360  140.1200 C   0  0  0  0  0  0  0  0  0  0  0  0
  189.6070  177.6650  142.2620 C   0  0  0  0  0  0  0  0  0  0  0  0
  190.9370  177.5100  142.1850 C   0  0  0  0  0  3  0  0  0  0  0  0
  191.7590  176.7510  143.1720 C   0  0  0  0  0  1  0  0  0  0  0  0
  188.6440  176.9790  143.5780 S   0  0  0  0  0  0  0  0  0  0  0  0
  188.3070  175.5540  143.2370 O   0  0  0  0  0  0  0  0  0  0  0  0
  189.4210  176.9800  144.8660 O   0  0  0  0  0  0  0  0  0  0  0  0
  187.1660  177.8670  143.7690 N   0  0  0  0  0  2  0  0  0  0  0  0
  186.3810  177.2390  144.8210 C   0  0  0  0  0  2  0  0  0  0  0  0
  186.3430  178.1280  146.0520 C   0  0  0  0  0  2  0  0  0  0  0  0
  185.5020  179.3640  145.7830 C   0  0  0  0  0  2  0  0  0  0  0  0
  184.1150  178.9810  145.5860 N   0  0  0  0  0  2  0  0  0  0  0  0
  183.6770  179.5930  144.3430 C   0  0  0  0  0  2  0  0  0  0  0  0
  183.4540  178.6000  143.3890 O   0  0  0  0  0  1  0  0  0  0  0  0
  1 32  1  0  0  0  0
  1  2  1  0  0  0  0
  2  3  2  0  0  0  0
  4  5  1  0  0  0  0
  4  1  1  0  0  0  0
  6  5  1  0  0  0  0
  7  6  1  0  0  0  0
  7  8  1  0  0  0  0
  9  8  1  0  0  0  0
  9 10  1  0  0  0  0
 10 11  1  0  0  0  0
 11 13  1  0  0  0  0
 11 12  1  1  0  0  0
 14 15  1  0  0  0  0
 15 13  1  0  0  0  0
 16  2  1  0  0  0  0
 17 25  1  0  0  0  0
 18 19  1  0  0  0  0
 19 24  2  0  0  0  0
 20 24  1  0  0  0  0
 20 29  1  0  0  0  0
 21 23  1  0  0  0  0
 21 17  2  0  0  0  0
 22 27  2  0  0  0  0
 23 26  2  0  0  0  0
 24 22  1  0  0  0  0
 25 18  2  0  0  0  0
 26 28  1  0  0  0  0
 26 18  1  0  0  0  0
 28 20  2  0  0  0  0
 29 16  1  6  0  0  0
 29 27  1  0  0  0  0
 30 31  1  0  0  0  0
 30 21  1  0  0  0  0
 32 33  1  0  0  0  0
 33 35  2  0  0  0  0
 34 36  1  0  0  0  0
 35 34  2  0  0  0  0
 36 39  1  0  0  0  0
 37 36  2  0  0  0  0
 37 38  1  0  0  0  0
 39 42  1  0  0  0  0
 39 41  2  0  0  0  0
 40 39  2  0  0  0  0
 42 43  1  0  0  0  0
 43 44  1  0  0  0  0
 45 44  1  0  0  0  0
 46 45  1  0  0  0  0
 47 46  1  0  0  0  0
 48 47  1  0  0  0  0
M  END
>  <MODEL>
8

>  <REMARK>
 VINA RESULT:      -6.0      3.230      8.368
  Name = 
  23 active torsions:
  status: ('A' for Active; 'I' for Inactive)
    1  A    between atoms: C_3  and  N_17
    2  A    between atoms: C_3  and  C_47
    3  A    between atoms: N_5  and  C_23
    4  A    between atoms: N_5  and  C_29
    5  A    between atoms: C_7  and  O_8
    6  A    between atoms: C_9  and  C_24
    7  A    between atoms: C_9  and  N_43
    8  A    between atoms: C_10  and  N_17
    9  A    between atoms: C_10  and  C_27
   10  A    between atoms: C_12  and  C_13
   11  A    between atoms: C_13  and  N_14
   12  A    between atoms: N_14  and  C_25
   13  A    between atoms: C_16  and  C_19
   14  A    between atoms: C_19  and  C_46
   15  A    between atoms: C_20  and  C_21
   16  A    between atoms: C_20  and  S_28
   17  A    between atoms: C_24  and  C_29
   18  A    between atoms: C_25  and  C_35
   19  A    between atoms: C_27  and  C_35
   20  A    between atoms: S_28  and  N_43
   21  A    between atoms: C_38  and  O_48
   22  A    between atoms: C_39  and  C_47
   23  A    between atoms: C_39  and  O_48
                            x       y       z     vdW  Elec       q    Type
                         _______ _______ _______ _____ _____    ______ ____

>  <TORSDO>
F 23

$$$$
=
 OpenBabel10222420083D

 48 50  0  0  1  0  0  0  0  0999 V2000
  187.5670  177.7940  137.2100 N   0  0  0  0  0  0  0  0  0  0  0  0
  188.3640  178.6030  138.0910 C   0  0  0  0  0  0  0  0  0  0  0  0
  189.0800  179.5270  137.6170 O   0  0  0  0  0  0  0  0  0  0  0  0
  186.5170  176.9250  137.7310 C   0  0  0  0  0  2  0  0  0  0  0  0
  185.1450  177.4830  137.3870 C   0  0  0  0  0  2  0  0  0  0  0  0
  184.9440  178.8550  138.0030 C   0  0  0  0  0  2  0  0  0  0  0  0
  184.4870  178.7140  139.4430 C   0  0  0  0  0  2  0  0  0  0  0  0
  183.5050  179.7380  139.7470 N   0  0  0  0  0  2  0  0  0  0  0  0
  182.2230  179.2350  139.2800 C   0  0  0  0  0  2  0  0  0  0  0  0
  181.5710  180.2420  138.3490 C   0  0  0  0  0  2  0  0  0  0  0  0
  180.4020  180.9510  139.0350 C   0  0  1  0  0  3  0  0  0  0  0  0
  180.4810  180.8520  140.4300 O   0  0  0  0  0  1  0  0  0  0  0  0
  180.2580  182.2900  138.6130 O   0  0  0  0  0  0  0  0  0  0  0  0
  181.2890  183.9310  137.2180 C   0  0  0  0  0  1  0  0  0  0  0  0
  180.9580  182.4630  137.4080 C   0  0  0  0  0  2  0  0  0  0  0  0
  188.3230  178.3900  139.5750 C   0  0  0  0  0  2  0  0  0  0  0  0
  190.4790  177.1520  146.3190 C   0  0  0  0  0  3  0  0  0  0  0  0
  190.6610  177.1690  143.9070 C   0  0  0  0  0  0  0  0  0  0  0  0
  191.4500  177.1720  142.7440 C   0  0  0  0  0  3  0  0  0  0  0  0
  189.4390  177.1750  141.4170 C   0  0  0  0  0  0  0  0  0  0  0  0
  189.0760  177.1290  146.2280 C   0  0  0  0  0  0  0  0  0  0  0  0
  191.3710  177.1220  140.2400 N   0  0  0  0  0  0  0  0  0  0  0  0
  188.4650  177.1300  144.9700 C   0  0  0  0  0  3  0  0  0  0  0  0
  190.7900  177.1720  141.5170 C   0  0  0  0  0  0  0  0  0  0  0  0
  191.2670  177.1700  145.1650 C   0  0  0  0  0  3  0  0  0  0  0  0
  189.2390  177.1530  143.8080 C   0  0  0  0  0  0  0  0  0  0  0  0
  190.3700  177.0720  139.2480 N   0  0  0  0  0  0  0  0  0  0  0  0
  188.6190  177.1520  142.5460 C   0  0  0  0  0  3  0  0  0  0  0  0
  189.0790  177.1290  139.9740 C   0  0  2  0  0  3  0  0  0  0  0  0
  188.2700  177.1060  147.3700 O   0  0  0  0  0  0  0  0  0  0  0  0
  188.3640  178.0840  148.3970 C   0  0  0  0  0  1  0  0  0  0  0  0
  187.7190  177.9150  135.7660 C   0  0  0  0  0  2  0  0  0  0  0  0
  188.9710  177.2420  135.3240 C   0  0  0  0  0  3  0  0  0  0  0  0
  189.5300  174.8370  136.1730 C   0  0  0  0  0  3  0  0  0  0  0  0
  189.2500  176.0420  135.7480 C   0  0  0  0  0  0  0  0  0  0  0  0
  190.8320  174.1790  135.9550 C   0  0  0  0  0  0  0  0  0  0  0  0
  190.9030  173.0260  135.2760 C   0  0  0  0  0  3  0  0  0  0  0  0
  192.1690  172.2880  134.9890 C   0  0  0  0  0  1  0  0  0  0  0  0
  192.2650  174.9900  136.6050 S   0  0  0  0  0  0  0  0  0  0  0  0
  191.9740  176.4600  136.7260 O   0  0  0  0  0  0  0  0  0  0  0  0
  192.6010  174.4660  137.9740 O   0  0  0  0  0  0  0  0  0  0  0  0
  193.6130  174.7800  135.5340 N   0  0  0  0  0  2  0  0  0  0  0  0
  194.8290  174.7030  136.3300 C   0  0  0  0  0  2  0  0  0  0  0  0
  196.0430  174.9980  135.4660 C   0  0  0  0  0  2  0  0  0  0  0  0
  197.2910  174.3970  136.0880 C   0  0  0  0  0  2  0  0  0  0  0  0
  197.1820  174.4280  137.5360 N   0  0  0  0  0  2  0  0  0  0  0  0
  198.5120  174.6960  138.0560 C   0  0  0  0  0  2  0  0  0  0  0  0
  198.4290  175.6300  139.0900 O   0  0  0  0  0  1  0  0  0  0  0  0
  1  4  1  0  0  0  0
  1  2  1  0  0  0  0
  2 16  1  0  0  0  0
  3  2  2  0  0  0  0
  5  4  1  0  0  0  0
  5  6  1  0  0  0  0
  6  7  1  0  0  0  0
  7  8  1  0  0  0  0
  9  8  1  0  0  0  0
 10 11  1  0  0  0  0
 10  9  1  0  0  0  0
 11 12  1  1  0  0  0
 13 11  1  0  0  0  0
 14 15  1  0  0  0  0
 15 13  1  0  0  0  0
 18 25  1  0  0  0  0
 19 18  2  0  0  0  0
 20 24  2  0  0  0  0
 20 28  1  0  0  0  0
 21 17  1  0  0  0  0
 21 30  1  0  0  0  0
 22 24  1  0  0  0  0
 23 21  2  0  0  0  0
 24 19  1  0  0  0  0
 25 17  2  0  0  0  0
 26 18  1  0  0  0  0
 26 23  1  0  0  0  0
 27 29  1  0  0  0  0
 27 22  2  0  0  0  0
 28 26  2  0  0  0  0
 29 16  1  6  0  0  0
 29 20  1  0  0  0  0
 30 31  1  0  0  0  0
 32  1  1  0  0  0  0
 33 35  2  0  0  0  0
 33 32  1  0  0  0  0
 35 34  2  0  0  0  0
 36 34  1  0  0  0  0
 36 39  1  0  0  0  0
 37 36  2  0  0  0  0
 38 37  1  0  0  0  0
 39 40  2  0  0  0  0
 39 41  2  0  0  0  0
 42 43  1  0  0  0  0
 42 39  1  0  0  0  0
 44 45  1  0  0  0  0
 44 43  1  0  0  0  0
 45 46  1  0  0  0  0
 46 47  1  0  0  0  0
 47 48  1  0  0  0  0
M  END
>  <MODEL>
9

>  <REMARK>
 VINA RESULT:      -5.9      3.086      9.831
  Name = 
  23 active torsions:
  status: ('A' for Active; 'I' for Inactive)
    1  A    between atoms: C_3  and  N_17
    2  A    between atoms: C_3  and  C_47
    3  A    between atoms: N_5  and  C_23
    4  A    between atoms: N_5  and  C_29
    5  A    between atoms: C_7  and  O_8
    6  A    between atoms: C_9  and  C_24
    7  A    between atoms: C_9  and  N_43
    8  A    between atoms: C_10  and  N_17
    9  A    between atoms: C_10  and  C_27
   10  A    between atoms: C_12  and  C_13
   11  A    between atoms: C_13  and  N_14
   12  A    between atoms: N_14  and  C_25
   13  A    between atoms: C_16  and  C_19
   14  A    between atoms: C_19  and  C_46
   15  A    between atoms: C_20  and  C_21
   16  A    between atoms: C_20  and  S_28
   17  A    between atoms: C_24  and  C_29
   18  A    between atoms: C_25  and  C_35
   19  A    between atoms: C_27  and  C_35
   20  A    between atoms: S_28  and  N_43
   21  A    between atoms: C_38  and  O_48
   22  A    between atoms: C_39  and  C_47
   23  A    between atoms: C_39  and  O_48
                            x       y       z     vdW  Elec       q    Type
                         _______ _______ _______ _____ _____    ______ ____

>  <TORSDO>
F 23

$$$$
