=
 OpenBabel10222420113D

 27 30  0  0  1  0  0  0  0  0999 V2000
  191.6950  176.7450  145.8810 C   0  0  0  0  0  3  0  0  0  0  0  0
  190.4800  177.0530  147.7250 N   0  0  0  0  0  0  0  0  0  0  0  0
  185.9020  177.7440  143.5540 C   0  0  2  0  0  3  0  0  0  0  0  0
  185.5850  178.2430  146.0430 C   0  0  0  0  0  3  0  0  0  0  0  0
  189.6880  177.2100  146.5650 C   0  0  0  0  0  0  0  0  0  0  0  0
  188.1510  177.6490  142.6580 C   0  0  0  0  0  0  0  0  0  0  0  0
  191.6590  176.7790  147.3200 N   0  0  0  0  0  2  0  0  0  0  0  0
  183.9960  179.0880  144.3770 C   0  0  0  0  0  3  0  0  0  0  0  0
  190.4680  177.0100  145.4760 C   0  0  0  0  0  0  0  0  0  0  0  0
  186.5040  177.8920  144.9380 C   0  0  1  0  0  3  0  0  0  0  0  0
  184.3980  178.7950  145.7700 C   0  0  0  0  0  3  0  0  0  0  0  0
  188.6700  177.4070  144.0230 C   0  0  0  0  0  0  0  0  0  0  0  0
  189.9940  177.1150  144.2110 N   0  0  0  0  0  0  0  0  0  0  0  0
  187.8040  177.6020  145.1430 C   0  0  0  0  0  0  0  0  0  0  0  0
  186.8860  177.8850  142.4790 N   0  0  0  0  0  0  0  0  0  0  0  0
  188.3400  177.5170  146.4480 C   0  0  0  0  0  3  0  0  0  0  0  0
  184.7180  178.6450  143.3410 C   0  0  0  0  0  3  0  0  0  0  0  0
  189.0850  177.7710  141.4970 C   0  0  0  0  0  2  0  0  0  0  0  0
  188.4100  178.4700  140.3220 C   0  0  0  0  0  2  0  0  0  0  0  0
  189.2500  178.3730  139.0540 C   0  0  0  0  0  2  0  0  0  0  0  0
  188.3850  178.0860  137.8330 C   0  0  0  0  0  2  0  0  0  0  0  0
  186.9730  177.7940  138.2280 C   0  0  0  0  0  3  0  0  0  0  0  0
  186.0190  178.5630  137.8480 N   0  0  0  0  0  0  0  0  0  0  0  0
  184.6570  178.2890  138.2250 C   0  0  0  0  0  2  0  0  0  0  0  0
  184.8670  179.7660  140.0830 O   0  0  0  0  0  1  0  0  0  0  0  0
  184.1440  179.3450  139.1440 C   0  0  0  0  0  0  0  0  0  0  0  0
  182.8830  179.8890  138.9430 O   0  0  0  0  0  0  0  0  0  0  0  0
  1  7  1  0  0  0  0
  3 17  1  6  0  0  0
  3 10  1  0  0  0  0
  5  2  2  0  0  0  0
  6 12  1  0  0  0  0
  7  2  1  0  0  0  0
  8 11  1  0  0  0  0
  9  1  2  0  0  0  0
  9  5  1  0  0  0  0
 10 14  1  0  0  0  0
 10  4  1  1  0  0  0
 11  4  2  0  0  0  0
 12 13  2  0  0  0  0
 12 14  1  0  0  0  0
 13  9  1  0  0  0  0
 14 16  2  0  0  0  0
 15  6  2  0  0  0  0
 15  3  1  0  0  0  0
 16  5  1  0  0  0  0
 17  8  2  0  0  0  0
 18  6  1  0  0  0  0
 19 18  1  0  0  0  0
 20 19  1  0  0  0  0
 21 22  1  0  0  0  0
 21 20  1  0  0  0  0
 23 24  1  0  0  0  0
 23 22  2  0  0  0  0
 24 26  1  0  0  0  0
 26 25  1  0  0  0  0
 27 26  2  0  0  0  0
M  END
>  <MODEL>
1

>  <REMARK>
 VINA RESULT:      -9.1      0.000      0.000
  Name = 
  7 active torsions:
  status: ('A' for Active; 'I' for Inactive)
    1  A    between atoms: C_4  and  C_20
    2  A    between atoms: C_4  and  N_24
    3  A    between atoms: C_5  and  C_12
    4  A    between atoms: C_5  and  C_25
    5  A    between atoms: C_6  and  C_7
    6  A    between atoms: C_6  and  C_25
    7  A    between atoms: C_10  and  C_12
                            x       y       z     vdW  Elec       q    Type
                         _______ _______ _______ _____ _____    ______ ____

>  <TORSDO>
F 7

$$$$
=
 OpenBabel10222420113D

 27 30  0  0  1  0  0  0  0  0999 V2000
  184.4000  178.7180  144.4540 C   0  0  0  0  0  3  0  0  0  0  0  0
  184.7300  178.5690  146.6550 N   0  0  0  0  0  0  0  0  0  0  0  0
  190.5780  177.4260  144.8320 C   0  0  2  0  0  3  0  0  0  0  0  0
  189.8140  177.1600  147.2580 C   0  0  0  0  0  3  0  0  0  0  0  0
  185.9200  178.2930  145.9440 C   0  0  0  0  0  0  0  0  0  0  0  0
  188.9070  177.4650  143.0780 C   0  0  0  0  0  0  0  0  0  0  0  0
  183.8380  178.8190  145.7750 N   0  0  0  0  0  2  0  0  0  0  0  0
  191.9020  176.1400  146.4770 C   0  0  0  0  0  3  0  0  0  0  0  0
  185.6700  178.3990  144.6170 C   0  0  0  0  0  0  0  0  0  0  0  0
  189.4520  177.4170  145.8480 C   0  0  1  0  0  3  0  0  0  0  0  0
  190.9780  176.5680  147.5490 C   0  0  0  0  0  3  0  0  0  0  0  0
  187.8840  177.8430  144.0790 C   0  0  0  0  0  0  0  0  0  0  0  0
  186.6170  178.1690  143.6760 N   0  0  0  0  0  0  0  0  0  0  0  0
  188.2000  177.7420  145.4700 C   0  0  0  0  0  0  0  0  0  0  0  0
  190.1190  177.1960  143.4610 N   0  0  0  0  0  0  0  0  0  0  0  0
  187.1790  177.9580  146.4230 C   0  0  0  0  0  3  0  0  0  0  0  0
  191.6970  176.4920  145.2030 C   0  0  0  0  0  3  0  0  0  0  0  0
  188.5290  177.2460  141.6480 C   0  0  0  0  0  2  0  0  0  0  0  0
  189.7290  177.4450  140.7290 C   0  0  0  0  0  2  0  0  0  0  0  0
  189.4050  177.0550  139.2910 C   0  0  0  0  0  2  0  0  0  0  0  0
  189.1100  178.2790  138.4330 C   0  0  0  0  0  2  0  0  0  0  0  0
  187.7100  178.2470  137.9100 C   0  0  0  0  0  3  0  0  0  0  0  0
  186.7140  178.3200  138.7150 N   0  0  0  0  0  0  0  0  0  0  0  0
  185.3620  178.2890  138.2180 C   0  0  0  0  0  2  0  0  0  0  0  0
  184.3980  180.2620  139.1450 O   0  0  0  0  0  0  0  0  0  0  0  0
  184.4450  179.0050  139.1510 C   0  0  0  0  0  0  0  0  0  0  0  0
  183.6180  178.2850  140.0020 O   0  0  0  0  0  1  0  0  0  0  0  0
  1  9  2  0  0  0  0
  1  7  1  0  0  0  0
  3 17  1  1  0  0  0
  3 10  1  0  0  0  0
  4 11  2  0  0  0  0
  5 16  1  0  0  0  0
  5  2  2  0  0  0  0
  6 15  2  0  0  0  0
  6 12  1  0  0  0  0
  7  2  1  0  0  0  0
  8 11  1  0  0  0  0
  9  5  1  0  0  0  0
 10  4  1  1  0  0  0
 12 14  1  0  0  0  0
 13 12  2  0  0  0  0
 13  9  1  0  0  0  0
 14 10  1  0  0  0  0
 14 16  2  0  0  0  0
 15  3  1  0  0  0  0
 17  8  2  0  0  0  0
 18  6  1  0  0  0  0
 19 18  1  0  0  0  0
 20 19  1  0  0  0  0
 21 20  1  0  0  0  0
 22 21  1  0  0  0  0
 22 23  2  0  0  0  0
 24 23  1  0  0  0  0
 24 26  1  0  0  0  0
 25 26  2  0  0  0  0
 26 27  1  0  0  0  0
M  END
>  <MODEL>
2

>  <REMARK>
 VINA RESULT:      -9.1      1.590      4.240
  Name = 
  7 active torsions:
  status: ('A' for Active; 'I' for Inactive)
    1  A    between atoms: C_4  and  C_20
    2  A    between atoms: C_4  and  N_24
    3  A    between atoms: C_5  and  C_12
    4  A    between atoms: C_5  and  C_25
    5  A    between atoms: C_6  and  C_7
    6  A    between atoms: C_6  and  C_25
    7  A    between atoms: C_10  and  C_12
                            x       y       z     vdW  Elec       q    Type
                         _______ _______ _______ _____ _____    ______ ____

>  <TORSDO>
F 7

$$$$
=
 OpenBabel10222420113D

 27 30  0  0  1  0  0  0  0  0999 V2000
  191.7000  176.7180  145.8280 C   0  0  0  0  0  3  0  0  0  0  0  0
  190.5610  177.0550  147.7160 N   0  0  0  0  0  0  0  0  0  0  0  0
  185.8210  177.7110  143.7230 C   0  0  2  0  0  3  0  0  0  0  0  0
  185.6070  178.2430  146.2160 C   0  0  0  0  0  3  0  0  0  0  0  0
  189.7240  177.2000  146.5860 C   0  0  0  0  0  0  0  0  0  0  0  0
  188.0320  177.5960  142.7390 C   0  0  0  0  0  0  0  0  0  0  0  0
  191.7220  176.7710  147.2670 N   0  0  0  0  0  2  0  0  0  0  0  0
  183.9560  179.0740  144.6050 C   0  0  0  0  0  3  0  0  0  0  0  0
  190.4590  176.9840  145.4690 C   0  0  0  0  0  0  0  0  0  0  0  0
  186.4790  177.8740  145.0800 C   0  0  1  0  0  3  0  0  0  0  0  0
  184.4120  178.7970  145.9840 C   0  0  0  0  0  3  0  0  0  0  0  0
  188.6050  177.3690  144.0840 C   0  0  0  0  0  0  0  0  0  0  0  0
  189.9350  177.0740  144.2230 N   0  0  0  0  0  0  0  0  0  0  0  0
  187.7860  177.5820  145.2360 C   0  0  0  0  0  0  0  0  0  0  0  0
  186.7620  177.8350  142.6080 N   0  0  0  0  0  0  0  0  0  0  0  0
  188.3730  177.5110  146.5190 C   0  0  0  0  0  3  0  0  0  0  0  0
  184.6330  178.6140  143.5460 C   0  0  0  0  0  3  0  0  0  0  0  0
  188.9190  177.6990  141.5400 C   0  0  0  0  0  2  0  0  0  0  0  0
  188.2320  178.4630  140.4140 C   0  0  0  0  0  2  0  0  0  0  0  0
  188.9650  178.2900  139.0890 C   0  0  0  0  0  2  0  0  0  0  0  0
  188.7350  176.9020  138.5030 C   0  0  0  0  0  2  0  0  0  0  0  0
  189.9830  176.3680  137.8750 C   0  0  0  0  0  3  0  0  0  0  0  0
  190.8960  175.8310  138.6000 N   0  0  0  0  0  0  0  0  0  0  0  0
  192.1010  175.3140  138.0040 C   0  0  0  0  0  2  0  0  0  0  0  0
  193.4660  176.9130  139.1270 O   0  0  0  0  0  1  0  0  0  0  0  0
  193.1850  176.3370  138.0450 C   0  0  0  0  0  0  0  0  0  0  0  0
  193.9080  176.6290  136.8960 O   0  0  0  0  0  0  0  0  0  0  0  0
  1  7  1  0  0  0  0
  3 17  1  6  0  0  0
  3 10  1  0  0  0  0
  5  2  2  0  0  0  0
  6 12  1  0  0  0  0
  7  2  1  0  0  0  0
  8 11  1  0  0  0  0
  9  1  2  0  0  0  0
  9  5  1  0  0  0  0
 10 14  1  0  0  0  0
 10  4  1  1  0  0  0
 11  4  2  0  0  0  0
 12 13  2  0  0  0  0
 12 14  1  0  0  0  0
 13  9  1  0  0  0  0
 14 16  2  0  0  0  0
 15  6  2  0  0  0  0
 15  3  1  0  0  0  0
 16  5  1  0  0  0  0
 17  8  2  0  0  0  0
 18  6  1  0  0  0  0
 19 18  1  0  0  0  0
 20 19  1  0  0  0  0
 21 20  1  0  0  0  0
 22 21  1  0  0  0  0
 22 23  2  0  0  0  0
 24 26  1  0  0  0  0
 24 23  1  0  0  0  0
 26 25  1  0  0  0  0
 27 26  2  0  0  0  0
M  END
>  <MODEL>
3

>  <REMARK>
 VINA RESULT:      -9.0      3.167      3.950
  Name = 
  7 active torsions:
  status: ('A' for Active; 'I' for Inactive)
    1  A    between atoms: C_4  and  C_20
    2  A    between atoms: C_4  and  N_24
    3  A    between atoms: C_5  and  C_12
    4  A    between atoms: C_5  and  C_25
    5  A    between atoms: C_6  and  C_7
    6  A    between atoms: C_6  and  C_25
    7  A    between atoms: C_10  and  C_12
                            x       y       z     vdW  Elec       q    Type
                         _______ _______ _______ _____ _____    ______ ____

>  <TORSDO>
F 7

$$$$
=
 OpenBabel10222420113D

 27 30  0  0  1  0  0  0  0  0999 V2000
  184.3520  178.7360  144.5190 C   0  0  0  0  0  3  0  0  0  0  0  0
  184.7440  178.6270  146.7120 N   0  0  0  0  0  0  0  0  0  0  0  0
  190.5130  177.3330  144.7460 C   0  0  2  0  0  3  0  0  0  0  0  0
  189.8170  177.1350  147.1990 C   0  0  0  0  0  3  0  0  0  0  0  0
  185.9080  178.3130  145.9740 C   0  0  0  0  0  0  0  0  0  0  0  0
  188.7920  177.3670  143.0410 C   0  0  0  0  0  0  0  0  0  0  0  0
  183.8320  178.8760  145.8540 N   0  0  0  0  0  2  0  0  0  0  0  0
  191.8620  176.0580  146.3800 C   0  0  0  0  0  3  0  0  0  0  0  0
  185.6200  178.3950  144.6530 C   0  0  0  0  0  0  0  0  0  0  0  0
  189.4180  177.3680  145.7940 C   0  0  1  0  0  3  0  0  0  0  0  0
  190.9770  176.5270  147.4680 C   0  0  0  0  0  3  0  0  0  0  0  0
  187.8070  177.7850  144.0630 C   0  0  0  0  0  0  0  0  0  0  0  0
  186.5350  178.1270  143.6900 N   0  0  0  0  0  0  0  0  0  0  0  0
  188.1610  177.7090  145.4460 C   0  0  0  0  0  0  0  0  0  0  0  0
  190.0100  177.0830  143.3940 N   0  0  0  0  0  0  0  0  0  0  0  0
  187.1730  177.9650  146.4230 C   0  0  0  0  0  3  0  0  0  0  0  0
  191.6250  176.3870  145.1050 C   0  0  0  0  0  3  0  0  0  0  0  0
  188.3690  177.1250  141.6280 C   0  0  0  0  0  2  0  0  0  0  0  0
  188.6210  178.3540  140.7630 C   0  0  0  0  0  2  0  0  0  0  0  0
  189.4190  178.0070  139.5110 C   0  0  0  0  0  2  0  0  0  0  0  0
  190.6020  177.1040  139.8380 C   0  0  0  0  0  2  0  0  0  0  0  0
  191.3620  176.7420  138.6020 C   0  0  0  0  0  3  0  0  0  0  0  0
  191.7760  175.5410  138.4220 N   0  0  0  0  0  0  0  0  0  0  0  0
  192.5080  175.1840  137.2340 C   0  0  0  0  0  2  0  0  0  0  0  0
  194.7170  175.2400  138.1280 O   0  0  0  0  0  1  0  0  0  0  0  0
  193.9000  175.7150  137.2980 C   0  0  0  0  0  0  0  0  0  0  0  0
  194.3040  176.7110  136.4190 O   0  0  0  0  0  0  0  0  0  0  0  0
  1  9  2  0  0  0  0
  1  7  1  0  0  0  0
  3 17  1  1  0  0  0
  3 10  1  0  0  0  0
  4 11  2  0  0  0  0
  5 16  1  0  0  0  0
  5  2  2  0  0  0  0
  6 15  2  0  0  0  0
  6 12  1  0  0  0  0
  7  2  1  0  0  0  0
  8 11  1  0  0  0  0
  9  5  1  0  0  0  0
 10  4  1  1  0  0  0
 12 14  1  0  0  0  0
 13 12  2  0  0  0  0
 13  9  1  0  0  0  0
 14 10  1  0  0  0  0
 14 16  2  0  0  0  0
 15  3  1  0  0  0  0
 17  8  2  0  0  0  0
 18  6  1  0  0  0  0
 19 18  1  0  0  0  0
 20 21  1  0  0  0  0
 20 19  1  0  0  0  0
 22 21  1  0  0  0  0
 23 22  2  0  0  0  0
 24 26  1  0  0  0  0
 24 23  1  0  0  0  0
 26 25  1  0  0  0  0
 27 26  2  0  0  0  0
M  END
>  <MODEL>
4

>  <REMARK>
 VINA RESULT:      -8.7      3.862      6.073
  Name = 
  7 active torsions:
  status: ('A' for Active; 'I' for Inactive)
    1  A    between atoms: C_4  and  C_20
    2  A    between atoms: C_4  and  N_24
    3  A    between atoms: C_5  and  C_12
    4  A    between atoms: C_5  and  C_25
    5  A    between atoms: C_6  and  C_7
    6  A    between atoms: C_6  and  C_25
    7  A    between atoms: C_10  and  C_12
                            x       y       z     vdW  Elec       q    Type
                         _______ _______ _______ _____ _____    ______ ____

>  <TORSDO>
F 7

$$$$
=
 OpenBabel10222420113D

 27 30  0  0  1  0  0  0  0  0999 V2000
  191.7150  176.8400  145.6120 C   0  0  0  0  0  3  0  0  0  0  0  0
  190.5860  176.9190  147.5340 N   0  0  0  0  0  0  0  0  0  0  0  0
  185.7880  177.8880  143.6780 C   0  0  2  0  0  3  0  0  0  0  0  0
  185.5830  178.1190  146.2170 C   0  0  0  0  0  3  0  0  0  0  0  0
  189.7330  177.1690  146.4340 C   0  0  0  0  0  0  0  0  0  0  0  0
  187.9900  177.9570  142.6720 C   0  0  0  0  0  0  0  0  0  0  0  0
  191.7500  176.7260  147.0470 N   0  0  0  0  0  2  0  0  0  0  0  0
  183.8910  179.0800  144.7260 C   0  0  0  0  0  3  0  0  0  0  0  0
  190.4630  177.1070  145.2950 C   0  0  0  0  0  0  0  0  0  0  0  0
  186.4540  177.9120  145.0400 C   0  0  1  0  0  3  0  0  0  0  0  0
  184.3700  178.6590  146.0600 C   0  0  0  0  0  3  0  0  0  0  0  0
  188.5840  177.5930  143.9780 C   0  0  0  0  0  0  0  0  0  0  0  0
  189.9230  177.3250  144.0720 N   0  0  0  0  0  0  0  0  0  0  0  0
  187.7700  177.6450  145.1520 C   0  0  0  0  0  0  0  0  0  0  0  0
  186.7120  178.1700  142.5780 N   0  0  0  0  0  0  0  0  0  0  0  0
  188.3730  177.4430  146.4140 C   0  0  0  0  0  3  0  0  0  0  0  0
  184.5710  178.7680  143.6150 C   0  0  0  0  0  3  0  0  0  0  0  0
  188.8610  178.2270  141.4870 C   0  0  0  0  0  2  0  0  0  0  0  0
  189.2150  176.9350  140.7610 C   0  0  0  0  0  2  0  0  0  0  0  0
  190.6570  176.9440  140.2690 C   0  0  0  0  0  2  0  0  0  0  0  0
  190.7450  176.5820  138.7910 C   0  0  0  0  0  2  0  0  0  0  0  0
  189.4910  176.9590  138.0680 C   0  0  0  0  0  3  0  0  0  0  0  0
  189.3340  178.1510  137.6190 N   0  0  0  0  0  0  0  0  0  0  0  0
  188.1290  178.5220  136.9220 C   0  0  0  0  0  2  0  0  0  0  0  0
  186.2200  177.1220  137.2010 O   0  0  0  0  0  0  0  0  0  0  0  0
  186.9270  178.0530  137.6680 C   0  0  0  0  0  0  0  0  0  0  0  0
  186.6050  178.6190  138.8940 O   0  0  0  0  0  1  0  0  0  0  0  0
  1  7  1  0  0  0  0
  3 17  1  1  0  0  0
  3 10  1  0  0  0  0
  5  2  2  0  0  0  0
  6 12  1  0  0  0  0
  7  2  1  0  0  0  0
  8 11  1  0  0  0  0
  9  1  2  0  0  0  0
  9  5  1  0  0  0  0
 10 14  1  0  0  0  0
 10  4  1  1  0  0  0
 11  4  2  0  0  0  0
 12 13  2  0  0  0  0
 12 14  1  0  0  0  0
 13  9  1  0  0  0  0
 14 16  2  0  0  0  0
 15  6  2  0  0  0  0
 15  3  1  0  0  0  0
 16  5  1  0  0  0  0
 17  8  2  0  0  0  0
 18  6  1  0  0  0  0
 19 18  1  0  0  0  0
 20 19  1  0  0  0  0
 21 20  1  0  0  0  0
 22 21  1  0  0  0  0
 23 22  2  0  0  0  0
 24 23  1  0  0  0  0
 24 26  1  0  0  0  0
 25 26  2  0  0  0  0
 26 27  1  0  0  0  0
M  END
>  <MODEL>
5

>  <REMARK>
 VINA RESULT:      -8.6      1.453      1.877
  Name = 
  7 active torsions:
  status: ('A' for Active; 'I' for Inactive)
    1  A    between atoms: C_4  and  C_20
    2  A    between atoms: C_4  and  N_24
    3  A    between atoms: C_5  and  C_12
    4  A    between atoms: C_5  and  C_25
    5  A    between atoms: C_6  and  C_7
    6  A    between atoms: C_6  and  C_25
    7  A    between atoms: C_10  and  C_12
                            x       y       z     vdW  Elec       q    Type
                         _______ _______ _______ _____ _____    ______ ____

>  <TORSDO>
F 7

$$$$
=
 OpenBabel10222420113D

 27 30  0  0  1  0  0  0  0  0999 V2000
  191.6630  176.6020  145.6600 C   0  0  0  0  0  3  0  0  0  0  0  0
  190.4980  176.8780  147.5420 N   0  0  0  0  0  0  0  0  0  0  0  0
  185.8560  177.8770  143.5070 C   0  0  2  0  0  3  0  0  0  0  0  0
  185.6100  178.2880  146.0190 C   0  0  0  0  0  3  0  0  0  0  0  0
  189.6870  177.1050  146.4070 C   0  0  0  0  0  0  0  0  0  0  0  0
  188.0810  177.7460  142.5560 C   0  0  0  0  0  0  0  0  0  0  0  0
  191.6590  176.5820  147.0990 N   0  0  0  0  0  2  0  0  0  0  0  0
  184.0150  179.2490  144.4240 C   0  0  0  0  0  3  0  0  0  0  0  0
  190.4370  176.9230  145.2930 C   0  0  0  0  0  0  0  0  0  0  0  0
  186.4930  177.9510  144.8810 C   0  0  1  0  0  3  0  0  0  0  0  0
  184.4370  178.8890  145.7950 C   0  0  0  0  0  3  0  0  0  0  0  0
  188.6220  177.4330  143.8980 C   0  0  0  0  0  0  0  0  0  0  0  0
  189.9390  177.0920  144.0440 N   0  0  0  0  0  0  0  0  0  0  0  0
  187.7870  177.6130  145.0450 C   0  0  0  0  0  0  0  0  0  0  0  0
  186.8210  178.0290  142.4160 N   0  0  0  0  0  0  0  0  0  0  0  0
  188.3480  177.4590  146.3330 C   0  0  0  0  0  3  0  0  0  0  0  0
  184.6980  178.8230  143.3550 C   0  0  0  0  0  3  0  0  0  0  0  0
  188.9930  177.8830  141.3790 C   0  0  0  0  0  2  0  0  0  0  0  0
  188.2010  178.0510  140.0890 C   0  0  0  0  0  2  0  0  0  0  0  0
  189.0590  178.6400  138.9750 C   0  0  0  0  0  2  0  0  0  0  0  0
  188.4040  178.4600  137.6110 C   0  0  0  0  0  2  0  0  0  0  0  0
  189.0240  177.3260  136.8600 C   0  0  0  0  0  3  0  0  0  0  0  0
  190.2210  176.9490  137.1250 N   0  0  0  0  0  0  0  0  0  0  0  0
  190.8260  175.8570  136.4050 C   0  0  0  0  0  2  0  0  0  0  0  0
  190.0970  173.8290  137.4240 O   0  0  0  0  0  0  0  0  0  0  0  0
  191.0150  174.6810  137.3010 C   0  0  0  0  0  0  0  0  0  0  0  0
  192.2170  174.5060  137.9740 O   0  0  0  0  0  1  0  0  0  0  0  0
  1  7  1  0  0  0  0
  3 17  1  1  0  0  0
  3 10  1  0  0  0  0
  5  2  2  0  0  0  0
  6 12  1  0  0  0  0
  7  2  1  0  0  0  0
  8 11  1  0  0  0  0
  9  1  2  0  0  0  0
  9  5  1  0  0  0  0
 10 14  1  0  0  0  0
 10  4  1  1  0  0  0
 11  4  2  0  0  0  0
 12 13  2  0  0  0  0
 12 14  1  0  0  0  0
 13  9  1  0  0  0  0
 14 16  2  0  0  0  0
 15  6  2  0  0  0  0
 15  3  1  0  0  0  0
 16  5  1  0  0  0  0
 17  8  2  0  0  0  0
 18  6  1  0  0  0  0
 19 18  1  0  0  0  0
 20 19  1  0  0  0  0
 21 20  1  0  0  0  0
 22 23  2  0  0  0  0
 22 21  1  0  0  0  0
 24 23  1  0  0  0  0
 24 26  1  0  0  0  0
 26 25  2  0  0  0  0
 26 27  1  0  0  0  0
M  END
>  <MODEL>
6

>  <REMARK>
 VINA RESULT:      -8.6      2.844      3.520
  Name = 
  7 active torsions:
  status: ('A' for Active; 'I' for Inactive)
    1  A    between atoms: C_4  and  C_20
    2  A    between atoms: C_4  and  N_24
    3  A    between atoms: C_5  and  C_12
    4  A    between atoms: C_5  and  C_25
    5  A    between atoms: C_6  and  C_7
    6  A    between atoms: C_6  and  C_25
    7  A    between atoms: C_10  and  C_12
                            x       y       z     vdW  Elec       q    Type
                         _______ _______ _______ _____ _____    ______ ____

>  <TORSDO>
F 7

$$$$
=
 OpenBabel10222420113D

 27 30  0  0  1  0  0  0  0  0999 V2000
  188.7550  177.6210  140.2700 C   0  0  0  0  0  3  0  0  0  0  0  0
  190.7120  177.1090  141.2090 N   0  0  0  0  0  0  0  0  0  0  0  0
  187.3290  177.4910  146.4280 C   0  0  2  0  0  3  0  0  0  0  0  0
  189.8760  177.2500  146.4520 C   0  0  0  0  0  3  0  0  0  0  0  0
  189.7180  177.3180  142.1920 C   0  0  0  0  0  0  0  0  0  0  0  0
  186.2460  178.2580  144.4020 C   0  0  0  0  0  0  0  0  0  0  0  0
  190.1430  177.2870  140.0800 N   0  0  0  0  0  0  0  0  0  0  0  0
  188.6640  177.9980  148.4480 C   0  0  0  0  0  3  0  0  0  0  0  0
  188.5520  177.6220  141.5740 C   0  0  1  0  0  3  0  0  0  0  0  0
  188.6400  177.4560  145.6660 C   0  0  1  0  0  3  0  0  0  0  0  0
  189.8760  177.4960  147.7660 C   0  0  0  0  0  3  0  0  0  0  0  0
  187.4350  177.8430  143.6250 C   0  0  0  0  0  0  0  0  0  0  0  0
  187.4150  177.8980  142.2570 N   0  0  0  0  0  0  0  0  0  0  0  0
  188.6380  177.5030  144.3190 C   0  0  0  0  0  0  0  0  0  0  0  0
  186.2550  178.1650  145.6980 N   0  0  0  0  0  0  0  0  0  0  0  0
  189.8130  177.2520  143.5750 C   0  0  0  0  0  3  0  0  0  0  0  0
  187.4850  178.0460  147.8170 C   0  0  0  0  0  3  0  0  0  0  0  0
  185.0880  178.9210  143.7270 C   0  0  0  0  0  2  0  0  0  0  0  0
  183.7850  178.6270  144.4610 C   0  0  0  0  0  2  0  0  0  0  0  0
  182.6290  179.4480  143.9020 C   0  0  0  0  0  2  0  0  0  0  0  0
  181.7710  178.6260  142.9480 C   0  0  0  0  0  2  0  0  0  0  0  0
  182.1440  178.8890  141.5240 C   0  0  0  0  0  3  0  0  0  0  0  0
  182.9660  178.1160  140.9150 N   0  0  0  0  0  0  0  0  0  0  0  0
  183.3310  178.3630  139.5430 C   0  0  0  0  0  2  0  0  0  0  0  0
  185.0910  179.7530  140.3510 O   0  0  0  0  0  1  0  0  0  0  0  0
  184.6980  178.9530  139.4630 C   0  0  0  0  0  0  0  0  0  0  0  0
  185.5500  178.5930  138.4270 O   0  0  0  0  0  0  0  0  0  0  0  0
  2  5  2  0  0  0  0
  3 17  1  1  0  0  0
  4 11  2  0  0  0  0
  5 16  1  0  0  0  0
  6 15  2  0  0  0  0
  7  1  2  0  0  0  0
  7  2  1  0  0  0  0
  9  1  1  1  0  0  0
  9  5  1  0  0  0  0
  9 13  1  0  0  0  0
 10  3  1  0  0  0  0
 10  4  1  6  0  0  0
 11  8  1  0  0  0  0
 12 14  1  0  0  0  0
 12  6  1  0  0  0  0
 13 12  2  0  0  0  0
 14 10  1  0  0  0  0
 15  3  1  0  0  0  0
 16 14  2  0  0  0  0
 17  8  2  0  0  0  0
 18  6  1  0  0  0  0
 18 19  1  0  0  0  0
 20 19  1  0  0  0  0
 21 20  1  0  0  0  0
 22 21  1  0  0  0  0
 23 22  2  0  0  0  0
 24 23  1  0  0  0  0
 26 24  1  0  0  0  0
 26 25  1  0  0  0  0
 27 26  2  0  0  0  0
M  END
>  <MODEL>
7

>  <REMARK>
 VINA RESULT:      -8.5      2.180      4.811
  Name = 
  7 active torsions:
  status: ('A' for Active; 'I' for Inactive)
    1  A    between atoms: C_4  and  C_20
    2  A    between atoms: C_4  and  N_24
    3  A    between atoms: C_5  and  C_12
    4  A    between atoms: C_5  and  C_25
    5  A    between atoms: C_6  and  C_7
    6  A    between atoms: C_6  and  C_25
    7  A    between atoms: C_10  and  C_12
                            x       y       z     vdW  Elec       q    Type
                         _______ _______ _______ _____ _____    ______ ____

>  <TORSDO>
F 7

$$$$
=
 OpenBabel10222420113D

 27 30  0  0  1  0  0  0  0  0999 V2000
  190.1150  177.5390  140.1070 C   0  0  0  0  0  3  0  0  0  0  0  0
  191.6230  177.1280  141.6980 N   0  0  0  0  0  0  0  0  0  0  0  0
  186.6110  177.6040  145.3700 C   0  0  2  0  0  3  0  0  0  0  0  0
  188.9890  177.4470  146.2980 C   0  0  0  0  0  3  0  0  0  0  0  0
  190.3420  177.3430  142.2570 C   0  0  0  0  0  0  0  0  0  0  0  0
  186.3000  178.2550  143.0570 C   0  0  0  0  0  0  0  0  0  0  0  0
  191.4850  177.2430  140.4340 N   0  0  0  0  0  0  0  0  0  0  0  0
  187.1390  178.2330  147.7020 C   0  0  0  0  0  3  0  0  0  0  0  0
  189.4650  177.5840  141.2540 C   0  0  1  0  0  3  0  0  0  0  0  0
  188.1070  177.5820  145.1190 C   0  0  1  0  0  3  0  0  0  0  0  0
  188.5220  177.7440  147.5150 C   0  0  0  0  0  3  0  0  0  0  0  0
  187.6930  177.8480  142.7690 C   0  0  0  0  0  0  0  0  0  0  0  0
  188.1550  177.8500  141.4800 N   0  0  0  0  0  0  0  0  0  0  0  0
  188.5790  177.5760  143.8570 C   0  0  0  0  0  0  0  0  0  0  0  0
  185.8520  178.2130  144.2760 N   0  0  0  0  0  0  0  0  0  0  0  0
  189.9450  177.3340  143.5860 C   0  0  0  0  0  3  0  0  0  0  0  0
  186.2570  178.2180  146.6960 C   0  0  0  0  0  3  0  0  0  0  0  0
  185.4430  178.8530  141.9880 C   0  0  0  0  0  2  0  0  0  0  0  0
  184.1980  178.0070  141.7470 C   0  0  0  0  0  2  0  0  0  0  0  0
  183.6890  178.1520  140.3170 C   0  0  0  0  0  2  0  0  0  0  0  0
  184.5630  179.1030  139.5080 C   0  0  0  0  0  2  0  0  0  0  0  0
  185.3440  178.3650  138.4680 C   0  0  0  0  0  3  0  0  0  0  0  0
  186.6200  178.2680  138.5610 N   0  0  0  0  0  0  0  0  0  0  0  0
  187.3800  177.5590  137.5630 C   0  0  0  0  0  2  0  0  0  0  0  0
  188.8760  178.1770  135.8140 O   0  0  0  0  0  0  0  0  0  0  0  0
  188.3950  178.4570  136.9420 C   0  0  0  0  0  0  0  0  0  0  0  0
  188.7840  179.6200  137.5930 O   0  0  0  0  0  1  0  0  0  0  0  0
  1  7  2  0  0  0  0
  2  5  2  0  0  0  0
  3 17  1  1  0  0  0
  4 11  2  0  0  0  0
  5 16  1  0  0  0  0
  6 15  2  0  0  0  0
  7  2  1  0  0  0  0
  9  1  1  1  0  0  0
  9 13  1  0  0  0  0
  9  5  1  0  0  0  0
 10  3  1  0  0  0  0
 10  4  1  6  0  0  0
 11  8  1  0  0  0  0
 12  6  1  0  0  0  0
 12 14  1  0  0  0  0
 13 12  2  0  0  0  0
 14 10  1  0  0  0  0
 15  3  1  0  0  0  0
 16 14  2  0  0  0  0
 17  8  2  0  0  0  0
 18  6  1  0  0  0  0
 19 18  1  0  0  0  0
 20 19  1  0  0  0  0
 21 20  1  0  0  0  0
 22 23  2  0  0  0  0
 22 21  1  0  0  0  0
 24 23  1  0  0  0  0
 25 26  2  0  0  0  0
 26 24  1  0  0  0  0
 26 27  1  0  0  0  0
M  END
>  <MODEL>
8

>  <REMARK>
 VINA RESULT:      -8.5      2.541      4.155
  Name = 
  7 active torsions:
  status: ('A' for Active; 'I' for Inactive)
    1  A    between atoms: C_4  and  C_20
    2  A    between atoms: C_4  and  N_24
    3  A    between atoms: C_5  and  C_12
    4  A    between atoms: C_5  and  C_25
    5  A    between atoms: C_6  and  C_7
    6  A    between atoms: C_6  and  C_25
    7  A    between atoms: C_10  and  C_12
                            x       y       z     vdW  Elec       q    Type
                         _______ _______ _______ _____ _____    ______ ____

>  <TORSDO>
F 7

$$$$
=
 OpenBabel10222420113D

 27 30  0  0  1  0  0  0  0  0999 V2000
  188.6370  177.5120  140.3080 C   0  0  0  0  0  3  0  0  0  0  0  0
  190.5990  176.9940  141.2330 N   0  0  0  0  0  0  0  0  0  0  0  0
  187.2860  177.5140  146.4850 C   0  0  2  0  0  3  0  0  0  0  0  0
  189.8290  177.2420  146.4820 C   0  0  0  0  0  3  0  0  0  0  0  0
  189.6190  177.2330  142.2240 C   0  0  0  0  0  0  0  0  0  0  0  0
  186.1870  178.2560  144.4570 C   0  0  0  0  0  0  0  0  0  0  0  0
  190.0180  177.1580  140.1080 N   0  0  0  0  0  0  0  0  0  0  0  0
  188.6510  178.0410  148.4780 C   0  0  0  0  0  3  0  0  0  0  0  0
  188.4500  177.5400  141.6140 C   0  0  1  0  0  3  0  0  0  0  0  0
  188.5860  177.4480  145.7070 C   0  0  1  0  0  3  0  0  0  0  0  0
  189.8490  177.5120  147.7910 C   0  0  0  0  0  3  0  0  0  0  0  0
  187.3610  177.8120  143.6740 C   0  0  0  0  0  0  0  0  0  0  0  0
  187.3250  177.8430  142.3060 N   0  0  0  0  0  0  0  0  0  0  0  0
  188.5690  177.4710  144.3600 C   0  0  0  0  0  0  0  0  0  0  0  0
  186.2100  178.1870  145.7540 N   0  0  0  0  0  0  0  0  0  0  0  0
  189.7310  177.1920  143.6060 C   0  0  0  0  0  3  0  0  0  0  0  0
  187.4640  178.0920  147.8610 C   0  0  0  0  0  3  0  0  0  0  0  0
  185.0290  178.9210  143.7850 C   0  0  0  0  0  2  0  0  0  0  0  0
  183.8330  179.0200  144.7240 C   0  0  0  0  0  2  0  0  0  0  0  0
  182.5140  178.9460  143.9640 C   0  0  0  0  0  2  0  0  0  0  0  0
  182.7410  178.7090  142.4750 C   0  0  0  0  0  2  0  0  0  0  0  0
  181.4440  178.6640  141.7320 C   0  0  0  0  0  3  0  0  0  0  0  0
  180.3370  178.5230  142.3660 N   0  0  0  0  0  0  0  0  0  0  0  0
  179.0840  178.4780  141.6570 C   0  0  0  0  0  2  0  0  0  0  0  0
  178.9480  176.1370  141.2310 O   0  0  0  0  0  1  0  0  0  0  0  0
  179.0370  177.2960  140.7500 C   0  0  0  0  0  0  0  0  0  0  0  0
  179.0570  177.4750  139.3730 O   0  0  0  0  0  0  0  0  0  0  0  0
  2  5  2  0  0  0  0
  3 17  1  1  0  0  0
  4 11  2  0  0  0  0
  5 16  1  0  0  0  0
  6 15  2  0  0  0  0
  7  1  2  0  0  0  0
  7  2  1  0  0  0  0
  9  1  1  6  0  0  0
  9  5  1  0  0  0  0
  9 13  1  0  0  0  0
 10  4  1  6  0  0  0
 10  3  1  0  0  0  0
 11  8  1  0  0  0  0
 12 14  1  0  0  0  0
 12  6  1  0  0  0  0
 13 12  2  0  0  0  0
 14 10  1  0  0  0  0
 15  3  1  0  0  0  0
 16 14  2  0  0  0  0
 17  8  2  0  0  0  0
 18  6  1  0  0  0  0
 18 19  1  0  0  0  0
 20 19  1  0  0  0  0
 21 20  1  0  0  0  0
 22 23  2  0  0  0  0
 22 21  1  0  0  0  0
 24 23  1  0  0  0  0
 26 25  1  0  0  0  0
 26 24  1  0  0  0  0
 27 26  2  0  0  0  0
M  END
>  <MODEL>
9

>  <REMARK>
 VINA RESULT:      -8.2      2.970      5.399
  Name = 
  7 active torsions:
  status: ('A' for Active; 'I' for Inactive)
    1  A    between atoms: C_4  and  C_20
    2  A    between atoms: C_4  and  N_24
    3  A    between atoms: C_5  and  C_12
    4  A    between atoms: C_5  and  C_25
    5  A    between atoms: C_6  and  C_7
    6  A    between atoms: C_6  and  C_25
    7  A    between atoms: C_10  and  C_12
                            x       y       z     vdW  Elec       q    Type
                         _______ _______ _______ _____ _____    ______ ____

>  <TORSDO>
F 7

$$$$
