=
 OpenBabel10222421143D

 37 41  0  0  1  0  0  0  0  0999 V2000
  190.9150  176.9070  139.2440 C   0  0  0  0  0  0  0  0  0  0  0  0
  188.6050  177.2970  138.1130 C   0  0  1  0  0  3  0  0  0  0  0  0
  190.0790  177.0190  138.0950 C   0  0  0  0  0  0  0  0  0  0  0  0
  190.6500  176.7090  136.8460 C   0  0  0  0  0  3  0  0  0  0  0  0
  185.8440  177.5950  138.0640 C   0  0  2  0  0  3  0  0  0  0  0  0
  188.6700  177.1100  142.3520 C   0  0  2  0  0  3  0  0  0  0  0  0
  188.1340  179.3470  141.1500 C   0  0  0  0  0  2  0  0  0  0  0  0
  192.2450  176.4990  139.0860 C   0  0  0  0  0  3  0  0  0  0  0  0
  188.6760  178.9840  139.8800 O   0  0  0  0  0  0  0  0  0  0  0  0
  192.7510  176.1960  137.8190 C   0  0  0  0  0  0  0  0  0  0  0  0
  186.4510  176.7180  137.2250 N   0  0  0  0  0  0  0  0  0  0  0  0
  187.7970  176.5630  137.2330 C   0  0  0  0  0  3  0  0  0  0  0  0
  186.6010  178.3380  138.9130 N   0  0  0  0  0  0  0  0  0  0  0  0
  187.9560  178.2210  138.9590 C   0  0  0  0  0  0  0  0  0  0  0  0
  189.3960  176.4030  141.1990 C   0  0  0  0  0  2  0  0  0  0  0  0
  190.5210  177.2620  140.6400 C   0  0  0  0  0  2  0  0  0  0  0  0
  187.6020  178.1180  141.9040 C   0  0  0  0  0  2  0  0  0  0  0  0
  191.9450  176.3180  136.7330 N   0  0  0  0  0  0  0  0  0  0  0  0
  184.3720  177.7170  138.0770 C   0  0  0  0  0  0  0  0  0  0  0  0
  181.7740  179.9620  139.3710 F   0  0  0  0  0  0  0  0  0  0  0  0
  182.1800  176.9230  137.3780 C   0  0  0  0  0  3  0  0  0  0  0  0
  181.5740  177.9880  138.0500 C   0  0  0  0  0  3  0  0  0  0  0  0
  183.5740  176.7890  137.3890 C   0  0  0  0  0  3  0  0  0  0  0  0
  183.7510  178.7860  138.7470 C   0  0  0  0  0  3  0  0  0  0  0  0
  182.3610  178.9190  138.7360 C   0  0  0  0  0  0  0  0  0  0  0  0
  194.7960  175.8860  136.4500 O   0  0  0  0  0  0  0  0  0  0  0  0
  194.1320  175.7280  137.6620 C   0  0  0  0  0  0  0  0  0  0  0  0
  194.7380  175.2010  138.6330 O   0  0  0  0  0  1  0  0  0  0  0  0
  189.6050  177.6900  143.4050 C   0  0  0  0  0  2  0  0  0  0  0  0
  189.7610  176.6980  144.5410 C   0  0  0  0  0  2  0  0  0  0  0  0
  189.7690  177.3460  146.9630 C   0  0  0  0  0  0  0  0  0  0  0  0
  187.7430  178.1250  148.0220 C   0  0  0  0  0  3  0  0  0  0  0  0
  189.1020  177.8110  148.0960 C   0  0  0  0  0  3  0  0  0  0  0  0
  191.0890  177.0400  147.0370 F   0  0  0  0  0  0  0  0  0  0  0  0
  187.7380  177.5070  145.7130 N   0  0  0  0  0  0  0  0  0  0  0  0
  187.0700  177.9630  146.8070 C   0  0  0  0  0  3  0  0  0  0  0  0
  189.0630  177.1960  145.7620 C   0  0  0  0  0  0  0  0  0  0  0  0
  1 16  1  0  0  0  0
  2 12  1  1  0  0  0
  2 14  1  0  0  0  0
  3  2  1  0  0  0  0
  3  1  2  0  0  0  0
  4  3  1  0  0  0  0
  5 19  1  1  0  0  0
  5 13  1  0  0  0  0
  6 29  1  6  0  0  0
  7 17  1  0  0  0  0
  8  1  1  0  0  0  0
  9  7  1  0  0  0  0
 10  8  2  0  0  0  0
 11 12  2  0  0  0  0
 11  5  1  0  0  0  0
 13 14  2  0  0  0  0
 14  9  1  0  0  0  0
 15  6  1  0  0  0  0
 16 15  1  0  0  0  0
 17  6  1  0  0  0  0
 18  4  2  0  0  0  0
 18 10  1  0  0  0  0
 19 24  1  0  0  0  0
 21 23  1  0  0  0  0
 21 22  2  0  0  0  0
 22 25  1  0  0  0  0
 23 19  2  0  0  0  0
 25 24  2  0  0  0  0
 25 20  1  0  0  0  0
 26 27  2  0  0  0  0
 27 10  1  0  0  0  0
 27 28  1  0  0  0  0
 29 30  1  0  0  0  0
 30 37  1  0  0  0  0
 31 34  1  0  0  0  0
 31 33  1  0  0  0  0
 32 33  2  0  0  0  0
 35 37  1  0  0  0  0
 35 36  2  0  0  0  0
 36 32  1  0  0  0  0
 37 31  2  0  0  0  0
M  END
>  <MODEL>
1

>  <REMARK>
 VINA RESULT:      -8.6      0.000      0.000
  Name = 
  5 active torsions:
  status: ('A' for Active; 'I' for Inactive)
    1  A    between atoms: C_3  and  C_7
    2  A    between atoms: C_10  and  C_25
    3  A    between atoms: CA_16  and  C_21
    4  A    between atoms: C_22  and  C_25
    5  A    between atoms: C_22  and  C_36
                            x       y       z     vdW  Elec       q    Type
                         _______ _______ _______ _____ _____    ______ ____

>  <TORSDO>
F 5

$$$$
=
 OpenBabel10222421143D

 37 41  0  0  1  0  0  0  0  0999 V2000
  189.1120  177.4610  144.4320 C   0  0  0  0  0  0  0  0  0  0  0  0
  189.6350  177.5060  141.8840 C   0  0  1  0  0  3  0  0  0  0  0  0
  190.0160  177.4050  143.3320 C   0  0  0  0  0  0  0  0  0  0  0  0
  191.3600  177.0950  143.6120 C   0  0  0  0  0  3  0  0  0  0  0  0
  188.9940  177.4680  139.1820 C   0  0  2  0  0  3  0  0  0  0  0  0
  185.5450  177.5730  143.0160 C   0  0  2  0  0  3  0  0  0  0  0  0
  186.6300  179.6560  141.9140 C   0  0  0  0  0  2  0  0  0  0  0  0
  189.5890  177.2060  145.7240 C   0  0  0  0  0  3  0  0  0  0  0  0
  187.9870  179.2880  142.1680 O   0  0  0  0  0  0  0  0  0  0  0  0
  190.9340  176.8940  145.9360 C   0  0  0  0  0  0  0  0  0  0  0  0
  189.9350  176.6230  139.6720 N   0  0  0  0  0  0  0  0  0  0  0  0
  190.2630  176.6310  140.9870 C   0  0  0  0  0  3  0  0  0  0  0  0
  188.3830  178.3440  140.0210 N   0  0  0  0  0  0  0  0  0  0  0  0
  188.6770  178.3930  141.3490 C   0  0  0  0  0  0  0  0  0  0  0  0
  186.8250  176.8930  143.5210 C   0  0  0  0  0  2  0  0  0  0  0  0
  187.6710  177.8460  144.3510 C   0  0  0  0  0  2  0  0  0  0  0  0
  185.7360  178.4180  141.7480 C   0  0  0  0  0  2  0  0  0  0  0  0
  191.7850  176.8560  144.8790 N   0  0  0  0  0  0  0  0  0  0  0  0
  188.6140  177.4140  137.7550 C   0  0  0  0  0  0  0  0  0  0  0  0
  185.5930  177.4770  135.6730 F   0  0  0  0  0  0  0  0  0  0  0  0
  189.2380  177.3430  135.4040 C   0  0  0  0  0  3  0  0  0  0  0  0
  187.8900  177.3750  135.0400 C   0  0  0  0  0  3  0  0  0  0  0  0
  189.6000  177.3650  136.7560 C   0  0  0  0  0  3  0  0  0  0  0  0
  187.2610  177.4490  137.3770 C   0  0  0  0  0  3  0  0  0  0  0  0
  186.9000  177.4270  136.0270 C   0  0  0  0  0  0  0  0  0  0  0  0
  191.7160  175.2760  147.6470 O   0  0  0  0  0  0  0  0  0  0  0  0
  191.4220  176.5860  147.2850 C   0  0  0  0  0  0  0  0  0  0  0  0
  191.6030  177.5110  148.1210 O   0  0  0  0  0  1  0  0  0  0  0  0
  184.7770  178.3200  144.0980 C   0  0  0  0  0  2  0  0  0  0  0  0
  183.9750  179.4390  143.4640 C   0  0  0  0  0  2  0  0  0  0  0  0
  182.0800  178.8270  141.9390 C   0  0  0  0  0  0  0  0  0  0  0  0
  179.9370  178.1920  142.8550 C   0  0  0  0  0  3  0  0  0  0  0  0
  180.7590  178.4210  141.7500 C   0  0  0  0  0  3  0  0  0  0  0  0
  182.8780  179.0500  140.8640 F   0  0  0  0  0  0  0  0  0  0  0  0
  181.7450  178.7770  144.3060 N   0  0  0  0  0  0  0  0  0  0  0  0
  180.4540  178.3800  144.1410 C   0  0  0  0  0  3  0  0  0  0  0  0
  182.5650  179.0040  143.2420 C   0  0  0  0  0  0  0  0  0  0  0  0
  1  8  1  0  0  0  0
  2 12  1  1  0  0  0
  2  3  1  0  0  0  0
  3  4  1  0  0  0  0
  3  1  2  0  0  0  0
  4 18  2  0  0  0  0
  5 19  1  1  0  0  0
  5 11  1  0  0  0  0
  5 13  1  0  0  0  0
  6 15  1  0  0  0  0
  6 29  1  1  0  0  0
  7  9  1  0  0  0  0
  8 10  2  0  0  0  0
 10 27  1  0  0  0  0
 11 12  2  0  0  0  0
 13 14  2  0  0  0  0
 14  2  1  0  0  0  0
 14  9  1  0  0  0  0
 15 16  1  0  0  0  0
 16  1  1  0  0  0  0
 17  7  1  0  0  0  0
 17  6  1  0  0  0  0
 18 10  1  0  0  0  0
 20 25  1  0  0  0  0
 21 23  1  0  0  0  0
 22 21  2  0  0  0  0
 22 25  1  0  0  0  0
 23 19  2  0  0  0  0
 24 19  1  0  0  0  0
 25 24  2  0  0  0  0
 27 26  2  0  0  0  0
 27 28  1  0  0  0  0
 30 29  1  0  0  0  0
 31 37  1  0  0  0  0
 32 36  2  0  0  0  0
 33 31  2  0  0  0  0
 33 32  1  0  0  0  0
 34 31  1  0  0  0  0
 36 35  1  0  0  0  0
 37 30  1  0  0  0  0
 37 35  2  0  0  0  0
M  END
>  <MODEL>
2

>  <REMARK>
 VINA RESULT:      -8.6      3.694      6.592
  Name = 
  5 active torsions:
  status: ('A' for Active; 'I' for Inactive)
    1  A    between atoms: C_3  and  C_7
    2  A    between atoms: C_10  and  C_25
    3  A    between atoms: CA_16  and  C_21
    4  A    between atoms: C_22  and  C_25
    5  A    between atoms: C_22  and  C_36
                            x       y       z     vdW  Elec       q    Type
                         _______ _______ _______ _____ _____    ______ ____

>  <TORSDO>
F 5

$$$$
=
 OpenBabel10222421143D

 37 41  0  0  1  0  0  0  0  0999 V2000
  190.7730  176.9600  145.4700 C   0  0  0  0  0  0  0  0  0  0  0  0
  188.1940  177.1940  145.2230 C   0  0  1  0  0  3  0  0  0  0  0  0
  189.4500  176.9300  145.9990 C   0  0  0  0  0  0  0  0  0  0  0  0
  189.3130  176.7720  147.3910 C   0  0  0  0  0  3  0  0  0  0  0  0
  185.8420  177.8800  143.9140 C   0  0  2  0  0  3  0  0  0  0  0  0
  190.5520  178.1590  141.8290 C   0  0  2  0  0  3  0  0  0  0  0  0
  189.0190  176.0660  141.8030 C   0  0  0  0  0  2  0  0  0  0  0  0
  191.8620  176.8370  146.3410 C   0  0  0  0  0  3  0  0  0  0  0  0
  188.8570  175.9640  143.2180 O   0  0  0  0  0  0  0  0  0  0  0  0
  191.6610  176.6930  147.7160 C   0  0  0  0  0  0  0  0  0  0  0  0
  186.0680  178.3100  145.1810 N   0  0  0  0  0  0  0  0  0  0  0  0
  187.2080  177.9810  145.8360 C   0  0  0  0  0  3  0  0  0  0  0  0
  186.7680  177.0970  143.3010 N   0  0  0  0  0  0  0  0  0  0  0  0
  187.9270  176.7380  143.9150 C   0  0  0  0  0  0  0  0  0  0  0  0
  190.6740  178.3300  143.3490 C   0  0  0  0  0  2  0  0  0  0  0  0
  191.1240  177.0410  144.0200 C   0  0  0  0  0  2  0  0  0  0  0  0
  189.2320  177.5240  141.3680 C   0  0  0  0  0  2  0  0  0  0  0  0
  190.3940  176.6550  148.2030 N   0  0  0  0  0  0  0  0  0  0  0  0
  184.6160  178.2870  143.1970 C   0  0  0  0  0  0  0  0  0  0  0  0
  183.3730  178.5910  139.7580 F   0  0  0  0  0  0  0  0  0  0  0  0
  182.2940  179.0160  143.2270 C   0  0  0  0  0  3  0  0  0  0  0  0
  182.2650  178.9990  141.8300 C   0  0  0  0  0  3  0  0  0  0  0  0
  183.4640  178.6590  143.9090 C   0  0  0  0  0  3  0  0  0  0  0  0
  184.5740  178.2700  141.7920 C   0  0  0  0  0  3  0  0  0  0  0  0
  183.4070  178.6260  141.1130 C   0  0  0  0  0  0  0  0  0  0  0  0
  193.0450  177.6180  149.5550 O   0  0  0  0  0  1  0  0  0  0  0  0
  192.8050  176.6080  148.6300 C   0  0  0  0  0  0  0  0  0  0  0  0
  193.5660  175.6040  148.6020 O   0  0  0  0  0  0  0  0  0  0  0  0
  191.7660  177.5030  141.1840 C   0  0  0  0  0  2  0  0  0  0  0  0
  191.8090  177.8620  139.7120 C   0  0  0  0  0  2  0  0  0  0  0  0
  191.2370  175.8400  138.3450 C   0  0  0  0  0  0  0  0  0  0  0  0
  192.9900  174.4750  137.3960 C   0  0  0  0  0  3  0  0  0  0  0  0
  191.6320  174.7340  137.5910 C   0  0  0  0  0  3  0  0  0  0  0  0
  189.9160  176.0890  138.5340 F   0  0  0  0  0  0  0  0  0  0  0  0
  193.5330  176.4040  138.7010 N   0  0  0  0  0  0  0  0  0  0  0  0
  193.9370  175.3310  137.9680 C   0  0  0  0  0  3  0  0  0  0  0  0
  192.2130  176.6760  138.9020 C   0  0  0  0  0  0  0  0  0  0  0  0
  1  3  2  0  0  0  0
  1  8  1  0  0  0  0
  2 12  1  6  0  0  0
  2  3  1  0  0  0  0
  3  4  1  0  0  0  0
  4 18  2  0  0  0  0
  5 19  1  6  0  0  0
  5 11  1  0  0  0  0
  6 29  1  1  0  0  0
  6 15  1  0  0  0  0
  7  9  1  0  0  0  0
  8 10  2  0  0  0  0
  9 14  1  0  0  0  0
 10 18  1  0  0  0  0
 10 27  1  0  0  0  0
 11 12  2  0  0  0  0
 13  5  1  0  0  0  0
 13 14  2  0  0  0  0
 14  2  1  0  0  0  0
 15 16  1  0  0  0  0
 16  1  1  0  0  0  0
 17  7  1  0  0  0  0
 17  6  1  0  0  0  0
 19 23  1  0  0  0  0
 20 25  1  0  0  0  0
 21 23  2  0  0  0  0
 22 21  1  0  0  0  0
 24 19  2  0  0  0  0
 25 24  1  0  0  0  0
 25 22  2  0  0  0  0
 27 26  1  0  0  0  0
 28 27  2  0  0  0  0
 30 29  1  0  0  0  0
 31 34  1  0  0  0  0
 31 37  1  0  0  0  0
 32 33  1  0  0  0  0
 32 36  2  0  0  0  0
 33 31  2  0  0  0  0
 35 37  2  0  0  0  0
 36 35  1  0  0  0  0
 37 30  1  0  0  0  0
M  END
>  <MODEL>
3

>  <REMARK>
 VINA RESULT:      -8.5      3.604      7.594
  Name = 
  5 active torsions:
  status: ('A' for Active; 'I' for Inactive)
    1  A    between atoms: C_3  and  C_7
    2  A    between atoms: C_10  and  C_25
    3  A    between atoms: CA_16  and  C_21
    4  A    between atoms: C_22  and  C_25
    5  A    between atoms: C_22  and  C_36
                            x       y       z     vdW  Elec       q    Type
                         _______ _______ _______ _____ _____    ______ ____

>  <TORSDO>
F 5

$$$$
=
 OpenBabel10222421143D

 37 41  0  0  1  0  0  0  0  0999 V2000
  182.5100  178.5680  141.6620 C   0  0  0  0  0  0  0  0  0  0  0  0
  185.0620  178.5990  142.1630 C   0  0  1  0  0  3  0  0  0  0  0  0
  183.6200  178.7750  142.5320 C   0  0  0  0  0  0  0  0  0  0  0  0
  183.3400  179.0350  143.8870 C   0  0  0  0  0  3  0  0  0  0  0  0
  187.7400  178.0890  141.6260 C   0  0  2  0  0  3  0  0  0  0  0  0
  183.8620  177.1700  138.3510 C   0  0  2  0  0  3  0  0  0  0  0  0
  185.1540  179.4110  138.5600 C   0  0  0  0  0  2  0  0  0  0  0  0
  181.2120  178.6280  142.1810 C   0  0  0  0  0  3  0  0  0  0  0  0
  184.8960  179.6200  139.9490 O   0  0  0  0  0  0  0  0  0  0  0  0
  180.9990  178.8800  143.5390 C   0  0  0  0  0  0  0  0  0  0  0  0
  187.1990  177.7190  142.8150 N   0  0  0  0  0  0  0  0  0  0  0  0
  185.8960  177.9640  143.0950 C   0  0  0  0  0  3  0  0  0  0  0  0
  186.9640  178.7260  140.7110 N   0  0  0  0  0  0  0  0  0  0  0  0
  185.6510  178.9970  140.9440 C   0  0  0  0  0  0  0  0  0  0  0  0
  183.3270  177.0840  139.7870 C   0  0  0  0  0  2  0  0  0  0  0  0
  182.5950  178.3570  140.1860 C   0  0  0  0  0  2  0  0  0  0  0  0
  185.1990  177.9130  138.2180 C   0  0  0  0  0  2  0  0  0  0  0  0
  182.0660  179.0870  144.3530 N   0  0  0  0  0  0  0  0  0  0  0  0
  189.1500  177.7720  141.3180 C   0  0  0  0  0  0  0  0  0  0  0  0
  191.2520  176.9590  138.4230 F   0  0  0  0  0  0  0  0  0  0  0  0
  191.4620  177.5160  142.0320 C   0  0  0  0  0  3  0  0  0  0  0  0
  191.8420  177.2310  140.7170 C   0  0  0  0  0  3  0  0  0  0  0  0
  190.1220  177.7880  142.3310 C   0  0  0  0  0  3  0  0  0  0  0  0
  189.5430  177.4880  139.9990 C   0  0  0  0  0  3  0  0  0  0  0  0
  190.8810  177.2160  139.7010 C   0  0  0  0  0  0  0  0  0  0  0  0
  179.1280  177.7860  144.7460 O   0  0  0  0  0  1  0  0  0  0  0  0
  179.6400  178.9000  144.0880 C   0  0  0  0  0  0  0  0  0  0  0  0
  178.9310  179.9370  143.9920 O   0  0  0  0  0  0  0  0  0  0  0  0
  182.8310  177.6490  137.3380 C   0  0  0  0  0  2  0  0  0  0  0  0
  182.9950  176.8710  136.0470 C   0  0  0  0  0  2  0  0  0  0  0  0
  184.1740  174.6690  136.2680 C   0  0  0  0  0  0  0  0  0  0  0  0
  182.9330  172.6760  136.8360 C   0  0  0  0  0  3  0  0  0  0  0  0
  184.1440  173.2980  136.5250 C   0  0  0  0  0  3  0  0  0  0  0  0
  185.3510  175.2720  135.9640 F   0  0  0  0  0  0  0  0  0  0  0  0
  181.8130  174.7770  136.6250 N   0  0  0  0  0  0  0  0  0  0  0  0
  181.7630  173.4410  136.8800 C   0  0  0  0  0  3  0  0  0  0  0  0
  182.9830  175.4050  136.3210 C   0  0  0  0  0  0  0  0  0  0  0  0
  1  8  2  0  0  0  0
  1  3  1  0  0  0  0
  2  3  1  0  0  0  0
  2 12  1  6  0  0  0
  3  4  2  0  0  0  0
  4 18  1  0  0  0  0
  5 19  1  6  0  0  0
  5 11  1  0  0  0  0
  6 29  1  6  0  0  0
  6 15  1  0  0  0  0
  7  9  1  0  0  0  0
  8 10  1  0  0  0  0
  9 14  1  0  0  0  0
 10 27  1  0  0  0  0
 10 18  2  0  0  0  0
 11 12  2  0  0  0  0
 13 14  2  0  0  0  0
 13  5  1  0  0  0  0
 14  2  1  0  0  0  0
 15 16  1  0  0  0  0
 16  1  1  0  0  0  0
 17  6  1  0  0  0  0
 17  7  1  0  0  0  0
 19 23  1  0  0  0  0
 20 25  1  0  0  0  0
 21 23  2  0  0  0  0
 22 21  1  0  0  0  0
 24 19  2  0  0  0  0
 25 24  1  0  0  0  0
 25 22  2  0  0  0  0
 27 26  1  0  0  0  0
 28 27  2  0  0  0  0
 30 37  1  0  0  0  0
 30 29  1  0  0  0  0
 31 37  2  0  0  0  0
 31 33  1  0  0  0  0
 32 36  1  0  0  0  0
 33 32  2  0  0  0  0
 34 31  1  0  0  0  0
 35 36  2  0  0  0  0
 37 35  1  0  0  0  0
M  END
>  <MODEL>
4

>  <REMARK>
 VINA RESULT:      -8.4      4.196     10.056
  Name = 
  5 active torsions:
  status: ('A' for Active; 'I' for Inactive)
    1  A    between atoms: C_3  and  C_7
    2  A    between atoms: C_10  and  C_25
    3  A    between atoms: CA_16  and  C_21
    4  A    between atoms: C_22  and  C_25
    5  A    between atoms: C_22  and  C_36
                            x       y       z     vdW  Elec       q    Type
                         _______ _______ _______ _____ _____    ______ ____

>  <TORSDO>
F 5

$$$$
=
 OpenBabel10222421143D

 37 41  0  0  1  0  0  0  0  0999 V2000
  186.1930  178.1220  143.6720 C   0  0  0  0  0  0  0  0  0  0  0  0
  187.7450  178.0020  145.7550 C   0  0  1  0  0  3  0  0  0  0  0  0
  186.4470  178.2940  145.0630 C   0  0  0  0  0  0  0  0  0  0  0  0
  185.3560  178.6380  145.8840 C   0  0  0  0  0  3  0  0  0  0  0  0
  190.0390  177.2850  147.1480 C   0  0  2  0  0  3  0  0  0  0  0  0
  189.2890  176.4760  142.1080 C   0  0  2  0  0  3  0  0  0  0  0  0
  190.2910  178.6310  143.1520 C   0  0  0  0  0  2  0  0  0  0  0  0
  184.8910  178.2950  143.1870 C   0  0  0  0  0  3  0  0  0  0  0  0
  189.1880  178.9240  144.0110 O   0  0  0  0  0  0  0  0  0  0  0  0
  183.8470  178.6270  144.0540 C   0  0  0  0  0  0  0  0  0  0  0  0
  188.8140  177.0100  147.6630 N   0  0  0  0  0  0  0  0  0  0  0  0
  187.6850  177.3570  146.9990 C   0  0  0  0  0  3  0  0  0  0  0  0
  190.1310  177.9290  145.9550 N   0  0  0  0  0  0  0  0  0  0  0  0
  189.0280  178.2990  145.2500 C   0  0  0  0  0  0  0  0  0  0  0  0
  187.9260  176.4970  142.8140 C   0  0  0  0  0  2  0  0  0  0  0  0
  187.2250  177.8340  142.6320 C   0  0  0  0  0  2  0  0  0  0  0  0
  190.4280  177.1190  142.9140 C   0  0  0  0  0  2  0  0  0  0  0  0
  184.1070  178.7990  145.3760 N   0  0  0  0  0  0  0  0  0  0  0  0
  191.2610  176.8570  147.8610 C   0  0  0  0  0  0  0  0  0  0  0  0
  193.3830  177.9460  150.6490 F   0  0  0  0  0  0  0  0  0  0  0  0
  193.0470  175.2410  148.2100 C   0  0  0  0  0  3  0  0  0  0  0  0
  193.5470  176.0140  149.2610 C   0  0  0  0  0  3  0  0  0  0  0  0
  191.9060  175.6600  147.5140 C   0  0  0  0  0  3  0  0  0  0  0  0
  191.7710  177.6250  148.9230 C   0  0  0  0  0  3  0  0  0  0  0  0
  192.9090  177.2070  149.6170 C   0  0  0  0  0  0  0  0  0  0  0  0
  182.2390  178.9290  142.1890 O   0  0  0  0  0  0  0  0  0  0  0  0
  182.4770  178.7660  143.5500 C   0  0  0  0  0  0  0  0  0  0  0  0
  181.4990  178.7150  144.3430 O   0  0  0  0  0  1  0  0  0  0  0  0
  189.2450  176.9750  140.6700 C   0  0  0  0  0  2  0  0  0  0  0  0
  190.6290  176.8720  140.0600 C   0  0  0  0  0  2  0  0  0  0  0  0
  190.0580  177.2290  137.6450 C   0  0  0  0  0  0  0  0  0  0  0  0
  190.3830  175.4520  136.0410 C   0  0  0  0  0  3  0  0  0  0  0  0
  189.9790  176.7560  136.3350 C   0  0  0  0  0  3  0  0  0  0  0  0
  189.6640  178.4970  137.9280 F   0  0  0  0  0  0  0  0  0  0  0  0
  190.9260  175.1150  138.3450 N   0  0  0  0  0  0  0  0  0  0  0  0
  190.8570  174.6350  137.0730 C   0  0  0  0  0  3  0  0  0  0  0  0
  190.5390  176.3840  138.6530 C   0  0  0  0  0  0  0  0  0  0  0  0
  1  3  1  0  0  0  0
  2 12  1  6  0  0  0
  3  2  1  0  0  0  0
  3  4  2  0  0  0  0
  5 11  1  0  0  0  0
  5 19  1  6  0  0  0
  6 29  1  6  0  0  0
  6 15  1  0  0  0  0
  6 17  1  0  0  0  0
  7  9  1  0  0  0  0
  8  1  2  0  0  0  0
  8 10  1  0  0  0  0
  9 14  1  0  0  0  0
 10 18  2  0  0  0  0
 12 11  2  0  0  0  0
 13  5  1  0  0  0  0
 14  2  1  0  0  0  0
 14 13  2  0  0  0  0
 16 15  1  0  0  0  0
 16  1  1  0  0  0  0
 17  7  1  0  0  0  0
 18  4  1  0  0  0  0
 19 24  1  0  0  0  0
 21 22  2  0  0  0  0
 22 25  1  0  0  0  0
 23 19  2  0  0  0  0
 23 21  1  0  0  0  0
 24 25  2  0  0  0  0
 25 20  1  0  0  0  0
 26 27  2  0  0  0  0
 27 10  1  0  0  0  0
 27 28  1  0  0  0  0
 30 29  1  0  0  0  0
 31 34  1  0  0  0  0
 31 37  1  0  0  0  0
 32 33  1  0  0  0  0
 32 36  2  0  0  0  0
 33 31  2  0  0  0  0
 35 37  2  0  0  0  0
 36 35  1  0  0  0  0
 37 30  1  0  0  0  0
M  END
>  <MODEL>
5

>  <REMARK>
 VINA RESULT:      -8.4      4.005     10.309
  Name = 
  5 active torsions:
  status: ('A' for Active; 'I' for Inactive)
    1  A    between atoms: C_3  and  C_7
    2  A    between atoms: C_10  and  C_25
    3  A    between atoms: CA_16  and  C_21
    4  A    between atoms: C_22  and  C_25
    5  A    between atoms: C_22  and  C_36
                            x       y       z     vdW  Elec       q    Type
                         _______ _______ _______ _____ _____    ______ ____

>  <TORSDO>
F 5

$$$$
=
 OpenBabel10222421143D

 37 41  0  0  1  0  0  0  0  0999 V2000
  188.3200  177.9440  140.8770 C   0  0  0  0  0  0  0  0  0  0  0  0
  185.9950  178.2320  139.7460 C   0  0  1  0  0  3  0  0  0  0  0  0
  187.4870  178.0820  139.7280 C   0  0  0  0  0  0  0  0  0  0  0  0
  188.0930  177.9310  138.4670 C   0  0  0  0  0  3  0  0  0  0  0  0
  183.2190  178.2980  139.6780 C   0  0  2  0  0  3  0  0  0  0  0  0
  186.0390  177.6880  143.9540 C   0  0  2  0  0  3  0  0  0  0  0  0
  185.3230  179.9660  142.9380 C   0  0  0  0  0  2  0  0  0  0  0  0
  189.6810  177.6650  140.7060 C   0  0  0  0  0  3  0  0  0  0  0  0
  185.9050  179.7610  141.6500 O   0  0  0  0  0  0  0  0  0  0  0  0
  190.2220  177.5170  139.4270 C   0  0  0  0  0  0  0  0  0  0  0  0
  183.9060  177.5500  138.7780 N   0  0  0  0  0  0  0  0  0  0  0  0
  185.2610  177.5100  138.7940 C   0  0  0  0  0  3  0  0  0  0  0  0
  183.9020  179.0270  140.5990 N   0  0  0  0  0  0  0  0  0  0  0  0
  185.2620  179.0220  140.6560 C   0  0  0  0  0  0  0  0  0  0  0  0
  186.8330  177.1470  142.7570 C   0  0  0  0  0  2  0  0  0  0  0  0
  187.8840  178.1430  142.2910 C   0  0  0  0  0  2  0  0  0  0  0  0
  184.8910  178.6370  143.5760 C   0  0  0  0  0  2  0  0  0  0  0  0
  189.4190  177.6620  138.3420 N   0  0  0  0  0  0  0  0  0  0  0  0
  181.7410  178.2930  139.6770 C   0  0  0  0  0  0  0  0  0  0  0  0
  178.9520  179.7420  137.7850 F   0  0  0  0  0  0  0  0  0  0  0  0
  179.6320  177.4780  140.5760 C   0  0  0  0  0  3  0  0  0  0  0  0
  178.9320  178.2350  139.6330 C   0  0  0  0  0  3  0  0  0  0  0  0
  181.0310  177.5040  140.5970 C   0  0  0  0  0  3  0  0  0  0  0  0
  181.0270  179.0480  138.7320 C   0  0  0  0  0  3  0  0  0  0  0  0
  179.6310  179.0220  138.7110 C   0  0  0  0  0  0  0  0  0  0  0  0
  192.0760  176.5350  138.1010 O   0  0  0  0  0  0  0  0  0  0  0  0
  191.6400  177.1830  139.2530 C   0  0  0  0  0  0  0  0  0  0  0  0
  192.4800  177.5020  140.1350 O   0  0  0  0  0  1  0  0  0  0  0  0
  186.9110  178.2530  145.0670 C   0  0  0  0  0  2  0  0  0  0  0  0
  187.2980  177.1370  146.0180 C   0  0  0  0  0  2  0  0  0  0  0  0
  189.4290  176.9320  147.3230 C   0  0  0  0  0  0  0  0  0  0  0  0
  191.5470  176.7530  146.1760 C   0  0  0  0  0  3  0  0  0  0  0  0
  190.8180  176.8090  147.3650 C   0  0  0  0  0  3  0  0  0  0  0  0
  188.7220  176.9880  148.4800 F   0  0  0  0  0  0  0  0  0  0  0  0
  189.5130  176.9480  144.9340 N   0  0  0  0  0  0  0  0  0  0  0  0
  190.8690  176.8270  144.9550 C   0  0  0  0  0  3  0  0  0  0  0  0
  188.7820  177.0030  146.0820 C   0  0  0  0  0  0  0  0  0  0  0  0
  1 16  1  0  0  0  0
  2 12  1  1  0  0  0
  2 14  1  0  0  0  0
  3  2  1  0  0  0  0
  3  1  2  0  0  0  0
  4  3  1  0  0  0  0
  5 19  1  1  0  0  0
  5 13  1  0  0  0  0
  6 29  1  1  0  0  0
  7 17  1  0  0  0  0
  8  1  1  0  0  0  0
  9  7  1  0  0  0  0
 10  8  2  0  0  0  0
 11 12  2  0  0  0  0
 11  5  1  0  0  0  0
 13 14  2  0  0  0  0
 14  9  1  0  0  0  0
 15  6  1  0  0  0  0
 16 15  1  0  0  0  0
 17  6  1  0  0  0  0
 18  4  2  0  0  0  0
 18 10  1  0  0  0  0
 19 23  1  0  0  0  0
 20 25  1  0  0  0  0
 21 23  2  0  0  0  0
 22 21  1  0  0  0  0
 24 19  2  0  0  0  0
 25 24  1  0  0  0  0
 25 22  2  0  0  0  0
 26 27  2  0  0  0  0
 27 10  1  0  0  0  0
 27 28  1  0  0  0  0
 29 30  1  0  0  0  0
 30 37  1  0  0  0  0
 31 33  1  0  0  0  0
 31 34  1  0  0  0  0
 32 33  2  0  0  0  0
 35 36  2  0  0  0  0
 35 37  1  0  0  0  0
 36 32  1  0  0  0  0
 37 31  2  0  0  0  0
M  END
>  <MODEL>
6

>  <REMARK>
 VINA RESULT:      -8.1      2.186      3.186
  Name = 
  5 active torsions:
  status: ('A' for Active; 'I' for Inactive)
    1  A    between atoms: C_3  and  C_7
    2  A    between atoms: C_10  and  C_25
    3  A    between atoms: CA_16  and  C_21
    4  A    between atoms: C_22  and  C_25
    5  A    between atoms: C_22  and  C_36
                            x       y       z     vdW  Elec       q    Type
                         _______ _______ _______ _____ _____    ______ ____

>  <TORSDO>
F 5

$$$$
=
 OpenBabel10222421143D

 37 41  0  0  1  0  0  0  0  0999 V2000
  190.5010  177.1760  145.6960 C   0  0  0  0  0  0  0  0  0  0  0  0
  187.9200  177.4110  145.4660 C   0  0  1  0  0  3  0  0  0  0  0  0
  189.1860  177.2120  146.2450 C   0  0  0  0  0  0  0  0  0  0  0  0
  189.0700  177.1960  147.6480 C   0  0  0  0  0  3  0  0  0  0  0  0
  185.5540  177.9880  144.1310 C   0  0  2  0  0  3  0  0  0  0  0  0
  190.2320  178.0080  141.9570 C   0  0  2  0  0  3  0  0  0  0  0  0
  188.6790  175.9390  142.1640 C   0  0  0  0  0  2  0  0  0  0  0  0
  191.6030  177.1290  146.5580 C   0  0  0  0  0  3  0  0  0  0  0  0
  188.5400  175.9800  143.5840 O   0  0  0  0  0  0  0  0  0  0  0  0
  191.4220  177.1250  147.9430 C   0  0  0  0  0  0  0  0  0  0  0  0
  185.8040  178.5400  145.3450 N   0  0  0  0  0  0  0  0  0  0  0  0
  186.9520  178.2660  146.0120 C   0  0  0  0  0  3  0  0  0  0  0  0
  186.4620  177.1380  143.5850 N   0  0  0  0  0  0  0  0  0  0  0  0
  187.6290  176.8300  144.2140 C   0  0  0  0  0  0  0  0  0  0  0  0
  190.3790  178.3290  143.4510 C   0  0  0  0  0  2  0  0  0  0  0  0
  190.8290  177.1090  144.2400 C   0  0  0  0  0  2  0  0  0  0  0  0
  188.8990  177.3440  141.5820 C   0  0  0  0  0  2  0  0  0  0  0  0
  190.1630  177.1480  148.4520 N   0  0  0  0  0  0  0  0  0  0  0  0
  184.3200  178.3340  143.3950 C   0  0  0  0  0  0  0  0  0  0  0  0
  180.8520  179.3160  144.0800 F   0  0  0  0  0  0  0  0  0  0  0  0
  183.1580  178.7510  141.2980 C   0  0  0  0  0  3  0  0  0  0  0  0
  181.9890  179.0560  142.0000 C   0  0  0  0  0  3  0  0  0  0  0  0
  184.3200  178.3940  141.9920 C   0  0  0  0  0  3  0  0  0  0  0  0
  183.1400  178.6460  144.0910 C   0  0  0  0  0  3  0  0  0  0  0  0
  181.9800  179.0020  143.3980 C   0  0  0  0  0  0  0  0  0  0  0  0
  193.4560  176.0380  148.8580 O   0  0  0  0  0  0  0  0  0  0  0  0
  192.5800  177.1190  148.8440 C   0  0  0  0  0  0  0  0  0  0  0  0
  192.8050  178.1040  149.5960 O   0  0  0  0  0  1  0  0  0  0  0  0
  191.4290  177.2780  141.3630 C   0  0  0  0  0  2  0  0  0  0  0  0
  191.6800  177.7860  139.9570 C   0  0  0  0  0  2  0  0  0  0  0  0
  189.8250  177.5120  138.2920 C   0  0  0  0  0  0  0  0  0  0  0  0
  189.5320  175.4160  137.1290 C   0  0  0  0  0  3  0  0  0  0  0  0
  189.1280  176.7300  137.3710 C   0  0  0  0  0  3  0  0  0  0  0  0
  189.4300  178.7890  138.5280 F   0  0  0  0  0  0  0  0  0  0  0  0
  191.3000  175.6800  138.7160 N   0  0  0  0  0  0  0  0  0  0  0  0
  190.6330  174.9010  137.8210 C   0  0  0  0  0  3  0  0  0  0  0  0
  190.9240  176.9640  138.9670 C   0  0  0  0  0  0  0  0  0  0  0  0
  1  3  2  0  0  0  0
  1  8  1  0  0  0  0
  2 12  1  6  0  0  0
  2  3  1  0  0  0  0
  3  4  1  0  0  0  0
  4 18  2  0  0  0  0
  5 19  1  6  0  0  0
  5 11  1  0  0  0  0
  6 29  1  1  0  0  0
  6 15  1  0  0  0  0
  7  9  1  0  0  0  0
  8 10  2  0  0  0  0
  9 14  1  0  0  0  0
 10 18  1  0  0  0  0
 10 27  1  0  0  0  0
 11 12  2  0  0  0  0
 13  5  1  0  0  0  0
 13 14  2  0  0  0  0
 14  2  1  0  0  0  0
 15 16  1  0  0  0  0
 16  1  1  0  0  0  0
 17  6  1  0  0  0  0
 17  7  1  0  0  0  0
 19 24  1  0  0  0  0
 21 23  1  0  0  0  0
 21 22  2  0  0  0  0
 22 25  1  0  0  0  0
 23 19  2  0  0  0  0
 25 20  1  0  0  0  0
 25 24  2  0  0  0  0
 27 26  2  0  0  0  0
 27 28  1  0  0  0  0
 30 29  1  0  0  0  0
 31 34  1  0  0  0  0
 31 37  1  0  0  0  0
 32 33  1  0  0  0  0
 32 36  2  0  0  0  0
 33 31  2  0  0  0  0
 35 37  2  0  0  0  0
 36 35  1  0  0  0  0
 37 30  1  0  0  0  0
M  END
>  <MODEL>
7

>  <REMARK>
 VINA RESULT:      -8.0      3.672      7.573
  Name = 
  5 active torsions:
  status: ('A' for Active; 'I' for Inactive)
    1  A    between atoms: C_3  and  C_7
    2  A    between atoms: C_10  and  C_25
    3  A    between atoms: CA_16  and  C_21
    4  A    between atoms: C_22  and  C_25
    5  A    between atoms: C_22  and  C_36
                            x       y       z     vdW  Elec       q    Type
                         _______ _______ _______ _____ _____    ______ ____

>  <TORSDO>
F 5

$$$$
=
 OpenBabel10222421143D

 37 41  0  0  1  0  0  0  0  0999 V2000
  185.2760  178.3980  138.7340 C   0  0  0  0  0  0  0  0  0  0  0  0
  186.5010  178.3930  141.0280 C   0  0  1  0  0  3  0  0  0  0  0  0
  185.3400  178.6910  140.1270 C   0  0  0  0  0  0  0  0  0  0  0  0
  184.1700  179.1770  140.7410 C   0  0  0  0  0  3  0  0  0  0  0  0
  188.5150  177.6830  142.8060 C   0  0  2  0  0  3  0  0  0  0  0  0
  188.4380  176.4290  137.8020 C   0  0  2  0  0  3  0  0  0  0  0  0
  189.4320  178.6130  138.7890 C   0  0  0  0  0  2  0  0  0  0  0  0
  184.0730  178.5990  138.0460 C   0  0  0  0  0  3  0  0  0  0  0  0
  188.2420  179.0530  139.4450 O   0  0  0  0  0  0  0  0  0  0  0  0
  182.9420  179.0750  138.7150 C   0  0  0  0  0  0  0  0  0  0  0  0
  187.2120  177.5330  143.1540 N   0  0  0  0  0  0  0  0  0  0  0  0
  186.2170  177.8780  142.3010 C   0  0  0  0  0  3  0  0  0  0  0  0
  188.8230  178.2010  141.5880 N   0  0  0  0  0  0  0  0  0  0  0  0
  187.8620  178.5640  140.6960 C   0  0  0  0  0  0  0  0  0  0  0  0
  186.9930  176.5980  138.2920 C   0  0  0  0  0  2  0  0  0  0  0  0
  186.4240  177.9500  137.8890 C   0  0  0  0  0  2  0  0  0  0  0  0
  189.4930  177.0800  138.7090 C   0  0  0  0  0  2  0  0  0  0  0  0
  183.0220  179.3600  140.0400 N   0  0  0  0  0  0  0  0  0  0  0  0
  189.5870  177.2570  143.7280 C   0  0  0  0  0  0  0  0  0  0  0  0
  190.4110  177.4090  147.3010 F   0  0  0  0  0  0  0  0  0  0  0  0
  191.6820  176.0880  144.1360 C   0  0  0  0  0  3  0  0  0  0  0  0
  191.5940  176.3930  145.4960 C   0  0  0  0  0  3  0  0  0  0  0  0
  190.6810  176.5160  143.2550 C   0  0  0  0  0  3  0  0  0  0  0  0
  189.5070  177.5560  145.0990 C   0  0  0  0  0  3  0  0  0  0  0  0
  190.5060  177.1290  145.9780 C   0  0  0  0  0  0  0  0  0  0  0  0
  181.5530  178.8520  136.6720 O   0  0  0  0  0  0  0  0  0  0  0  0
  181.6720  179.2440  138.0010 C   0  0  0  0  0  0  0  0  0  0  0  0
  180.6690  179.7220  138.5940 O   0  0  0  0  0  1  0  0  0  0  0  0
  188.6360  176.7860  136.3350 C   0  0  0  0  0  2  0  0  0  0  0  0
  189.1850  175.5820  135.5950 C   0  0  0  0  0  2  0  0  0  0  0  0
  188.7010  173.3440  136.6180 C   0  0  0  0  0  0  0  0  0  0  0  0
  186.6180  172.2160  136.1480 C   0  0  0  0  0  3  0  0  0  0  0  0
  187.8570  172.2480  136.7910 C   0  0  0  0  0  3  0  0  0  0  0  0
  189.9060  173.3730  137.2420 F   0  0  0  0  0  0  0  0  0  0  0  0
  187.0820  174.3500  135.1740 N   0  0  0  0  0  0  0  0  0  0  0  0
  186.2440  173.2890  135.3320 C   0  0  0  0  0  3  0  0  0  0  0  0
  188.2940  174.4020  135.7930 C   0  0  0  0  0  0  0  0  0  0  0  0
  1  3  1  0  0  0  0
  2 12  1  6  0  0  0
  3  4  2  0  0  0  0
  3  2  1  0  0  0  0
  5 11  1  0  0  0  0
  5 19  1  6  0  0  0
  6 29  1  6  0  0  0
  6 15  1  0  0  0  0
  6 17  1  0  0  0  0
  7  9  1  0  0  0  0
  8 10  1  0  0  0  0
  8  1  2  0  0  0  0
  9 14  1  0  0  0  0
 10 18  2  0  0  0  0
 12 11  2  0  0  0  0
 13  5  1  0  0  0  0
 14  2  1  0  0  0  0
 14 13  2  0  0  0  0
 16 15  1  0  0  0  0
 16  1  1  0  0  0  0
 17  7  1  0  0  0  0
 18  4  1  0  0  0  0
 19 24  1  0  0  0  0
 21 22  2  0  0  0  0
 22 25  1  0  0  0  0
 23 19  2  0  0  0  0
 23 21  1  0  0  0  0
 24 25  2  0  0  0  0
 25 20  1  0  0  0  0
 26 27  2  0  0  0  0
 27 28  1  0  0  0  0
 27 10  1  0  0  0  0
 30 37  1  0  0  0  0
 30 29  1  0  0  0  0
 31 33  1  0  0  0  0
 31 34  1  0  0  0  0
 32 33  2  0  0  0  0
 35 36  2  0  0  0  0
 35 37  1  0  0  0  0
 36 32  1  0  0  0  0
 37 31  2  0  0  0  0
M  END
>  <MODEL>
8

>  <REMARK>
 VINA RESULT:      -7.8      3.322      9.083
  Name = 
  5 active torsions:
  status: ('A' for Active; 'I' for Inactive)
    1  A    between atoms: C_3  and  C_7
    2  A    between atoms: C_10  and  C_25
    3  A    between atoms: CA_16  and  C_21
    4  A    between atoms: C_22  and  C_25
    5  A    between atoms: C_22  and  C_36
                            x       y       z     vdW  Elec       q    Type
                         _______ _______ _______ _____ _____    ______ ____

>  <TORSDO>
F 5

$$$$
=
 OpenBabel10222421143D

 37 41  0  0  1  0  0  0  0  0999 V2000
  185.2730  178.3870  138.7640 C   0  0  0  0  0  0  0  0  0  0  0  0
  186.5100  178.3840  141.0520 C   0  0  1  0  0  3  0  0  0  0  0  0
  185.3460  178.6860  140.1550 C   0  0  0  0  0  0  0  0  0  0  0  0
  184.1830  179.1830  140.7730 C   0  0  0  0  0  3  0  0  0  0  0  0
  188.5260  177.6680  142.8240 C   0  0  2  0  0  3  0  0  0  0  0  0
  188.4160  176.3900  137.8270 C   0  0  2  0  0  3  0  0  0  0  0  0
  189.4310  178.5720  138.7980 C   0  0  0  0  0  2  0  0  0  0  0  0
  184.0680  178.5930  138.0810 C   0  0  0  0  0  3  0  0  0  0  0  0
  188.2470  179.0240  139.4570 O   0  0  0  0  0  0  0  0  0  0  0  0
  182.9440  179.0800  138.7530 C   0  0  0  0  0  0  0  0  0  0  0  0
  187.2240  177.5290  143.1790 N   0  0  0  0  0  0  0  0  0  0  0  0
  186.2280  177.8770  142.3290 C   0  0  0  0  0  3  0  0  0  0  0  0
  188.8320  178.1770  141.6020 N   0  0  0  0  0  0  0  0  0  0  0  0
  187.8700  178.5430  140.7130 C   0  0  0  0  0  0  0  0  0  0  0  0
  186.9750  176.5720  138.3230 C   0  0  0  0  0  2  0  0  0  0  0  0
  186.4130  177.9260  137.9160 C   0  0  0  0  0  2  0  0  0  0  0  0
  189.4800  177.0380  138.7250 C   0  0  0  0  0  2  0  0  0  0  0  0
  183.0330  179.3710  140.0770 N   0  0  0  0  0  0  0  0  0  0  0  0
  189.6000  177.2390  143.7430 C   0  0  0  0  0  0  0  0  0  0  0  0
  190.4570  177.4290  147.3060 F   0  0  0  0  0  0  0  0  0  0  0  0
  191.6810  176.0430  144.1500 C   0  0  0  0  0  3  0  0  0  0  0  0
  191.6090  176.3690  145.5070 C   0  0  0  0  0  3  0  0  0  0  0  0
  190.6790  176.4730  143.2710 C   0  0  0  0  0  3  0  0  0  0  0  0
  189.5370  177.5580  145.1110 C   0  0  0  0  0  3  0  0  0  0  0  0
  190.5360  177.1290  145.9870 C   0  0  0  0  0  0  0  0  0  0  0  0
  180.5480  179.7220  138.7190 O   0  0  0  0  0  1  0  0  0  0  0  0
  181.6720  179.2550  138.0450 C   0  0  0  0  0  0  0  0  0  0  0  0
  181.5920  179.0070  136.8120 O   0  0  0  0  0  0  0  0  0  0  0  0
  188.6100  176.7380  136.3580 C   0  0  0  0  0  2  0  0  0  0  0  0
  189.0000  175.4890  135.5920 C   0  0  0  0  0  2  0  0  0  0  0  0
  190.7830  174.1020  136.6800 C   0  0  0  0  0  0  0  0  0  0  0  0
  193.1160  174.5730  136.2640 C   0  0  0  0  0  3  0  0  0  0  0  0
  192.1310  173.8110  136.8950 C   0  0  0  0  0  3  0  0  0  0  0  0
  189.8270  173.3610  137.2960 F   0  0  0  0  0  0  0  0  0  0  0  0
  191.4140  175.8940  135.2280 N   0  0  0  0  0  0  0  0  0  0  0  0
  192.7330  175.6240  135.4250 C   0  0  0  0  0  3  0  0  0  0  0  0
  190.4360  175.1620  135.8330 C   0  0  0  0  0  0  0  0  0  0  0  0
  1  3  1  0  0  0  0
  2 12  1  6  0  0  0
  3  4  2  0  0  0  0
  3  2  1  0  0  0  0
  5 11  1  0  0  0  0
  5 19  1  6  0  0  0
  6 29  1  6  0  0  0
  6 15  1  0  0  0  0
  6 17  1  0  0  0  0
  7  9  1  0  0  0  0
  8 10  1  0  0  0  0
  8  1  2  0  0  0  0
  9 14  1  0  0  0  0
 10 18  2  0  0  0  0
 12 11  2  0  0  0  0
 13  5  1  0  0  0  0
 14  2  1  0  0  0  0
 14 13  2  0  0  0  0
 16 15  1  0  0  0  0
 16  1  1  0  0  0  0
 17  7  1  0  0  0  0
 18  4  1  0  0  0  0
 19 24  1  0  0  0  0
 21 22  2  0  0  0  0
 22 25  1  0  0  0  0
 23 19  2  0  0  0  0
 23 21  1  0  0  0  0
 24 25  2  0  0  0  0
 25 20  1  0  0  0  0
 27 26  1  0  0  0  0
 27 10  1  0  0  0  0
 28 27  2  0  0  0  0
 30 37  1  0  0  0  0
 30 29  1  0  0  0  0
 31 33  1  0  0  0  0
 31 34  1  0  0  0  0
 32 33  2  0  0  0  0
 35 36  2  0  0  0  0
 35 37  1  0  0  0  0
 36 32  1  0  0  0  0
 37 31  2  0  0  0  0
M  END
>  <MODEL>
9

>  <REMARK>
 VINA RESULT:      -7.8      3.155      9.106
  Name = 
  5 active torsions:
  status: ('A' for Active; 'I' for Inactive)
    1  A    between atoms: C_3  and  C_7
    2  A    between atoms: C_10  and  C_25
    3  A    between atoms: CA_16  and  C_21
    4  A    between atoms: C_22  and  C_25
    5  A    between atoms: C_22  and  C_36
                            x       y       z     vdW  Elec       q    Type
                         _______ _______ _______ _____ _____    ______ ____

>  <TORSDO>
F 5

$$$$
