=
 OpenBabel10222416133D

 44 47  0  0  1  0  0  0  0  0999 V2000
  189.0580  178.1140  142.2780 C   0  0  1  0  0  3  0  0  0  0  0  0
  188.3950  178.3200  138.1250 C   0  0  0  0  0  3  0  0  0  0  0  0
  189.9850  177.2350  141.4370 C   0  0  2  0  0  3  0  0  0  0  0  0
  190.2120  176.6440  137.6270 C   0  0  2  0  0  3  0  0  0  0  0  0
  191.5290  176.2320  136.5030 Cl  0  0  0  0  0  0  0  0  0  0  0  0
  189.4450  177.8790  137.1320 C   0  0  1  0  0  3  0  0  0  0  0  0
  189.6950  177.3290  139.9800 C   0  0  2  0  0  0  0  0  0  0  0  0
  188.5220  178.1020  139.4390 C   0  0  0  0  0  3  0  0  0  0  0  0
  189.2460  176.2450  140.7500 O   0  0  0  0  0  0  0  0  0  0  0  0
  190.7990  176.9050  139.0140 C   0  0  0  0  0  2  0  0  0  0  0  0
  188.8230  177.5980  135.8410 N   0  0  0  0  0  2  0  0  0  0  0  0
  185.8330  175.8720  134.5940 C   0  0  1  0  0  3  0  0  0  0  0  0
  184.4350  175.3070  134.7800 C   0  0  0  0  0  1  0  0  0  0  0  0
  188.0850  175.4610  134.9490 C   0  0  0  0  0  2  0  0  0  0  0  0
  187.8750  176.5050  136.0280 C   0  0  2  0  0  3  0  0  0  0  0  0
  186.1700  177.1190  135.8720 S   0  0  0  0  0  0  0  0  0  0  0  0
  186.8150  174.8030  134.7000 N   0  0  0  0  0  2  0  0  0  0  0  0
  188.1990  176.3850  143.7200 O   0  0  0  0  0  1  0  0  0  0  0  0
  187.8420  177.3210  142.7440 C   0  0  1  0  0  3  0  0  0  0  0  0
  186.7720  178.2520  143.2850 C   0  0  0  0  0  2  0  0  0  0  0  0
  185.7240  178.4800  142.2430 C   0  0  0  0  0  0  0  0  0  0  0  0
  184.7080  179.2470  140.4940 C   0  0  0  0  0  0  0  0  0  0  0  0
  183.8240  178.1360  140.9560 C   0  0  1  0  0  3  0  0  0  0  0  0
  185.8530  179.3840  141.3260 N   0  0  0  0  0  0  0  0  0  0  0  0
  184.5070  179.9580  139.4720 O   0  0  0  0  0  0  0  0  0  0  0  0
  184.5510  177.6650  142.1320 N   0  0  0  0  0  2  0  0  0  0  0  0
  181.5760  177.9340  139.2050 O   0  0  0  0  0  1  0  0  0  0  0  0
  182.4510  178.6030  141.3540 C   0  0  0  0  0  0  0  0  0  0  0  0
  182.2180  178.9700  142.5440 O   0  0  0  0  0  0  0  0  0  0  0  0
  181.3860  178.5580  140.3940 N   0  0  0  0  0  0  0  0  0  0  0  0
  180.0690  179.0960  140.7070 C   0  0  0  0  0  2  0  0  0  0  0  0
  179.6340  181.3250  141.4280 O   0  0  0  0  0  1  0  0  0  0  0  0
  180.5230  181.1260  139.3230 O   0  0  0  0  0  0  0  0  0  0  0  0
  180.0510  180.5730  140.5070 C   0  0  0  0  0  0  0  0  0  0  0  0
  189.7630  178.6230  143.3750 O   0  0  0  0  0  0  0  0  0  0  0  0
  191.1110  178.3730  143.0940 C   0  0  0  0  0  2  0  0  0  0  0  0
  191.8190  177.8800  144.3410 C   0  0  0  0  0  2  0  0  0  0  0  0
  190.9420  176.7180  146.3110 C   0  0  0  0  0  3  0  0  0  0  0  0
  190.8510  177.7440  145.4660 C   0  0  0  0  0  3  0  0  0  0  0  0
  189.9980  176.5800  147.4640 C   0  0  0  0  0  2  0  0  0  0  0  0
  189.4750  177.9440  147.8770 C   0  0  0  0  0  2  0  0  0  0  0  0
  187.7670  177.8050  148.4740 S   0  0  0  0  0  0  0  0  0  0  0  0
  187.0520  178.1030  146.8290 C   0  0  0  0  0  2  0  0  0  0  0  0
  185.6040  178.5360  146.9650 C   0  0  0  0  0  1  0  0  0  0  0  0
  1 19  1  0  0  0  0
  1 35  1  1  0  0  0
  2  8  2  0  0  0  0
  3  1  1  1  0  0  0
  4  5  1  6  0  0  0
  4 10  1  0  0  0  0
  6 11  1  6  0  0  0
  6  4  1  0  0  0  0
  6  2  1  0  0  0  0
  7 10  1  6  0  0  0
  7  9  1  0  0  0  0
  7  3  1  0  0  0  0
  8  7  1  0  0  0  0
  9  3  1  0  0  0  0
 12 17  1  0  0  0  0
 12 13  1  1  0  0  0
 12 16  1  0  0  0  0
 14 15  1  0  0  0  0
 15 11  1  6  0  0  0
 16 15  1  0  0  0  0
 17 14  1  0  0  0  0
 19 20  1  0  0  0  0
 19 18  1  1  0  0  0
 21 20  1  0  0  0  0
 22 23  1  0  0  0  0
 22 24  1  0  0  0  0
 23 28  1  1  0  0  0
 23 26  1  0  0  0  0
 24 21  2  0  0  0  0
 25 22  2  0  0  0  0
 26 21  1  0  0  0  0
 27 30  1  0  0  0  0
 28 29  2  0  0  0  0
 30 31  1  0  0  0  0
 30 28  1  0  0  0  0
 33 34  2  0  0  0  0
 34 31  1  0  0  0  0
 34 32  1  0  0  0  0
 36 35  1  0  0  0  0
 36 37  1  0  0  0  0
 37 39  1  0  0  0  0
 38 40  1  0  0  0  0
 39 38  2  0  0  0  0
 40 41  1  0  0  0  0
 41 42  1  0  0  0  0
 43 44  1  0  0  0  0
 43 42  1  0  0  0  0
M  END
>  <MODEL>
1

>  <REMARK>
 VINA RESULT:      -7.1      0.000      0.000
  Name = 
  17 active torsions:
  status: ('A' for Active; 'I' for Inactive)
    1  A    between atoms: C_1  and  C_29
    2  A    between atoms: C_1  and  O_31
    3  A    between atoms: C_2  and  C_24
    4  A    between atoms: C_4  and  C_5
    5  A    between atoms: C_4  and  O_31
    6  A    between atoms: C_4  and  C_35
    7  A    between atoms: C_6  and  C_26
    8  A    between atoms: N_8  and  C_18
    9  A    between atoms: N_8  and  C_22
   10  A    between atoms: C_12  and  N_37
   11  A    between atoms: C_12  and  C_38
   12  A    between atoms: C_16  and  C_17
   13  A    between atoms: C_19  and  C_29
   14  A    between atoms: C_24  and  C_43
   15  A    between atoms: C_26  and  C_35
   16  A    between atoms: C_27  and  S_44
   17  A    between atoms: C_43  and  S_44
                            x       y       z     vdW  Elec       q    Type
                         _______ _______ _______ _____ _____    ______ ____

>  <TORSDO>
F 17

$$$$
=
 OpenBabel10222416133D

 44 47  0  0  1  0  0  0  0  0999 V2000
  189.5800  177.3270  139.0710 C   0  0  1  0  0  3  0  0  0  0  0  0
  193.1620  175.4840  137.8480 C   0  0  0  0  0  3  0  0  0  0  0  0
  189.4080  176.2190  138.0310 C   0  0  2  0  0  3  0  0  0  0  0  0
  191.9700  173.9570  136.2330 C   0  0  2  0  0  3  0  0  0  0  0  0
  191.9300  172.3070  135.5670 Cl  0  0  0  0  0  0  0  0  0  0  0  0
  193.1680  174.1290  137.1790 C   0  0  1  0  0  3  0  0  0  0  0  0
  190.7040  175.6160  137.6180 C   0  0  2  0  0  0  0  0  0  0  0  0
  192.0300  176.1550  138.0850 C   0  0  0  0  0  3  0  0  0  0  0  0
  190.0490  176.5670  136.8210 O   0  0  0  0  0  0  0  0  0  0  0  0
  190.6640  174.2300  136.9780 C   0  0  0  0  0  2  0  0  0  0  0  0
  194.4170  173.9420  136.4440 N   0  0  0  0  0  2  0  0  0  0  0  0
  197.9510  174.2800  137.3760 C   0  0  1  0  0  3  0  0  0  0  0  0
  199.0520  174.5290  138.3940 C   0  0  0  0  0  1  0  0  0  0  0  0
  196.3790  175.3120  136.0230 C   0  0  0  0  0  2  0  0  0  0  0  0
  195.4390  174.7640  137.0790 C   0  0  2  0  0  3  0  0  0  0  0  0
  196.4310  173.7600  138.2260 S   0  0  0  0  0  0  0  0  0  0  0  0
  197.6850  175.5000  136.6300 N   0  0  0  0  0  2  0  0  0  0  0  0
  189.1140  179.4110  137.9550 O   0  0  0  0  0  1  0  0  0  0  0  0
  188.5830  178.4540  138.8250 C   0  0  1  0  0  3  0  0  0  0  0  0
  187.2840  177.9050  138.2630 C   0  0  0  0  0  2  0  0  0  0  0  0
  186.1370  178.3460  139.1140 C   0  0  0  0  0  0  0  0  0  0  0  0
  185.0100  179.1150  140.7930 C   0  0  0  0  0  0  0  0  0  0  0  0
  183.9950  179.0160  139.7030 C   0  0  1  0  0  3  0  0  0  0  0  0
  186.2940  178.6980  140.3500 N   0  0  0  0  0  0  0  0  0  0  0  0
  184.7870  179.5510  141.9550 O   0  0  0  0  0  0  0  0  0  0  0  0
  184.8050  178.4910  138.6070 N   0  0  0  0  0  2  0  0  0  0  0  0
  181.2640  179.8470  139.8360 O   0  0  0  0  0  1  0  0  0  0  0  0
  182.8790  178.0610  140.0210 C   0  0  0  0  0  0  0  0  0  0  0  0
  183.1020  176.8160  140.0970 O   0  0  0  0  0  0  0  0  0  0  0  0
  181.5420  178.5610  140.1640 N   0  0  0  0  0  0  0  0  0  0  0  0
  180.4510  177.6850  140.5730 C   0  0  0  0  0  2  0  0  0  0  0  0
  179.7580  177.7180  142.8520 O   0  0  0  0  0  1  0  0  0  0  0  0
  179.0070  179.4650  141.5680 O   0  0  0  0  0  0  0  0  0  0  0  0
  179.7140  178.2780  141.7250 C   0  0  0  0  0  0  0  0  0  0  0  0
  189.4120  176.7940  140.3550 O   0  0  0  0  0  0  0  0  0  0  0  0
  189.7970  177.8170  141.2290 C   0  0  0  0  0  2  0  0  0  0  0  0
  191.0060  177.3840  142.0360 C   0  0  0  0  0  2  0  0  0  0  0  0
  189.5530  177.6300  143.9920 C   0  0  0  0  0  3  0  0  0  0  0  0
  190.7850  177.6560  143.4850 C   0  0  0  0  0  3  0  0  0  0  0  0
  189.3130  177.8690  145.4500 C   0  0  0  0  0  2  0  0  0  0  0  0
  187.8700  177.5540  145.8010 C   0  0  0  0  0  2  0  0  0  0  0  0
  186.8280  177.6540  144.3200 S   0  0  0  0  0  0  0  0  0  0  0  0
  185.4000  178.3120  145.2350 C   0  0  0  0  0  2  0  0  0  0  0  0
  185.8550  178.8760  146.5680 C   0  0  0  0  0  1  0  0  0  0  0  0
  1 35  1  1  0  0  0
  2  8  2  0  0  0  0
  3  1  1  1  0  0  0
  4  5  1  1  0  0  0
  4 10  1  0  0  0  0
  4  6  1  0  0  0  0
  6 11  1  6  0  0  0
  6  2  1  0  0  0  0
  7 10  1  6  0  0  0
  7  3  1  0  0  0  0
  7  8  1  0  0  0  0
  9  7  1  0  0  0  0
  9  3  1  0  0  0  0
 12 16  1  0  0  0  0
 12 13  1  1  0  0  0
 14 17  1  0  0  0  0
 14 15  1  0  0  0  0
 15 11  1  6  0  0  0
 15 16  1  0  0  0  0
 17 12  1  0  0  0  0
 19 18  1  6  0  0  0
 19  1  1  0  0  0  0
 20 19  1  0  0  0  0
 20 21  1  0  0  0  0
 21 24  2  0  0  0  0
 22 25  2  0  0  0  0
 23 28  1  1  0  0  0
 23 22  1  0  0  0  0
 24 22  1  0  0  0  0
 26 21  1  0  0  0  0
 26 23  1  0  0  0  0
 27 30  1  0  0  0  0
 28 29  2  0  0  0  0
 28 30  1  0  0  0  0
 30 31  1  0  0  0  0
 31 34  1  0  0  0  0
 33 34  2  0  0  0  0
 34 32  1  0  0  0  0
 35 36  1  0  0  0  0
 36 37  1  0  0  0  0
 37 39  1  0  0  0  0
 38 40  1  0  0  0  0
 39 38  2  0  0  0  0
 40 41  1  0  0  0  0
 42 43  1  0  0  0  0
 42 41  1  0  0  0  0
 43 44  1  0  0  0  0
M  END
>  <MODEL>
2

>  <REMARK>
 VINA RESULT:      -6.9      3.812      5.259
  Name = 
  17 active torsions:
  status: ('A' for Active; 'I' for Inactive)
    1  A    between atoms: C_1  and  C_29
    2  A    between atoms: C_1  and  O_31
    3  A    between atoms: C_2  and  C_24
    4  A    between atoms: C_4  and  C_5
    5  A    between atoms: C_4  and  O_31
    6  A    between atoms: C_4  and  C_35
    7  A    between atoms: C_6  and  C_26
    8  A    between atoms: N_8  and  C_18
    9  A    between atoms: N_8  and  C_22
   10  A    between atoms: C_12  and  N_37
   11  A    between atoms: C_12  and  C_38
   12  A    between atoms: C_16  and  C_17
   13  A    between atoms: C_19  and  C_29
   14  A    between atoms: C_24  and  C_43
   15  A    between atoms: C_26  and  C_35
   16  A    between atoms: C_27  and  S_44
   17  A    between atoms: C_43  and  S_44
                            x       y       z     vdW  Elec       q    Type
                         _______ _______ _______ _____ _____    ______ ____

>  <TORSDO>
F 17

$$$$
=
 OpenBabel10222416133D

 44 47  0  0  1  0  0  0  0  0999 V2000
  189.2130  177.1940  138.1820 C   0  0  1  0  0  3  0  0  0  0  0  0
  192.9790  175.3920  137.6390 C   0  0  0  0  0  3  0  0  0  0  0  0
  189.2150  175.9800  137.2510 C   0  0  2  0  0  3  0  0  0  0  0  0
  192.0600  173.6600  136.0530 C   0  0  2  0  0  3  0  0  0  0  0  0
  192.1570  171.9510  135.5660 Cl  0  0  0  0  0  0  0  0  0  0  0  0
  193.1140  173.9780  137.1240 C   0  0  1  0  0  3  0  0  0  0  0  0
  190.5720  175.3940  137.0780 C   0  0  2  0  0  0  0  0  0  0  0  0
  191.8060  176.0340  137.6540 C   0  0  0  0  0  3  0  0  0  0  0  0
  190.0020  176.2320  136.1050 O   0  0  0  0  0  0  0  0  0  0  0  0
  190.6580  173.9510  136.5880 C   0  0  0  0  0  2  0  0  0  0  0  0
  194.4550  173.7700  136.5820 N   0  0  0  0  0  2  0  0  0  0  0  0
  197.7780  174.4370  137.9910 C   0  0  1  0  0  3  0  0  0  0  0  0
  198.6900  174.9230  139.1060 C   0  0  0  0  0  1  0  0  0  0  0  0
  196.4410  175.1260  136.2290 C   0  0  0  0  0  2  0  0  0  0  0  0
  195.3460  174.7430  137.2050 C   0  0  2  0  0  3  0  0  0  0  0  0
  196.1450  174.0170  138.6680 S   0  0  0  0  0  0  0  0  0  0  0  0
  197.6240  175.4840  136.9910 N   0  0  0  0  0  2  0  0  0  0  0  0
  188.5240  178.8260  136.5480 O   0  0  0  0  0  1  0  0  0  0  0  0
  188.1580  178.2040  137.7460 C   0  0  1  0  0  3  0  0  0  0  0  0
  186.8060  177.5300  137.5890 C   0  0  0  0  0  2  0  0  0  0  0  0
  185.7970  178.2100  138.4580 C   0  0  0  0  0  0  0  0  0  0  0  0
  184.2540  179.5730  139.1230 C   0  0  0  0  0  0  0  0  0  0  0  0
  184.3450  178.5750  140.2300 C   0  0  1  0  0  3  0  0  0  0  0  0
  185.1650  179.2720  138.0740 N   0  0  0  0  0  0  0  0  0  0  0  0
  183.4480  180.5420  139.0830 O   0  0  0  0  0  0  0  0  0  0  0  0
  185.3970  177.6930  139.7320 N   0  0  0  0  0  2  0  0  0  0  0  0
  182.7520  178.3600  142.5920 O   0  0  0  0  0  1  0  0  0  0  0  0
  184.7620  179.1850  141.5390 C   0  0  0  0  0  0  0  0  0  0  0  0
  185.9150  179.6930  141.6720 O   0  0  0  0  0  0  0  0  0  0  0  0
  183.8730  179.1190  142.6630 N   0  0  0  0  0  0  0  0  0  0  0  0
  184.1960  179.7870  143.9180 C   0  0  0  0  0  2  0  0  0  0  0  0
  185.6310  178.0090  144.5980 O   0  0  0  0  0  0  0  0  0  0  0  0
  184.1760  178.7710  146.2010 O   0  0  0  0  0  1  0  0  0  0  0  0
  184.7010  178.8000  144.9150 C   0  0  0  0  0  0  0  0  0  0  0  0
  188.9790  176.7760  139.4970 O   0  0  0  0  0  0  0  0  0  0  0  0
  189.1070  177.9300  140.2770 C   0  0  0  0  0  2  0  0  0  0  0  0
  188.6400  177.6540  141.6940 C   0  0  0  0  0  2  0  0  0  0  0  0
  190.1180  178.1900  143.5720 C   0  0  0  0  0  3  0  0  0  0  0  0
  189.8070  177.3620  142.5750 C   0  0  0  0  0  3  0  0  0  0  0  0
  191.2670  177.9000  144.4860 C   0  0  0  0  0  2  0  0  0  0  0  0
  190.7980  177.0690  145.6670 C   0  0  0  0  0  2  0  0  0  0  0  0
  189.0830  177.4860  146.0860 S   0  0  0  0  0  0  0  0  0  0  0  0
  189.4430  177.6620  147.8600 C   0  0  0  0  0  2  0  0  0  0  0  0
  188.1720  178.0030  148.6140 C   0  0  0  0  0  1  0  0  0  0  0  0
  1 35  1  1  0  0  0
  2  8  2  0  0  0  0
  3  1  1  1  0  0  0
  4  5  1  1  0  0  0
  4 10  1  0  0  0  0
  4  6  1  0  0  0  0
  6 11  1  6  0  0  0
  6  2  1  0  0  0  0
  7 10  1  6  0  0  0
  7  3  1  0  0  0  0
  7  8  1  0  0  0  0
  9  7  1  0  0  0  0
  9  3  1  0  0  0  0
 12 16  1  0  0  0  0
 12 13  1  1  0  0  0
 14 17  1  0  0  0  0
 14 15  1  0  0  0  0
 15 11  1  6  0  0  0
 15 16  1  0  0  0  0
 17 12  1  0  0  0  0
 19 18  1  6  0  0  0
 19  1  1  0  0  0  0
 20 19  1  0  0  0  0
 20 21  1  0  0  0  0
 21 26  1  0  0  0  0
 22 23  1  0  0  0  0
 23 28  1  1  0  0  0
 24 21  2  0  0  0  0
 24 22  1  0  0  0  0
 25 22  2  0  0  0  0
 26 23  1  0  0  0  0
 27 30  1  0  0  0  0
 28 29  2  0  0  0  0
 28 30  1  0  0  0  0
 30 31  1  0  0  0  0
 31 34  1  0  0  0  0
 32 34  2  0  0  0  0
 34 33  1  0  0  0  0
 35 36  1  0  0  0  0
 36 37  1  0  0  0  0
 37 39  1  0  0  0  0
 38 40  1  0  0  0  0
 39 38  2  0  0  0  0
 40 41  1  0  0  0  0
 41 42  1  0  0  0  0
 42 43  1  0  0  0  0
 43 44  1  0  0  0  0
M  END
>  <MODEL>
3

>  <REMARK>
 VINA RESULT:      -6.7      3.878      5.840
  Name = 
  17 active torsions:
  status: ('A' for Active; 'I' for Inactive)
    1  A    between atoms: C_1  and  C_29
    2  A    between atoms: C_1  and  O_31
    3  A    between atoms: C_2  and  C_24
    4  A    between atoms: C_4  and  C_5
    5  A    between atoms: C_4  and  O_31
    6  A    between atoms: C_4  and  C_35
    7  A    between atoms: C_6  and  C_26
    8  A    between atoms: N_8  and  C_18
    9  A    between atoms: N_8  and  C_22
   10  A    between atoms: C_12  and  N_37
   11  A    between atoms: C_12  and  C_38
   12  A    between atoms: C_16  and  C_17
   13  A    between atoms: C_19  and  C_29
   14  A    between atoms: C_24  and  C_43
   15  A    between atoms: C_26  and  C_35
   16  A    between atoms: C_27  and  S_44
   17  A    between atoms: C_43  and  S_44
                            x       y       z     vdW  Elec       q    Type
                         _______ _______ _______ _____ _____    ______ ____

>  <TORSDO>
F 17

$$$$
=
 OpenBabel10222416133D

 44 47  0  0  1  0  0  0  0  0999 V2000
  185.7440  178.4090  140.5230 C   0  0  1  0  0  3  0  0  0  0  0  0
  181.9450  176.7740  139.7320 C   0  0  0  0  0  3  0  0  0  0  0  0
  184.9410  179.1450  139.4490 C   0  0  2  0  0  3  0  0  0  0  0  0
  181.4430  178.4880  137.9510 C   0  0  2  0  0  3  0  0  0  0  0  0
  180.1680  179.5170  137.2560 Cl  0  0  0  0  0  0  0  0  0  0  0  0
  180.8650  177.5760  139.0450 C   0  0  1  0  0  3  0  0  0  0  0  0
  183.6160  178.5150  139.1940 C   0  0  2  0  0  0  0  0  0  0  0  0
  183.2030  177.2170  139.8360 C   0  0  0  0  0  3  0  0  0  0  0  0
  184.7080  178.3040  138.3370 O   0  0  0  0  0  0  0  0  0  0  0  0
  182.5450  179.3750  138.5290 C   0  0  0  0  0  2  0  0  0  0  0  0
  179.8660  176.6790  138.4720 N   0  0  0  0  0  2  0  0  0  0  0  0
  179.5370  173.3000  137.0750 C   0  0  1  0  0  3  0  0  0  0  0  0
  179.7630  171.7980  137.1300 C   0  0  0  0  0  1  0  0  0  0  0  0
  180.5320  175.3280  136.5650 C   0  0  0  0  0  2  0  0  0  0  0  0
  180.5420  175.4490  138.0760 C   0  0  2  0  0  3  0  0  0  0  0  0
  179.6640  174.0040  138.7460 S   0  0  0  0  0  0  0  0  0  0  0  0
  180.5400  173.9180  136.2210 N   0  0  0  0  0  2  0  0  0  0  0  0
  187.3570  178.5970  138.7420 O   0  0  0  0  0  1  0  0  0  0  0  0
  187.1920  178.2270  140.0810 C   0  0  1  0  0  3  0  0  0  0  0  0
  188.1250  179.0380  140.9620 C   0  0  0  0  0  2  0  0  0  0  0  0
  188.8400  178.1320  141.9130 C   0  0  0  0  0  0  0  0  0  0  0  0
  189.8360  176.3930  142.7260 C   0  0  0  0  0  0  0  0  0  0  0  0
  190.0620  177.4440  143.7610 C   0  0  1  0  0  3  0  0  0  0  0  0
  189.0920  176.8960  141.6240 N   0  0  0  0  0  0  0  0  0  0  0  0
  190.2780  175.2120  142.7810 O   0  0  0  0  0  0  0  0  0  0  0  0
  189.3680  178.5830  143.1650 N   0  0  0  0  0  2  0  0  0  0  0  0
  191.5960  177.3170  146.1680 O   0  0  0  0  0  1  0  0  0  0  0  0
  189.4460  177.1040  145.0900 C   0  0  0  0  0  0  0  0  0  0  0  0
  188.1880  177.0060  145.2070 O   0  0  0  0  0  0  0  0  0  0  0  0
  190.2880  176.9670  146.2420 N   0  0  0  0  0  0  0  0  0  0  0  0
  189.7440  176.5380  147.5250 C   0  0  0  0  0  2  0  0  0  0  0  0
  189.6430  178.5750  148.7570 O   0  0  0  0  0  1  0  0  0  0  0  0
  187.6170  177.7120  148.1110 O   0  0  0  0  0  0  0  0  0  0  0  0
  189.0050  177.6580  148.1740 C   0  0  0  0  0  0  0  0  0  0  0  0
  185.6840  179.1230  141.7260 O   0  0  0  0  0  0  0  0  0  0  0  0
  185.1330  178.2330  142.6540 C   0  0  0  0  0  2  0  0  0  0  0  0
  184.9870  178.9130  144.0020 C   0  0  0  0  0  2  0  0  0  0  0  0
  182.6160  178.9740  143.3890 C   0  0  0  0  0  3  0  0  0  0  0  0
  183.5940  179.4140  144.1800 C   0  0  0  0  0  3  0  0  0  0  0  0
  181.2070  179.4410  143.5710 C   0  0  0  0  0  2  0  0  0  0  0  0
  180.2390  178.3020  143.3040 C   0  0  0  0  0  2  0  0  0  0  0  0
  179.1540  178.7160  141.9100 S   0  0  0  0  0  0  0  0  0  0  0  0
  179.6320  180.4700  141.9160 C   0  0  0  0  0  2  0  0  0  0  0  0
  179.6030  181.0190  140.5020 C   0  0  0  0  0  1  0  0  0  0  0  0
  1 35  1  1  0  0  0
  2  8  2  0  0  0  0
  3  1  1  1  0  0  0
  4  5  1  1  0  0  0
  4 10  1  0  0  0  0
  4  6  1  0  0  0  0
  6 11  1  6  0  0  0
  6  2  1  0  0  0  0
  7 10  1  6  0  0  0
  7  3  1  0  0  0  0
  7  8  1  0  0  0  0
  9  7  1  0  0  0  0
  9  3  1  0  0  0  0
 12 13  1  1  0  0  0
 12 16  1  0  0  0  0
 14 15  1  0  0  0  0
 15 11  1  6  0  0  0
 15 16  1  0  0  0  0
 17 14  1  0  0  0  0
 17 12  1  0  0  0  0
 19 18  1  6  0  0  0
 19  1  1  0  0  0  0
 19 20  1  0  0  0  0
 20 21  1  0  0  0  0
 21 26  1  0  0  0  0
 22 25  2  0  0  0  0
 22 23  1  0  0  0  0
 23 28  1  1  0  0  0
 24 21  2  0  0  0  0
 24 22  1  0  0  0  0
 26 23  1  0  0  0  0
 27 30  1  0  0  0  0
 28 29  2  0  0  0  0
 28 30  1  0  0  0  0
 30 31  1  0  0  0  0
 31 34  1  0  0  0  0
 33 34  2  0  0  0  0
 34 32  1  0  0  0  0
 35 36  1  0  0  0  0
 36 37  1  0  0  0  0
 37 39  1  0  0  0  0
 38 40  1  0  0  0  0
 38 39  2  0  0  0  0
 41 40  1  0  0  0  0
 42 43  1  0  0  0  0
 42 41  1  0  0  0  0
 44 43  1  0  0  0  0
M  END
>  <MODEL>
4

>  <REMARK>
 VINA RESULT:      -6.4      4.173      8.157
  Name = 
  17 active torsions:
  status: ('A' for Active; 'I' for Inactive)
    1  A    between atoms: C_1  and  C_29
    2  A    between atoms: C_1  and  O_31
    3  A    between atoms: C_2  and  C_24
    4  A    between atoms: C_4  and  C_5
    5  A    between atoms: C_4  and  O_31
    6  A    between atoms: C_4  and  C_35
    7  A    between atoms: C_6  and  C_26
    8  A    between atoms: N_8  and  C_18
    9  A    between atoms: N_8  and  C_22
   10  A    between atoms: C_12  and  N_37
   11  A    between atoms: C_12  and  C_38
   12  A    between atoms: C_16  and  C_17
   13  A    between atoms: C_19  and  C_29
   14  A    between atoms: C_24  and  C_43
   15  A    between atoms: C_26  and  C_35
   16  A    between atoms: C_27  and  S_44
   17  A    between atoms: C_43  and  S_44
                            x       y       z     vdW  Elec       q    Type
                         _______ _______ _______ _____ _____    ______ ____

>  <TORSDO>
F 17

$$$$
=
 OpenBabel10222416133D

 44 47  0  0  1  0  0  0  0  0999 V2000
  184.7130  179.1140  143.5670 C   0  0  1  0  0  3  0  0  0  0  0  0
  188.1120  178.8510  141.0960 C   0  0  0  0  0  3  0  0  0  0  0  0
  185.5800  177.8750  143.8000 C   0  0  2  0  0  3  0  0  0  0  0  0
  188.8240  176.6500  142.1000 C   0  0  2  0  0  3  0  0  0  0  0  0
  190.2260  175.6900  142.6290 Cl  0  0  0  0  0  0  0  0  0  0  0  0
  189.2820  177.9640  141.4510 C   0  0  1  0  0  3  0  0  0  0  0  0
  186.7550  177.8210  142.8880 C   0  0  2  0  0  0  0  0  0  0  0  0
  186.9610  178.8160  141.7770 C   0  0  0  0  0  3  0  0  0  0  0  0
  185.6020  177.0580  142.6470 O   0  0  0  0  0  0  0  0  0  0  0  0
  187.9290  176.9380  143.3050 C   0  0  0  0  0  2  0  0  0  0  0  0
  190.0740  177.6830  140.2560 N   0  0  0  0  0  2  0  0  0  0  0  0
  189.5870  177.3510  136.6330 C   0  0  1  0  0  3  0  0  0  0  0  0
  188.8490  177.6730  135.3440 C   0  0  0  0  0  1  0  0  0  0  0  0
  189.5390  176.0430  138.5440 C   0  0  0  0  0  2  0  0  0  0  0  0
  189.1530  177.3680  139.1710 C   0  0  2  0  0  3  0  0  0  0  0  0
  189.2530  178.6370  137.8730 S   0  0  0  0  0  0  0  0  0  0  0  0
  189.1400  176.0660  137.1490 N   0  0  0  0  0  2  0  0  0  0  0  0
  182.3040  179.0820  143.5130 O   0  0  0  0  0  1  0  0  0  0  0  0
  183.4530  178.7490  142.7900 C   0  0  1  0  0  3  0  0  0  0  0  0
  183.4370  179.4440  141.4410 C   0  0  0  0  0  2  0  0  0  0  0  0
  183.3720  178.4270  140.3470 C   0  0  0  0  0  0  0  0  0  0  0  0
  182.9620  176.5900  139.2810 C   0  0  0  0  0  0  0  0  0  0  0  0
  183.4260  177.5220  138.2110 C   0  0  1  0  0  3  0  0  0  0  0  0
  182.9460  177.2230  140.5540 N   0  0  0  0  0  0  0  0  0  0  0  0
  182.5850  175.4010  139.0950 O   0  0  0  0  0  0  0  0  0  0  0  0
  183.6910  178.7320  138.9840 N   0  0  0  0  0  2  0  0  0  0  0  0
  183.3870  175.8390  135.9020 O   0  0  0  0  0  1  0  0  0  0  0  0
  184.6850  177.0590  137.5330 C   0  0  0  0  0  0  0  0  0  0  0  0
  185.8110  177.5250  137.8810 O   0  0  0  0  0  0  0  0  0  0  0  0
  184.5970  176.1410  136.4340 N   0  0  0  0  0  0  0  0  0  0  0  0
  185.7970  175.5890  135.8170 C   0  0  0  0  0  2  0  0  0  0  0  0
  185.6090  173.8770  137.4640 O   0  0  0  0  0  1  0  0  0  0  0  0
  186.7890  173.3080  135.5800 O   0  0  0  0  0  0  0  0  0  0  0  0
  186.0660  174.2200  136.3400 C   0  0  0  0  0  0  0  0  0  0  0  0
  184.3810  179.6910  144.7990 O   0  0  0  0  0  0  0  0  0  0  0  0
  184.6810  178.7160  145.7550 C   0  0  0  0  0  2  0  0  0  0  0  0
  185.6880  179.2570  146.7520 C   0  0  0  0  0  2  0  0  0  0  0  0
  187.4840  178.1780  148.0190 C   0  0  0  0  0  3  0  0  0  0  0  0
  186.8580  178.3390  146.8540 C   0  0  0  0  0  3  0  0  0  0  0  0
  188.6420  177.2390  148.1500 C   0  0  0  0  0  2  0  0  0  0  0  0
  189.6300  177.4660  147.0200 C   0  0  0  0  0  2  0  0  0  0  0  0
  191.1930  176.6160  147.3740 S   0  0  0  0  0  0  0  0  0  0  0  0
  191.6890  176.5670  145.6250 C   0  0  0  0  0  2  0  0  0  0  0  0
  191.3400  177.8800  144.9510 C   0  0  0  0  0  1  0  0  0  0  0  0
  1 35  1  1  0  0  0
  2  6  1  0  0  0  0
  2  8  2  0  0  0  0
  3  1  1  6  0  0  0
  4  5  1  1  0  0  0
  4 10  1  0  0  0  0
  6 11  1  6  0  0  0
  6  4  1  0  0  0  0
  7  8  1  6  0  0  0
  7 10  1  0  0  0  0
  7  3  1  0  0  0  0
  9  7  1  0  0  0  0
  9  3  1  0  0  0  0
 12 13  1  6  0  0  0
 12 17  1  0  0  0  0
 12 16  1  0  0  0  0
 14 15  1  0  0  0  0
 15 11  1  1  0  0  0
 16 15  1  0  0  0  0
 17 14  1  0  0  0  0
 19 18  1  1  0  0  0
 19  1  1  0  0  0  0
 20 19  1  0  0  0  0
 21 24  2  0  0  0  0
 21 20  1  0  0  0  0
 22 24  1  0  0  0  0
 23 28  1  1  0  0  0
 23 26  1  0  0  0  0
 23 22  1  0  0  0  0
 25 22  2  0  0  0  0
 26 21  1  0  0  0  0
 27 30  1  0  0  0  0
 28 29  2  0  0  0  0
 30 28  1  0  0  0  0
 31 34  1  0  0  0  0
 31 30  1  0  0  0  0
 33 34  2  0  0  0  0
 34 32  1  0  0  0  0
 35 36  1  0  0  0  0
 36 37  1  0  0  0  0
 37 39  1  0  0  0  0
 38 40  1  0  0  0  0
 39 38  2  0  0  0  0
 41 42  1  0  0  0  0
 41 40  1  0  0  0  0
 43 42  1  0  0  0  0
 44 43  1  0  0  0  0
M  END
>  <MODEL>
5

>  <REMARK>
 VINA RESULT:      -6.4      2.646      5.272
  Name = 
  17 active torsions:
  status: ('A' for Active; 'I' for Inactive)
    1  A    between atoms: C_1  and  C_29
    2  A    between atoms: C_1  and  O_31
    3  A    between atoms: C_2  and  C_24
    4  A    between atoms: C_4  and  C_5
    5  A    between atoms: C_4  and  O_31
    6  A    between atoms: C_4  and  C_35
    7  A    between atoms: C_6  and  C_26
    8  A    between atoms: N_8  and  C_18
    9  A    between atoms: N_8  and  C_22
   10  A    between atoms: C_12  and  N_37
   11  A    between atoms: C_12  and  C_38
   12  A    between atoms: C_16  and  C_17
   13  A    between atoms: C_19  and  C_29
   14  A    between atoms: C_24  and  C_43
   15  A    between atoms: C_26  and  C_35
   16  A    between atoms: C_27  and  S_44
   17  A    between atoms: C_43  and  S_44
                            x       y       z     vdW  Elec       q    Type
                         _______ _______ _______ _____ _____    ______ ____

>  <TORSDO>
F 17

$$$$
=
 OpenBabel10222416133D

 44 47  0  0  1  0  0  0  0  0999 V2000
  184.6740  178.7990  140.5610 C   0  0  1  0  0  3  0  0  0  0  0  0
  181.3160  180.5870  138.7580 C   0  0  0  0  0  3  0  0  0  0  0  0
  183.6470  177.8140  140.0010 C   0  0  2  0  0  3  0  0  0  0  0  0
  180.2620  178.3590  138.2250 C   0  0  2  0  0  3  0  0  0  0  0  0
  179.3310  177.4570  137.0050 Cl  0  0  0  0  0  0  0  0  0  0  0  0
  180.4320  179.8250  137.7990 C   0  0  1  0  0  3  0  0  0  0  0  0
  182.4720  178.4970  139.3940 C   0  0  2  0  0  0  0  0  0  0  0  0
  182.2790  179.9880  139.4670 C   0  0  0  0  0  3  0  0  0  0  0  0
  182.4150  177.9390  140.6810 O   0  0  0  0  0  0  0  0  0  0  0  0
  181.6280  177.6980  138.4040 C   0  0  0  0  0  2  0  0  0  0  0  0
  179.1260  180.4730  137.7020 N   0  0  0  0  0  2  0  0  0  0  0  0
  180.8050  183.2560  135.9950 C   0  0  1  0  0  3  0  0  0  0  0  0
  180.7980  184.6250  135.3360 C   0  0  0  0  0  1  0  0  0  0  0  0
  180.3320  181.0130  135.6620 C   0  0  0  0  0  2  0  0  0  0  0  0
  179.1500  181.3610  136.5460 C   0  0  2  0  0  3  0  0  0  0  0  0
  179.3580  183.0860  137.0820 S   0  0  0  0  0  0  0  0  0  0  0  0
  180.7580  182.2190  134.9750 N   0  0  0  0  0  2  0  0  0  0  0  0
  186.5130  178.8090  142.1190 O   0  0  0  0  0  1  0  0  0  0  0  0
  185.2330  178.2970  141.8880 C   0  0  1  0  0  3  0  0  0  0  0  0
  184.3080  178.6730  143.0320 C   0  0  0  0  0  2  0  0  0  0  0  0
  185.0410  178.5680  144.3310 C   0  0  0  0  0  0  0  0  0  0  0  0
  185.6480  178.9340  146.3750 C   0  0  0  0  0  0  0  0  0  0  0  0
  186.3960  177.6980  146.0010 C   0  0  1  0  0  3  0  0  0  0  0  0
  184.8340  179.3960  145.3050 N   0  0  0  0  0  0  0  0  0  0  0  0
  185.6840  179.4910  147.5060 O   0  0  0  0  0  0  0  0  0  0  0  0
  185.9560  177.5050  144.6220 N   0  0  0  0  0  2  0  0  0  0  0  0
  187.9390  177.1120  148.3340 O   0  0  0  0  0  1  0  0  0  0  0  0
  187.8880  177.8770  146.0440 C   0  0  0  0  0  0  0  0  0  0  0  0
  188.5310  178.1580  144.9890 O   0  0  0  0  0  0  0  0  0  0  0  0
  188.5900  177.6530  147.2750 N   0  0  0  0  0  0  0  0  0  0  0  0
  190.0200  177.9150  147.3840 C   0  0  0  0  0  2  0  0  0  0  0  0
  190.3790  175.5600  147.3450 O   0  0  0  0  0  1  0  0  0  0  0  0
  191.9700  176.8180  146.2730 O   0  0  0  0  0  0  0  0  0  0  0  0
  190.8000  176.7010  147.0130 C   0  0  0  0  0  0  0  0  0  0  0  0
  185.7060  178.9790  139.6310 O   0  0  0  0  0  0  0  0  0  0  0  0
  185.5850  177.9100  138.7370 C   0  0  0  0  0  2  0  0  0  0  0  0
  186.3340  178.2180  137.4550 C   0  0  0  0  0  2  0  0  0  0  0  0
  188.7030  178.4080  138.0510 C   0  0  0  0  0  3  0  0  0  0  0  0
  187.7220  177.6760  137.5240 C   0  0  0  0  0  3  0  0  0  0  0  0
  190.0950  177.8710  138.1580 C   0  0  0  0  0  2  0  0  0  0  0  0
  190.1340  176.7090  139.1340 C   0  0  0  0  0  2  0  0  0  0  0  0
  191.2430  177.0910  140.5180 S   0  0  0  0  0  0  0  0  0  0  0  0
  189.8980  177.0810  141.7420 C   0  0  0  0  0  2  0  0  0  0  0  0
  190.2130  176.0920  142.8480 C   0  0  0  0  0  1  0  0  0  0  0  0
  1 35  1  6  0  0  0
  1 19  1  0  0  0  0
  2  8  2  0  0  0  0
  3  1  1  1  0  0  0
  3  9  1  0  0  0  0
  4  5  1  6  0  0  0
  4 10  1  0  0  0  0
  6 11  1  1  0  0  0
  6  4  1  0  0  0  0
  6  2  1  0  0  0  0
  7 10  1  6  0  0  0
  7  8  1  0  0  0  0
  7  3  1  0  0  0  0
  7  9  1  0  0  0  0
 12 13  1  6  0  0  0
 12 16  1  0  0  0  0
 14 15  1  0  0  0  0
 15 16  1  0  0  0  0
 15 11  1  1  0  0  0
 17 14  1  0  0  0  0
 17 12  1  0  0  0  0
 19 18  1  1  0  0  0
 19 20  1  0  0  0  0
 20 21  1  0  0  0  0
 21 26  1  0  0  0  0
 21 24  2  0  0  0  0
 22 25  2  0  0  0  0
 23 28  1  6  0  0  0
 23 22  1  0  0  0  0
 24 22  1  0  0  0  0
 26 23  1  0  0  0  0
 28 30  1  0  0  0  0
 29 28  2  0  0  0  0
 30 31  1  0  0  0  0
 30 27  1  0  0  0  0
 33 34  2  0  0  0  0
 34 32  1  0  0  0  0
 34 31  1  0  0  0  0
 36 35  1  0  0  0  0
 37 39  1  0  0  0  0
 37 36  1  0  0  0  0
 38 40  1  0  0  0  0
 39 38  2  0  0  0  0
 40 41  1  0  0  0  0
 41 42  1  0  0  0  0
 42 43  1  0  0  0  0
 43 44  1  0  0  0  0
M  END
>  <MODEL>
6

>  <REMARK>
 VINA RESULT:      -6.2      3.971      8.509
  Name = 
  17 active torsions:
  status: ('A' for Active; 'I' for Inactive)
    1  A    between atoms: C_1  and  C_29
    2  A    between atoms: C_1  and  O_31
    3  A    between atoms: C_2  and  C_24
    4  A    between atoms: C_4  and  C_5
    5  A    between atoms: C_4  and  O_31
    6  A    between atoms: C_4  and  C_35
    7  A    between atoms: C_6  and  C_26
    8  A    between atoms: N_8  and  C_18
    9  A    between atoms: N_8  and  C_22
   10  A    between atoms: C_12  and  N_37
   11  A    between atoms: C_12  and  C_38
   12  A    between atoms: C_16  and  C_17
   13  A    between atoms: C_19  and  C_29
   14  A    between atoms: C_24  and  C_43
   15  A    between atoms: C_26  and  C_35
   16  A    between atoms: C_27  and  S_44
   17  A    between atoms: C_43  and  S_44
                            x       y       z     vdW  Elec       q    Type
                         _______ _______ _______ _____ _____    ______ ____

>  <TORSDO>
F 17

$$$$
=
 OpenBabel10222416133D

 44 47  0  0  1  0  0  0  0  0999 V2000
  185.9060  178.2870  141.6850 C   0  0  1  0  0  3  0  0  0  0  0  0
  183.2880  176.9660  138.6650 C   0  0  0  0  0  3  0  0  0  0  0  0
  184.8410  179.3030  141.2710 C   0  0  2  0  0  3  0  0  0  0  0  0
  182.0280  179.1500  138.6310 C   0  0  2  0  0  3  0  0  0  0  0  0
  180.4130  179.8830  138.4810 Cl  0  0  0  0  0  0  0  0  0  0  0  0
  181.9510  177.6290  138.4290 C   0  0  1  0  0  3  0  0  0  0  0  0
  183.9560  178.7950  140.1880 C   0  0  2  0  0  0  0  0  0  0  0  0
  184.1990  177.4780  139.5000 C   0  0  0  0  0  3  0  0  0  0  0  0
  185.0110  179.6820  139.9200 O   0  0  0  0  0  0  0  0  0  0  0  0
  182.6000  179.4730  140.0100 C   0  0  0  0  0  2  0  0  0  0  0  0
  181.4750  177.3260  137.0820 N   0  0  0  0  0  2  0  0  0  0  0  0
  180.4060  173.9570  138.0720 C   0  0  1  0  0  3  0  0  0  0  0  0
  179.7220  172.6290  137.7890 C   0  0  0  0  0  1  0  0  0  0  0  0
  180.0380  176.1660  138.6620 C   0  0  0  0  0  2  0  0  0  0  0  0
  180.3720  176.3790  137.1990 C   0  0  2  0  0  3  0  0  0  0  0  0
  180.8520  174.7660  136.5070 S   0  0  0  0  0  0  0  0  0  0  0  0
  179.5060  174.8240  138.8170 N   0  0  0  0  0  2  0  0  0  0  0  0
  187.8220  179.7480  141.6050 O   0  0  0  0  0  1  0  0  0  0  0  0
  187.2440  178.6130  141.0280 C   0  0  1  0  0  3  0  0  0  0  0  0
  188.1940  177.4330  141.1380 C   0  0  0  0  0  2  0  0  0  0  0  0
  188.9650  177.2840  139.8660 C   0  0  0  0  0  0  0  0  0  0  0  0
  189.4450  177.2210  137.7580 C   0  0  0  0  0  0  0  0  0  0  0  0
  190.7770  177.1330  138.4250 C   0  0  1  0  0  3  0  0  0  0  0  0
  188.3910  177.3230  138.7060 N   0  0  0  0  0  0  0  0  0  0  0  0
  189.2570  177.2490  136.5110 O   0  0  0  0  0  0  0  0  0  0  0  0
  190.3930  177.1730  139.8330 N   0  0  0  0  0  2  0  0  0  0  0  0
  193.6260  176.9880  138.2700 O   0  0  0  0  0  1  0  0  0  0  0  0
  191.5010  175.8500  138.1260 C   0  0  0  0  0  0  0  0  0  0  0  0
  190.8690  174.7530  138.0770 O   0  0  0  0  0  0  0  0  0  0  0  0
  192.9270  175.8650  137.9710 N   0  0  0  0  0  0  0  0  0  0  0  0
  193.6540  174.6640  137.5800 C   0  0  0  0  0  2  0  0  0  0  0  0
  196.0250  174.8780  137.4840 O   0  0  0  0  0  1  0  0  0  0  0  0
  194.9010  175.4980  135.5820 O   0  0  0  0  0  0  0  0  0  0  0  0
  194.9240  175.0280  136.8890 C   0  0  0  0  0  0  0  0  0  0  0  0
  186.0330  178.2820  143.0800 O   0  0  0  0  0  0  0  0  0  0  0  0
  184.9540  179.0390  143.5490 C   0  0  0  0  0  2  0  0  0  0  0  0
  184.6000  178.6190  144.9630 C   0  0  0  0  0  2  0  0  0  0  0  0
  186.5540  177.7340  146.1450 C   0  0  0  0  0  3  0  0  0  0  0  0
  185.7800  178.7800  145.8600 C   0  0  0  0  0  3  0  0  0  0  0  0
  187.7600  177.8810  147.0190 C   0  0  0  0  0  2  0  0  0  0  0  0
  188.9340  177.1280  146.4210 C   0  0  0  0  0  2  0  0  0  0  0  0
  189.4250  177.8790  144.8450 S   0  0  0  0  0  0  0  0  0  0  0  0
  191.0200  177.0070  144.7990 C   0  0  0  0  0  2  0  0  0  0  0  0
  191.5080  176.7480  146.2120 C   0  0  0  0  0  1  0  0  0  0  0  0
  1 35  1  1  0  0  0
  2  8  2  0  0  0  0
  3  1  1  6  0  0  0
  4  5  1  1  0  0  0
  4 10  1  0  0  0  0
  6 11  1  6  0  0  0
  6  4  1  0  0  0  0
  6  2  1  0  0  0  0
  7  8  1  6  0  0  0
  7  3  1  0  0  0  0
  9  7  1  0  0  0  0
  9  3  1  0  0  0  0
 10  7  1  0  0  0  0
 12 13  1  6  0  0  0
 12 17  1  0  0  0  0
 14 17  1  0  0  0  0
 15 11  1  1  0  0  0
 15 14  1  0  0  0  0
 16 15  1  0  0  0  0
 16 12  1  0  0  0  0
 19 20  1  0  0  0  0
 19 18  1  1  0  0  0
 19  1  1  0  0  0  0
 21 20  1  0  0  0  0
 22 23  1  0  0  0  0
 22 24  1  0  0  0  0
 23 28  1  1  0  0  0
 23 26  1  0  0  0  0
 24 21  2  0  0  0  0
 25 22  2  0  0  0  0
 26 21  1  0  0  0  0
 29 28  2  0  0  0  0
 30 28  1  0  0  0  0
 30 27  1  0  0  0  0
 31 30  1  0  0  0  0
 33 34  2  0  0  0  0
 34 32  1  0  0  0  0
 34 31  1  0  0  0  0
 35 36  1  0  0  0  0
 36 37  1  0  0  0  0
 37 39  1  0  0  0  0
 38 40  1  0  0  0  0
 39 38  2  0  0  0  0
 41 40  1  0  0  0  0
 42 41  1  0  0  0  0
 43 42  1  0  0  0  0
 43 44  1  0  0  0  0
M  END
>  <MODEL>
7

>  <REMARK>
 VINA RESULT:      -6.1      3.883      8.140
  Name = 
  17 active torsions:
  status: ('A' for Active; 'I' for Inactive)
    1  A    between atoms: C_1  and  C_29
    2  A    between atoms: C_1  and  O_31
    3  A    between atoms: C_2  and  C_24
    4  A    between atoms: C_4  and  C_5
    5  A    between atoms: C_4  and  O_31
    6  A    between atoms: C_4  and  C_35
    7  A    between atoms: C_6  and  C_26
    8  A    between atoms: N_8  and  C_18
    9  A    between atoms: N_8  and  C_22
   10  A    between atoms: C_12  and  N_37
   11  A    between atoms: C_12  and  C_38
   12  A    between atoms: C_16  and  C_17
   13  A    between atoms: C_19  and  C_29
   14  A    between atoms: C_24  and  C_43
   15  A    between atoms: C_26  and  C_35
   16  A    between atoms: C_27  and  S_44
   17  A    between atoms: C_43  and  S_44
                            x       y       z     vdW  Elec       q    Type
                         _______ _______ _______ _____ _____    ______ ____

>  <TORSDO>
F 17

$$$$
=
 OpenBabel10222416133D

 44 47  0  0  1  0  0  0  0  0999 V2000
  184.3040  178.7850  141.6010 C   0  0  1  0  0  3  0  0  0  0  0  0
  182.3240  175.8510  139.3210 C   0  0  0  0  0  3  0  0  0  0  0  0
  183.2710  179.3300  140.6130 C   0  0  2  0  0  3  0  0  0  0  0  0
  180.9680  177.5670  138.0640 C   0  0  2  0  0  3  0  0  0  0  0  0
  179.3650  177.9180  137.3750 Cl  0  0  0  0  0  0  0  0  0  0  0  0
  181.0130  176.1380  138.6270 C   0  0  1  0  0  3  0  0  0  0  0  0
  182.6160  178.2550  139.8200 C   0  0  2  0  0  0  0  0  0  0  0  0
  183.0470  176.8150  139.9020 C   0  0  0  0  0  3  0  0  0  0  0  0
  183.6500  179.0390  139.2840 O   0  0  0  0  0  0  0  0  0  0  0  0
  181.2750  178.5800  139.1650 C   0  0  0  0  0  2  0  0  0  0  0  0
  180.7930  175.1700  137.5550 N   0  0  0  0  0  2  0  0  0  0  0  0
  182.5760  172.6190  135.6100 C   0  0  1  0  0  3  0  0  0  0  0  0
  183.4010  171.3460  135.5030 C   0  0  0  0  0  1  0  0  0  0  0  0
  182.6820  174.8900  136.0520 C   0  0  0  0  0  2  0  0  0  0  0  0
  182.0390  174.4400  137.3490 C   0  0  2  0  0  3  0  0  0  0  0  0
  181.7060  172.6580  137.2050 S   0  0  0  0  0  0  0  0  0  0  0  0
  183.4480  173.7800  135.5150 N   0  0  0  0  0  2  0  0  0  0  0  0
  186.2980  180.0990  141.9230 O   0  0  0  0  0  1  0  0  0  0  0  0
  185.7180  179.1050  141.1290 C   0  0  1  0  0  3  0  0  0  0  0  0
  186.5830  177.8570  141.1480 C   0  0  0  0  0  2  0  0  0  0  0  0
  187.6840  177.9870  140.1450 C   0  0  0  0  0  0  0  0  0  0  0  0
  188.7930  178.5940  138.3900 C   0  0  0  0  0  0  0  0  0  0  0  0
  189.8100  177.8850  139.2220 C   0  0  1  0  0  3  0  0  0  0  0  0
  187.5240  178.6230  139.0290 N   0  0  0  0  0  0  0  0  0  0  0  0
  189.0200  179.1430  137.2770 O   0  0  0  0  0  0  0  0  0  0  0  0
  189.0090  177.4970  140.3790 N   0  0  0  0  0  2  0  0  0  0  0  0
  192.5560  177.1360  139.4610 O   0  0  0  0  0  1  0  0  0  0  0  0
  190.3710  176.6620  138.5510 C   0  0  0  0  0  0  0  0  0  0  0  0
  189.6010  175.8380  137.9720 O   0  0  0  0  0  0  0  0  0  0  0  0
  191.7770  176.3940  138.6360 N   0  0  0  0  0  0  0  0  0  0  0  0
  192.3750  175.2780  137.9140 C   0  0  0  0  0  2  0  0  0  0  0  0
  194.7040  174.7800  137.9830 O   0  0  0  0  0  1  0  0  0  0  0  0
  194.1370  176.6920  136.8470 O   0  0  0  0  0  0  0  0  0  0  0  0
  193.8020  175.5700  137.5960 C   0  0  0  0  0  0  0  0  0  0  0  0
  184.0740  179.3310  142.8690 O   0  0  0  0  0  0  0  0  0  0  0  0
  184.1800  178.2550  143.7570 C   0  0  0  0  0  2  0  0  0  0  0  0
  184.5840  178.7530  145.1310 C   0  0  0  0  0  2  0  0  0  0  0  0
  186.7250  177.7180  144.5440 C   0  0  0  0  0  3  0  0  0  0  0  0
  186.0390  178.5210  145.3570 C   0  0  0  0  0  3  0  0  0  0  0  0
  188.1930  177.4970  144.7360 C   0  0  0  0  0  2  0  0  0  0  0  0
  188.6750  176.3750  143.8350 C   0  0  0  0  0  2  0  0  0  0  0  0
  190.4740  176.4700  143.6220 S   0  0  0  0  0  0  0  0  0  0  0  0
  190.6410  177.8920  144.7430 C   0  0  0  0  0  2  0  0  0  0  0  0
  191.1670  179.0930  143.9800 C   0  0  0  0  0  1  0  0  0  0  0  0
  1 35  1  1  0  0  0
  2  8  2  0  0  0  0
  3  1  1  1  0  0  0
  4  5  1  1  0  0  0
  4  6  1  0  0  0  0
  4 10  1  0  0  0  0
  6 11  1  6  0  0  0
  6  2  1  0  0  0  0
  7 10  1  6  0  0  0
  7  8  1  0  0  0  0
  7  3  1  0  0  0  0
  9  7  1  0  0  0  0
  9  3  1  0  0  0  0
 12 13  1  1  0  0  0
 12 16  1  0  0  0  0
 14 15  1  0  0  0  0
 15 11  1  6  0  0  0
 16 15  1  0  0  0  0
 17 12  1  0  0  0  0
 17 14  1  0  0  0  0
 19 20  1  0  0  0  0
 19  1  1  0  0  0  0
 19 18  1  1  0  0  0
 21 26  1  0  0  0  0
 21 20  1  0  0  0  0
 22 24  1  0  0  0  0
 22 23  1  0  0  0  0
 23 28  1  6  0  0  0
 23 26  1  0  0  0  0
 24 21  2  0  0  0  0
 25 22  2  0  0  0  0
 28 30  1  0  0  0  0
 29 28  2  0  0  0  0
 30 27  1  0  0  0  0
 31 30  1  0  0  0  0
 33 34  2  0  0  0  0
 34 31  1  0  0  0  0
 34 32  1  0  0  0  0
 35 36  1  0  0  0  0
 36 37  1  0  0  0  0
 37 39  1  0  0  0  0
 38 40  1  0  0  0  0
 38 39  2  0  0  0  0
 41 40  1  0  0  0  0
 42 41  1  0  0  0  0
 42 43  1  0  0  0  0
 44 43  1  0  0  0  0
M  END
>  <MODEL>
8

>  <REMARK>
 VINA RESULT:      -6.0      3.622      7.744
  Name = 
  17 active torsions:
  status: ('A' for Active; 'I' for Inactive)
    1  A    between atoms: C_1  and  C_29
    2  A    between atoms: C_1  and  O_31
    3  A    between atoms: C_2  and  C_24
    4  A    between atoms: C_4  and  C_5
    5  A    between atoms: C_4  and  O_31
    6  A    between atoms: C_4  and  C_35
    7  A    between atoms: C_6  and  C_26
    8  A    between atoms: N_8  and  C_18
    9  A    between atoms: N_8  and  C_22
   10  A    between atoms: C_12  and  N_37
   11  A    between atoms: C_12  and  C_38
   12  A    between atoms: C_16  and  C_17
   13  A    between atoms: C_19  and  C_29
   14  A    between atoms: C_24  and  C_43
   15  A    between atoms: C_26  and  C_35
   16  A    between atoms: C_27  and  S_44
   17  A    between atoms: C_43  and  S_44
                            x       y       z     vdW  Elec       q    Type
                         _______ _______ _______ _____ _____    ______ ____

>  <TORSDO>
F 17

$$$$
=
 OpenBabel10222416133D

 44 47  0  0  1  0  0  0  0  0999 V2000
  189.5480  177.4740  138.3840 C   0  0  1  0  0  3  0  0  0  0  0  0
  193.3370  176.0220  137.2600 C   0  0  0  0  0  3  0  0  0  0  0  0
  189.5270  176.1390  137.6390 C   0  0  2  0  0  3  0  0  0  0  0  0
  192.3600  173.9780  136.1500 C   0  0  2  0  0  3  0  0  0  0  0  0
  192.5900  172.2350  135.8760 Cl  0  0  0  0  0  0  0  0  0  0  0  0
  193.5560  174.5680  136.9120 C   0  0  1  0  0  3  0  0  0  0  0  0
  190.8880  175.6810  137.2470 C   0  0  2  0  0  0  0  0  0  0  0  0
  192.1140  176.5300  137.4510 C   0  0  0  0  0  3  0  0  0  0  0  0
  190.0240  176.2930  136.3250 O   0  0  0  0  0  0  0  0  0  0  0  0
  191.0700  174.1970  136.9380 C   0  0  0  0  0  2  0  0  0  0  0  0
  194.7750  174.4230  136.1200 N   0  0  0  0  0  2  0  0  0  0  0  0
  198.0200  172.7540  136.5170 C   0  0  1  0  0  3  0  0  0  0  0  0
  198.9390  171.7520  137.1960 C   0  0  0  0  0  1  0  0  0  0  0  0
  197.0940  174.8690  136.6950 C   0  0  0  0  0  2  0  0  0  0  0  0
  195.8580  174.0560  137.0250 C   0  0  2  0  0  3  0  0  0  0  0  0
  196.2850  172.3010  136.8150 S   0  0  0  0  0  0  0  0  0  0  0  0
  198.2630  174.0860  137.0510 N   0  0  0  0  0  2  0  0  0  0  0  0
  188.5460  179.3200  137.2030 O   0  0  0  0  0  1  0  0  0  0  0  0
  188.2830  178.2730  138.0910 C   0  0  1  0  0  3  0  0  0  0  0  0
  187.2010  177.3710  137.5250 C   0  0  0  0  0  2  0  0  0  0  0  0
  185.8590  177.8310  137.9950 C   0  0  0  0  0  0  0  0  0  0  0  0
  184.3270  178.9440  139.0410 C   0  0  0  0  0  0  0  0  0  0  0  0
  183.5570  178.1180  138.0650 C   0  0  1  0  0  3  0  0  0  0  0  0
  185.7260  178.7200  138.9270 N   0  0  0  0  0  0  0  0  0  0  0  0
  183.8230  179.7750  139.8450 O   0  0  0  0  0  0  0  0  0  0  0  0
  184.6340  177.3900  137.3980 N   0  0  0  0  0  2  0  0  0  0  0  0
  180.7190  178.3600  137.8470 O   0  0  0  0  0  1  0  0  0  0  0  0
  182.6150  177.1500  138.7260 C   0  0  0  0  0  0  0  0  0  0  0  0
  183.0590  176.1030  139.2840 O   0  0  0  0  0  0  0  0  0  0  0  0
  181.2020  177.3830  138.6540 N   0  0  0  0  0  0  0  0  0  0  0  0
  180.2620  176.5270  139.3670 C   0  0  0  0  0  2  0  0  0  0  0  0
  179.1400  176.5120  141.4690 O   0  0  0  0  0  1  0  0  0  0  0  0
  180.6120  178.2430  141.1500 O   0  0  0  0  0  0  0  0  0  0  0  0
  179.9630  177.0940  140.7130 C   0  0  0  0  0  0  0  0  0  0  0  0
  189.6750  177.2420  139.7590 O   0  0  0  0  0  0  0  0  0  0  0  0
  188.9490  178.2680  140.3730 C   0  0  0  0  0  2  0  0  0  0  0  0
  188.2570  177.7420  141.6160 C   0  0  0  0  0  2  0  0  0  0  0  0
  189.3640  177.2190  143.7380 C   0  0  0  0  0  3  0  0  0  0  0  0
  189.0160  178.1370  142.8370 C   0  0  0  0  0  3  0  0  0  0  0  0
  190.1530  177.5910  144.9540 C   0  0  0  0  0  2  0  0  0  0  0  0
  189.2310  177.7300  146.1520 C   0  0  0  0  0  2  0  0  0  0  0  0
  190.0270  177.0550  147.6360 S   0  0  0  0  0  0  0  0  0  0  0  0
  191.5080  176.5160  146.7310 C   0  0  0  0  0  2  0  0  0  0  0  0
  192.3800  175.6580  147.6280 C   0  0  0  0  0  1  0  0  0  0  0  0
  1 35  1  1  0  0  0
  2  8  2  0  0  0  0
  3  1  1  1  0  0  0
  4  5  1  1  0  0  0
  4  6  1  0  0  0  0
  4 10  1  0  0  0  0
  6 11  1  6  0  0  0
  6  2  1  0  0  0  0
  7 10  1  6  0  0  0
  7  8  1  0  0  0  0
  7  3  1  0  0  0  0
  9  7  1  0  0  0  0
  9  3  1  0  0  0  0
 12 16  1  0  0  0  0
 12 17  1  0  0  0  0
 12 13  1  1  0  0  0
 14 15  1  0  0  0  0
 14 17  1  0  0  0  0
 15 11  1  6  0  0  0
 16 15  1  0  0  0  0
 19 18  1  6  0  0  0
 19  1  1  0  0  0  0
 20 21  1  0  0  0  0
 20 19  1  0  0  0  0
 21 24  2  0  0  0  0
 22 25  2  0  0  0  0
 23 28  1  1  0  0  0
 23 22  1  0  0  0  0
 24 22  1  0  0  0  0
 26 21  1  0  0  0  0
 26 23  1  0  0  0  0
 27 30  1  0  0  0  0
 28 29  2  0  0  0  0
 30 28  1  0  0  0  0
 30 31  1  0  0  0  0
 31 34  1  0  0  0  0
 34 33  2  0  0  0  0
 34 32  1  0  0  0  0
 35 36  1  0  0  0  0
 36 37  1  0  0  0  0
 37 39  1  0  0  0  0
 38 40  1  0  0  0  0
 39 38  2  0  0  0  0
 40 41  1  0  0  0  0
 41 42  1  0  0  0  0
 43 44  1  0  0  0  0
 43 42  1  0  0  0  0
M  END
>  <MODEL>
9

>  <REMARK>
 VINA RESULT:      -6.0      4.177      5.757
  Name = 
  17 active torsions:
  status: ('A' for Active; 'I' for Inactive)
    1  A    between atoms: C_1  and  C_29
    2  A    between atoms: C_1  and  O_31
    3  A    between atoms: C_2  and  C_24
    4  A    between atoms: C_4  and  C_5
    5  A    between atoms: C_4  and  O_31
    6  A    between atoms: C_4  and  C_35
    7  A    between atoms: C_6  and  C_26
    8  A    between atoms: N_8  and  C_18
    9  A    between atoms: N_8  and  C_22
   10  A    between atoms: C_12  and  N_37
   11  A    between atoms: C_12  and  C_38
   12  A    between atoms: C_16  and  C_17
   13  A    between atoms: C_19  and  C_29
   14  A    between atoms: C_24  and  C_43
   15  A    between atoms: C_26  and  C_35
   16  A    between atoms: C_27  and  S_44
   17  A    between atoms: C_43  and  S_44
                            x       y       z     vdW  Elec       q    Type
                         _______ _______ _______ _____ _____    ______ ____

>  <TORSDO>
F 17

$$$$
