=
 OpenBabel10222415123D

 34 39  0  0  0  0  0  0  0  0999 V2000
  189.5600  177.4720  144.9170 C   0  0  0  0  0  0  0  0  0  0  0  0
  191.7550  176.9580  141.9800 C   0  0  0  0  0  3  0  0  0  0  0  0
  191.9690  176.2490  144.1570 N   0  0  0  0  0  0  0  0  0  0  0  0
  188.1070  177.8400  146.7840 C   0  0  0  0  0  0  0  0  0  0  0  0
  188.3770  177.9330  145.4330 N   0  0  0  0  0  0  0  0  0  0  0  0
  190.2300  176.7780  147.1140 C   0  0  0  0  0  0  0  0  0  0  0  0
  191.3050  176.0220  147.6800 N   0  0  0  0  0  0  0  0  0  0  0  0
  189.0360  177.2320  147.6740 C   0  0  0  0  0  3  0  0  0  0  0  0
  191.5710  176.3000  145.4520 C   0  0  0  0  0  0  0  0  0  0  0  0
  190.4460  176.9230  145.7970 C   0  0  0  0  0  0  0  0  0  0  0  0
  192.1760  175.7150  146.6050 N   0  0  0  0  0  0  0  0  0  0  0  0
  191.2680  177.8250  140.8700 C   0  0  0  0  0  2  0  0  0  0  0  0
  189.9140  177.4470  140.3860 C   0  0  0  0  0  0  0  0  0  0  0  0
  188.8670  177.4930  141.2070 C   0  0  0  0  0  3  0  0  0  0  0  0
  191.1900  176.8450  143.1870 C   0  0  0  0  0  0  0  0  0  0  0  0
  188.9050  177.6900  142.6680 C   0  0  0  0  0  3  0  0  0  0  0  0
  189.8930  177.4060  143.5390 C   0  0  0  0  0  0  0  0  0  0  0  0
  189.7180  177.1910  138.9870 N   0  0  0  0  0  0  0  0  0  0  0  0
  189.2250  178.1800  138.1670 O   0  0  0  0  0  0  0  0  0  0  0  0
  190.0050  176.0800  138.4940 O   0  0  0  0  0  0  0  0  0  0  0  0
  186.8250  178.3810  147.3190 C   0  0  0  0  0  2  0  0  0  0  0  0
  183.5780  178.9260  145.5550 C   0  0  0  0  0  3  0  0  0  0  0  0
  186.2020  178.2770  144.8990 C   0  0  0  0  0  3  0  0  0  0  0  0
  183.2970  178.5720  141.8770 C   0  0  0  0  0  0  0  0  0  0  0  0
  182.9480  178.8010  143.2150 C   0  0  0  0  0  3  0  0  0  0  0  0
  183.9140  178.7050  144.2190 C   0  0  0  0  0  0  0  0  0  0  0  0
  185.5940  178.1460  142.5560 C   0  0  0  0  0  3  0  0  0  0  0  0
  185.2450  178.3760  143.8890 C   0  0  0  0  0  0  0  0  0  0  0  0
  184.6230  178.2440  141.5540 C   0  0  0  0  0  3  0  0  0  0  0  0
  185.8230  178.5140  146.2240 C   0  0  0  0  0  0  0  0  0  0  0  0
  184.5310  178.8230  146.5210 N   0  0  0  0  0  0  0  0  0  0  0  0
  182.2750  178.6730  140.8220 C   0  0  0  0  0  0  0  0  0  0  0  0
  181.0780  178.3550  141.0590 O   0  0  0  0  0  1  0  0  0  0  0  0
  182.6220  179.1190  139.5520 O   0  0  0  0  0  0  0  0  0  0  0  0
  1  5  2  0  0  0  0
  1 10  1  0  0  0  0
  2 15  2  0  0  0  0
  3  9  2  0  0  0  0
  4 21  1  0  0  0  0
  4  8  2  0  0  0  0
  5  4  1  0  0  0  0
  6  8  1  0  0  0  0
  6  7  1  0  0  0  0
  9 10  1  0  0  0  0
  9 11  1  0  0  0  0
 10  6  2  0  0  0  0
 11  7  2  0  0  0  0
 12  2  1  0  0  0  0
 13 12  1  0  0  0  0
 13 14  2  0  0  0  0
 14 16  1  0  0  0  0
 15 17  1  0  0  0  0
 15  3  1  0  0  0  0
 16 17  2  0  0  0  0
 17  1  1  0  0  0  0
 18 13  1  0  0  0  0
 19 18  2  0  0  0  0
 20 18  2  0  0  0  0
 22 31  1  0  0  0  0
 23 30  1  0  0  0  0
 24 25  2  0  0  0  0
 25 26  1  0  0  0  0
 26 22  2  0  0  0  0
 27 28  1  0  0  0  0
 28 26  1  0  0  0  0
 28 23  2  0  0  0  0
 29 24  1  0  0  0  0
 29 27  2  0  0  0  0
 30 31  2  0  0  0  0
 30 21  1  0  0  0  0
 32 33  1  0  0  0  0
 32 24  1  0  0  0  0
 34 32  2  0  0  0  0
M  END
>  <MODEL>
1

>  <REMARK>
 VINA RESULT:     -11.5      0.000      0.000
  Name = 
  4 active torsions:
  status: ('A' for Active; 'I' for Inactive)
    1  A    between atoms: N_3  and  C_25
    2  A    between atoms: C_7  and  C_11
    3  A    between atoms: C_8  and  C_18
    4  A    between atoms: C_18  and  C_30
                            x       y       z     vdW  Elec       q    Type
                         _______ _______ _______ _____ _____    ______ ____

>  <TORSDO>
F 4

$$$$
=
 OpenBabel10222415123D

 34 39  0  0  0  0  0  0  0  0999 V2000
  184.2840  178.5520  141.6920 C   0  0  0  0  0  0  0  0  0  0  0  0
  185.3530  178.1630  138.1690 C   0  0  0  0  0  3  0  0  0  0  0  0
  183.3440  178.8350  139.0630 N   0  0  0  0  0  0  0  0  0  0  0  0
  183.6430  178.7800  143.9880 C   0  0  0  0  0  0  0  0  0  0  0  0
  184.6050  178.5480  143.0240 N   0  0  0  0  0  0  0  0  0  0  0  0
  182.0070  179.0530  142.2580 C   0  0  0  0  0  0  0  0  0  0  0  0
  180.8160  179.4110  141.5490 N   0  0  0  0  0  0  0  0  0  0  0  0
  182.2970  179.0620  143.6220 C   0  0  0  0  0  3  0  0  0  0  0  0
  182.5250  178.9740  140.1330 C   0  0  0  0  0  0  0  0  0  0  0  0
  182.9800  178.7930  141.3710 C   0  0  0  0  0  0  0  0  0  0  0  0
  181.1500  179.3570  140.1720 N   0  0  0  0  0  0  0  0  0  0  0  0
  186.6770  177.4760  138.1510 C   0  0  0  0  0  2  0  0  0  0  0  0
  187.7590  178.2820  138.7750 C   0  0  0  0  0  0  0  0  0  0  0  0
  187.6850  178.6320  140.0580 C   0  0  0  0  0  3  0  0  0  0  0  0
  184.6700  178.5100  139.2640 C   0  0  0  0  0  0  0  0  0  0  0  0
  186.5130  178.4890  140.9400 C   0  0  0  0  0  3  0  0  0  0  0  0
  185.2050  178.4460  140.6180 C   0  0  0  0  0  0  0  0  0  0  0  0
  188.9590  178.5370  138.0300 N   0  0  0  0  0  0  0  0  0  0  0  0
  189.0660  179.6730  137.2610 O   0  0  0  0  0  0  0  0  0  0  0  0
  189.9240  177.7440  138.0810 O   0  0  0  0  0  0  0  0  0  0  0  0
  184.0180  178.7370  145.4300 C   0  0  0  0  0  2  0  0  0  0  0  0
  187.3600  177.2610  144.6520 C   0  0  0  0  0  3  0  0  0  0  0  0
  186.0980  178.5010  146.7990 C   0  0  0  0  0  3  0  0  0  0  0  0
  190.0680  177.1760  147.1810 C   0  0  0  0  0  0  0  0  0  0  0  0
  189.3780  176.9960  145.9740 C   0  0  0  0  0  3  0  0  0  0  0  0
  188.0590  177.4380  145.8470 C   0  0  0  0  0  0  0  0  0  0  0  0
  188.1030  178.2450  148.1370 C   0  0  0  0  0  3  0  0  0  0  0  0
  187.4170  178.0670  146.9330 C   0  0  0  0  0  0  0  0  0  0  0  0
  189.4230  177.8020  148.2590 C   0  0  0  0  0  3  0  0  0  0  0  0
  185.4380  178.3090  145.5820 C   0  0  0  0  0  0  0  0  0  0  0  0
  186.0740  177.6940  144.5470 N   0  0  0  0  0  0  0  0  0  0  0  0
  191.4560  176.7070  147.3110 C   0  0  0  0  0  0  0  0  0  0  0  0
  192.1460  177.0200  148.3190 O   0  0  0  0  0  1  0  0  0  0  0  0
  192.0230  175.9120  146.3210 O   0  0  0  0  0  0  0  0  0  0  0  0
  1  5  1  0  0  0  0
  2 15  2  0  0  0  0
  3 15  1  0  0  0  0
  3  9  2  0  0  0  0
  4 21  1  0  0  0  0
  5  4  2  0  0  0  0
  6  8  2  0  0  0  0
  7  6  1  0  0  0  0
  8  4  1  0  0  0  0
  9 11  1  0  0  0  0
  9 10  1  0  0  0  0
 10  1  2  0  0  0  0
 10  6  1  0  0  0  0
 11  7  2  0  0  0  0
 12  2  1  0  0  0  0
 12 13  1  0  0  0  0
 13 14  2  0  0  0  0
 14 16  1  0  0  0  0
 15 17  1  0  0  0  0
 17 16  2  0  0  0  0
 17  1  1  0  0  0  0
 18 20  2  0  0  0  0
 18 13  1  0  0  0  0
 19 18  2  0  0  0  0
 21 30  1  0  0  0  0
 22 26  1  0  0  0  0
 23 28  1  0  0  0  0
 24 32  1  0  0  0  0
 24 29  1  0  0  0  0
 25 24  2  0  0  0  0
 26 25  1  0  0  0  0
 26 28  2  0  0  0  0
 27 29  2  0  0  0  0
 28 27  1  0  0  0  0
 30 23  2  0  0  0  0
 31 22  2  0  0  0  0
 31 30  1  0  0  0  0
 32 33  1  0  0  0  0
 34 32  2  0  0  0  0
M  END
>  <MODEL>
2

>  <REMARK>
 VINA RESULT:     -11.2      3.387      7.395
  Name = 
  4 active torsions:
  status: ('A' for Active; 'I' for Inactive)
    1  A    between atoms: N_3  and  C_25
    2  A    between atoms: C_7  and  C_11
    3  A    between atoms: C_8  and  C_18
    4  A    between atoms: C_18  and  C_30
                            x       y       z     vdW  Elec       q    Type
                         _______ _______ _______ _____ _____    ______ ____

>  <TORSDO>
F 4

$$$$
=
 OpenBabel10222415123D

 34 39  0  0  0  0  0  0  0  0999 V2000
  184.0760  178.6120  141.7500 C   0  0  0  0  0  0  0  0  0  0  0  0
  185.4500  178.2020  138.3370 C   0  0  0  0  0  3  0  0  0  0  0  0
  183.3620  178.8510  139.0470 N   0  0  0  0  0  0  0  0  0  0  0  0
  183.2380  178.8550  143.9800 C   0  0  0  0  0  0  0  0  0  0  0  0
  184.2820  178.6290  143.1050 N   0  0  0  0  0  0  0  0  0  0  0  0
  181.7520  179.0820  142.1130 C   0  0  0  0  0  0  0  0  0  0  0  0
  180.6210  179.4130  141.3000 N   0  0  0  0  0  0  0  0  0  0  0  0
  181.9230  179.1110  143.4970 C   0  0  0  0  0  3  0  0  0  0  0  0
  182.4510  178.9880  140.0410 C   0  0  0  0  0  0  0  0  0  0  0  0
  182.8010  178.8280  141.3160 C   0  0  0  0  0  0  0  0  0  0  0  0
  181.0720  179.3490  139.9570 N   0  0  0  0  0  0  0  0  0  0  0  0
  186.7800  177.5370  138.4410 C   0  0  0  0  0  2  0  0  0  0  0  0
  187.7930  178.3670  139.1460 C   0  0  0  0  0  0  0  0  0  0  0  0
  187.6030  178.7300  140.4130 C   0  0  0  0  0  3  0  0  0  0  0  0
  184.6690  178.5500  139.3650 C   0  0  0  0  0  0  0  0  0  0  0  0
  186.3620  178.5780  141.1920 C   0  0  0  0  0  3  0  0  0  0  0  0
  185.0880  178.5100  140.7600 C   0  0  0  0  0  0  0  0  0  0  0  0
  189.0490  178.6330  138.5030 N   0  0  0  0  0  0  0  0  0  0  0  0
  190.1680  177.9140  138.8520 O   0  0  0  0  0  0  0  0  0  0  0  0
  189.1390  179.5040  137.6120 O   0  0  0  0  0  0  0  0  0  0  0  0
  183.4870  178.8340  145.4490 C   0  0  0  0  0  2  0  0  0  0  0  0
  186.7600  178.5170  147.2210 C   0  0  0  0  0  3  0  0  0  0  0  0
  185.6930  177.9000  144.7270 C   0  0  0  0  0  3  0  0  0  0  0  0
  189.7260  177.0490  145.5510 C   0  0  0  0  0  0  0  0  0  0  0  0
  188.9160  177.6420  146.5300 C   0  0  0  0  0  3  0  0  0  0  0  0
  187.5750  177.9230  146.2560 C   0  0  0  0  0  0  0  0  0  0  0  0
  187.8380  177.0220  144.0160 C   0  0  0  0  0  3  0  0  0  0  0  0
  187.0320  177.6110  144.9930 C   0  0  0  0  0  0  0  0  0  0  0  0
  189.1790  176.7410  144.2950 C   0  0  0  0  0  3  0  0  0  0  0  0
  184.9110  178.4890  145.7250 C   0  0  0  0  0  0  0  0  0  0  0  0
  185.4580  178.7880  146.9360 N   0  0  0  0  0  0  0  0  0  0  0  0
  191.1380  176.7560  145.8420 C   0  0  0  0  0  0  0  0  0  0  0  0
  191.6510  177.1100  146.9380 O   0  0  0  0  0  1  0  0  0  0  0  0
  191.9210  176.0860  144.9080 O   0  0  0  0  0  0  0  0  0  0  0  0
  1  5  1  0  0  0  0
  2 12  1  0  0  0  0
  2 15  2  0  0  0  0
  3 15  1  0  0  0  0
  3  9  2  0  0  0  0
  4 21  1  0  0  0  0
  5  4  2  0  0  0  0
  6  8  2  0  0  0  0
  7  6  1  0  0  0  0
  8  4  1  0  0  0  0
  9 10  1  0  0  0  0
 10  1  2  0  0  0  0
 10  6  1  0  0  0  0
 11  9  1  0  0  0  0
 11  7  2  0  0  0  0
 12 13  1  0  0  0  0
 13 14  2  0  0  0  0
 14 16  1  0  0  0  0
 15 17  1  0  0  0  0
 17 16  2  0  0  0  0
 17  1  1  0  0  0  0
 18 19  2  0  0  0  0
 18 13  1  0  0  0  0
 20 18  2  0  0  0  0
 21 30  1  0  0  0  0
 23 28  2  0  0  0  0
 23 30  1  0  0  0  0
 24 32  1  0  0  0  0
 24 25  2  0  0  0  0
 26 25  1  0  0  0  0
 26 22  2  0  0  0  0
 27 29  2  0  0  0  0
 27 28  1  0  0  0  0
 28 26  1  0  0  0  0
 29 24  1  0  0  0  0
 30 31  2  0  0  0  0
 31 22  1  0  0  0  0
 32 33  1  0  0  0  0
 34 32  2  0  0  0  0
M  END
>  <MODEL>
3

>  <REMARK>
 VINA RESULT:     -11.2      3.207      7.100
  Name = 
  4 active torsions:
  status: ('A' for Active; 'I' for Inactive)
    1  A    between atoms: N_3  and  C_25
    2  A    between atoms: C_7  and  C_11
    3  A    between atoms: C_8  and  C_18
    4  A    between atoms: C_18  and  C_30
                            x       y       z     vdW  Elec       q    Type
                         _______ _______ _______ _____ _____    ______ ____

>  <TORSDO>
F 4

$$$$
=
 OpenBabel10222415123D

 34 39  0  0  0  0  0  0  0  0999 V2000
  187.0090  178.2480  144.3670 C   0  0  0  0  0  0  0  0  0  0  0  0
  189.2330  177.3760  147.1950 C   0  0  0  0  0  3  0  0  0  0  0  0
  186.9800  177.8310  147.1410 N   0  0  0  0  0  0  0  0  0  0  0  0
  185.6170  178.8140  142.5010 C   0  0  0  0  0  0  0  0  0  0  0  0
  186.8310  178.4010  143.0160 N   0  0  0  0  0  0  0  0  0  0  0  0
  184.7270  178.8960  144.7250 C   0  0  0  0  0  0  0  0  0  0  0  0
  183.8210  178.9350  145.8330 N   0  0  0  0  0  0  0  0  0  0  0  0
  184.5070  179.0590  143.3580 C   0  0  0  0  0  3  0  0  0  0  0  0
  185.8910  178.2880  146.4760 C   0  0  0  0  0  0  0  0  0  0  0  0
  185.9380  178.5210  145.1660 C   0  0  0  0  0  0  0  0  0  0  0  0
  184.5750  178.5440  146.9690 N   0  0  0  0  0  0  0  0  0  0  0  0
  190.6430  177.4130  146.7140 C   0  0  0  0  0  2  0  0  0  0  0  0
  190.9360  176.3790  145.6860 C   0  0  0  0  0  0  0  0  0  0  0  0
  190.2840  176.3800  144.5250 C   0  0  0  0  0  3  0  0  0  0  0  0
  188.1480  177.5980  146.4460 C   0  0  0  0  0  0  0  0  0  0  0  0
  189.1040  177.1930  144.1820 C   0  0  0  0  0  3  0  0  0  0  0  0
  188.1660  177.7170  144.9940 C   0  0  0  0  0  0  0  0  0  0  0  0
  192.0400  175.4850  145.8890 N   0  0  0  0  0  0  0  0  0  0  0  0
  192.4310  174.6310  144.8830 O   0  0  0  0  0  0  0  0  0  0  0  0
  192.6690  175.4790  146.9680 O   0  0  0  0  0  0  0  0  0  0  0  0
  185.4650  179.0030  141.0310 C   0  0  0  0  0  2  0  0  0  0  0  0
  187.7240  177.8230  138.3010 C   0  0  0  0  0  3  0  0  0  0  0  0
  187.8680  178.3060  141.0360 C   0  0  0  0  0  3  0  0  0  0  0  0
  191.2440  176.8820  138.9790 C   0  0  0  0  0  0  0  0  0  0  0  0
  190.0460  177.1150  138.2910 C   0  0  0  0  0  3  0  0  0  0  0  0
  188.9240  177.5900  138.9740 C   0  0  0  0  0  0  0  0  0  0  0  0
  190.1870  177.6030  141.0490 C   0  0  0  0  0  3  0  0  0  0  0  0
  188.9940  177.8360  140.3610 C   0  0  0  0  0  0  0  0  0  0  0  0
  191.3080  177.1280  140.3600 C   0  0  0  0  0  3  0  0  0  0  0  0
  186.6880  178.5310  140.3210 C   0  0  0  0  0  0  0  0  0  0  0  0
  186.6400  178.2810  138.9830 N   0  0  0  0  0  0  0  0  0  0  0  0
  192.4230  176.3790  138.2560 C   0  0  0  0  0  0  0  0  0  0  0  0
  193.5820  176.7470  138.5870 O   0  0  0  0  0  1  0  0  0  0  0  0
  192.2680  175.4920  137.1960 O   0  0  0  0  0  0  0  0  0  0  0  0
  1 17  1  0  0  0  0
  1 10  1  0  0  0  0
  4  5  1  0  0  0  0
  4  8  2  0  0  0  0
  5  1  2  0  0  0  0
  6 10  2  0  0  0  0
  6  7  1  0  0  0  0
  7 11  2  0  0  0  0
  8  6  1  0  0  0  0
  9 11  1  0  0  0  0
  9  3  2  0  0  0  0
 10  9  1  0  0  0  0
 12  2  1  0  0  0  0
 13 18  1  0  0  0  0
 13 12  1  0  0  0  0
 14 13  2  0  0  0  0
 15  3  1  0  0  0  0
 15  2  2  0  0  0  0
 16 14  1  0  0  0  0
 16 17  2  0  0  0  0
 17 15  1  0  0  0  0
 18 20  2  0  0  0  0
 19 18  2  0  0  0  0
 21  4  1  0  0  0  0
 22 26  2  0  0  0  0
 22 31  1  0  0  0  0
 24 29  1  0  0  0  0
 25 26  1  0  0  0  0
 25 24  2  0  0  0  0
 26 28  1  0  0  0  0
 28 23  2  0  0  0  0
 28 27  1  0  0  0  0
 29 27  2  0  0  0  0
 30 21  1  0  0  0  0
 30 23  1  0  0  0  0
 31 30  2  0  0  0  0
 32 33  1  0  0  0  0
 32 24  1  0  0  0  0
 34 32  2  0  0  0  0
M  END
>  <MODEL>
4

>  <REMARK>
 VINA RESULT:     -11.0      3.199      6.907
  Name = 
  4 active torsions:
  status: ('A' for Active; 'I' for Inactive)
    1  A    between atoms: N_3  and  C_25
    2  A    between atoms: C_7  and  C_11
    3  A    between atoms: C_8  and  C_18
    4  A    between atoms: C_18  and  C_30
                            x       y       z     vdW  Elec       q    Type
                         _______ _______ _______ _____ _____    ______ ____

>  <TORSDO>
F 4

$$$$
=
 OpenBabel10222415123D

 34 39  0  0  0  0  0  0  0  0999 V2000
  188.3650  177.6880  141.1990 C   0  0  0  0  0  0  0  0  0  0  0  0
  188.1020  177.4830  144.8860 C   0  0  0  0  0  3  0  0  0  0  0  0
  189.9460  177.5650  143.5140 N   0  0  0  0  0  0  0  0  0  0  0  0
  188.4760  177.8150  138.8100 C   0  0  0  0  0  0  0  0  0  0  0  0
  187.7490  177.8390  139.9840 N   0  0  0  0  0  0  0  0  0  0  0  0
  190.4820  177.5130  140.0860 C   0  0  0  0  0  0  0  0  0  0  0  0
  191.8590  177.4690  140.4750 N   0  0  0  0  0  0  0  0  0  0  0  0
  189.8910  177.6670  138.8320 C   0  0  0  0  0  3  0  0  0  0  0  0
  190.4890  177.4990  142.2740 C   0  0  0  0  0  0  0  0  0  0  0  0
  189.7180  177.5160  141.1880 C   0  0  0  0  0  0  0  0  0  0  0  0
  191.8640  177.4560  141.8930 N   0  0  0  0  0  0  0  0  0  0  0  0
  186.6790  177.2220  145.2440 C   0  0  0  0  0  2  0  0  0  0  0  0
  185.7710  178.3400  144.8740 C   0  0  0  0  0  0  0  0  0  0  0  0
  185.6380  178.7070  143.6010 C   0  0  0  0  0  3  0  0  0  0  0  0
  188.5760  177.6580  143.6480 C   0  0  0  0  0  0  0  0  0  0  0  0
  186.4670  178.2600  142.4670 C   0  0  0  0  0  3  0  0  0  0  0  0
  187.7390  177.8160  142.4660 C   0  0  0  0  0  0  0  0  0  0  0  0
  184.9170  178.9080  145.8780 N   0  0  0  0  0  0  0  0  0  0  0  0
  185.4420  179.3040  147.0860 O   0  0  0  0  0  0  0  0  0  0  0  0
  183.6960  179.0640  145.6650 O   0  0  0  0  0  0  0  0  0  0  0  0
  187.7730  177.9480  137.5030 C   0  0  0  0  0  2  0  0  0  0  0  0
  184.4420  176.2680  137.3140 C   0  0  0  0  0  3  0  0  0  0  0  0
  187.1280  175.5470  137.2250 C   0  0  0  0  0  3  0  0  0  0  0  0
  184.1540  172.5920  136.9350 C   0  0  0  0  0  0  0  0  0  0  0  0
  183.7970  173.9400  137.0750 C   0  0  0  0  0  3  0  0  0  0  0  0
  184.7850  174.9230  137.1700 C   0  0  0  0  0  0  0  0  0  0  0  0
  186.5050  173.2170  136.9870 C   0  0  0  0  0  3  0  0  0  0  0  0
  186.1470  174.5600  137.1250 C   0  0  0  0  0  0  0  0  0  0  0  0
  185.5120  172.2370  136.8920 C   0  0  0  0  0  3  0  0  0  0  0  0
  186.7390  176.8830  137.3620 C   0  0  0  0  0  0  0  0  0  0  0  0
  185.4180  177.2100  137.4100 N   0  0  0  0  0  0  0  0  0  0  0  0
  183.1090  171.5600  136.8380 C   0  0  0  0  0  0  0  0  0  0  0  0
  183.3990  170.3890  136.4730 O   0  0  0  0  0  0  0  0  0  0  0  0
  181.7890  171.8700  137.1470 O   0  0  0  0  0  1  0  0  0  0  0  0
  1 17  1  0  0  0  0
  2 12  1  0  0  0  0
  3 15  1  0  0  0  0
  4  8  2  0  0  0  0
  4  5  1  0  0  0  0
  5  1  2  0  0  0  0
  6  7  1  0  0  0  0
  6 10  2  0  0  0  0
  7 11  2  0  0  0  0
  8  6  1  0  0  0  0
  9  3  2  0  0  0  0
 10  1  1  0  0  0  0
 10  9  1  0  0  0  0
 11  9  1  0  0  0  0
 13 12  1  0  0  0  0
 13 18  1  0  0  0  0
 14 13  2  0  0  0  0
 15  2  2  0  0  0  0
 16 14  1  0  0  0  0
 17 16  2  0  0  0  0
 17 15  1  0  0  0  0
 18 19  2  0  0  0  0
 20 18  2  0  0  0  0
 21  4  1  0  0  0  0
 22 31  1  0  0  0  0
 23 30  1  0  0  0  0
 24 25  2  0  0  0  0
 25 26  1  0  0  0  0
 26 22  2  0  0  0  0
 27 28  1  0  0  0  0
 28 26  1  0  0  0  0
 28 23  2  0  0  0  0
 29 24  1  0  0  0  0
 29 27  2  0  0  0  0
 30 31  2  0  0  0  0
 30 21  1  0  0  0  0
 32 24  1  0  0  0  0
 32 34  1  0  0  0  0
 33 32  2  0  0  0  0
M  END
>  <MODEL>
5

>  <REMARK>
 VINA RESULT:     -10.9      4.485      7.183
  Name = 
  4 active torsions:
  status: ('A' for Active; 'I' for Inactive)
    1  A    between atoms: N_3  and  C_25
    2  A    between atoms: C_7  and  C_11
    3  A    between atoms: C_8  and  C_18
    4  A    between atoms: C_18  and  C_30
                            x       y       z     vdW  Elec       q    Type
                         _______ _______ _______ _____ _____    ______ ____

>  <TORSDO>
F 4

$$$$
=
 OpenBabel10222415123D

 34 39  0  0  0  0  0  0  0  0999 V2000
  186.7120  178.1820  141.3580 C   0  0  0  0  0  0  0  0  0  0  0  0
  189.0090  177.4060  138.5600 C   0  0  0  0  0  3  0  0  0  0  0  0
  186.9650  178.4600  138.5780 N   0  0  0  0  0  0  0  0  0  0  0  0
  185.2620  178.6540  143.2050 C   0  0  0  0  0  0  0  0  0  0  0  0
  186.4700  178.2050  142.7070 N   0  0  0  0  0  0  0  0  0  0  0  0
  184.5280  179.0920  140.9660 C   0  0  0  0  0  0  0  0  0  0  0  0
  183.8030  179.6020  139.8420 N   0  0  0  0  0  0  0  0  0  0  0  0
  184.2470  179.1350  142.3310 C   0  0  0  0  0  3  0  0  0  0  0  0
  185.8270  178.7990  139.2280 C   0  0  0  0  0  0  0  0  0  0  0  0
  185.7100  178.6190  140.5430 C   0  0  0  0  0  0  0  0  0  0  0  0
  184.6420  179.4090  138.7150 N   0  0  0  0  0  0  0  0  0  0  0  0
  190.0840  176.5070  139.0680 C   0  0  0  0  0  2  0  0  0  0  0  0
  190.9530  177.1550  140.0860 C   0  0  0  0  0  0  0  0  0  0  0  0
  190.4380  177.5900  141.2340 C   0  0  0  0  0  3  0  0  0  0  0  0
  188.0190  177.9290  139.2910 C   0  0  0  0  0  0  0  0  0  0  0  0
  189.0060  177.7000  141.5670 C   0  0  0  0  0  3  0  0  0  0  0  0
  187.9510  177.8580  140.7450 C   0  0  0  0  0  0  0  0  0  0  0  0
  192.3750  177.1590  139.8910 N   0  0  0  0  0  0  0  0  0  0  0  0
  192.9120  176.6760  138.7190 O   0  0  0  0  0  0  0  0  0  0  0  0
  193.1400  177.6100  140.7690 O   0  0  0  0  0  0  0  0  0  0  0  0
  185.0170  178.6360  144.6740 C   0  0  0  0  0  2  0  0  0  0  0  0
  187.3700  177.8210  147.4590 C   0  0  0  0  0  3  0  0  0  0  0  0
  187.3880  177.8370  144.6770 C   0  0  0  0  0  3  0  0  0  0  0  0
  190.8410  176.7060  146.7890 C   0  0  0  0  0  0  0  0  0  0  0  0
  189.6790  177.0740  147.4820 C   0  0  0  0  0  3  0  0  0  0  0  0
  188.5310  177.4490  146.7800 C   0  0  0  0  0  0  0  0  0  0  0  0
  189.6940  177.0920  144.6780 C   0  0  0  0  0  3  0  0  0  0  0  0
  188.5370  177.4570  145.3700 C   0  0  0  0  0  0  0  0  0  0  0  0
  190.8410  176.7180  145.3850 C   0  0  0  0  0  3  0  0  0  0  0  0
  186.2440  178.1960  145.3970 C   0  0  0  0  0  0  0  0  0  0  0  0
  186.2620  178.1870  146.7590 N   0  0  0  0  0  0  0  0  0  0  0  0
  192.0480  176.3150  147.5330 C   0  0  0  0  0  0  0  0  0  0  0  0
  192.4420  176.9960  148.5180 O   0  0  0  0  0  1  0  0  0  0  0  0
  192.7700  175.1880  147.1530 O   0  0  0  0  0  0  0  0  0  0  0  0
  1  5  1  0  0  0  0
  2 12  1  0  0  0  0
  2 15  2  0  0  0  0
  3  9  2  0  0  0  0
  3 15  1  0  0  0  0
  4 21  1  0  0  0  0
  5  4  2  0  0  0  0
  6  8  2  0  0  0  0
  7  6  1  0  0  0  0
  8  4  1  0  0  0  0
  9 10  1  0  0  0  0
 10  6  1  0  0  0  0
 10  1  2  0  0  0  0
 11  9  1  0  0  0  0
 11  7  2  0  0  0  0
 12 13  1  0  0  0  0
 13 14  2  0  0  0  0
 14 16  1  0  0  0  0
 15 17  1  0  0  0  0
 17  1  1  0  0  0  0
 17 16  2  0  0  0  0
 18 13  1  0  0  0  0
 18 20  2  0  0  0  0
 19 18  2  0  0  0  0
 21 30  1  0  0  0  0
 23 28  1  0  0  0  0
 23 30  2  0  0  0  0
 24 25  1  0  0  0  0
 24 32  1  0  0  0  0
 26 22  1  0  0  0  0
 26 25  2  0  0  0  0
 27 28  2  0  0  0  0
 27 29  1  0  0  0  0
 28 26  1  0  0  0  0
 29 24  2  0  0  0  0
 30 31  1  0  0  0  0
 31 22  2  0  0  0  0
 32 33  1  0  0  0  0
 34 32  2  0  0  0  0
M  END
>  <MODEL>
6

>  <REMARK>
 VINA RESULT:     -10.8      3.536      6.789
  Name = 
  4 active torsions:
  status: ('A' for Active; 'I' for Inactive)
    1  A    between atoms: N_3  and  C_25
    2  A    between atoms: C_7  and  C_11
    3  A    between atoms: C_8  and  C_18
    4  A    between atoms: C_18  and  C_30
                            x       y       z     vdW  Elec       q    Type
                         _______ _______ _______ _____ _____    ______ ____

>  <TORSDO>
F 4

$$$$
=
 OpenBabel10222415123D

 34 39  0  0  0  0  0  0  0  0999 V2000
  188.7760  177.7320  142.8720 C   0  0  0  0  0  0  0  0  0  0  0  0
  190.0530  177.7050  139.3980 C   0  0  0  0  0  3  0  0  0  0  0  0
  190.9160  176.7890  141.3220 N   0  0  0  0  0  0  0  0  0  0  0  0
  187.9060  177.7860  145.1030 C   0  0  0  0  0  0  0  0  0  0  0  0
  187.7720  178.0430  143.7520 N   0  0  0  0  0  0  0  0  0  0  0  0
  190.0800  176.8640  144.6890 C   0  0  0  0  0  0  0  0  0  0  0  0
  191.3050  176.1390  144.8330 N   0  0  0  0  0  0  0  0  0  0  0  0
  189.0790  177.1620  145.6140 C   0  0  0  0  0  3  0  0  0  0  0  0
  190.9060  176.6710  142.6720 C   0  0  0  0  0  0  0  0  0  0  0  0
  189.9010  177.1640  143.3930 C   0  0  0  0  0  0  0  0  0  0  0  0
  191.8430  176.0160  143.5270 N   0  0  0  0  0  0  0  0  0  0  0  0
  189.2290  178.6450  138.5850 C   0  0  0  0  0  2  0  0  0  0  0  0
  187.8110  178.2150  138.4570 C   0  0  0  0  0  0  0  0  0  0  0  0
  187.0440  178.0920  139.5390 C   0  0  0  0  0  3  0  0  0  0  0  0
  189.8650  177.4210  140.6900 C   0  0  0  0  0  0  0  0  0  0  0  0
  187.4920  178.1350  140.9420 C   0  0  0  0  0  3  0  0  0  0  0  0
  188.7000  177.8390  141.4590 C   0  0  0  0  0  0  0  0  0  0  0  0
  187.2320  178.0940  137.1490 N   0  0  0  0  0  0  0  0  0  0  0  0
  186.2600  177.1500  136.9090 O   0  0  0  0  0  0  0  0  0  0  0  0
  187.5890  178.8490  136.2200 O   0  0  0  0  0  0  0  0  0  0  0  0
  186.8110  178.1660  146.0390 C   0  0  0  0  0  2  0  0  0  0  0  0
  183.2720  179.1010  145.2920 C   0  0  0  0  0  3  0  0  0  0  0  0
  185.4920  178.1460  143.9130 C   0  0  0  0  0  3  0  0  0  0  0  0
  181.8760  178.7970  141.8720 C   0  0  0  0  0  0  0  0  0  0  0  0
  181.9680  179.0610  143.2460 C   0  0  0  0  0  3  0  0  0  0  0  0
  183.1700  178.8460  143.9240 C   0  0  0  0  0  0  0  0  0  0  0  0
  184.2060  178.0980  141.8590 C   0  0  0  0  0  3  0  0  0  0  0  0
  184.2960  178.3620  143.2270 C   0  0  0  0  0  0  0  0  0  0  0  0
  183.0010  178.3150  141.1850 C   0  0  0  0  0  3  0  0  0  0  0  0
  185.5510  178.4210  145.2830 C   0  0  0  0  0  0  0  0  0  0  0  0
  184.4490  178.8810  145.9370 N   0  0  0  0  0  0  0  0  0  0  0  0
  180.6070  179.0230  141.1630 C   0  0  0  0  0  0  0  0  0  0  0  0
  180.5810  179.0920  139.9040 O   0  0  0  0  0  0  0  0  0  0  0  0
  179.4220  179.1640  141.8760 O   0  0  0  0  0  1  0  0  0  0  0  0
  1 10  2  0  0  0  0
  1  5  1  0  0  0  0
  2 15  2  0  0  0  0
  3  9  2  0  0  0  0
  4  8  1  0  0  0  0
  4 21  1  0  0  0  0
  5  4  2  0  0  0  0
  6  7  1  0  0  0  0
  6  8  2  0  0  0  0
  9 10  1  0  0  0  0
  9 11  1  0  0  0  0
 10  6  1  0  0  0  0
 11  7  2  0  0  0  0
 12  2  1  0  0  0  0
 13 12  1  0  0  0  0
 13 14  2  0  0  0  0
 14 16  1  0  0  0  0
 15  3  1  0  0  0  0
 15 17  1  0  0  0  0
 16 17  2  0  0  0  0
 17  1  1  0  0  0  0
 18 13  1  0  0  0  0
 19 18  2  0  0  0  0
 20 18  2  0  0  0  0
 22 31  1  0  0  0  0
 23 30  1  0  0  0  0
 24 25  2  0  0  0  0
 25 26  1  0  0  0  0
 26 22  2  0  0  0  0
 27 28  1  0  0  0  0
 28 23  2  0  0  0  0
 28 26  1  0  0  0  0
 29 27  2  0  0  0  0
 29 24  1  0  0  0  0
 30 31  2  0  0  0  0
 30 21  1  0  0  0  0
 32 24  1  0  0  0  0
 32 34  1  0  0  0  0
 33 32  2  0  0  0  0
M  END
>  <MODEL>
7

>  <REMARK>
 VINA RESULT:     -10.4      1.590      2.388
  Name = 
  4 active torsions:
  status: ('A' for Active; 'I' for Inactive)
    1  A    between atoms: N_3  and  C_25
    2  A    between atoms: C_7  and  C_11
    3  A    between atoms: C_8  and  C_18
    4  A    between atoms: C_18  and  C_30
                            x       y       z     vdW  Elec       q    Type
                         _______ _______ _______ _____ _____    ______ ____

>  <TORSDO>
F 4

$$$$
=
 OpenBabel10222415123D

 34 39  0  0  0  0  0  0  0  0999 V2000
  188.0090  177.4580  145.4340 C   0  0  0  0  0  0  0  0  0  0  0  0
  184.5110  178.5020  146.0510 C   0  0  0  0  0  3  0  0  0  0  0  0
  186.3730  178.6210  147.3950 N   0  0  0  0  0  0  0  0  0  0  0  0
  190.2550  176.7590  144.9830 C   0  0  0  0  0  0  0  0  0  0  0  0
  188.9580  176.9850  144.5650 N   0  0  0  0  0  0  0  0  0  0  0  0
  189.6570  177.5180  147.1770 C   0  0  0  0  0  0  0  0  0  0  0  0
  189.7310  178.0130  148.5180 N   0  0  0  0  0  0  0  0  0  0  0  0
  190.6500  177.0420  146.3210 C   0  0  0  0  0  3  0  0  0  0  0  0
  187.6600  178.2810  147.6480 C   0  0  0  0  0  0  0  0  0  0  0  0
  188.4070  177.6900  146.7180 C   0  0  0  0  0  0  0  0  0  0  0  0
  188.4370  178.5040  148.8260 N   0  0  0  0  0  0  0  0  0  0  0  0
  183.6620  177.9870  144.9400 C   0  0  0  0  0  2  0  0  0  0  0  0
  183.9980  178.5890  143.6220 C   0  0  0  0  0  0  0  0  0  0  0  0
  185.2100  178.4280  143.0960 C   0  0  0  0  0  3  0  0  0  0  0  0
  185.8370  178.3570  146.1520 C   0  0  0  0  0  0  0  0  0  0  0  0
  186.3930  177.8690  143.7740 C   0  0  0  0  0  3  0  0  0  0  0  0
  186.6870  177.8390  145.0880 C   0  0  0  0  0  0  0  0  0  0  0  0
  182.9550  179.2040  142.8500 N   0  0  0  0  0  0  0  0  0  0  0  0
  182.8730  178.9730  141.4950 O   0  0  0  0  0  0  0  0  0  0  0  0
  182.1050  179.9390  143.3930 O   0  0  0  0  0  0  0  0  0  0  0  0
  191.2550  176.2130  144.0230 C   0  0  0  0  0  2  0  0  0  0  0  0
  191.7200  177.3600  140.4990 C   0  0  0  0  0  3  0  0  0  0  0  0
  189.6160  176.8840  142.2560 C   0  0  0  0  0  3  0  0  0  0  0  0
  188.8260  178.2670  138.3670 C   0  0  0  0  0  0  0  0  0  0  0  0
  190.1470  178.0430  138.7810 C   0  0  0  0  0  3  0  0  0  0  0  0
  190.4090  177.5820  140.0740 C   0  0  0  0  0  0  0  0  0  0  0  0
  188.0280  177.5640  140.5560 C   0  0  0  0  0  3  0  0  0  0  0  0
  189.3450  177.3400  140.9660 C   0  0  0  0  0  0  0  0  0  0  0  0
  187.7710  178.0250  139.2610 C   0  0  0  0  0  3  0  0  0  0  0  0
  190.9440  176.6690  142.6380 C   0  0  0  0  0  0  0  0  0  0  0  0
  191.9570  176.9150  141.7620 N   0  0  0  0  0  0  0  0  0  0  0  0
  188.5550  178.7540  137.0060 C   0  0  0  0  0  0  0  0  0  0  0  0
  187.6290  179.5840  136.7960 O   0  0  0  0  0  1  0  0  0  0  0  0
  189.3180  178.3020  135.9350 O   0  0  0  0  0  0  0  0  0  0  0  0
  1 10  1  0  0  0  0
  2 15  2  0  0  0  0
  3  9  2  0  0  0  0
  4  8  2  0  0  0  0
  5  4  1  0  0  0  0
  5  1  2  0  0  0  0
  6  7  1  0  0  0  0
  7 11  2  0  0  0  0
  8  6  1  0  0  0  0
  9 11  1  0  0  0  0
 10  6  2  0  0  0  0
 10  9  1  0  0  0  0
 12  2  1  0  0  0  0
 13 12  1  0  0  0  0
 14 13  2  0  0  0  0
 14 16  1  0  0  0  0
 15  3  1  0  0  0  0
 16 17  2  0  0  0  0
 17  1  1  0  0  0  0
 17 15  1  0  0  0  0
 18 20  2  0  0  0  0
 18 13  1  0  0  0  0
 19 18  2  0  0  0  0
 21  4  1  0  0  0  0
 22 31  1  0  0  0  0
 23 30  1  0  0  0  0
 24 25  2  0  0  0  0
 24 29  1  0  0  0  0
 25 26  1  0  0  0  0
 26 22  2  0  0  0  0
 26 28  1  0  0  0  0
 27 28  1  0  0  0  0
 28 23  2  0  0  0  0
 29 27  2  0  0  0  0
 30 21  1  0  0  0  0
 31 30  2  0  0  0  0
 32 24  1  0  0  0  0
 33 32  1  0  0  0  0
 34 32  2  0  0  0  0
M  END
>  <MODEL>
8

>  <REMARK>
 VINA RESULT:     -10.3      1.847      6.172
  Name = 
  4 active torsions:
  status: ('A' for Active; 'I' for Inactive)
    1  A    between atoms: N_3  and  C_25
    2  A    between atoms: C_7  and  C_11
    3  A    between atoms: C_8  and  C_18
    4  A    between atoms: C_18  and  C_30
                            x       y       z     vdW  Elec       q    Type
                         _______ _______ _______ _____ _____    ______ ____

>  <TORSDO>
F 4

$$$$
=
 OpenBabel10222415123D

 34 39  0  0  0  0  0  0  0  0999 V2000
  188.4870  177.5690  141.3120 C   0  0  0  0  0  0  0  0  0  0  0  0
  188.1050  177.4840  144.9940 C   0  0  0  0  0  3  0  0  0  0  0  0
  189.9910  177.5630  143.6810 N   0  0  0  0  0  0  0  0  0  0  0  0
  188.6760  177.6160  138.9250 C   0  0  0  0  0  0  0  0  0  0  0  0
  187.9090  177.6620  140.0730 N   0  0  0  0  0  0  0  0  0  0  0  0
  190.6440  177.4060  140.2760 C   0  0  0  0  0  0  0  0  0  0  0  0
  192.0080  177.4090  140.7120 N   0  0  0  0  0  0  0  0  0  0  0  0
  190.0930  177.5030  138.9990 C   0  0  0  0  0  3  0  0  0  0  0  0
  190.5770  177.4690  142.4630 C   0  0  0  0  0  0  0  0  0  0  0  0
  189.8430  177.4280  141.3520 C   0  0  0  0  0  0  0  0  0  0  0  0
  191.9650  177.4450  142.1290 N   0  0  0  0  0  0  0  0  0  0  0  0
  186.6760  177.2010  145.3130 C   0  0  0  0  0  2  0  0  0  0  0  0
  185.7560  178.2840  144.8740 C   0  0  0  0  0  0  0  0  0  0  0  0
  185.6580  178.6040  143.5850 C   0  0  0  0  0  3  0  0  0  0  0  0
  188.6160  177.6280  143.7670 C   0  0  0  0  0  0  0  0  0  0  0  0
  186.5350  178.1380  142.4960 C   0  0  0  0  0  3  0  0  0  0  0  0
  187.8160  177.7240  142.5530 C   0  0  0  0  0  0  0  0  0  0  0  0
  184.8550  178.8650  145.8290 N   0  0  0  0  0  0  0  0  0  0  0  0
  183.5470  179.1120  145.4820 O   0  0  0  0  0  0  0  0  0  0  0  0
  185.2390  179.1390  146.9850 O   0  0  0  0  0  0  0  0  0  0  0  0
  188.0140  177.6870  137.5920 C   0  0  0  0  0  2  0  0  0  0  0  0
  184.5210  176.3940  137.3170 C   0  0  0  0  0  3  0  0  0  0  0  0
  185.8250  178.6090  138.3780 C   0  0  0  0  0  3  0  0  0  0  0  0
  181.6450  178.2960  138.6780 C   0  0  0  0  0  0  0  0  0  0  0  0
  182.3850  177.2860  138.0460 C   0  0  0  0  0  3  0  0  0  0  0  0
  183.7740  177.3900  137.9480 C   0  0  0  0  0  0  0  0  0  0  0  0
  183.7030  179.5200  139.1140 C   0  0  0  0  0  3  0  0  0  0  0  0
  184.4380  178.5120  138.4850 C   0  0  0  0  0  0  0  0  0  0  0  0
  182.3120  179.4110  139.2100 C   0  0  0  0  0  3  0  0  0  0  0  0
  186.5340  177.5850  137.7440 C   0  0  0  0  0  0  0  0  0  0  0  0
  185.8720  176.5130  137.2270 N   0  0  0  0  0  0  0  0  0  0  0  0
  180.1820  178.1840  138.7770 C   0  0  0  0  0  0  0  0  0  0  0  0
  179.4970  177.8360  137.7780 O   0  0  0  0  0  0  0  0  0  0  0  0
  179.5380  178.4640  139.9780 O   0  0  0  0  0  1  0  0  0  0  0  0
  1 10  1  0  0  0  0
  1 17  1  0  0  0  0
  2 12  1  0  0  0  0
  3 15  1  0  0  0  0
  4  8  2  0  0  0  0
  4  5  1  0  0  0  0
  5  1  2  0  0  0  0
  6  7  1  0  0  0  0
  6 10  2  0  0  0  0
  7 11  2  0  0  0  0
  8  6  1  0  0  0  0
  9  3  2  0  0  0  0
 10  9  1  0  0  0  0
 11  9  1  0  0  0  0
 13 12  1  0  0  0  0
 13 18  1  0  0  0  0
 14 13  2  0  0  0  0
 15  2  2  0  0  0  0
 16 17  2  0  0  0  0
 16 14  1  0  0  0  0
 17 15  1  0  0  0  0
 18 20  2  0  0  0  0
 19 18  2  0  0  0  0
 21 30  1  0  0  0  0
 21  4  1  0  0  0  0
 22 26  1  0  0  0  0
 23 28  1  0  0  0  0
 24 32  1  0  0  0  0
 24 29  1  0  0  0  0
 25 24  2  0  0  0  0
 26 25  1  0  0  0  0
 26 28  2  0  0  0  0
 27 29  2  0  0  0  0
 28 27  1  0  0  0  0
 30 23  2  0  0  0  0
 31 22  2  0  0  0  0
 31 30  1  0  0  0  0
 32 34  1  0  0  0  0
 33 32  2  0  0  0  0
M  END
>  <MODEL>
9

>  <REMARK>
 VINA RESULT:     -10.3      3.178      6.182
  Name = 
  4 active torsions:
  status: ('A' for Active; 'I' for Inactive)
    1  A    between atoms: N_3  and  C_25
    2  A    between atoms: C_7  and  C_11
    3  A    between atoms: C_8  and  C_18
    4  A    between atoms: C_18  and  C_30
                            x       y       z     vdW  Elec       q    Type
                         _______ _______ _______ _____ _____    ______ ____

>  <TORSDO>
F 4

$$$$
