=
 OpenBabel10222420173D

 27 31  0  0  1  0  0  0  0  0999 V2000
  188.6010  178.6950  139.6210 C   0  0  0  0  0  2  0  0  0  0  0  0
  191.4360  176.3870  142.5590 C   0  0  0  0  0  3  0  0  0  0  0  0
  188.2210  176.6640  142.8060 C   0  0  2  0  0  3  0  0  0  0  0  0
  190.0820  176.9900  140.5380 C   0  0  2  0  0  3  0  0  0  0  0  0
  188.9850  177.7310  138.5280 C   0  0  0  0  0  2  0  0  0  0  0  0
  189.0880  178.1420  144.6480 C   0  0  2  0  0  3  0  0  0  0  0  0
  186.1110  177.8400  143.1410 C   0  0  1  0  0  3  0  0  0  0  0  0
  192.5020  176.9220  140.5410 O   0  0  0  0  0  1  0  0  0  0  0  0
  188.1730  177.4250  145.5980 C   0  0  0  0  0  0  0  0  0  0  0  0
  191.3820  177.2250  141.3180 C   0  0  2  0  0  3  0  0  0  0  0  0
  187.8830  177.4150  141.5890 N   0  0  1  0  0  0  0  0  0  0  0  0
  188.3570  177.4820  147.0780 C   0  0  0  0  0  1  0  0  0  0  0  0
  186.9660  178.4500  142.0470 C   0  0  0  0  0  2  0  0  0  0  0  0
  190.5520  176.4320  143.5540 C   0  0  0  0  0  3  0  0  0  0  0  0
  187.2070  176.7280  145.1040 N   0  0  0  0  0  0  0  0  0  0  0  0
  186.9400  176.6630  143.6700 C   0  0  2  0  0  3  0  0  0  0  0  0
  189.3740  177.2460  143.5220 N   0  0  0  0  0  0  0  0  0  0  0  0
  190.2580  177.0970  139.0310 C   0  0  0  0  0  2  0  0  0  0  0  0
  189.0370  178.0420  140.9290 C   0  0  2  0  0  3  0  0  0  0  0  0
  190.3390  178.7280  145.2910 C   0  0  0  0  0  2  0  0  0  0  0  0
  191.0490  179.5970  144.3060 C   0  0  0  0  0  3  0  0  0  0  0  0
  192.3190  179.5100  144.1780 N   0  0  0  0  0  2  0  0  0  0  0  0
  185.7370  178.8950  144.1780 C   0  0  0  0  0  2  0  0  0  0  0  0
  183.3630  178.9890  144.8480 C   0  0  0  0  0  2  0  0  0  0  0  0
  182.3210  178.9720  142.6090 C   0  0  0  0  0  1  0  0  0  0  0  0
  184.3850  179.5030  143.8590 C   0  0  2  0  0  3  0  0  0  0  0  0
  183.4390  178.3950  143.4570 C   0  0  1  0  0  3  0  0  0  0  0  0
  2 14  2  0  0  0  0
  3 17  1  1  0  0  0
  3 16  1  0  0  0  0
  4 18  1  6  0  0  0
  4 19  1  0  0  0  0
  4 10  1  0  0  0  0
  5 18  1  0  0  0  0
  5  1  1  0  0  0  0
  6 20  1  1  0  0  0
  6  9  1  0  0  0  0
  7 16  1  0  0  0  0
  7 23  1  1  0  0  0
  9 12  1  0  0  0  0
 10  8  1  6  0  0  0
 10  2  1  0  0  0  0
 11 13  1  1  0  0  0
 11  3  1  0  0  0  0
 13  7  1  0  0  0  0
 15  9  2  0  0  0  0
 16 15  1  1  0  0  0
 17 14  1  0  0  0  0
 17  6  1  0  0  0  0
 19  1  1  6  0  0  0
 19 11  1  0  0  0  0
 21 20  1  0  0  0  0
 22 21  2  0  0  0  0
 26 23  1  1  0  0  0
 26 24  1  0  0  0  0
 27 25  1  6  0  0  0
 27 26  1  0  0  0  0
 27 24  1  0  0  0  0
M  END
>  <MODEL>
1

>  <REMARK>
 VINA RESULT:      -6.7      0.000      0.000
  Name = 
  4 active torsions:
  status: ('A' for Active; 'I' for Inactive)
    1  A    between atoms: C_5  and  C_8
    2  A    between atoms: C_8  and  C_9
    3  A    between atoms: C_10  and  C_18
    4  A    between atoms: C_18  and  C_20
                            x       y       z     vdW  Elec       q    Type
                         _______ _______ _______ _____ _____    ______ ____

>  <TORSDO>
F 4

$$$$
=
 OpenBabel10222420173D

 27 31  0  0  1  0  0  0  0  0999 V2000
  188.3090  177.8450  138.7540 C   0  0  0  0  0  2  0  0  0  0  0  0
  184.8430  177.3160  135.6390 C   0  0  0  0  0  3  0  0  0  0  0  0
  184.6450  178.8090  138.5020 C   0  0  2  0  0  3  0  0  0  0  0  0
  186.9300  178.1270  136.7640 C   0  0  2  0  0  3  0  0  0  0  0  0
  189.0540  178.6850  137.7490 C   0  0  0  0  0  2  0  0  0  0  0  0
  183.3660  176.6720  138.8570 C   0  0  2  0  0  3  0  0  0  0  0  0
  184.6580  178.9580  140.9370 C   0  0  1  0  0  3  0  0  0  0  0  0
  186.9440  176.8420  134.7120 O   0  0  0  0  0  1  0  0  0  0  0  0
  182.2270  177.4910  139.3910 C   0  0  0  0  0  0  0  0  0  0  0  0
  186.2820  177.0150  135.9300 C   0  0  2  0  0  3  0  0  0  0  0  0
  186.0290  178.7280  138.9880 N   0  0  1  0  0  0  0  0  0  0  0  0
  180.8400  176.9490  139.5030 C   0  0  0  0  0  1  0  0  0  0  0  0
  185.9020  178.2950  140.3730 C   0  0  0  0  0  2  0  0  0  0  0  0
  183.8970  177.5040  136.5570 C   0  0  0  0  0  3  0  0  0  0  0  0
  182.4640  178.7060  139.7480 N   0  0  0  0  0  0  0  0  0  0  0  0
  183.8040  179.2880  139.7070 C   0  0  2  0  0  3  0  0  0  0  0  0
  184.1620  177.5210  137.9650 N   0  0  0  0  0  0  0  0  0  0  0  0
  188.3980  178.3480  136.4330 C   0  0  0  0  0  2  0  0  0  0  0  0
  186.8700  177.7700  138.2540 C   0  0  2  0  0  3  0  0  0  0  0  0
  182.9560  175.3460  138.2270 C   0  0  0  0  0  2  0  0  0  0  0  0
  184.1720  174.5230  137.9550 C   0  0  0  0  0  3  0  0  0  0  0  0
  184.2570  173.8530  136.8670 N   0  0  0  0  0  2  0  0  0  0  0  0
  183.9940  178.0560  141.9730 C   0  0  0  0  0  2  0  0  0  0  0  0
  184.8910  179.8080  143.4620 C   0  0  0  0  0  2  0  0  0  0  0  0
  184.4750  178.7250  145.6410 C   0  0  0  0  0  1  0  0  0  0  0  0
  183.7750  178.8050  143.2730 C   0  0  2  0  0  3  0  0  0  0  0  0
  184.9200  178.4920  144.2090 C   0  0  1  0  0  3  0  0  0  0  0  0
  2 10  1  0  0  0  0
  2 14  2  0  0  0  0
  3 17  1  1  0  0  0
  3 11  1  0  0  0  0
  3 16  1  0  0  0  0
  4 18  1  6  0  0  0
  4 19  1  0  0  0  0
  5  1  1  0  0  0  0
  6 20  1  6  0  0  0
  6  9  1  0  0  0  0
  7 23  1  1  0  0  0
  9 12  1  0  0  0  0
  9 15  2  0  0  0  0
 10  8  1  6  0  0  0
 10  4  1  0  0  0  0
 11 13  1  1  0  0  0
 13  7  1  0  0  0  0
 14 17  1  0  0  0  0
 16 15  1  1  0  0  0
 16  7  1  0  0  0  0
 17  6  1  0  0  0  0
 18  5  1  0  0  0  0
 19  1  1  1  0  0  0
 19 11  1  0  0  0  0
 21 20  1  0  0  0  0
 22 21  2  0  0  0  0
 24 27  1  0  0  0  0
 26 23  1  6  0  0  0
 26 24  1  0  0  0  0
 26 27  1  0  0  0  0
 27 25  1  1  0  0  0
M  END
>  <MODEL>
2

>  <REMARK>
 VINA RESULT:      -6.1      4.157      6.755
  Name = 
  4 active torsions:
  status: ('A' for Active; 'I' for Inactive)
    1  A    between atoms: C_5  and  C_8
    2  A    between atoms: C_8  and  C_9
    3  A    between atoms: C_10  and  C_18
    4  A    between atoms: C_18  and  C_20
                            x       y       z     vdW  Elec       q    Type
                         _______ _______ _______ _____ _____    ______ ____

>  <TORSDO>
F 4

$$$$
=
 OpenBabel10222420173D

 27 31  0  0  1  0  0  0  0  0999 V2000
  186.0920  179.2040  146.3940 C   0  0  0  0  0  2  0  0  0  0  0  0
  185.1670  178.1070  141.9290 C   0  0  0  0  0  3  0  0  0  0  0  0
  187.4770  176.8140  143.7880 C   0  0  2  0  0  3  0  0  0  0  0  0
  184.9950  178.2800  144.4230 C   0  0  2  0  0  3  0  0  0  0  0  0
  184.7290  178.6910  146.7800 C   0  0  0  0  0  2  0  0  0  0  0  0
  188.7550  178.2560  142.1720 C   0  0  2  0  0  3  0  0  0  0  0  0
  189.5410  176.8090  145.0880 C   0  0  1  0  0  3  0  0  0  0  0  0
  183.4380  179.3500  142.9100 O   0  0  0  0  0  1  0  0  0  0  0  0
  189.6250  177.0720  141.8670 C   0  0  0  0  0  0  0  0  0  0  0  0
  184.7750  178.9840  143.0790 C   0  0  2  0  0  3  0  0  0  0  0  0
  187.2430  177.4790  145.0770 N   0  0  1  0  0  0  0  0  0  0  0  0
  190.4800  177.0040  140.6440 C   0  0  0  0  0  1  0  0  0  0  0  0
  188.5680  177.8930  145.5170 C   0  0  0  0  0  2  0  0  0  0  0  0
  186.3810  177.5960  141.7320 C   0  0  0  0  0  3  0  0  0  0  0  0
  189.6150  176.0800  142.6900 N   0  0  0  0  0  0  0  0  0  0  0  0
  188.8390  176.0960  143.9270 C   0  0  2  0  0  3  0  0  0  0  0  0
  187.4620  177.7620  142.6570 N   0  0  0  0  0  0  0  0  0  0  0  0
  183.9680  178.6620  145.4770 C   0  0  0  0  0  2  0  0  0  0  0  0
  186.3670  178.6570  144.9960 C   0  0  2  0  0  3  0  0  0  0  0  0
  188.6320  179.2640  141.0350 C   0  0  0  0  0  2  0  0  0  0  0  0
  188.4190  178.5400  139.7450 C   0  0  0  0  0  3  0  0  0  0  0  0
  188.8420  179.0520  138.6510 N   0  0  0  0  0  2  0  0  0  0  0  0
  190.9030  177.4130  144.7580 C   0  0  0  0  0  2  0  0  0  0  0  0
  191.9030  175.3140  145.5870 C   0  0  0  0  0  2  0  0  0  0  0  0
  192.2690  175.9540  147.9430 C   0  0  0  0  0  1  0  0  0  0  0  0
  191.9800  176.8230  145.6480 C   0  0  2  0  0  3  0  0  0  0  0  0
  191.3140  176.0560  146.7680 C   0  0  1  0  0  3  0  0  0  0  0  0
  1  5  1  0  0  0  0
  2 10  1  0  0  0  0
  3 17  1  6  0  0  0
  3 16  1  0  0  0  0
  3 11  1  0  0  0  0
  4 19  1  0  0  0  0
  4 18  1  1  0  0  0
  6 20  1  6  0  0  0
  6 17  1  0  0  0  0
  7 23  1  6  0  0  0
  7 13  1  0  0  0  0
  9  6  1  0  0  0  0
  9 15  2  0  0  0  0
 10  8  1  6  0  0  0
 10  4  1  0  0  0  0
 11 13  1  6  0  0  0
 12  9  1  0  0  0  0
 14  2  2  0  0  0  0
 14 17  1  0  0  0  0
 16 15  1  6  0  0  0
 16  7  1  0  0  0  0
 18  5  1  0  0  0  0
 19 11  1  0  0  0  0
 19  1  1  1  0  0  0
 21 20  1  0  0  0  0
 22 21  2  0  0  0  0
 24 26  1  0  0  0  0
 24 27  1  0  0  0  0
 26 23  1  6  0  0  0
 26 27  1  0  0  0  0
 27 25  1  1  0  0  0
M  END
>  <MODEL>
3

>  <REMARK>
 VINA RESULT:      -5.7      2.607      6.455
  Name = 
  4 active torsions:
  status: ('A' for Active; 'I' for Inactive)
    1  A    between atoms: C_5  and  C_8
    2  A    between atoms: C_8  and  C_9
    3  A    between atoms: C_10  and  C_18
    4  A    between atoms: C_18  and  C_20
                            x       y       z     vdW  Elec       q    Type
                         _______ _______ _______ _____ _____    ______ ____

>  <TORSDO>
F 4

$$$$
=
 OpenBabel10222420173D

 27 31  0  0  1  0  0  0  0  0999 V2000
  189.9570  178.3270  146.9270 C   0  0  0  0  0  2  0  0  0  0  0  0
  185.9800  177.5600  144.5640 C   0  0  0  0  0  3  0  0  0  0  0  0
  188.9300  176.5030  143.7590 C   0  0  2  0  0  3  0  0  0  0  0  0
  187.7740  177.4370  146.3090 C   0  0  2  0  0  3  0  0  0  0  0  0
  189.3940  177.5450  148.0860 C   0  0  0  0  0  2  0  0  0  0  0  0
  188.4650  178.3090  142.0710 C   0  0  2  0  0  3  0  0  0  0  0  0
  191.2510  176.7250  143.0430 C   0  0  1  0  0  3  0  0  0  0  0  0
  185.5800  178.3700  146.7280 O   0  0  0  0  0  1  0  0  0  0  0  0
  188.8300  177.3340  140.9890 C   0  0  0  0  0  0  0  0  0  0  0  0
  186.5800  178.2290  145.7620 C   0  0  2  0  0  3  0  0  0  0  0  0
  189.7450  176.9780  144.8860 N   0  0  1  0  0  0  0  0  0  0  0  0
  188.4440  177.5460  139.5620 C   0  0  0  0  0  1  0  0  0  0  0  0
  190.9190  177.5700  144.2590 C   0  0  0  0  0  2  0  0  0  0  0  0
  186.6250  177.2930  143.4300 C   0  0  0  0  0  3  0  0  0  0  0  0
  189.4860  176.2750  141.3190 N   0  0  0  0  0  0  0  0  0  0  0  0
  189.9340  176.0250  142.6860 C   0  0  2  0  0  3  0  0  0  0  0  0
  188.0220  177.5480  143.2440 N   0  0  0  0  0  0  0  0  0  0  0  0
  187.9090  177.5200  147.8220 C   0  0  0  0  0  2  0  0  0  0  0  0
  189.0810  177.9860  145.7260 C   0  0  2  0  0  3  0  0  0  0  0  0
  187.4820  179.3930  141.6440 C   0  0  0  0  0  2  0  0  0  0  0  0
  186.2240  178.7610  141.1470 C   0  0  0  0  0  3  0  0  0  0  0  0
  185.3790  179.4590  140.4860 N   0  0  0  0  0  2  0  0  0  0  0  0
  191.8530  177.5890  141.9390 C   0  0  0  0  0  2  0  0  0  0  0  0
  193.5900  177.4790  140.1890 C   0  0  0  0  0  2  0  0  0  0  0  0
  192.2930  176.3540  138.4150 C   0  0  0  0  0  1  0  0  0  0  0  0
  192.4610  176.7230  140.8520 C   0  0  2  0  0  3  0  0  0  0  0  0
  192.2360  177.3960  139.5170 C   0  0  1  0  0  3  0  0  0  0  0  0
  1  5  1  0  0  0  0
  2 10  1  0  0  0  0
  3 17  1  6  0  0  0
  3 11  1  0  0  0  0
  4 18  1  1  0  0  0
  6 20  1  6  0  0  0
  6 17  1  0  0  0  0
  7 23  1  6  0  0  0
  7 13  1  0  0  0  0
  9 15  2  0  0  0  0
  9  6  1  0  0  0  0
 10  4  1  0  0  0  0
 10  8  1  1  0  0  0
 11 13  1  6  0  0  0
 11 19  1  0  0  0  0
 12  9  1  0  0  0  0
 14  2  2  0  0  0  0
 16 15  1  6  0  0  0
 16  7  1  0  0  0  0
 16  3  1  0  0  0  0
 17 14  1  0  0  0  0
 18  5  1  0  0  0  0
 19  4  1  0  0  0  0
 19  1  1  1  0  0  0
 21 20  1  0  0  0  0
 22 21  2  0  0  0  0
 24 26  1  0  0  0  0
 26 23  1  1  0  0  0
 27 25  1  6  0  0  0
 27 24  1  0  0  0  0
 27 26  1  0  0  0  0
M  END
>  <MODEL>
4

>  <REMARK>
 VINA RESULT:      -5.3      2.574      6.798
  Name = 
  4 active torsions:
  status: ('A' for Active; 'I' for Inactive)
    1  A    between atoms: C_5  and  C_8
    2  A    between atoms: C_8  and  C_9
    3  A    between atoms: C_10  and  C_18
    4  A    between atoms: C_18  and  C_20
                            x       y       z     vdW  Elec       q    Type
                         _______ _______ _______ _____ _____    ______ ____

>  <TORSDO>
F 4

$$$$
=
 OpenBabel10222420173D

 27 31  0  0  1  0  0  0  0  0999 V2000
  184.4380  179.4370  143.1070 C   0  0  0  0  0  2  0  0  0  0  0  0
  180.0160  178.8630  141.6550 C   0  0  0  0  0  3  0  0  0  0  0  0
  182.6730  177.6650  140.2500 C   0  0  2  0  0  3  0  0  0  0  0  0
  182.1340  178.6540  142.9780 C   0  0  2  0  0  3  0  0  0  0  0  0
  184.0990  178.6850  144.3680 C   0  0  0  0  0  2  0  0  0  0  0  0
  181.9450  179.4910  138.6810 C   0  0  2  0  0  3  0  0  0  0  0  0
  184.7960  177.7730  139.0530 C   0  0  1  0  0  3  0  0  0  0  0  0
  180.1270  179.6930  143.8450 O   0  0  0  0  0  1  0  0  0  0  0  0
  182.0230  178.4990  137.5560 C   0  0  0  0  0  0  0  0  0  0  0  0
  180.8890  179.5030  142.6900 C   0  0  2  0  0  3  0  0  0  0  0  0
  183.7310  178.1010  141.1720 N   0  0  1  0  0  0  0  0  0  0  0  0
  181.3520  178.7290  136.2420 C   0  0  0  0  0  1  0  0  0  0  0  0
  184.7720  178.6340  140.3030 C   0  0  0  0  0  2  0  0  0  0  0  0
  180.3920  178.5650  140.4120 C   0  0  0  0  0  3  0  0  0  0  0  0
  182.6840  177.4100  137.7500 N   0  0  0  0  0  0  0  0  0  0  0  0
  183.4020  177.1380  138.9930 C   0  0  2  0  0  3  0  0  0  0  0  0
  181.7270  178.7520  139.9290 N   0  0  0  0  0  0  0  0  0  0  0  0
  182.5920  178.7320  144.4260 C   0  0  0  0  0  2  0  0  0  0  0  0
  183.3110  179.1400  142.1240 C   0  0  2  0  0  3  0  0  0  0  0  0
  180.9450  180.6210  138.4620 C   0  0  0  0  0  2  0  0  0  0  0  0
  181.6730  181.9220  138.3680 C   0  0  0  0  0  3  0  0  0  0  0  0
  181.2140  182.8560  137.6230 N   0  0  0  0  0  2  0  0  0  0  0  0
  185.1880  178.6070  137.8370 C   0  0  0  0  0  2  0  0  0  0  0  0
  186.3650  177.5020  135.9700 C   0  0  0  0  0  2  0  0  0  0  0  0
  188.0120  176.1930  137.2610 C   0  0  0  0  0  1  0  0  0  0  0  0
  186.5440  178.1800  137.3100 C   0  0  2  0  0  3  0  0  0  0  0  0
  186.5730  176.6710  137.2180 C   0  0  1  0  0  3  0  0  0  0  0  0
  1  5  1  0  0  0  0
  2 10  1  0  0  0  0
  3 17  1  6  0  0  0
  3 11  1  0  0  0  0
  4 18  1  1  0  0  0
  5 18  1  0  0  0  0
  6 20  1  6  0  0  0
  6 17  1  0  0  0  0
  7 23  1  6  0  0  0
  7 13  1  0  0  0  0
  9 15  2  0  0  0  0
  9  6  1  0  0  0  0
 10  4  1  0  0  0  0
 10  8  1  1  0  0  0
 11 13  1  6  0  0  0
 11 19  1  0  0  0  0
 12  9  1  0  0  0  0
 14  2  2  0  0  0  0
 16 15  1  6  0  0  0
 16  7  1  0  0  0  0
 16  3  1  0  0  0  0
 17 14  1  0  0  0  0
 19  4  1  0  0  0  0
 19  1  1  1  0  0  0
 21 20  1  0  0  0  0
 22 21  2  0  0  0  0
 24 27  1  0  0  0  0
 24 26  1  0  0  0  0
 26 23  1  1  0  0  0
 27 25  1  6  0  0  0
 27 26  1  0  0  0  0
M  END
>  <MODEL>
5

>  <REMARK>
 VINA RESULT:      -5.2      5.180      9.030
  Name = 
  4 active torsions:
  status: ('A' for Active; 'I' for Inactive)
    1  A    between atoms: C_5  and  C_8
    2  A    between atoms: C_8  and  C_9
    3  A    between atoms: C_10  and  C_18
    4  A    between atoms: C_18  and  C_20
                            x       y       z     vdW  Elec       q    Type
                         _______ _______ _______ _____ _____    ______ ____

>  <TORSDO>
F 4

$$$$
=
 OpenBabel10222420173D

 27 31  0  0  1  0  0  0  0  0999 V2000
  187.4520  177.6260  141.6920 C   0  0  0  0  0  2  0  0  0  0  0  0
  191.8190  177.0950  140.0680 C   0  0  0  0  0  3  0  0  0  0  0  0
  189.3320  178.4400  138.4950 C   0  0  2  0  0  3  0  0  0  0  0  0
  189.8450  177.9420  141.3590 C   0  0  2  0  0  3  0  0  0  0  0  0
  187.9840  178.5450  142.7610 C   0  0  0  0  0  2  0  0  0  0  0  0
  189.6500  176.2350  137.3280 C   0  0  2  0  0  3  0  0  0  0  0  0
  187.1590  178.4730  137.3880 C   0  0  1  0  0  3  0  0  0  0  0  0
  191.6910  176.7580  142.3850 O   0  0  0  0  0  1  0  0  0  0  0  0
  189.6800  176.9760  136.0230 C   0  0  0  0  0  0  0  0  0  0  0  0
  190.9090  176.8440  141.2310 C   0  0  2  0  0  3  0  0  0  0  0  0
  188.2680  178.3960  139.5080 N   0  0  1  0  0  0  0  0  0  0  0  0
  190.2270  176.3700  134.7730 C   0  0  0  0  0  1  0  0  0  0  0  0
  187.1060  177.8930  138.7890 C   0  0  0  0  0  2  0  0  0  0  0  0
  191.4320  177.1980  138.7980 C   0  0  0  0  0  3  0  0  0  0  0  0
  189.2270  178.1830  135.9970 N   0  0  0  0  0  0  0  0  0  0  0  0
  188.6360  178.8240  137.1690 C   0  0  2  0  0  3  0  0  0  0  0  0
  190.0600  177.1590  138.3900 N   0  0  0  0  0  0  0  0  0  0  0  0
  189.4620  178.2420  142.7990 C   0  0  0  0  0  2  0  0  0  0  0  0
  188.5570  177.5120  140.6470 C   0  0  2  0  0  3  0  0  0  0  0  0
  190.4280  174.9240  137.3310 C   0  0  0  0  0  2  0  0  0  0  0  0
  189.4840  173.7810  137.1460 C   0  0  0  0  0  3  0  0  0  0  0  0
  189.4910  173.1210  136.0490 N   0  0  0  0  0  2  0  0  0  0  0  0
  186.5630  177.4940  136.3800 C   0  0  0  0  0  2  0  0  0  0  0  0
  186.1630  175.0760  136.0910 C   0  0  0  0  0  2  0  0  0  0  0  0
  184.0630  174.8680  137.3730 C   0  0  0  0  0  1  0  0  0  0  0  0
  186.1060  176.2250  137.0730 C   0  0  2  0  0  3  0  0  0  0  0  0
  184.8390  175.7410  136.4040 C   0  0  1  0  0  3  0  0  0  0  0  0
  1  5  1  0  0  0  0
  2 10  1  0  0  0  0
  3 17  1  6  0  0  0
  3 11  1  0  0  0  0
  4 18  1  1  0  0  0
  5 18  1  0  0  0  0
  6 20  1  6  0  0  0
  6 17  1  0  0  0  0
  7 23  1  6  0  0  0
  7 13  1  0  0  0  0
  9  6  1  0  0  0  0
 10  4  1  0  0  0  0
 10  8  1  1  0  0  0
 11 13  1  6  0  0  0
 11 19  1  0  0  0  0
 12  9  1  0  0  0  0
 14  2  2  0  0  0  0
 15  9  2  0  0  0  0
 16 15  1  6  0  0  0
 16  7  1  0  0  0  0
 16  3  1  0  0  0  0
 17 14  1  0  0  0  0
 19  4  1  0  0  0  0
 19  1  1  1  0  0  0
 21 20  1  0  0  0  0
 22 21  2  0  0  0  0
 24 27  1  0  0  0  0
 24 26  1  0  0  0  0
 26 23  1  6  0  0  0
 27 26  1  0  0  0  0
 27 25  1  1  0  0  0
M  END
>  <MODEL>
6

>  <REMARK>
 VINA RESULT:      -5.2      3.271      6.769
  Name = 
  4 active torsions:
  status: ('A' for Active; 'I' for Inactive)
    1  A    between atoms: C_5  and  C_8
    2  A    between atoms: C_8  and  C_9
    3  A    between atoms: C_10  and  C_18
    4  A    between atoms: C_18  and  C_20
                            x       y       z     vdW  Elec       q    Type
                         _______ _______ _______ _____ _____    ______ ____

>  <TORSDO>
F 4

$$$$
=
 OpenBabel10222420173D

 27 31  0  0  1  0  0  0  0  0999 V2000
  191.8110  175.9340  138.8300 C   0  0  0  0  0  2  0  0  0  0  0  0
  189.3920  176.0390  134.8140 C   0  0  0  0  0  3  0  0  0  0  0  0
  188.9060  177.9180  137.4030 C   0  0  2  0  0  3  0  0  0  0  0  0
  191.2240  176.3320  136.4980 C   0  0  2  0  0  3  0  0  0  0  0  0
  193.0450  176.3540  138.0730 C   0  0  0  0  0  2  0  0  0  0  0  0
  186.9430  176.3450  137.4350 C   0  0  2  0  0  3  0  0  0  0  0  0
  188.2840  178.4050  139.7100 C   0  0  1  0  0  3  0  0  0  0  0  0
  191.3850  174.8220  134.6130 O   0  0  0  0  0  1  0  0  0  0  0  0
  186.0410  177.5390  137.5480 C   0  0  0  0  0  0  0  0  0  0  0  0
  190.5040  175.3610  135.5530 C   0  0  2  0  0  3  0  0  0  0  0  0
  189.9880  177.4910  138.3000 N   0  0  1  0  0  0  0  0  0  0  0  0
  184.5800  177.4660  137.2450 C   0  0  0  0  0  1  0  0  0  0  0  0
  189.3400  177.3220  139.5940 C   0  0  0  0  0  2  0  0  0  0  0  0
  188.3450  176.6360  135.3820 C   0  0  0  0  0  3  0  0  0  0  0  0
  186.5590  178.6630  137.9070 N   0  0  0  0  0  0  0  0  0  0  0  0
  187.9700  178.7980  138.2620 C   0  0  2  0  0  3  0  0  0  0  0  0
  188.1940  176.7740  136.7990 N   0  0  0  0  0  0  0  0  0  0  0  0
  192.7120  176.0460  136.6340 C   0  0  0  0  0  2  0  0  0  0  0  0
  190.6320  176.2280  137.9090 C   0  0  2  0  0  3  0  0  0  0  0  0
  186.3090  175.1300  136.7670 C   0  0  0  0  0  2  0  0  0  0  0  0
  186.9350  173.8830  137.2990 C   0  0  0  0  0  3  0  0  0  0  0  0
  186.1990  172.9700  137.8140 N   0  0  0  0  0  2  0  0  0  0  0  0
  187.0940  177.9060  140.5260 C   0  0  0  0  0  2  0  0  0  0  0  0
  187.3160  177.6670  142.9720 C   0  0  0  0  0  2  0  0  0  0  0  0
  185.4020  179.0570  143.6800 C   0  0  0  0  0  1  0  0  0  0  0  0
  187.0110  178.6360  141.8520 C   0  0  2  0  0  3  0  0  0  0  0  0
  185.8820  178.0400  142.6610 C   0  0  1  0  0  3  0  0  0  0  0  0
  2 14  2  0  0  0  0
  2 10  1  0  0  0  0
  3 17  1  1  0  0  0
  3 16  1  0  0  0  0
  3 11  1  0  0  0  0
  4 18  1  1  0  0  0
  4 19  1  0  0  0  0
  5  1  1  0  0  0  0
  6 20  1  6  0  0  0
  6  9  1  0  0  0  0
  7 23  1  6  0  0  0
  9 15  2  0  0  0  0
 10  8  1  6  0  0  0
 10  4  1  0  0  0  0
 11 13  1  1  0  0  0
 12  9  1  0  0  0  0
 13  7  1  0  0  0  0
 14 17  1  0  0  0  0
 16 15  1  6  0  0  0
 16  7  1  0  0  0  0
 17  6  1  0  0  0  0
 18  5  1  0  0  0  0
 19 11  1  0  0  0  0
 19  1  1  1  0  0  0
 20 21  1  0  0  0  0
 21 22  2  0  0  0  0
 26 23  1  6  0  0  0
 26 27  1  0  0  0  0
 26 24  1  0  0  0  0
 27 24  1  0  0  0  0
 27 25  1  1  0  0  0
M  END
>  <MODEL>
7

>  <REMARK>
 VINA RESULT:      -5.2      3.418      6.494
  Name = 
  4 active torsions:
  status: ('A' for Active; 'I' for Inactive)
    1  A    between atoms: C_5  and  C_8
    2  A    between atoms: C_8  and  C_9
    3  A    between atoms: C_10  and  C_18
    4  A    between atoms: C_18  and  C_20
                            x       y       z     vdW  Elec       q    Type
                         _______ _______ _______ _____ _____    ______ ____

>  <TORSDO>
F 4

$$$$
=
 OpenBabel10222420173D

 27 31  0  0  1  0  0  0  0  0999 V2000
  190.7180  176.9670  140.5320 C   0  0  0  0  0  2  0  0  0  0  0  0
  191.3940  175.3580  136.1800 C   0  0  0  0  0  3  0  0  0  0  0  0
  189.2750  177.6300  137.0830 C   0  0  2  0  0  3  0  0  0  0  0  0
  191.7230  176.5710  138.3470 C   0  0  2  0  0  3  0  0  0  0  0  0
  192.1270  177.5030  140.5300 C   0  0  0  0  0  2  0  0  0  0  0  0
  187.8270  175.6380  136.5720 C   0  0  2  0  0  3  0  0  0  0  0  0
  187.3060  178.5040  138.2260 C   0  0  1  0  0  3  0  0  0  0  0  0
  193.1250  174.7320  137.6320 O   0  0  0  0  0  1  0  0  0  0  0  0
  186.9940  176.5220  135.6900 C   0  0  0  0  0  0  0  0  0  0  0  0
  191.8200  175.2300  137.6100 C   0  0  2  0  0  3  0  0  0  0  0  0
  189.5640  177.7660  138.5180 N   0  0  1  0  0  0  0  0  0  0  0  0
  186.0640  175.9720  134.6600 C   0  0  0  0  0  1  0  0  0  0  0  0
  188.2530  177.7640  139.1530 C   0  0  0  0  0  2  0  0  0  0  0  0
  190.1940  175.7670  135.7700 C   0  0  0  0  0  3  0  0  0  0  0  0
  187.1050  177.7990  135.8270 N   0  0  0  0  0  0  0  0  0  0  0  0
  187.9610  178.4070  136.8430 C   0  0  2  0  0  3  0  0  0  0  0  0
  189.1710  176.2180  136.6640 N   0  0  0  0  0  0  0  0  0  0  0  0
  192.8000  176.7540  139.4060 C   0  0  0  0  0  2  0  0  0  0  0  0
  190.3770  176.6750  139.0750 C   0  0  2  0  0  3  0  0  0  0  0  0
  187.8270  174.1660  136.1780 C   0  0  0  0  0  2  0  0  0  0  0  0
  187.1090  173.3690  137.2170 C   0  0  0  0  0  3  0  0  0  0  0  0
  185.8440  173.1910  137.1220 N   0  0  0  0  0  2  0  0  0  0  0  0
  185.8980  177.9230  138.3260 C   0  0  0  0  0  2  0  0  0  0  0  0
  184.8160  179.0030  140.2640 C   0  0  0  0  0  2  0  0  0  0  0  0
  182.5260  179.2180  139.3680 C   0  0  0  0  0  1  0  0  0  0  0  0
  184.9080  178.9890  138.7540 C   0  0  2  0  0  3  0  0  0  0  0  0
  183.7440  178.3160  139.4450 C   0  0  1  0  0  3  0  0  0  0  0  0
  2 10  1  0  0  0  0
  3 17  1  1  0  0  0
  3 11  1  0  0  0  0
  4 19  1  0  0  0  0
  4 18  1  1  0  0  0
  5  1  1  0  0  0  0
  6 20  1  6  0  0  0
  6 17  1  0  0  0  0
  7 23  1  6  0  0  0
  7 13  1  0  0  0  0
  9 15  2  0  0  0  0
  9  6  1  0  0  0  0
 10  8  1  6  0  0  0
 10  4  1  0  0  0  0
 11 19  1  0  0  0  0
 11 13  1  1  0  0  0
 12  9  1  0  0  0  0
 14  2  2  0  0  0  0
 14 17  1  0  0  0  0
 16 15  1  6  0  0  0
 16  3  1  0  0  0  0
 16  7  1  0  0  0  0
 18  5  1  0  0  0  0
 19  1  1  1  0  0  0
 20 21  1  0  0  0  0
 22 21  2  0  0  0  0
 26 23  1  1  0  0  0
 26 27  1  0  0  0  0
 26 24  1  0  0  0  0
 27 25  1  6  0  0  0
 27 24  1  0  0  0  0
M  END
>  <MODEL>
8

>  <REMARK>
 VINA RESULT:      -5.1      4.047      6.780
  Name = 
  4 active torsions:
  status: ('A' for Active; 'I' for Inactive)
    1  A    between atoms: C_5  and  C_8
    2  A    between atoms: C_8  and  C_9
    3  A    between atoms: C_10  and  C_18
    4  A    between atoms: C_18  and  C_20
                            x       y       z     vdW  Elec       q    Type
                         _______ _______ _______ _____ _____    ______ ____

>  <TORSDO>
F 4

$$$$
=
 OpenBabel10222420173D

 27 31  0  0  1  0  0  0  0  0999 V2000
  184.0080  178.2530  142.6630 C   0  0  0  0  0  2  0  0  0  0  0  0
  186.5500  178.4420  138.7270 C   0  0  0  0  0  3  0  0  0  0  0  0
  183.3890  179.0760  139.0080 C   0  0  2  0  0  3  0  0  0  0  0  0
  185.5920  179.0090  140.9720 C   0  0  2  0  0  3  0  0  0  0  0  0
  184.8420  179.3730  143.2300 C   0  0  0  0  0  2  0  0  0  0  0  0
  183.4470  176.8660  137.8080 C   0  0  2  0  0  3  0  0  0  0  0  0
  181.0460  178.5470  139.4280 C   0  0  1  0  0  3  0  0  0  0  0  0
  187.8960  178.3420  140.6440 O   0  0  0  0  0  1  0  0  0  0  0  0
  182.5300  177.4510  136.7730 C   0  0  0  0  0  0  0  0  0  0  0  0
  186.5890  178.1410  140.1940 C   0  0  2  0  0  3  0  0  0  0  0  0
  183.1740  178.9290  140.4540 N   0  0  1  0  0  0  0  0  0  0  0  0
  182.3540  176.8340  135.4240 C   0  0  0  0  0  1  0  0  0  0  0  0
  181.9640  178.1250  140.5600 C   0  0  0  0  0  2  0  0  0  0  0  0
  185.4760  178.3250  137.9470 C   0  0  0  0  0  3  0  0  0  0  0  0
  181.8900  178.5310  137.0660 N   0  0  0  0  0  0  0  0  0  0  0  0
  181.9800  179.1630  138.3800 C   0  0  2  0  0  3  0  0  0  0  0  0
  184.1820  177.9650  138.4430 N   0  0  0  0  0  0  0  0  0  0  0  0
  186.0780  179.3810  142.3640 C   0  0  0  0  0  2  0  0  0  0  0  0
  184.2720  178.2520  141.1610 C   0  0  2  0  0  3  0  0  0  0  0  0
  184.3490  175.7480  137.2990 C   0  0  0  0  0  2  0  0  0  0  0  0
  183.8660  174.4360  137.8240 C   0  0  0  0  0  3  0  0  0  0  0  0
  184.5540  173.3760  137.6200 N   0  0  0  0  0  2  0  0  0  0  0  0
  180.2110  177.3640  138.9460 C   0  0  0  0  0  2  0  0  0  0  0  0
  180.3520  174.9000  138.9130 C   0  0  0  0  0  2  0  0  0  0  0  0
  179.3050  174.4150  141.0950 C   0  0  0  0  0  1  0  0  0  0  0  0
  180.5010  176.1300  139.7790 C   0  0  2  0  0  3  0  0  0  0  0  0
  179.2420  175.2970  139.8620 C   0  0  1  0  0  3  0  0  0  0  0  0
  1  5  1  0  0  0  0
  2 10  1  0  0  0  0
  3 17  1  6  0  0  0
  3 11  1  0  0  0  0
  4 19  1  0  0  0  0
  4 18  1  1  0  0  0
  6 20  1  6  0  0  0
  6 17  1  0  0  0  0
  7 23  1  6  0  0  0
  7 13  1  0  0  0  0
  9 15  2  0  0  0  0
  9  6  1  0  0  0  0
 10  8  1  1  0  0  0
 10  4  1  0  0  0  0
 11 13  1  6  0  0  0
 11 19  1  0  0  0  0
 12  9  1  0  0  0  0
 14 17  1  0  0  0  0
 14  2  2  0  0  0  0
 16 15  1  6  0  0  0
 16  3  1  0  0  0  0
 16  7  1  0  0  0  0
 18  5  1  0  0  0  0
 19  1  1  1  0  0  0
 20 21  1  0  0  0  0
 22 21  2  0  0  0  0
 24 26  1  0  0  0  0
 24 27  1  0  0  0  0
 26 23  1  6  0  0  0
 26 27  1  0  0  0  0
 27 25  1  1  0  0  0
M  END
>  <MODEL>
9

>  <REMARK>
 VINA RESULT:      -5.1      4.626      7.744
  Name = 
  4 active torsions:
  status: ('A' for Active; 'I' for Inactive)
    1  A    between atoms: C_5  and  C_8
    2  A    between atoms: C_8  and  C_9
    3  A    between atoms: C_10  and  C_18
    4  A    between atoms: C_18  and  C_20
                            x       y       z     vdW  Elec       q    Type
                         _______ _______ _______ _____ _____    ______ ____

>  <TORSDO>
F 4

$$$$
