=
 OpenBabel10222416273D

 38 40  0  0  1  0  0  0  0  0999 V2000
  188.6740  176.7230  137.9860 C   0  0  0  0  0  2  0  0  0  0  0  0
  188.7870  177.5140  140.3130 C   0  0  0  0  0  3  0  0  0  0  0  0
  188.1380  177.5260  139.1420 C   0  0  0  0  0  0  0  0  0  0  0  0
  190.8310  176.6310  139.2450 C   0  0  0  0  0  0  0  0  0  0  0  0
  190.0390  176.7070  140.5220 C   0  0  1  0  0  3  0  0  0  0  0  0
  190.1420  176.7160  137.9850 N   0  0  0  0  0  0  0  0  0  0  0  0
  192.0780  176.4420  139.2820 O   0  0  0  0  0  0  0  0  0  0  0  0
  192.7760  174.8080  135.9390 O   0  0  0  0  0  0  0  0  0  0  0  0
  190.2960  175.3050  135.0150 N   0  0  0  0  0  0  0  0  0  0  0  0
  190.8480  173.9530  137.3180 O   0  0  0  0  0  0  0  0  0  0  0  0
  189.0710  174.5410  135.1950 C   0  0  0  0  0  1  0  0  0  0  0  0
  191.3440  174.9970  136.3540 S   0  0  0  0  0  0  0  0  0  0  0  0
  190.9150  176.6540  136.7380 C   0  0  1  0  0  3  0  0  0  0  0  0
  190.0250  176.6740  135.4820 C   0  0  0  0  0  2  0  0  0  0  0  0
  186.4550  178.5890  137.7870 N   0  0  0  0  0  2  0  0  0  0  0  0
  186.1840  178.7620  140.1270 N   0  0  0  0  0  2  0  0  0  0  0  0
  186.9020  178.3130  138.9720 C   0  0  0  0  0  0  0  0  0  0  0  0
  184.9640  179.4450  140.0220 N   0  0  0  0  0  2  0  0  0  0  0  0
  183.9090  178.4910  140.3300 C   0  0  0  0  0  2  0  0  0  0  0  0
  184.4780  178.7260  142.7540 C   0  0  0  0  0  3  0  0  0  0  0  0
  182.1520  178.6870  142.0960 C   0  0  0  0  0  3  0  0  0  0  0  0
  184.0780  178.8660  144.0850 C   0  0  0  0  0  0  0  0  0  0  0  0
  183.5060  178.6270  141.7550 C   0  0  0  0  0  0  0  0  0  0  0  0
  180.3570  178.8980  143.8190 C   0  0  0  0  0  1  0  0  0  0  0  0
  181.7920  178.8340  143.4380 C   0  0  0  0  0  0  0  0  0  0  0  0
  182.7530  178.9220  144.3970 N   0  0  0  0  0  0  0  0  0  0  0  0
  185.1000  178.9870  145.1590 C   0  0  0  0  0  2  0  0  0  0  0  0
  184.5190  178.6090  146.4360 N   0  0  0  0  0  1  0  0  0  0  0  0
  190.0570  175.8660  143.2600 O   0  0  0  0  0  0  0  0  0  0  0  0
  190.8370  177.3020  141.5860 N   0  0  0  0  0  2  0  0  0  0  0  0
  190.7800  176.8470  142.9400 C   0  0  0  0  0  0  0  0  0  0  0  0
  191.6100  177.5180  143.9760 C   0  0  0  0  0  2  0  0  0  0  0  0
  190.7780  177.8600  145.1250 N   0  0  0  0  0  2  0  0  0  0  0  0
  191.2410  177.1490  146.3180 C   0  0  2  0  0  3  0  0  0  0  0  0
  192.0340  176.0510  145.9690 O   0  0  0  0  0  1  0  0  0  0  0  0
  190.0700  176.7210  147.1990 C   0  0  0  0  0  2  0  0  0  0  0  0
  188.0240  178.0260  147.7810 C   0  0  0  0  0  1  0  0  0  0  0  0
  188.7560  177.2820  146.6780 C   0  0  0  0  0  2  0  0  0  0  0  0
  1  3  1  0  0  0  0
  2  5  1  0  0  0  0
  3  2  2  0  0  0  0
  4  7  2  0  0  0  0
  4  5  1  0  0  0  0
  5 30  1  1  0  0  0
  6  1  1  0  0  0  0
  6  4  1  0  0  0  0
  8 12  2  0  0  0  0
  9 11  1  0  0  0  0
  9 14  1  0  0  0  0
  9 12  1  0  0  0  0
 12 13  1  0  0  0  0
 12 10  2  0  0  0  0
 13 14  1  6  0  0  0
 13  6  1  0  0  0  0
 15 17  2  0  0  0  0
 17  3  1  0  0  0  0
 17 16  1  0  0  0  0
 18 16  1  0  0  0  0
 18 19  1  0  0  0  0
 19 23  1  0  0  0  0
 20 22  1  0  0  0  0
 21 25  2  0  0  0  0
 22 26  2  0  0  0  0
 22 27  1  0  0  0  0
 23 21  1  0  0  0  0
 23 20  2  0  0  0  0
 25 24  1  0  0  0  0
 25 26  1  0  0  0  0
 27 28  1  0  0  0  0
 30 31  1  0  0  0  0
 31 29  2  0  0  0  0
 31 32  1  0  0  0  0
 32 33  1  0  0  0  0
 33 34  1  0  0  0  0
 34 35  1  6  0  0  0
 34 36  1  0  0  0  0
 38 36  1  0  0  0  0
 38 37  1  0  0  0  0
M  END
>  <MODEL>
1

>  <REMARK>
 VINA RESULT:      -8.4      0.000      0.000
  Name = 
  12 active torsions:
  status: ('A' for Active; 'I' for Inactive)
    1  A    between atoms: C_1  and  C_22
    2  A    between atoms: C_6  and  N_18
    3  A    between atoms: C_6  and  C_37
    4  A    between atoms: C_9  and  C_30
    5  A    between atoms: C_10  and  N_18
    6  A    between atoms: C_10  and  C_19
    7  A    between atoms: N_16  and  N_26
    8  A    between atoms: C_19  and  C_32
    9  A    between atoms: C_21  and  N_35
   10  A    between atoms: C_24  and  C_36
   11  A    between atoms: N_25  and  C_29
   12  A    between atoms: N_26  and  C_36
                            x       y       z     vdW  Elec       q    Type
                         _______ _______ _______ _____ _____    ______ ____

>  <TORSDO>
F 12

$$$$
=
 OpenBabel10222416273D

 38 40  0  0  1  0  0  0  0  0999 V2000
  188.6320  176.7570  138.0360 C   0  0  0  0  0  2  0  0  0  0  0  0
  188.6940  177.5400  140.3680 C   0  0  0  0  0  3  0  0  0  0  0  0
  188.0710  177.5570  139.1820 C   0  0  0  0  0  0  0  0  0  0  0  0
  190.7600  176.6540  139.3450 C   0  0  0  0  0  0  0  0  0  0  0  0
  189.9380  176.7280  140.6030 C   0  0  1  0  0  3  0  0  0  0  0  0
  190.1000  176.7460  138.0690 N   0  0  0  0  0  0  0  0  0  0  0  0
  192.0040  176.4620  139.4100 O   0  0  0  0  0  0  0  0  0  0  0  0
  192.7530  174.8200  136.0640 O   0  0  0  0  0  0  0  0  0  0  0  0
  190.3030  175.3650  135.0880 N   0  0  0  0  0  0  0  0  0  0  0  0
  190.7810  173.9790  137.3870 O   0  0  0  0  0  0  0  0  0  0  0  0
  189.0630  174.6180  135.2300 C   0  0  0  0  0  1  0  0  0  0  0  0
  191.3140  175.0270  136.4470 S   0  0  0  0  0  0  0  0  0  0  0  0
  190.9020  176.6860  136.8400 C   0  0  1  0  0  3  0  0  0  0  0  0
  190.0420  176.7330  135.5640 C   0  0  0  0  0  2  0  0  0  0  0  0
  186.4400  178.6540  137.7930 N   0  0  0  0  0  2  0  0  0  0  0  0
  186.0810  178.7660  140.1250 N   0  0  0  0  0  2  0  0  0  0  0  0
  186.8410  178.3470  138.9860 C   0  0  0  0  0  0  0  0  0  0  0  0
  184.8640  179.4520  139.9920 N   0  0  0  0  0  2  0  0  0  0  0  0
  183.7990  178.4810  140.1950 C   0  0  0  0  0  2  0  0  0  0  0  0
  181.8350  178.7150  141.7250 C   0  0  0  0  0  3  0  0  0  0  0  0
  184.0600  178.6950  142.6710 C   0  0  0  0  0  3  0  0  0  0  0  0
  181.3120  178.8550  143.0120 C   0  0  0  0  0  0  0  0  0  0  0  0
  183.2200  178.6440  141.5550 C   0  0  0  0  0  0  0  0  0  0  0  0
  184.3750  178.8870  145.1410 C   0  0  0  0  0  1  0  0  0  0  0  0
  183.4970  178.8290  143.9430 C   0  0  0  0  0  0  0  0  0  0  0  0
  182.1460  178.9040  144.0870 N   0  0  0  0  0  0  0  0  0  0  0  0
  179.8380  178.9190  143.2120 C   0  0  0  0  0  2  0  0  0  0  0  0
  179.1730  178.0710  142.2370 N   0  0  0  0  0  1  0  0  0  0  0  0
  190.1980  175.6480  143.2430 O   0  0  0  0  0  0  0  0  0  0  0  0
  190.7130  177.3170  141.6880 N   0  0  0  0  0  2  0  0  0  0  0  0
  190.7810  176.7370  142.9920 C   0  0  0  0  0  0  0  0  0  0  0  0
  191.5770  177.4080  144.0540 C   0  0  0  0  0  2  0  0  0  0  0  0
  191.7170  176.5140  145.2000 N   0  0  0  0  0  2  0  0  0  0  0  0
  191.1750  177.1420  146.4050 C   0  0  2  0  0  3  0  0  0  0  0  0
  191.9910  176.8870  147.5120 O   0  0  0  0  0  1  0  0  0  0  0  0
  189.7390  176.6950  146.6680 C   0  0  0  0  0  2  0  0  0  0  0  0
  187.8730  177.4220  145.1800 C   0  0  0  0  0  1  0  0  0  0  0  0
  188.7520  177.8080  146.3560 C   0  0  0  0  0  2  0  0  0  0  0  0
  1  6  1  0  0  0  0
  1  3  1  0  0  0  0
  2  5  1  0  0  0  0
  3  2  2  0  0  0  0
  4  7  2  0  0  0  0
  4  5  1  0  0  0  0
  5 30  1  1  0  0  0
  6  4  1  0  0  0  0
  8 12  2  0  0  0  0
  9 11  1  0  0  0  0
  9 14  1  0  0  0  0
  9 12  1  0  0  0  0
 12 13  1  0  0  0  0
 12 10  2  0  0  0  0
 13 14  1  6  0  0  0
 13  6  1  0  0  0  0
 15 17  2  0  0  0  0
 17  3  1  0  0  0  0
 17 16  1  0  0  0  0
 18 16  1  0  0  0  0
 18 19  1  0  0  0  0
 19 23  1  0  0  0  0
 20 22  1  0  0  0  0
 21 25  2  0  0  0  0
 22 27  1  0  0  0  0
 22 26  2  0  0  0  0
 23 20  2  0  0  0  0
 23 21  1  0  0  0  0
 25 26  1  0  0  0  0
 25 24  1  0  0  0  0
 28 27  1  0  0  0  0
 30 31  1  0  0  0  0
 31 29  2  0  0  0  0
 31 32  1  0  0  0  0
 32 33  1  0  0  0  0
 33 34  1  0  0  0  0
 34 36  1  0  0  0  0
 34 35  1  1  0  0  0
 37 38  1  0  0  0  0
 38 36  1  0  0  0  0
M  END
>  <MODEL>
2

>  <REMARK>
 VINA RESULT:      -8.3      0.905      1.881
  Name = 
  12 active torsions:
  status: ('A' for Active; 'I' for Inactive)
    1  A    between atoms: C_1  and  C_22
    2  A    between atoms: C_6  and  N_18
    3  A    between atoms: C_6  and  C_37
    4  A    between atoms: C_9  and  C_30
    5  A    between atoms: C_10  and  N_18
    6  A    between atoms: C_10  and  C_19
    7  A    between atoms: N_16  and  N_26
    8  A    between atoms: C_19  and  C_32
    9  A    between atoms: C_21  and  N_35
   10  A    between atoms: C_24  and  C_36
   11  A    between atoms: N_25  and  C_29
   12  A    between atoms: N_26  and  C_36
                            x       y       z     vdW  Elec       q    Type
                         _______ _______ _______ _____ _____    ______ ____

>  <TORSDO>
F 12

$$$$
=
 OpenBabel10222416273D

 38 40  0  0  1  0  0  0  0  0999 V2000
  187.6860  177.6760  139.1470 C   0  0  0  0  0  2  0  0  0  0  0  0
  187.9340  178.0940  141.5580 C   0  0  0  0  0  3  0  0  0  0  0  0
  187.2060  178.2640  140.4470 C   0  0  0  0  0  0  0  0  0  0  0  0
  189.9270  177.4760  140.2380 C   0  0  0  0  0  0  0  0  0  0  0  0
  189.2210  177.3160  141.5570 C   0  0  1  0  0  3  0  0  0  0  0  0
  189.1510  177.7300  139.0530 N   0  0  0  0  0  0  0  0  0  0  0  0
  191.1780  177.3360  140.1660 O   0  0  0  0  0  0  0  0  0  0  0  0
  191.7070  176.2860  136.5740 O   0  0  0  0  0  0  0  0  0  0  0  0
  189.1530  176.8020  135.8950 N   0  0  0  0  0  0  0  0  0  0  0  0
  189.9110  175.1390  137.9180 O   0  0  0  0  0  0  0  0  0  0  0  0
  187.9720  175.9630  136.0270 C   0  0  0  0  0  1  0  0  0  0  0  0
  190.3010  176.3420  137.1010 S   0  0  0  0  0  0  0  0  0  0  0  0
  189.8390  177.8980  137.7660 C   0  0  1  0  0  3  0  0  0  0  0  0
  188.8650  178.0690  136.5860 C   0  0  0  0  0  2  0  0  0  0  0  0
  185.4590  179.4450  141.6070 N   0  0  0  0  0  2  0  0  0  0  0  0
  185.2370  179.2810  139.2610 N   0  0  0  0  0  2  0  0  0  0  0  0
  185.9370  179.0150  140.4820 C   0  0  0  0  0  0  0  0  0  0  0  0
  184.0690  180.0560  139.2310 N   0  0  0  0  0  2  0  0  0  0  0  0
  183.0750  179.3060  138.4790 C   0  0  0  0  0  2  0  0  0  0  0  0
  181.8210  179.2330  140.6420 C   0  0  0  0  0  3  0  0  0  0  0  0
  181.5290  177.4300  139.0580 C   0  0  0  0  0  3  0  0  0  0  0  0
  180.9230  178.5950  141.5010 C   0  0  0  0  0  0  0  0  0  0  0  0
  182.1310  178.6380  139.4150 C   0  0  0  0  0  0  0  0  0  0  0  0
  179.9810  175.5400  139.5790 C   0  0  0  0  0  1  0  0  0  0  0  0
  180.6300  176.8270  139.9420 C   0  0  0  0  0  0  0  0  0  0  0  0
  180.3470  177.4170  141.1340 N   0  0  0  0  0  0  0  0  0  0  0  0
  180.5710  179.2210  142.8040 C   0  0  0  0  0  2  0  0  0  0  0  0
  180.0270  180.5500  142.5800 N   0  0  0  0  0  1  0  0  0  0  0  0
  190.7930  175.6280  143.2530 O   0  0  0  0  0  0  0  0  0  0  0  0
  190.0710  177.7690  142.6510 N   0  0  0  0  0  2  0  0  0  0  0  0
  190.8130  176.8680  143.4760 C   0  0  0  0  0  0  0  0  0  0  0  0
  191.6440  177.4030  144.5870 C   0  0  0  0  0  2  0  0  0  0  0  0
  191.6300  176.4650  145.7050 N   0  0  0  0  0  2  0  0  0  0  0  0
  191.0750  177.1050  146.8990 C   0  0  2  0  0  3  0  0  0  0  0  0
  191.9030  176.8990  148.0080 O   0  0  0  0  0  1  0  0  0  0  0  0
  189.6540  176.6220  147.1790 C   0  0  0  0  0  2  0  0  0  0  0  0
  188.4580  178.1600  148.7380 C   0  0  0  0  0  1  0  0  0  0  0  0
  188.6870  177.7910  147.2830 C   0  0  0  0  0  2  0  0  0  0  0  0
  1  3  1  0  0  0  0
  3 17  1  0  0  0  0
  3  2  2  0  0  0  0
  4  5  1  0  0  0  0
  5  2  1  0  0  0  0
  5 30  1  1  0  0  0
  6  1  1  0  0  0  0
  6  4  1  0  0  0  0
  7  4  2  0  0  0  0
  8 12  2  0  0  0  0
  9 11  1  0  0  0  0
  9 14  1  0  0  0  0
  9 12  1  0  0  0  0
 12 13  1  0  0  0  0
 12 10  2  0  0  0  0
 13 14  1  6  0  0  0
 13  6  1  0  0  0  0
 16 17  1  0  0  0  0
 17 15  2  0  0  0  0
 18 16  1  0  0  0  0
 19 18  1  0  0  0  0
 19 23  1  0  0  0  0
 20 22  1  0  0  0  0
 21 23  1  0  0  0  0
 21 25  2  0  0  0  0
 22 27  1  0  0  0  0
 23 20  2  0  0  0  0
 24 25  1  0  0  0  0
 25 26  1  0  0  0  0
 26 22  2  0  0  0  0
 28 27  1  0  0  0  0
 29 31  2  0  0  0  0
 30 31  1  0  0  0  0
 31 32  1  0  0  0  0
 32 33  1  0  0  0  0
 33 34  1  0  0  0  0
 34 36  1  0  0  0  0
 34 35  1  1  0  0  0
 36 38  1  0  0  0  0
 38 37  1  0  0  0  0
M  END
>  <MODEL>
3

>  <REMARK>
 VINA RESULT:      -7.9      2.002      2.641
  Name = 
  12 active torsions:
  status: ('A' for Active; 'I' for Inactive)
    1  A    between atoms: C_1  and  C_22
    2  A    between atoms: C_6  and  N_18
    3  A    between atoms: C_6  and  C_37
    4  A    between atoms: C_9  and  C_30
    5  A    between atoms: C_10  and  N_18
    6  A    between atoms: C_10  and  C_19
    7  A    between atoms: N_16  and  N_26
    8  A    between atoms: C_19  and  C_32
    9  A    between atoms: C_21  and  N_35
   10  A    between atoms: C_24  and  C_36
   11  A    between atoms: N_25  and  C_29
   12  A    between atoms: N_26  and  C_36
                            x       y       z     vdW  Elec       q    Type
                         _______ _______ _______ _____ _____    ______ ____

>  <TORSDO>
F 12

$$$$
=
 OpenBabel10222416273D

 38 40  0  0  1  0  0  0  0  0999 V2000
  189.8760  177.7700  138.6090 C   0  0  0  0  0  2  0  0  0  0  0  0
  187.6010  177.9190  139.5340 C   0  0  0  0  0  3  0  0  0  0  0  0
  188.9000  177.6780  139.7520 C   0  0  0  0  0  0  0  0  0  0  0  0
  187.8890  177.6290  137.0980 C   0  0  0  0  0  0  0  0  0  0  0  0
  187.0780  178.2970  138.1750 C   0  0  1  0  0  3  0  0  0  0  0  0
  189.2670  177.3030  137.3570 N   0  0  0  0  0  0  0  0  0  0  0  0
  187.3800  177.4050  135.9660 O   0  0  0  0  0  0  0  0  0  0  0  0
  192.4640  175.3460  136.5140 O   0  0  0  0  0  0  0  0  0  0  0  0
  189.9970  174.3850  136.0200 N   0  0  0  0  0  0  0  0  0  0  0  0
  190.8990  175.1440  138.4780 O   0  0  0  0  0  0  0  0  0  0  0  0
  189.1020  173.6390  136.8910 C   0  0  0  0  0  1  0  0  0  0  0  0
  191.0400  175.3580  136.9950 S   0  0  0  0  0  0  0  0  0  0  0  0
  190.0570  176.6400  136.3120 C   0  0  1  0  0  3  0  0  0  0  0  0
  189.2580  175.5680  135.5490 C   0  0  0  0  0  2  0  0  0  0  0  0
  188.5620  176.9250  142.0130 N   0  0  0  0  0  2  0  0  0  0  0  0
  190.7850  177.4250  141.3950 N   0  0  0  0  0  2  0  0  0  0  0  0
  189.3870  177.3290  141.1000 C   0  0  0  0  0  0  0  0  0  0  0  0
  191.3100  177.0320  142.6350 N   0  0  0  0  0  2  0  0  0  0  0  0
  191.1710  178.1630  143.5390 C   0  0  0  0  0  2  0  0  0  0  0  0
  189.4970  177.9140  145.3800 C   0  0  0  0  0  3  0  0  0  0  0  0
  191.7050  176.9710  145.6700 C   0  0  0  0  0  3  0  0  0  0  0  0
  189.1530  177.4430  146.6500 C   0  0  0  0  0  0  0  0  0  0  0  0
  190.7860  177.6830  144.8930 C   0  0  0  0  0  0  0  0  0  0  0  0
  192.2840  175.7540  147.7720 C   0  0  0  0  0  1  0  0  0  0  0  0
  191.3200  176.5110  146.9310 C   0  0  0  0  0  0  0  0  0  0  0  0
  190.0620  176.7520  147.3910 N   0  0  0  0  0  0  0  0  0  0  0  0
  187.7800  177.6670  147.1780 C   0  0  0  0  0  2  0  0  0  0  0  0
  186.8200  177.6230  146.0870 N   0  0  0  0  0  1  0  0  0  0  0  0
  184.8620  179.8460  139.1200 O   0  0  0  0  0  0  0  0  0  0  0  0
  185.6740  177.9220  138.0660 N   0  0  0  0  0  2  0  0  0  0  0  0
  184.6160  178.7330  138.5820 C   0  0  0  0  0  0  0  0  0  0  0  0
  183.2070  178.2750  138.4510 C   0  0  0  0  0  2  0  0  0  0  0  0
  182.3880  178.9100  139.4780 N   0  0  0  0  0  2  0  0  0  0  0  0
  182.2470  178.0250  140.6350 C   0  0  2  0  0  3  0  0  0  0  0  0
  180.9310  177.5630  140.7540 O   0  0  0  0  0  1  0  0  0  0  0  0
  182.7030  178.7120  141.9200 C   0  0  0  0  0  2  0  0  0  0  0  0
  184.5190  178.9120  143.6200 C   0  0  0  0  0  1  0  0  0  0  0  0
  184.1190  178.2990  142.2900 C   0  0  0  0  0  2  0  0  0  0  0  0
  1  3  1  0  0  0  0
  2  3  2  0  0  0  0
  3 17  1  0  0  0  0
  4  6  1  0  0  0  0
  4  5  1  0  0  0  0
  5 30  1  1  0  0  0
  5  2  1  0  0  0  0
  6  1  1  0  0  0  0
  7  4  2  0  0  0  0
  8 12  2  0  0  0  0
  9 11  1  0  0  0  0
  9 12  1  0  0  0  0
 12 10  2  0  0  0  0
 13 14  1  6  0  0  0
 13 12  1  0  0  0  0
 13  6  1  0  0  0  0
 14  9  1  0  0  0  0
 16 18  1  0  0  0  0
 17 16  1  0  0  0  0
 17 15  2  0  0  0  0
 18 19  1  0  0  0  0
 19 23  1  0  0  0  0
 20 22  1  0  0  0  0
 21 25  2  0  0  0  0
 22 27  1  0  0  0  0
 22 26  2  0  0  0  0
 23 20  2  0  0  0  0
 23 21  1  0  0  0  0
 25 26  1  0  0  0  0
 25 24  1  0  0  0  0
 28 27  1  0  0  0  0
 30 31  1  0  0  0  0
 31 29  2  0  0  0  0
 32 31  1  0  0  0  0
 32 33  1  0  0  0  0
 33 34  1  0  0  0  0
 34 35  1  1  0  0  0
 34 36  1  0  0  0  0
 36 38  1  0  0  0  0
 38 37  1  0  0  0  0
M  END
>  <MODEL>
4

>  <REMARK>
 VINA RESULT:      -7.5      2.571      6.595
  Name = 
  12 active torsions:
  status: ('A' for Active; 'I' for Inactive)
    1  A    between atoms: C_1  and  C_22
    2  A    between atoms: C_6  and  N_18
    3  A    between atoms: C_6  and  C_37
    4  A    between atoms: C_9  and  C_30
    5  A    between atoms: C_10  and  N_18
    6  A    between atoms: C_10  and  C_19
    7  A    between atoms: N_16  and  N_26
    8  A    between atoms: C_19  and  C_32
    9  A    between atoms: C_21  and  N_35
   10  A    between atoms: C_24  and  C_36
   11  A    between atoms: N_25  and  C_29
   12  A    between atoms: N_26  and  C_36
                            x       y       z     vdW  Elec       q    Type
                         _______ _______ _______ _____ _____    ______ ____

>  <TORSDO>
F 12

$$$$
=
 OpenBabel10222416273D

 38 40  0  0  1  0  0  0  0  0999 V2000
  182.3880  178.6040  141.7220 C   0  0  0  0  0  2  0  0  0  0  0  0
  184.8040  178.5430  141.2670 C   0  0  0  0  0  3  0  0  0  0  0  0
  183.8240  178.6780  142.1690 C   0  0  0  0  0  0  0  0  0  0  0  0
  183.2440  178.9910  139.4060 C   0  0  0  0  0  0  0  0  0  0  0  0
  184.5200  178.3020  139.8100 C   0  0  1  0  0  3  0  0  0  0  0  0
  182.2180  179.2020  140.3920 N   0  0  0  0  0  0  0  0  0  0  0  0
  183.0590  179.3310  138.2060 O   0  0  0  0  0  0  0  0  0  0  0  0
  179.1600  179.2100  138.0640 O   0  0  0  0  0  0  0  0  0  0  0  0
  178.9450  179.1850  140.7480 N   0  0  0  0  0  0  0  0  0  0  0  0
  180.2760  177.3090  139.2840 O   0  0  0  0  0  0  0  0  0  0  0  0
  178.9420  178.0560  141.6660 C   0  0  0  0  0  1  0  0  0  0  0  0
  179.8260  178.7440  139.3290 S   0  0  0  0  0  0  0  0  0  0  0  0
  180.9770  179.8840  140.0020 C   0  0  1  0  0  3  0  0  0  0  0  0
  180.0150  180.0960  141.1850 C   0  0  0  0  0  2  0  0  0  0  0  0
  183.1930  179.1920  144.4340 N   0  0  0  0  0  2  0  0  0  0  0  0
  185.4830  178.7580  144.0540 N   0  0  0  0  0  2  0  0  0  0  0  0
  184.1330  178.8940  143.5950 C   0  0  0  0  0  0  0  0  0  0  0  0
  185.8190  178.8760  145.4110 N   0  0  0  0  0  2  0  0  0  0  0  0
  186.1870  177.5490  145.8790 C   0  0  0  0  0  2  0  0  0  0  0  0
  188.5500  177.3110  146.6640 C   0  0  0  0  0  3  0  0  0  0  0  0
  188.0630  177.0270  144.3130 C   0  0  0  0  0  3  0  0  0  0  0  0
  189.8980  177.0630  146.3920 C   0  0  0  0  0  0  0  0  0  0  0  0
  187.6300  177.3010  145.6120 C   0  0  0  0  0  0  0  0  0  0  0  0
  189.8980  176.4860  142.7070 C   0  0  0  0  0  1  0  0  0  0  0  0
  189.4180  176.7780  144.0830 C   0  0  0  0  0  0  0  0  0  0  0  0
  190.3010  176.7990  145.1190 N   0  0  0  0  0  0  0  0  0  0  0  0
  190.8900  177.0560  147.5020 C   0  0  0  0  0  2  0  0  0  0  0  0
  191.8880  176.0280  147.2630 N   0  0  0  0  0  1  0  0  0  0  0  0
  185.6850  176.9160  137.5910 O   0  0  0  0  0  0  0  0  0  0  0  0
  185.6370  178.7790  139.0050 N   0  0  0  0  0  2  0  0  0  0  0  0
  186.1860  178.0240  137.9230 C   0  0  0  0  0  0  0  0  0  0  0  0
  187.3400  178.5670  137.1580 C   0  0  0  0  0  2  0  0  0  0  0  0
  188.4740  178.7640  138.0560 N   0  0  0  0  0  2  0  0  0  0  0  0
  189.6080  177.9420  137.6320 C   0  0  2  0  0  3  0  0  0  0  0  0
  189.3160  177.2600  136.4460 O   0  0  0  0  0  1  0  0  0  0  0  0
  190.0330  176.9720  138.7320 C   0  0  0  0  0  2  0  0  0  0  0  0
  192.4350  176.4500  138.2990 C   0  0  0  0  0  1  0  0  0  0  0  0
  191.0100  175.9350  138.2000 C   0  0  0  0  0  2  0  0  0  0  0  0
  1  3  1  0  0  0  0
  2  3  2  0  0  0  0
  3 17  1  0  0  0  0
  4  5  1  0  0  0  0
  4  6  1  0  0  0  0
  5 30  1  6  0  0  0
  5  2  1  0  0  0  0
  6  1  1  0  0  0  0
  7  4  2  0  0  0  0
  8 12  2  0  0  0  0
  9 14  1  0  0  0  0
  9 11  1  0  0  0  0
 10 12  2  0  0  0  0
 12 13  1  0  0  0  0
 12  9  1  0  0  0  0
 13  6  1  1  0  0  0
 13 14  1  0  0  0  0
 16 18  1  0  0  0  0
 17 16  1  0  0  0  0
 17 15  2  0  0  0  0
 18 19  1  0  0  0  0
 21 23  1  0  0  0  0
 22 20  1  0  0  0  0
 22 27  1  0  0  0  0
 23 19  1  0  0  0  0
 23 20  2  0  0  0  0
 24 25  1  0  0  0  0
 25 21  2  0  0  0  0
 25 26  1  0  0  0  0
 26 22  2  0  0  0  0
 28 27  1  0  0  0  0
 29 31  2  0  0  0  0
 31 30  1  0  0  0  0
 32 31  1  0  0  0  0
 32 33  1  0  0  0  0
 34 35  1  6  0  0  0
 34 33  1  0  0  0  0
 34 36  1  0  0  0  0
 38 37  1  0  0  0  0
 38 36  1  0  0  0  0
M  END
>  <MODEL>
5

>  <REMARK>
 VINA RESULT:      -7.5      4.237      8.586
  Name = 
  12 active torsions:
  status: ('A' for Active; 'I' for Inactive)
    1  A    between atoms: C_1  and  C_22
    2  A    between atoms: C_6  and  N_18
    3  A    between atoms: C_6  and  C_37
    4  A    between atoms: C_9  and  C_30
    5  A    between atoms: C_10  and  N_18
    6  A    between atoms: C_10  and  C_19
    7  A    between atoms: N_16  and  N_26
    8  A    between atoms: C_19  and  C_32
    9  A    between atoms: C_21  and  N_35
   10  A    between atoms: C_24  and  C_36
   11  A    between atoms: N_25  and  C_29
   12  A    between atoms: N_26  and  C_36
                            x       y       z     vdW  Elec       q    Type
                         _______ _______ _______ _____ _____    ______ ____

>  <TORSDO>
F 12

$$$$
=
 OpenBabel10222416273D

 38 40  0  0  1  0  0  0  0  0999 V2000
  189.8570  177.7940  138.2220 C   0  0  0  0  0  2  0  0  0  0  0  0
  187.6500  178.0230  139.2860 C   0  0  0  0  0  3  0  0  0  0  0  0
  188.9630  177.8040  139.4340 C   0  0  0  0  0  0  0  0  0  0  0  0
  187.7710  177.5160  136.8720 C   0  0  0  0  0  0  0  0  0  0  0  0
  187.0310  178.2780  137.9390 C   0  0  1  0  0  3  0  0  0  0  0  0
  189.1650  177.2160  137.0620 N   0  0  0  0  0  0  0  0  0  0  0  0
  187.1870  177.1920  135.8030 O   0  0  0  0  0  0  0  0  0  0  0  0
  192.2070  175.0200  136.2310 O   0  0  0  0  0  0  0  0  0  0  0  0
  189.6720  174.2080  135.8260 N   0  0  0  0  0  0  0  0  0  0  0  0
  190.6780  174.9980  138.2330 O   0  0  0  0  0  0  0  0  0  0  0  0
  188.7500  173.5570  136.7450 C   0  0  0  0  0  1  0  0  0  0  0  0
  190.7980  175.1450  136.7400 S   0  0  0  0  0  0  0  0  0  0  0  0
  189.8860  176.4630  136.0280 C   0  0  1  0  0  3  0  0  0  0  0  0
  189.0010  175.4180  135.3240 C   0  0  0  0  0  2  0  0  0  0  0  0
  190.7380  177.0880  140.8940 N   0  0  0  0  0  2  0  0  0  0  0  0
  188.7870  177.9130  141.9390 N   0  0  0  0  0  2  0  0  0  0  0  0
  189.5450  177.5770  140.7710 C   0  0  0  0  0  0  0  0  0  0  0  0
  189.3220  177.7900  143.2300 N   0  0  0  0  0  2  0  0  0  0  0  0
  188.5830  176.7310  143.9020 C   0  0  0  0  0  2  0  0  0  0  0  0
  188.2150  177.4310  146.2740 C   0  0  0  0  0  3  0  0  0  0  0  0
  186.4430  177.7730  144.6650 C   0  0  0  0  0  3  0  0  0  0  0  0
  187.3990  177.9920  147.2600 C   0  0  0  0  0  0  0  0  0  0  0  0
  187.7270  177.3130  144.9700 C   0  0  0  0  0  0  0  0  0  0  0  0
  184.2920  178.8270  145.3700 C   0  0  0  0  0  1  0  0  0  0  0  0
  185.6610  178.3340  145.6760 C   0  0  0  0  0  0  0  0  0  0  0  0
  186.1500  178.4330  146.9420 N   0  0  0  0  0  0  0  0  0  0  0  0
  187.9070  178.1380  148.6510 C   0  0  0  0  0  2  0  0  0  0  0  0
  189.3550  178.2640  148.6340 N   0  0  0  0  0  1  0  0  0  0  0  0
  184.9390  179.6970  139.2840 O   0  0  0  0  0  0  0  0  0  0  0  0
  185.6260  177.8940  137.9620 N   0  0  0  0  0  2  0  0  0  0  0  0
  184.6350  178.6360  138.6750 C   0  0  0  0  0  0  0  0  0  0  0  0
  183.2220  178.1700  138.6680 C   0  0  0  0  0  2  0  0  0  0  0  0
  182.4080  179.0620  139.4890 N   0  0  0  0  0  2  0  0  0  0  0  0
  181.7320  178.3060  140.5440 C   0  0  2  0  0  3  0  0  0  0  0  0
  180.3430  178.3640  140.3890 O   0  0  0  0  0  1  0  0  0  0  0  0
  182.1500  178.7910  141.9310 C   0  0  0  0  0  2  0  0  0  0  0  0
  180.7130  178.5460  143.9560 C   0  0  0  0  0  1  0  0  0  0  0  0
  180.9620  179.3540  142.6950 C   0  0  0  0  0  2  0  0  0  0  0  0
  1  3  1  0  0  0  0
  2  3  2  0  0  0  0
  3 17  1  0  0  0  0
  4  6  1  0  0  0  0
  4  5  1  0  0  0  0
  5 30  1  1  0  0  0
  5  2  1  0  0  0  0
  6  1  1  0  0  0  0
  7  4  2  0  0  0  0
  8 12  2  0  0  0  0
  9 12  1  0  0  0  0
  9 11  1  0  0  0  0
 12 10  2  0  0  0  0
 13 14  1  6  0  0  0
 13 12  1  0  0  0  0
 13  6  1  0  0  0  0
 14  9  1  0  0  0  0
 16 18  1  0  0  0  0
 17 15  2  0  0  0  0
 17 16  1  0  0  0  0
 18 19  1  0  0  0  0
 19 23  1  0  0  0  0
 20 22  1  0  0  0  0
 21 23  1  0  0  0  0
 21 25  2  0  0  0  0
 22 27  1  0  0  0  0
 23 20  2  0  0  0  0
 24 25  1  0  0  0  0
 25 26  1  0  0  0  0
 26 22  2  0  0  0  0
 28 27  1  0  0  0  0
 30 31  1  0  0  0  0
 31 29  2  0  0  0  0
 32 31  1  0  0  0  0
 32 33  1  0  0  0  0
 33 34  1  0  0  0  0
 34 35  1  6  0  0  0
 34 36  1  0  0  0  0
 36 38  1  0  0  0  0
 38 37  1  0  0  0  0
M  END
>  <MODEL>
6

>  <REMARK>
 VINA RESULT:      -7.4      2.696      5.905
  Name = 
  12 active torsions:
  status: ('A' for Active; 'I' for Inactive)
    1  A    between atoms: C_1  and  C_22
    2  A    between atoms: C_6  and  N_18
    3  A    between atoms: C_6  and  C_37
    4  A    between atoms: C_9  and  C_30
    5  A    between atoms: C_10  and  N_18
    6  A    between atoms: C_10  and  C_19
    7  A    between atoms: N_16  and  N_26
    8  A    between atoms: C_19  and  C_32
    9  A    between atoms: C_21  and  N_35
   10  A    between atoms: C_24  and  C_36
   11  A    between atoms: N_25  and  C_29
   12  A    between atoms: N_26  and  C_36
                            x       y       z     vdW  Elec       q    Type
                         _______ _______ _______ _____ _____    ______ ____

>  <TORSDO>
F 12

$$$$
=
 OpenBabel10222416273D

 38 40  0  0  1  0  0  0  0  0999 V2000
  182.9000  179.0820  140.2550 C   0  0  0  0  0  2  0  0  0  0  0  0
  185.1110  178.7180  141.2700 C   0  0  0  0  0  3  0  0  0  0  0  0
  184.3670  178.7560  140.1570 C   0  0  0  0  0  0  0  0  0  0  0  0
  183.0970  178.5530  142.6900 C   0  0  0  0  0  0  0  0  0  0  0  0
  184.5310  179.0060  142.6280 C   0  0  1  0  0  3  0  0  0  0  0  0
  182.3170  178.5250  141.4820 N   0  0  0  0  0  0  0  0  0  0  0  0
  182.5750  178.2520  143.7970 O   0  0  0  0  0  0  0  0  0  0  0  0
  178.9330  178.7890  143.2830 O   0  0  0  0  0  0  0  0  0  0  0  0
  179.2280  179.3080  140.6570 N   0  0  0  0  0  0  0  0  0  0  0  0
  180.5870  180.5810  142.6490 O   0  0  0  0  0  0  0  0  0  0  0  0
  179.6030  180.5480  139.9950 C   0  0  0  0  0  1  0  0  0  0  0  0
  179.8960  179.3050  142.2500 S   0  0  0  0  0  0  0  0  0  0  0  0
  180.9210  178.0720  141.5390 C   0  0  1  0  0  3  0  0  0  0  0  0
  180.1730  178.2730  140.2080 C   0  0  0  0  0  2  0  0  0  0  0  0
  184.2400  178.0460  137.8610 N   0  0  0  0  0  2  0  0  0  0  0  0
  186.3640  178.7320  138.6320 N   0  0  0  0  0  2  0  0  0  0  0  0
  184.9680  178.4880  138.8370 C   0  0  0  0  0  0  0  0  0  0  0  0
  186.9690  178.5680  137.3770 N   0  0  0  0  0  2  0  0  0  0  0  0
  188.3550  178.9930  137.5090 C   0  0  0  0  0  2  0  0  0  0  0  0
  189.6020  178.0010  139.4360 C   0  0  0  0  0  3  0  0  0  0  0  0
  189.4580  176.7550  137.3690 C   0  0  0  0  0  3  0  0  0  0  0  0
  190.3490  176.9570  139.9890 C   0  0  0  0  0  0  0  0  0  0  0  0
  189.1630  177.9000  138.1140 C   0  0  0  0  0  0  0  0  0  0  0  0
  190.5260  174.5050  137.1830 C   0  0  0  0  0  1  0  0  0  0  0  0
  190.2010  175.7300  137.9600 C   0  0  0  0  0  0  0  0  0  0  0  0
  190.6270  175.8500  139.2470 N   0  0  0  0  0  0  0  0  0  0  0  0
  190.8130  177.0420  141.4000 C   0  0  0  0  0  2  0  0  0  0  0  0
  190.2410  175.9510  142.1720 N   0  0  0  0  0  1  0  0  0  0  0  0
  184.8490  179.9030  145.3280 O   0  0  0  0  0  0  0  0  0  0  0  0
  185.3240  178.3410  143.6540 N   0  0  0  0  0  2  0  0  0  0  0  0
  185.4600  178.8570  144.9790 C   0  0  0  0  0  0  0  0  0  0  0  0
  186.3030  178.1330  145.9670 C   0  0  0  0  0  2  0  0  0  0  0  0
  187.2950  177.3240  145.2660 N   0  0  0  0  0  2  0  0  0  0  0  0
  188.6440  177.8200  145.5440 C   0  0  2  0  0  3  0  0  0  0  0  0
  189.3020  178.1710  144.3600 O   0  0  0  0  0  1  0  0  0  0  0  0
  189.4570  176.8020  146.3400 C   0  0  0  0  0  2  0  0  0  0  0  0
  191.7090  176.1970  147.2300 C   0  0  0  0  0  1  0  0  0  0  0  0
  190.9100  177.2350  146.4620 C   0  0  0  0  0  2  0  0  0  0  0  0
  1  6  1  0  0  0  0
  2  5  1  0  0  0  0
  3  1  1  0  0  0  0
  3  2  2  0  0  0  0
  4  7  2  0  0  0  0
  5  4  1  0  0  0  0
  5 30  1  1  0  0  0
  6 13  1  0  0  0  0
  6  4  1  0  0  0  0
  9 12  1  0  0  0  0
 11  9  1  0  0  0  0
 12 10  2  0  0  0  0
 12  8  2  0  0  0  0
 13 14  1  6  0  0  0
 13 12  1  0  0  0  0
 14  9  1  0  0  0  0
 15 17  2  0  0  0  0
 16 17  1  0  0  0  0
 17  3  1  0  0  0  0
 18 19  1  0  0  0  0
 18 16  1  0  0  0  0
 19 23  1  0  0  0  0
 20 22  1  0  0  0  0
 21 25  2  0  0  0  0
 21 23  1  0  0  0  0
 22 27  1  0  0  0  0
 23 20  2  0  0  0  0
 24 25  1  0  0  0  0
 25 26  1  0  0  0  0
 26 22  2  0  0  0  0
 27 28  1  0  0  0  0
 30 31  1  0  0  0  0
 31 29  2  0  0  0  0
 31 32  1  0  0  0  0
 33 34  1  0  0  0  0
 33 32  1  0  0  0  0
 34 35  1  6  0  0  0
 34 36  1  0  0  0  0
 36 38  1  0  0  0  0
 38 37  1  0  0  0  0
M  END
>  <MODEL>
7

>  <REMARK>
 VINA RESULT:      -7.3      4.199      8.176
  Name = 
  12 active torsions:
  status: ('A' for Active; 'I' for Inactive)
    1  A    between atoms: C_1  and  C_22
    2  A    between atoms: C_6  and  N_18
    3  A    between atoms: C_6  and  C_37
    4  A    between atoms: C_9  and  C_30
    5  A    between atoms: C_10  and  N_18
    6  A    between atoms: C_10  and  C_19
    7  A    between atoms: N_16  and  N_26
    8  A    between atoms: C_19  and  C_32
    9  A    between atoms: C_21  and  N_35
   10  A    between atoms: C_24  and  C_36
   11  A    between atoms: N_25  and  C_29
   12  A    between atoms: N_26  and  C_36
                            x       y       z     vdW  Elec       q    Type
                         _______ _______ _______ _____ _____    ______ ____

>  <TORSDO>
F 12

$$$$
=
 OpenBabel10222416273D

 38 40  0  0  1  0  0  0  0  0999 V2000
  189.6310  177.9700  138.3190 C   0  0  0  0  0  2  0  0  0  0  0  0
  187.4930  178.0480  139.5330 C   0  0  0  0  0  3  0  0  0  0  0  0
  188.8210  177.8830  139.5850 C   0  0  0  0  0  0  0  0  0  0  0  0
  187.4740  177.6590  137.0940 C   0  0  0  0  0  0  0  0  0  0  0  0
  186.7750  178.3350  138.2430 C   0  0  1  0  0  3  0  0  0  0  0  0
  188.8900  177.4150  137.1790 N   0  0  0  0  0  0  0  0  0  0  0  0
  186.8340  177.3580  136.0500 O   0  0  0  0  0  0  0  0  0  0  0  0
  191.9310  175.3510  136.0590 O   0  0  0  0  0  0  0  0  0  0  0  0
  189.3960  174.5020  135.7330 N   0  0  0  0  0  0  0  0  0  0  0  0
  190.5100  175.1680  138.1310 O   0  0  0  0  0  0  0  0  0  0  0  0
  188.5380  173.7730  136.6550 C   0  0  0  0  0  1  0  0  0  0  0  0
  190.5480  175.4090  136.6460 S   0  0  0  0  0  0  0  0  0  0  0  0
  189.5710  176.7450  136.0640 C   0  0  1  0  0  3  0  0  0  0  0  0
  188.6740  175.7240  135.3430 C   0  0  0  0  0  2  0  0  0  0  0  0
  190.6510  177.0280  140.8940 N   0  0  0  0  0  2  0  0  0  0  0  0
  188.8860  178.0400  142.0920 N   0  0  0  0  0  2  0  0  0  0  0  0
  189.5000  177.6220  140.8680 C   0  0  0  0  0  0  0  0  0  0  0  0
  189.5230  177.8860  143.3320 N   0  0  0  0  0  2  0  0  0  0  0  0
  188.8580  176.7930  144.0240 C   0  0  0  0  0  2  0  0  0  0  0  0
  186.7100  177.7250  144.9000 C   0  0  0  0  0  3  0  0  0  0  0  0
  188.5570  177.4090  146.4270 C   0  0  0  0  0  3  0  0  0  0  0  0
  185.9440  178.2140  145.9620 C   0  0  0  0  0  0  0  0  0  0  0  0
  188.0290  177.3290  145.1360 C   0  0  0  0  0  0  0  0  0  0  0  0
  188.3040  177.9900  148.8420 C   0  0  0  0  0  1  0  0  0  0  0  0
  187.7580  177.8970  147.4630 C   0  0  0  0  0  0  0  0  0  0  0  0
  186.4780  178.2850  147.2120 N   0  0  0  0  0  0  0  0  0  0  0  0
  184.5330  178.6280  145.7310 C   0  0  0  0  0  2  0  0  0  0  0  0
  184.2680  178.6940  144.3040 N   0  0  0  0  0  1  0  0  0  0  0  0
  184.5630  179.9280  139.1190 O   0  0  0  0  0  0  0  0  0  0  0  0
  185.3920  177.8860  138.3370 N   0  0  0  0  0  2  0  0  0  0  0  0
  184.3380  178.7280  138.8070 C   0  0  0  0  0  0  0  0  0  0  0  0
  182.9530  178.1920  138.8950 C   0  0  0  0  0  2  0  0  0  0  0  0
  182.6310  177.8910  140.2860 N   0  0  0  0  0  2  0  0  0  0  0  0
  181.2250  177.5060  140.4110 C   0  0  2  0  0  3  0  0  0  0  0  0
  180.6710  177.2190  139.1590 O   0  0  0  0  0  1  0  0  0  0  0  0
  180.4160  178.5800  141.1350 C   0  0  0  0  0  2  0  0  0  0  0  0
  180.6000  178.6270  143.6230 C   0  0  0  0  0  1  0  0  0  0  0  0
  181.1860  179.1420  142.3200 C   0  0  0  0  0  2  0  0  0  0  0  0
  1  3  1  0  0  0  0
  2  3  2  0  0  0  0
  3 17  1  0  0  0  0
  4  6  1  0  0  0  0
  4  5  1  0  0  0  0
  5 30  1  1  0  0  0
  5  2  1  0  0  0  0
  6  1  1  0  0  0  0
  7  4  2  0  0  0  0
  8 12  2  0  0  0  0
  9 12  1  0  0  0  0
  9 11  1  0  0  0  0
 12 10  2  0  0  0  0
 13 14  1  6  0  0  0
 13 12  1  0  0  0  0
 13  6  1  0  0  0  0
 14  9  1  0  0  0  0
 16 18  1  0  0  0  0
 17 15  2  0  0  0  0
 17 16  1  0  0  0  0
 18 19  1  0  0  0  0
 19 23  1  0  0  0  0
 20 23  2  0  0  0  0
 20 22  1  0  0  0  0
 21 25  2  0  0  0  0
 22 26  2  0  0  0  0
 23 21  1  0  0  0  0
 25 24  1  0  0  0  0
 26 25  1  0  0  0  0
 27 22  1  0  0  0  0
 28 27  1  0  0  0  0
 30 31  1  0  0  0  0
 31 32  1  0  0  0  0
 31 29  2  0  0  0  0
 32 33  1  0  0  0  0
 33 34  1  0  0  0  0
 34 35  1  6  0  0  0
 34 36  1  0  0  0  0
 36 38  1  0  0  0  0
 38 37  1  0  0  0  0
M  END
>  <MODEL>
8

>  <REMARK>
 VINA RESULT:      -7.2      2.721      6.204
  Name = 
  12 active torsions:
  status: ('A' for Active; 'I' for Inactive)
    1  A    between atoms: C_1  and  C_22
    2  A    between atoms: C_6  and  N_18
    3  A    between atoms: C_6  and  C_37
    4  A    between atoms: C_9  and  C_30
    5  A    between atoms: C_10  and  N_18
    6  A    between atoms: C_10  and  C_19
    7  A    between atoms: N_16  and  N_26
    8  A    between atoms: C_19  and  C_32
    9  A    between atoms: C_21  and  N_35
   10  A    between atoms: C_24  and  C_36
   11  A    between atoms: N_25  and  C_29
   12  A    between atoms: N_26  and  C_36
                            x       y       z     vdW  Elec       q    Type
                         _______ _______ _______ _____ _____    ______ ____

>  <TORSDO>
F 12

$$$$
=
 OpenBabel10222416273D

 38 40  0  0  1  0  0  0  0  0999 V2000
  189.7260  177.7110  137.8180 C   0  0  0  0  0  2  0  0  0  0  0  0
  187.6140  178.0190  139.0410 C   0  0  0  0  0  3  0  0  0  0  0  0
  188.9340  177.8000  139.0960 C   0  0  0  0  0  0  0  0  0  0  0  0
  187.5370  177.3680  136.6600 C   0  0  0  0  0  0  0  0  0  0  0  0
  186.8890  178.1970  137.7360 C   0  0  1  0  0  3  0  0  0  0  0  0
  188.9420  177.0700  136.7550 N   0  0  0  0  0  0  0  0  0  0  0  0
  186.8670  176.9840  135.6640 O   0  0  0  0  0  0  0  0  0  0  0  0
  191.8810  174.7770  135.8250 O   0  0  0  0  0  0  0  0  0  0  0  0
  189.3110  173.9920  135.6460 N   0  0  0  0  0  0  0  0  0  0  0  0
  190.5020  174.8870  137.9300 O   0  0  0  0  0  0  0  0  0  0  0  0
  188.4500  173.4070  136.6620 C   0  0  0  0  0  1  0  0  0  0  0  0
  190.5160  174.9540  136.4270 S   0  0  0  0  0  0  0  0  0  0  0  0
  189.5740  176.2510  135.7130 C   0  0  1  0  0  3  0  0  0  0  0  0
  188.6240  175.1880  135.1310 C   0  0  0  0  0  2  0  0  0  0  0  0
  190.8900  177.3880  140.4370 N   0  0  0  0  0  2  0  0  0  0  0  0
  188.8820  177.8050  141.6080 N   0  0  0  0  0  2  0  0  0  0  0  0
  189.6220  177.6490  140.3920 C   0  0  0  0  0  0  0  0  0  0  0  0
  189.5020  177.7490  142.8650 N   0  0  0  0  0  2  0  0  0  0  0  0
  188.4450  177.6830  143.8630 C   0  0  0  0  0  2  0  0  0  0  0  0
  190.2830  176.8230  145.3250 C   0  0  0  0  0  3  0  0  0  0  0  0
  188.3540  177.8560  146.3540 C   0  0  0  0  0  3  0  0  0  0  0  0
  190.8230  176.6160  146.5970 C   0  0  0  0  0  0  0  0  0  0  0  0
  189.0340  177.4400  145.2070 C   0  0  0  0  0  0  0  0  0  0  0  0
  188.2220  178.0720  148.8380 C   0  0  0  0  0  1  0  0  0  0  0  0
  188.9310  177.6370  147.6070 C   0  0  0  0  0  0  0  0  0  0  0  0
  190.1440  177.0280  147.7020 N   0  0  0  0  0  0  0  0  0  0  0  0
  192.1580  175.9730  146.7400 C   0  0  0  0  0  2  0  0  0  0  0  0
  192.6220  176.1040  148.1110 N   0  0  0  0  0  1  0  0  0  0  0  0
  184.9060  179.7310  139.1200 O   0  0  0  0  0  0  0  0  0  0  0  0
  185.4890  177.8250  137.8950 N   0  0  0  0  0  2  0  0  0  0  0  0
  184.5550  178.6280  138.6210 C   0  0  0  0  0  0  0  0  0  0  0  0
  183.1460  178.1730  138.7590 C   0  0  0  0  0  2  0  0  0  0  0  0
  182.9320  177.6400  140.1000 N   0  0  0  0  0  2  0  0  0  0  0  0
  181.8330  178.3470  140.7600 C   0  0  2  0  0  3  0  0  0  0  0  0
  181.4560  179.4790  140.0280 O   0  0  0  0  0  1  0  0  0  0  0  0
  182.1940  178.7190  142.1960 C   0  0  0  0  0  2  0  0  0  0  0  0
  180.3600  178.4460  143.8660 C   0  0  0  0  0  1  0  0  0  0  0  0
  181.0290  179.4020  142.8950 C   0  0  0  0  0  2  0  0  0  0  0  0
  1  3  1  0  0  0  0
  2  3  2  0  0  0  0
  3 17  1  0  0  0  0
  4  6  1  0  0  0  0
  4  5  1  0  0  0  0
  5 30  1  1  0  0  0
  5  2  1  0  0  0  0
  6  1  1  0  0  0  0
  7  4  2  0  0  0  0
  8 12  2  0  0  0  0
  9 12  1  0  0  0  0
  9 11  1  0  0  0  0
 12 10  2  0  0  0  0
 13 14  1  6  0  0  0
 13 12  1  0  0  0  0
 13  6  1  0  0  0  0
 14  9  1  0  0  0  0
 16 18  1  0  0  0  0
 17 15  2  0  0  0  0
 17 16  1  0  0  0  0
 18 19  1  0  0  0  0
 19 23  1  0  0  0  0
 20 22  1  0  0  0  0
 21 25  2  0  0  0  0
 22 27  1  0  0  0  0
 22 26  2  0  0  0  0
 23 20  2  0  0  0  0
 23 21  1  0  0  0  0
 25 26  1  0  0  0  0
 25 24  1  0  0  0  0
 27 28  1  0  0  0  0
 30 31  1  0  0  0  0
 31 32  1  0  0  0  0
 31 29  2  0  0  0  0
 32 33  1  0  0  0  0
 33 34  1  0  0  0  0
 34 35  1  6  0  0  0
 34 36  1  0  0  0  0
 36 38  1  0  0  0  0
 38 37  1  0  0  0  0
M  END
>  <MODEL>
9

>  <REMARK>
 VINA RESULT:      -7.2      2.689      6.599
  Name = 
  12 active torsions:
  status: ('A' for Active; 'I' for Inactive)
    1  A    between atoms: C_1  and  C_22
    2  A    between atoms: C_6  and  N_18
    3  A    between atoms: C_6  and  C_37
    4  A    between atoms: C_9  and  C_30
    5  A    between atoms: C_10  and  N_18
    6  A    between atoms: C_10  and  C_19
    7  A    between atoms: N_16  and  N_26
    8  A    between atoms: C_19  and  C_32
    9  A    between atoms: C_21  and  N_35
   10  A    between atoms: C_24  and  C_36
   11  A    between atoms: N_25  and  C_29
   12  A    between atoms: N_26  and  C_36
                            x       y       z     vdW  Elec       q    Type
                         _______ _______ _______ _____ _____    ______ ____

>  <TORSDO>
F 12

$$$$
