=
 OpenBabel10222420463D

 39 42  0  0  1  0  0  0  0  0999 V2000
  189.0730  176.0790  137.8550 C   0  0  0  0  0  3  0  0  0  0  0  0
  189.6900  176.6980  138.8690 C   0  0  0  0  0  0  0  0  0  0  0  0
  190.3560  174.1680  134.9160 C   0  0  0  0  0  2  0  0  0  0  0  0
  189.6950  175.1470  136.9590 N   0  0  0  0  0  0  0  0  0  0  0  0
  191.3980  173.8290  135.9750 C   0  0  2  0  0  3  0  0  0  0  0  0
  190.8060  174.2770  137.2960 C   0  0  0  0  0  2  0  0  0  0  0  0
  189.4370  175.2040  135.5370 C   0  0  0  0  0  2  0  0  0  0  0  0
  192.6080  174.5920  135.7180 N   0  0  0  0  0  2  0  0  0  0  0  0
  195.3180  172.9260  137.5900 C   0  0  1  0  0  3  0  0  0  0  0  0
  196.5050  173.4060  136.2970 S   0  0  0  0  0  0  0  0  0  0  0  0
  195.6180  173.6730  138.8770 C   0  0  0  0  0  1  0  0  0  0  0  0
  193.9860  173.2590  137.1160 N   0  0  0  0  0  0  0  0  0  0  0  0
  193.8710  174.2400  136.2830 C   0  0  0  0  0  0  0  0  0  0  0  0
  195.3450  175.1340  135.8280 S   0  0  0  0  0  0  0  0  0  0  0  0
  188.9290  177.7100  139.6370 C   0  0  0  0  0  0  0  0  0  0  0  0
  188.6260  178.8710  139.1410 N   0  0  0  0  0  0  0  0  0  0  0  0
  189.0150  179.2660  137.8540 N   0  0  0  0  0  1  0  0  0  0  0  0
  188.5390  177.4120  141.0450 C   0  0  0  0  0  2  0  0  0  0  0  0
  189.5060  178.0870  142.0050 C   0  0  0  0  0  2  0  0  0  0  0  0
  189.8910  177.1590  143.0580 N   0  0  0  0  0  2  0  0  0  0  0  0
  191.7290  177.2740  144.5160 O   0  0  0  0  0  1  0  0  0  0  0  0
  190.5690  177.9330  144.0930 C   0  0  2  0  0  3  0  0  0  0  0  0
  189.6750  178.1760  145.2190 N   0  0  0  0  0  2  0  0  0  0  0  0
  189.8420  177.1410  146.1600 N   0  0  0  0  0  0  0  0  0  0  0  0
  188.6040  176.8400  146.8750 C   0  0  1  0  0  3  0  0  0  0  0  0
  189.5340  177.6900  147.3950 O   0  0  0  0  0  0  0  0  0  0  0  0
  185.2400  178.0490  142.9770 S   0  0  0  0  0  1  0  0  0  0  0  0
  186.7210  178.4520  147.2940 C   0  0  0  0  0  3  0  0  0  0  0  0
  186.9340  177.4810  145.0850 C   0  0  0  0  0  3  0  0  0  0  0  0
  187.3830  177.5910  146.4090 C   0  0  0  0  0  0  0  0  0  0  0  0
  185.8160  178.2050  144.6590 C   0  0  0  0  0  0  0  0  0  0  0  0
  185.6040  179.1760  146.8680 C   0  0  0  0  0  3  0  0  0  0  0  0
  185.1500  179.0500  145.5510 C   0  0  0  0  0  3  0  0  0  0  0  0
  191.0660  176.4240  139.1690 N   0  0  0  0  0  2  0  0  0  0  0  0
  192.8990  176.8710  137.8120 F   0  0  0  0  0  0  0  0  0  0  0  0
  192.1640  177.3380  138.8880 C   0  0  2  0  0  3  0  0  0  0  0  0
  192.3580  177.1040  141.2570 F   0  0  0  0  0  0  0  0  0  0  0  0
  193.0530  177.4600  140.1120 C   0  0  0  0  0  3  0  0  0  0  0  0
  194.1640  176.6480  139.9730 F   0  0  0  0  0  0  0  0  0  0  0  0
  1  2  2  0  0  0  0
  2 34  1  0  0  0  0
  2 15  1  0  0  0  0
  3  7  1  0  0  0  0
  3  5  1  0  0  0  0
  4  6  1  0  0  0  0
  4  1  1  0  0  0  0
  5  8  1  6  0  0  0
  5  6  1  0  0  0  0
  7  4  1  0  0  0  0
  8 13  1  0  0  0  0
  9 11  1  1  0  0  0
 10  9  1  0  0  0  0
 12  9  1  0  0  0  0
 13 12  2  0  0  0  0
 14 13  1  0  0  0  0
 14 10  1  0  0  0  0
 15 18  1  0  0  0  0
 16 15  2  0  0  0  0
 17 16  1  0  0  0  0
 18 19  1  0  0  0  0
 19 20  1  0  0  0  0
 20 22  1  0  0  0  0
 22 21  1  1  0  0  0
 22 23  1  0  0  0  0
 23 24  1  0  0  0  0
 24 25  1  0  0  0  0
 24 26  1  0  0  0  0
 25 30  1  6  0  0  0
 25 26  1  0  0  0  0
 27 31  1  0  0  0  0
 29 30  1  0  0  0  0
 30 28  2  0  0  0  0
 31 29  2  0  0  0  0
 31 33  1  0  0  0  0
 32 28  1  0  0  0  0
 33 32  2  0  0  0  0
 36 35  1  6  0  0  0
 36 34  1  0  0  0  0
 36 38  1  0  0  0  0
 38 37  1  0  0  0  0
 39 38  1  0  0  0  0
M  END
>  <MODEL>
1

>  <REMARK>
 VINA RESULT:      -7.3      0.000      0.000
  Name = 
  13 active torsions:
  status: ('A' for Active; 'I' for Inactive)
    1  A    between atoms: C_3  and  N_8
    2  A    between atoms: N_6  and  C_17
    3  A    between atoms: C_11  and  C_13
    4  A    between atoms: C_11  and  C_33
    5  A    between atoms: C_13  and  C_21
    6  A    between atoms: C_16  and  C_30
    7  A    between atoms: N_18  and  C_21
    8  A    between atoms: N_18  and  C_31
    9  A    between atoms: C_20  and  C_36
   10  A    between atoms: N_24  and  N_28
   11  A    between atoms: N_28  and  C_31
   12  A    between atoms: C_33  and  N_34
   13  A    between atoms: N_34  and  C_36
                            x       y       z     vdW  Elec       q    Type
                         _______ _______ _______ _____ _____    ______ ____

>  <TORSDO>
F 13

$$$$
=
 OpenBabel10222420463D

 39 42  0  0  1  0  0  0  0  0999 V2000
  187.9440  177.4900  144.4520 C   0  0  0  0  0  3  0  0  0  0  0  0
  188.1510  177.6890  145.7600 C   0  0  0  0  0  0  0  0  0  0  0  0
  190.3910  176.0890  142.0060 C   0  0  0  0  0  2  0  0  0  0  0  0
  188.9750  177.2700  143.4800 N   0  0  0  0  0  0  0  0  0  0  0  0
  190.1990  177.5010  141.4660 C   0  0  2  0  0  3  0  0  0  0  0  0
  189.4860  178.2690  142.5600 C   0  0  0  0  0  2  0  0  0  0  0  0
  189.4000  175.9280  143.1440 C   0  0  0  0  0  2  0  0  0  0  0  0
  189.3440  177.4510  140.2910 N   0  0  0  0  0  2  0  0  0  0  0  0
  191.0960  175.3580  137.8060 C   0  0  1  0  0  3  0  0  0  0  0  0
  189.4940  174.7650  137.1790 S   0  0  0  0  0  0  0  0  0  0  0  0
  191.7780  176.2230  136.7620 C   0  0  0  0  0  1  0  0  0  0  0  0
  190.8430  176.1300  139.0100 N   0  0  0  0  0  0  0  0  0  0  0  0
  189.7000  176.7250  139.1140 C   0  0  0  0  0  0  0  0  0  0  0  0
  188.5560  176.5920  137.7550 S   0  0  0  0  0  0  0  0  0  0  0  0
  186.9820  178.0040  146.6120 C   0  0  0  0  0  0  0  0  0  0  0  0
  187.1090  178.3960  147.8440 N   0  0  0  0  0  0  0  0  0  0  0  0
  188.3560  178.5270  148.4680 N   0  0  0  0  0  1  0  0  0  0  0  0
  185.6090  177.8190  146.0600 C   0  0  0  0  0  2  0  0  0  0  0  0
  185.0810  179.1440  145.5300 C   0  0  0  0  0  2  0  0  0  0  0  0
  183.6390  179.0670  145.3490 N   0  0  0  0  0  2  0  0  0  0  0  0
  184.4510  179.3340  143.1610 O   0  0  0  0  0  1  0  0  0  0  0  0
  183.3900  178.8420  143.9290 C   0  0  2  0  0  3  0  0  0  0  0  0
  182.1320  179.4590  143.5250 N   0  0  0  0  0  2  0  0  0  0  0  0
  181.0730  178.6030  143.8870 N   0  0  0  0  0  0  0  0  0  0  0  0
  180.1830  178.3200  142.7620 C   0  0  1  0  0  3  0  0  0  0  0  0
  179.9060  179.3130  143.6530 O   0  0  0  0  0  0  0  0  0  0  0  0
  179.6400  182.0250  139.0280 S   0  0  0  0  0  1  0  0  0  0  0  0
  181.5870  178.2200  140.6790 C   0  0  0  0  0  3  0  0  0  0  0  0
  180.0110  180.0440  140.9180 C   0  0  0  0  0  3  0  0  0  0  0  0
  180.6130  178.8870  141.4330 C   0  0  0  0  0  0  0  0  0  0  0  0
  180.4000  180.5440  139.6710 C   0  0  0  0  0  0  0  0  0  0  0  0
  181.9750  178.7200  139.4320 C   0  0  0  0  0  3  0  0  0  0  0  0
  181.3830  179.8830  138.9300 C   0  0  0  0  0  3  0  0  0  0  0  0
  189.4760  177.6480  146.3080 N   0  0  0  0  0  2  0  0  0  0  0  0
  190.0850  176.0000  147.8290 F   0  0  0  0  0  0  0  0  0  0  0  0
  190.2370  176.4250  146.5210 C   0  0  2  0  0  3  0  0  0  0  0  0
  192.3960  175.4790  146.1340 F   0  0  0  0  0  0  0  0  0  0  0  0
  191.7050  176.6770  146.2230 C   0  0  0  0  0  3  0  0  0  0  0  0
  191.8330  177.3760  145.0360 F   0  0  0  0  0  0  0  0  0  0  0  0
  1  2  2  0  0  0  0
  2 34  1  0  0  0  0
  2 15  1  0  0  0  0
  3  7  1  0  0  0  0
  4  1  1  0  0  0  0
  5  8  1  6  0  0  0
  5  3  1  0  0  0  0
  5  6  1  0  0  0  0
  6  4  1  0  0  0  0
  7  4  1  0  0  0  0
  9 11  1  6  0  0  0
  9 12  1  0  0  0  0
 10 14  1  0  0  0  0
 10  9  1  0  0  0  0
 12 13  2  0  0  0  0
 13  8  1  0  0  0  0
 14 13  1  0  0  0  0
 15 16  2  0  0  0  0
 16 17  1  0  0  0  0
 18 15  1  0  0  0  0
 19 18  1  0  0  0  0
 20 19  1  0  0  0  0
 22 21  1  6  0  0  0
 22 20  1  0  0  0  0
 23 24  1  0  0  0  0
 23 22  1  0  0  0  0
 25 30  1  6  0  0  0
 25 26  1  0  0  0  0
 25 24  1  0  0  0  0
 26 24  1  0  0  0  0
 27 31  1  0  0  0  0
 28 30  1  0  0  0  0
 29 30  2  0  0  0  0
 31 29  1  0  0  0  0
 32 28  2  0  0  0  0
 33 32  1  0  0  0  0
 33 31  2  0  0  0  0
 34 36  1  0  0  0  0
 36 35  1  1  0  0  0
 37 38  1  0  0  0  0
 38 36  1  0  0  0  0
 39 38  1  0  0  0  0
M  END
>  <MODEL>
2

>  <REMARK>
 VINA RESULT:      -7.3      4.902      7.509
  Name = 
  13 active torsions:
  status: ('A' for Active; 'I' for Inactive)
    1  A    between atoms: C_3  and  N_8
    2  A    between atoms: N_6  and  C_17
    3  A    between atoms: C_11  and  C_13
    4  A    between atoms: C_11  and  C_33
    5  A    between atoms: C_13  and  C_21
    6  A    between atoms: C_16  and  C_30
    7  A    between atoms: N_18  and  C_21
    8  A    between atoms: N_18  and  C_31
    9  A    between atoms: C_20  and  C_36
   10  A    between atoms: N_24  and  N_28
   11  A    between atoms: N_28  and  C_31
   12  A    between atoms: C_33  and  N_34
   13  A    between atoms: N_34  and  C_36
                            x       y       z     vdW  Elec       q    Type
                         _______ _______ _______ _____ _____    ______ ____

>  <TORSDO>
F 13

$$$$
=
 OpenBabel10222420463D

 39 42  0  0  1  0  0  0  0  0999 V2000
  187.8240  177.3220  143.8410 C   0  0  0  0  0  3  0  0  0  0  0  0
  188.2600  177.7190  145.0430 C   0  0  0  0  0  0  0  0  0  0  0  0
  189.8590  176.7790  140.7580 C   0  0  0  0  0  2  0  0  0  0  0  0
  188.5640  177.4410  142.6170 N   0  0  0  0  0  0  0  0  0  0  0  0
  189.0320  177.9980  140.3640 C   0  0  2  0  0  3  0  0  0  0  0  0
  188.4120  178.5100  141.6480 C   0  0  0  0  0  2  0  0  0  0  0  0
  189.3370  176.3290  142.1100 C   0  0  0  0  0  2  0  0  0  0  0  0
  187.9710  177.5840  139.4600 N   0  0  0  0  0  2  0  0  0  0  0  0
  189.6160  176.4700  136.3500 C   0  0  1  0  0  3  0  0  0  0  0  0
  188.3000  175.2400  136.0950 S   0  0  0  0  0  0  0  0  0  0  0  0
  189.5350  177.5490  135.2850 C   0  0  0  0  0  1  0  0  0  0  0  0
  189.4320  177.0520  137.6680 N   0  0  0  0  0  0  0  0  0  0  0  0
  188.2320  177.0890  138.1470 C   0  0  0  0  0  0  0  0  0  0  0  0
  186.9020  176.4740  137.1320 S   0  0  0  0  0  0  0  0  0  0  0  0
  187.3310  177.6180  146.1910 C   0  0  0  0  0  0  0  0  0  0  0  0
  187.7510  177.5030  147.4140 N   0  0  0  0  0  0  0  0  0  0  0  0
  189.1120  177.4390  147.7400 N   0  0  0  0  0  1  0  0  0  0  0  0
  185.8610  177.5970  145.9370 C   0  0  0  0  0  2  0  0  0  0  0  0
  185.3310  179.0190  145.8430 C   0  0  0  0  0  2  0  0  0  0  0  0
  183.9230  179.0030  145.4710 N   0  0  0  0  0  2  0  0  0  0  0  0
  184.9130  179.7210  143.4660 O   0  0  0  0  0  1  0  0  0  0  0  0
  183.8580  178.9820  144.0140 C   0  0  2  0  0  3  0  0  0  0  0  0
  182.5740  179.4970  143.5520 N   0  0  0  0  0  2  0  0  0  0  0  0
  181.5550  178.6270  143.9900 N   0  0  0  0  0  0  0  0  0  0  0  0
  180.5940  178.3270  142.9310 C   0  0  1  0  0  3  0  0  0  0  0  0
  180.3650  179.3210  143.8370 O   0  0  0  0  0  0  0  0  0  0  0  0
  183.6260  178.2550  138.5980 S   0  0  0  0  0  1  0  0  0  0  0  0
  180.1940  179.9910  141.0890 C   0  0  0  0  0  3  0  0  0  0  0  0
  181.9790  178.3760  140.8130 C   0  0  0  0  0  3  0  0  0  0  0  0
  180.9210  178.8960  141.5730 C   0  0  0  0  0  0  0  0  0  0  0  0
  182.2880  178.9310  139.5680 C   0  0  0  0  0  0  0  0  0  0  0  0
  180.5040  180.5460  139.8440 C   0  0  0  0  0  3  0  0  0  0  0  0
  181.5490  180.0140  139.0830 C   0  0  0  0  0  3  0  0  0  0  0  0
  189.5730  178.2740  145.2010 N   0  0  0  0  0  2  0  0  0  0  0  0
  191.4700  177.1060  145.8640 F   0  0  0  0  0  0  0  0  0  0  0  0
  190.7980  177.6170  144.7670 C   0  0  2  0  0  3  0  0  0  0  0  0
  191.9930  178.1440  142.7680 F   0  0  0  0  0  0  0  0  0  0  0  0
  191.6800  178.6120  144.0340 C   0  0  0  0  0  3  0  0  0  0  0  0
  191.0340  179.8310  143.9320 F   0  0  0  0  0  0  0  0  0  0  0  0
  1  2  2  0  0  0  0
  2 34  1  0  0  0  0
  2 15  1  0  0  0  0
  3  7  1  0  0  0  0
  4  1  1  0  0  0  0
  5  8  1  6  0  0  0
  5  3  1  0  0  0  0
  5  6  1  0  0  0  0
  6  4  1  0  0  0  0
  7  4  1  0  0  0  0
  9 11  1  6  0  0  0
  9 12  1  0  0  0  0
 10  9  1  0  0  0  0
 10 14  1  0  0  0  0
 12 13  2  0  0  0  0
 13  8  1  0  0  0  0
 14 13  1  0  0  0  0
 15 16  2  0  0  0  0
 16 17  1  0  0  0  0
 18 15  1  0  0  0  0
 19 18  1  0  0  0  0
 20 19  1  0  0  0  0
 22 21  1  6  0  0  0
 22 20  1  0  0  0  0
 23 24  1  0  0  0  0
 23 22  1  0  0  0  0
 25 30  1  6  0  0  0
 25 26  1  0  0  0  0
 25 24  1  0  0  0  0
 26 24  1  0  0  0  0
 27 31  1  0  0  0  0
 28 30  1  0  0  0  0
 29 30  2  0  0  0  0
 31 29  1  0  0  0  0
 32 28  2  0  0  0  0
 33 31  2  0  0  0  0
 33 32  1  0  0  0  0
 36 34  1  0  0  0  0
 36 35  1  1  0  0  0
 37 38  1  0  0  0  0
 38 36  1  0  0  0  0
 39 38  1  0  0  0  0
M  END
>  <MODEL>
3

>  <REMARK>
 VINA RESULT:      -7.3      4.476      7.158
  Name = 
  13 active torsions:
  status: ('A' for Active; 'I' for Inactive)
    1  A    between atoms: C_3  and  N_8
    2  A    between atoms: N_6  and  C_17
    3  A    between atoms: C_11  and  C_13
    4  A    between atoms: C_11  and  C_33
    5  A    between atoms: C_13  and  C_21
    6  A    between atoms: C_16  and  C_30
    7  A    between atoms: N_18  and  C_21
    8  A    between atoms: N_18  and  C_31
    9  A    between atoms: C_20  and  C_36
   10  A    between atoms: N_24  and  N_28
   11  A    between atoms: N_28  and  C_31
   12  A    between atoms: C_33  and  N_34
   13  A    between atoms: N_34  and  C_36
                            x       y       z     vdW  Elec       q    Type
                         _______ _______ _______ _____ _____    ______ ____

>  <TORSDO>
F 13

$$$$
=
 OpenBabel10222420463D

 39 42  0  0  1  0  0  0  0  0999 V2000
  186.9460  177.7250  144.0390 C   0  0  0  0  0  3  0  0  0  0  0  0
  186.8290  178.1190  145.3130 C   0  0  0  0  0  0  0  0  0  0  0  0
  189.8460  176.0290  142.4120 C   0  0  0  0  0  2  0  0  0  0  0  0
  188.1800  177.3820  143.3930 N   0  0  0  0  0  0  0  0  0  0  0  0
  189.9110  177.4130  141.7790 C   0  0  2  0  0  3  0  0  0  0  0  0
  188.9920  178.2900  142.6040 C   0  0  0  0  0  2  0  0  0  0  0  0
  188.5780  175.9990  143.2440 C   0  0  0  0  0  2  0  0  0  0  0  0
  189.4010  177.3420  140.4190 N   0  0  0  0  0  2  0  0  0  0  0  0
  191.9570  175.5740  138.4290 C   0  0  1  0  0  3  0  0  0  0  0  0
  190.6490  174.8580  137.3860 S   0  0  0  0  0  0  0  0  0  0  0  0
  192.7860  176.5590  137.6240 C   0  0  0  0  0  1  0  0  0  0  0  0
  191.3170  176.2500  139.5430 N   0  0  0  0  0  0  0  0  0  0  0  0
  190.1270  176.7210  139.3590 C   0  0  0  0  0  0  0  0  0  0  0  0
  189.3960  176.5470  137.7430 S   0  0  0  0  0  0  0  0  0  0  0  0
  185.4930  178.5340  145.7960 C   0  0  0  0  0  0  0  0  0  0  0  0
  185.3330  179.2130  146.8910 N   0  0  0  0  0  0  0  0  0  0  0  0
  186.4060  179.5830  147.7130 N   0  0  0  0  0  1  0  0  0  0  0  0
  184.2820  178.1200  145.0300 C   0  0  0  0  0  2  0  0  0  0  0  0
  183.6420  179.3340  144.3740 C   0  0  0  0  0  2  0  0  0  0  0  0
  183.0930  178.9670  143.0770 N   0  0  0  0  0  2  0  0  0  0  0  0
  185.0340  179.5730  141.9010 O   0  0  0  0  0  1  0  0  0  0  0  0
  184.2020  178.5030  142.2510 C   0  0  2  0  0  3  0  0  0  0  0  0
  183.7040  177.8270  141.0580 N   0  0  0  0  0  2  0  0  0  0  0  0
  182.4240  178.3310  140.7550 N   0  0  0  0  0  0  0  0  0  0  0  0
  181.9940  177.9710  139.4060 C   0  0  1  0  0  3  0  0  0  0  0  0
  182.5890  179.1700  139.6640 O   0  0  0  0  0  0  0  0  0  0  0  0
  186.0240  177.3870  136.0310 S   0  0  0  0  0  1  0  0  0  0  0  0
  182.7580  175.6680  138.7450 C   0  0  0  0  0  3  0  0  0  0  0  0
  183.9160  177.5780  137.8060 C   0  0  0  0  0  3  0  0  0  0  0  0
  182.9230  177.0560  138.6490 C   0  0  0  0  0  0  0  0  0  0  0  0
  184.7530  176.7180  137.0890 C   0  0  0  0  0  0  0  0  0  0  0  0
  183.5950  174.8080  138.0270 C   0  0  0  0  0  3  0  0  0  0  0  0
  184.5930  175.3330  137.2010 C   0  0  0  0  0  3  0  0  0  0  0  0
  187.9790  178.1850  146.1690 N   0  0  0  0  0  2  0  0  0  0  0  0
  188.1080  176.9250  148.1180 F   0  0  0  0  0  0  0  0  0  0  0  0
  188.5800  177.0310  146.8220 C   0  0  2  0  0  3  0  0  0  0  0  0
  190.6990  175.9500  147.0380 F   0  0  0  0  0  0  0  0  0  0  0  0
  190.0920  177.1780  146.8300 C   0  0  0  0  0  3  0  0  0  0  0  0
  190.5210  177.7100  145.6270 F   0  0  0  0  0  0  0  0  0  0  0  0
  1  2  2  0  0  0  0
  2 15  1  0  0  0  0
  2 34  1  0  0  0  0
  3  7  1  0  0  0  0
  4  1  1  0  0  0  0
  5  8  1  6  0  0  0
  5  3  1  0  0  0  0
  5  6  1  0  0  0  0
  6  4  1  0  0  0  0
  7  4  1  0  0  0  0
  9 11  1  6  0  0  0
  9 12  1  0  0  0  0
 10 14  1  0  0  0  0
 10  9  1  0  0  0  0
 13 12  2  0  0  0  0
 13  8  1  0  0  0  0
 14 13  1  0  0  0  0
 15 16  2  0  0  0  0
 16 17  1  0  0  0  0
 18 15  1  0  0  0  0
 19 18  1  0  0  0  0
 20 19  1  0  0  0  0
 22 21  1  6  0  0  0
 22 20  1  0  0  0  0
 23 22  1  0  0  0  0
 24 23  1  0  0  0  0
 25 30  1  6  0  0  0
 25 26  1  0  0  0  0
 25 24  1  0  0  0  0
 26 24  1  0  0  0  0
 27 31  1  0  0  0  0
 29 30  2  0  0  0  0
 30 28  1  0  0  0  0
 31 33  2  0  0  0  0
 31 29  1  0  0  0  0
 32 28  2  0  0  0  0
 33 32  1  0  0  0  0
 34 36  1  0  0  0  0
 36 38  1  0  0  0  0
 36 35  1  1  0  0  0
 38 37  1  0  0  0  0
 39 38  1  0  0  0  0
M  END
>  <MODEL>
4

>  <REMARK>
 VINA RESULT:      -7.3      4.622      7.697
  Name = 
  13 active torsions:
  status: ('A' for Active; 'I' for Inactive)
    1  A    between atoms: C_3  and  N_8
    2  A    between atoms: N_6  and  C_17
    3  A    between atoms: C_11  and  C_13
    4  A    between atoms: C_11  and  C_33
    5  A    between atoms: C_13  and  C_21
    6  A    between atoms: C_16  and  C_30
    7  A    between atoms: N_18  and  C_21
    8  A    between atoms: N_18  and  C_31
    9  A    between atoms: C_20  and  C_36
   10  A    between atoms: N_24  and  N_28
   11  A    between atoms: N_28  and  C_31
   12  A    between atoms: C_33  and  N_34
   13  A    between atoms: N_34  and  C_36
                            x       y       z     vdW  Elec       q    Type
                         _______ _______ _______ _____ _____    ______ ____

>  <TORSDO>
F 13

$$$$
=
 OpenBabel10222420463D

 39 42  0  0  1  0  0  0  0  0999 V2000
  187.8440  174.7700  136.7570 C   0  0  0  0  0  3  0  0  0  0  0  0
  188.1370  175.9610  137.2930 C   0  0  0  0  0  0  0  0  0  0  0  0
  184.7650  172.7650  137.4180 C   0  0  0  0  0  2  0  0  0  0  0  0
  186.5410  174.1680  136.7510 N   0  0  0  0  0  0  0  0  0  0  0  0
  184.1790  174.0160  136.7750 C   0  0  2  0  0  3  0  0  0  0  0  0
  185.3510  174.7560  136.1640 C   0  0  0  0  0  2  0  0  0  0  0  0
  186.2480  173.0310  137.5950 C   0  0  0  0  0  2  0  0  0  0  0  0
  183.5810  174.8480  137.8060 N   0  0  0  0  0  2  0  0  0  0  0  0
  179.9250  174.4620  137.4800 C   0  0  1  0  0  3  0  0  0  0  0  0
  179.7440  174.6680  139.2790 S   0  0  0  0  0  0  0  0  0  0  0  0
  179.3230  175.6510  136.7540 C   0  0  0  0  0  1  0  0  0  0  0  0
  181.3430  174.3600  137.1850 N   0  0  0  0  0  0  0  0  0  0  0  0
  182.1680  174.9520  137.9850 C   0  0  0  0  0  0  0  0  0  0  0  0
  181.4960  175.8830  139.3480 S   0  0  0  0  0  0  0  0  0  0  0  0
  189.5540  176.3920  137.3050 C   0  0  0  0  0  0  0  0  0  0  0  0
  190.1120  176.9640  136.2820 N   0  0  0  0  0  0  0  0  0  0  0  0
  189.4270  177.1960  135.0810 N   0  0  0  0  0  1  0  0  0  0  0  0
  190.3870  176.1160  138.5110 C   0  0  0  0  0  2  0  0  0  0  0  0
  190.4680  177.3620  139.3810 C   0  0  0  0  0  2  0  0  0  0  0  0
  189.9940  177.0620  140.7240 N   0  0  0  0  0  2  0  0  0  0  0  0
  188.6700  178.9140  140.1430 O   0  0  0  0  0  1  0  0  0  0  0  0
  188.7080  177.7310  140.8910 C   0  0  2  0  0  3  0  0  0  0  0  0
  188.4540  178.0060  142.3010 N   0  0  0  0  0  2  0  0  0  0  0  0
  189.0420  176.9850  143.0730 N   0  0  0  0  0  0  0  0  0  0  0  0
  188.3230  176.7540  144.3240 C   0  0  1  0  0  3  0  0  0  0  0  0
  189.4120  177.5730  144.2720 O   0  0  0  0  0  0  0  0  0  0  0  0
  183.7700  178.5350  142.3070 S   0  0  0  0  0  1  0  0  0  0  0  0
  186.8310  178.2350  145.7020 C   0  0  0  0  0  3  0  0  0  0  0  0
  186.1210  177.6550  143.4600 C   0  0  0  0  0  3  0  0  0  0  0  0
  187.0540  177.5490  144.5020 C   0  0  0  0  0  0  0  0  0  0  0  0
  184.9620  178.4170  143.6300 C   0  0  0  0  0  0  0  0  0  0  0  0
  185.6720  178.9990  145.8710 C   0  0  0  0  0  3  0  0  0  0  0  0
  184.7370  179.0870  144.8360 C   0  0  0  0  0  3  0  0  0  0  0  0
  187.1130  176.7730  137.8830 N   0  0  0  0  0  2  0  0  0  0  0  0
  187.4840  178.8940  137.0100 F   0  0  0  0  0  0  0  0  0  0  0  0
  186.5140  177.9340  137.2400 C   0  0  2  0  0  3  0  0  0  0  0  0
  184.1940  177.9380  137.8040 F   0  0  0  0  0  0  0  0  0  0  0  0
  185.4190  178.5020  138.1250 C   0  0  0  0  0  3  0  0  0  0  0  0
  185.7100  178.2540  139.4540 F   0  0  0  0  0  0  0  0  0  0  0  0
  1  2  2  0  0  0  0
  2 15  1  0  0  0  0
  2 34  1  0  0  0  0
  3  7  1  0  0  0  0
  4  1  1  0  0  0  0
  4  7  1  0  0  0  0
  5  3  1  0  0  0  0
  5  8  1  1  0  0  0
  6  4  1  0  0  0  0
  6  5  1  0  0  0  0
  8 13  1  0  0  0  0
  9 11  1  6  0  0  0
  9 10  1  0  0  0  0
 10 14  1  0  0  0  0
 12  9  1  0  0  0  0
 12 13  2  0  0  0  0
 13 14  1  0  0  0  0
 15 18  1  0  0  0  0
 16 15  2  0  0  0  0
 17 16  1  0  0  0  0
 18 19  1  0  0  0  0
 19 20  1  0  0  0  0
 20 22  1  0  0  0  0
 22 21  1  6  0  0  0
 22 23  1  0  0  0  0
 23 24  1  0  0  0  0
 24 26  1  0  0  0  0
 24 25  1  0  0  0  0
 25 30  1  6  0  0  0
 26 25  1  0  0  0  0
 27 31  1  0  0  0  0
 28 32  1  0  0  0  0
 29 31  2  0  0  0  0
 29 30  1  0  0  0  0
 30 28  2  0  0  0  0
 31 33  1  0  0  0  0
 33 32  2  0  0  0  0
 36 35  1  1  0  0  0
 36 34  1  0  0  0  0
 36 38  1  0  0  0  0
 37 38  1  0  0  0  0
 38 39  1  0  0  0  0
M  END
>  <MODEL>
5

>  <REMARK>
 VINA RESULT:      -7.1      4.551      7.197
  Name = 
  13 active torsions:
  status: ('A' for Active; 'I' for Inactive)
    1  A    between atoms: C_3  and  N_8
    2  A    between atoms: N_6  and  C_17
    3  A    between atoms: C_11  and  C_13
    4  A    between atoms: C_11  and  C_33
    5  A    between atoms: C_13  and  C_21
    6  A    between atoms: C_16  and  C_30
    7  A    between atoms: N_18  and  C_21
    8  A    between atoms: N_18  and  C_31
    9  A    between atoms: C_20  and  C_36
   10  A    between atoms: N_24  and  N_28
   11  A    between atoms: N_28  and  C_31
   12  A    between atoms: C_33  and  N_34
   13  A    between atoms: N_34  and  C_36
                            x       y       z     vdW  Elec       q    Type
                         _______ _______ _______ _____ _____    ______ ____

>  <TORSDO>
F 13

$$$$
=
 OpenBabel10222420463D

 39 42  0  0  1  0  0  0  0  0999 V2000
  188.5840  175.7230  138.4370 C   0  0  0  0  0  3  0  0  0  0  0  0
  189.2320  176.8910  138.5330 C   0  0  0  0  0  0  0  0  0  0  0  0
  188.4740  173.4290  135.4940 C   0  0  0  0  0  2  0  0  0  0  0  0
  188.2960  175.0420  137.2070 N   0  0  0  0  0  0  0  0  0  0  0  0
  187.0340  173.9240  135.5460 C   0  0  2  0  0  3  0  0  0  0  0  0
  187.0360  175.1080  136.4890 C   0  0  0  0  0  2  0  0  0  0  0  0
  189.1620  173.9900  136.7240 C   0  0  0  0  0  2  0  0  0  0  0  0
  186.1890  172.8790  136.1020 N   0  0  0  0  0  2  0  0  0  0  0  0
  182.7410  173.6280  135.0160 C   0  0  1  0  0  3  0  0  0  0  0  0
  182.3750  171.8460  134.9550 S   0  0  0  0  0  0  0  0  0  0  0  0
  181.9570  174.2840  136.1380 C   0  0  0  0  0  1  0  0  0  0  0  0
  184.1670  173.7810  135.2460 N   0  0  0  0  0  0  0  0  0  0  0  0
  184.7780  172.8400  135.8900 C   0  0  0  0  0  0  0  0  0  0  0  0
  183.8120  171.4660  136.4850 S   0  0  0  0  0  0  0  0  0  0  0  0
  189.3590  177.5110  139.8720 C   0  0  0  0  0  0  0  0  0  0  0  0
  188.4010  178.2050  140.4070 N   0  0  0  0  0  0  0  0  0  0  0  0
  187.1850  178.4420  139.7520 N   0  0  0  0  0  1  0  0  0  0  0  0
  190.6460  177.3800  140.6150 C   0  0  0  0  0  2  0  0  0  0  0  0
  190.3770  176.9240  142.0410 C   0  0  0  0  0  2  0  0  0  0  0  0
  190.8590  177.9240  142.9820 N   0  0  0  0  0  2  0  0  0  0  0  0
  191.6410  175.8490  143.7580 O   0  0  0  0  0  1  0  0  0  0  0  0
  191.6830  177.2330  143.9670 C   0  0  2  0  0  3  0  0  0  0  0  0
  191.2500  177.5630  145.3200 N   0  0  0  0  0  2  0  0  0  0  0  0
  191.6780  176.5430  146.1930 N   0  0  0  0  0  0  0  0  0  0  0  0
  190.7180  176.2970  147.2670 C   0  0  1  0  0  3  0  0  0  0  0  0
  191.7850  177.1270  147.4450 O   0  0  0  0  0  0  0  0  0  0  0  0
  186.4890  177.7740  144.4550 S   0  0  0  0  0  1  0  0  0  0  0  0
  189.0330  177.8740  148.2650 C   0  0  0  0  0  3  0  0  0  0  0  0
  188.6560  177.0610  146.0140 C   0  0  0  0  0  3  0  0  0  0  0  0
  189.4310  177.0790  147.1820 C   0  0  0  0  0  0  0  0  0  0  0  0
  187.4790  177.8120  145.9400 C   0  0  0  0  0  0  0  0  0  0  0  0
  187.8560  178.6250  148.1900 C   0  0  0  0  0  3  0  0  0  0  0  0
  187.0790  178.5920  147.0280 C   0  0  0  0  0  3  0  0  0  0  0  0
  189.7430  177.5460  137.3640 N   0  0  0  0  0  2  0  0  0  0  0  0
  189.3420  179.7970  137.7810 F   0  0  0  0  0  0  0  0  0  0  0  0
  189.2220  178.7970  136.8320 C   0  0  2  0  0  3  0  0  0  0  0  0
  187.1140  179.8440  136.4280 F   0  0  0  0  0  0  0  0  0  0  0  0
  187.7650  178.6200  136.4440 C   0  0  0  0  0  3  0  0  0  0  0  0
  187.6760  178.0310  135.1950 F   0  0  0  0  0  0  0  0  0  0  0  0
  1  2  2  0  0  0  0
  2 15  1  0  0  0  0
  3  5  1  0  0  0  0
  3  7  1  0  0  0  0
  4  1  1  0  0  0  0
  5  8  1  1  0  0  0
  5  6  1  0  0  0  0
  6  4  1  0  0  0  0
  7  4  1  0  0  0  0
  9 12  1  0  0  0  0
  9 11  1  1  0  0  0
 10  9  1  0  0  0  0
 10 14  1  0  0  0  0
 12 13  2  0  0  0  0
 13  8  1  0  0  0  0
 13 14  1  0  0  0  0
 15 16  2  0  0  0  0
 15 18  1  0  0  0  0
 17 16  1  0  0  0  0
 18 19  1  0  0  0  0
 19 20  1  0  0  0  0
 20 22  1  0  0  0  0
 22 21  1  6  0  0  0
 22 23  1  0  0  0  0
 23 24  1  0  0  0  0
 24 25  1  0  0  0  0
 24 26  1  0  0  0  0
 25 30  1  6  0  0  0
 25 26  1  0  0  0  0
 27 31  1  0  0  0  0
 29 30  1  0  0  0  0
 30 28  2  0  0  0  0
 31 29  2  0  0  0  0
 31 33  1  0  0  0  0
 32 28  1  0  0  0  0
 33 32  2  0  0  0  0
 34  2  1  0  0  0  0
 36 34  1  0  0  0  0
 36 35  1  1  0  0  0
 37 38  1  0  0  0  0
 38 36  1  0  0  0  0
 39 38  1  0  0  0  0
M  END
>  <MODEL>
6

>  <REMARK>
 VINA RESULT:      -7.0      4.057      5.712
  Name = 
  13 active torsions:
  status: ('A' for Active; 'I' for Inactive)
    1  A    between atoms: C_3  and  N_8
    2  A    between atoms: N_6  and  C_17
    3  A    between atoms: C_11  and  C_13
    4  A    between atoms: C_11  and  C_33
    5  A    between atoms: C_13  and  C_21
    6  A    between atoms: C_16  and  C_30
    7  A    between atoms: N_18  and  C_21
    8  A    between atoms: N_18  and  C_31
    9  A    between atoms: C_20  and  C_36
   10  A    between atoms: N_24  and  N_28
   11  A    between atoms: N_28  and  C_31
   12  A    between atoms: C_33  and  N_34
   13  A    between atoms: N_34  and  C_36
                            x       y       z     vdW  Elec       q    Type
                         _______ _______ _______ _____ _____    ______ ____

>  <TORSDO>
F 13

$$$$
=
 OpenBabel10222420463D

 39 42  0  0  1  0  0  0  0  0999 V2000
  187.8110  174.6970  136.5920 C   0  0  0  0  0  3  0  0  0  0  0  0
  188.1850  175.8760  137.1050 C   0  0  0  0  0  0  0  0  0  0  0  0
  184.7040  172.8380  137.5020 C   0  0  0  0  0  2  0  0  0  0  0  0
  186.4900  174.1440  136.6800 N   0  0  0  0  0  0  0  0  0  0  0  0
  184.1280  174.0770  136.8260 C   0  0  2  0  0  3  0  0  0  0  0  0
  185.2920  174.7440  136.1230 C   0  0  0  0  0  2  0  0  0  0  0  0
  186.2020  173.0590  137.5930 C   0  0  0  0  0  2  0  0  0  0  0  0
  183.6110  174.9790  137.8430 N   0  0  0  0  0  2  0  0  0  0  0  0
  179.9420  174.5770  137.8370 C   0  0  1  0  0  3  0  0  0  0  0  0
  179.9050  174.9070  139.6260 S   0  0  0  0  0  0  0  0  0  0  0  0
  179.2800  175.7140  137.0820 C   0  0  0  0  0  1  0  0  0  0  0  0
  181.3330  174.4530  137.4380 N   0  0  0  0  0  0  0  0  0  0  0  0
  182.2170  175.0970  138.1270 C   0  0  0  0  0  0  0  0  0  0  0  0
  181.6520  176.1210  139.4710 S   0  0  0  0  0  0  0  0  0  0  0  0
  189.6130  176.2550  137.0150 C   0  0  0  0  0  0  0  0  0  0  0  0
  190.1190  176.8000  135.9510 N   0  0  0  0  0  0  0  0  0  0  0  0
  189.3610  177.0480  134.7990 N   0  0  0  0  0  1  0  0  0  0  0  0
  190.5180  175.9570  138.1630 C   0  0  0  0  0  2  0  0  0  0  0  0
  190.5100  177.1200  139.1440 C   0  0  0  0  0  2  0  0  0  0  0  0
  190.9020  176.6580  140.4670 N   0  0  0  0  0  2  0  0  0  0  0  0
  188.9200  177.8240  140.9420 O   0  0  0  0  0  1  0  0  0  0  0  0
  189.7270  176.7470  141.3260 C   0  0  2  0  0  3  0  0  0  0  0  0
  190.1220  176.8720  142.7240 N   0  0  0  0  0  2  0  0  0  0  0  0
  191.3560  177.5510  142.7850 N   0  0  0  0  0  0  0  0  0  0  0  0
  191.6820  177.9820  144.1420 C   0  0  1  0  0  3  0  0  0  0  0  0
  191.0730  178.8220  143.2590 O   0  0  0  0  0  0  0  0  0  0  0  0
  186.7630  177.9220  146.0860 S   0  0  0  0  0  1  0  0  0  0  0  0
  191.2020  176.8090  146.3140 C   0  0  0  0  0  3  0  0  0  0  0  0
  189.3660  177.8850  145.1570 C   0  0  0  0  0  3  0  0  0  0  0  0
  190.7220  177.5350  145.2170 C   0  0  0  0  0  0  0  0  0  0  0  0
  188.4920  177.4870  146.1740 C   0  0  0  0  0  0  0  0  0  0  0  0
  190.3290  176.4130  147.3310 C   0  0  0  0  0  3  0  0  0  0  0  0
  188.9740  176.7500  147.2600 C   0  0  0  0  0  3  0  0  0  0  0  0
  187.2360  176.7220  137.7690 N   0  0  0  0  0  2  0  0  0  0  0  0
  187.5190  178.7860  136.7370 F   0  0  0  0  0  0  0  0  0  0  0  0
  186.5750  177.8590  137.1430 C   0  0  2  0  0  3  0  0  0  0  0  0
  184.3320  177.9920  137.9530 F   0  0  0  0  0  0  0  0  0  0  0  0
  185.6110  178.4960  138.1290 C   0  0  0  0  0  3  0  0  0  0  0  0
  186.0310  178.2530  139.4240 F   0  0  0  0  0  0  0  0  0  0  0  0
  1  4  1  0  0  0  0
  1  2  2  0  0  0  0
  2 34  1  0  0  0  0
  3  7  1  0  0  0  0
  4  7  1  0  0  0  0
  5  3  1  0  0  0  0
  5  8  1  1  0  0  0
  6  4  1  0  0  0  0
  6  5  1  0  0  0  0
  8 13  1  0  0  0  0
  9 11  1  6  0  0  0
  9 10  1  0  0  0  0
 12  9  1  0  0  0  0
 12 13  2  0  0  0  0
 13 14  1  0  0  0  0
 14 10  1  0  0  0  0
 15  2  1  0  0  0  0
 15 18  1  0  0  0  0
 16 15  2  0  0  0  0
 17 16  1  0  0  0  0
 18 19  1  0  0  0  0
 19 20  1  0  0  0  0
 20 22  1  0  0  0  0
 22 21  1  6  0  0  0
 22 23  1  0  0  0  0
 23 24  1  0  0  0  0
 24 26  1  0  0  0  0
 24 25  1  0  0  0  0
 25 30  1  1  0  0  0
 26 25  1  0  0  0  0
 27 31  1  0  0  0  0
 28 32  1  0  0  0  0
 29 30  1  0  0  0  0
 29 31  2  0  0  0  0
 30 28  2  0  0  0  0
 31 33  1  0  0  0  0
 33 32  2  0  0  0  0
 36 35  1  1  0  0  0
 36 34  1  0  0  0  0
 36 38  1  0  0  0  0
 37 38  1  0  0  0  0
 38 39  1  0  0  0  0
M  END
>  <MODEL>
7

>  <REMARK>
 VINA RESULT:      -6.9      4.619      7.393
  Name = 
  13 active torsions:
  status: ('A' for Active; 'I' for Inactive)
    1  A    between atoms: C_3  and  N_8
    2  A    between atoms: N_6  and  C_17
    3  A    between atoms: C_11  and  C_13
    4  A    between atoms: C_11  and  C_33
    5  A    between atoms: C_13  and  C_21
    6  A    between atoms: C_16  and  C_30
    7  A    between atoms: N_18  and  C_21
    8  A    between atoms: N_18  and  C_31
    9  A    between atoms: C_20  and  C_36
   10  A    between atoms: N_24  and  N_28
   11  A    between atoms: N_28  and  C_31
   12  A    between atoms: C_33  and  N_34
   13  A    between atoms: N_34  and  C_36
                            x       y       z     vdW  Elec       q    Type
                         _______ _______ _______ _____ _____    ______ ____

>  <TORSDO>
F 13

$$$$
=
 OpenBabel10222420463D

 39 42  0  0  1  0  0  0  0  0999 V2000
  187.5710  176.2280  137.7090 C   0  0  0  0  0  3  0  0  0  0  0  0
  188.7980  176.7570  137.6240 C   0  0  0  0  0  0  0  0  0  0  0  0
  186.3240  173.3320  135.7100 C   0  0  0  0  0  2  0  0  0  0  0  0
  186.9830  175.3520  136.7360 N   0  0  0  0  0  0  0  0  0  0  0  0
  185.3380  174.4220  135.3090 C   0  0  2  0  0  3  0  0  0  0  0  0
  185.9390  175.7240  135.7980 C   0  0  0  0  0  2  0  0  0  0  0  0
  187.1930  173.9230  136.8040 C   0  0  0  0  0  2  0  0  0  0  0  0
  184.0750  174.2000  135.9930 N   0  0  0  0  0  2  0  0  0  0  0  0
  182.1280  177.3160  135.6400 C   0  0  1  0  0  3  0  0  0  0  0  0
  180.5880  176.3490  135.6020 S   0  0  0  0  0  0  0  0  0  0  0  0
  182.1980  178.1380  136.9140 C   0  0  0  0  0  1  0  0  0  0  0  0
  183.2400  176.3840  135.5840 N   0  0  0  0  0  0  0  0  0  0  0  0
  183.0570  175.1980  136.0660 C   0  0  0  0  0  0  0  0  0  0  0  0
  181.4770  174.8260  136.8030 S   0  0  0  0  0  0  0  0  0  0  0  0
  189.2150  177.7240  138.6640 C   0  0  0  0  0  0  0  0  0  0  0  0
  189.0590  179.0050  138.5220 N   0  0  0  0  0  0  0  0  0  0  0  0
  188.5090  179.5730  137.3650 N   0  0  0  0  0  1  0  0  0  0  0  0
  189.8830  177.2190  139.8990 C   0  0  0  0  0  2  0  0  0  0  0  0
  189.1010  177.6580  141.1280 C   0  0  0  0  0  2  0  0  0  0  0  0
  189.7210  177.1210  142.3300 N   0  0  0  0  0  2  0  0  0  0  0  0
  191.6060  178.0970  143.3360 O   0  0  0  0  0  1  0  0  0  0  0  0
  190.2350  178.2500  143.0960 C   0  0  2  0  0  3  0  0  0  0  0  0
  189.5050  178.3920  144.3510 N   0  0  0  0  0  2  0  0  0  0  0  0
  189.8470  177.3180  145.1960 N   0  0  0  0  0  0  0  0  0  0  0  0
  188.7250  176.8930  146.0300 C   0  0  1  0  0  3  0  0  0  0  0  0
  189.6600  177.7720  146.4920 O   0  0  0  0  0  0  0  0  0  0  0  0
  184.9270  178.2370  142.6030 S   0  0  0  0  0  1  0  0  0  0  0  0
  186.7790  178.2900  146.7940 C   0  0  0  0  0  3  0  0  0  0  0  0
  186.8500  177.5850  144.4770 C   0  0  0  0  0  3  0  0  0  0  0  0
  187.4140  177.5880  145.7610 C   0  0  0  0  0  0  0  0  0  0  0  0
  185.6480  178.2570  144.2360 C   0  0  0  0  0  0  0  0  0  0  0  0
  185.5760  178.9610  146.5520 C   0  0  0  0  0  3  0  0  0  0  0  0
  185.0100  178.9420  145.2740 C   0  0  0  0  0  3  0  0  0  0  0  0
  189.6620  176.4330  136.5260 N   0  0  0  0  0  2  0  0  0  0  0  0
  190.4640  174.5770  137.6720 F   0  0  0  0  0  0  0  0  0  0  0  0
  190.6520  175.3650  136.5500 C   0  0  2  0  0  3  0  0  0  0  0  0
  192.2670  176.6640  137.7360 F   0  0  0  0  0  0  0  0  0  0  0  0
  192.0480  175.9620  136.5620 C   0  0  0  0  0  3  0  0  0  0  0  0
  192.9920  174.9590  136.4380 F   0  0  0  0  0  0  0  0  0  0  0  0
  2  1  2  0  0  0  0
  2 15  1  0  0  0  0
  3  7  1  0  0  0  0
  4  7  1  0  0  0  0
  4  1  1  0  0  0  0
  5  3  1  0  0  0  0
  5  6  1  0  0  0  0
  5  8  1  1  0  0  0
  6  4  1  0  0  0  0
  8 13  1  0  0  0  0
  9 11  1  1  0  0  0
 10  9  1  0  0  0  0
 10 14  1  0  0  0  0
 12  9  1  0  0  0  0
 12 13  2  0  0  0  0
 13 14  1  0  0  0  0
 15 18  1  0  0  0  0
 16 15  2  0  0  0  0
 17 16  1  0  0  0  0
 18 19  1  0  0  0  0
 19 20  1  0  0  0  0
 20 22  1  0  0  0  0
 22 21  1  1  0  0  0
 22 23  1  0  0  0  0
 23 24  1  0  0  0  0
 24 25  1  0  0  0  0
 24 26  1  0  0  0  0
 25 30  1  6  0  0  0
 25 26  1  0  0  0  0
 27 31  1  0  0  0  0
 29 30  1  0  0  0  0
 30 28  2  0  0  0  0
 31 29  2  0  0  0  0
 31 33  1  0  0  0  0
 32 28  1  0  0  0  0
 33 32  2  0  0  0  0
 34 36  1  0  0  0  0
 34  2  1  0  0  0  0
 36 38  1  0  0  0  0
 36 35  1  1  0  0  0
 38 37  1  0  0  0  0
 39 38  1  0  0  0  0
M  END
>  <MODEL>
8

>  <REMARK>
 VINA RESULT:      -6.9      3.682      5.930
  Name = 
  13 active torsions:
  status: ('A' for Active; 'I' for Inactive)
    1  A    between atoms: C_3  and  N_8
    2  A    between atoms: N_6  and  C_17
    3  A    between atoms: C_11  and  C_13
    4  A    between atoms: C_11  and  C_33
    5  A    between atoms: C_13  and  C_21
    6  A    between atoms: C_16  and  C_30
    7  A    between atoms: N_18  and  C_21
    8  A    between atoms: N_18  and  C_31
    9  A    between atoms: C_20  and  C_36
   10  A    between atoms: N_24  and  N_28
   11  A    between atoms: N_28  and  C_31
   12  A    between atoms: C_33  and  N_34
   13  A    between atoms: N_34  and  C_36
                            x       y       z     vdW  Elec       q    Type
                         _______ _______ _______ _____ _____    ______ ____

>  <TORSDO>
F 13

$$$$
=
 OpenBabel10222420463D

 39 42  0  0  1  0  0  0  0  0999 V2000
  186.3090  177.1530  137.8270 C   0  0  0  0  0  3  0  0  0  0  0  0
  186.4390  178.2150  138.6320 C   0  0  0  0  0  0  0  0  0  0  0  0
  183.8350  176.5790  135.0920 C   0  0  0  0  0  2  0  0  0  0  0  0
  185.1530  176.8630  137.0280 N   0  0  0  0  0  0  0  0  0  0  0  0
  183.2980  175.6600  136.1820 C   0  0  2  0  0  3  0  0  0  0  0  0
  184.0250  176.0550  137.4510 C   0  0  0  0  0  2  0  0  0  0  0  0
  185.1520  177.1290  135.6070 C   0  0  0  0  0  2  0  0  0  0  0  0
  183.6340  174.2830  135.8550 N   0  0  0  0  0  2  0  0  0  0  0  0
  180.4690  172.3860  135.9200 C   0  0  1  0  0  3  0  0  0  0  0  0
  181.0940  171.3000  134.6000 S   0  0  0  0  0  0  0  0  0  0  0  0
  180.3370  171.6090  137.2170 C   0  0  0  0  0  1  0  0  0  0  0  0
  181.4140  173.4760  136.0830 N   0  0  0  0  0  0  0  0  0  0  0  0
  182.6520  173.2500  135.7860 C   0  0  0  0  0  0  0  0  0  0  0  0
  183.1020  171.6100  135.2530 S   0  0  0  0  0  0  0  0  0  0  0  0
  187.6580  178.3130  139.4670 C   0  0  0  0  0  0  0  0  0  0  0  0
  188.7440  178.8850  139.0440 N   0  0  0  0  0  0  0  0  0  0  0  0
  188.8550  179.4300  137.7570 N   0  0  0  0  0  1  0  0  0  0  0  0
  187.6610  177.6920  140.8240 C   0  0  0  0  0  2  0  0  0  0  0  0
  188.8170  178.2440  141.6440 C   0  0  0  0  0  2  0  0  0  0  0  0
  189.8180  177.2080  141.8530 N   0  0  0  0  0  2  0  0  0  0  0  0
  192.0790  177.0940  142.4800 O   0  0  0  0  0  1  0  0  0  0  0  0
  190.8780  177.7870  142.6710 C   0  0  2  0  0  3  0  0  0  0  0  0
  190.4980  177.7800  144.0800 N   0  0  0  0  0  2  0  0  0  0  0  0
  191.3640  176.9140  144.7770 N   0  0  0  0  0  0  0  0  0  0  0  0
  190.8770  176.6110  146.1200 C   0  0  1  0  0  3  0  0  0  0  0  0
  191.7800  177.6080  145.9020 O   0  0  0  0  0  0  0  0  0  0  0  0
  185.9740  177.8760  144.5910 S   0  0  0  0  0  1  0  0  0  0  0  0
  189.2860  177.6760  147.7500 C   0  0  0  0  0  3  0  0  0  0  0  0
  188.5080  177.2480  145.4970 C   0  0  0  0  0  3  0  0  0  0  0  0
  189.5200  177.1730  146.4640 C   0  0  0  0  0  0  0  0  0  0  0  0
  187.2640  177.7970  145.8220 C   0  0  0  0  0  0  0  0  0  0  0  0
  188.0420  178.2250  148.0750 C   0  0  0  0  0  3  0  0  0  0  0  0
  187.0310  178.2830  147.1120 C   0  0  0  0  0  3  0  0  0  0  0  0
  185.4030  179.2030  138.7180 N   0  0  0  0  0  2  0  0  0  0  0  0
  183.2000  179.9230  138.8940 F   0  0  0  0  0  0  0  0  0  0  0  0
  184.1070  178.9780  139.3420 C   0  0  2  0  0  3  0  0  0  0  0  0
  184.1400  177.8060  141.4230 F   0  0  0  0  0  0  0  0  0  0  0  0
  184.2450  179.0640  140.8520 C   0  0  0  0  0  3  0  0  0  0  0  0
  185.4660  179.6240  141.1840 F   0  0  0  0  0  0  0  0  0  0  0  0
  1  2  2  0  0  0  0
  2 34  1  0  0  0  0
  2 15  1  0  0  0  0
  3  7  1  0  0  0  0
  3  5  1  0  0  0  0
  4  6  1  0  0  0  0
  4  1  1  0  0  0  0
  5  8  1  6  0  0  0
  5  6  1  0  0  0  0
  7  4  1  0  0  0  0
  9 12  1  0  0  0  0
  9 11  1  1  0  0  0
 10 14  1  0  0  0  0
 10  9  1  0  0  0  0
 13  8  1  0  0  0  0
 13 12  2  0  0  0  0
 14 13  1  0  0  0  0
 15 18  1  0  0  0  0
 16 15  2  0  0  0  0
 17 16  1  0  0  0  0
 18 19  1  0  0  0  0
 19 20  1  0  0  0  0
 20 22  1  0  0  0  0
 22 21  1  1  0  0  0
 22 23  1  0  0  0  0
 23 24  1  0  0  0  0
 24 26  1  0  0  0  0
 24 25  1  0  0  0  0
 25 30  1  6  0  0  0
 26 25  1  0  0  0  0
 27 31  1  0  0  0  0
 28 32  1  0  0  0  0
 29 31  2  0  0  0  0
 29 30  1  0  0  0  0
 30 28  2  0  0  0  0
 31 33  1  0  0  0  0
 33 32  2  0  0  0  0
 34 36  1  0  0  0  0
 36 35  1  6  0  0  0
 36 38  1  0  0  0  0
 38 39  1  0  0  0  0
 38 37  1  0  0  0  0
M  END
>  <MODEL>
9

>  <REMARK>
 VINA RESULT:      -6.9      5.257      7.138
  Name = 
  13 active torsions:
  status: ('A' for Active; 'I' for Inactive)
    1  A    between atoms: C_3  and  N_8
    2  A    between atoms: N_6  and  C_17
    3  A    between atoms: C_11  and  C_13
    4  A    between atoms: C_11  and  C_33
    5  A    between atoms: C_13  and  C_21
    6  A    between atoms: C_16  and  C_30
    7  A    between atoms: N_18  and  C_21
    8  A    between atoms: N_18  and  C_31
    9  A    between atoms: C_20  and  C_36
   10  A    between atoms: N_24  and  N_28
   11  A    between atoms: N_28  and  C_31
   12  A    between atoms: C_33  and  N_34
   13  A    between atoms: N_34  and  C_36
                            x       y       z     vdW  Elec       q    Type
                         _______ _______ _______ _____ _____    ______ ____

>  <TORSDO>
F 13

$$$$
