=
 OpenBabel10222419163D

 35 37  0  0  1  0  0  0  0  0999 V2000
  187.3140  176.9690  143.3950 C   0  0  0  0  0  2  0  0  0  0  0  0
  186.0210  179.1280  147.5600 F   0  0  0  0  0  0  0  0  0  0  0  0
  184.5630  179.2420  145.7210 N   0  0  0  0  0  0  0  0  0  0  0  0
  184.2310  178.9530  144.4340 C   0  0  0  0  0  0  0  0  0  0  0  0
  186.3250  177.7560  144.1930 C   0  0  0  0  0  0  0  0  0  0  0  0
  182.9910  179.4210  143.9110 N   0  0  0  0  0  1  0  0  0  0  0  0
  185.7310  178.8200  146.2730 C   0  0  0  0  0  0  0  0  0  0  0  0
  186.6320  178.0700  145.5170 C   0  0  0  0  0  3  0  0  0  0  0  0
  185.1060  178.1950  143.6350 C   0  0  0  0  0  0  0  0  0  0  0  0
  184.7380  177.8560  142.2220 C   0  0  0  0  0  2  0  0  0  0  0  0
  185.2450  178.9230  141.2700 C   0  0  0  0  0  2  0  0  0  0  0  0
  182.8260  178.9440  140.5080 O   0  0  0  0  0  0  0  0  0  0  0  0
  184.1520  179.3110  140.3380 C   0  0  0  0  0  0  0  0  0  0  0  0
  183.1030  180.2070  138.6600 N   0  0  0  0  0  2  0  0  0  0  0  0
  184.3380  180.0330  139.2920 N   0  0  0  0  0  0  0  0  0  0  0  0
  182.0840  179.5140  139.4400 C   0  0  1  0  0  3  0  0  0  0  0  0
  181.4520  178.4110  138.6100 C   0  0  0  0  0  2  0  0  0  0  0  0
  182.3460  177.9890  137.6260 O   0  0  0  0  0  1  0  0  0  0  0  0
  188.6170  177.7380  143.2550 C   0  0  0  0  0  2  0  0  0  0  0  0
  191.6970  175.6220  143.8120 C   0  0  0  0  0  2  0  0  0  0  0  0
  191.6770  175.9060  145.3150 C   0  0  0  0  0  2  0  0  0  0  0  0
  190.4020  178.0470  144.7810 C   0  0  0  0  0  2  0  0  0  0  0  0
  189.6700  177.0530  143.9900 N   0  0  0  0  0  0  0  0  0  0  0  0
  191.5430  177.4050  145.5850 C   0  0  0  0  0  2  0  0  0  0  0  0
  190.5800  176.3610  143.0580 C   0  0  1  0  0  3  0  0  0  0  0  0
  191.3280  177.4850  141.8190 S   0  0  0  0  0  0  0  0  0  0  0  0
  190.3950  176.7200  140.4630 C   0  0  0  0  0  2  0  0  0  0  0  0
  189.8970  177.7980  139.5220 C   0  0  0  0  0  2  0  0  0  0  0  0
  188.3780  177.8120  139.5010 C   0  0  0  0  0  2  0  0  0  0  0  0
  189.0730  178.9420  137.5750 C   0  0  0  0  0  1  0  0  0  0  0  0
  187.9010  178.5210  138.3240 N   0  0  0  0  0  0  0  0  0  0  0  0
  187.1060  177.8470  135.7090 O   0  0  0  0  0  0  0  0  0  0  0  0
  187.0270  177.3680  137.3290 P   0  0  0  0  0  0  0  0  0  0  0  0
  185.5770  177.2960  137.7560 O   0  0  0  0  0  1  0  0  0  0  0  0
  187.7320  175.8400  137.4880 O   0  0  0  0  0  1  0  0  0  0  0  0
  1  5  1  0  0  0  0
  3  7  1  0  0  0  0
  4  3  2  0  0  0  0
  5  8  1  0  0  0  0
  6  4  1  0  0  0  0
  7  2  1  0  0  0  0
  8  7  2  0  0  0  0
  9  5  2  0  0  0  0
  9  4  1  0  0  0  0
 10  9  1  0  0  0  0
 11 10  1  0  0  0  0
 13 12  1  0  0  0  0
 13 11  1  0  0  0  0
 14 15  1  0  0  0  0
 14 16  1  0  0  0  0
 15 13  2  0  0  0  0
 16 17  1  6  0  0  0
 16 12  1  0  0  0  0
 18 17  1  0  0  0  0
 19  1  1  0  0  0  0
 19 23  1  0  0  0  0
 20 21  1  0  0  0  0
 21 24  1  0  0  0  0
 22 24  1  0  0  0  0
 23 22  1  0  0  0  0
 25 26  1  6  0  0  0
 25 20  1  0  0  0  0
 25 23  1  0  0  0  0
 27 26  1  0  0  0  0
 28 27  1  0  0  0  0
 29 28  1  0  0  0  0
 30 31  1  0  0  0  0
 31 29  1  0  0  0  0
 32 33  2  0  0  0  0
 33 35  1  0  0  0  0
 33 34  1  0  0  0  0
 33 31  1  0  0  0  0
M  END
>  <MODEL>
1

>  <REMARK>
 VINA RESULT:      -7.9      0.000      0.000
  Name = 
  13 active torsions:
  status: ('A' for Active; 'I' for Inactive)
    1  A    between atoms: C_2  and  C_12
    2  A    between atoms: C_2  and  C_22
    3  A    between atoms: S_6  and  C_22
    4  A    between atoms: S_6  and  C_28
    5  A    between atoms: C_9  and  C_34
    6  A    between atoms: C_10  and  N_23
    7  A    between atoms: C_10  and  C_35
    8  A    between atoms: C_12  and  N_21
    9  A    between atoms: C_13  and  C_14
   10  A    between atoms: C_14  and  C_17
   11  A    between atoms: P_15  and  N_21
   12  A    between atoms: C_17  and  C_32
   13  A    between atoms: C_20  and  C_35
                            x       y       z     vdW  Elec       q    Type
                         _______ _______ _______ _____ _____    ______ ____

>  <TORSDO>
F 13

$$$$
=
 OpenBabel10222419163D

 35 37  0  0  1  0  0  0  0  0999 V2000
  187.3450  176.9920  143.4230 C   0  0  0  0  0  2  0  0  0  0  0  0
  186.8050  178.1360  148.1220 F   0  0  0  0  0  0  0  0  0  0  0  0
  185.1000  178.7100  146.6100 N   0  0  0  0  0  0  0  0  0  0  0  0
  184.5660  178.7380  145.3590 C   0  0  0  0  0  0  0  0  0  0  0  0
  186.5300  177.5900  144.5250 C   0  0  0  0  0  0  0  0  0  0  0  0
  183.2910  179.3410  145.1580 N   0  0  0  0  0  1  0  0  0  0  0  0
  186.3110  178.1460  146.8600 C   0  0  0  0  0  0  0  0  0  0  0  0
  187.0460  177.5770  145.8210 C   0  0  0  0  0  3  0  0  0  0  0  0
  185.2690  178.1720  144.2810 C   0  0  0  0  0  0  0  0  0  0  0  0
  184.6780  178.1820  142.9030 C   0  0  0  0  0  2  0  0  0  0  0  0
  185.1860  179.3750  142.1160 C   0  0  0  0  0  2  0  0  0  0  0  0
  184.2010  178.9480  139.8180 O   0  0  0  0  0  0  0  0  0  0  0  0
  185.2870  179.0100  140.6770 C   0  0  0  0  0  0  0  0  0  0  0  0
  186.1240  178.4410  138.7550 N   0  0  0  0  0  2  0  0  0  0  0  0
  186.3980  178.7260  140.0960 N   0  0  0  0  0  0  0  0  0  0  0  0
  184.6910  178.5900  138.5340 C   0  0  1  0  0  3  0  0  0  0  0  0
  184.0880  177.2640  138.1080 C   0  0  0  0  0  2  0  0  0  0  0  0
  185.0130  176.5450  137.3530 O   0  0  0  0  0  1  0  0  0  0  0  0
  188.6550  177.7450  143.2610 C   0  0  0  0  0  2  0  0  0  0  0  0
  191.7130  175.5950  143.8140 C   0  0  0  0  0  2  0  0  0  0  0  0
  191.7150  175.9010  145.3120 C   0  0  0  0  0  2  0  0  0  0  0  0
  190.4620  178.0510  144.7620 C   0  0  0  0  0  2  0  0  0  0  0  0
  189.7070  177.0570  143.9940 N   0  0  0  0  0  0  0  0  0  0  0  0
  191.6040  177.4060  145.5610 C   0  0  0  0  0  2  0  0  0  0  0  0
  190.5970  176.3380  143.0620 C   0  0  1  0  0  3  0  0  0  0  0  0
  191.3450  177.4330  141.7970 S   0  0  0  0  0  0  0  0  0  0  0  0
  190.4840  176.5770  140.4490 C   0  0  0  0  0  2  0  0  0  0  0  0
  190.0340  177.5880  139.4150 C   0  0  0  0  0  2  0  0  0  0  0  0
  190.5100  177.1700  138.0340 C   0  0  0  0  0  2  0  0  0  0  0  0
  190.0130  175.0720  137.1290 C   0  0  0  0  0  1  0  0  0  0  0  0
  190.9020  175.7690  138.0430 N   0  0  0  0  0  0  0  0  0  0  0  0
  193.5050  176.8420  138.1010 O   0  0  0  0  0  1  0  0  0  0  0  0
  192.5240  175.6690  137.3770 P   0  0  0  0  0  0  0  0  0  0  0  0
  192.4950  175.9000  135.8820 O   0  0  0  0  0  0  0  0  0  0  0  0
  193.1690  174.1390  137.6930 O   0  0  0  0  0  1  0  0  0  0  0  0
  1  5  1  0  0  0  0
  3  7  1  0  0  0  0
  4  3  2  0  0  0  0
  5  8  1  0  0  0  0
  6  4  1  0  0  0  0
  7  2  1  0  0  0  0
  8  7  2  0  0  0  0
  9  5  2  0  0  0  0
  9  4  1  0  0  0  0
 10  9  1  0  0  0  0
 11 10  1  0  0  0  0
 12 13  1  0  0  0  0
 13 11  1  0  0  0  0
 14 15  1  0  0  0  0
 15 13  2  0  0  0  0
 16 17  1  1  0  0  0
 16 14  1  0  0  0  0
 16 12  1  0  0  0  0
 18 17  1  0  0  0  0
 19  1  1  0  0  0  0
 19 23  1  0  0  0  0
 20 21  1  0  0  0  0
 21 24  1  0  0  0  0
 22 24  1  0  0  0  0
 23 22  1  0  0  0  0
 25 26  1  6  0  0  0
 25 20  1  0  0  0  0
 25 23  1  0  0  0  0
 27 26  1  0  0  0  0
 28 27  1  0  0  0  0
 29 31  1  0  0  0  0
 29 28  1  0  0  0  0
 30 31  1  0  0  0  0
 33 35  1  0  0  0  0
 33 31  1  0  0  0  0
 33 32  1  0  0  0  0
 34 33  2  0  0  0  0
M  END
>  <MODEL>
2

>  <REMARK>
 VINA RESULT:      -7.8      2.350      2.753
  Name = 
  13 active torsions:
  status: ('A' for Active; 'I' for Inactive)
    1  A    between atoms: C_2  and  C_12
    2  A    between atoms: C_2  and  C_22
    3  A    between atoms: S_6  and  C_22
    4  A    between atoms: S_6  and  C_28
    5  A    between atoms: C_9  and  C_34
    6  A    between atoms: C_10  and  N_23
    7  A    between atoms: C_10  and  C_35
    8  A    between atoms: C_12  and  N_21
    9  A    between atoms: C_13  and  C_14
   10  A    between atoms: C_14  and  C_17
   11  A    between atoms: P_15  and  N_21
   12  A    between atoms: C_17  and  C_32
   13  A    between atoms: C_20  and  C_35
                            x       y       z     vdW  Elec       q    Type
                         _______ _______ _______ _____ _____    ______ ____

>  <TORSDO>
F 13

$$$$
=
 OpenBabel10222419163D

 35 37  0  0  1  0  0  0  0  0999 V2000
  187.4030  176.8030  143.5390 C   0  0  0  0  0  2  0  0  0  0  0  0
  186.0630  178.4930  147.9010 F   0  0  0  0  0  0  0  0  0  0  0  0
  184.7430  179.0120  146.0280 N   0  0  0  0  0  0  0  0  0  0  0  0
  184.4680  178.9400  144.6980 C   0  0  0  0  0  0  0  0  0  0  0  0
  186.4460  177.5730  144.3910 C   0  0  0  0  0  0  0  0  0  0  0  0
  183.3150  179.6030  144.1860 N   0  0  0  0  0  1  0  0  0  0  0  0
  185.8270  178.3970  146.5700 C   0  0  0  0  0  0  0  0  0  0  0  0
  186.6970  177.6680  145.7610 C   0  0  0  0  0  3  0  0  0  0  0  0
  185.3140  178.2110  143.8430 C   0  0  0  0  0  0  0  0  0  0  0  0
  185.0060  178.1090  142.3790 C   0  0  0  0  0  2  0  0  0  0  0  0
  185.5870  179.2950  141.6310 C   0  0  0  0  0  2  0  0  0  0  0  0
  187.5170  178.3700  140.2710 O   0  0  0  0  0  0  0  0  0  0  0  0
  186.2100  178.8210  140.3660 C   0  0  0  0  0  0  0  0  0  0  0  0
  186.4650  178.2770  138.2780 N   0  0  0  0  0  2  0  0  0  0  0  0
  185.5860  178.7780  139.2430 N   0  0  0  0  0  0  0  0  0  0  0  0
  187.7410  177.9870  138.9220 C   0  0  1  0  0  3  0  0  0  0  0  0
  188.8370  178.8470  138.3200 C   0  0  0  0  0  2  0  0  0  0  0  0
  188.3510  179.5130  137.1960 O   0  0  0  0  0  1  0  0  0  0  0  0
  188.7170  177.5520  143.4040 C   0  0  0  0  0  2  0  0  0  0  0  0
  191.8750  175.5320  143.8750 C   0  0  0  0  0  2  0  0  0  0  0  0
  191.7600  175.6200  145.3980 C   0  0  0  0  0  2  0  0  0  0  0  0
  190.3990  177.7480  145.0600 C   0  0  0  0  0  2  0  0  0  0  0  0
  189.7660  176.8310  144.1090 N   0  0  0  0  0  0  0  0  0  0  0  0
  191.5290  177.0650  145.8440 C   0  0  0  0  0  2  0  0  0  0  0  0
  190.7600  176.3070  143.1540 C   0  0  1  0  0  3  0  0  0  0  0  0
  191.5100  177.6140  142.1110 S   0  0  0  0  0  0  0  0  0  0  0  0
  190.9020  176.8420  140.5870 C   0  0  0  0  0  2  0  0  0  0  0  0
  191.9940  176.8660  139.5380 C   0  0  0  0  0  2  0  0  0  0  0  0
  191.4340  176.4450  138.1900 C   0  0  0  0  0  2  0  0  0  0  0  0
  190.2370  174.6130  137.3650 C   0  0  0  0  0  1  0  0  0  0  0  0
  191.4470  174.9950  138.0740 N   0  0  0  0  0  0  0  0  0  0  0  0
  192.3120  173.4340  135.8970 O   0  0  0  0  0  0  0  0  0  0  0  0
  192.8110  174.5570  137.0590 P   0  0  0  0  0  0  0  0  0  0  0  0
  193.9160  173.9480  137.8960 O   0  0  0  0  0  1  0  0  0  0  0  0
  193.3980  175.9370  136.2790 O   0  0  0  0  0  1  0  0  0  0  0  0
  1  5  1  0  0  0  0
  3  7  1  0  0  0  0
  4  3  2  0  0  0  0
  5  8  1  0  0  0  0
  6  4  1  0  0  0  0
  7  2  1  0  0  0  0
  8  7  2  0  0  0  0
  9  5  2  0  0  0  0
  9  4  1  0  0  0  0
 10  9  1  0  0  0  0
 11 10  1  0  0  0  0
 12 13  1  0  0  0  0
 13 11  1  0  0  0  0
 14 16  1  0  0  0  0
 14 15  1  0  0  0  0
 15 13  2  0  0  0  0
 16 17  1  6  0  0  0
 16 12  1  0  0  0  0
 18 17  1  0  0  0  0
 19  1  1  0  0  0  0
 19 23  1  0  0  0  0
 20 21  1  0  0  0  0
 21 24  1  0  0  0  0
 22 24  1  0  0  0  0
 23 22  1  0  0  0  0
 25 26  1  1  0  0  0
 25 20  1  0  0  0  0
 25 23  1  0  0  0  0
 27 26  1  0  0  0  0
 28 27  1  0  0  0  0
 29 28  1  0  0  0  0
 30 31  1  0  0  0  0
 31 29  1  0  0  0  0
 32 33  2  0  0  0  0
 33 34  1  0  0  0  0
 33 31  1  0  0  0  0
 35 33  1  0  0  0  0
M  END
>  <MODEL>
3

>  <REMARK>
 VINA RESULT:      -7.8      2.532      3.555
  Name = 
  13 active torsions:
  status: ('A' for Active; 'I' for Inactive)
    1  A    between atoms: C_2  and  C_12
    2  A    between atoms: C_2  and  C_22
    3  A    between atoms: S_6  and  C_22
    4  A    between atoms: S_6  and  C_28
    5  A    between atoms: C_9  and  C_34
    6  A    between atoms: C_10  and  N_23
    7  A    between atoms: C_10  and  C_35
    8  A    between atoms: C_12  and  N_21
    9  A    between atoms: C_13  and  C_14
   10  A    between atoms: C_14  and  C_17
   11  A    between atoms: P_15  and  N_21
   12  A    between atoms: C_17  and  C_32
   13  A    between atoms: C_20  and  C_35
                            x       y       z     vdW  Elec       q    Type
                         _______ _______ _______ _____ _____    ______ ____

>  <TORSDO>
F 13

$$$$
=
 OpenBabel10222419163D

 35 37  0  0  1  0  0  0  0  0999 V2000
  187.4460  176.7370  144.1190 C   0  0  0  0  0  2  0  0  0  0  0  0
  185.0140  179.4150  140.8640 F   0  0  0  0  0  0  0  0  0  0  0  0
  184.2250  179.3240  143.0750 N   0  0  0  0  0  0  0  0  0  0  0  0
  184.3120  178.8920  144.3620 C   0  0  0  0  0  0  0  0  0  0  0  0
  186.3140  177.6550  143.7830 C   0  0  0  0  0  0  0  0  0  0  0  0
  183.3300  179.3090  145.3060 N   0  0  0  0  0  1  0  0  0  0  0  0
  185.1360  178.9590  142.1340 C   0  0  0  0  0  0  0  0  0  0  0  0
  186.1950  178.1180  142.4720 C   0  0  0  0  0  3  0  0  0  0  0  0
  185.3660  178.0460  144.7510 C   0  0  0  0  0  0  0  0  0  0  0  0
  185.4790  177.5820  146.1720 C   0  0  0  0  0  2  0  0  0  0  0  0
  185.9820  178.7060  147.0590 C   0  0  0  0  0  2  0  0  0  0  0  0
  188.4590  178.3590  146.6350 O   0  0  0  0  0  0  0  0  0  0  0  0
  187.3730  178.4050  147.4950 C   0  0  0  0  0  0  0  0  0  0  0  0
  189.0730  177.9380  148.7630 N   0  0  0  0  0  2  0  0  0  0  0  0
  187.6950  178.1700  148.7160 N   0  0  0  0  0  0  0  0  0  0  0  0
  189.6100  178.0670  147.4140 C   0  0  1  0  0  3  0  0  0  0  0  0
  190.2110  176.7490  146.9630 C   0  0  0  0  0  2  0  0  0  0  0  0
  191.6010  176.8500  146.9300 O   0  0  0  0  0  1  0  0  0  0  0  0
  188.3100  176.4880  142.8950 C   0  0  0  0  0  2  0  0  0  0  0  0
  191.9380  177.2730  142.1900 C   0  0  0  0  0  2  0  0  0  0  0  0
  192.0990  177.9680  143.5430 C   0  0  0  0  0  2  0  0  0  0  0  0
  189.5860  178.3900  143.4990 C   0  0  0  0  0  2  0  0  0  0  0  0
  189.6610  176.9700  143.1440 N   0  0  0  0  0  0  0  0  0  0  0  0
  190.9770  178.9820  143.7710 C   0  0  0  0  0  2  0  0  0  0  0  0
  190.5030  176.7790  141.9480 C   0  0  1  0  0  3  0  0  0  0  0  0
  189.8250  177.5980  140.4550 S   0  0  0  0  0  0  0  0  0  0  0  0
  191.1080  176.8760  139.3940 C   0  0  0  0  0  2  0  0  0  0  0  0
  190.4550  176.0780  138.2850 C   0  0  0  0  0  2  0  0  0  0  0  0
  190.2540  176.9550  137.0600 C   0  0  0  0  0  2  0  0  0  0  0  0
  188.3470  175.6100  137.2080 C   0  0  0  0  0  1  0  0  0  0  0  0
  188.9260  176.7430  136.5050 N   0  0  0  0  0  0  0  0  0  0  0  0
  187.0170  178.5800  135.5560 O   0  0  0  0  0  0  0  0  0  0  0  0
  187.9580  178.1550  136.8950 P   0  0  0  0  0  0  0  0  0  0  0  0
  188.8500  179.3190  137.2670 O   0  0  0  0  0  1  0  0  0  0  0  0
  186.9380  177.7960  138.1950 O   0  0  0  0  0  1  0  0  0  0  0  0
  2  7  1  0  0  0  0
  3  4  1  0  0  0  0
  4  9  2  0  0  0  0
  4  6  1  0  0  0  0
  5  1  1  0  0  0  0
  5  9  1  0  0  0  0
  7  8  1  0  0  0  0
  7  3  2  0  0  0  0
  8  5  2  0  0  0  0
  9 10  1  0  0  0  0
 10 11  1  0  0  0  0
 11 13  1  0  0  0  0
 12 16  1  0  0  0  0
 12 13  1  0  0  0  0
 13 15  2  0  0  0  0
 15 14  1  0  0  0  0
 16 17  1  6  0  0  0
 16 14  1  0  0  0  0
 18 17  1  0  0  0  0
 19 23  1  0  0  0  0
 19  1  1  0  0  0  0
 20 21  1  0  0  0  0
 21 24  1  0  0  0  0
 22 24  1  0  0  0  0
 23 22  1  0  0  0  0
 25 26  1  6  0  0  0
 25 20  1  0  0  0  0
 25 23  1  0  0  0  0
 27 26  1  0  0  0  0
 28 27  1  0  0  0  0
 29 28  1  0  0  0  0
 31 33  1  0  0  0  0
 31 29  1  0  0  0  0
 31 30  1  0  0  0  0
 32 33  2  0  0  0  0
 33 34  1  0  0  0  0
 33 35  1  0  0  0  0
M  END
>  <MODEL>
4

>  <REMARK>
 VINA RESULT:      -7.3      3.176      5.466
  Name = 
  13 active torsions:
  status: ('A' for Active; 'I' for Inactive)
    1  A    between atoms: C_2  and  C_12
    2  A    between atoms: C_2  and  C_22
    3  A    between atoms: S_6  and  C_22
    4  A    between atoms: S_6  and  C_28
    5  A    between atoms: C_9  and  C_34
    6  A    between atoms: C_10  and  N_23
    7  A    between atoms: C_10  and  C_35
    8  A    between atoms: C_12  and  N_21
    9  A    between atoms: C_13  and  C_14
   10  A    between atoms: C_14  and  C_17
   11  A    between atoms: P_15  and  N_21
   12  A    between atoms: C_17  and  C_32
   13  A    between atoms: C_20  and  C_35
                            x       y       z     vdW  Elec       q    Type
                         _______ _______ _______ _____ _____    ______ ____

>  <TORSDO>
F 13

$$$$
=
 OpenBabel10222419163D

 35 37  0  0  1  0  0  0  0  0999 V2000
  188.1910  176.5740  144.1390 C   0  0  0  0  0  2  0  0  0  0  0  0
  184.3650  179.3930  143.0940 F   0  0  0  0  0  0  0  0  0  0  0  0
  184.9370  179.0440  145.3460 N   0  0  0  0  0  0  0  0  0  0  0  0
  185.7230  178.4980  146.3130 C   0  0  0  0  0  0  0  0  0  0  0  0
  187.0650  177.4480  144.5900 C   0  0  0  0  0  0  0  0  0  0  0  0
  185.4310  178.7630  147.6820 N   0  0  0  0  0  1  0  0  0  0  0  0
  185.1710  178.8270  144.0250 C   0  0  0  0  0  0  0  0  0  0  0  0
  186.2390  178.0250  143.6250 C   0  0  0  0  0  3  0  0  0  0  0  0
  186.8150  177.6860  145.9570 C   0  0  0  0  0  0  0  0  0  0  0  0
  187.6970  177.0980  147.0170 C   0  0  0  0  0  2  0  0  0  0  0  0
  188.8950  177.9950  147.2680 C   0  0  0  0  0  2  0  0  0  0  0  0
  190.4870  176.0710  147.7130 O   0  0  0  0  0  0  0  0  0  0  0  0
  190.1460  177.2260  147.0260 C   0  0  0  0  0  0  0  0  0  0  0  0
  192.0530  176.6150  146.1850 N   0  0  0  0  0  2  0  0  0  0  0  0
  191.0210  177.5590  146.1460 N   0  0  0  0  0  0  0  0  0  0  0  0
  191.7280  175.6160  147.1950 C   0  0  1  0  0  3  0  0  0  0  0  0
  192.7750  175.6250  148.2940 C   0  0  0  0  0  2  0  0  0  0  0  0
  192.8750  176.9030  148.8410 O   0  0  0  0  0  1  0  0  0  0  0  0
  188.2240  176.4880  142.6230 C   0  0  0  0  0  2  0  0  0  0  0  0
  190.9780  177.3510  140.1840 C   0  0  0  0  0  2  0  0  0  0  0  0
  192.0270  177.3530  141.2970 C   0  0  0  0  0  2  0  0  0  0  0  0
  190.1340  177.8560  142.9280 C   0  0  0  0  0  2  0  0  0  0  0  0
  189.5750  176.7480  142.1480 N   0  0  0  0  0  0  0  0  0  0  0  0
  191.5630  178.2020  142.4820 C   0  0  0  0  0  2  0  0  0  0  0  0
  189.5600  177.0810  140.7110 C   0  0  1  0  0  3  0  0  0  0  0  0
  188.4860  178.5140  140.3200 S   0  0  0  0  0  0  0  0  0  0  0  0
  189.0110  178.5180  138.5830 C   0  0  0  0  0  2  0  0  0  0  0  0
  187.8000  178.3440  137.6890 C   0  0  0  0  0  2  0  0  0  0  0  0
  186.6080  177.8820  138.5090 C   0  0  0  0  0  2  0  0  0  0  0  0
  184.8530  177.0190  137.2280 C   0  0  0  0  0  1  0  0  0  0  0  0
  185.3690  178.2350  137.8340 N   0  0  0  0  0  0  0  0  0  0  0  0
  185.0080  179.6950  140.2140 O   0  0  0  0  0  1  0  0  0  0  0  0
  184.2200  178.7370  139.0630 P   0  0  0  0  0  0  0  0  0  0  0  0
  183.6200  177.5290  139.7490 O   0  0  0  0  0  1  0  0  0  0  0  0
  182.9860  179.6410  138.3440 O   0  0  0  0  0  0  0  0  0  0  0  0
  1  5  1  0  0  0  0
  2  7  1  0  0  0  0
  3  4  1  0  0  0  0
  4  6  1  0  0  0  0
  5  9  1  0  0  0  0
  7  3  2  0  0  0  0
  8  7  1  0  0  0  0
  8  5  2  0  0  0  0
  9  4  2  0  0  0  0
  9 10  1  0  0  0  0
 10 11  1  0  0  0  0
 13 11  1  0  0  0  0
 13 12  1  0  0  0  0
 14 16  1  0  0  0  0
 15 14  1  0  0  0  0
 15 13  2  0  0  0  0
 16 12  1  0  0  0  0
 16 17  1  1  0  0  0
 17 18  1  0  0  0  0
 19  1  1  0  0  0  0
 20 25  1  0  0  0  0
 20 21  1  0  0  0  0
 21 24  1  0  0  0  0
 23 19  1  0  0  0  0
 23 22  1  0  0  0  0
 24 22  1  0  0  0  0
 25 26  1  1  0  0  0
 25 23  1  0  0  0  0
 27 26  1  0  0  0  0
 28 29  1  0  0  0  0
 28 27  1  0  0  0  0
 30 31  1  0  0  0  0
 31 29  1  0  0  0  0
 31 33  1  0  0  0  0
 33 34  1  0  0  0  0
 33 32  1  0  0  0  0
 35 33  2  0  0  0  0
M  END
>  <MODEL>
5

>  <REMARK>
 VINA RESULT:      -7.3      3.511      6.432
  Name = 
  13 active torsions:
  status: ('A' for Active; 'I' for Inactive)
    1  A    between atoms: C_2  and  C_12
    2  A    between atoms: C_2  and  C_22
    3  A    between atoms: S_6  and  C_22
    4  A    between atoms: S_6  and  C_28
    5  A    between atoms: C_9  and  C_34
    6  A    between atoms: C_10  and  N_23
    7  A    between atoms: C_10  and  C_35
    8  A    between atoms: C_12  and  N_21
    9  A    between atoms: C_13  and  C_14
   10  A    between atoms: C_14  and  C_17
   11  A    between atoms: P_15  and  N_21
   12  A    between atoms: C_17  and  C_32
   13  A    between atoms: C_20  and  C_35
                            x       y       z     vdW  Elec       q    Type
                         _______ _______ _______ _____ _____    ______ ____

>  <TORSDO>
F 13

$$$$
=
 OpenBabel10222419163D

 35 37  0  0  1  0  0  0  0  0999 V2000
  189.4410  176.2780  142.4380 C   0  0  0  0  0  2  0  0  0  0  0  0
  192.1750  176.9690  146.4030 F   0  0  0  0  0  0  0  0  0  0  0  0
  189.8480  177.2450  146.5670 N   0  0  0  0  0  0  0  0  0  0  0  0
  188.5990  177.2350  146.0290 C   0  0  0  0  0  0  0  0  0  0  0  0
  189.5540  176.6080  143.8920 C   0  0  0  0  0  0  0  0  0  0  0  0
  187.4800  177.5500  146.8540 N   0  0  0  0  0  1  0  0  0  0  0  0
  190.9490  176.9500  145.8270 C   0  0  0  0  0  0  0  0  0  0  0  0
  190.8200  176.6260  144.4770 C   0  0  0  0  0  3  0  0  0  0  0  0
  188.4190  176.9100  144.6730 C   0  0  0  0  0  0  0  0  0  0  0  0
  187.0430  176.8760  144.0780 C   0  0  0  0  0  2  0  0  0  0  0  0
  186.6240  178.2640  143.6310 C   0  0  0  0  0  2  0  0  0  0  0  0
  184.1030  178.1150  143.3950 O   0  0  0  0  0  0  0  0  0  0  0  0
  185.2320  178.5290  144.0840 C   0  0  0  0  0  0  0  0  0  0  0  0
  183.5580  179.2180  145.2850 N   0  0  0  0  0  2  0  0  0  0  0  0
  184.9500  179.1600  145.1680 N   0  0  0  0  0  0  0  0  0  0  0  0
  182.9690  178.5290  144.1420 C   0  0  1  0  0  3  0  0  0  0  0  0
  182.1400  179.4980  143.3190 C   0  0  0  0  0  2  0  0  0  0  0  0
  181.2320  178.7930  142.5310 O   0  0  0  0  0  1  0  0  0  0  0  0
  190.1870  177.3030  141.6010 C   0  0  0  0  0  2  0  0  0  0  0  0
  190.2630  175.9750  138.0640 C   0  0  0  0  0  2  0  0  0  0  0  0
  191.7440  175.6110  138.1830 C   0  0  0  0  0  2  0  0  0  0  0  0
  191.9220  177.3970  139.9920 C   0  0  0  0  0  2  0  0  0  0  0  0
  190.7250  176.6630  140.4100 N   0  0  0  0  0  0  0  0  0  0  0  0
  192.5520  176.7890  138.7300 C   0  0  0  0  0  2  0  0  0  0  0  0
  189.7190  176.6550  139.3310 C   0  0  1  0  0  3  0  0  0  0  0  0
  189.1120  178.3300  138.9050 S   0  0  0  0  0  0  0  0  0  0  0  0
  188.6790  177.8180  137.2190 C   0  0  0  0  0  2  0  0  0  0  0  0
  187.1960  177.5140  137.1490 C   0  0  0  0  0  2  0  0  0  0  0  0
  186.4840  178.1090  138.3520 C   0  0  0  0  0  2  0  0  0  0  0  0
  184.4540  177.1560  137.6910 C   0  0  0  0  0  1  0  0  0  0  0  0
  185.1030  178.4160  138.0140 N   0  0  0  0  0  0  0  0  0  0  0  0
  183.4040  180.4040  139.0570 O   0  0  0  0  0  0  0  0  0  0  0  0
  184.3320  179.0480  139.4600 P   0  0  0  0  0  0  0  0  0  0  0  0
  185.3750  179.4450  140.4820 O   0  0  0  0  0  1  0  0  0  0  0  0
  183.3220  177.8650  140.1230 O   0  0  0  0  0  1  0  0  0  0  0  0
  1  5  1  0  0  0  0
  4  3  1  0  0  0  0
  4  6  1  0  0  0  0
  5  8  2  0  0  0  0
  5  9  1  0  0  0  0
  7  2  1  0  0  0  0
  7  3  2  0  0  0  0
  8  7  1  0  0  0  0
  9  4  2  0  0  0  0
 10  9  1  0  0  0  0
 11 10  1  0  0  0  0
 11 13  1  0  0  0  0
 12 13  1  0  0  0  0
 12 16  1  0  0  0  0
 13 15  2  0  0  0  0
 15 14  1  0  0  0  0
 16 17  1  6  0  0  0
 16 14  1  0  0  0  0
 18 17  1  0  0  0  0
 19  1  1  0  0  0  0
 20 21  1  0  0  0  0
 20 25  1  0  0  0  0
 21 24  1  0  0  0  0
 22 23  1  0  0  0  0
 23 19  1  0  0  0  0
 24 22  1  0  0  0  0
 25 26  1  6  0  0  0
 25 23  1  0  0  0  0
 27 26  1  0  0  0  0
 28 27  1  0  0  0  0
 28 29  1  0  0  0  0
 30 31  1  0  0  0  0
 31 29  1  0  0  0  0
 31 33  1  0  0  0  0
 32 33  2  0  0  0  0
 33 35  1  0  0  0  0
 33 34  1  0  0  0  0
M  END
>  <MODEL>
6

>  <REMARK>
 VINA RESULT:      -7.3      2.711      4.713
  Name = 
  13 active torsions:
  status: ('A' for Active; 'I' for Inactive)
    1  A    between atoms: C_2  and  C_12
    2  A    between atoms: C_2  and  C_22
    3  A    between atoms: S_6  and  C_22
    4  A    between atoms: S_6  and  C_28
    5  A    between atoms: C_9  and  C_34
    6  A    between atoms: C_10  and  N_23
    7  A    between atoms: C_10  and  C_35
    8  A    between atoms: C_12  and  N_21
    9  A    between atoms: C_13  and  C_14
   10  A    between atoms: C_14  and  C_17
   11  A    between atoms: P_15  and  N_21
   12  A    between atoms: C_17  and  C_32
   13  A    between atoms: C_20  and  C_35
                            x       y       z     vdW  Elec       q    Type
                         _______ _______ _______ _____ _____    ______ ____

>  <TORSDO>
F 13

$$$$
=
 OpenBabel10222419163D

 35 37  0  0  1  0  0  0  0  0999 V2000
  187.0580  177.8830  143.2100 C   0  0  0  0  0  2  0  0  0  0  0  0
  184.6910  178.2690  147.4440 F   0  0  0  0  0  0  0  0  0  0  0  0
  183.6170  178.9710  145.4760 N   0  0  0  0  0  0  0  0  0  0  0  0
  183.5870  179.1600  144.1290 C   0  0  0  0  0  0  0  0  0  0  0  0
  185.8330  178.2610  143.9790 C   0  0  0  0  0  0  0  0  0  0  0  0
  182.4200  179.7150  143.5280 N   0  0  0  0  0  1  0  0  0  0  0  0
  184.7030  178.4420  146.1010 C   0  0  0  0  0  0  0  0  0  0  0  0
  185.8290  178.0790  145.3630 C   0  0  0  0  0  3  0  0  0  0  0  0
  184.6970  178.8040  143.3430 C   0  0  0  0  0  0  0  0  0  0  0  0
  184.6630  178.9900  141.8560 C   0  0  0  0  0  2  0  0  0  0  0  0
  183.8710  177.8740  141.1990 C   0  0  0  0  0  2  0  0  0  0  0  0
  182.2750  177.6720  139.2380 O   0  0  0  0  0  0  0  0  0  0  0  0
  183.1680  178.4080  140.0010 C   0  0  0  0  0  0  0  0  0  0  0  0
  182.5090  179.7680  138.4410 N   0  0  0  0  0  2  0  0  0  0  0  0
  183.3200  179.6080  139.5690 N   0  0  0  0  0  0  0  0  0  0  0  0
  181.7970  178.5180  138.2030 C   0  0  1  0  0  3  0  0  0  0  0  0
  182.1890  177.9450  136.8530 C   0  0  0  0  0  2  0  0  0  0  0  0
  183.4510  177.3590  136.9360 O   0  0  0  0  0  1  0  0  0  0  0  0
  187.5710  176.5260  143.6600 C   0  0  0  0  0  2  0  0  0  0  0  0
  191.3100  176.1960  143.2240 C   0  0  0  0  0  2  0  0  0  0  0  0
  191.5750  176.9220  144.5440 C   0  0  0  0  0  2  0  0  0  0  0  0
  189.2980  178.0320  144.2630 C   0  0  0  0  0  2  0  0  0  0  0  0
  188.9840  176.6250  143.9960 N   0  0  0  0  0  0  0  0  0  0  0  0
  190.7800  178.2260  144.6180 C   0  0  0  0  0  2  0  0  0  0  0  0
  189.8120  176.1110  142.8890 C   0  0  1  0  0  3  0  0  0  0  0  0
  189.4980  176.9680  141.3000 S   0  0  0  0  0  0  0  0  0  0  0  0
  191.2730  177.1380  140.9640 C   0  0  0  0  0  2  0  0  0  0  0  0
  191.5090  177.1060  139.4680 C   0  0  0  0  0  2  0  0  0  0  0  0
  190.2280  176.7250  138.7450 C   0  0  0  0  0  2  0  0  0  0  0  0
  190.0900  176.2380  136.4630 C   0  0  0  0  0  1  0  0  0  0  0  0
  190.2040  177.3250  137.4200 N   0  0  0  0  0  0  0  0  0  0  0  0
  188.0890  178.1340  135.7470 O   0  0  0  0  0  0  0  0  0  0  0  0
  188.7380  178.2860  137.3010 P   0  0  0  0  0  0  0  0  0  0  0  0
  189.0400  179.7430  137.5740 O   0  0  0  0  0  1  0  0  0  0  0  0
  187.6070  177.7290  138.4290 O   0  0  0  0  0  1  0  0  0  0  0  0
  1 19  1  0  0  0  0
  1  5  1  0  0  0  0
  3  7  1  0  0  0  0
  4  3  2  0  0  0  0
  5  8  1  0  0  0  0
  6  4  1  0  0  0  0
  7  2  1  0  0  0  0
  8  7  2  0  0  0  0
  9  5  2  0  0  0  0
  9  4  1  0  0  0  0
 10  9  1  0  0  0  0
 11 10  1  0  0  0  0
 12 13  1  0  0  0  0
 13 11  1  0  0  0  0
 14 15  1  0  0  0  0
 15 13  2  0  0  0  0
 16 17  1  6  0  0  0
 16 14  1  0  0  0  0
 16 12  1  0  0  0  0
 17 18  1  0  0  0  0
 19 23  1  0  0  0  0
 20 21  1  0  0  0  0
 21 24  1  0  0  0  0
 22 24  1  0  0  0  0
 23 22  1  0  0  0  0
 25 26  1  6  0  0  0
 25 20  1  0  0  0  0
 25 23  1  0  0  0  0
 27 26  1  0  0  0  0
 28 27  1  0  0  0  0
 29 28  1  0  0  0  0
 30 31  1  0  0  0  0
 31 29  1  0  0  0  0
 32 33  2  0  0  0  0
 33 31  1  0  0  0  0
 33 34  1  0  0  0  0
 33 35  1  0  0  0  0
M  END
>  <MODEL>
7

>  <REMARK>
 VINA RESULT:      -7.0      1.470      1.664
  Name = 
  13 active torsions:
  status: ('A' for Active; 'I' for Inactive)
    1  A    between atoms: C_2  and  C_12
    2  A    between atoms: C_2  and  C_22
    3  A    between atoms: S_6  and  C_22
    4  A    between atoms: S_6  and  C_28
    5  A    between atoms: C_9  and  C_34
    6  A    between atoms: C_10  and  N_23
    7  A    between atoms: C_10  and  C_35
    8  A    between atoms: C_12  and  N_21
    9  A    between atoms: C_13  and  C_14
   10  A    between atoms: C_14  and  C_17
   11  A    between atoms: P_15  and  N_21
   12  A    between atoms: C_17  and  C_32
   13  A    between atoms: C_20  and  C_35
                            x       y       z     vdW  Elec       q    Type
                         _______ _______ _______ _____ _____    ______ ____

>  <TORSDO>
F 13

$$$$
=
 OpenBabel10222419163D

 35 37  0  0  1  0  0  0  0  0999 V2000
  188.3420  177.0540  142.7550 C   0  0  0  0  0  2  0  0  0  0  0  0
  189.0250  178.2200  138.0810 F   0  0  0  0  0  0  0  0  0  0  0  0
  190.8980  177.7410  139.4170 N   0  0  0  0  0  0  0  0  0  0  0  0
  191.4670  177.3880  140.6000 C   0  0  0  0  0  0  0  0  0  0  0  0
  189.2610  177.2760  141.5970 C   0  0  0  0  0  0  0  0  0  0  0  0
  192.8840  177.2670  140.6850 N   0  0  0  0  0  1  0  0  0  0  0  0
  189.5510  177.8690  139.2780 C   0  0  0  0  0  0  0  0  0  0  0  0
  188.7110  177.6390  140.3670 C   0  0  0  0  0  3  0  0  0  0  0  0
  190.6590  177.1410  141.7240 C   0  0  0  0  0  0  0  0  0  0  0  0
  191.2780  176.7310  143.0270 C   0  0  0  0  0  2  0  0  0  0  0  0
  191.3660  177.9170  143.9690 C   0  0  0  0  0  2  0  0  0  0  0  0
  189.6060  177.6520  145.7770 O   0  0  0  0  0  0  0  0  0  0  0  0
  190.9080  177.5050  145.3230 C   0  0  0  0  0  0  0  0  0  0  0  0
  190.9230  176.7010  147.3420 N   0  0  0  0  0  2  0  0  0  0  0  0
  191.6810  176.9640  146.1960 N   0  0  0  0  0  0  0  0  0  0  0  0
  189.5500  177.1290  147.0960 C   0  0  1  0  0  3  0  0  0  0  0  0
  189.1660  178.2310  148.0660 C   0  0  0  0  0  2  0  0  0  0  0  0
  188.0860  177.8190  148.8460 O   0  0  0  0  0  1  0  0  0  0  0  0
  187.0810  177.8880  142.6020 C   0  0  0  0  0  2  0  0  0  0  0  0
  184.8910  179.6090  145.1550 C   0  0  0  0  0  2  0  0  0  0  0  0
  185.6900  179.0090  146.3130 C   0  0  0  0  0  2  0  0  0  0  0  0
  186.3650  177.1310  144.7290 C   0  0  0  0  0  2  0  0  0  0  0  0
  186.6200  178.3210  143.9120 N   0  0  0  0  0  0  0  0  0  0  0  0
  185.8630  177.5010  146.1320 C   0  0  0  0  0  2  0  0  0  0  0  0
  185.3940  179.1320  143.7830 C   0  0  1  0  0  3  0  0  0  0  0  0
  184.0410  178.2530  142.9150 S   0  0  0  0  0  0  0  0  0  0  0  0
  182.7790  179.0040  143.9800 C   0  0  0  0  0  2  0  0  0  0  0  0
  181.4250  178.9020  143.3080 C   0  0  0  0  0  2  0  0  0  0  0  0
  181.5820  178.9950  141.8000 C   0  0  0  0  0  2  0  0  0  0  0  0
  179.4940  178.5770  140.8350 C   0  0  0  0  0  1  0  0  0  0  0  0
  180.7780  177.9730  141.1490 N   0  0  0  0  0  0  0  0  0  0  0  0
  180.4220  176.9040  138.5690 O   0  0  0  0  0  0  0  0  0  0  0  0
  181.5580  177.5750  139.6270 P   0  0  0  0  0  0  0  0  0  0  0  0
  182.6760  176.5810  139.8530 O   0  0  0  0  0  1  0  0  0  0  0  0
  182.1930  178.9810  138.9360 O   0  0  0  0  0  1  0  0  0  0  0  0
  2  7  1  0  0  0  0
  3  4  1  0  0  0  0
  4  6  1  0  0  0  0
  4  9  2  0  0  0  0
  5  9  1  0  0  0  0
  5  1  1  0  0  0  0
  7  3  2  0  0  0  0
  7  8  1  0  0  0  0
  8  5  2  0  0  0  0
  9 10  1  0  0  0  0
 10 11  1  0  0  0  0
 11 13  1  0  0  0  0
 12 16  1  0  0  0  0
 13 12  1  0  0  0  0
 13 15  2  0  0  0  0
 15 14  1  0  0  0  0
 16 14  1  0  0  0  0
 16 17  1  1  0  0  0
 17 18  1  0  0  0  0
 19  1  1  0  0  0  0
 19 23  1  0  0  0  0
 20 21  1  0  0  0  0
 22 24  1  0  0  0  0
 23 22  1  0  0  0  0
 24 21  1  0  0  0  0
 25 26  1  1  0  0  0
 25 23  1  0  0  0  0
 25 20  1  0  0  0  0
 26 27  1  0  0  0  0
 28 27  1  0  0  0  0
 29 28  1  0  0  0  0
 30 31  1  0  0  0  0
 31 29  1  0  0  0  0
 32 33  2  0  0  0  0
 33 34  1  0  0  0  0
 33 31  1  0  0  0  0
 35 33  1  0  0  0  0
M  END
>  <MODEL>
8

>  <REMARK>
 VINA RESULT:      -6.9      3.843      7.975
  Name = 
  13 active torsions:
  status: ('A' for Active; 'I' for Inactive)
    1  A    between atoms: C_2  and  C_12
    2  A    between atoms: C_2  and  C_22
    3  A    between atoms: S_6  and  C_22
    4  A    between atoms: S_6  and  C_28
    5  A    between atoms: C_9  and  C_34
    6  A    between atoms: C_10  and  N_23
    7  A    between atoms: C_10  and  C_35
    8  A    between atoms: C_12  and  N_21
    9  A    between atoms: C_13  and  C_14
   10  A    between atoms: C_14  and  C_17
   11  A    between atoms: P_15  and  N_21
   12  A    between atoms: C_17  and  C_32
   13  A    between atoms: C_20  and  C_35
                            x       y       z     vdW  Elec       q    Type
                         _______ _______ _______ _____ _____    ______ ____

>  <TORSDO>
F 13

$$$$
=
 OpenBabel10222419163D

 35 37  0  0  1  0  0  0  0  0999 V2000
  190.8840  177.1500  140.0650 C   0  0  0  0  0  2  0  0  0  0  0  0
  187.9960  179.3790  136.8450 F   0  0  0  0  0  0  0  0  0  0  0  0
  189.4120  177.6590  136.0990 N   0  0  0  0  0  0  0  0  0  0  0  0
  190.3530  176.7010  136.3180 C   0  0  0  0  0  0  0  0  0  0  0  0
  190.3750  177.2980  138.6670 C   0  0  0  0  0  0  0  0  0  0  0  0
  190.8140  175.9130  135.2240 N   0  0  0  0  0  1  0  0  0  0  0  0
  188.9350  178.4380  137.1060 C   0  0  0  0  0  0  0  0  0  0  0  0
  189.4090  178.2710  138.4070 C   0  0  0  0  0  3  0  0  0  0  0  0
  190.8570  176.4930  137.6140 C   0  0  0  0  0  0  0  0  0  0  0  0
  191.8780  175.4250  137.8660 C   0  0  0  0  0  2  0  0  0  0  0  0
  193.2780  175.9640  137.6350 C   0  0  0  0  0  2  0  0  0  0  0  0
  195.4770  175.1760  138.6240 O   0  0  0  0  0  0  0  0  0  0  0  0
  194.2740  174.9160  137.9860 C   0  0  0  0  0  0  0  0  0  0  0  0
  195.2240  172.9740  138.2080 N   0  0  0  0  0  2  0  0  0  0  0  0
  194.1030  173.6670  137.7370 N   0  0  0  0  0  0  0  0  0  0  0  0
  196.1410  173.9350  138.8080 C   0  0  1  0  0  3  0  0  0  0  0  0
  197.4570  173.9430  138.0520 C   0  0  0  0  0  2  0  0  0  0  0  0
  197.9250  175.2500  137.9310 O   0  0  0  0  0  1  0  0  0  0  0  0
  189.7550  177.3330  141.0640 C   0  0  0  0  0  2  0  0  0  0  0  0
  189.8000  178.1300  144.7570 C   0  0  0  0  0  2  0  0  0  0  0  0
  191.2890  177.7950  144.8590 C   0  0  0  0  0  2  0  0  0  0  0  0
  190.9800  176.3070  142.8130 C   0  0  0  0  0  2  0  0  0  0  0  0
  190.3080  177.5400  142.3940 N   0  0  0  0  0  0  0  0  0  0  0  0
  191.5870  176.4380  144.2170 C   0  0  0  0  0  2  0  0  0  0  0  0
  189.2380  177.8960  143.3450 C   0  0  1  0  0  3  0  0  0  0  0  0
  187.9040  176.6430  143.4260 S   0  0  0  0  0  0  0  0  0  0  0  0
  186.6130  177.9120  143.3040 C   0  0  0  0  0  2  0  0  0  0  0  0
  186.4110  178.2890  141.8510 C   0  0  0  0  0  2  0  0  0  0  0  0
  185.1010  179.0410  141.6840 C   0  0  0  0  0  2  0  0  0  0  0  0
  182.8340  178.6360  141.2750 C   0  0  0  0  0  1  0  0  0  0  0  0
  184.1790  178.2640  140.8690 N   0  0  0  0  0  0  0  0  0  0  0  0
  184.1880  180.4530  139.0980 O   0  0  0  0  0  1  0  0  0  0  0  0
  184.3860  178.7760  139.2020 P   0  0  0  0  0  0  0  0  0  0  0  0
  183.3650  178.0990  138.3130 O   0  0  0  0  0  0  0  0  0  0  0  0
  185.9410  178.3690  138.6770 O   0  0  0  0  0  1  0  0  0  0  0  0
  1 19  1  0  0  0  0
  2  7  1  0  0  0  0
  3  4  2  0  0  0  0
  3  7  1  0  0  0  0
  4  9  1  0  0  0  0
  5  1  1  0  0  0  0
  6  4  1  0  0  0  0
  7  8  2  0  0  0  0
  8  5  1  0  0  0  0
  9 10  1  0  0  0  0
  9  5  2  0  0  0  0
 11 10  1  0  0  0  0
 11 13  1  0  0  0  0
 12 16  1  0  0  0  0
 13 12  1  0  0  0  0
 14 16  1  0  0  0  0
 15 13  2  0  0  0  0
 15 14  1  0  0  0  0
 16 17  1  6  0  0  0
 18 17  1  0  0  0  0
 19 23  1  0  0  0  0
 20 21  1  0  0  0  0
 22 24  1  0  0  0  0
 23 22  1  0  0  0  0
 23 25  1  0  0  0  0
 24 21  1  0  0  0  0
 25 26  1  1  0  0  0
 25 20  1  0  0  0  0
 27 26  1  0  0  0  0
 28 27  1  0  0  0  0
 29 28  1  0  0  0  0
 31 30  1  0  0  0  0
 31 29  1  0  0  0  0
 32 33  1  0  0  0  0
 33 31  1  0  0  0  0
 34 33  2  0  0  0  0
 35 33  1  0  0  0  0
M  END
>  <MODEL>
9

>  <REMARK>
 VINA RESULT:      -6.9      4.453      8.607
  Name = 
  13 active torsions:
  status: ('A' for Active; 'I' for Inactive)
    1  A    between atoms: C_2  and  C_12
    2  A    between atoms: C_2  and  C_22
    3  A    between atoms: S_6  and  C_22
    4  A    between atoms: S_6  and  C_28
    5  A    between atoms: C_9  and  C_34
    6  A    between atoms: C_10  and  N_23
    7  A    between atoms: C_10  and  C_35
    8  A    between atoms: C_12  and  N_21
    9  A    between atoms: C_13  and  C_14
   10  A    between atoms: C_14  and  C_17
   11  A    between atoms: P_15  and  N_21
   12  A    between atoms: C_17  and  C_32
   13  A    between atoms: C_20  and  C_35
                            x       y       z     vdW  Elec       q    Type
                         _______ _______ _______ _____ _____    ______ ____

>  <TORSDO>
F 13

$$$$
