=
 OpenBabel10222416143D

 44 46  0  0  1  0  0  0  0  0999 V2000
  188.0730  178.1110  139.4600 C   0  0  2  0  0  3  0  0  0  0  0  0
  188.6250  178.7070  140.7260 C   0  0  0  0  0  3  0  0  0  0  0  0
  188.8060  178.0330  141.8330 C   0  0  0  0  0  0  0  0  0  0  0  0
  188.9910  177.3630  142.9350 C   0  0  0  0  0  0  0  0  0  0  0  0
  188.5540  175.9380  143.0120 C   0  0  0  0  0  1  0  0  0  0  0  0
  189.6450  178.0330  144.1030 C   0  0  2  0  0  3  0  0  0  0  0  0
  191.2910  179.7460  143.9040 O   0  0  0  0  0  1  0  0  0  0  0  0
  191.9520  177.6730  143.1830 O   0  0  0  0  0  0  0  0  0  0  0  0
  191.0120  178.5290  143.7490 C   0  0  0  0  0  0  0  0  0  0  0  0
  189.7050  177.1270  145.2410 N   0  0  0  0  0  2  0  0  0  0  0  0
  189.1540  177.8420  146.3820 C   0  0  0  0  0  2  0  0  0  0  0  0
  189.7820  177.3350  147.6690 C   0  0  0  0  0  2  0  0  0  0  0  0
  187.9570  178.1370  148.6160 C   0  0  0  0  0  1  0  0  0  0  0  0
  189.3450  178.1010  148.7530 O   0  0  0  0  0  0  0  0  0  0  0  0
  186.5870  177.7610  139.5430 C   0  0  0  0  0  2  0  0  0  0  0  0
  185.8200  178.5420  138.4920 C   0  0  1  0  0  3  0  0  0  0  0  0
  186.3220  178.1760  137.1600 C   0  0  0  0  0  0  0  0  0  0  0  0
  186.7280  177.8750  136.0660 C   0  0  0  0  0  3  0  0  0  0  0  0
  184.3380  178.2260  138.6080 C   0  0  0  0  0  2  0  0  0  0  0  0
  182.7990  180.1770  138.6610 C   0  0  0  0  0  2  0  0  0  0  0  0
  183.6380  179.2450  139.4970 C   0  0  1  0  0  3  0  0  0  0  0  0
  182.6180  178.5360  140.3540 C   0  0  2  0  0  3  0  0  0  0  0  0
  181.3340  179.1800  140.1180 N   0  0  0  0  0  2  0  0  0  0  0  0
  181.4130  179.7780  138.8470 N   0  0  0  0  0  2  0  0  0  0  0  0
  183.6020  178.7950  144.5050 C   0  0  0  0  0  0  0  0  0  0  0  0
  184.5750  178.4770  143.6040 C   0  0  0  0  0  0  0  0  0  0  0  0
  184.0940  178.8460  145.8250 N   0  0  0  0  0  0  0  0  0  0  0  0
  184.2970  178.3710  142.2410 C   0  0  0  0  0  3  0  0  0  0  0  0
  182.2830  179.0200  144.1130 C   0  0  0  0  0  3  0  0  0  0  0  0
  185.5250  178.5410  145.7720 C   0  0  0  0  0  2  0  0  0  0  0  0
  181.9730  178.9200  142.7460 C   0  0  0  0  0  3  0  0  0  0  0  0
  185.8700  178.2710  144.2910 C   0  0  0  0  0  3  0  0  0  0  0  0
  182.9750  178.5980  141.8070 C   0  0  0  0  0  0  0  0  0  0  0  0
  188.8900  176.8880  139.0830 C   0  0  0  0  0  2  0  0  0  0  0  0
  190.0630  177.2880  138.2030 C   0  0  0  0  0  2  0  0  0  0  0  0
  190.7650  176.0760  137.6900 C   0  0  0  0  0  0  0  0  0  0  0  0
  190.7830  175.0500  138.3520 O   0  0  0  0  0  0  0  0  0  0  0  0
  191.4820  176.1360  136.3820 C   0  0  0  0  0  2  0  0  0  0  0  0
  192.3460  174.9770  136.2370 N   0  0  0  0  0  2  0  0  0  0  0  0
  193.6810  175.3940  136.6310 C   0  0  0  0  0  2  0  0  0  0  0  0
  194.4080  174.2490  137.2640 C   0  0  0  0  0  0  0  0  0  0  0  0
  193.9160  173.0680  137.1750 N   0  0  0  0  0  2  0  0  0  0  0  0
  195.3720  175.1420  139.2640 O   0  0  0  0  0  1  0  0  0  0  0  0
  195.6500  174.4590  138.0780 C   0  0  0  0  0  2  0  0  0  0  0  0
  1 34  1  1  0  0  0
  1 15  1  0  0  0  0
  1  2  1  0  0  0  0
  2  3  2  0  0  0  0
  3  4  2  0  0  0  0
  4  5  1  0  0  0  0
  6  4  1  6  0  0  0
  6 10  1  0  0  0  0
  8  9  2  0  0  0  0
  9  7  1  0  0  0  0
  9  6  1  0  0  0  0
 10 11  1  0  0  0  0
 11 12  1  0  0  0  0
 12 14  1  0  0  0  0
 13 14  1  0  0  0  0
 16 17  1  6  0  0  0
 16 19  1  0  0  0  0
 16 15  1  0  0  0  0
 18 17  3  0  0  0  0
 20 24  1  0  0  0  0
 20 21  1  0  0  0  0
 21 19  1  6  0  0  0
 21 22  1  0  0  0  0
 22 33  1  1  0  0  0
 23 22  1  0  0  0  0
 24 23  1  0  0  0  0
 25 27  2  0  0  0  0
 26 32  2  0  0  0  0
 26 25  1  0  0  0  0
 28 26  1  0  0  0  0
 29 25  1  0  0  0  0
 30 27  1  0  0  0  0
 31 29  2  0  0  0  0
 32 30  1  0  0  0  0
 33 28  2  0  0  0  0
 33 31  1  0  0  0  0
 35 34  1  0  0  0  0
 36 35  1  0  0  0  0
 36 37  2  0  0  0  0
 38 36  1  0  0  0  0
 39 38  1  0  0  0  0
 39 40  1  0  0  0  0
 40 41  1  0  0  0  0
 41 44  1  0  0  0  0
 42 41  2  0  0  0  0
 44 43  1  0  0  0  0
M  END
>  <MODEL>
1

>  <REMARK>
 VINA RESULT:      -6.8      0.000      0.000
  Name = 
  21 active torsions:
  status: ('A' for Active; 'I' for Inactive)
    1  A    between atoms: C_2  and  C_11
    2  A    between atoms: C_2  and  C_21
    3  A    between atoms: C_3  and  C_7
    4  A    between atoms: C_3  and  O_41
    5  A    between atoms: C_4  and  C_10
    6  A    between atoms: C_7  and  N_35
    7  A    between atoms: C_10  and  C_13
    8  A    between atoms: C_10  and  C_31
    9  A    between atoms: C_11  and  C_13
   10  A    between atoms: N_14  and  C_19
   11  A    between atoms: N_14  and  C_21
   12  A    between atoms: C_17  and  C_32
   13  A    between atoms: C_19  and  C_25
   14  A    between atoms: C_20  and  C_22
   15  A    between atoms: C_20  and  C_24
   16  A    between atoms: C_24  and  C_31
   17  A    between atoms: C_24  and  C_34
   18  A    between atoms: C_25  and  C_30
   19  A    between atoms: C_28  and  C_44
   20  A    between atoms: C_29  and  C_32
   21  A    between atoms: C_32  and  N_35
                            x       y       z     vdW  Elec       q    Type
                         _______ _______ _______ _____ _____    ______ ____

>  <TORSDO>
F 21

$$$$
=
 OpenBabel10222416143D

 44 46  0  0  1  0  0  0  0  0999 V2000
  185.3680  178.1550  142.8750 C   0  0  2  0  0  3  0  0  0  0  0  0
  186.4220  178.4640  141.8470 C   0  0  0  0  0  3  0  0  0  0  0  0
  187.5830  177.8620  141.7870 C   0  0  0  0  0  0  0  0  0  0  0  0
  188.7370  177.2600  141.7230 C   0  0  0  0  0  0  0  0  0  0  0  0
  189.1070  176.2650  142.7710 C   0  0  0  0  0  1  0  0  0  0  0  0
  189.6690  177.5750  140.5940 C   0  0  2  0  0  3  0  0  0  0  0  0
  188.3090  176.9750  138.7290 O   0  0  0  0  0  0  0  0  0  0  0  0
  188.9390  179.1780  138.8060 O   0  0  0  0  0  1  0  0  0  0  0  0
  188.9150  177.8930  139.3400 C   0  0  0  0  0  0  0  0  0  0  0  0
  190.5900  176.4700  140.3730 N   0  0  0  0  0  2  0  0  0  0  0  0
  191.6650  176.9750  139.5330 C   0  0  0  0  0  2  0  0  0  0  0  0
  191.8040  176.1170  138.2870 C   0  0  0  0  0  2  0  0  0  0  0  0
  190.5630  174.7190  137.1130 C   0  0  0  0  0  1  0  0  0  0  0  0
  191.0210  174.9650  138.4070 O   0  0  0  0  0  0  0  0  0  0  0  0
  184.1730  179.1070  142.8340 C   0  0  0  0  0  2  0  0  0  0  0  0
  182.9560  178.3760  142.2990 C   0  0  1  0  0  3  0  0  0  0  0  0
  181.7740  178.7810  143.0710 C   0  0  0  0  0  0  0  0  0  0  0  0
  180.8070  179.1120  143.7100 C   0  0  0  0  0  3  0  0  0  0  0  0
  182.7720  178.7100  140.8270 C   0  0  0  0  0  2  0  0  0  0  0  0
  180.8370  177.2930  140.1750 C   0  0  0  0  0  2  0  0  0  0  0  0
  182.3270  177.4800  140.0470 C   0  0  1  0  0  3  0  0  0  0  0  0
  182.5180  177.7340  138.5720 C   0  0  2  0  0  3  0  0  0  0  0  0
  181.2320  177.5160  137.9260 N   0  0  0  0  0  2  0  0  0  0  0  0
  180.2490  177.7130  138.9130 N   0  0  0  0  0  2  0  0  0  0  0  0
  185.4720  175.1960  136.8120 C   0  0  2  0  0  3  0  0  0  0  0  0
  184.4500  174.6420  137.5260 C   0  0  0  0  0  0  0  0  0  0  0  0
  186.3510  174.2230  136.2950 N   0  0  0  0  0  0  0  0  0  0  0  0
  183.4700  175.4320  138.1260 C   0  0  0  0  0  3  0  0  0  0  0  0
  185.5950  176.5770  136.6550 C   0  0  0  0  0  3  0  0  0  0  0  0
  185.8450  172.9120  136.7050 C   0  0  0  0  0  3  0  0  0  0  0  0
  184.6220  177.3980  137.2500 C   0  0  0  0  0  3  0  0  0  0  0  0
  184.5770  173.1670  137.5490 C   0  0  0  0  0  3  0  0  0  0  0  0
  183.5580  176.8330  137.9830 C   0  0  0  0  0  0  0  0  0  0  0  0
  186.0000  178.1470  144.2550 C   0  0  0  0  0  2  0  0  0  0  0  0
  185.1820  178.9950  145.2150 C   0  0  0  0  0  2  0  0  0  0  0  0
  185.7610  178.9320  146.5880 C   0  0  0  0  0  0  0  0  0  0  0  0
  185.6780  179.8930  147.3350 O   0  0  0  0  0  0  0  0  0  0  0  0
  186.4820  177.7000  147.0290 C   0  0  0  0  0  2  0  0  0  0  0  0
  187.7010  178.0640  147.7300 N   0  0  0  0  0  2  0  0  0  0  0  0
  188.5300  176.8710  147.7820 C   0  0  0  0  0  2  0  0  0  0  0  0
  189.7340  177.0470  146.9100 C   0  0  0  0  0  0  0  0  0  0  0  0
  189.6770  177.8620  145.9220 N   0  0  0  0  0  2  0  0  0  0  0  0
  192.1230  176.9560  146.7950 O   0  0  0  0  0  1  0  0  0  0  0  0
  190.9730  176.2260  147.1060 C   0  0  0  0  0  2  0  0  0  0  0  0
  1  2  1  6  0  0  0
  1 34  1  0  0  0  0
  3  2  2  0  0  0  0
  4  3  2  0  0  0  0
  4  5  1  0  0  0  0
  6  9  1  6  0  0  0
  6  4  1  0  0  0  0
  7  9  2  0  0  0  0
  8  9  1  0  0  0  0
 10  6  1  0  0  0  0
 11 10  1  0  0  0  0
 12 14  1  0  0  0  0
 12 11  1  0  0  0  0
 13 14  1  0  0  0  0
 15  1  1  0  0  0  0
 16 19  1  6  0  0  0
 16 15  1  0  0  0  0
 16 17  1  0  0  0  0
 17 18  3  0  0  0  0
 21 20  1  0  0  0  0
 21 19  1  1  0  0  0
 22 33  1  6  0  0  0
 22 21  1  0  0  0  0
 23 22  1  0  0  0  0
 23 24  1  0  0  0  0
 24 20  1  0  0  0  0
 25 29  1  1  0  0  0
 25 26  1  0  0  0  0
 26 32  2  0  0  0  0
 26 28  1  0  0  0  0
 27 30  2  0  0  0  0
 27 25  1  0  0  0  0
 29 31  2  0  0  0  0
 30 32  1  0  0  0  0
 31 33  1  0  0  0  0
 33 28  2  0  0  0  0
 34 35  1  0  0  0  0
 35 36  1  0  0  0  0
 36 38  1  0  0  0  0
 36 37  2  0  0  0  0
 38 39  1  0  0  0  0
 39 40  1  0  0  0  0
 41 44  1  0  0  0  0
 41 40  1  0  0  0  0
 42 41  2  0  0  0  0
 43 44  1  0  0  0  0
M  END
>  <MODEL>
2

>  <REMARK>
 VINA RESULT:      -6.6      2.528      7.741
  Name = 
  21 active torsions:
  status: ('A' for Active; 'I' for Inactive)
    1  A    between atoms: C_2  and  C_11
    2  A    between atoms: C_2  and  C_21
    3  A    between atoms: C_3  and  C_7
    4  A    between atoms: C_3  and  O_41
    5  A    between atoms: C_4  and  C_10
    6  A    between atoms: C_7  and  N_35
    7  A    between atoms: C_10  and  C_13
    8  A    between atoms: C_10  and  C_31
    9  A    between atoms: C_11  and  C_13
   10  A    between atoms: N_14  and  C_19
   11  A    between atoms: N_14  and  C_21
   12  A    between atoms: C_17  and  C_32
   13  A    between atoms: C_19  and  C_25
   14  A    between atoms: C_20  and  C_22
   15  A    between atoms: C_20  and  C_24
   16  A    between atoms: C_24  and  C_31
   17  A    between atoms: C_24  and  C_34
   18  A    between atoms: C_25  and  C_30
   19  A    between atoms: C_28  and  C_44
   20  A    between atoms: C_29  and  C_32
   21  A    between atoms: C_32  and  N_35
                            x       y       z     vdW  Elec       q    Type
                         _______ _______ _______ _____ _____    ______ ____

>  <TORSDO>
F 21

$$$$
=
 OpenBabel10222416143D

 44 46  0  0  1  0  0  0  0  0999 V2000
  184.9210  178.8290  141.1170 C   0  0  2  0  0  3  0  0  0  0  0  0
  186.3390  178.7830  140.6190 C   0  0  0  0  0  3  0  0  0  0  0  0
  186.7060  178.1910  139.5110 C   0  0  0  0  0  0  0  0  0  0  0  0
  187.0710  177.6050  138.4050 C   0  0  0  0  0  0  0  0  0  0  0  0
  186.0660  176.8450  137.6080 C   0  0  0  0  0  1  0  0  0  0  0  0
  188.4950  177.7110  137.9530 C   0  0  2  0  0  3  0  0  0  0  0  0
  188.4850  178.5240  135.7120 O   0  0  0  0  0  0  0  0  0  0  0  0
  189.0780  180.0640  137.3030 O   0  0  0  0  0  1  0  0  0  0  0  0
  188.6610  178.7900  136.9290 C   0  0  0  0  0  0  0  0  0  0  0  0
  188.9590  176.4330  137.4330 N   0  0  0  0  0  2  0  0  0  0  0  0
  190.4130  176.4900  137.4020 C   0  0  0  0  0  2  0  0  0  0  0  0
  190.9980  175.1710  137.8760 C   0  0  0  0  0  2  0  0  0  0  0  0
  192.8220  176.4140  137.8730 C   0  0  0  0  0  1  0  0  0  0  0  0
  192.3670  175.1240  137.5990 O   0  0  0  0  0  0  0  0  0  0  0  0
  184.6660  177.9350  142.3300 C   0  0  0  0  0  2  0  0  0  0  0  0
  184.2960  178.7910  143.5260 C   0  0  1  0  0  3  0  0  0  0  0  0
  182.8450  179.0210  143.5230 C   0  0  0  0  0  0  0  0  0  0  0  0
  181.6540  179.2060  143.5240 C   0  0  0  0  0  3  0  0  0  0  0  0
  184.7210  178.0850  144.8040 C   0  0  0  0  0  2  0  0  0  0  0  0
  185.7510  179.3570  146.6740 C   0  0  0  0  0  2  0  0  0  0  0  0
  186.0090  178.6870  145.3500 C   0  0  1  0  0  3  0  0  0  0  0  0
  186.9630  177.5730  145.7060 C   0  0  2  0  0  3  0  0  0  0  0  0
  187.3320  177.7510  147.1030 N   0  0  0  0  0  2  0  0  0  0  0  0
  186.2910  178.4820  147.7030 N   0  0  0  0  0  2  0  0  0  0  0  0
  190.4530  177.7010  143.2420 C   0  0  2  0  0  3  0  0  0  0  0  0
  189.2870  177.2150  142.7280 C   0  0  0  0  0  0  0  0  0  0  0  0
  191.5010  177.6810  142.2990 N   0  0  0  0  0  0  0  0  0  0  0  0
  188.1260  177.1450  143.4990 C   0  0  0  0  0  3  0  0  0  0  0  0
  190.5470  178.1410  144.5620 C   0  0  0  0  0  3  0  0  0  0  0  0
  190.9580  177.1390  141.0520 C   0  0  0  0  0  3  0  0  0  0  0  0
  189.3940  178.0820  145.3620 C   0  0  0  0  0  3  0  0  0  0  0  0
  189.4750  176.8010  141.3200 C   0  0  0  0  0  3  0  0  0  0  0  0
  188.1820  177.5880  144.8370 C   0  0  0  0  0  0  0  0  0  0  0  0
  183.9780  178.4730  139.9810 C   0  0  0  0  0  2  0  0  0  0  0  0
  183.3880  179.7340  139.3700 C   0  0  0  0  0  2  0  0  0  0  0  0
  182.4020  179.3840  138.3080 C   0  0  0  0  0  0  0  0  0  0  0  0
  182.6510  178.4980  137.5060 O   0  0  0  0  0  0  0  0  0  0  0  0
  181.1250  180.1510  138.2030 C   0  0  0  0  0  2  0  0  0  0  0  0
  181.4010  181.5770  138.2350 N   0  0  0  0  0  2  0  0  0  0  0  0
  180.1170  182.2530  138.3200 C   0  0  0  0  0  2  0  0  0  0  0  0
  180.2470  183.6600  137.8240 C   0  0  0  0  0  0  0  0  0  0  0  0
  179.2780  184.4800  138.0060 N   0  0  0  0  0  2  0  0  0  0  0  0
  181.1500  184.2100  135.6770 O   0  0  0  0  0  1  0  0  0  0  0  0
  181.4430  184.1100  137.0390 C   0  0  0  0  0  2  0  0  0  0  0  0
  1 34  1  6  0  0  0
  1 15  1  0  0  0  0
  2  1  1  0  0  0  0
  3  2  2  0  0  0  0
  4  3  2  0  0  0  0
  5  4  1  0  0  0  0
  6  9  1  6  0  0  0
  6  4  1  0  0  0  0
  7  9  2  0  0  0  0
  9  8  1  0  0  0  0
 10  6  1  0  0  0  0
 11 10  1  0  0  0  0
 11 12  1  0  0  0  0
 14 13  1  0  0  0  0
 14 12  1  0  0  0  0
 16 15  1  6  0  0  0
 16 19  1  0  0  0  0
 17 18  3  0  0  0  0
 17 16  1  0  0  0  0
 20 24  1  0  0  0  0
 21 19  1  1  0  0  0
 21 22  1  0  0  0  0
 21 20  1  0  0  0  0
 22 33  1  6  0  0  0
 22 23  1  0  0  0  0
 23 24  1  0  0  0  0
 25 29  1  1  0  0  0
 26 25  1  0  0  0  0
 26 28  1  0  0  0  0
 27 25  1  0  0  0  0
 28 33  2  0  0  0  0
 29 31  2  0  0  0  0
 30 32  1  0  0  0  0
 30 27  2  0  0  0  0
 32 26  2  0  0  0  0
 33 31  1  0  0  0  0
 35 34  1  0  0  0  0
 36 35  1  0  0  0  0
 37 36  2  0  0  0  0
 38 39  1  0  0  0  0
 38 36  1  0  0  0  0
 39 40  1  0  0  0  0
 41 42  2  0  0  0  0
 41 40  1  0  0  0  0
 43 44  1  0  0  0  0
 44 41  1  0  0  0  0
M  END
>  <MODEL>
3

>  <REMARK>
 VINA RESULT:      -6.5      3.357      9.303
  Name = 
  21 active torsions:
  status: ('A' for Active; 'I' for Inactive)
    1  A    between atoms: C_2  and  C_11
    2  A    between atoms: C_2  and  C_21
    3  A    between atoms: C_3  and  C_7
    4  A    between atoms: C_3  and  O_41
    5  A    between atoms: C_4  and  C_10
    6  A    between atoms: C_7  and  N_35
    7  A    between atoms: C_10  and  C_13
    8  A    between atoms: C_10  and  C_31
    9  A    between atoms: C_11  and  C_13
   10  A    between atoms: N_14  and  C_19
   11  A    between atoms: N_14  and  C_21
   12  A    between atoms: C_17  and  C_32
   13  A    between atoms: C_19  and  C_25
   14  A    between atoms: C_20  and  C_22
   15  A    between atoms: C_20  and  C_24
   16  A    between atoms: C_24  and  C_31
   17  A    between atoms: C_24  and  C_34
   18  A    between atoms: C_25  and  C_30
   19  A    between atoms: C_28  and  C_44
   20  A    between atoms: C_29  and  C_32
   21  A    between atoms: C_32  and  N_35
                            x       y       z     vdW  Elec       q    Type
                         _______ _______ _______ _____ _____    ______ ____

>  <TORSDO>
F 21

$$$$
=
 OpenBabel10222416143D

 44 46  0  0  1  0  0  0  0  0999 V2000
  187.9810  176.7830  142.2690 C   0  0  2  0  0  3  0  0  0  0  0  0
  188.4580  176.4330  143.6520 C   0  0  0  0  0  3  0  0  0  0  0  0
  189.3480  177.1250  144.3150 C   0  0  0  0  0  0  0  0  0  0  0  0
  190.2320  177.8170  144.9780 C   0  0  0  0  0  0  0  0  0  0  0  0
  190.9010  178.9770  144.3230 C   0  0  0  0  0  1  0  0  0  0  0  0
  190.5550  177.4360  146.3900 C   0  0  2  0  0  3  0  0  0  0  0  0
  192.3450  176.3180  147.4990 O   0  0  0  0  0  1  0  0  0  0  0  0
  192.0310  175.7170  145.3100 O   0  0  0  0  0  0  0  0  0  0  0  0
  191.6760  176.4450  146.4420 C   0  0  0  0  0  0  0  0  0  0  0  0
  189.3730  176.9110  147.0570 N   0  0  0  0  0  2  0  0  0  0  0  0
  189.0410  177.8410  148.1260 C   0  0  0  0  0  2  0  0  0  0  0  0
  187.5690  178.2120  148.0580 C   0  0  0  0  0  2  0  0  0  0  0  0
  185.7810  178.4570  146.7880 C   0  0  0  0  0  1  0  0  0  0  0  0
  187.0400  177.8570  146.8150 O   0  0  0  0  0  0  0  0  0  0  0  0
  189.0230  176.5340  141.1790 C   0  0  0  0  0  2  0  0  0  0  0  0
  189.7300  177.8340  140.8420 C   0  0  1  0  0  3  0  0  0  0  0  0
  191.1770  177.6530  141.0190 C   0  0  0  0  0  0  0  0  0  0  0  0
  192.3640  177.5080  141.1700 C   0  0  0  0  0  3  0  0  0  0  0  0
  189.4120  178.2260  139.4080 C   0  0  0  0  0  2  0  0  0  0  0  0
  187.8730  176.9130  137.9650 C   0  0  0  0  0  2  0  0  0  0  0  0
  189.2680  176.9900  138.5300 C   0  0  1  0  0  3  0  0  0  0  0  0
  190.1300  177.1520  137.3030 C   0  0  2  0  0  3  0  0  0  0  0  0
  189.2650  176.9890  136.1430 N   0  0  0  0  0  2  0  0  0  0  0  0
  187.9620  177.3050  136.5670 N   0  0  0  0  0  2  0  0  0  0  0  0
  193.3600  174.3560  137.1720 C   0  0  0  0  0  0  0  0  0  0  0  0
  192.1640  174.0270  136.6050 C   0  0  0  0  0  0  0  0  0  0  0  0
  194.3160  173.3300  137.0350 N   0  0  0  0  0  0  0  0  0  0  0  0
  191.0790  174.9040  136.6330 C   0  0  0  0  0  2  0  0  0  0  0  0
  193.5560  175.5780  137.8160 C   0  0  0  0  0  3  0  0  0  0  0  0
  193.6820  172.2340  136.3000 C   0  0  0  0  0  3  0  0  0  0  0  0
  192.4810  176.4820  137.8600 C   0  0  0  0  0  3  0  0  0  0  0  0
  192.2270  172.6710  136.0150 C   0  0  0  0  0  3  0  0  0  0  0  0
  191.2430  176.1520  137.2700 C   0  0  0  0  0  0  0  0  0  0  0  0
  187.5190  178.2290  142.2480 C   0  0  0  0  0  2  0  0  0  0  0  0
  186.1040  178.3380  142.7930 C   0  0  0  0  0  2  0  0  0  0  0  0
  185.1820  178.8570  141.7410 C   0  0  0  0  0  0  0  0  0  0  0  0
  185.6210  179.4960  140.7980 O   0  0  0  0  0  0  0  0  0  0  0  0
  183.7120  178.6270  141.8700 C   0  0  0  0  0  2  0  0  0  0  0  0
  183.0810  178.7130  140.5640 N   0  0  0  0  0  2  0  0  0  0  0  0
  183.0560  177.3670  140.0180 C   0  0  0  0  0  2  0  0  0  0  0  0
  183.2180  177.4160  138.5300 C   0  0  0  0  0  0  0  0  0  0  0  0
  182.5230  178.2530  137.8520 N   0  0  0  0  0  2  0  0  0  0  0  0
  183.5080  175.1890  137.7010 O   0  0  0  0  0  1  0  0  0  0  0  0
  184.1040  176.4490  137.8030 C   0  0  0  0  0  2  0  0  0  0  0  0
  1 15  1  6  0  0  0
  1  2  1  0  0  0  0
  2  3  2  0  0  0  0
  3  4  2  0  0  0  0
  5  4  1  0  0  0  0
  6  4  1  6  0  0  0
  6  9  1  0  0  0  0
  6 10  1  0  0  0  0
  8  9  2  0  0  0  0
  9  7  1  0  0  0  0
 10 11  1  0  0  0  0
 12 11  1  0  0  0  0
 13 14  1  0  0  0  0
 14 12  1  0  0  0  0
 16 19  1  6  0  0  0
 16 17  1  0  0  0  0
 16 15  1  0  0  0  0
 17 18  3  0  0  0  0
 20 21  1  0  0  0  0
 21 19  1  1  0  0  0
 22 33  1  1  0  0  0
 22 21  1  0  0  0  0
 23 24  1  0  0  0  0
 23 22  1  0  0  0  0
 24 20  1  0  0  0  0
 25 29  2  0  0  0  0
 26 28  1  0  0  0  0
 26 25  1  0  0  0  0
 27 25  1  0  0  0  0
 28 33  1  0  0  0  0
 29 31  1  0  0  0  0
 30 27  2  0  0  0  0
 32 30  1  0  0  0  0
 32 26  2  0  0  0  0
 33 31  2  0  0  0  0
 34  1  1  0  0  0  0
 34 35  1  0  0  0  0
 36 38  1  0  0  0  0
 36 35  1  0  0  0  0
 37 36  2  0  0  0  0
 39 38  1  0  0  0  0
 40 39  1  0  0  0  0
 41 40  1  0  0  0  0
 42 41  2  0  0  0  0
 43 44  1  0  0  0  0
 44 41  1  0  0  0  0
M  END
>  <MODEL>
4

>  <REMARK>
 VINA RESULT:      -6.5      2.477      8.249
  Name = 
  21 active torsions:
  status: ('A' for Active; 'I' for Inactive)
    1  A    between atoms: C_2  and  C_11
    2  A    between atoms: C_2  and  C_21
    3  A    between atoms: C_3  and  C_7
    4  A    between atoms: C_3  and  O_41
    5  A    between atoms: C_4  and  C_10
    6  A    between atoms: C_7  and  N_35
    7  A    between atoms: C_10  and  C_13
    8  A    between atoms: C_10  and  C_31
    9  A    between atoms: C_11  and  C_13
   10  A    between atoms: N_14  and  C_19
   11  A    between atoms: N_14  and  C_21
   12  A    between atoms: C_17  and  C_32
   13  A    between atoms: C_19  and  C_25
   14  A    between atoms: C_20  and  C_22
   15  A    between atoms: C_20  and  C_24
   16  A    between atoms: C_24  and  C_31
   17  A    between atoms: C_24  and  C_34
   18  A    between atoms: C_25  and  C_30
   19  A    between atoms: C_28  and  C_44
   20  A    between atoms: C_29  and  C_32
   21  A    between atoms: C_32  and  N_35
                            x       y       z     vdW  Elec       q    Type
                         _______ _______ _______ _____ _____    ______ ____

>  <TORSDO>
F 21

$$$$
=
 OpenBabel10222416143D

 44 46  0  0  1  0  0  0  0  0999 V2000
  188.4940  176.7100  142.2690 C   0  0  2  0  0  3  0  0  0  0  0  0
  188.5950  176.5770  143.7640 C   0  0  0  0  0  3  0  0  0  0  0  0
  189.6050  177.0150  144.4700 C   0  0  0  0  0  0  0  0  0  0  0  0
  190.6090  177.4560  145.1750 C   0  0  0  0  0  0  0  0  0  0  0  0
  191.7900  178.0490  144.4840 C   0  0  0  0  0  1  0  0  0  0  0  0
  190.5560  177.3620  146.6690 C   0  0  2  0  0  3  0  0  0  0  0  0
  192.2680  176.8830  148.2560 O   0  0  0  0  0  1  0  0  0  0  0  0
  192.1300  175.4140  146.5020 O   0  0  0  0  0  0  0  0  0  0  0  0
  191.6810  176.5310  147.2010 C   0  0  0  0  0  0  0  0  0  0  0  0
  189.2730  176.8270  147.0980 N   0  0  0  0  0  2  0  0  0  0  0  0
  188.7800  177.7000  148.1540 C   0  0  0  0  0  2  0  0  0  0  0  0
  187.3840  178.1930  147.8160 C   0  0  0  0  0  2  0  0  0  0  0  0
  186.0060  178.5130  146.1220 C   0  0  0  0  0  1  0  0  0  0  0  0
  186.9420  177.6100  146.6260 O   0  0  0  0  0  0  0  0  0  0  0  0
  189.7370  176.2260  141.5240 C   0  0  0  0  0  2  0  0  0  0  0  0
  190.0800  177.2030  140.4150 C   0  0  1  0  0  3  0  0  0  0  0  0
  191.5260  177.4620  140.4330 C   0  0  0  0  0  0  0  0  0  0  0  0
  192.7140  177.6690  140.4520 C   0  0  0  0  0  3  0  0  0  0  0  0
  189.6600  176.6180  139.0760 C   0  0  0  0  0  2  0  0  0  0  0  0
  189.1190  178.8340  138.0920 C   0  0  0  0  0  2  0  0  0  0  0  0
  188.5760  177.4710  138.4320 C   0  0  1  0  0  3  0  0  0  0  0  0
  188.2270  176.8910  137.0830 C   0  0  2  0  0  3  0  0  0  0  0  0
  188.4050  177.9500  136.0990 N   0  0  0  0  0  2  0  0  0  0  0  0
  189.3230  178.8610  136.6520 N   0  0  0  0  0  2  0  0  0  0  0  0
  184.2410  175.3590  136.9150 C   0  0  0  0  0  0  0  0  0  0  0  0
  184.4490  176.7020  136.7980 C   0  0  0  0  0  0  0  0  0  0  0  0
  182.8750  175.0220  136.8310 N   0  0  0  0  0  0  0  0  0  0  0  0
  185.7320  177.2470  136.8580 C   0  0  0  0  0  2  0  0  0  0  0  0
  185.2950  174.4660  137.1100 C   0  0  0  0  0  3  0  0  0  0  0  0
  182.1270  176.2650  136.6310 C   0  0  0  0  0  3  0  0  0  0  0  0
  186.5990  174.9870  137.1740 C   0  0  0  0  0  3  0  0  0  0  0  0
  183.1620  177.4120  136.6230 C   0  0  0  0  0  3  0  0  0  0  0  0
  186.8230  176.3740  137.0470 C   0  0  0  0  0  0  0  0  0  0  0  0
  188.1840  178.1530  141.9130 C   0  0  0  0  0  2  0  0  0  0  0  0
  186.8050  178.5380  142.4230 C   0  0  0  0  0  2  0  0  0  0  0  0
  185.8650  178.7320  141.2810 C   0  0  0  0  0  0  0  0  0  0  0  0
  186.2970  178.9150  140.1540 O   0  0  0  0  0  0  0  0  0  0  0  0
  184.3930  178.7460  141.5310 C   0  0  0  0  0  2  0  0  0  0  0  0
  183.6760  178.6350  140.2720 N   0  0  0  0  0  2  0  0  0  0  0  0
  182.9340  177.3860  140.3170 C   0  0  0  0  0  2  0  0  0  0  0  0
  181.4880  177.6400  140.0280 C   0  0  0  0  0  0  0  0  0  0  0  0
  181.1000  178.8360  139.7780 N   0  0  0  0  0  2  0  0  0  0  0  0
  181.0190  175.3040  139.7990 O   0  0  0  0  0  1  0  0  0  0  0  0
  180.4650  176.5470  140.1130 C   0  0  0  0  0  2  0  0  0  0  0  0
  1 15  1  6  0  0  0
  1  2  1  0  0  0  0
  2  3  2  0  0  0  0
  3  4  2  0  0  0  0
  5  4  1  0  0  0  0
  6  4  1  6  0  0  0
  6 10  1  0  0  0  0
  6  9  1  0  0  0  0
  8  9  2  0  0  0  0
  9  7  1  0  0  0  0
 10 11  1  0  0  0  0
 12 11  1  0  0  0  0
 13 14  1  0  0  0  0
 14 12  1  0  0  0  0
 16 19  1  6  0  0  0
 16 17  1  0  0  0  0
 16 15  1  0  0  0  0
 17 18  3  0  0  0  0
 20 21  1  0  0  0  0
 21 19  1  6  0  0  0
 22 33  1  1  0  0  0
 22 21  1  0  0  0  0
 23 24  1  0  0  0  0
 23 22  1  0  0  0  0
 24 20  1  0  0  0  0
 25 29  2  0  0  0  0
 26 28  1  0  0  0  0
 26 25  1  0  0  0  0
 27 25  1  0  0  0  0
 28 33  1  0  0  0  0
 29 31  1  0  0  0  0
 30 27  2  0  0  0  0
 32 30  1  0  0  0  0
 32 26  2  0  0  0  0
 33 31  2  0  0  0  0
 34  1  1  0  0  0  0
 34 35  1  0  0  0  0
 36 38  1  0  0  0  0
 36 35  1  0  0  0  0
 37 36  2  0  0  0  0
 39 40  1  0  0  0  0
 39 38  1  0  0  0  0
 41 44  1  0  0  0  0
 41 40  1  0  0  0  0
 42 41  2  0  0  0  0
 43 44  1  0  0  0  0
M  END
>  <MODEL>
5

>  <REMARK>
 VINA RESULT:      -6.4      3.168      7.478
  Name = 
  21 active torsions:
  status: ('A' for Active; 'I' for Inactive)
    1  A    between atoms: C_2  and  C_11
    2  A    between atoms: C_2  and  C_21
    3  A    between atoms: C_3  and  C_7
    4  A    between atoms: C_3  and  O_41
    5  A    between atoms: C_4  and  C_10
    6  A    between atoms: C_7  and  N_35
    7  A    between atoms: C_10  and  C_13
    8  A    between atoms: C_10  and  C_31
    9  A    between atoms: C_11  and  C_13
   10  A    between atoms: N_14  and  C_19
   11  A    between atoms: N_14  and  C_21
   12  A    between atoms: C_17  and  C_32
   13  A    between atoms: C_19  and  C_25
   14  A    between atoms: C_20  and  C_22
   15  A    between atoms: C_20  and  C_24
   16  A    between atoms: C_24  and  C_31
   17  A    between atoms: C_24  and  C_34
   18  A    between atoms: C_25  and  C_30
   19  A    between atoms: C_28  and  C_44
   20  A    between atoms: C_29  and  C_32
   21  A    between atoms: C_32  and  N_35
                            x       y       z     vdW  Elec       q    Type
                         _______ _______ _______ _____ _____    ______ ____

>  <TORSDO>
F 21

$$$$
=
 OpenBabel10222416143D

 44 46  0  0  1  0  0  0  0  0999 V2000
  188.2910  178.1270  139.0240 C   0  0  2  0  0  3  0  0  0  0  0  0
  188.1210  178.4910  140.4740 C   0  0  0  0  0  3  0  0  0  0  0  0
  188.7810  177.9250  141.4520 C   0  0  0  0  0  0  0  0  0  0  0  0
  189.4400  177.3660  142.4260 C   0  0  0  0  0  0  0  0  0  0  0  0
  190.3590  176.2270  142.1350 C   0  0  0  0  0  1  0  0  0  0  0  0
  189.2670  177.8800  143.8220 C   0  0  2  0  0  3  0  0  0  0  0  0
  190.9350  179.5800  143.9430 O   0  0  0  0  0  0  0  0  0  0  0  0
  191.3380  177.7290  145.2320 O   0  0  0  0  0  1  0  0  0  0  0  0
  190.5440  178.4560  144.3510 C   0  0  0  0  0  0  0  0  0  0  0  0
  188.7800  176.8230  144.6960 N   0  0  0  0  0  2  0  0  0  0  0  0
  187.4750  177.2450  145.1840 C   0  0  0  0  0  2  0  0  0  0  0  0
  187.6050  177.8460  146.5730 C   0  0  0  0  0  2  0  0  0  0  0  0
  189.0990  177.9340  148.1950 C   0  0  0  0  0  1  0  0  0  0  0  0
  188.4160  177.0370  147.3730 O   0  0  0  0  0  0  0  0  0  0  0  0
  187.2640  177.1140  138.5200 C   0  0  0  0  0  2  0  0  0  0  0  0
  186.2540  177.8120  137.6290 C   0  0  1  0  0  3  0  0  0  0  0  0
  186.8450  178.0110  136.2980 C   0  0  0  0  0  0  0  0  0  0  0  0
  187.3350  178.1710  135.2080 C   0  0  0  0  0  3  0  0  0  0  0  0
  184.9940  176.9670  137.5320 C   0  0  0  0  0  2  0  0  0  0  0  0
  182.7980  177.8960  136.8320 C   0  0  0  0  0  2  0  0  0  0  0  0
  183.7740  177.7660  137.9730 C   0  0  1  0  0  3  0  0  0  0  0  0
  183.0050  176.9690  138.9970 C   0  0  2  0  0  3  0  0  0  0  0  0
  181.6410  176.8380  138.5070 N   0  0  0  0  0  2  0  0  0  0  0  0
  181.7010  176.9820  137.1090 N   0  0  0  0  0  2  0  0  0  0  0  0
  182.9980  178.9300  142.7950 C   0  0  0  0  0  0  0  0  0  0  0  0
  184.1790  178.5030  142.2620 C   0  0  0  0  0  0  0  0  0  0  0  0
  183.1720  179.5610  144.0430 N   0  0  0  0  0  0  0  0  0  0  0  0
  184.2270  177.8490  141.0310 C   0  0  0  0  0  3  0  0  0  0  0  0
  181.7820  178.7260  142.1420 C   0  0  0  0  0  3  0  0  0  0  0  0
  184.6050  179.5500  144.3440 C   0  0  0  0  0  2  0  0  0  0  0  0
  181.8000  178.0700  140.9000 C   0  0  0  0  0  3  0  0  0  0  0  0
  185.3020  178.8270  143.1700 C   0  0  0  0  0  3  0  0  0  0  0  0
  183.0180  177.6310  140.3390 C   0  0  0  0  0  0  0  0  0  0  0  0
  189.7030  177.6150  138.7970 C   0  0  0  0  0  2  0  0  0  0  0  0
  189.6690  176.1840  138.2870 C   0  0  0  0  0  2  0  0  0  0  0  0
  190.5370  176.0430  137.0810 C   0  0  0  0  0  0  0  0  0  0  0  0
  190.3780  176.7780  136.1200 O   0  0  0  0  0  0  0  0  0  0  0  0
  191.5740  174.9680  137.0390 C   0  0  0  0  0  2  0  0  0  0  0  0
  192.8240  175.5060  136.5310 N   0  0  0  0  0  2  0  0  0  0  0  0
  193.7400  175.5790  137.6560 C   0  0  0  0  0  2  0  0  0  0  0  0
  194.7320  174.4600  137.5810 C   0  0  0  0  0  0  0  0  0  0  0  0
  194.9630  173.9030  136.4500 N   0  0  0  0  0  2  0  0  0  0  0  0
  195.3780  172.5150  138.8180 O   0  0  0  0  0  1  0  0  0  0  0  0
  195.3940  173.9120  138.8100 C   0  0  0  0  0  2  0  0  0  0  0  0
  1 15  1  1  0  0  0
  1  2  1  0  0  0  0
  2  3  2  0  0  0  0
  3  4  2  0  0  0  0
  5  4  1  0  0  0  0
  6  4  1  6  0  0  0
  6  9  1  0  0  0  0
  6 10  1  0  0  0  0
  7  9  2  0  0  0  0
  9  8  1  0  0  0  0
 10 11  1  0  0  0  0
 11 12  1  0  0  0  0
 12 14  1  0  0  0  0
 14 13  1  0  0  0  0
 16 17  1  6  0  0  0
 16 15  1  0  0  0  0
 18 17  3  0  0  0  0
 19 16  1  0  0  0  0
 20 24  1  0  0  0  0
 20 21  1  0  0  0  0
 21 19  1  6  0  0  0
 21 22  1  0  0  0  0
 22 33  1  1  0  0  0
 23 22  1  0  0  0  0
 24 23  1  0  0  0  0
 25 27  2  0  0  0  0
 26 25  1  0  0  0  0
 26 32  2  0  0  0  0
 27 30  1  0  0  0  0
 28 26  1  0  0  0  0
 29 25  1  0  0  0  0
 31 29  2  0  0  0  0
 32 30  1  0  0  0  0
 33 31  1  0  0  0  0
 33 28  2  0  0  0  0
 34  1  1  0  0  0  0
 35 34  1  0  0  0  0
 36 35  1  0  0  0  0
 37 36  2  0  0  0  0
 38 36  1  0  0  0  0
 39 38  1  0  0  0  0
 39 40  1  0  0  0  0
 41 40  1  0  0  0  0
 41 44  1  0  0  0  0
 42 41  2  0  0  0  0
 44 43  1  0  0  0  0
M  END
>  <MODEL>
6

>  <REMARK>
 VINA RESULT:      -6.3      1.482      1.705
  Name = 
  21 active torsions:
  status: ('A' for Active; 'I' for Inactive)
    1  A    between atoms: C_2  and  C_11
    2  A    between atoms: C_2  and  C_21
    3  A    between atoms: C_3  and  C_7
    4  A    between atoms: C_3  and  O_41
    5  A    between atoms: C_4  and  C_10
    6  A    between atoms: C_7  and  N_35
    7  A    between atoms: C_10  and  C_13
    8  A    between atoms: C_10  and  C_31
    9  A    between atoms: C_11  and  C_13
   10  A    between atoms: N_14  and  C_19
   11  A    between atoms: N_14  and  C_21
   12  A    between atoms: C_17  and  C_32
   13  A    between atoms: C_19  and  C_25
   14  A    between atoms: C_20  and  C_22
   15  A    between atoms: C_20  and  C_24
   16  A    between atoms: C_24  and  C_31
   17  A    between atoms: C_24  and  C_34
   18  A    between atoms: C_25  and  C_30
   19  A    between atoms: C_28  and  C_44
   20  A    between atoms: C_29  and  C_32
   21  A    between atoms: C_32  and  N_35
                            x       y       z     vdW  Elec       q    Type
                         _______ _______ _______ _____ _____    ______ ____

>  <TORSDO>
F 21

$$$$
=
 OpenBabel10222416143D

 44 46  0  0  1  0  0  0  0  0999 V2000
  184.6950  178.8530  142.1060 C   0  0  2  0  0  3  0  0  0  0  0  0
  185.8400  178.9870  141.1400 C   0  0  0  0  0  3  0  0  0  0  0  0
  186.9860  178.3690  141.2740 C   0  0  0  0  0  0  0  0  0  0  0  0
  188.1250  177.7500  141.4040 C   0  0  0  0  0  0  0  0  0  0  0  0
  188.3800  176.9250  142.6200 C   0  0  0  0  0  1  0  0  0  0  0  0
  189.1570  177.8750  140.3260 C   0  0  2  0  0  3  0  0  0  0  0  0
  187.8820  177.1310  138.4550 O   0  0  0  0  0  1  0  0  0  0  0  0
  188.6920  179.2680  138.2910 O   0  0  0  0  0  0  0  0  0  0  0  0
  188.5210  178.0750  138.9860 C   0  0  0  0  0  0  0  0  0  0  0  0
  190.0240  176.7060  140.3150 N   0  0  0  0  0  2  0  0  0  0  0  0
  191.3320  177.1520  139.8590 C   0  0  0  0  0  2  0  0  0  0  0  0
  191.6680  176.5100  138.5250 C   0  0  0  0  0  2  0  0  0  0  0  0
  191.7550  174.5100  137.5950 C   0  0  0  0  0  1  0  0  0  0  0  0
  190.9280  175.3370  138.3550 O   0  0  0  0  0  0  0  0  0  0  0  0
  183.3870  179.4590  141.5970 C   0  0  0  0  0  2  0  0  0  0  0  0
  182.2890  178.4130  141.6420 C   0  0  1  0  0  3  0  0  0  0  0  0
  181.5650  178.5310  142.9150 C   0  0  0  0  0  0  0  0  0  0  0  0
  180.9660  178.6290  143.9560 C   0  0  0  0  0  3  0  0  0  0  0  0
  181.3440  178.6210  140.4690 C   0  0  0  0  0  2  0  0  0  0  0  0
  183.0990  177.6850  138.9790 C   0  0  0  0  0  2  0  0  0  0  0  0
  182.1240  178.8170  139.1760 C   0  0  1  0  0  3  0  0  0  0  0  0
  181.1840  178.6710  138.0050 C   0  0  2  0  0  3  0  0  0  0  0  0
  181.7310  177.6360  137.1390 N   0  0  0  0  0  2  0  0  0  0  0  0
  182.5430  176.8220  137.9490 N   0  0  0  0  0  2  0  0  0  0  0  0
  180.8090  182.3120  135.7990 C   0  0  0  0  0  0  0  0  0  0  0  0
  181.0700  182.3620  137.1370 C   0  0  0  0  0  0  0  0  0  0  0  0
  180.7240  183.5970  135.2240 N   0  0  0  0  0  0  0  0  0  0  0  0
  181.1900  181.1990  137.8990 C   0  0  0  0  0  3  0  0  0  0  0  0
  180.6390  181.1010  135.1290 C   0  0  0  0  0  3  0  0  0  0  0  0
  180.9630  184.5710  136.2900 C   0  0  0  0  0  2  0  0  0  0  0  0
  180.7540  179.9130  135.8700 C   0  0  0  0  0  3  0  0  0  0  0  0
  181.1800  183.7670  137.5910 C   0  0  0  0  0  3  0  0  0  0  0  0
  181.0310  179.9560  137.2520 C   0  0  0  0  0  0  0  0  0  0  0  0
  185.0870  179.4690  143.4380 C   0  0  0  0  0  2  0  0  0  0  0  0
  184.5700  178.6180  144.5850 C   0  0  0  0  0  2  0  0  0  0  0  0
  185.5760  178.5620  145.6850 C   0  0  0  0  0  0  0  0  0  0  0  0
  185.5350  179.3720  146.5980 O   0  0  0  0  0  0  0  0  0  0  0  0
  186.6610  177.5360  145.6420 C   0  0  0  0  0  2  0  0  0  0  0  0
  187.6890  177.8620  146.6150 N   0  0  0  0  0  2  0  0  0  0  0  0
  188.8760  178.2380  145.8650 C   0  0  0  0  0  2  0  0  0  0  0  0
  190.0240  177.3590  146.2530 C   0  0  0  0  0  0  0  0  0  0  0  0
  189.9580  176.6860  147.3430 N   0  0  0  0  0  2  0  0  0  0  0  0
  191.2850  176.2440  144.5510 O   0  0  0  0  0  1  0  0  0  0  0  0
  191.2880  177.3150  145.4480 C   0  0  0  0  0  2  0  0  0  0  0  0
  1  2  1  6  0  0  0
  1 34  1  0  0  0  0
  2  3  2  0  0  0  0
  3  4  2  0  0  0  0
  4  5  1  0  0  0  0
  6  9  1  6  0  0  0
  6  4  1  0  0  0  0
  7  9  1  0  0  0  0
  8  9  2  0  0  0  0
 10  6  1  0  0  0  0
 11 10  1  0  0  0  0
 12 11  1  0  0  0  0
 13 14  1  0  0  0  0
 14 12  1  0  0  0  0
 15 16  1  0  0  0  0
 15  1  1  0  0  0  0
 16 19  1  6  0  0  0
 16 17  1  0  0  0  0
 17 18  3  0  0  0  0
 20 21  1  0  0  0  0
 21 19  1  1  0  0  0
 22 33  1  6  0  0  0
 22 21  1  0  0  0  0
 23 24  1  0  0  0  0
 23 22  1  0  0  0  0
 24 20  1  0  0  0  0
 25 26  1  0  0  0  0
 26 32  2  0  0  0  0
 26 28  1  0  0  0  0
 27 25  2  0  0  0  0
 27 30  1  0  0  0  0
 29 25  1  0  0  0  0
 29 31  2  0  0  0  0
 30 32  1  0  0  0  0
 31 33  1  0  0  0  0
 33 28  2  0  0  0  0
 34 35  1  0  0  0  0
 35 36  1  0  0  0  0
 36 37  2  0  0  0  0
 38 36  1  0  0  0  0
 38 39  1  0  0  0  0
 40 41  1  0  0  0  0
 40 39  1  0  0  0  0
 41 42  2  0  0  0  0
 43 44  1  0  0  0  0
 44 41  1  0  0  0  0
M  END
>  <MODEL>
7

>  <REMARK>
 VINA RESULT:      -6.1      2.605      7.759
  Name = 
  21 active torsions:
  status: ('A' for Active; 'I' for Inactive)
    1  A    between atoms: C_2  and  C_11
    2  A    between atoms: C_2  and  C_21
    3  A    between atoms: C_3  and  C_7
    4  A    between atoms: C_3  and  O_41
    5  A    between atoms: C_4  and  C_10
    6  A    between atoms: C_7  and  N_35
    7  A    between atoms: C_10  and  C_13
    8  A    between atoms: C_10  and  C_31
    9  A    between atoms: C_11  and  C_13
   10  A    between atoms: N_14  and  C_19
   11  A    between atoms: N_14  and  C_21
   12  A    between atoms: C_17  and  C_32
   13  A    between atoms: C_19  and  C_25
   14  A    between atoms: C_20  and  C_22
   15  A    between atoms: C_20  and  C_24
   16  A    between atoms: C_24  and  C_31
   17  A    between atoms: C_24  and  C_34
   18  A    between atoms: C_25  and  C_30
   19  A    between atoms: C_28  and  C_44
   20  A    between atoms: C_29  and  C_32
   21  A    between atoms: C_32  and  N_35
                            x       y       z     vdW  Elec       q    Type
                         _______ _______ _______ _____ _____    ______ ____

>  <TORSDO>
F 21

$$$$
=
 OpenBabel10222416143D

 44 46  0  0  1  0  0  0  0  0999 V2000
  184.4040  179.2750  139.2660 C   0  0  2  0  0  3  0  0  0  0  0  0
  184.8980  177.9710  138.7020 C   0  0  0  0  0  3  0  0  0  0  0  0
  185.8930  177.8700  137.8580 C   0  0  0  0  0  0  0  0  0  0  0  0
  186.8860  177.7680  137.0200 C   0  0  0  0  0  0  0  0  0  0  0  0
  187.5350  179.0040  136.4940 C   0  0  0  0  0  1  0  0  0  0  0  0
  187.3610  176.4100  136.6050 C   0  0  2  0  0  3  0  0  0  0  0  0
  186.0630  174.5240  137.2700 O   0  0  0  0  0  1  0  0  0  0  0  0
  185.3620  175.5580  135.3480 O   0  0  0  0  0  0  0  0  0  0  0  0
  186.2160  175.4600  136.4430 C   0  0  0  0  0  0  0  0  0  0  0  0
  188.3260  175.8940  137.5650 N   0  0  0  0  0  2  0  0  0  0  0  0
  189.6000  175.7890  136.8700 C   0  0  0  0  0  2  0  0  0  0  0  0
  190.0570  174.3410  136.8310 C   0  0  0  0  0  2  0  0  0  0  0  0
  191.7320  175.3710  137.8330 C   0  0  0  0  0  1  0  0  0  0  0  0
  191.0880  174.1360  137.7510 O   0  0  0  0  0  0  0  0  0  0  0  0
  184.5360  179.3780  140.7850 C   0  0  0  0  0  2  0  0  0  0  0  0
  185.3600  178.2150  141.3050 C   0  0  1  0  0  3  0  0  0  0  0  0
  186.7650  178.6310  141.4100 C   0  0  0  0  0  0  0  0  0  0  0  0
  187.9170  178.9790  141.4950 C   0  0  0  0  0  3  0  0  0  0  0  0
  184.8290  177.7850  142.6630 C   0  0  0  0  0  2  0  0  0  0  0  0
  184.4350  179.7540  144.1270 C   0  0  0  0  0  2  0  0  0  0  0  0
  185.4060  178.6590  143.7690 C   0  0  1  0  0  3  0  0  0  0  0  0
  185.4990  177.8500  145.0390 C   0  0  2  0  0  3  0  0  0  0  0  0
  184.7640  178.5740  146.0670 N   0  0  0  0  0  2  0  0  0  0  0  0
  183.8290  179.3830  145.3960 N   0  0  0  0  0  2  0  0  0  0  0  0
  189.5570  177.3380  146.2790 C   0  0  0  0  0  0  0  0  0  0  0  0
  189.2230  177.1300  144.9730 C   0  0  0  0  0  0  0  0  0  0  0  0
  190.9320  177.1360  146.5170 N   0  0  0  0  0  0  0  0  0  0  0  0
  187.9100  177.2760  144.5260 C   0  0  0  0  0  2  0  0  0  0  0  0
  188.6040  177.6960  147.2330 C   0  0  0  0  0  3  0  0  0  0  0  0
  191.5490  176.7710  145.2410 C   0  0  0  0  0  3  0  0  0  0  0  0
  187.2730  177.8490  146.8120 C   0  0  0  0  0  3  0  0  0  0  0  0
  190.4180  176.7420  144.1890 C   0  0  0  0  0  3  0  0  0  0  0  0
  186.9200  177.6420  145.4620 C   0  0  0  0  0  0  0  0  0  0  0  0
  182.9630  179.4930  138.8380 C   0  0  0  0  0  2  0  0  0  0  0  0
  182.0280  179.3160  140.0230 C   0  0  0  0  0  2  0  0  0  0  0  0
  180.8460  178.4940  139.6330 C   0  0  0  0  0  0  0  0  0  0  0  0
  180.0660  178.9020  138.7870 O   0  0  0  0  0  0  0  0  0  0  0  0
  180.5960  177.1890  140.3140 C   0  0  0  0  0  2  0  0  0  0  0  0
  181.3610  176.1380  139.6650 N   0  0  0  0  0  2  0  0  0  0  0  0
  180.4080  175.1340  139.2220 C   0  0  0  0  0  2  0  0  0  0  0  0
  180.3820  175.0790  137.7260 C   0  0  0  0  0  0  0  0  0  0  0  0
  179.5820  175.8490  137.0850 N   0  0  0  0  0  2  0  0  0  0  0  0
  182.5310  174.0830  137.3830 O   0  0  0  0  0  1  0  0  0  0  0  0
  181.1990  174.0810  136.9620 C   0  0  0  0  0  2  0  0  0  0  0  0
  1  2  1  1  0  0  0
  1 15  1  0  0  0  0
  3  2  2  0  0  0  0
  4  3  2  0  0  0  0
  5  4  1  0  0  0  0
  6  9  1  1  0  0  0
  6  4  1  0  0  0  0
  6 10  1  0  0  0  0
  8  9  2  0  0  0  0
  9  7  1  0  0  0  0
 11 10  1  0  0  0  0
 12 11  1  0  0  0  0
 12 14  1  0  0  0  0
 14 13  1  0  0  0  0
 16 15  1  1  0  0  0
 16 17  1  0  0  0  0
 16 19  1  0  0  0  0
 17 18  3  0  0  0  0
 20 24  1  0  0  0  0
 21 19  1  6  0  0  0
 21 20  1  0  0  0  0
 21 22  1  0  0  0  0
 22 33  1  1  0  0  0
 22 23  1  0  0  0  0
 24 23  1  0  0  0  0
 25 27  1  0  0  0  0
 25 29  2  0  0  0  0
 26 25  1  0  0  0  0
 28 26  1  0  0  0  0
 28 33  1  0  0  0  0
 30 27  2  0  0  0  0
 31 29  1  0  0  0  0
 32 26  2  0  0  0  0
 32 30  1  0  0  0  0
 33 31  2  0  0  0  0
 34  1  1  0  0  0  0
 34 35  1  0  0  0  0
 36 35  1  0  0  0  0
 36 38  1  0  0  0  0
 37 36  2  0  0  0  0
 39 38  1  0  0  0  0
 40 39  1  0  0  0  0
 41 40  1  0  0  0  0
 42 41  2  0  0  0  0
 44 43  1  0  0  0  0
 44 41  1  0  0  0  0
M  END
>  <MODEL>
8

>  <REMARK>
 VINA RESULT:      -6.0      3.239      8.601
  Name = 
  21 active torsions:
  status: ('A' for Active; 'I' for Inactive)
    1  A    between atoms: C_2  and  C_11
    2  A    between atoms: C_2  and  C_21
    3  A    between atoms: C_3  and  C_7
    4  A    between atoms: C_3  and  O_41
    5  A    between atoms: C_4  and  C_10
    6  A    between atoms: C_7  and  N_35
    7  A    between atoms: C_10  and  C_13
    8  A    between atoms: C_10  and  C_31
    9  A    between atoms: C_11  and  C_13
   10  A    between atoms: N_14  and  C_19
   11  A    between atoms: N_14  and  C_21
   12  A    between atoms: C_17  and  C_32
   13  A    between atoms: C_19  and  C_25
   14  A    between atoms: C_20  and  C_22
   15  A    between atoms: C_20  and  C_24
   16  A    between atoms: C_24  and  C_31
   17  A    between atoms: C_24  and  C_34
   18  A    between atoms: C_25  and  C_30
   19  A    between atoms: C_28  and  C_44
   20  A    between atoms: C_29  and  C_32
   21  A    between atoms: C_32  and  N_35
                            x       y       z     vdW  Elec       q    Type
                         _______ _______ _______ _____ _____    ______ ____

>  <TORSDO>
F 21

$$$$
=
 OpenBabel10222416143D

 44 46  0  0  1  0  0  0  0  0999 V2000
  183.2860  177.8050  139.0100 C   0  0  2  0  0  3  0  0  0  0  0  0
  183.0930  177.6350  140.4920 C   0  0  0  0  0  3  0  0  0  0  0  0
  183.8970  178.1340  141.3960 C   0  0  0  0  0  0  0  0  0  0  0  0
  184.6950  178.6340  142.2970 C   0  0  0  0  0  0  0  0  0  0  0  0
  185.9350  179.3450  141.8700 C   0  0  0  0  0  1  0  0  0  0  0  0
  184.3480  178.4900  143.7470 C   0  0  2  0  0  3  0  0  0  0  0  0
  182.0490  178.2510  144.3300 O   0  0  0  0  0  1  0  0  0  0  0  0
  182.7270  180.3990  143.9120 O   0  0  0  0  0  0  0  0  0  0  0  0
  182.9850  179.0370  144.0360 C   0  0  0  0  0  0  0  0  0  0  0  0
  185.3510  179.1420  144.5750 N   0  0  0  0  0  2  0  0  0  0  0  0
  185.6190  178.2540  145.6960 C   0  0  0  0  0  2  0  0  0  0  0  0
  186.0010  179.0610  146.9250 C   0  0  0  0  0  2  0  0  0  0  0  0
  187.5500  177.4920  146.8260 C   0  0  0  0  0  1  0  0  0  0  0  0
  186.8900  178.3350  147.7210 O   0  0  0  0  0  0  0  0  0  0  0  0
  184.5920  178.5060  138.6360 C   0  0  0  0  0  2  0  0  0  0  0  0
  185.4870  177.5450  137.8750 C   0  0  1  0  0  3  0  0  0  0  0  0
  184.8750  177.2480  136.5730 C   0  0  0  0  0  0  0  0  0  0  0  0
  184.3780  177.0060  135.5010 C   0  0  0  0  0  3  0  0  0  0  0  0
  186.8590  178.1720  137.6890 C   0  0  0  0  0  2  0  0  0  0  0  0
  188.2060  176.3520  136.6650 C   0  0  0  0  0  2  0  0  0  0  0  0
  187.9580  177.1430  137.9230 C   0  0  1  0  0  3  0  0  0  0  0  0
  189.2670  177.8600  138.1450 C   0  0  2  0  0  3  0  0  0  0  0  0
  190.2140  177.3410  137.1680 N   0  0  0  0  0  2  0  0  0  0  0  0
  189.4520  176.8420  136.0970 N   0  0  0  0  0  2  0  0  0  0  0  0
  190.7840  177.1970  142.0860 C   0  0  0  0  0  0  0  0  0  0  0  0
  189.4410  177.3570  141.9010 C   0  0  0  0  0  0  0  0  0  0  0  0
  191.1140  176.9800  143.4390 N   0  0  0  0  0  0  0  0  0  0  0  0
  188.9030  177.5860  140.6350 C   0  0  0  0  0  3  0  0  0  0  0  0
  191.6840  177.2630  141.0220 C   0  0  0  0  0  3  0  0  0  0  0  0
  189.8650  176.9920  144.2030 C   0  0  0  0  0  2  0  0  0  0  0  0
  191.1710  177.4930  139.7350 C   0  0  0  0  0  3  0  0  0  0  0  0
  188.7270  177.2620  143.1940 C   0  0  0  0  0  3  0  0  0  0  0  0
  189.7840  177.6530  139.5350 C   0  0  0  0  0  0  0  0  0  0  0  0
  182.0950  178.5490  138.4310 C   0  0  0  0  0  2  0  0  0  0  0  0
  182.2860  180.0490  138.5820 C   0  0  0  0  0  2  0  0  0  0  0  0
  181.0900  180.6610  139.2300 C   0  0  0  0  0  0  0  0  0  0  0  0
  180.6620  180.2110  140.2810 O   0  0  0  0  0  0  0  0  0  0  0  0
  180.3930  181.8020  138.5640 C   0  0  0  0  0  2  0  0  0  0  0  0
  181.1610  182.2500  137.4150 N   0  0  0  0  0  2  0  0  0  0  0  0
  181.3930  183.6730  137.5920 C   0  0  0  0  0  2  0  0  0  0  0  0
  180.6280  184.4470  136.5630 C   0  0  0  0  0  0  0  0  0  0  0  0
  180.7950  184.1740  135.3220 N   0  0  0  0  0  2  0  0  0  0  0  0
  179.5070  185.6260  138.3190 O   0  0  0  0  0  1  0  0  0  0  0  0
  179.7410  185.5950  136.9420 C   0  0  0  0  0  2  0  0  0  0  0  0
  1 34  1  1  0  0  0
  1  2  1  0  0  0  0
  2  3  2  0  0  0  0
  3  4  2  0  0  0  0
  5  4  1  0  0  0  0
  6  4  1  6  0  0  0
  6  9  1  0  0  0  0
  6 10  1  0  0  0  0
  8  9  2  0  0  0  0
  9  7  1  0  0  0  0
 10 11  1  0  0  0  0
 11 12  1  0  0  0  0
 12 14  1  0  0  0  0
 13 14  1  0  0  0  0
 15  1  1  0  0  0  0
 16 17  1  6  0  0  0
 16 15  1  0  0  0  0
 18 17  3  0  0  0  0
 19 16  1  0  0  0  0
 20 21  1  0  0  0  0
 21 19  1  6  0  0  0
 21 22  1  0  0  0  0
 22 33  1  1  0  0  0
 23 22  1  0  0  0  0
 24 20  1  0  0  0  0
 24 23  1  0  0  0  0
 25 27  2  0  0  0  0
 26 25  1  0  0  0  0
 26 32  2  0  0  0  0
 27 30  1  0  0  0  0
 28 26  1  0  0  0  0
 29 25  1  0  0  0  0
 31 29  2  0  0  0  0
 32 30  1  0  0  0  0
 33 31  1  0  0  0  0
 33 28  2  0  0  0  0
 34 35  1  0  0  0  0
 35 36  1  0  0  0  0
 36 37  2  0  0  0  0
 38 36  1  0  0  0  0
 39 40  1  0  0  0  0
 39 38  1  0  0  0  0
 41 44  1  0  0  0  0
 41 40  1  0  0  0  0
 42 41  2  0  0  0  0
 44 43  1  0  0  0  0
M  END
>  <MODEL>
9

>  <REMARK>
 VINA RESULT:      -6.0      4.017      8.910
  Name = 
  21 active torsions:
  status: ('A' for Active; 'I' for Inactive)
    1  A    between atoms: C_2  and  C_11
    2  A    between atoms: C_2  and  C_21
    3  A    between atoms: C_3  and  C_7
    4  A    between atoms: C_3  and  O_41
    5  A    between atoms: C_4  and  C_10
    6  A    between atoms: C_7  and  N_35
    7  A    between atoms: C_10  and  C_13
    8  A    between atoms: C_10  and  C_31
    9  A    between atoms: C_11  and  C_13
   10  A    between atoms: N_14  and  C_19
   11  A    between atoms: N_14  and  C_21
   12  A    between atoms: C_17  and  C_32
   13  A    between atoms: C_19  and  C_25
   14  A    between atoms: C_20  and  C_22
   15  A    between atoms: C_20  and  C_24
   16  A    between atoms: C_24  and  C_31
   17  A    between atoms: C_24  and  C_34
   18  A    between atoms: C_25  and  C_30
   19  A    between atoms: C_28  and  C_44
   20  A    between atoms: C_29  and  C_32
   21  A    between atoms: C_32  and  N_35
                            x       y       z     vdW  Elec       q    Type
                         _______ _______ _______ _____ _____    ______ ____

>  <TORSDO>
F 21

$$$$
