=
 OpenBabel10222415183D

 43 47  0  0  1  0  0  0  0  0999 V2000
  188.4140  177.4080  141.9940 N   0  0  0  0  0  0  0  0  0  0  0  0
  189.8980  175.6580  142.8520 C   0  0  0  0  0  1  0  0  0  0  0  0
  189.5080  177.1240  142.9380 C   0  0  2  0  0  3  0  0  0  0  0  0
  187.2120  177.7770  142.7050 C   0  0  1  0  0  3  0  0  0  0  0  0
  186.8420  178.0640  145.2700 C   0  0  0  0  0  3  0  0  0  0  0  0
  190.6780  177.1210  146.2500 S   0  0  0  0  0  1  0  0  0  0  0  0
  187.4810  177.7600  143.9980 C   0  0  0  0  0  0  0  0  0  0  0  0
  187.8120  177.8700  146.1860 C   0  0  1  0  0  3  0  0  0  0  0  0
  188.8120  177.3870  144.2230 C   0  0  0  0  0  0  0  0  0  0  0  0
  189.0760  177.4440  145.5110 C   0  0  0  0  0  0  0  0  0  0  0  0
  182.3420  179.2130  140.2640 N   0  0  0  0  0  0  0  0  0  0  0  0
  185.8720  178.5820  140.7490 C   0  0  0  0  0  3  0  0  0  0  0  0
  183.4810  178.4000  142.2530 C   0  0  0  0  0  3  0  0  0  0  0  0
  184.7150  178.0500  142.8260 C   0  0  0  0  0  3  0  0  0  0  0  0
  182.6490  179.5930  138.9980 C   0  0  0  0  0  0  0  0  0  0  0  0
  185.9170  178.1400  142.0850 C   0  0  0  0  0  0  0  0  0  0  0  0
  184.3030  179.4810  138.6580 S   0  0  0  0  0  0  0  0  0  0  0  0
  184.6390  178.9240  140.2040 C   0  0  0  0  0  0  0  0  0  0  0  0
  183.4630  178.8410  140.9310 C   0  0  0  0  0  0  0  0  0  0  0  0
  181.0580  181.1650  138.1800 C   0  0  0  0  0  3  0  0  0  0  0  0
  181.6790  180.0380  138.0480 N   0  0  0  0  0  0  0  0  0  0  0  0
  180.2610  182.4140  134.8900 C   0  0  0  0  0  2  0  0  0  0  0  0
  179.7630  180.4490  136.2100 C   0  0  0  0  0  2  0  0  0  0  0  0
  180.0450  181.5900  137.1720 C   0  0  2  0  0  3  0  0  0  0  0  0
  180.2080  180.9050  134.8330 C   0  0  0  0  0  2  0  0  0  0  0  0
  180.5870  182.7390  136.3360 C   0  0  2  0  0  3  0  0  0  0  0  0
  178.9320  184.6150  135.8880 C   0  0  0  0  0  1  0  0  0  0  0  0
  180.0370  184.0970  136.7970 C   0  0  2  0  0  3  0  0  0  0  0  0
  181.1430  185.1320  136.9030 C   0  0  0  0  0  2  0  0  0  0  0  0
  182.2490  184.6320  137.8150 C   0  0  0  0  0  1  0  0  0  0  0  0
  187.6330  178.0690  147.6460 C   0  0  0  0  0  0  0  0  0  0  0  0
  185.6770  179.5250  147.4080 O   0  0  0  0  0  1  0  0  0  0  0  0
  188.4360  177.4860  148.4730 N   0  0  0  0  0  2  0  0  0  0  0  0
  186.5850  178.8850  148.1830 N   0  0  0  0  0  2  0  0  0  0  0  0
  188.5150  177.2550  140.6500 O   0  0  0  0  0  0  0  0  0  0  0  0
  189.5900  178.0660  140.2650 C   0  0  0  0  0  2  0  0  0  0  0  0
  190.3980  177.3760  139.1820 C   0  0  0  0  0  2  0  0  0  0  0  0
  189.8790  177.7640  137.8110 C   0  0  0  0  0  2  0  0  0  0  0  0
  187.2010  178.4690  137.1950 O   0  0  0  0  0  0  0  0  0  0  0  0
  187.5180  177.2520  137.1030 C   0  0  0  0  0  0  0  0  0  0  0  0
  185.1790  176.6490  136.3850 C   0  0  0  0  0  1  0  0  0  0  0  0
  188.8470  176.8270  137.4030 N   0  0  0  0  0  2  0  0  0  0  0  0
  186.5500  176.2830  136.6970 N   0  0  0  0  0  2  0  0  0  0  0  0
  1  4  1  0  0  0  0
  1  3  1  0  0  0  0
  3  2  1  1  0  0  0
  3  9  1  0  0  0  0
  4 16  1  6  0  0  0
  4  7  1  0  0  0  0
  5  8  1  0  0  0  0
  7  9  1  0  0  0  0
  7  5  2  0  0  0  0
  8 31  1  6  0  0  0
  9 10  2  0  0  0  0
 10  8  1  0  0  0  0
 10  6  1  0  0  0  0
 11 19  1  0  0  0  0
 12 16  1  0  0  0  0
 13 14  1  0  0  0  0
 15 11  2  0  0  0  0
 16 14  2  0  0  0  0
 17 15  1  0  0  0  0
 17 18  1  0  0  0  0
 18 12  2  0  0  0  0
 18 19  1  0  0  0  0
 19 13  2  0  0  0  0
 21 20  2  0  0  0  0
 21 15  1  0  0  0  0
 22 26  1  0  0  0  0
 23 24  1  0  0  0  0
 24 20  1  1  0  0  0
 25 22  1  0  0  0  0
 25 23  1  0  0  0  0
 26 28  1  1  0  0  0
 26 24  1  0  0  0  0
 28 27  1  6  0  0  0
 28 29  1  0  0  0  0
 29 30  1  0  0  0  0
 31 34  1  0  0  0  0
 31 33  2  0  0  0  0
 32 34  1  0  0  0  0
 35  1  1  0  0  0  0
 36 35  1  0  0  0  0
 37 36  1  0  0  0  0
 38 37  1  0  0  0  0
 40 39  2  0  0  0  0
 40 42  1  0  0  0  0
 41 43  1  0  0  0  0
 42 38  1  0  0  0  0
 43 40  1  0  0  0  0
M  END
>  <MODEL>
1

>  <REMARK>
 VINA RESULT:      -8.5      0.000      0.000
  Name = 
  11 active torsions:
  status: ('A' for Active; 'I' for Inactive)
    1  A    between atoms: N_3  and  O_19
    2  A    between atoms: C_4  and  C_26
    3  A    between atoms: C_8  and  C_31
    4  A    between atoms: C_11  and  C_27
    5  A    between atoms: O_19  and  C_36
    6  A    between atoms: C_21  and  C_30
    7  A    between atoms: C_23  and  N_43
    8  A    between atoms: N_24  and  C_41
    9  A    between atoms: C_26  and  C_29
   10  A    between atoms: C_33  and  C_36
   11  A    between atoms: C_33  and  C_41
                            x       y       z     vdW  Elec       q    Type
                         _______ _______ _______ _____ _____    ______ ____

>  <TORSDO>
F 11

$$$$
=
 OpenBabel10222415183D

 43 47  0  0  1  0  0  0  0  0999 V2000
  190.3390  177.0160  142.5100 N   0  0  0  0  0  0  0  0  0  0  0  0
  191.2920  175.2470  143.9100 C   0  0  0  0  0  1  0  0  0  0  0  0
  190.9770  176.7290  143.8060 C   0  0  2  0  0  3  0  0  0  0  0  0
  188.9790  177.4620  142.7010 C   0  0  1  0  0  3  0  0  0  0  0  0
  187.6810  177.8730  144.9240 C   0  0  0  0  0  3  0  0  0  0  0  0
  190.8030  176.8210  147.3130 S   0  0  0  0  0  1  0  0  0  0  0  0
  188.7370  177.4900  143.9990 C   0  0  0  0  0  0  0  0  0  0  0  0
  188.2200  177.6800  146.1450 C   0  0  1  0  0  3  0  0  0  0  0  0
  189.8610  177.0740  144.7230 C   0  0  0  0  0  0  0  0  0  0  0  0
  189.6210  177.1750  146.0120 C   0  0  0  0  0  0  0  0  0  0  0  0
  185.3070  178.9180  138.6830 N   0  0  0  0  0  0  0  0  0  0  0  0
  186.7180  178.2260  141.9430 C   0  0  0  0  0  3  0  0  0  0  0  0
  187.5610  178.1960  139.2420 C   0  0  0  0  0  3  0  0  0  0  0  0
  188.4470  177.8400  140.2720 C   0  0  0  0  0  3  0  0  0  0  0  0
  184.1450  179.2150  139.3190 C   0  0  0  0  0  0  0  0  0  0  0  0
  188.0360  177.8490  141.6260 C   0  0  0  0  0  0  0  0  0  0  0  0
  184.2530  179.0490  141.0000 S   0  0  0  0  0  0  0  0  0  0  0  0
  185.8580  178.5730  140.9070 C   0  0  0  0  0  0  0  0  0  0  0  0
  186.2600  178.5600  139.5810 C   0  0  0  0  0  0  0  0  0  0  0  0
  181.8610  179.8870  139.2810 C   0  0  0  0  0  3  0  0  0  0  0  0
  182.9560  179.6270  138.6440 N   0  0  0  0  0  0  0  0  0  0  0  0
  180.1640  180.5130  136.1600 C   0  0  0  0  0  2  0  0  0  0  0  0
  179.8650  179.0790  138.0850 C   0  0  0  0  0  2  0  0  0  0  0  0
  180.6370  180.3050  138.5390 C   0  0  2  0  0  3  0  0  0  0  0  0
  179.8640  179.0900  136.5670 C   0  0  0  0  0  2  0  0  0  0  0  0
  181.0220  181.0690  137.2820 C   0  0  2  0  0  3  0  0  0  0  0  0
  179.6360  182.9660  138.2510 C   0  0  0  0  0  1  0  0  0  0  0  0
  180.8820  182.5870  137.4640 C   0  0  2  0  0  3  0  0  0  0  0  0
  180.8830  183.3040  136.1250 C   0  0  0  0  0  2  0  0  0  0  0  0
  180.9950  184.8040  136.3290 C   0  0  0  0  0  1  0  0  0  0  0  0
  187.5120  177.9480  147.4220 C   0  0  0  0  0  0  0  0  0  0  0  0
  185.7530  179.3060  146.3910 O   0  0  0  0  0  1  0  0  0  0  0  0
  187.9650  177.4430  148.5210 N   0  0  0  0  0  2  0  0  0  0  0  0
  186.3240  178.7470  147.4840 N   0  0  0  0  0  2  0  0  0  0  0  0
  190.9340  176.8010  141.3090 O   0  0  0  0  0  0  0  0  0  0  0  0
  192.1010  177.5740  141.3320 C   0  0  0  0  0  2  0  0  0  0  0  0
  192.8400  177.4340  140.0140 C   0  0  0  0  0  2  0  0  0  0  0  0
  191.9140  176.8860  138.9470 C   0  0  0  0  0  2  0  0  0  0  0  0
  191.0900  174.3690  137.9300 O   0  0  0  0  0  0  0  0  0  0  0  0
  192.2010  174.8190  137.5380 C   0  0  0  0  0  0  0  0  0  0  0  0
  192.5700  172.7850  136.0970 C   0  0  0  0  0  1  0  0  0  0  0  0
  192.6790  176.0770  138.0130 N   0  0  0  0  0  2  0  0  0  0  0  0
  192.9940  174.0750  136.6130 N   0  0  0  0  0  2  0  0  0  0  0  0
  1  4  1  0  0  0  0
  1  3  1  0  0  0  0
  3  2  1  6  0  0  0
  3  9  1  0  0  0  0
  4 16  1  1  0  0  0
  4  7  1  0  0  0  0
  5  8  1  0  0  0  0
  7  9  1  0  0  0  0
  7  5  2  0  0  0  0
  8 31  1  6  0  0  0
  9 10  2  0  0  0  0
 10  8  1  0  0  0  0
 10  6  1  0  0  0  0
 11 15  2  0  0  0  0
 11 19  1  0  0  0  0
 13 19  2  0  0  0  0
 13 14  1  0  0  0  0
 14 16  2  0  0  0  0
 15 17  1  0  0  0  0
 16 12  1  0  0  0  0
 18 17  1  0  0  0  0
 18 12  2  0  0  0  0
 19 18  1  0  0  0  0
 21 20  2  0  0  0  0
 21 15  1  0  0  0  0
 22 25  1  0  0  0  0
 22 26  1  0  0  0  0
 23 24  1  0  0  0  0
 24 20  1  6  0  0  0
 25 23  1  0  0  0  0
 26 28  1  1  0  0  0
 26 24  1  0  0  0  0
 28 27  1  6  0  0  0
 29 30  1  0  0  0  0
 29 28  1  0  0  0  0
 31 34  1  0  0  0  0
 31 33  2  0  0  0  0
 32 34  1  0  0  0  0
 35 36  1  0  0  0  0
 35  1  1  0  0  0  0
 37 36  1  0  0  0  0
 38 37  1  0  0  0  0
 40 39  2  0  0  0  0
 40 42  1  0  0  0  0
 41 43  1  0  0  0  0
 42 38  1  0  0  0  0
 43 40  1  0  0  0  0
M  END
>  <MODEL>
2

>  <REMARK>
 VINA RESULT:      -8.4      2.146      2.957
  Name = 
  11 active torsions:
  status: ('A' for Active; 'I' for Inactive)
    1  A    between atoms: N_3  and  O_19
    2  A    between atoms: C_4  and  C_26
    3  A    between atoms: C_8  and  C_31
    4  A    between atoms: C_11  and  C_27
    5  A    between atoms: O_19  and  C_36
    6  A    between atoms: C_21  and  C_30
    7  A    between atoms: C_23  and  N_43
    8  A    between atoms: N_24  and  C_41
    9  A    between atoms: C_26  and  C_29
   10  A    between atoms: C_33  and  C_36
   11  A    between atoms: C_33  and  C_41
                            x       y       z     vdW  Elec       q    Type
                         _______ _______ _______ _____ _____    ______ ____

>  <TORSDO>
F 11

$$$$
=
 OpenBabel10222415183D

 43 47  0  0  1  0  0  0  0  0999 V2000
  181.3740  178.7000  137.0750 N   0  0  0  0  0  0  0  0  0  0  0  0
  181.5470  179.4330  134.7450 C   0  0  0  0  0  1  0  0  0  0  0  0
  180.6710  179.3980  135.9850 C   0  0  2  0  0  3  0  0  0  0  0  0
  181.6550  179.6090  138.1620 C   0  0  0  0  0  0  0  0  0  0  0  0
  181.0100  182.1230  138.4110 C   0  0  0  0  0  3  0  0  0  0  0  0
  179.1050  182.3180  134.8210 S   0  0  0  0  0  1  0  0  0  0  0  0
  181.1710  180.7940  137.8390 C   0  0  0  0  0  0  0  0  0  0  0  0
  180.3240  182.8090  137.4760 C   0  0  0  0  0  0  0  0  0  0  0  0
  180.5730  180.7580  136.5730 C   0  0  0  0  0  0  0  0  0  0  0  0
  180.0380  181.9290  136.3020 C   0  0  0  0  0  0  0  0  0  0  0  0
  184.3510  178.2480  142.9180 N   0  0  0  0  0  0  0  0  0  0  0  0
  183.7430  179.1660  139.4710 C   0  0  0  0  0  3  0  0  0  0  0  0
  182.2280  178.6650  141.8080 C   0  0  0  0  0  3  0  0  0  0  0  0
  181.5930  179.0080  140.6040 C   0  0  0  0  0  3  0  0  0  0  0  0
  185.6750  178.2420  142.6170 C   0  0  0  0  0  0  0  0  0  0  0  0
  182.3390  179.2580  139.4280 C   0  0  0  0  0  0  0  0  0  0  0  0
  185.9850  178.6400  141.0010 S   0  0  0  0  0  0  0  0  0  0  0  0
  184.3500  178.8250  140.6750 C   0  0  0  0  0  0  0  0  0  0  0  0
  183.6190  178.5750  141.8240 C   0  0  0  0  0  0  0  0  0  0  0  0
  186.4540  177.2950  144.6570 C   0  0  0  0  0  3  0  0  0  0  0  0
  186.7010  177.9360  143.5620 N   0  0  0  0  0  0  0  0  0  0  0  0
  189.1410  178.4460  146.7720 C   0  0  0  0  0  2  0  0  0  0  0  0
  187.0630  177.2370  147.0440 C   0  0  0  0  0  2  0  0  0  0  0  0
  187.5510  177.0030  145.6240 C   0  0  2  0  0  3  0  0  0  0  0  0
  187.8910  178.3730  147.6180 C   0  0  0  0  0  2  0  0  0  0  0  0
  188.7150  177.9550  145.4010 C   0  0  2  0  0  3  0  0  0  0  0  0
  191.0290  176.9080  145.4890 C   0  0  0  0  0  1  0  0  0  0  0  0
  189.8530  177.2980  144.6060 C   0  0  2  0  0  3  0  0  0  0  0  0
  190.3300  178.2000  143.4810 C   0  0  0  0  0  2  0  0  0  0  0  0
  191.4650  179.0860  143.9600 C   0  0  0  0  0  1  0  0  0  0  0  0
  179.9110  184.2280  137.6180 C   0  0  0  0  0  0  0  0  0  0  0  0
  181.3530  185.0350  135.8100 O   0  0  0  0  0  1  0  0  0  0  0  0
  179.0340  184.5510  138.5090 N   0  0  0  0  0  2  0  0  0  0  0  0
  180.4450  185.2660  136.7870 N   0  0  0  0  0  2  0  0  0  0  0  0
  181.7710  177.4040  137.0130 O   0  0  0  0  0  0  0  0  0  0  0  0
  183.0980  177.4450  136.5680 C   0  0  0  0  0  2  0  0  0  0  0  0
  183.5890  176.0390  136.2760 C   0  0  0  0  0  2  0  0  0  0  0  0
  185.0930  176.0380  136.0830 C   0  0  0  0  0  2  0  0  0  0  0  0
  187.6960  176.2610  137.1900 O   0  0  0  0  0  0  0  0  0  0  0  0
  186.9750  177.2960  137.1860 C   0  0  0  0  0  0  0  0  0  0  0  0
  188.8050  178.6320  138.2870 C   0  0  0  0  0  1  0  0  0  0  0  0
  185.6530  177.2530  136.6500 N   0  0  0  0  0  2  0  0  0  0  0  0
  187.4730  178.5230  137.7190 N   0  0  0  0  0  2  0  0  0  0  0  0
  1  4  1  0  0  0  0
  3  2  1  6  0  0  0
  3  9  1  0  0  0  0
  3  1  1  0  0  0  0
  4 16  1  0  0  0  0
  6 10  1  0  0  0  0
  7  4  2  0  0  0  0
  7  5  1  0  0  0  0
  8 31  1  0  0  0  0
  8  5  2  0  0  0  0
  9  7  1  0  0  0  0
 10  9  2  0  0  0  0
 10  8  1  0  0  0  0
 12 18  1  0  0  0  0
 13 19  1  0  0  0  0
 14 13  2  0  0  0  0
 15 11  2  0  0  0  0
 15 21  1  0  0  0  0
 16 12  2  0  0  0  0
 16 14  1  0  0  0  0
 17 15  1  0  0  0  0
 18 17  1  0  0  0  0
 18 19  2  0  0  0  0
 19 11  1  0  0  0  0
 21 20  2  0  0  0  0
 22 25  1  0  0  0  0
 23 25  1  0  0  0  0
 24 20  1  6  0  0  0
 24 23  1  0  0  0  0
 26 28  1  1  0  0  0
 26 24  1  0  0  0  0
 26 22  1  0  0  0  0
 28 27  1  1  0  0  0
 29 30  1  0  0  0  0
 29 28  1  0  0  0  0
 31 33  2  0  0  0  0
 32 34  1  0  0  0  0
 34 31  1  0  0  0  0
 35  1  1  0  0  0  0
 36 35  1  0  0  0  0
 37 36  1  0  0  0  0
 38 37  1  0  0  0  0
 38 42  1  0  0  0  0
 40 39  2  0  0  0  0
 40 43  1  0  0  0  0
 42 40  1  0  0  0  0
 43 41  1  0  0  0  0
M  END
>  <MODEL>
3

>  <REMARK>
 VINA RESULT:      -8.3      2.775     10.201
  Name = 
  11 active torsions:
  status: ('A' for Active; 'I' for Inactive)
    1  A    between atoms: N_3  and  O_19
    2  A    between atoms: C_4  and  C_26
    3  A    between atoms: C_8  and  C_31
    4  A    between atoms: C_11  and  C_27
    5  A    between atoms: O_19  and  C_36
    6  A    between atoms: C_21  and  C_30
    7  A    between atoms: C_23  and  N_43
    8  A    between atoms: N_24  and  C_41
    9  A    between atoms: C_26  and  C_29
   10  A    between atoms: C_33  and  C_36
   11  A    between atoms: C_33  and  C_41
                            x       y       z     vdW  Elec       q    Type
                         _______ _______ _______ _____ _____    ______ ____

>  <TORSDO>
F 11

$$$$
=
 OpenBabel10222415183D

 43 47  0  0  1  0  0  0  0  0999 V2000
  180.8940  178.5690  139.6420 N   0  0  0  0  0  0  0  0  0  0  0  0
  179.6260  177.2100  138.0480 C   0  0  0  0  0  1  0  0  0  0  0  0
  180.6150  178.3510  138.2130 C   0  0  2  0  0  3  0  0  0  0  0  0
  182.2740  178.2680  139.9420 C   0  0  0  0  0  0  0  0  0  0  0  0
  184.1850  177.5330  138.3270 C   0  0  0  0  0  3  0  0  0  0  0  0
  181.8360  177.6020  135.0050 S   0  0  0  0  0  1  0  0  0  0  0  0
  182.8660  177.9010  138.8190 C   0  0  0  0  0  0  0  0  0  0  0  0
  184.0120  177.3640  137.0010 C   0  0  0  0  0  0  0  0  0  0  0  0
  181.9610  177.9230  137.7510 C   0  0  0  0  0  0  0  0  0  0  0  0
  182.5860  177.6220  136.6340 C   0  0  0  0  0  0  0  0  0  0  0  0
  184.7870  178.6230  144.9720 N   0  0  0  0  0  0  0  0  0  0  0  0
  184.2210  177.8960  141.4730 C   0  0  0  0  0  3  0  0  0  0  0  0
  182.8160  179.0810  143.6240 C   0  0  0  0  0  3  0  0  0  0  0  0
  182.2240  178.9750  142.3550 C   0  0  0  0  0  3  0  0  0  0  0  0
  186.0160  178.0650  144.8240 C   0  0  0  0  0  0  0  0  0  0  0  0
  182.9150  178.3820  141.2730 C   0  0  0  0  0  0  0  0  0  0  0  0
  186.3050  177.5150  143.2490 S   0  0  0  0  0  0  0  0  0  0  0  0
  184.7860  178.0110  142.7380 C   0  0  0  0  0  0  0  0  0  0  0  0
  184.1070  178.5870  143.7990 C   0  0  0  0  0  0  0  0  0  0  0  0
  187.5260  176.8300  146.1890 C   0  0  0  0  0  3  0  0  0  0  0  0
  186.9690  177.9560  145.8820 N   0  0  0  0  0  0  0  0  0  0  0  0
  190.1500  178.3470  148.1470 C   0  0  0  0  0  2  0  0  0  0  0  0
  187.9430  177.4390  148.5400 C   0  0  0  0  0  2  0  0  0  0  0  0
  188.5090  176.7550  147.3080 C   0  0  2  0  0  3  0  0  0  0  0  0
  188.8390  178.6250  148.8430 C   0  0  0  0  0  2  0  0  0  0  0  0
  189.7800  177.5040  146.9400 C   0  0  2  0  0  3  0  0  0  0  0  0
  191.9460  176.3350  147.5750 C   0  0  0  0  0  1  0  0  0  0  0  0
  190.9000  176.5530  146.4910 C   0  0  2  0  0  3  0  0  0  0  0  0
  191.5700  177.0520  145.2230 C   0  0  0  0  0  2  0  0  0  0  0  0
  190.5280  177.3850  144.1710 C   0  0  0  0  0  1  0  0  0  0  0  0
  185.0960  176.9870  136.0600 C   0  0  0  0  0  0  0  0  0  0  0  0
  186.6670  178.6770  136.8800 O   0  0  0  0  0  1  0  0  0  0  0  0
  184.9110  176.0150  135.2290 N   0  0  0  0  0  2  0  0  0  0  0  0
  186.3600  177.6600  136.0410 N   0  0  0  0  0  2  0  0  0  0  0  0
  179.9520  178.9220  140.5520 O   0  0  0  0  0  0  0  0  0  0  0  0
  179.1870  179.9140  139.9270 C   0  0  0  0  0  2  0  0  0  0  0  0
  179.6590  181.2870  140.3680 C   0  0  0  0  0  2  0  0  0  0  0  0
  179.0650  182.3590  139.4750 C   0  0  0  0  0  2  0  0  0  0  0  0
  179.4780  184.6380  137.8370 O   0  0  0  0  0  0  0  0  0  0  0  0
  179.9200  183.5330  137.4180 C   0  0  0  0  0  0  0  0  0  0  0  0
  180.8100  184.6260  135.3300 C   0  0  0  0  0  1  0  0  0  0  0  0
  179.7420  182.3460  138.1900 N   0  0  0  0  0  2  0  0  0  0  0  0
  180.6030  183.4570  136.1670 N   0  0  0  0  0  2  0  0  0  0  0  0
  1  4  1  0  0  0  0
  1 35  1  0  0  0  0
  3  2  1  1  0  0  0
  3  1  1  0  0  0  0
  4 16  1  0  0  0  0
  5  7  1  0  0  0  0
  6 10  1  0  0  0  0
  7  4  2  0  0  0  0
  8  5  2  0  0  0  0
  9  3  1  0  0  0  0
  9  7  1  0  0  0  0
 10  8  1  0  0  0  0
 10  9  2  0  0  0  0
 12 18  1  0  0  0  0
 13 19  1  0  0  0  0
 14 13  2  0  0  0  0
 15 11  2  0  0  0  0
 15 21  1  0  0  0  0
 16 12  2  0  0  0  0
 16 14  1  0  0  0  0
 17 15  1  0  0  0  0
 18 17  1  0  0  0  0
 18 19  2  0  0  0  0
 19 11  1  0  0  0  0
 21 20  2  0  0  0  0
 22 25  1  0  0  0  0
 23 25  1  0  0  0  0
 24 20  1  6  0  0  0
 24 23  1  0  0  0  0
 26 28  1  1  0  0  0
 26 24  1  0  0  0  0
 26 22  1  0  0  0  0
 28 27  1  1  0  0  0
 29 28  1  0  0  0  0
 30 29  1  0  0  0  0
 31  8  1  0  0  0  0
 33 31  2  0  0  0  0
 34 31  1  0  0  0  0
 34 32  1  0  0  0  0
 36 37  1  0  0  0  0
 36 35  1  0  0  0  0
 38 37  1  0  0  0  0
 40 39  2  0  0  0  0
 40 42  1  0  0  0  0
 41 43  1  0  0  0  0
 42 38  1  0  0  0  0
 43 40  1  0  0  0  0
M  END
>  <MODEL>
4

>  <REMARK>
 VINA RESULT:      -7.5      3.034     10.900
  Name = 
  11 active torsions:
  status: ('A' for Active; 'I' for Inactive)
    1  A    between atoms: N_3  and  O_19
    2  A    between atoms: C_4  and  C_26
    3  A    between atoms: C_8  and  C_31
    4  A    between atoms: C_11  and  C_27
    5  A    between atoms: O_19  and  C_36
    6  A    between atoms: C_21  and  C_30
    7  A    between atoms: C_23  and  N_43
    8  A    between atoms: N_24  and  C_41
    9  A    between atoms: C_26  and  C_29
   10  A    between atoms: C_33  and  C_36
   11  A    between atoms: C_33  and  C_41
                            x       y       z     vdW  Elec       q    Type
                         _______ _______ _______ _____ _____    ______ ____

>  <TORSDO>
F 11

$$$$
=
 OpenBabel10222415183D

 43 47  0  0  1  0  0  0  0  0999 V2000
  185.9130  178.2760  142.2990 N   0  0  0  0  0  0  0  0  0  0  0  0
  184.8510  179.8330  143.8630 C   0  0  0  0  0  1  0  0  0  0  0  0
  185.3060  178.4020  143.6350 C   0  0  2  0  0  3  0  0  0  0  0  0
  187.3170  177.9560  142.4070 C   0  0  1  0  0  3  0  0  0  0  0  0
  188.7440  177.5200  144.5450 C   0  0  0  0  0  3  0  0  0  0  0  0
  185.6390  178.0750  147.1160 S   0  0  0  0  0  1  0  0  0  0  0  0
  187.6170  177.8600  143.6900 C   0  0  0  0  0  0  0  0  0  0  0  0
  188.2410  177.5690  145.7950 C   0  0  1  0  0  3  0  0  0  0  0  0
  186.4890  178.1060  144.4820 C   0  0  0  0  0  0  0  0  0  0  0  0
  186.7930  177.9370  145.7510 C   0  0  0  0  0  0  0  0  0  0  0  0
  190.9380  177.1640  138.1640 N   0  0  0  0  0  0  0  0  0  0  0  0
  189.5880  177.3970  141.5130 C   0  0  0  0  0  3  0  0  0  0  0  0
  188.6700  177.7060  138.8550 C   0  0  0  0  0  3  0  0  0  0  0  0
  187.7980  177.8940  139.9390 C   0  0  0  0  0  3  0  0  0  0  0  0
  192.1290  176.8510  138.7340 C   0  0  0  0  0  0  0  0  0  0  0  0
  188.2460  177.7450  141.2730 C   0  0  0  0  0  0  0  0  0  0  0  0
  192.0610  176.8110  140.4250 S   0  0  0  0  0  0  0  0  0  0  0  0
  190.4340  177.2170  140.4240 C   0  0  0  0  0  0  0  0  0  0  0  0
  189.9950  177.3680  139.1190 C   0  0  0  0  0  0  0  0  0  0  0  0
  193.5310  175.4300  137.4350 C   0  0  0  0  0  3  0  0  0  0  0  0
  193.3170  176.5790  137.9880 N   0  0  0  0  0  0  0  0  0  0  0  0
  196.0390  173.1450  136.2090 C   0  0  0  0  0  2  0  0  0  0  0  0
  194.4540  174.7110  135.2670 C   0  0  0  0  0  2  0  0  0  0  0  0
  194.7880  175.1820  136.6720 C   0  0  2  0  0  3  0  0  0  0  0  0
  194.9920  173.2990  135.1310 C   0  0  0  0  0  2  0  0  0  0  0  0
  195.5870  174.0670  137.3270 C   0  0  2  0  0  3  0  0  0  0  0  0
  198.0630  173.9130  137.8770 C   0  0  0  0  0  1  0  0  0  0  0  0
  196.7450  174.6100  138.1770 C   0  0  2  0  0  3  0  0  0  0  0  0
  196.4330  174.5060  139.6600 C   0  0  0  0  0  2  0  0  0  0  0  0
  197.4820  175.2430  140.4730 C   0  0  0  0  0  1  0  0  0  0  0  0
  189.0270  177.2820  147.0220 C   0  0  0  0  0  0  0  0  0  0  0  0
  191.0250  176.5490  145.8100 O   0  0  0  0  0  1  0  0  0  0  0  0
  188.4980  177.4920  148.1820 N   0  0  0  0  0  2  0  0  0  0  0  0
  190.3700  176.7850  146.9710 N   0  0  0  0  0  2  0  0  0  0  0  0
  185.2490  178.5150  141.1400 O   0  0  0  0  0  0  0  0  0  0  0  0
  184.0020  177.8960  141.2940 C   0  0  0  0  0  2  0  0  0  0  0  0
  183.2200  177.9770  139.9960 C   0  0  0  0  0  2  0  0  0  0  0  0
  182.0400  178.9160  140.1510 C   0  0  0  0  0  2  0  0  0  0  0  0
  181.2300  179.9230  142.6760 O   0  0  0  0  0  0  0  0  0  0  0  0
  180.6790  178.8640  142.2690 C   0  0  0  0  0  0  0  0  0  0  0  0
  179.2750  178.7350  144.3570 C   0  0  0  0  0  1  0  0  0  0  0  0
  181.0430  178.3000  141.0100 N   0  0  0  0  0  2  0  0  0  0  0  0
  179.6840  178.2170  143.0630 N   0  0  0  0  0  2  0  0  0  0  0  0
  1  4  1  0  0  0  0
  1  3  1  0  0  0  0
  3  2  1  1  0  0  0
  3  9  1  0  0  0  0
  4 16  1  6  0  0  0
  4  7  1  0  0  0  0
  5  8  1  0  0  0  0
  7  9  1  0  0  0  0
  7  5  2  0  0  0  0
  8 31  1  6  0  0  0
  9 10  2  0  0  0  0
 10  8  1  0  0  0  0
 10  6  1  0  0  0  0
 11 15  2  0  0  0  0
 11 19  1  0  0  0  0
 13 19  2  0  0  0  0
 13 14  1  0  0  0  0
 14 16  2  0  0  0  0
 15 17  1  0  0  0  0
 16 12  1  0  0  0  0
 18 17  1  0  0  0  0
 18 12  2  0  0  0  0
 19 18  1  0  0  0  0
 20 21  2  0  0  0  0
 21 15  1  0  0  0  0
 22 26  1  0  0  0  0
 23 24  1  0  0  0  0
 24 26  1  0  0  0  0
 24 20  1  1  0  0  0
 25 23  1  0  0  0  0
 25 22  1  0  0  0  0
 26 28  1  6  0  0  0
 28 27  1  1  0  0  0
 28 29  1  0  0  0  0
 29 30  1  0  0  0  0
 31 33  2  0  0  0  0
 32 34  1  0  0  0  0
 34 31  1  0  0  0  0
 35 36  1  0  0  0  0
 35  1  1  0  0  0  0
 37 38  1  0  0  0  0
 37 36  1  0  0  0  0
 38 42  1  0  0  0  0
 40 39  2  0  0  0  0
 40 43  1  0  0  0  0
 42 40  1  0  0  0  0
 43 41  1  0  0  0  0
M  END
>  <MODEL>
5

>  <REMARK>
 VINA RESULT:      -7.5      4.120     10.193
  Name = 
  11 active torsions:
  status: ('A' for Active; 'I' for Inactive)
    1  A    between atoms: N_3  and  O_19
    2  A    between atoms: C_4  and  C_26
    3  A    between atoms: C_8  and  C_31
    4  A    between atoms: C_11  and  C_27
    5  A    between atoms: O_19  and  C_36
    6  A    between atoms: C_21  and  C_30
    7  A    between atoms: C_23  and  N_43
    8  A    between atoms: N_24  and  C_41
    9  A    between atoms: C_26  and  C_29
   10  A    between atoms: C_33  and  C_36
   11  A    between atoms: C_33  and  C_41
                            x       y       z     vdW  Elec       q    Type
                         _______ _______ _______ _____ _____    ______ ____

>  <TORSDO>
F 11

$$$$
=
 OpenBabel10222415183D

 43 47  0  0  1  0  0  0  0  0999 V2000
  186.1410  177.8010  144.4520 N   0  0  0  0  0  0  0  0  0  0  0  0
  185.5530  179.0930  146.4480 C   0  0  0  0  0  1  0  0  0  0  0  0
  186.1030  177.7780  145.9240 C   0  0  2  0  0  3  0  0  0  0  0  0
  187.5040  177.7460  143.9780 C   0  0  1  0  0  3  0  0  0  0  0  0
  189.7120  177.5260  145.3470 C   0  0  0  0  0  3  0  0  0  0  0  0
  187.8390  177.4280  148.9580 S   0  0  0  0  0  1  0  0  0  0  0  0
  188.3000  177.6730  145.0300 C   0  0  0  0  0  0  0  0  0  0  0  0
  189.7470  177.4490  146.6920 C   0  0  1  0  0  3  0  0  0  0  0  0
  187.5560  177.6850  146.2170 C   0  0  0  0  0  0  0  0  0  0  0  0
  188.3620  177.5430  147.2460 C   0  0  0  0  0  0  0  0  0  0  0  0
  189.2190  177.7060  138.6120 N   0  0  0  0  0  0  0  0  0  0  0  0
  189.1670  177.1850  142.1920 C   0  0  0  0  0  3  0  0  0  0  0  0
  187.4860  178.3040  140.2100 C   0  0  0  0  0  3  0  0  0  0  0  0
  187.0930  178.2940  141.5580 C   0  0  0  0  0  3  0  0  0  0  0  0
  190.4400  177.1130  138.6070 C   0  0  0  0  0  0  0  0  0  0  0  0
  187.9270  177.7400  142.5590 C   0  0  0  0  0  0  0  0  0  0  0  0
  190.9440  176.6280  140.1480 S   0  0  0  0  0  0  0  0  0  0  0  0
  189.5350  177.2070  140.8510 C   0  0  0  0  0  0  0  0  0  0  0  0
  188.7210  177.7540  139.8730 C   0  0  0  0  0  0  0  0  0  0  0  0
  192.1280  175.9990  137.3510 C   0  0  0  0  0  3  0  0  0  0  0  0
  191.2190  176.9150  137.4260 N   0  0  0  0  0  0  0  0  0  0  0  0
  193.9750  173.8780  135.0900 C   0  0  0  0  0  2  0  0  0  0  0  0
  192.0360  175.3210  134.9850 C   0  0  0  0  0  2  0  0  0  0  0  0
  192.9280  175.8300  136.1040 C   0  0  2  0  0  3  0  0  0  0  0  0
  192.5500  173.9480  134.5940 C   0  0  0  0  0  2  0  0  0  0  0  0
  194.0070  174.7790  136.3120 C   0  0  2  0  0  3  0  0  0  0  0  0
  196.1550  175.6690  135.2840 C   0  0  0  0  0  1  0  0  0  0  0  0
  195.3830  175.4100  136.5700 C   0  0  2  0  0  3  0  0  0  0  0  0
  196.2160  174.5500  137.5050 C   0  0  0  0  0  2  0  0  0  0  0  0
  195.3160  173.7250  138.4070 C   0  0  0  0  0  1  0  0  0  0  0  0
  190.9900  177.2810  147.4860 C   0  0  0  0  0  0  0  0  0  0  0  0
  191.9640  175.6120  145.9810 O   0  0  0  0  0  1  0  0  0  0  0  0
  191.1590  177.9770  148.5620 N   0  0  0  0  0  2  0  0  0  0  0  0
  192.0290  176.3740  147.0980 N   0  0  0  0  0  2  0  0  0  0  0  0
  185.0420  177.9430  143.6680 O   0  0  0  0  0  0  0  0  0  0  0  0
  184.6850  179.2920  143.7730 C   0  0  0  0  0  2  0  0  0  0  0  0
  183.1780  179.4390  143.6730 C   0  0  0  0  0  2  0  0  0  0  0  0
  182.6380  178.5660  142.5570 C   0  0  0  0  0  2  0  0  0  0  0  0
  183.1810  176.8210  140.3880 O   0  0  0  0  0  0  0  0  0  0  0  0
  183.4780  178.0380  140.2430 C   0  0  0  0  0  0  0  0  0  0  0  0
  184.3380  177.6010  137.9160 C   0  0  0  0  0  1  0  0  0  0  0  0
  183.2360  178.9700  141.2960 N   0  0  0  0  0  2  0  0  0  0  0  0
  184.0590  178.4990  139.0230 N   0  0  0  0  0  2  0  0  0  0  0  0
  1  3  1  0  0  0  0
  3  9  1  0  0  0  0
  3  2  1  1  0  0  0
  4 16  1  6  0  0  0
  4  1  1  0  0  0  0
  4  7  1  0  0  0  0
  5  8  1  0  0  0  0
  7  5  2  0  0  0  0
  7  9  1  0  0  0  0
  8 10  1  0  0  0  0
  8 31  1  6  0  0  0
  9 10  2  0  0  0  0
 10  6  1  0  0  0  0
 11 19  1  0  0  0  0
 12 16  1  0  0  0  0
 13 14  1  0  0  0  0
 14 16  2  0  0  0  0
 15 11  2  0  0  0  0
 15 17  1  0  0  0  0
 17 18  1  0  0  0  0
 18 12  2  0  0  0  0
 19 13  2  0  0  0  0
 19 18  1  0  0  0  0
 20 21  2  0  0  0  0
 21 15  1  0  0  0  0
 22 26  1  0  0  0  0
 23 24  1  0  0  0  0
 24 26  1  0  0  0  0
 24 20  1  1  0  0  0
 25 23  1  0  0  0  0
 25 22  1  0  0  0  0
 26 28  1  6  0  0  0
 28 27  1  6  0  0  0
 28 29  1  0  0  0  0
 29 30  1  0  0  0  0
 31 33  2  0  0  0  0
 32 34  1  0  0  0  0
 34 31  1  0  0  0  0
 35 36  1  0  0  0  0
 35  1  1  0  0  0  0
 37 36  1  0  0  0  0
 38 37  1  0  0  0  0
 40 39  2  0  0  0  0
 40 42  1  0  0  0  0
 41 43  1  0  0  0  0
 42 38  1  0  0  0  0
 43 40  1  0  0  0  0
M  END
>  <MODEL>
6

>  <REMARK>
 VINA RESULT:      -7.5      4.072      9.022
  Name = 
  11 active torsions:
  status: ('A' for Active; 'I' for Inactive)
    1  A    between atoms: N_3  and  O_19
    2  A    between atoms: C_4  and  C_26
    3  A    between atoms: C_8  and  C_31
    4  A    between atoms: C_11  and  C_27
    5  A    between atoms: O_19  and  C_36
    6  A    between atoms: C_21  and  C_30
    7  A    between atoms: C_23  and  N_43
    8  A    between atoms: N_24  and  C_41
    9  A    between atoms: C_26  and  C_29
   10  A    between atoms: C_33  and  C_36
   11  A    between atoms: C_33  and  C_41
                            x       y       z     vdW  Elec       q    Type
                         _______ _______ _______ _____ _____    ______ ____

>  <TORSDO>
F 11

$$$$
=
 OpenBabel10222415183D

 43 47  0  0  1  0  0  0  0  0999 V2000
  191.0180  177.4520  140.7560 N   0  0  0  0  0  0  0  0  0  0  0  0
  193.2680  177.8880  139.8920 C   0  0  0  0  0  1  0  0  0  0  0  0
  192.2080  176.8310  140.1490 C   0  0  2  0  0  3  0  0  0  0  0  0
  189.8860  177.3590  139.8640 C   0  0  0  0  0  0  0  0  0  0  0  0
  189.7230  176.2120  137.5290 C   0  0  0  0  0  3  0  0  0  0  0  0
  193.5970  174.9640  137.5170 S   0  0  0  0  0  1  0  0  0  0  0  0
  190.2750  176.7210  138.7750 C   0  0  0  0  0  0  0  0  0  0  0  0
  190.7580  175.5820  136.9380 C   0  0  0  0  0  0  0  0  0  0  0  0
  191.6290  176.3730  138.8610 C   0  0  0  0  0  0  0  0  0  0  0  0
  191.9760  175.6800  137.7980 C   0  0  0  0  0  0  0  0  0  0  0  0
  184.6830  179.3000  140.8120 N   0  0  0  0  0  0  0  0  0  0  0  0
  187.5700  177.9390  139.1080 C   0  0  0  0  0  3  0  0  0  0  0  0
  186.8750  178.7730  141.7210 C   0  0  0  0  0  3  0  0  0  0  0  0
  188.1620  178.2830  141.4460 C   0  0  0  0  0  3  0  0  0  0  0  0
  184.0330  179.2440  139.6210 C   0  0  0  0  0  0  0  0  0  0  0  0
  188.5220  177.8650  140.1420 C   0  0  0  0  0  0  0  0  0  0  0  0
  184.9960  178.6280  138.3730 S   0  0  0  0  0  0  0  0  0  0  0  0
  186.3030  178.4290  139.4050 C   0  0  0  0  0  0  0  0  0  0  0  0
  185.9530  178.8420  140.6800 C   0  0  0  0  0  0  0  0  0  0  0  0
  182.2990  180.3220  138.3960 C   0  0  0  0  0  3  0  0  0  0  0  0
  182.6780  179.6570  139.4380 N   0  0  0  0  0  0  0  0  0  0  0  0
  179.5750  181.4310  136.3060 C   0  0  0  0  0  2  0  0  0  0  0  0
  180.0360  179.5680  137.7780 C   0  0  0  0  0  2  0  0  0  0  0  0
  180.8760  180.7440  138.2460 C   0  0  2  0  0  3  0  0  0  0  0  0
  179.4920  179.9260  136.4070 C   0  0  0  0  0  2  0  0  0  0  0  0
  180.7580  181.8170  137.1750 C   0  0  2  0  0  3  0  0  0  0  0  0
  179.2120  183.7480  137.7560 C   0  0  0  0  0  1  0  0  0  0  0  0
  180.6400  183.2230  137.7800 C   0  0  2  0  0  3  0  0  0  0  0  0
  181.5610  184.2040  137.0750 C   0  0  0  0  0  2  0  0  0  0  0  0
  180.7910  184.9990  136.0360 C   0  0  0  0  0  1  0  0  0  0  0  0
  190.6740  174.8860  135.6290 C   0  0  0  0  0  0  0  0  0  0  0  0
  189.3030  173.0400  136.4730 O   0  0  0  0  0  1  0  0  0  0  0  0
  191.2510  175.4020  134.5940 N   0  0  0  0  0  2  0  0  0  0  0  0
  189.9600  173.6550  135.4610 N   0  0  0  0  0  2  0  0  0  0  0  0
  191.0260  178.0950  141.9510 O   0  0  0  0  0  0  0  0  0  0  0  0
  191.1750  177.0870  142.9110 C   0  0  0  0  0  2  0  0  0  0  0  0
  191.5740  177.6950  144.2430 C   0  0  0  0  0  2  0  0  0  0  0  0
  191.2260  176.7510  145.3770 C   0  0  0  0  0  2  0  0  0  0  0  0
  188.4520  176.7510  144.7860 O   0  0  0  0  0  0  0  0  0  0  0  0
  188.8190  177.3150  145.8530 C   0  0  0  0  0  0  0  0  0  0  0  0
  186.4370  177.9180  146.4100 C   0  0  0  0  0  1  0  0  0  0  0  0
  190.2000  177.3560  146.2100 N   0  0  0  0  0  2  0  0  0  0  0  0
  187.8560  177.9180  146.7180 N   0  0  0  0  0  2  0  0  0  0  0  0
  1 35  1  0  0  0  0
  3  2  1  6  0  0  0
  3  1  1  0  0  0  0
  4 16  1  0  0  0  0
  4  1  1  0  0  0  0
  5  7  1  0  0  0  0
  6 10  1  0  0  0  0
  7  9  1  0  0  0  0
  7  4  2  0  0  0  0
  8  5  2  0  0  0  0
  8 10  1  0  0  0  0
  9  3  1  0  0  0  0
 10  9  2  0  0  0  0
 12 18  2  0  0  0  0
 12 16  1  0  0  0  0
 14 13  1  0  0  0  0
 15 11  2  0  0  0  0
 16 14  2  0  0  0  0
 17 18  1  0  0  0  0
 17 15  1  0  0  0  0
 18 19  1  0  0  0  0
 19 11  1  0  0  0  0
 19 13  2  0  0  0  0
 20 21  2  0  0  0  0
 21 15  1  0  0  0  0
 22 25  1  0  0  0  0
 22 26  1  0  0  0  0
 23 24  1  0  0  0  0
 24 20  1  6  0  0  0
 25 23  1  0  0  0  0
 26 28  1  1  0  0  0
 26 24  1  0  0  0  0
 28 27  1  6  0  0  0
 29 28  1  0  0  0  0
 30 29  1  0  0  0  0
 31  8  1  0  0  0  0
 33 31  2  0  0  0  0
 34 31  1  0  0  0  0
 34 32  1  0  0  0  0
 35 36  1  0  0  0  0
 36 37  1  0  0  0  0
 37 38  1  0  0  0  0
 38 42  1  0  0  0  0
 39 40  2  0  0  0  0
 40 42  1  0  0  0  0
 40 43  1  0  0  0  0
 41 43  1  0  0  0  0
M  END
>  <MODEL>
7

>  <REMARK>
 VINA RESULT:      -7.4      2.629      6.547
  Name = 
  11 active torsions:
  status: ('A' for Active; 'I' for Inactive)
    1  A    between atoms: N_3  and  O_19
    2  A    between atoms: C_4  and  C_26
    3  A    between atoms: C_8  and  C_31
    4  A    between atoms: C_11  and  C_27
    5  A    between atoms: O_19  and  C_36
    6  A    between atoms: C_21  and  C_30
    7  A    between atoms: C_23  and  N_43
    8  A    between atoms: N_24  and  C_41
    9  A    between atoms: C_26  and  C_29
   10  A    between atoms: C_33  and  C_36
   11  A    between atoms: C_33  and  C_41
                            x       y       z     vdW  Elec       q    Type
                         _______ _______ _______ _____ _____    ______ ____

>  <TORSDO>
F 11

$$$$
=
 OpenBabel10222415183D

 43 47  0  0  1  0  0  0  0  0999 V2000
  186.3890  178.1510  142.3660 N   0  0  0  0  0  0  0  0  0  0  0  0
  184.9410  179.7520  143.5230 C   0  0  0  0  0  1  0  0  0  0  0  0
  185.4800  178.3320  143.5110 C   0  0  2  0  0  3  0  0  0  0  0  0
  187.7370  177.9050  142.8220 C   0  0  1  0  0  3  0  0  0  0  0  0
  188.6310  177.6700  145.2590 C   0  0  0  0  0  3  0  0  0  0  0  0
  184.9910  178.2400  146.9880 S   0  0  0  0  0  1  0  0  0  0  0  0
  187.7280  177.9030  144.1430 C   0  0  0  0  0  0  0  0  0  0  0  0
  187.8460  177.7730  146.3510 C   0  0  1  0  0  3  0  0  0  0  0  0
  186.4380  178.1460  144.6300 C   0  0  0  0  0  0  0  0  0  0  0  0
  186.4390  178.0710  145.9440 C   0  0  0  0  0  0  0  0  0  0  0  0
  192.1440  176.9480  139.4450 N   0  0  0  0  0  0  0  0  0  0  0  0
  188.7370  177.3630  140.5910 C   0  0  0  0  0  3  0  0  0  0  0  0
  191.3470  177.5030  141.6740 C   0  0  0  0  0  3  0  0  0  0  0  0
  190.2240  177.7370  142.4830 C   0  0  0  0  0  3  0  0  0  0  0  0
  191.6310  176.6830  138.2160 C   0  0  0  0  0  0  0  0  0  0  0  0
  188.9130  177.6660  141.9540 C   0  0  0  0  0  0  0  0  0  0  0  0
  189.9400  176.7530  138.1780 S   0  0  0  0  0  0  0  0  0  0  0  0
  189.8640  177.1350  139.8090 C   0  0  0  0  0  0  0  0  0  0  0  0
  191.1460  177.1990  140.3290 C   0  0  0  0  0  0  0  0  0  0  0  0
  193.4280  175.5590  137.1310 C   0  0  0  0  0  3  0  0  0  0  0  0
  192.4320  176.3810  137.0720 N   0  0  0  0  0  0  0  0  0  0  0  0
  195.3290  173.2480  135.1160 C   0  0  0  0  0  2  0  0  0  0  0  0
  193.3760  174.6490  134.8430 C   0  0  0  0  0  2  0  0  0  0  0  0
  194.2470  175.2770  135.9170 C   0  0  2  0  0  3  0  0  0  0  0  0
  193.9100  173.2500  134.5970 C   0  0  0  0  0  2  0  0  0  0  0  0
  195.3340  174.2650  136.2420 C   0  0  2  0  0  3  0  0  0  0  0  0
  197.6540  174.6900  135.2950 C   0  0  0  0  0  1  0  0  0  0  0  0
  196.7000  174.9360  136.4540 C   0  0  2  0  0  3  0  0  0  0  0  0
  197.3410  174.4810  137.7530 C   0  0  0  0  0  2  0  0  0  0  0  0
  196.2750  174.0680  138.7520 C   0  0  0  0  0  1  0  0  0  0  0  0
  188.3280  177.6010  147.7440 C   0  0  0  0  0  0  0  0  0  0  0  0
  190.5760  176.8830  147.0890 O   0  0  0  0  0  1  0  0  0  0  0  0
  187.5350  177.8590  148.7310 N   0  0  0  0  0  2  0  0  0  0  0  0
  189.6590  177.1620  148.0440 N   0  0  0  0  0  2  0  0  0  0  0  0
  186.0100  178.2860  141.0700 O   0  0  0  0  0  0  0  0  0  0  0  0
  184.6110  178.2610  141.0890 C   0  0  0  0  0  2  0  0  0  0  0  0
  184.0790  177.9360  139.7060 C   0  0  0  0  0  2  0  0  0  0  0  0
  184.8990  178.6460  138.6470 C   0  0  0  0  0  2  0  0  0  0  0  0
  187.0980  179.0110  136.8930 O   0  0  0  0  0  0  0  0  0  0  0  0
  186.4530  177.9320  136.7980 C   0  0  0  0  0  0  0  0  0  0  0  0
  187.9600  177.1350  134.9440 C   0  0  0  0  0  1  0  0  0  0  0  0
  185.3320  177.6850  137.6470 N   0  0  0  0  0  2  0  0  0  0  0  0
  186.8350  176.9430  135.8420 N   0  0  0  0  0  2  0  0  0  0  0  0
  1  4  1  0  0  0  0
  1  3  1  0  0  0  0
  3  2  1  6  0  0  0
  3  9  1  0  0  0  0
  4 16  1  6  0  0  0
  4  7  1  0  0  0  0
  5  8  1  0  0  0  0
  7  9  1  0  0  0  0
  7  5  2  0  0  0  0
  8 31  1  6  0  0  0
  9 10  2  0  0  0  0
 10  8  1  0  0  0  0
 10  6  1  0  0  0  0
 11 19  1  0  0  0  0
 12 16  1  0  0  0  0
 13 14  1  0  0  0  0
 15 11  2  0  0  0  0
 16 14  2  0  0  0  0
 17 15  1  0  0  0  0
 17 18  1  0  0  0  0
 18 19  1  0  0  0  0
 18 12  2  0  0  0  0
 19 13  2  0  0  0  0
 21 20  2  0  0  0  0
 21 15  1  0  0  0  0
 22 26  1  0  0  0  0
 23 24  1  0  0  0  0
 24 26  1  0  0  0  0
 24 20  1  1  0  0  0
 25 23  1  0  0  0  0
 25 22  1  0  0  0  0
 26 28  1  6  0  0  0
 28 27  1  6  0  0  0
 28 29  1  0  0  0  0
 29 30  1  0  0  0  0
 31 34  1  0  0  0  0
 31 33  2  0  0  0  0
 32 34  1  0  0  0  0
 35 36  1  0  0  0  0
 35  1  1  0  0  0  0
 37 36  1  0  0  0  0
 38 37  1  0  0  0  0
 40 39  2  0  0  0  0
 40 42  1  0  0  0  0
 41 43  1  0  0  0  0
 42 38  1  0  0  0  0
 43 40  1  0  0  0  0
M  END
>  <MODEL>
8

>  <REMARK>
 VINA RESULT:      -7.4      3.929      9.459
  Name = 
  11 active torsions:
  status: ('A' for Active; 'I' for Inactive)
    1  A    between atoms: N_3  and  O_19
    2  A    between atoms: C_4  and  C_26
    3  A    between atoms: C_8  and  C_31
    4  A    between atoms: C_11  and  C_27
    5  A    between atoms: O_19  and  C_36
    6  A    between atoms: C_21  and  C_30
    7  A    between atoms: C_23  and  N_43
    8  A    between atoms: N_24  and  C_41
    9  A    between atoms: C_26  and  C_29
   10  A    between atoms: C_33  and  C_36
   11  A    between atoms: C_33  and  C_41
                            x       y       z     vdW  Elec       q    Type
                         _______ _______ _______ _____ _____    ______ ____

>  <TORSDO>
F 11

$$$$
=
 OpenBabel10222415183D

 43 47  0  0  1  0  0  0  0  0999 V2000
  187.6230  177.9180  143.9390 N   0  0  0  0  0  0  0  0  0  0  0  0
  189.8310  178.6920  144.6620 C   0  0  0  0  0  1  0  0  0  0  0  0
  189.0350  177.5290  144.0950 C   0  0  2  0  0  3  0  0  0  0  0  0
  187.2510  177.9320  142.5430 C   0  0  0  0  0  0  0  0  0  0  0  0
  188.6780  177.2970  140.4560 C   0  0  0  0  0  3  0  0  0  0  0  0
  192.0010  176.3690  142.6140 S   0  0  0  0  0  1  0  0  0  0  0  0
  188.3060  177.5700  141.8360 C   0  0  0  0  0  0  0  0  0  0  0  0
  189.9590  176.8840  140.5300 C   0  0  0  0  0  0  0  0  0  0  0  0
  189.4000  177.3130  142.6720 C   0  0  0  0  0  0  0  0  0  0  0  0
  190.4170  176.8880  141.9540 C   0  0  0  0  0  0  0  0  0  0  0  0
  182.2020  179.2500  140.4200 N   0  0  0  0  0  0  0  0  0  0  0  0
  185.7550  178.6080  140.6520 C   0  0  0  0  0  3  0  0  0  0  0  0
  183.5000  178.5710  142.3610 C   0  0  0  0  0  3  0  0  0  0  0  0
  184.7750  178.2480  142.8520 C   0  0  0  0  0  3  0  0  0  0  0  0
  182.4030  179.5300  139.1060 C   0  0  0  0  0  0  0  0  0  0  0  0
  185.9110  178.2660  142.0090 C   0  0  0  0  0  0  0  0  0  0  0  0
  184.0210  179.3710  138.6380 S   0  0  0  0  0  0  0  0  0  0  0  0
  184.4840  178.9250  140.1880 C   0  0  0  0  0  0  0  0  0  0  0  0
  183.3730  178.9130  141.0160 C   0  0  0  0  0  0  0  0  0  0  0  0
  181.1530  181.1530  137.8920 C   0  0  0  0  0  3  0  0  0  0  0  0
  181.3590  179.9170  138.2110 N   0  0  0  0  0  0  0  0  0  0  0  0
  180.0310  182.0970  134.5960 C   0  0  0  0  0  2  0  0  0  0  0  0
  179.6230  180.2980  136.1610 C   0  0  0  0  0  2  0  0  0  0  0  0
  180.0470  181.5170  136.9610 C   0  0  2  0  0  3  0  0  0  0  0  0
  179.9250  180.5940  134.7030 C   0  0  0  0  0  2  0  0  0  0  0  0
  180.5270  182.5520  135.9560 C   0  0  2  0  0  3  0  0  0  0  0  0
  181.0950  185.0290  135.9360 C   0  0  0  0  0  1  0  0  0  0  0  0
  180.0750  183.9710  136.3290 C   0  0  2  0  0  3  0  0  0  0  0  0
  179.7670  184.0790  137.8120 C   0  0  0  0  0  2  0  0  0  0  0  0
  179.7220  185.5350  138.2390 C   0  0  0  0  0  1  0  0  0  0  0  0
  190.7740  176.4780  139.3580 C   0  0  0  0  0  0  0  0  0  0  0  0
  192.6990  177.8660  139.9640 O   0  0  0  0  0  1  0  0  0  0  0  0
  190.2950  175.6280  138.5110 N   0  0  0  0  0  2  0  0  0  0  0  0
  192.0940  176.9880  139.1300 N   0  0  0  0  0  2  0  0  0  0  0  0
  186.8220  178.2920  144.9690 O   0  0  0  0  0  0  0  0  0  0  0  0
  187.0450  177.3430  145.9730 C   0  0  0  0  0  2  0  0  0  0  0  0
  186.9000  177.9890  147.3380 C   0  0  0  0  0  2  0  0  0  0  0  0
  188.2010  177.8880  148.1100 C   0  0  0  0  0  2  0  0  0  0  0  0
  191.0180  177.6930  148.3730 O   0  0  0  0  0  0  0  0  0  0  0  0
  190.4320  176.7890  147.7190 C   0  0  0  0  0  0  0  0  0  0  0  0
  192.6210  175.6200  147.2810 C   0  0  0  0  0  1  0  0  0  0  0  0
  189.0160  176.8280  147.5430 N   0  0  0  0  0  2  0  0  0  0  0  0
  191.1780  175.7140  147.1460 N   0  0  0  0  0  2  0  0  0  0  0  0
  1  3  1  0  0  0  0
  1 35  1  0  0  0  0
  3  2  1  6  0  0  0
  4  1  1  0  0  0  0
  5  8  2  0  0  0  0
  5  7  1  0  0  0  0
  7  4  2  0  0  0  0
  7  9  1  0  0  0  0
  8 10  1  0  0  0  0
  9  3  1  0  0  0  0
 10  6  1  0  0  0  0
 10  9  2  0  0  0  0
 11 19  1  0  0  0  0
 12 16  1  0  0  0  0
 13 14  1  0  0  0  0
 15 11  2  0  0  0  0
 16  4  1  0  0  0  0
 16 14  2  0  0  0  0
 17 15  1  0  0  0  0
 17 18  1  0  0  0  0
 18 12  2  0  0  0  0
 18 19  1  0  0  0  0
 19 13  2  0  0  0  0
 20 21  2  0  0  0  0
 21 15  1  0  0  0  0
 22 25  1  0  0  0  0
 22 26  1  0  0  0  0
 23 24  1  0  0  0  0
 24 20  1  1  0  0  0
 25 23  1  0  0  0  0
 26 28  1  1  0  0  0
 26 24  1  0  0  0  0
 28 27  1  1  0  0  0
 28 29  1  0  0  0  0
 29 30  1  0  0  0  0
 31  8  1  0  0  0  0
 33 31  2  0  0  0  0
 34 31  1  0  0  0  0
 34 32  1  0  0  0  0
 35 36  1  0  0  0  0
 36 37  1  0  0  0  0
 37 38  1  0  0  0  0
 40 39  2  0  0  0  0
 42 40  1  0  0  0  0
 42 38  1  0  0  0  0
 43 41  1  0  0  0  0
 43 40  1  0  0  0  0
M  END
>  <MODEL>
9

>  <REMARK>
 VINA RESULT:      -7.3      2.042      5.849
  Name = 
  11 active torsions:
  status: ('A' for Active; 'I' for Inactive)
    1  A    between atoms: N_3  and  O_19
    2  A    between atoms: C_4  and  C_26
    3  A    between atoms: C_8  and  C_31
    4  A    between atoms: C_11  and  C_27
    5  A    between atoms: O_19  and  C_36
    6  A    between atoms: C_21  and  C_30
    7  A    between atoms: C_23  and  N_43
    8  A    between atoms: N_24  and  C_41
    9  A    between atoms: C_26  and  C_29
   10  A    between atoms: C_33  and  C_36
   11  A    between atoms: C_33  and  C_41
                            x       y       z     vdW  Elec       q    Type
                         _______ _______ _______ _____ _____    ______ ____

>  <TORSDO>
F 11

$$$$
