=
 OpenBabel10222415463D

 44 51  0  0  1  0  0  0  0  0999 V2000
  184.0230  172.1720  136.2310 C   0  0  0  0  0  0  0  0  0  0  0  0
  185.1590  178.1940  139.5830 C   0  0  1  0  0  3  0  0  0  0  0  0
  182.3400  173.9560  135.9440 C   0  0  0  0  0  2  0  0  0  0  0  0
  183.1290  176.9790  138.8060 C   0  0  0  0  0  0  0  0  0  0  0  0
  183.3060  170.8970  136.0290 C   0  0  0  0  0  0  0  0  0  0  0  0
  189.8220  177.0930  134.6360 C   0  0  0  0  0  3  0  0  0  0  0  0
  189.1000  178.1450  134.9740 O   0  0  0  0  0  0  0  0  0  0  0  0
  181.0400  179.4050  139.0280 O   0  0  0  0  0  0  0  0  0  0  0  0
  181.1880  171.8810  135.3600 N   0  0  0  0  0  2  0  0  0  0  0  0
  185.2870  172.2950  135.9650 N   0  0  0  0  0  0  0  0  0  0  0  0
  187.0470  174.1630  136.2420 C   0  0  0  0  0  2  0  0  0  0  0  0
  186.1850  178.6070  138.5200 C   0  0  0  0  0  2  0  0  0  0  0  0
  183.4310  173.4110  136.8350 C   0  0  2  0  0  3  0  0  0  0  0  0
  184.7730  175.6670  137.3040 C   0  0  0  0  0  0  0  0  0  0  0  0
  188.0400  177.7310  135.6160 C   0  0  0  0  0  0  0  0  0  0  0  0
  181.6910  179.5510  140.0980 C   0  0  0  0  0  0  0  0  0  0  0  0
  182.0760  170.8150  135.6060 N   0  0  0  0  0  0  0  0  0  0  0  0
  181.1070  173.1070  136.1420 C   0  0  0  0  0  2  0  0  0  0  0  0
  185.3010  179.0370  140.8430 C   0  0  1  0  0  3  0  0  0  0  0  0
  187.0350  175.6280  136.3380 N   0  0  0  0  0  0  0  0  0  0  0  0
  188.0600  176.3820  135.6990 C   0  0  0  0  0  0  0  0  0  0  0  0
  186.9180  178.5710  136.1140 C   0  0  0  0  0  2  0  0  0  0  0  0
  186.1470  176.3000  137.3110 C   0  0  1  0  0  3  0  0  0  0  0  0
  189.2000  175.9250  135.0710 C   0  0  0  0  0  3  0  0  0  0  0  0
  184.6320  174.2930  136.8030 C   0  0  0  0  0  0  0  0  0  0  0  0
  184.0740  169.6280  136.1680 C   0  0  0  0  0  1  0  0  0  0  0  0
  183.8500  176.2280  138.0260 C   0  0  0  0  0  0  0  0  0  0  0  0
  183.0130  179.0100  140.2120 N   0  0  0  0  0  0  0  0  0  0  0  0
  183.7050  178.3430  139.1210 C   0  0  1  0  0  3  0  0  0  0  0  0
  183.8900  179.3700  141.3090 C   0  0  0  0  0  2  0  0  0  0  0  0
  181.9910  176.3780  139.5580 C   0  0  0  0  0  1  0  0  0  0  0  0
  185.6510  173.6210  136.3040 C   0  0  0  0  0  0  0  0  0  0  0  0
  186.0600  177.8650  137.1800 C   0  0  1  0  0  3  0  0  0  0  0  0
  186.0690  178.3100  141.9030 C   0  0  0  0  0  0  0  0  0  0  0  0
  187.3540  177.8010  141.6510 C   0  0  0  0  0  3  0  0  0  0  0  0
  186.1930  177.4710  144.1730 C   0  0  0  0  0  3  0  0  0  0  0  0
  185.4940  178.1430  143.1670 C   0  0  0  0  0  3  0  0  0  0  0  0
  187.4710  176.9640  143.9200 C   0  0  0  0  0  3  0  0  0  0  0  0
  188.0510  177.1290  142.6590 C   0  0  0  0  0  3  0  0  0  0  0  0
  181.1320  180.2410  141.1760 O   0  0  0  0  0  0  0  0  0  0  0  0
  181.0160  178.8680  143.5950 S   0  0  0  0  0  0  0  0  0  0  0  0
  179.2710  178.2260  141.5500 O   0  0  0  0  0  0  0  0  0  0  0  0
  180.0920  179.4860  142.3000 S   0  0  2  0  0  0  0  0  0  0  0  0
  179.1030  180.4870  142.8260 O   0  0  0  0  0  1  0  0  0  0  0  0
  1 13  1  0  0  0  0
  2 12  1  6  0  0  0
  2 19  1  0  0  0  0
  3 18  1  0  0  0  0
  4 31  1  0  0  0  0
  5 26  1  0  0  0  0
  5  1  1  0  0  0  0
  6  7  1  0  0  0  0
  6 24  2  0  0  0  0
  7 15  1  0  0  0  0
  8 16  2  0  0  0  0
  9 17  1  0  0  0  0
  9 18  1  0  0  0  0
 10  1  2  0  0  0  0
 10 32  1  0  0  0  0
 11 32  1  0  0  0  0
 11 20  1  0  0  0  0
 13  3  1  6  0  0  0
 14 27  2  0  0  0  0
 15 21  2  0  0  0  0
 15 22  1  0  0  0  0
 16 28  1  0  0  0  0
 16 40  1  0  0  0  0
 17  5  2  0  0  0  0
 19 30  1  0  0  0  0
 19 34  1  1  0  0  0
 20 23  1  0  0  0  0
 21 20  1  0  0  0  0
 23 14  1  6  0  0  0
 24 21  1  0  0  0  0
 25 13  1  0  0  0  0
 25 14  1  0  0  0  0
 27  4  2  0  0  0  0
 28 30  1  0  0  0  0
 29  4  1  1  0  0  0
 29  2  1  0  0  0  0
 29 28  1  0  0  0  0
 32 25  2  0  0  0  0
 33 22  1  6  0  0  0
 33 23  1  0  0  0  0
 33 12  1  0  0  0  0
 34 37  1  0  0  0  0
 35 34  2  0  0  0  0
 35 39  1  0  0  0  0
 37 36  2  0  0  0  0
 38 36  1  0  0  0  0
 39 38  2  0  0  0  0
 40 43  1  0  0  0  0
 43 42  2  6  0  0  0
 43 44  1  0  0  0  0
 43 41  2  0  0  0  0
M  END
>  <MODEL>
1

>  <REMARK>
 VINA RESULT:      -7.1      0.000      0.000
  Name = 
  3 active torsions:
  status: ('A' for Active; 'I' for Inactive)
    1  A    between atoms: C_9  and  C_25
    2  A    between atoms: O_18  and  S_21
    3  A    between atoms: O_18  and  C_22
                            x       y       z     vdW  Elec       q    Type
                         _______ _______ _______ _____ _____    ______ ____

>  <TORSDO>
F 3

$$$$
=
 OpenBabel10222415463D

 44 51  0  0  1  0  0  0  0  0999 V2000
  187.2610  177.7090  144.6430 C   0  0  0  0  0  0  0  0  0  0  0  0
  185.9700  176.9630  137.8190 C   0  0  1  0  0  3  0  0  0  0  0  0
  188.6570  179.0180  143.0820 C   0  0  0  0  0  2  0  0  0  0  0  0
  187.9800  177.5500  139.1660 C   0  0  0  0  0  0  0  0  0  0  0  0
  188.0820  177.5060  145.8540 C   0  0  0  0  0  0  0  0  0  0  0  0
  180.7470  180.0290  141.0970 C   0  0  0  0  0  3  0  0  0  0  0  0
  181.3850  180.2960  139.9730 O   0  0  0  0  0  0  0  0  0  0  0  0
  189.7790  178.7460  136.7920 O   0  0  0  0  0  0  0  0  0  0  0  0
  189.9370  178.9120  145.1610 N   0  0  0  0  0  2  0  0  0  0  0  0
  185.9660  177.7530  144.6950 N   0  0  0  0  0  0  0  0  0  0  0  0
  184.0640  177.9310  142.9580 C   0  0  0  0  0  2  0  0  0  0  0  0
  184.7470  177.8830  137.9360 C   0  0  0  0  0  2  0  0  0  0  0  0
  187.7910  177.7910  143.2420 C   0  0  2  0  0  3  0  0  0  0  0  0
  186.2850  178.0370  141.0550 C   0  0  0  0  0  0  0  0  0  0  0  0
  182.5740  179.7580  140.0330 C   0  0  0  0  0  0  0  0  0  0  0  0
  189.2920  177.7260  136.2330 C   0  0  0  0  0  0  0  0  0  0  0  0
  189.2300  178.0870  146.0570 N   0  0  0  0  0  0  0  0  0  0  0  0
  189.9960  178.7320  143.7180 C   0  0  0  0  0  2  0  0  0  0  0  0
  185.9310  176.1570  136.5270 C   0  0  1  0  0  3  0  0  0  0  0  0
  183.9200  178.4470  141.5910 N   0  0  0  0  0  0  0  0  0  0  0  0
  182.7250  179.1280  141.2190 C   0  0  0  0  0  0  0  0  0  0  0  0
  183.6530  179.8740  139.0170 C   0  0  0  0  0  2  0  0  0  0  0  0
  184.8650  178.0260  140.5350 C   0  0  1  0  0  3  0  0  0  0  0  0
  181.5620  179.2820  141.9450 C   0  0  0  0  0  3  0  0  0  0  0  0
  186.5050  177.9490  142.5050 C   0  0  0  0  0  0  0  0  0  0  0  0
  187.5000  176.7150  146.9740 C   0  0  0  0  0  1  0  0  0  0  0  0
  187.2380  177.7990  140.2050 C   0  0  0  0  0  0  0  0  0  0  0  0
  188.0770  177.1490  136.7280 N   0  0  0  0  0  0  0  0  0  0  0  0
  187.3050  177.7160  137.8220 C   0  0  1  0  0  3  0  0  0  0  0  0
  187.3480  176.1480  135.9730 C   0  0  0  0  0  2  0  0  0  0  0  0
  189.2850  176.8520  139.3460 C   0  0  0  0  0  1  0  0  0  0  0  0
  185.5070  177.9230  143.3660 C   0  0  0  0  0  0  0  0  0  0  0  0
  184.7460  178.7990  139.1700 C   0  0  1  0  0  3  0  0  0  0  0  0
  185.4300  174.7660  136.7680 C   0  0  0  0  0  0  0  0  0  0  0  0
  184.0650  174.4540  136.6580 C   0  0  0  0  0  3  0  0  0  0  0  0
  185.9010  172.4550  137.3260 C   0  0  0  0  0  3  0  0  0  0  0  0
  186.3440  173.7620  137.1010 C   0  0  0  0  0  3  0  0  0  0  0  0
  184.5420  172.1480  137.2180 C   0  0  0  0  0  3  0  0  0  0  0  0
  183.6240  173.1480  136.8840 C   0  0  0  0  0  3  0  0  0  0  0  0
  189.9300  177.1540  135.1300 O   0  0  0  0  0  0  0  0  0  0  0  0
  190.5300  174.4890  134.5940 S   0  0  0  0  0  0  0  0  0  0  0  0
  191.4330  175.6730  136.9210 O   0  0  0  0  0  1  0  0  0  0  0  0
  191.1120  175.9330  135.2930 S   0  0  2  0  0  0  0  0  0  0  0  0
  192.3730  176.3530  134.5940 O   0  0  0  0  0  0  0  0  0  0  0  0
  1 10  2  0  0  0  0
  1  5  1  0  0  0  0
  2 29  1  0  0  0  0
  2 12  1  6  0  0  0
  3 18  1  0  0  0  0
  4 31  1  0  0  0  0
  4 27  2  0  0  0  0
  5 17  2  0  0  0  0
  5 26  1  0  0  0  0
  6 24  2  0  0  0  0
  7 15  1  0  0  0  0
  7  6  1  0  0  0  0
  9 17  1  0  0  0  0
 11 32  1  0  0  0  0
 13  3  1  1  0  0  0
 13  1  1  0  0  0  0
 14 25  1  0  0  0  0
 15 21  2  0  0  0  0
 16 28  1  0  0  0  0
 16  8  2  0  0  0  0
 18  9  1  0  0  0  0
 19 34  1  1  0  0  0
 19  2  1  0  0  0  0
 20 11  1  0  0  0  0
 21 20  1  0  0  0  0
 21 24  1  0  0  0  0
 22 33  1  0  0  0  0
 22 15  1  0  0  0  0
 23 14  1  1  0  0  0
 23 20  1  0  0  0  0
 25 13  1  0  0  0  0
 25 32  2  0  0  0  0
 27 14  2  0  0  0  0
 28 29  1  0  0  0  0
 29  4  1  1  0  0  0
 30 19  1  0  0  0  0
 30 28  1  0  0  0  0
 32 10  1  0  0  0  0
 33 12  1  6  0  0  0
 33 23  1  0  0  0  0
 34 37  1  0  0  0  0
 35 34  2  0  0  0  0
 35 39  1  0  0  0  0
 37 36  2  0  0  0  0
 38 36  1  0  0  0  0
 39 38  2  0  0  0  0
 40 43  1  0  0  0  0
 40 16  1  0  0  0  0
 41 43  2  0  0  0  0
 43 44  2  6  0  0  0
 43 42  1  0  0  0  0
M  END
>  <MODEL>
2

>  <REMARK>
 VINA RESULT:      -5.1      3.886      9.299
  Name = 
  3 active torsions:
  status: ('A' for Active; 'I' for Inactive)
    1  A    between atoms: C_9  and  C_25
    2  A    between atoms: O_18  and  S_21
    3  A    between atoms: O_18  and  C_22
                            x       y       z     vdW  Elec       q    Type
                         _______ _______ _______ _____ _____    ______ ____

>  <TORSDO>
F 3

$$$$
=
 OpenBabel10222415463D

 44 51  0  0  1  0  0  0  0  0999 V2000
  184.1500  172.1370  136.3340 C   0  0  0  0  0  0  0  0  0  0  0  0
  184.0140  178.7000  138.7220 C   0  0  1  0  0  3  0  0  0  0  0  0
  182.6780  173.7330  135.1590 C   0  0  0  0  0  2  0  0  0  0  0  0
  182.3950  177.2410  137.5180 C   0  0  0  0  0  0  0  0  0  0  0  0
  183.5530  170.8020  136.1280 C   0  0  0  0  0  0  0  0  0  0  0  0
  190.1330  177.0860  136.0060 C   0  0  0  0  0  3  0  0  0  0  0  0
  189.3370  178.1310  135.8740 O   0  0  0  0  0  0  0  0  0  0  0  0
  180.3610  179.5290  136.5520 O   0  0  0  0  0  0  0  0  0  0  0  0
  181.8110  171.5190  134.5940 N   0  0  0  0  0  2  0  0  0  0  0  0
  185.4260  172.2950  136.5090 N   0  0  0  0  0  0  0  0  0  0  0  0
  186.9710  174.2940  137.0420 C   0  0  0  0  0  2  0  0  0  0  0  0
  185.3510  178.9940  138.0290 C   0  0  0  0  0  2  0  0  0  0  0  0
  183.3820  173.4190  136.4580 C   0  0  2  0  0  3  0  0  0  0  0  0
  184.4660  175.8050  136.9500 C   0  0  0  0  0  0  0  0  0  0  0  0
  188.1180  177.7630  136.1680 C   0  0  0  0  0  0  0  0  0  0  0  0
  180.5890  179.8950  137.7370 C   0  0  0  0  0  0  0  0  0  0  0  0
  182.5550  170.5700  135.3230 N   0  0  0  0  0  0  0  0  0  0  0  0
  181.4570  172.8510  135.0620 C   0  0  0  0  0  2  0  0  0  0  0  0
  183.6970  179.7510  139.7770 C   0  0  1  0  0  3  0  0  0  0  0  0
  186.9240  175.7500  136.8610 N   0  0  0  0  0  0  0  0  0  0  0  0
  188.1090  176.4510  136.4960 C   0  0  0  0  0  0  0  0  0  0  0  0
  186.8920  178.6000  136.0810 C   0  0  0  0  0  2  0  0  0  0  0  0
  185.7480  176.5180  137.3220 C   0  0  1  0  0  3  0  0  0  0  0  0
  189.3980  175.9700  136.4000 C   0  0  0  0  0  3  0  0  0  0  0  0
  184.5150  174.3600  136.6890 C   0  0  0  0  0  0  0  0  0  0  0  0
  184.2220  169.6280  136.7540 C   0  0  0  0  0  1  0  0  0  0  0  0
  183.3460  176.4180  137.1890 C   0  0  0  0  0  0  0  0  0  0  0  0
  181.7840  179.4690  138.4020 N   0  0  0  0  0  0  0  0  0  0  0  0
  182.8190  178.6730  137.7620 C   0  0  1  0  0  3  0  0  0  0  0  0
  182.2130  180.0650  139.6520 C   0  0  0  0  0  2  0  0  0  0  0  0
  181.0630  176.7030  137.9200 C   0  0  0  0  0  1  0  0  0  0  0  0
  185.6440  173.6810  136.7090 C   0  0  0  0  0  0  0  0  0  0  0  0
  185.7120  178.0290  136.8880 C   0  0  1  0  0  3  0  0  0  0  0  0
  184.0380  179.2650  141.1520 C   0  0  0  0  0  0  0  0  0  0  0  0
  183.0380  179.0090  142.1040 C   0  0  0  0  0  3  0  0  0  0  0  0
  185.7240  178.6000  142.7610 C   0  0  0  0  0  3  0  0  0  0  0  0
  185.3810  179.0580  141.4860 C   0  0  0  0  0  3  0  0  0  0  0  0
  184.7270  178.3470  143.7070 C   0  0  0  0  0  3  0  0  0  0  0  0
  183.3840  178.5520  143.3780 C   0  0  0  0  0  3  0  0  0  0  0  0
  179.6810  180.7190  138.4070 O   0  0  0  0  0  0  0  0  0  0  0  0
  178.9870  183.1090  137.1580 S   0  0  0  0  0  0  0  0  0  0  0  0
  181.4800  182.8210  138.3160 O   0  0  0  0  0  0  0  0  0  0  0  0
  179.8550  182.4170  138.4550 S   0  0  2  0  0  0  0  0  0  0  0  0
  179.3170  182.9440  139.7540 O   0  0  0  0  0  1  0  0  0  0  0  0
  1 13  1  0  0  0  0
  1 10  2  0  0  0  0
  2 12  1  6  0  0  0
  2 19  1  0  0  0  0
  4 31  1  0  0  0  0
  5  1  1  0  0  0  0
  5 26  1  0  0  0  0
  6 24  2  0  0  0  0
  7  6  1  0  0  0  0
  7 15  1  0  0  0  0
  8 16  2  0  0  0  0
  9 18  1  0  0  0  0
  9 17  1  0  0  0  0
 10 32  1  0  0  0  0
 13  3  1  6  0  0  0
 13 25  1  0  0  0  0
 14 27  2  0  0  0  0
 15 21  2  0  0  0  0
 16 28  1  0  0  0  0
 16 40  1  0  0  0  0
 17  5  2  0  0  0  0
 18  3  1  0  0  0  0
 19 34  1  1  0  0  0
 20 11  1  0  0  0  0
 20 23  1  0  0  0  0
 21 20  1  0  0  0  0
 22 15  1  0  0  0  0
 23 14  1  6  0  0  0
 24 21  1  0  0  0  0
 25 32  2  0  0  0  0
 25 14  1  0  0  0  0
 27  4  2  0  0  0  0
 28 30  1  0  0  0  0
 29  4  1  1  0  0  0
 29 28  1  0  0  0  0
 29  2  1  0  0  0  0
 30 19  1  0  0  0  0
 32 11  1  0  0  0  0
 33 22  1  1  0  0  0
 33 23  1  0  0  0  0
 33 12  1  0  0  0  0
 34 37  2  0  0  0  0
 34 35  1  0  0  0  0
 35 39  2  0  0  0  0
 36 38  2  0  0  0  0
 37 36  1  0  0  0  0
 39 38  1  0  0  0  0
 40 43  1  0  0  0  0
 42 43  2  0  0  0  0
 43 41  2  6  0  0  0
 43 44  1  0  0  0  0
M  END
>  <MODEL>
3

>  <REMARK>
 VINA RESULT:      -4.9      1.920      2.475
  Name = 
  3 active torsions:
  status: ('A' for Active; 'I' for Inactive)
    1  A    between atoms: C_9  and  C_25
    2  A    between atoms: O_18  and  S_21
    3  A    between atoms: O_18  and  C_22
                            x       y       z     vdW  Elec       q    Type
                         _______ _______ _______ _____ _____    ______ ____

>  <TORSDO>
F 3

$$$$
=
 OpenBabel10222415463D

 44 51  0  0  1  0  0  0  0  0999 V2000
  188.5450  176.3790  136.1650 C   0  0  0  0  0  0  0  0  0  0  0  0
  181.8590  177.0270  138.0820 C   0  0  1  0  0  3  0  0  0  0  0  0
  188.0640  176.3970  138.5870 C   0  0  0  0  0  2  0  0  0  0  0  0
  184.0430  177.6220  139.1190 C   0  0  0  0  0  0  0  0  0  0  0  0
  189.9240  176.8860  136.0190 C   0  0  0  0  0  0  0  0  0  0  0  0
  183.0450  171.0370  134.8970 C   0  0  0  0  0  3  0  0  0  0  0  0
  182.3980  171.3560  136.0020 O   0  0  0  0  0  0  0  0  0  0  0  0
  183.0060  178.0760  142.1230 O   0  0  0  0  0  0  0  0  0  0  0  0
  190.4240  177.0000  138.3930 N   0  0  0  0  0  2  0  0  0  0  0  0
  188.0280  175.5490  135.3130 N   0  0  0  0  0  0  0  0  0  0  0  0
  185.7070  174.4680  134.9790 C   0  0  0  0  0  2  0  0  0  0  0  0
  181.6100  175.5470  137.7610 C   0  0  0  0  0  2  0  0  0  0  0  0
  187.5710  176.8110  137.2210 C   0  0  2  0  0  3  0  0  0  0  0  0
  185.0460  175.9740  137.4000 C   0  0  0  0  0  0  0  0  0  0  0  0
  182.8660  172.4930  136.4430 C   0  0  0  0  0  0  0  0  0  0  0  0
  182.0950  178.6490  141.4650 C   0  0  0  0  0  0  0  0  0  0  0  0
  190.7270  177.1050  137.0210 N   0  0  0  0  0  0  0  0  0  0  0  0
  189.1510  177.3570  139.0040 C   0  0  0  0  0  2  0  0  0  0  0  0
  180.5490  177.7950  138.1900 C   0  0  1  0  0  3  0  0  0  0  0  0
  184.5540  174.1460  135.8290 N   0  0  0  0  0  0  0  0  0  0  0  0
  183.8410  172.9310  135.6160 C   0  0  0  0  0  0  0  0  0  0  0  0
  182.4780  173.1870  137.7000 C   0  0  0  0  0  2  0  0  0  0  0  0
  183.9620  175.1830  136.7010 C   0  0  1  0  0  3  0  0  0  0  0  0
  183.9940  172.0120  134.5980 C   0  0  0  0  0  3  0  0  0  0  0  0
  186.3920  175.9960  136.8120 C   0  0  0  0  0  0  0  0  0  0  0  0
  190.4850  177.0130  134.6450 C   0  0  0  0  0  1  0  0  0  0  0  0
  184.6750  176.8460  138.2890 C   0  0  0  0  0  0  0  0  0  0  0  0
  181.8730  178.3000  140.0930 N   0  0  0  0  0  0  0  0  0  0  0  0
  182.6040  177.2490  139.4030 C   0  0  1  0  0  3  0  0  0  0  0  0
  180.6880  178.7340  139.3800 C   0  0  0  0  0  2  0  0  0  0  0  0
  184.6340  178.9420  139.4860 C   0  0  0  0  0  1  0  0  0  0  0  0
  186.6980  175.3020  135.7340 C   0  0  0  0  0  0  0  0  0  0  0  0
  182.8750  174.6750  137.7170 C   0  0  1  0  0  3  0  0  0  0  0  0
  180.2550  178.5500  136.9300 C   0  0  0  0  0  0  0  0  0  0  0  0
  179.5140  177.9680  135.8880 C   0  0  0  0  0  3  0  0  0  0  0  0
  180.4580  180.5870  135.6330 C   0  0  0  0  0  3  0  0  0  0  0  0
  180.7240  179.8610  136.7970 C   0  0  0  0  0  3  0  0  0  0  0  0
  179.7210  180.0050  134.5970 C   0  0  0  0  0  3  0  0  0  0  0  0
  179.2500  178.6960  134.7250 C   0  0  0  0  0  3  0  0  0  0  0  0
  181.2960  179.6220  142.0680 O   0  0  0  0  0  0  0  0  0  0  0  0
  180.3630  178.5040  144.4420 S   0  0  0  0  0  0  0  0  0  0  0  0
  178.9530  178.1480  142.0910 O   0  0  0  0  0  0  0  0  0  0  0  0
  179.8990  179.2260  142.9660 S   0  0  2  0  0  0  0  0  0  0  0  0
  179.1080  180.4720  143.2480 O   0  0  0  0  0  1  0  0  0  0  0  0
  1 13  1  0  0  0  0
  2 12  1  1  0  0  0
  2 19  1  0  0  0  0
  2 29  1  0  0  0  0
  3 18  1  0  0  0  0
  4 31  1  0  0  0  0
  5  1  1  0  0  0  0
  5 17  2  0  0  0  0
  6  7  1  0  0  0  0
  7 15  1  0  0  0  0
  9 18  1  0  0  0  0
 10 32  1  0  0  0  0
 10  1  2  0  0  0  0
 11 32  1  0  0  0  0
 11 20  1  0  0  0  0
 13  3  1  1  0  0  0
 14 27  2  0  0  0  0
 15 22  1  0  0  0  0
 16 40  1  0  0  0  0
 16  8  2  0  0  0  0
 17  9  1  0  0  0  0
 19 34  1  6  0  0  0
 19 30  1  0  0  0  0
 20 23  1  0  0  0  0
 21 20  1  0  0  0  0
 21 15  2  0  0  0  0
 23 14  1  1  0  0  0
 23 33  1  0  0  0  0
 24  6  2  0  0  0  0
 24 21  1  0  0  0  0
 25 13  1  0  0  0  0
 25 14  1  0  0  0  0
 26  5  1  0  0  0  0
 27  4  2  0  0  0  0
 28 16  1  0  0  0  0
 29  4  1  6  0  0  0
 29 28  1  0  0  0  0
 30 28  1  0  0  0  0
 32 25  2  0  0  0  0
 33 22  1  6  0  0  0
 33 12  1  0  0  0  0
 35 34  2  0  0  0  0
 36 37  2  0  0  0  0
 37 34  1  0  0  0  0
 38 39  2  0  0  0  0
 38 36  1  0  0  0  0
 39 35  1  0  0  0  0
 40 43  1  0  0  0  0
 43 42  2  6  0  0  0
 43 44  1  0  0  0  0
 43 41  2  0  0  0  0
M  END
>  <MODEL>
4

>  <REMARK>
 VINA RESULT:      -4.5      2.722      6.408
  Name = 
  3 active torsions:
  status: ('A' for Active; 'I' for Inactive)
    1  A    between atoms: C_9  and  C_25
    2  A    between atoms: O_18  and  S_21
    3  A    between atoms: O_18  and  C_22
                            x       y       z     vdW  Elec       q    Type
                         _______ _______ _______ _____ _____    ______ ____

>  <TORSDO>
F 3

$$$$
