=
 OpenBabel10222417453D

 52 57  0  0  1  0  0  0  0  0999 V2000
  181.6370  177.1660  138.8650 C   0  0  2  0  0  3  0  0  0  0  0  0
  183.9830  179.4190  139.2880 C   0  0  0  0  0  2  0  0  0  0  0  0
  184.7920  179.3230  140.5830 C   0  0  0  0  0  2  0  0  0  0  0  0
  183.0640  177.2880  139.4150 C   0  0  1  0  0  3  0  0  0  0  0  0
  183.8950  178.1610  138.6590 O   0  0  0  0  0  0  0  0  0  0  0  0
  184.4490  178.0460  141.3610 C   0  0  2  0  0  3  0  0  0  0  0  0
  183.0970  177.4750  140.9440 C   0  0  0  0  0  2  0  0  0  0  0  0
  184.5330  178.2390  142.8770 C   0  0  2  0  0  3  0  0  0  0  0  0
  184.2540  179.6830  143.2860 C   0  0  0  0  0  1  0  0  0  0  0  0
  186.3020  177.8790  144.7310 C   0  0  0  0  0  0  0  0  0  0  0  0
  190.2870  176.4900  144.0870 C   0  0  1  0  0  3  0  0  0  0  0  0
  187.7180  177.5870  144.7010 C   0  0  0  0  0  0  0  0  0  0  0  0
  188.4730  177.8100  147.0110 N   0  0  0  0  0  0  0  0  0  0  0  0
  187.2630  178.2280  147.6700 C   0  0  0  0  0  3  0  0  0  0  0  0
  188.7120  177.5170  145.7680 C   0  0  0  0  0  0  0  0  0  0  0  0
  186.9280  177.5190  142.6110 O   0  0  0  0  0  0  0  0  0  0  0  0
  190.0350  177.1160  145.3880 N   0  0  0  0  0  2  0  0  0  0  0  0
  185.8270  177.7900  143.3880 N   0  0  0  0  0  0  0  0  0  0  0  0
  188.0430  177.3850  143.4320 C   0  0  0  0  0  0  0  0  0  0  0  0
  185.5670  178.2460  145.7730 C   0  0  0  0  0  3  0  0  0  0  0  0
  186.0440  178.4080  147.1530 C   0  0  0  0  0  3  0  0  0  0  0  0
  189.4520  177.1380  142.9690 C   0  0  0  0  0  2  0  0  0  0  0  0
  191.7590  176.5790  143.7510 C   0  0  0  0  0  1  0  0  0  0  0  0
  181.5330  176.1480  137.7170 C   0  0  1  0  0  3  0  0  0  0  0  0
  180.3930  174.2720  138.9360 N   0  0  0  0  0  0  0  0  0  0  0  0
  180.4270  173.8610  137.5130 C   0  0  0  0  0  0  0  0  0  0  0  0
  180.2590  175.2780  137.8510 C   0  0  2  0  0  3  0  0  0  0  0  0
  181.6780  173.3790  137.1190 O   0  0  0  0  0  1  0  0  0  0  0  0
  179.3040  173.1610  137.0600 O   0  0  0  0  0  1  0  0  0  0  0  0
  179.0630  174.1220  139.5120 C   0  0  0  0  0  2  0  0  0  0  0  0
  179.2830  173.6050  142.1210 C   0  0  0  0  0  3  0  0  0  0  0  0
  179.1740  173.8380  140.9420 C   0  0  0  0  0  0  0  0  0  0  0  0
  181.6270  176.7840  136.4700 O   0  0  0  0  0  0  0  0  0  0  0  0
  182.6640  176.1240  135.8070 C   0  0  0  0  0  2  0  0  0  0  0  0
  183.7540  177.1140  135.4570 C   0  0  0  0  0  2  0  0  0  0  0  0
  185.0860  176.3940  135.4440 C   0  0  0  0  0  2  0  0  0  0  0  0
  185.2130  175.5810  136.6360 N   0  0  0  0  0  2  0  0  0  0  0  0
  186.6120  175.6250  137.0180 C   0  0  0  0  0  2  0  0  0  0  0  0
  187.1920  176.9920  136.7140 C   0  0  0  0  0  2  0  0  0  0  0  0
  187.1730  177.8040  137.9170 N   0  0  0  0  0  2  0  0  0  0  0  0
  189.9560  177.2070  137.5350 C   0  0  0  0  0  1  0  0  0  0  0  0
  188.7850  178.3680  138.2020 S   0  0  0  0  0  0  0  0  0  0  0  0
  188.9660  179.6920  137.5200 O   0  0  0  0  0  0  0  0  0  0  0  0
  189.0230  178.5340  139.6770 O   0  0  0  0  0  0  0  0  0  0  0  0
  180.9820  178.5220  138.5690 C   0  0  0  0  0  2  0  0  0  0  0  0
  179.6270  178.6950  139.2430 C   0  0  0  0  0  2  0  0  0  0  0  0
  179.6180  177.6680  142.8920 C   0  0  0  0  0  3  0  0  0  0  0  0
  179.7960  178.7340  140.7210 C   0  0  0  0  0  0  0  0  0  0  0  0
  180.5450  179.8970  142.7110 C   0  0  0  0  0  3  0  0  0  0  0  0
  179.4280  177.6340  141.5060 C   0  0  0  0  0  3  0  0  0  0  0  0
  180.3590  179.8630  141.3250 C   0  0  0  0  0  3  0  0  0  0  0  0
  180.1750  178.8000  143.4940 C   0  0  0  0  0  3  0  0  0  0  0  0
  1 45  1  6  0  0  0
  2  3  1  0  0  0  0
  3  6  1  0  0  0  0
  4  1  1  6  0  0  0
  4  7  1  0  0  0  0
  5  2  1  0  0  0  0
  5  4  1  0  0  0  0
  6  8  1  1  0  0  0
  7  6  1  0  0  0  0
  8  9  1  6  0  0  0
  8 18  1  0  0  0  0
 10 20  2  0  0  0  0
 11 23  1  6  0  0  0
 11 17  1  0  0  0  0
 12 10  1  0  0  0  0
 12 15  1  0  0  0  0
 13 14  1  0  0  0  0
 15 13  2  0  0  0  0
 16 18  1  0  0  0  0
 16 19  1  0  0  0  0
 17 15  1  0  0  0  0
 18 10  1  0  0  0  0
 19 12  2  0  0  0  0
 20 21  1  0  0  0  0
 21 14  2  0  0  0  0
 22 19  1  0  0  0  0
 22 11  1  0  0  0  0
 24 33  1  6  0  0  0
 24  1  1  0  0  0  0
 25 30  1  0  0  0  0
 26 27  1  0  0  0  0
 26 25  1  0  0  0  0
 27 24  1  6  0  0  0
 27 25  1  0  0  0  0
 28 26  1  0  0  0  0
 29 26  1  0  0  0  0
 30 32  1  0  0  0  0
 32 31  3  0  0  0  0
 34 33  1  0  0  0  0
 35 34  1  0  0  0  0
 36 35  1  0  0  0  0
 36 37  1  0  0  0  0
 37 38  1  0  0  0  0
 39 38  1  0  0  0  0
 39 40  1  0  0  0  0
 40 42  1  0  0  0  0
 41 42  1  0  0  0  0
 42 44  2  0  0  0  0
 43 42  2  0  0  0  0
 45 46  1  0  0  0  0
 46 48  1  0  0  0  0
 47 52  1  0  0  0  0
 48 51  2  0  0  0  0
 48 50  1  0  0  0  0
 49 52  2  0  0  0  0
 50 47  2  0  0  0  0
 51 49  1  0  0  0  0
M  END
>  <MODEL>
1

>  <REMARK>
 VINA RESULT:      -7.1      0.000      0.000
  Name = 
  19 active torsions:
  status: ('A' for Active; 'I' for Inactive)
    1  A    between atoms: C_2  and  N_14
    2  A    between atoms: C_2  and  C_25
    3  A    between atoms: C_3  and  C_15
    4  A    between atoms: C_3  and  C_35
    5  A    between atoms: C_5  and  N_23
    6  A    between atoms: C_5  and  C_32
    7  A    between atoms: C_15  and  C_28
    8  A    between atoms: C_15  and  C_30
    9  A    between atoms: S_16  and  N_49
   10  A    between atoms: N_20  and  C_24
   11  A    between atoms: N_20  and  C_48
   12  A    between atoms: C_21  and  C_33
   13  A    between atoms: C_21  and  O_42
   14  A    between atoms: C_22  and  C_30
   15  A    between atoms: C_24  and  C_41
   16  A    between atoms: C_26  and  C_35
   17  A    between atoms: C_30  and  O_42
   18  A    between atoms: C_33  and  C_48
   19  A    between atoms: C_41  and  N_49
                            x       y       z     vdW  Elec       q    Type
                         _______ _______ _______ _____ _____    ______ ____

>  <TORSDO>
F 19

$$$$
=
 OpenBabel10222417453D

 52 57  0  0  1  0  0  0  0  0999 V2000
  188.7360  177.9300  142.4620 C   0  0  2  0  0  3  0  0  0  0  0  0
  187.3830  178.0750  139.4770 C   0  0  0  0  0  2  0  0  0  0  0  0
  185.9580  178.6260  139.4030 C   0  0  0  0  0  2  0  0  0  0  0  0
  187.8310  178.8430  141.6250 C   0  0  1  0  0  3  0  0  0  0  0  0
  188.2050  178.9160  140.2540 O   0  0  0  0  0  0  0  0  0  0  0  0
  185.5040  179.1820  140.7580 C   0  0  2  0  0  3  0  0  0  0  0  0
  186.3340  178.6180  141.9080 C   0  0  0  0  0  2  0  0  0  0  0  0
  184.0050  178.9890  141.0020 C   0  0  2  0  0  3  0  0  0  0  0  0
  183.7270  178.2670  142.3170 C   0  0  0  0  0  1  0  0  0  0  0  0
  182.5430  178.8560  138.8710 C   0  0  0  0  0  0  0  0  0  0  0  0
  181.4480  175.2500  136.8650 C   0  0  1  0  0  3  0  0  0  0  0  0
  181.9350  177.7540  138.1580 C   0  0  0  0  0  0  0  0  0  0  0  0
  180.4780  178.7860  136.4950 N   0  0  0  0  0  0  0  0  0  0  0  0
  180.6420  180.1840  136.7960 C   0  0  0  0  0  3  0  0  0  0  0  0
  181.0080  177.7280  137.0300 C   0  0  0  0  0  0  0  0  0  0  0  0
  183.2190  176.9290  139.7910 O   0  0  0  0  0  0  0  0  0  0  0  0
  180.6630  176.4360  136.5120 N   0  0  0  0  0  2  0  0  0  0  0  0
  183.3810  178.2910  139.8780 N   0  0  0  0  0  0  0  0  0  0  0  0
  182.3590  176.6400  138.7370 C   0  0  0  0  0  0  0  0  0  0  0  0
  182.3240  180.1530  138.7060 C   0  0  0  0  0  3  0  0  0  0  0  0
  181.4180  180.7580  137.7210 C   0  0  0  0  0  3  0  0  0  0  0  0
  181.8830  175.2700  138.3410 C   0  0  0  0  0  2  0  0  0  0  0  0
  180.6450  174.0000  136.5790 C   0  0  0  0  0  1  0  0  0  0  0  0
  190.0860  177.6540  141.7810 C   0  0  1  0  0  3  0  0  0  0  0  0
  190.7240  177.4360  144.2000 N   0  0  0  0  0  0  0  0  0  0  0  0
  191.3010  178.7240  143.7490 C   0  0  0  0  0  0  0  0  0  0  0  0
  191.2370  177.5960  142.8160 C   0  0  2  0  0  3  0  0  0  0  0  0
  190.3520  179.7470  143.6770 O   0  0  0  0  0  1  0  0  0  0  0  0
  192.5480  179.0500  144.2940 O   0  0  0  0  0  1  0  0  0  0  0  0
  191.7030  176.6180  144.9010 C   0  0  0  0  0  2  0  0  0  0  0  0
  191.2380  176.6780  147.5280 C   0  0  0  0  0  3  0  0  0  0  0  0
  191.4390  176.6520  146.3380 C   0  0  0  0  0  0  0  0  0  0  0  0
  190.0200  176.5050  140.9780 O   0  0  0  0  0  0  0  0  0  0  0  0
  190.8870  176.7590  139.9130 C   0  0  0  0  0  2  0  0  0  0  0  0
  190.3120  176.1770  138.6400 C   0  0  0  0  0  2  0  0  0  0  0  0
  191.2950  176.3990  137.5100 C   0  0  0  0  0  2  0  0  0  0  0  0
  192.5940  175.8790  137.8850 N   0  0  0  0  0  2  0  0  0  0  0  0
  192.6310  174.4990  137.4390 C   0  0  0  0  0  2  0  0  0  0  0  0
  194.0450  174.1140  137.0550 C   0  0  0  0  0  2  0  0  0  0  0  0
  194.9760  175.0870  137.5990 N   0  0  0  0  0  2  0  0  0  0  0  0
  197.5910  174.0280  138.1360 C   0  0  0  0  0  1  0  0  0  0  0  0
  195.9530  174.2840  138.7810 S   0  0  0  0  0  0  0  0  0  0  0  0
  196.0380  175.1420  140.0090 O   0  0  0  0  0  0  0  0  0  0  0  0
  195.3420  172.9590  139.1440 O   0  0  0  0  0  0  0  0  0  0  0  0
  188.0210  176.6760  142.9810 C   0  0  0  0  0  2  0  0  0  0  0  0
  188.2760  176.4060  144.4580 C   0  0  0  0  0  2  0  0  0  0  0  0
  185.3090  178.4430  145.6470 C   0  0  0  0  0  3  0  0  0  0  0  0
  187.4060  177.2770  145.2930 C   0  0  0  0  0  0  0  0  0  0  0  0
  187.0260  178.4940  147.3540 C   0  0  0  0  0  3  0  0  0  0  0  0
  186.1330  177.6480  144.8430 C   0  0  0  0  0  3  0  0  0  0  0  0
  187.8490  177.6970  146.5510 C   0  0  0  0  0  3  0  0  0  0  0  0
  185.7560  178.8670  146.9020 C   0  0  0  0  0  3  0  0  0  0  0  0
  1 45  1  6  0  0  0
  2  5  1  0  0  0  0
  3  2  1  0  0  0  0
  3  6  1  0  0  0  0
  4  7  1  0  0  0  0
  4  1  1  6  0  0  0
  5  4  1  0  0  0  0
  6  8  1  1  0  0  0
  6  7  1  0  0  0  0
  8  9  1  1  0  0  0
 10 18  1  0  0  0  0
 11 23  1  1  0  0  0
 11 22  1  0  0  0  0
 12 19  2  0  0  0  0
 12 10  1  0  0  0  0
 13 14  1  0  0  0  0
 13 15  2  0  0  0  0
 14 21  2  0  0  0  0
 15 12  1  0  0  0  0
 16 18  1  0  0  0  0
 17 11  1  0  0  0  0
 17 15  1  0  0  0  0
 18  8  1  0  0  0  0
 19 16  1  0  0  0  0
 20 10  2  0  0  0  0
 21 20  1  0  0  0  0
 22 19  1  0  0  0  0
 24 33  1  1  0  0  0
 24  1  1  0  0  0  0
 25 30  1  0  0  0  0
 26 25  1  0  0  0  0
 26 29  1  0  0  0  0
 27 24  1  6  0  0  0
 27 26  1  0  0  0  0
 27 25  1  0  0  0  0
 28 26  1  0  0  0  0
 30 32  1  0  0  0  0
 32 31  3  0  0  0  0
 34 33  1  0  0  0  0
 35 34  1  0  0  0  0
 36 37  1  0  0  0  0
 36 35  1  0  0  0  0
 38 37  1  0  0  0  0
 39 38  1  0  0  0  0
 39 40  1  0  0  0  0
 40 42  1  0  0  0  0
 41 42  1  0  0  0  0
 42 44  2  0  0  0  0
 42 43  2  0  0  0  0
 45 46  1  0  0  0  0
 46 48  1  0  0  0  0
 47 52  1  0  0  0  0
 48 51  2  0  0  0  0
 50 48  1  0  0  0  0
 50 47  2  0  0  0  0
 51 49  1  0  0  0  0
 52 49  2  0  0  0  0
M  END
>  <MODEL>
2

>  <REMARK>
 VINA RESULT:      -6.5      3.476      9.280
  Name = 
  19 active torsions:
  status: ('A' for Active; 'I' for Inactive)
    1  A    between atoms: C_2  and  N_14
    2  A    between atoms: C_2  and  C_25
    3  A    between atoms: C_3  and  C_15
    4  A    between atoms: C_3  and  C_35
    5  A    between atoms: C_5  and  N_23
    6  A    between atoms: C_5  and  C_32
    7  A    between atoms: C_15  and  C_28
    8  A    between atoms: C_15  and  C_30
    9  A    between atoms: S_16  and  N_49
   10  A    between atoms: N_20  and  C_24
   11  A    between atoms: N_20  and  C_48
   12  A    between atoms: C_21  and  C_33
   13  A    between atoms: C_21  and  O_42
   14  A    between atoms: C_22  and  C_30
   15  A    between atoms: C_24  and  C_41
   16  A    between atoms: C_26  and  C_35
   17  A    between atoms: C_30  and  O_42
   18  A    between atoms: C_33  and  C_48
   19  A    between atoms: C_41  and  N_49
                            x       y       z     vdW  Elec       q    Type
                         _______ _______ _______ _____ _____    ______ ____

>  <TORSDO>
F 19

$$$$
=
 OpenBabel10222417453D

 52 57  0  0  1  0  0  0  0  0999 V2000
  188.1600  178.2250  142.5260 C   0  0  2  0  0  3  0  0  0  0  0  0
  188.8910  178.1980  139.3290 C   0  0  0  0  0  2  0  0  0  0  0  0
  187.7080  178.2510  138.3600 C   0  0  0  0  0  2  0  0  0  0  0  0
  187.6990  178.8630  141.2090 C   0  0  1  0  0  3  0  0  0  0  0  0
  188.7670  179.1860  140.3260 O   0  0  0  0  0  0  0  0  0  0  0  0
  186.3890  178.4950  139.1050 C   0  0  2  0  0  3  0  0  0  0  0  0
  186.4980  178.1300  140.5820 C   0  0  0  0  0  2  0  0  0  0  0  0
  185.2000  177.7950  138.4400 C   0  0  2  0  0  3  0  0  0  0  0  0
  185.3400  177.7480  136.9220 C   0  0  0  0  0  1  0  0  0  0  0  0
  182.7200  177.7740  139.1770 C   0  0  0  0  0  0  0  0  0  0  0  0
  180.2410  181.2300  139.5570 C   0  0  1  0  0  3  0  0  0  0  0  0
  181.6890  178.7890  139.2030 C   0  0  0  0  0  0  0  0  0  0  0  0
  179.6270  177.6010  139.7430 N   0  0  0  0  0  0  0  0  0  0  0  0
  180.0870  176.2380  139.8070 C   0  0  0  0  0  3  0  0  0  0  0  0
  180.2620  178.7080  139.5060 C   0  0  0  0  0  0  0  0  0  0  0  0
  183.6190  179.7450  138.6090 O   0  0  0  0  0  0  0  0  0  0  0  0
  179.5370  179.9450  139.5140 N   0  0  0  0  0  2  0  0  0  0  0  0
  183.9410  178.4280  138.8320 N   0  0  0  0  0  0  0  0  0  0  0  0
  182.2640  179.9320  138.8580 C   0  0  0  0  0  0  0  0  0  0  0  0
  182.5810  176.4670  139.3530 C   0  0  0  0  0  3  0  0  0  0  0  0
  181.3270  175.7630  139.6460 C   0  0  0  0  0  3  0  0  0  0  0  0
  181.5060  181.2180  138.6810 C   0  0  0  0  0  2  0  0  0  0  0  0
  179.3130  182.3370  139.1100 C   0  0  0  0  0  1  0  0  0  0  0  0
  189.6480  177.8410  142.5050 C   0  0  1  0  0  3  0  0  0  0  0  0
  189.6840  178.1520  144.9960 N   0  0  0  0  0  0  0  0  0  0  0  0
  191.1040  178.0770  144.5830 C   0  0  0  0  0  0  0  0  0  0  0  0
  190.1030  177.2750  143.8730 C   0  0  2  0  0  3  0  0  0  0  0  0
  191.5690  179.2710  144.0250 O   0  0  0  0  0  1  0  0  0  0  0  0
  191.9580  177.4160  145.4730 O   0  0  0  0  0  1  0  0  0  0  0  0
  189.3960  177.2630  146.1140 C   0  0  0  0  0  2  0  0  0  0  0  0
  187.6700  178.4270  147.7840 C   0  0  0  0  0  3  0  0  0  0  0  0
  188.4570  177.9090  147.0290 C   0  0  0  0  0  0  0  0  0  0  0  0
  189.9290  176.9730  141.4390 O   0  0  0  0  0  0  0  0  0  0  0  0
  191.3180  177.0140  141.2970 C   0  0  0  0  0  2  0  0  0  0  0  0
  191.6820  176.9050  139.8320 C   0  0  0  0  0  2  0  0  0  0  0  0
  193.1500  177.2350  139.6650 C   0  0  0  0  0  2  0  0  0  0  0  0
  193.5820  176.8760  138.3290 N   0  0  0  0  0  2  0  0  0  0  0  0
  192.8910  175.6470  137.9880 C   0  0  0  0  0  2  0  0  0  0  0  0
  193.8750  174.6330  137.4410 C   0  0  0  0  0  2  0  0  0  0  0  0
  195.2190  175.1790  137.5030 N   0  0  0  0  0  2  0  0  0  0  0  0
  197.7360  173.9150  138.0610 C   0  0  0  0  0  1  0  0  0  0  0  0
  196.1070  174.2720  138.6800 S   0  0  0  0  0  0  0  0  0  0  0  0
  196.2280  175.0860  139.9350 O   0  0  0  0  0  0  0  0  0  0  0  0
  195.3920  172.9870  138.9900 O   0  0  0  0  0  0  0  0  0  0  0  0
  187.2260  177.1130  143.0220 C   0  0  0  0  0  2  0  0  0  0  0  0
  186.5600  177.4380  144.3530 C   0  0  0  0  0  2  0  0  0  0  0  0
  183.3840  178.6000  142.6400 C   0  0  0  0  0  3  0  0  0  0  0  0
  185.2320  178.0660  144.1170 C   0  0  0  0  0  0  0  0  0  0  0  0
  183.2860  179.2290  144.9760 C   0  0  0  0  0  3  0  0  0  0  0  0
  184.6470  178.0340  142.8450 C   0  0  0  0  0  3  0  0  0  0  0  0
  184.5470  178.6600  145.1830 C   0  0  0  0  0  3  0  0  0  0  0  0
  182.7050  179.1990  143.7050 C   0  0  0  0  0  3  0  0  0  0  0  0
  1 45  1  6  0  0  0
  2  5  1  0  0  0  0
  3  6  1  0  0  0  0
  3  2  1  0  0  0  0
  4  1  1  1  0  0  0
  5  4  1  0  0  0  0
  6  8  1  6  0  0  0
  6  7  1  0  0  0  0
  7  4  1  0  0  0  0
  8  9  1  6  0  0  0
  8 18  1  0  0  0  0
 10 12  1  0  0  0  0
 10 20  2  0  0  0  0
 11 23  1  6  0  0  0
 12 15  1  0  0  0  0
 13 14  1  0  0  0  0
 15 17  1  0  0  0  0
 15 13  2  0  0  0  0
 16 18  1  0  0  0  0
 16 19  1  0  0  0  0
 17 11  1  0  0  0  0
 18 10  1  0  0  0  0
 19 12  2  0  0  0  0
 20 21  1  0  0  0  0
 21 14  2  0  0  0  0
 22 19  1  0  0  0  0
 22 11  1  0  0  0  0
 24 33  1  6  0  0  0
 24  1  1  0  0  0  0
 25 30  1  0  0  0  0
 26 25  1  0  0  0  0
 26 29  1  0  0  0  0
 27 24  1  6  0  0  0
 27 26  1  0  0  0  0
 27 25  1  0  0  0  0
 28 26  1  0  0  0  0
 30 32  1  0  0  0  0
 32 31  3  0  0  0  0
 34 33  1  0  0  0  0
 35 34  1  0  0  0  0
 36 35  1  0  0  0  0
 37 36  1  0  0  0  0
 38 37  1  0  0  0  0
 39 40  1  0  0  0  0
 39 38  1  0  0  0  0
 40 42  1  0  0  0  0
 41 42  1  0  0  0  0
 42 44  2  0  0  0  0
 42 43  2  0  0  0  0
 45 46  1  0  0  0  0
 47 50  2  0  0  0  0
 47 52  1  0  0  0  0
 48 46  1  0  0  0  0
 48 51  2  0  0  0  0
 49 51  1  0  0  0  0
 50 48  1  0  0  0  0
 52 49  2  0  0  0  0
M  END
>  <MODEL>
3

>  <REMARK>
 VINA RESULT:      -6.5      3.610      8.931
  Name = 
  19 active torsions:
  status: ('A' for Active; 'I' for Inactive)
    1  A    between atoms: C_2  and  N_14
    2  A    between atoms: C_2  and  C_25
    3  A    between atoms: C_3  and  C_15
    4  A    between atoms: C_3  and  C_35
    5  A    between atoms: C_5  and  N_23
    6  A    between atoms: C_5  and  C_32
    7  A    between atoms: C_15  and  C_28
    8  A    between atoms: C_15  and  C_30
    9  A    between atoms: S_16  and  N_49
   10  A    between atoms: N_20  and  C_24
   11  A    between atoms: N_20  and  C_48
   12  A    between atoms: C_21  and  C_33
   13  A    between atoms: C_21  and  O_42
   14  A    between atoms: C_22  and  C_30
   15  A    between atoms: C_24  and  C_41
   16  A    between atoms: C_26  and  C_35
   17  A    between atoms: C_30  and  O_42
   18  A    between atoms: C_33  and  C_48
   19  A    between atoms: C_41  and  N_49
                            x       y       z     vdW  Elec       q    Type
                         _______ _______ _______ _____ _____    ______ ____

>  <TORSDO>
F 19

$$$$
=
 OpenBabel10222417453D

 52 57  0  0  1  0  0  0  0  0999 V2000
  186.9820  177.9800  141.8020 C   0  0  2  0  0  3  0  0  0  0  0  0
  189.9830  177.1480  140.7710 C   0  0  0  0  0  2  0  0  0  0  0  0
  190.2420  177.2650  139.2680 C   0  0  0  0  0  2  0  0  0  0  0  0
  188.0410  178.4250  140.7850 C   0  0  1  0  0  3  0  0  0  0  0  0
  189.3760  178.3200  141.2670 O   0  0  0  0  0  0  0  0  0  0  0  0
  189.0650  177.9380  138.5510 C   0  0  2  0  0  3  0  0  0  0  0  0
  187.7830  177.8630  139.3740 C   0  0  0  0  0  2  0  0  0  0  0  0
  188.8540  177.3990  137.1330 C   0  0  2  0  0  3  0  0  0  0  0  0
  188.7840  178.5200  136.1000 C   0  0  0  0  0  1  0  0  0  0  0  0
  187.6190  175.1320  136.9510 C   0  0  0  0  0  0  0  0  0  0  0  0
  183.3980  174.6630  136.5140 C   0  0  1  0  0  3  0  0  0  0  0  0
  186.2540  174.7750  136.6360 C   0  0  0  0  0  0  0  0  0  0  0  0
  186.2630  172.3470  136.3890 N   0  0  0  0  0  0  0  0  0  0  0  0
  187.6570  172.0430  136.5790 C   0  0  0  0  0  3  0  0  0  0  0  0
  185.6220  173.4760  136.4160 C   0  0  0  0  0  0  0  0  0  0  0  0
  186.3950  177.0000  136.7800 O   0  0  0  0  0  0  0  0  0  0  0  0
  184.2050  173.4810  136.1970 N   0  0  0  0  0  2  0  0  0  0  0  0
  187.6620  176.5540  137.0710 N   0  0  0  0  0  0  0  0  0  0  0  0
  185.5710  175.9060  136.5410 C   0  0  0  0  0  0  0  0  0  0  0  0
  188.6730  174.3310  137.0360 C   0  0  0  0  0  3  0  0  0  0  0  0
  188.6680  172.8740  136.8530 C   0  0  0  0  0  3  0  0  0  0  0  0
  184.1240  175.9670  136.1380 C   0  0  0  0  0  2  0  0  0  0  0  0
  182.0700  174.5840  135.7950 C   0  0  0  0  0  1  0  0  0  0  0  0
  185.6150  178.6400  141.5570 C   0  0  1  0  0  3  0  0  0  0  0  0
  184.8890  178.5910  143.9600 N   0  0  0  0  0  0  0  0  0  0  0  0
  183.7770  179.2300  143.2200 C   0  0  0  0  0  0  0  0  0  0  0  0
  185.1580  179.4610  142.7880 C   0  0  2  0  0  3  0  0  0  0  0  0
  182.9760  178.3070  142.5420 O   0  0  0  0  0  1  0  0  0  0  0  0
  183.1220  180.2670  143.8930 O   0  0  0  0  0  1  0  0  0  0  0  0
  185.2770  179.3630  145.1330 C   0  0  0  0  0  2  0  0  0  0  0  0
  185.2660  177.7970  147.2940 C   0  0  0  0  0  3  0  0  0  0  0  0
  185.2800  178.5010  146.3130 C   0  0  0  0  0  0  0  0  0  0  0  0
  185.6250  179.3950  140.3740 O   0  0  0  0  0  0  0  0  0  0  0  0
  184.3220  179.3100  139.8810 C   0  0  0  0  0  2  0  0  0  0  0  0
  184.0940  177.9400  139.2810 C   0  0  0  0  0  2  0  0  0  0  0  0
  182.6080  177.7340  139.0760 C   0  0  0  0  0  2  0  0  0  0  0  0
  181.9730  179.0050  138.7960 N   0  0  0  0  0  2  0  0  0  0  0  0
  180.8660  179.1290  139.7250 C   0  0  0  0  0  2  0  0  0  0  0  0
  180.3090  180.5370  139.6870 C   0  0  0  0  0  2  0  0  0  0  0  0
  179.5670  180.7310  138.4540 N   0  0  0  0  0  2  0  0  0  0  0  0
  180.5560  181.5640  135.8900 C   0  0  0  0  0  1  0  0  0  0  0  0
  180.3060  182.0340  137.5880 S   0  0  0  0  0  0  0  0  0  0  0  0
  179.4010  183.2290  137.6370 O   0  0  0  0  0  0  0  0  0  0  0  0
  181.6280  182.3870  138.2120 O   0  0  0  0  0  0  0  0  0  0  0  0
  187.4670  178.0520  143.2560 C   0  0  0  0  0  2  0  0  0  0  0  0
  187.8390  176.6920  143.8330 C   0  0  0  0  0  2  0  0  0  0  0  0
  189.8200  177.2120  147.0220 C   0  0  0  0  0  3  0  0  0  0  0  0
  188.9770  176.8340  144.7800 C   0  0  0  0  0  0  0  0  0  0  0  0
  191.3610  176.7600  145.2110 C   0  0  0  0  0  3  0  0  0  0  0  0
  188.7440  177.1100  146.1330 C   0  0  0  0  0  3  0  0  0  0  0  0
  190.2860  176.6550  144.3220 C   0  0  0  0  0  3  0  0  0  0  0  0
  191.1280  177.0390  146.5610 C   0  0  0  0  0  3  0  0  0  0  0  0
  1 45  1  1  0  0  0
  2  5  1  0  0  0  0
  3  2  1  0  0  0  0
  4  5  1  0  0  0  0
  4  1  1  1  0  0  0
  6  8  1  6  0  0  0
  6  3  1  0  0  0  0
  6  7  1  0  0  0  0
  7  4  1  0  0  0  0
  8  9  1  6  0  0  0
 10 20  2  0  0  0  0
 10 18  1  0  0  0  0
 11 23  1  6  0  0  0
 12 10  1  0  0  0  0
 13 15  2  0  0  0  0
 13 14  1  0  0  0  0
 14 21  2  0  0  0  0
 15 12  1  0  0  0  0
 16 18  1  0  0  0  0
 17 15  1  0  0  0  0
 17 11  1  0  0  0  0
 18  8  1  0  0  0  0
 19 12  2  0  0  0  0
 19 16  1  0  0  0  0
 21 20  1  0  0  0  0
 22 11  1  0  0  0  0
 22 19  1  0  0  0  0
 24 33  1  6  0  0  0
 24  1  1  0  0  0  0
 25 30  1  0  0  0  0
 26 29  1  0  0  0  0
 26 25  1  0  0  0  0
 27 24  1  6  0  0  0
 27 26  1  0  0  0  0
 27 25  1  0  0  0  0
 28 26  1  0  0  0  0
 30 32  1  0  0  0  0
 32 31  3  0  0  0  0
 34 33  1  0  0  0  0
 35 34  1  0  0  0  0
 36 35  1  0  0  0  0
 37 36  1  0  0  0  0
 37 38  1  0  0  0  0
 39 38  1  0  0  0  0
 40 39  1  0  0  0  0
 41 42  1  0  0  0  0
 42 43  2  0  0  0  0
 42 44  2  0  0  0  0
 42 40  1  0  0  0  0
 45 46  1  0  0  0  0
 46 48  1  0  0  0  0
 48 50  1  0  0  0  0
 49 52  2  0  0  0  0
 50 47  2  0  0  0  0
 51 48  2  0  0  0  0
 51 49  1  0  0  0  0
 52 47  1  0  0  0  0
M  END
>  <MODEL>
4

>  <REMARK>
 VINA RESULT:      -6.1      3.195      8.797
  Name = 
  19 active torsions:
  status: ('A' for Active; 'I' for Inactive)
    1  A    between atoms: C_2  and  N_14
    2  A    between atoms: C_2  and  C_25
    3  A    between atoms: C_3  and  C_15
    4  A    between atoms: C_3  and  C_35
    5  A    between atoms: C_5  and  N_23
    6  A    between atoms: C_5  and  C_32
    7  A    between atoms: C_15  and  C_28
    8  A    between atoms: C_15  and  C_30
    9  A    between atoms: S_16  and  N_49
   10  A    between atoms: N_20  and  C_24
   11  A    between atoms: N_20  and  C_48
   12  A    between atoms: C_21  and  C_33
   13  A    between atoms: C_21  and  O_42
   14  A    between atoms: C_22  and  C_30
   15  A    between atoms: C_24  and  C_41
   16  A    between atoms: C_26  and  C_35
   17  A    between atoms: C_30  and  O_42
   18  A    between atoms: C_33  and  C_48
   19  A    between atoms: C_41  and  N_49
                            x       y       z     vdW  Elec       q    Type
                         _______ _______ _______ _____ _____    ______ ____

>  <TORSDO>
F 19

$$$$
=
 OpenBabel10222417453D

 52 57  0  0  1  0  0  0  0  0999 V2000
  191.4980  176.7680  138.2600 C   0  0  2  0  0  3  0  0  0  0  0  0
  191.6350  177.7200  141.3960 C   0  0  0  0  0  2  0  0  0  0  0  0
  190.3230  177.6630  142.1810 C   0  0  0  0  0  2  0  0  0  0  0  0
  190.9210  176.3890  139.6300 C   0  0  1  0  0  3  0  0  0  0  0  0
  191.8530  176.5160  140.6970 O   0  0  0  0  0  0  0  0  0  0  0  0
  189.2160  176.9810  141.3680 C   0  0  2  0  0  3  0  0  0  0  0  0
  189.5240  176.9910  139.8740 C   0  0  0  0  0  2  0  0  0  0  0  0
  187.8290  177.5620  141.6580 C   0  0  2  0  0  3  0  0  0  0  0  0
  187.6670  178.9670  141.0850 C   0  0  0  0  0  1  0  0  0  0  0  0
  186.3430  177.9510  143.7400 C   0  0  0  0  0  0  0  0  0  0  0  0
  187.6390  177.5680  147.7890 C   0  0  1  0  0  3  0  0  0  0  0  0
  186.6290  178.0360  145.1550 C   0  0  0  0  0  0  0  0  0  0  0  0
  184.5500  178.7850  146.1910 N   0  0  0  0  0  0  0  0  0  0  0  0
  183.7030  178.9640  145.0400 C   0  0  0  0  0  3  0  0  0  0  0  0
  185.7810  178.3850  146.2920 C   0  0  0  0  0  0  0  0  0  0  0  0
  188.5010  177.4600  144.0800 O   0  0  0  0  0  0  0  0  0  0  0  0
  186.3800  178.2910  147.5910 N   0  0  0  0  0  2  0  0  0  0  0  0
  187.5490  177.5460  143.0930 N   0  0  0  0  0  0  0  0  0  0  0  0
  187.9120  177.7430  145.3070 C   0  0  0  0  0  0  0  0  0  0  0  0
  185.2150  178.2620  143.1160 C   0  0  0  0  0  3  0  0  0  0  0  0
  183.9800  178.7430  143.7510 C   0  0  0  0  0  3  0  0  0  0  0  0
  188.6230  177.8060  146.6300 C   0  0  0  0  0  2  0  0  0  0  0  0
  188.2710  177.9880  149.0980 C   0  0  0  0  0  1  0  0  0  0  0  0
  190.7010  176.1580  137.0950 C   0  0  1  0  0  3  0  0  0  0  0  0
  191.2180  173.9900  135.9370 N   0  0  0  0  0  0  0  0  0  0  0  0
  189.7690  173.9440  136.2430 C   0  0  0  0  0  0  0  0  0  0  0  0
  190.6830  174.6110  137.1750 C   0  0  2  0  0  3  0  0  0  0  0  0
  189.0030  174.7000  135.3520 O   0  0  0  0  0  1  0  0  0  0  0  0
  189.2690  172.6890  136.6060 O   0  0  0  0  0  1  0  0  0  0  0  0
  191.9010  172.7750  136.3590 C   0  0  0  0  0  2  0  0  0  0  0  0
  193.8110  172.1650  134.5980 C   0  0  0  0  0  3  0  0  0  0  0  0
  192.9550  172.4430  135.4010 C   0  0  0  0  0  0  0  0  0  0  0  0
  189.4150  176.7130  137.0200 O   0  0  0  0  0  0  0  0  0  0  0  0
  189.5870  177.9340  136.3640 C   0  0  0  0  0  2  0  0  0  0  0  0
  188.6360  178.9590  136.9430 C   0  0  0  0  0  2  0  0  0  0  0  0
  187.2990  178.2990  137.2020 C   0  0  0  0  0  2  0  0  0  0  0  0
  186.5390  178.2370  135.9700 N   0  0  0  0  0  2  0  0  0  0  0  0
  186.0240  176.8840  135.8700 C   0  0  0  0  0  2  0  0  0  0  0  0
  184.5400  176.8680  136.1750 C   0  0  0  0  0  2  0  0  0  0  0  0
  184.2970  176.0500  137.3500 N   0  0  0  0  0  2  0  0  0  0  0  0
  184.0540  178.3290  139.0800 C   0  0  0  0  0  1  0  0  0  0  0  0
  183.2180  176.9190  138.3880 S   0  0  0  0  0  0  0  0  0  0  0  0
  182.0430  177.3930  137.5840 O   0  0  0  0  0  0  0  0  0  0  0  0
  182.7340  176.0250  139.4960 O   0  0  0  0  0  0  0  0  0  0  0  0
  193.0160  176.5650  138.1620 C   0  0  0  0  0  2  0  0  0  0  0  0
  193.5040  176.3600  136.7340 C   0  0  0  0  0  2  0  0  0  0  0  0
  195.8670  173.5630  137.7120 C   0  0  0  0  0  3  0  0  0  0  0  0
  194.6450  175.4060  136.7170 C   0  0  0  0  0  0  0  0  0  0  0  0
  196.6000  174.5020  135.6040 C   0  0  0  0  0  3  0  0  0  0  0  0
  194.8080  174.4760  137.7510 C   0  0  0  0  0  3  0  0  0  0  0  0
  195.5400  175.4140  135.6420 C   0  0  0  0  0  3  0  0  0  0  0  0
  196.7640  173.5770  136.6400 C   0  0  0  0  0  3  0  0  0  0  0  0
  1 45  1  1  0  0  0
  2  3  1  0  0  0  0
  4  1  1  6  0  0  0
  4  7  1  0  0  0  0
  4  5  1  0  0  0  0
  5  2  1  0  0  0  0
  6  8  1  6  0  0  0
  6  3  1  0  0  0  0
  7  6  1  0  0  0  0
  8  9  1  1  0  0  0
  8 18  1  0  0  0  0
 10 12  1  0  0  0  0
 11 23  1  1  0  0  0
 12 19  2  0  0  0  0
 12 15  1  0  0  0  0
 13 15  2  0  0  0  0
 14 13  1  0  0  0  0
 15 17  1  0  0  0  0
 16 19  1  0  0  0  0
 17 11  1  0  0  0  0
 18 10  1  0  0  0  0
 18 16  1  0  0  0  0
 19 22  1  0  0  0  0
 20 10  2  0  0  0  0
 20 21  1  0  0  0  0
 21 14  2  0  0  0  0
 22 11  1  0  0  0  0
 24 33  1  1  0  0  0
 24  1  1  0  0  0  0
 25 26  1  0  0  0  0
 25 30  1  0  0  0  0
 25 27  1  0  0  0  0
 26 29  1  0  0  0  0
 26 27  1  0  0  0  0
 27 24  1  6  0  0  0
 28 26  1  0  0  0  0
 31 32  3  0  0  0  0
 32 30  1  0  0  0  0
 34 35  1  0  0  0  0
 34 33  1  0  0  0  0
 35 36  1  0  0  0  0
 37 36  1  0  0  0  0
 38 37  1  0  0  0  0
 38 39  1  0  0  0  0
 39 40  1  0  0  0  0
 40 42  1  0  0  0  0
 42 41  1  0  0  0  0
 42 44  2  0  0  0  0
 43 42  2  0  0  0  0
 46 45  1  0  0  0  0
 47 50  1  0  0  0  0
 48 46  1  0  0  0  0
 48 50  2  0  0  0  0
 49 51  2  0  0  0  0
 49 52  1  0  0  0  0
 51 48  1  0  0  0  0
 52 47  2  0  0  0  0
M  END
>  <MODEL>
5

>  <REMARK>
 VINA RESULT:      -6.0      3.610      9.138
  Name = 
  19 active torsions:
  status: ('A' for Active; 'I' for Inactive)
    1  A    between atoms: C_2  and  N_14
    2  A    between atoms: C_2  and  C_25
    3  A    between atoms: C_3  and  C_15
    4  A    between atoms: C_3  and  C_35
    5  A    between atoms: C_5  and  N_23
    6  A    between atoms: C_5  and  C_32
    7  A    between atoms: C_15  and  C_28
    8  A    between atoms: C_15  and  C_30
    9  A    between atoms: S_16  and  N_49
   10  A    between atoms: N_20  and  C_24
   11  A    between atoms: N_20  and  C_48
   12  A    between atoms: C_21  and  C_33
   13  A    between atoms: C_21  and  O_42
   14  A    between atoms: C_22  and  C_30
   15  A    between atoms: C_24  and  C_41
   16  A    between atoms: C_26  and  C_35
   17  A    between atoms: C_30  and  O_42
   18  A    between atoms: C_33  and  C_48
   19  A    between atoms: C_41  and  N_49
                            x       y       z     vdW  Elec       q    Type
                         _______ _______ _______ _____ _____    ______ ____

>  <TORSDO>
F 19

$$$$
=
 OpenBabel10222417453D

 52 57  0  0  1  0  0  0  0  0999 V2000
  188.5880  178.2740  140.3620 C   0  0  2  0  0  3  0  0  0  0  0  0
  189.1320  178.8750  137.1840 C   0  0  0  0  0  2  0  0  0  0  0  0
  188.8370  177.7290  136.2150 C   0  0  0  0  0  2  0  0  0  0  0  0
  187.9750  177.9760  138.9880 C   0  0  1  0  0  3  0  0  0  0  0  0
  188.0590  179.0660  138.0770 O   0  0  0  0  0  0  0  0  0  0  0  0
  188.1560  176.5560  136.9310 C   0  0  2  0  0  3  0  0  0  0  0  0
  188.3920  176.5990  138.4370 C   0  0  0  0  0  2  0  0  0  0  0  0
  188.5460  175.1980  136.3400 C   0  0  2  0  0  3  0  0  0  0  0  0
  188.9870  175.3140  134.8840 C   0  0  0  0  0  1  0  0  0  0  0  0
  187.4170  172.8970  135.9910 C   0  0  0  0  0  0  0  0  0  0  0  0
  183.3790  171.9610  137.0160 C   0  0  1  0  0  3  0  0  0  0  0  0
  186.0500  172.4400  136.1110 C   0  0  0  0  0  0  0  0  0  0  0  0
  186.0440  170.1740  135.2030 N   0  0  0  0  0  0  0  0  0  0  0  0
  187.4110  170.0320  134.7750 C   0  0  0  0  0  3  0  0  0  0  0  0
  185.4270  171.1610  135.7800 C   0  0  0  0  0  0  0  0  0  0  0  0
  186.1600  174.5580  136.8150 O   0  0  0  0  0  0  0  0  0  0  0  0
  184.0380  171.0200  136.1070 N   0  0  0  0  0  2  0  0  0  0  0  0
  187.4550  174.2360  136.4830 N   0  0  0  0  0  0  0  0  0  0  0  0
  185.3460  173.4520  136.5960 C   0  0  0  0  0  0  0  0  0  0  0  0
  188.4460  172.2560  135.4550 C   0  0  0  0  0  3  0  0  0  0  0  0
  188.4200  170.9030  134.8830 C   0  0  0  0  0  3  0  0  0  0  0  0
  183.8550  173.4060  136.7860 C   0  0  0  0  0  2  0  0  0  0  0  0
  181.8790  171.8770  136.8430 C   0  0  0  0  0  1  0  0  0  0  0  0
  189.8680  177.4630  140.6250 C   0  0  1  0  0  3  0  0  0  0  0  0
  189.7380  177.2920  143.1270 N   0  0  0  0  0  0  0  0  0  0  0  0
  190.8740  176.4290  142.7260 C   0  0  0  0  0  0  0  0  0  0  0  0
  189.7020  176.5320  141.8520 C   0  0  2  0  0  3  0  0  0  0  0  0
  192.0300  177.1570  142.4350 O   0  0  0  0  0  1  0  0  0  0  0  0
  191.0320  175.2550  143.4700 O   0  0  0  0  0  1  0  0  0  0  0  0
  188.8270  176.6040  144.0320 C   0  0  0  0  0  2  0  0  0  0  0  0
  188.8120  177.8240  146.4050 C   0  0  0  0  0  3  0  0  0  0  0  0
  188.8280  177.2680  145.3340 C   0  0  0  0  0  0  0  0  0  0  0  0
  190.2740  176.7740  139.4720 O   0  0  0  0  0  0  0  0  0  0  0  0
  191.6350  177.0590  139.3430 C   0  0  0  0  0  2  0  0  0  0  0  0
  192.1150  176.6320  137.9730 C   0  0  0  0  0  2  0  0  0  0  0  0
  191.8860  175.1450  137.8120 C   0  0  0  0  0  2  0  0  0  0  0  0
  192.2030  174.7450  136.4560 N   0  0  0  0  0  2  0  0  0  0  0  0
  192.6230  173.3580  136.5210 C   0  0  0  0  0  2  0  0  0  0  0  0
  194.0910  173.2420  136.1680 C   0  0  0  0  0  2  0  0  0  0  0  0
  194.8620  172.9990  137.3740 N   0  0  0  0  0  2  0  0  0  0  0  0
  197.4660  174.0580  137.9650 C   0  0  0  0  0  1  0  0  0  0  0  0
  195.7430  174.4430  137.7400 S   0  0  0  0  0  0  0  0  0  0  0  0
  195.6020  175.4050  136.5970 O   0  0  0  0  0  0  0  0  0  0  0  0
  195.2010  175.0770  138.9910 O   0  0  0  0  0  0  0  0  0  0  0  0
  187.5660  178.2310  141.5060 C   0  0  0  0  0  2  0  0  0  0  0  0
  186.1650  178.6470  141.0750 C   0  0  0  0  0  2  0  0  0  0  0  0
  183.0390  178.8760  143.2060 C   0  0  0  0  0  3  0  0  0  0  0  0
  185.2640  178.7040  142.2570 C   0  0  0  0  0  0  0  0  0  0  0  0
  184.9560  178.5960  144.6590 C   0  0  0  0  0  3  0  0  0  0  0  0
  183.8820  178.8530  142.0900 C   0  0  0  0  0  3  0  0  0  0  0  0
  185.7990  178.5700  143.5430 C   0  0  0  0  0  3  0  0  0  0  0  0
  183.5770  178.7490  144.4910 C   0  0  0  0  0  3  0  0  0  0  0  0
  1 24  1  0  0  0  0
  1 45  1  1  0  0  0
  2  5  1  0  0  0  0
  3  6  1  0  0  0  0
  3  2  1  0  0  0  0
  4  1  1  1  0  0  0
  5  4  1  0  0  0  0
  6  8  1  6  0  0  0
  6  7  1  0  0  0  0
  7  4  1  0  0  0  0
  8  9  1  6  0  0  0
  8 18  1  0  0  0  0
 10 12  1  0  0  0  0
 10 18  1  0  0  0  0
 11 23  1  6  0  0  0
 12 19  2  0  0  0  0
 13 15  2  0  0  0  0
 14 21  2  0  0  0  0
 14 13  1  0  0  0  0
 15 17  1  0  0  0  0
 15 12  1  0  0  0  0
 17 11  1  0  0  0  0
 18 16  1  0  0  0  0
 19 22  1  0  0  0  0
 19 16  1  0  0  0  0
 20 10  2  0  0  0  0
 21 20  1  0  0  0  0
 22 11  1  0  0  0  0
 24 33  1  6  0  0  0
 25 30  1  0  0  0  0
 26 25  1  0  0  0  0
 26 29  1  0  0  0  0
 27 24  1  6  0  0  0
 27 26  1  0  0  0  0
 27 25  1  0  0  0  0
 28 26  1  0  0  0  0
 30 32  1  0  0  0  0
 32 31  3  0  0  0  0
 34 33  1  0  0  0  0
 35 34  1  0  0  0  0
 36 35  1  0  0  0  0
 37 38  1  0  0  0  0
 37 36  1  0  0  0  0
 39 38  1  0  0  0  0
 39 40  1  0  0  0  0
 40 42  1  0  0  0  0
 42 41  1  0  0  0  0
 42 44  2  0  0  0  0
 43 42  2  0  0  0  0
 46 45  1  0  0  0  0
 46 48  1  0  0  0  0
 47 52  1  0  0  0  0
 48 51  2  0  0  0  0
 50 48  1  0  0  0  0
 50 47  2  0  0  0  0
 51 49  1  0  0  0  0
 52 49  2  0  0  0  0
M  END
>  <MODEL>
6

>  <REMARK>
 VINA RESULT:      -6.0      3.946      9.252
  Name = 
  19 active torsions:
  status: ('A' for Active; 'I' for Inactive)
    1  A    between atoms: C_2  and  N_14
    2  A    between atoms: C_2  and  C_25
    3  A    between atoms: C_3  and  C_15
    4  A    between atoms: C_3  and  C_35
    5  A    between atoms: C_5  and  N_23
    6  A    between atoms: C_5  and  C_32
    7  A    between atoms: C_15  and  C_28
    8  A    between atoms: C_15  and  C_30
    9  A    between atoms: S_16  and  N_49
   10  A    between atoms: N_20  and  C_24
   11  A    between atoms: N_20  and  C_48
   12  A    between atoms: C_21  and  C_33
   13  A    between atoms: C_21  and  O_42
   14  A    between atoms: C_22  and  C_30
   15  A    between atoms: C_24  and  C_41
   16  A    between atoms: C_26  and  C_35
   17  A    between atoms: C_30  and  O_42
   18  A    between atoms: C_33  and  C_48
   19  A    between atoms: C_41  and  N_49
                            x       y       z     vdW  Elec       q    Type
                         _______ _______ _______ _____ _____    ______ ____

>  <TORSDO>
F 19

$$$$
=
 OpenBabel10222417453D

 52 57  0  0  1  0  0  0  0  0999 V2000
  188.3170  178.0220  142.4450 C   0  0  2  0  0  3  0  0  0  0  0  0
  188.9590  178.1450  139.2300 C   0  0  0  0  0  2  0  0  0  0  0  0
  187.7480  178.2300  138.2990 C   0  0  0  0  0  2  0  0  0  0  0  0
  187.8140  178.7140  141.1710 C   0  0  1  0  0  3  0  0  0  0  0  0
  188.8540  179.0860  140.2740 O   0  0  0  0  0  0  0  0  0  0  0  0
  186.4490  178.4270  139.0890 C   0  0  2  0  0  3  0  0  0  0  0  0
  186.6020  177.9970  140.5450 C   0  0  0  0  0  2  0  0  0  0  0  0
  185.2480  177.7460  138.4280 C   0  0  2  0  0  3  0  0  0  0  0  0
  185.3880  177.6880  136.9090 C   0  0  0  0  0  1  0  0  0  0  0  0
  182.7860  177.7760  139.2250 C   0  0  0  0  0  0  0  0  0  0  0  0
  180.3260  181.2560  139.4710 C   0  0  1  0  0  3  0  0  0  0  0  0
  181.7590  178.7940  139.2200 C   0  0  0  0  0  0  0  0  0  0  0  0
  179.7080  177.6460  139.8760 N   0  0  0  0  0  0  0  0  0  0  0  0
  180.1670  176.2870  140.0040 C   0  0  0  0  0  3  0  0  0  0  0  0
  180.3400  178.7360  139.5610 C   0  0  0  0  0  0  0  0  0  0  0  0
  183.6760  179.7080  138.5260 O   0  0  0  0  0  0  0  0  0  0  0  0
  179.6180  179.9740  139.5190 N   0  0  0  0  0  2  0  0  0  0  0  0
  184.0000  178.4040  138.8140 N   0  0  0  0  0  0  0  0  0  0  0  0
  182.3280  179.9140  138.7970 C   0  0  0  0  0  0  0  0  0  0  0  0
  182.6490  176.4810  139.4770 C   0  0  0  0  0  3  0  0  0  0  0  0
  181.4010  175.7990  139.8400 C   0  0  0  0  0  3  0  0  0  0  0  0
  181.5690  181.1910  138.5670 C   0  0  0  0  0  2  0  0  0  0  0  0
  179.3900  182.3410  138.9860 C   0  0  0  0  0  1  0  0  0  0  0  0
  189.8390  177.8070  142.4360 C   0  0  1  0  0  3  0  0  0  0  0  0
  189.7090  178.1000  144.9270 N   0  0  0  0  0  0  0  0  0  0  0  0
  191.1290  178.3330  144.5710 C   0  0  0  0  0  0  0  0  0  0  0  0
  190.3500  177.3420  143.8220 C   0  0  2  0  0  3  0  0  0  0  0  0
  191.3500  179.6030  144.0300 O   0  0  0  0  0  1  0  0  0  0  0  0
  192.0680  177.8630  145.4950 O   0  0  0  0  0  1  0  0  0  0  0  0
  189.5740  177.1630  146.0330 C   0  0  0  0  0  2  0  0  0  0  0  0
  188.3920  178.3650  148.1020 C   0  0  0  0  0  3  0  0  0  0  0  0
  188.9350  177.8270  147.1680 C   0  0  0  0  0  0  0  0  0  0  0  0
  190.2200  176.9420  141.3990 O   0  0  0  0  0  0  0  0  0  0  0  0
  191.6080  176.8360  141.5090 C   0  0  0  0  0  2  0  0  0  0  0  0
  192.2640  177.5130  140.3250 C   0  0  0  0  0  2  0  0  0  0  0  0
  192.2590  176.5600  139.1490 C   0  0  0  0  0  2  0  0  0  0  0  0
  193.4890  176.7050  138.3980 N   0  0  0  0  0  2  0  0  0  0  0  0
  193.1750  176.3680  137.0220 C   0  0  0  0  0  2  0  0  0  0  0  0
  191.6790  176.1960  136.8570 C   0  0  0  0  0  2  0  0  0  0  0  0
  191.4110  175.3990  135.6730 N   0  0  0  0  0  2  0  0  0  0  0  0
  192.6200  172.8300  136.1080 C   0  0  0  0  0  1  0  0  0  0  0  0
  191.1130  173.7720  136.1850 S   0  0  0  0  0  0  0  0  0  0  0  0
  190.6170  173.7890  137.6000 O   0  0  0  0  0  0  0  0  0  0  0  0
  190.0750  173.1350  135.3030 O   0  0  0  0  0  0  0  0  0  0  0  0
  187.5040  176.7760  142.8220 C   0  0  0  0  0  2  0  0  0  0  0  0
  187.0530  176.7710  144.2770 C   0  0  0  0  0  2  0  0  0  0  0  0
  184.4020  178.9990  145.8170 C   0  0  0  0  0  3  0  0  0  0  0  0
  185.8420  177.6190  144.4370 C   0  0  0  0  0  0  0  0  0  0  0  0
  183.9070  178.7080  143.4650 C   0  0  0  0  0  3  0  0  0  0  0  0
  185.5270  178.1780  145.6820 C   0  0  0  0  0  3  0  0  0  0  0  0
  185.0330  177.8890  143.3290 C   0  0  0  0  0  3  0  0  0  0  0  0
  183.5910  179.2630  144.7090 C   0  0  0  0  0  3  0  0  0  0  0  0
  1 45  1  6  0  0  0
  2  5  1  0  0  0  0
  3  6  1  0  0  0  0
  3  2  1  0  0  0  0
  4  1  1  1  0  0  0
  5  4  1  0  0  0  0
  6  8  1  6  0  0  0
  6  7  1  0  0  0  0
  7  4  1  0  0  0  0
  8  9  1  6  0  0  0
  8 18  1  0  0  0  0
 10 20  2  0  0  0  0
 11 23  1  6  0  0  0
 11 17  1  0  0  0  0
 12 10  1  0  0  0  0
 12 15  1  0  0  0  0
 13 14  1  0  0  0  0
 15 13  2  0  0  0  0
 16 19  1  0  0  0  0
 16 18  1  0  0  0  0
 17 15  1  0  0  0  0
 18 10  1  0  0  0  0
 19 12  2  0  0  0  0
 20 21  1  0  0  0  0
 21 14  2  0  0  0  0
 22 19  1  0  0  0  0
 22 11  1  0  0  0  0
 24 33  1  6  0  0  0
 24  1  1  0  0  0  0
 25 30  1  0  0  0  0
 26 25  1  0  0  0  0
 26 29  1  0  0  0  0
 27 24  1  6  0  0  0
 27 26  1  0  0  0  0
 27 25  1  0  0  0  0
 28 26  1  0  0  0  0
 30 32  1  0  0  0  0
 32 31  3  0  0  0  0
 33 34  1  0  0  0  0
 35 34  1  0  0  0  0
 36 35  1  0  0  0  0
 37 36  1  0  0  0  0
 38 37  1  0  0  0  0
 39 38  1  0  0  0  0
 40 42  1  0  0  0  0
 40 39  1  0  0  0  0
 41 42  1  0  0  0  0
 42 43  2  0  0  0  0
 44 42  2  0  0  0  0
 45 46  1  0  0  0  0
 46 48  1  0  0  0  0
 48 50  2  0  0  0  0
 49 52  1  0  0  0  0
 50 47  1  0  0  0  0
 51 49  2  0  0  0  0
 51 48  1  0  0  0  0
 52 47  2  0  0  0  0
M  END
>  <MODEL>
7

>  <REMARK>
 VINA RESULT:      -6.0      3.018      8.805
  Name = 
  19 active torsions:
  status: ('A' for Active; 'I' for Inactive)
    1  A    between atoms: C_2  and  N_14
    2  A    between atoms: C_2  and  C_25
    3  A    between atoms: C_3  and  C_15
    4  A    between atoms: C_3  and  C_35
    5  A    between atoms: C_5  and  N_23
    6  A    between atoms: C_5  and  C_32
    7  A    between atoms: C_15  and  C_28
    8  A    between atoms: C_15  and  C_30
    9  A    between atoms: S_16  and  N_49
   10  A    between atoms: N_20  and  C_24
   11  A    between atoms: N_20  and  C_48
   12  A    between atoms: C_21  and  C_33
   13  A    between atoms: C_21  and  O_42
   14  A    between atoms: C_22  and  C_30
   15  A    between atoms: C_24  and  C_41
   16  A    between atoms: C_26  and  C_35
   17  A    between atoms: C_30  and  O_42
   18  A    between atoms: C_33  and  C_48
   19  A    between atoms: C_41  and  N_49
                            x       y       z     vdW  Elec       q    Type
                         _______ _______ _______ _____ _____    ______ ____

>  <TORSDO>
F 19

$$$$
=
 OpenBabel10222417453D

 52 57  0  0  1  0  0  0  0  0999 V2000
  188.9260  177.4800  139.6970 C   0  0  2  0  0  3  0  0  0  0  0  0
  189.0140  178.3780  136.5440 C   0  0  0  0  0  2  0  0  0  0  0  0
  187.7160  178.2080  135.7520 C   0  0  0  0  0  2  0  0  0  0  0  0
  188.0470  178.1720  138.6470 C   0  0  1  0  0  3  0  0  0  0  0  0
  188.7700  179.0280  137.7700 O   0  0  0  0  0  0  0  0  0  0  0  0
  186.5530  177.8080  136.6680 C   0  0  2  0  0  3  0  0  0  0  0  0
  187.0470  177.2070  137.9800 C   0  0  0  0  0  2  0  0  0  0  0  0
  185.5460  176.8860  135.9740 C   0  0  2  0  0  3  0  0  0  0  0  0
  185.0850  177.4500  134.6330 C   0  0  0  0  0  1  0  0  0  0  0  0
  183.5910  175.4390  136.8550 C   0  0  0  0  0  0  0  0  0  0  0  0
  180.6740  176.7200  139.6980 C   0  0  1  0  0  3  0  0  0  0  0  0
  182.4310  175.7360  137.6670 C   0  0  0  0  0  0  0  0  0  0  0  0
  181.0580  173.7190  137.5930 N   0  0  0  0  0  0  0  0  0  0  0  0
  181.8210  172.8840  136.7040 C   0  0  0  0  0  3  0  0  0  0  0  0
  181.2780  174.9200  138.0380 C   0  0  0  0  0  0  0  0  0  0  0  0
  183.7200  177.5580  137.5690 O   0  0  0  0  0  0  0  0  0  0  0  0
  180.3330  175.5150  138.9380 N   0  0  0  0  0  2  0  0  0  0  0  0
  184.4060  176.6110  136.8470 N   0  0  0  0  0  0  0  0  0  0  0  0
  182.5480  176.9950  138.0610 C   0  0  0  0  0  0  0  0  0  0  0  0
  183.8430  174.3340  136.1680 C   0  0  0  0  0  3  0  0  0  0  0  0
  182.9900  173.1390  136.1080 C   0  0  0  0  0  3  0  0  0  0  0  0
  181.4940  177.7140  138.8570 C   0  0  0  0  0  2  0  0  0  0  0  0
  179.4110  177.3850  140.1990 C   0  0  0  0  0  1  0  0  0  0  0  0
  188.5210  177.8440  141.1350 C   0  0  1  0  0  3  0  0  0  0  0  0
  190.0150  176.7590  142.8380 N   0  0  0  0  0  0  0  0  0  0  0  0
  189.4890  177.9810  143.4890 C   0  0  0  0  0  0  0  0  0  0  0  0
  189.7630  177.9920  142.0490 C   0  0  2  0  0  3  0  0  0  0  0  0
  188.1790  177.8270  143.9510 O   0  0  0  0  0  1  0  0  0  0  0  0
  190.3850  178.6500  144.3290 O   0  0  0  0  0  1  0  0  0  0  0  0
  191.4620  176.6530  142.9690 C   0  0  0  0  0  2  0  0  0  0  0  0
  192.0880  174.8030  144.7870 C   0  0  0  0  0  3  0  0  0  0  0  0
  191.7950  175.6370  143.9650 C   0  0  0  0  0  0  0  0  0  0  0  0
  187.6950  178.9780  141.1550 O   0  0  0  0  0  0  0  0  0  0  0  0
  186.5220  178.5580  141.7870 C   0  0  0  0  0  2  0  0  0  0  0  0
  185.3220  179.0080  140.9830 C   0  0  0  0  0  2  0  0  0  0  0  0
  184.1150  178.1980  141.4060 C   0  0  0  0  0  2  0  0  0  0  0  0
  183.2510  179.0100  142.2390 N   0  0  0  0  0  2  0  0  0  0  0  0
  183.3220  178.4510  143.5760 C   0  0  0  0  0  2  0  0  0  0  0  0
  183.8050  179.5020  144.5540 C   0  0  0  0  0  2  0  0  0  0  0  0
  185.2330  179.3450  144.7670 N   0  0  0  0  0  2  0  0  0  0  0  0
  186.4760  179.4320  147.3550 C   0  0  0  0  0  1  0  0  0  0  0  0
  185.4560  178.4800  146.2500 S   0  0  0  0  0  0  0  0  0  0  0  0
  184.1180  178.2560  146.8910 O   0  0  0  0  0  0  0  0  0  0  0  0
  186.1060  177.1510  145.9820 O   0  0  0  0  0  0  0  0  0  0  0  0
  190.4280  177.6080  139.4120 C   0  0  0  0  0  2  0  0  0  0  0  0
  191.1230  176.2630  139.2390 C   0  0  0  0  0  2  0  0  0  0  0  0
  191.8760  175.7600  135.5590 C   0  0  0  0  0  3  0  0  0  0  0  0
  191.0160  175.8130  137.8260 C   0  0  0  0  0  0  0  0  0  0  0  0
  189.8860  174.5040  136.1280 C   0  0  0  0  0  3  0  0  0  0  0  0
  191.9680  176.2130  136.8800 C   0  0  0  0  0  3  0  0  0  0  0  0
  189.9780  174.9540  137.4490 C   0  0  0  0  0  3  0  0  0  0  0  0
  190.8350  174.9070  135.1830 C   0  0  0  0  0  3  0  0  0  0  0  0
  1 45  1  6  0  0  0
  1 24  1  0  0  0  0
  2  5  1  0  0  0  0
  3  2  1  0  0  0  0
  3  6  1  0  0  0  0
  4  1  1  6  0  0  0
  5  4  1  0  0  0  0
  6  8  1  6  0  0  0
  6  7  1  0  0  0  0
  7  4  1  0  0  0  0
  8  9  1  6  0  0  0
  8 18  1  0  0  0  0
 10 12  1  0  0  0  0
 11 23  1  6  0  0  0
 12 15  1  0  0  0  0
 12 19  2  0  0  0  0
 13 15  2  0  0  0  0
 14 13  1  0  0  0  0
 15 17  1  0  0  0  0
 16 19  1  0  0  0  0
 17 11  1  0  0  0  0
 18 10  1  0  0  0  0
 18 16  1  0  0  0  0
 19 22  1  0  0  0  0
 20 10  2  0  0  0  0
 21 20  1  0  0  0  0
 21 14  2  0  0  0  0
 22 11  1  0  0  0  0
 24 33  1  6  0  0  0
 25 30  1  0  0  0  0
 25 26  1  0  0  0  0
 26 28  1  0  0  0  0
 26 29  1  0  0  0  0
 27 24  1  6  0  0  0
 27 25  1  0  0  0  0
 27 26  1  0  0  0  0
 30 32  1  0  0  0  0
 32 31  3  0  0  0  0
 33 34  1  0  0  0  0
 35 36  1  0  0  0  0
 35 34  1  0  0  0  0
 36 37  1  0  0  0  0
 37 38  1  0  0  0  0
 38 39  1  0  0  0  0
 39 40  1  0  0  0  0
 40 42  1  0  0  0  0
 42 43  2  0  0  0  0
 42 41  1  0  0  0  0
 44 42  2  0  0  0  0
 46 45  1  0  0  0  0
 47 50  1  0  0  0  0
 48 46  1  0  0  0  0
 49 51  2  0  0  0  0
 50 48  2  0  0  0  0
 51 48  1  0  0  0  0
 52 47  2  0  0  0  0
 52 49  1  0  0  0  0
M  END
>  <MODEL>
8

>  <REMARK>
 VINA RESULT:      -5.9      2.567      9.977
  Name = 
  19 active torsions:
  status: ('A' for Active; 'I' for Inactive)
    1  A    between atoms: C_2  and  N_14
    2  A    between atoms: C_2  and  C_25
    3  A    between atoms: C_3  and  C_15
    4  A    between atoms: C_3  and  C_35
    5  A    between atoms: C_5  and  N_23
    6  A    between atoms: C_5  and  C_32
    7  A    between atoms: C_15  and  C_28
    8  A    between atoms: C_15  and  C_30
    9  A    between atoms: S_16  and  N_49
   10  A    between atoms: N_20  and  C_24
   11  A    between atoms: N_20  and  C_48
   12  A    between atoms: C_21  and  C_33
   13  A    between atoms: C_21  and  O_42
   14  A    between atoms: C_22  and  C_30
   15  A    between atoms: C_24  and  C_41
   16  A    between atoms: C_26  and  C_35
   17  A    between atoms: C_30  and  O_42
   18  A    between atoms: C_33  and  C_48
   19  A    between atoms: C_41  and  N_49
                            x       y       z     vdW  Elec       q    Type
                         _______ _______ _______ _____ _____    ______ ____

>  <TORSDO>
F 19

$$$$
=
 OpenBabel10222417453D

 52 57  0  0  1  0  0  0  0  0999 V2000
  186.4180  177.8510  142.3780 C   0  0  2  0  0  3  0  0  0  0  0  0
  189.5080  177.5310  141.3230 C   0  0  0  0  0  2  0  0  0  0  0  0
  189.7610  177.8630  139.8520 C   0  0  0  0  0  2  0  0  0  0  0  0
  187.4200  178.5450  141.4470 C   0  0  1  0  0  3  0  0  0  0  0  0
  188.7540  178.5480  141.9430 O   0  0  0  0  0  0  0  0  0  0  0  0
  188.5150  178.4680  139.1940 C   0  0  2  0  0  3  0  0  0  0  0  0
  187.2460  178.1340  139.9730 C   0  0  0  0  0  2  0  0  0  0  0  0
  188.3830  178.0850  137.7170 C   0  0  2  0  0  3  0  0  0  0  0  0
  187.4730  179.0450  136.9570 C   0  0  0  0  0  1  0  0  0  0  0  0
  188.6950  175.5750  137.1690 C   0  0  0  0  0  0  0  0  0  0  0  0
  185.5500  172.6930  136.9840 C   0  0  1  0  0  3  0  0  0  0  0  0
  187.7650  174.5010  136.8980 C   0  0  0  0  0  0  0  0  0  0  0  0
  189.1400  172.6280  136.1540 N   0  0  0  0  0  0  0  0  0  0  0  0
  190.4550  173.2140  136.1640 C   0  0  0  0  0  3  0  0  0  0  0  0
  187.9810  173.1230  136.4650 C   0  0  0  0  0  0  0  0  0  0  0  0
  186.6060  176.3190  137.4880 O   0  0  0  0  0  0  0  0  0  0  0  0
  186.8170  172.2910  136.3660 N   0  0  0  0  0  2  0  0  0  0  0  0
  187.9220  176.7040  137.5770 N   0  0  0  0  0  0  0  0  0  0  0  0
  186.5470  174.9860  137.0940 C   0  0  0  0  0  0  0  0  0  0  0  0
  190.0100  175.5760  137.0020 C   0  0  0  0  0  3  0  0  0  0  0  0
  190.8210  174.4490  136.5230 C   0  0  0  0  0  3  0  0  0  0  0  0
  185.2920  174.2020  136.8300 C   0  0  0  0  0  2  0  0  0  0  0  0
  184.4110  171.9080  136.3740 C   0  0  0  0  0  1  0  0  0  0  0  0
  184.9580  178.1440  141.9970 C   0  0  1  0  0  3  0  0  0  0  0  0
  183.0260  179.2850  143.1230 N   0  0  0  0  0  0  0  0  0  0  0  0
  184.1770  179.4480  144.0420 C   0  0  0  0  0  0  0  0  0  0  0  0
  184.0530  178.2200  143.2510 C   0  0  2  0  0  3  0  0  0  0  0  0
  185.0550  180.4560  143.6360 O   0  0  0  0  0  1  0  0  0  0  0  0
  183.8740  179.3780  145.4060 O   0  0  0  0  0  1  0  0  0  0  0  0
  181.8440  178.7900  143.8160 C   0  0  0  0  0  2  0  0  0  0  0  0
  179.6440  179.7550  142.6540 C   0  0  0  0  0  3  0  0  0  0  0  0
  180.6400  179.3120  143.1720 C   0  0  0  0  0  0  0  0  0  0  0  0
  184.8680  179.2900  141.1920 O   0  0  0  0  0  0  0  0  0  0  0  0
  183.8930  178.9870  140.2400 C   0  0  0  0  0  2  0  0  0  0  0  0
  183.8040  180.1080  139.2280 C   0  0  0  0  0  2  0  0  0  0  0  0
  182.3730  180.2240  138.7470 C   0  0  0  0  0  2  0  0  0  0  0  0
  181.5330  179.3060  139.4880 N   0  0  0  0  0  2  0  0  0  0  0  0
  180.2130  179.3780  138.8900 C   0  0  0  0  0  2  0  0  0  0  0  0
  179.5560  178.0130  138.9140 C   0  0  0  0  0  2  0  0  0  0  0  0
  180.0040  177.2810  140.0840 N   0  0  0  0  0  2  0  0  0  0  0  0
  179.6920  175.3020  138.0260 C   0  0  0  0  0  1  0  0  0  0  0  0
  180.4840  175.6990  139.5690 S   0  0  0  0  0  0  0  0  0  0  0  0
  181.9720  175.6790  139.3750 O   0  0  0  0  0  0  0  0  0  0  0  0
  180.1060  174.6800  140.6070 O   0  0  0  0  0  0  0  0  0  0  0  0
  186.7350  178.0480  143.8670 C   0  0  0  0  0  2  0  0  0  0  0  0
  187.6320  176.9580  144.4390 C   0  0  0  0  0  2  0  0  0  0  0  0
  189.7920  177.5230  147.5020 C   0  0  0  0  0  3  0  0  0  0  0  0
  188.0600  177.3220  145.8170 C   0  0  0  0  0  0  0  0  0  0  0  0
  187.5330  178.2430  147.9960 C   0  0  0  0  0  3  0  0  0  0  0  0
  189.3920  177.1500  146.2140 C   0  0  0  0  0  3  0  0  0  0  0  0
  187.1330  177.8730  146.7080 C   0  0  0  0  0  3  0  0  0  0  0  0
  188.8630  178.0680  148.3930 C   0  0  0  0  0  3  0  0  0  0  0  0
  1 45  1  1  0  0  0
  2  5  1  0  0  0  0
  3  2  1  0  0  0  0
  4  5  1  0  0  0  0
  4  1  1  1  0  0  0
  6  8  1  6  0  0  0
  6  3  1  0  0  0  0
  6  7  1  0  0  0  0
  7  4  1  0  0  0  0
  8  9  1  1  0  0  0
 10 18  1  0  0  0  0
 11 23  1  6  0  0  0
 12 19  2  0  0  0  0
 12 10  1  0  0  0  0
 13 14  1  0  0  0  0
 13 15  2  0  0  0  0
 14 21  2  0  0  0  0
 15 12  1  0  0  0  0
 16 18  1  0  0  0  0
 17 15  1  0  0  0  0
 17 11  1  0  0  0  0
 18  8  1  0  0  0  0
 19 16  1  0  0  0  0
 20 10  2  0  0  0  0
 21 20  1  0  0  0  0
 22 11  1  0  0  0  0
 22 19  1  0  0  0  0
 24 33  1  1  0  0  0
 24  1  1  0  0  0  0
 25 27  1  0  0  0  0
 25 30  1  0  0  0  0
 25 26  1  0  0  0  0
 26 29  1  0  0  0  0
 27 24  1  6  0  0  0
 27 26  1  0  0  0  0
 28 26  1  0  0  0  0
 31 32  3  0  0  0  0
 32 30  1  0  0  0  0
 34 33  1  0  0  0  0
 35 34  1  0  0  0  0
 36 35  1  0  0  0  0
 36 37  1  0  0  0  0
 38 39  1  0  0  0  0
 38 37  1  0  0  0  0
 39 40  1  0  0  0  0
 41 42  1  0  0  0  0
 42 40  1  0  0  0  0
 42 44  2  0  0  0  0
 43 42  2  0  0  0  0
 45 46  1  0  0  0  0
 46 48  1  0  0  0  0
 47 52  1  0  0  0  0
 48 50  1  0  0  0  0
 48 51  2  0  0  0  0
 49 52  2  0  0  0  0
 50 47  2  0  0  0  0
 51 49  1  0  0  0  0
M  END
>  <MODEL>
9

>  <REMARK>
 VINA RESULT:      -5.9      2.881      8.372
  Name = 
  19 active torsions:
  status: ('A' for Active; 'I' for Inactive)
    1  A    between atoms: C_2  and  N_14
    2  A    between atoms: C_2  and  C_25
    3  A    between atoms: C_3  and  C_15
    4  A    between atoms: C_3  and  C_35
    5  A    between atoms: C_5  and  N_23
    6  A    between atoms: C_5  and  C_32
    7  A    between atoms: C_15  and  C_28
    8  A    between atoms: C_15  and  C_30
    9  A    between atoms: S_16  and  N_49
   10  A    between atoms: N_20  and  C_24
   11  A    between atoms: N_20  and  C_48
   12  A    between atoms: C_21  and  C_33
   13  A    between atoms: C_21  and  O_42
   14  A    between atoms: C_22  and  C_30
   15  A    between atoms: C_24  and  C_41
   16  A    between atoms: C_26  and  C_35
   17  A    between atoms: C_30  and  O_42
   18  A    between atoms: C_33  and  C_48
   19  A    between atoms: C_41  and  N_49
                            x       y       z     vdW  Elec       q    Type
                         _______ _______ _______ _____ _____    ______ ____

>  <TORSDO>
F 19

$$$$
