=
 OpenBabel10222416343D

 32 36  0  0  1  0  0  0  0  0999 V2000
  190.1240  178.2390  144.3040 C   0  0  0  0  0  2  0  0  0  0  0  0
  190.0720  177.4440  141.8670 C   0  0  2  0  0  3  0  0  0  0  0  0
  188.6160  176.3380  143.5710 C   0  0  0  0  0  2  0  0  0  0  0  0
  190.4190  178.5810  142.8420 C   0  0  0  0  0  2  0  0  0  0  0  0
  188.8570  177.5120  144.4200 N   0  0  0  0  0  0  0  0  0  0  0  0
  189.7480  176.1240  142.5690 C   0  0  0  0  0  2  0  0  0  0  0  0
  186.5820  178.1340  145.2260 C   0  0  0  0  0  0  0  0  0  0  0  0
  186.0580  178.1130  143.8840 N   0  0  0  0  0  0  0  0  0  0  0  0
  187.9800  178.0780  149.1440 F   0  0  0  0  0  0  0  0  0  0  0  0
  185.7190  178.4390  146.2990 C   0  0  0  0  0  0  0  0  0  0  0  0
  188.3870  177.7990  146.8130 C   0  0  0  0  0  3  0  0  0  0  0  0
  183.8740  178.7330  144.6890 C   0  0  0  0  0  0  0  0  0  0  0  0
  184.3440  178.3440  142.1820 C   0  0  0  0  0  2  0  0  0  0  0  0
  182.6350  179.0150  144.4260 N   0  0  0  0  0  0  0  0  0  0  0  0
  186.1910  178.4230  147.6120 C   0  0  0  0  0  3  0  0  0  0  0  0
  182.1170  179.0090  143.0870 C   0  0  0  0  0  3  0  0  0  0  0  0
  184.8170  178.3860  143.6060 C   0  0  0  0  0  0  0  0  0  0  0  0
  187.9360  177.8200  145.4820 C   0  0  0  0  0  0  0  0  0  0  0  0
  184.3480  178.7510  146.0370 N   0  0  0  0  0  2  0  0  0  0  0  0
  187.5230  178.1000  147.8690 C   0  0  0  0  0  0  0  0  0  0  0  0
  182.8890  178.7030  142.0400 C   0  0  0  0  0  3  0  0  0  0  0  0
  192.1920  176.6970  139.0120 N   0  0  0  0  0  0  0  0  0  0  0  0
  193.1060  177.2400  139.8360 C   0  0  0  0  0  3  0  0  0  0  0  0
  190.9950  176.6870  139.6190 C   0  0  0  0  0  3  0  0  0  0  0  0
  192.4910  177.6140  141.0180 C   0  0  0  0  0  3  0  0  0  0  0  0
  191.1600  177.2590  140.8610 C   0  0  0  0  0  0  0  0  0  0  0  0
  192.4690  176.1490  137.6960 C   0  0  0  0  0  2  0  0  0  0  0  0
  193.8890  175.8700  137.5720 N   0  0  0  0  0  2  0  0  0  0  0  0
  194.0360  174.4260  137.6210 C   0  0  0  0  0  2  0  0  0  0  0  0
  195.3240  172.8550  138.8610 O   0  0  0  0  0  0  0  0  0  0  0  0
  195.0890  174.0640  138.6070 C   0  0  0  0  0  0  0  0  0  0  0  0
  195.8400  175.0590  139.2180 O   0  0  0  0  0  1  0  0  0  0  0  0
  1  5  1  0  0  0  0
  2 26  1  6  0  0  0
  2  6  1  0  0  0  0
  2  4  1  0  0  0  0
  3  5  1  0  0  0  0
  4  1  1  0  0  0  0
  5 18  1  0  0  0  0
  6  3  1  0  0  0  0
  7 18  2  0  0  0  0
  7 10  1  0  0  0  0
  8  7  1  0  0  0  0
 10 15  2  0  0  0  0
 11 20  2  0  0  0  0
 12 19  1  0  0  0  0
 13 17  1  0  0  0  0
 14 12  2  0  0  0  0
 15 20  1  0  0  0  0
 16 14  1  0  0  0  0
 17  8  2  0  0  0  0
 17 12  1  0  0  0  0
 18 11  1  0  0  0  0
 19 10  1  0  0  0  0
 20  9  1  0  0  0  0
 21 13  1  0  0  0  0
 21 16  2  0  0  0  0
 22 24  1  0  0  0  0
 22 23  1  0  0  0  0
 23 25  2  0  0  0  0
 24 26  2  0  0  0  0
 26 25  1  0  0  0  0
 27 22  1  0  0  0  0
 28 29  1  0  0  0  0
 28 27  1  0  0  0  0
 29 31  1  0  0  0  0
 31 30  2  0  0  0  0
 31 32  1  0  0  0  0
M  END
>  <MODEL>
1

>  <REMARK>
 VINA RESULT:      -9.7      0.000      0.000
  Name = 
  6 active torsions:
  status: ('A' for Active; 'I' for Inactive)
    1  A    between atoms: N_8  and  C_9
    2  A    between atoms: N_8  and  C_14
    3  A    between atoms: C_9  and  C_28
    4  A    between atoms: N_10  and  C_14
    5  A    between atoms: C_17  and  C_31
    6  A    between atoms: C_20  and  N_24
                            x       y       z     vdW  Elec       q    Type
                         _______ _______ _______ _____ _____    ______ ____

>  <TORSDO>
F 6

$$$$
=
 OpenBabel10222416343D

 32 36  0  0  1  0  0  0  0  0999 V2000
  189.6010  178.5780  142.8100 C   0  0  0  0  0  2  0  0  0  0  0  0
  189.5360  176.8490  140.9180 C   0  0  2  0  0  3  0  0  0  0  0  0
  189.6790  176.0910  143.2950 C   0  0  0  0  0  2  0  0  0  0  0  0
  189.2310  178.2910  141.3520 C   0  0  0  0  0  2  0  0  0  0  0  0
  189.2450  177.4440  143.6660 N   0  0  0  0  0  0  0  0  0  0  0  0
  190.3740  176.0750  141.9350 C   0  0  0  0  0  2  0  0  0  0  0  0
  187.2790  178.0020  145.0940 C   0  0  0  0  0  0  0  0  0  0  0  0
  186.4180  178.0890  143.9430 N   0  0  0  0  0  0  0  0  0  0  0  0
  189.6650  177.6330  148.4820 F   0  0  0  0  0  0  0  0  0  0  0  0
  186.7390  178.2220  146.3790 C   0  0  0  0  0  0  0  0  0  0  0  0
  189.4330  177.5400  146.1130 C   0  0  0  0  0  3  0  0  0  0  0  0
  184.5410  178.6450  145.3460 C   0  0  0  0  0  0  0  0  0  0  0  0
  184.3200  178.4570  142.7810 C   0  0  0  0  0  2  0  0  0  0  0  0
  183.2830  178.9480  145.4440 N   0  0  0  0  0  0  0  0  0  0  0  0
  187.5420  178.1000  147.5130 C   0  0  0  0  0  3  0  0  0  0  0  0
  182.4280  179.0490  144.2950 C   0  0  0  0  0  3  0  0  0  0  0  0
  185.1540  178.3850  144.0270 C   0  0  0  0  0  0  0  0  0  0  0  0
  188.6460  177.6670  144.9560 C   0  0  0  0  0  0  0  0  0  0  0  0
  185.3550  178.5550  146.5160 N   0  0  0  0  0  2  0  0  0  0  0  0
  188.8870  177.7560  147.3810 C   0  0  0  0  0  0  0  0  0  0  0  0
  182.8870  178.8270  143.0600 C   0  0  0  0  0  3  0  0  0  0  0  0
  191.7080  176.6260  138.0130 N   0  0  0  0  0  0  0  0  0  0  0  0
  190.5550  176.9640  137.4080 C   0  0  0  0  0  3  0  0  0  0  0  0
  191.5080  176.5460  139.3380 C   0  0  0  0  0  3  0  0  0  0  0  0
  189.5610  177.0980  138.3600 C   0  0  0  0  0  3  0  0  0  0  0  0
  190.1800  176.8280  139.5710 C   0  0  0  0  0  0  0  0  0  0  0  0
  192.9830  176.4390  137.3440 C   0  0  0  0  0  2  0  0  0  0  0  0
  193.9980  176.0730  138.3180 N   0  0  0  0  0  2  0  0  0  0  0  0
  194.4860  174.7600  137.9380 C   0  0  0  0  0  2  0  0  0  0  0  0
  195.8020  173.0570  138.9550 O   0  0  0  0  0  0  0  0  0  0  0  0
  195.4290  174.2590  138.9730 C   0  0  0  0  0  0  0  0  0  0  0  0
  195.9300  175.1260  139.9340 O   0  0  0  0  0  1  0  0  0  0  0  0
  1  5  1  0  0  0  0
  2 26  1  6  0  0  0
  2  4  1  0  0  0  0
  2  6  1  0  0  0  0
  3  5  1  0  0  0  0
  4  1  1  0  0  0  0
  5 18  1  0  0  0  0
  6  3  1  0  0  0  0
  7 10  1  0  0  0  0
  8 17  2  0  0  0  0
  8  7  1  0  0  0  0
 10 19  1  0  0  0  0
 10 15  2  0  0  0  0
 11 20  2  0  0  0  0
 12 14  2  0  0  0  0
 12 19  1  0  0  0  0
 13 21  1  0  0  0  0
 13 17  1  0  0  0  0
 16 14  1  0  0  0  0
 17 12  1  0  0  0  0
 18  7  2  0  0  0  0
 18 11  1  0  0  0  0
 20 15  1  0  0  0  0
 20  9  1  0  0  0  0
 21 16  2  0  0  0  0
 22 24  1  0  0  0  0
 23 22  1  0  0  0  0
 23 25  2  0  0  0  0
 24 26  2  0  0  0  0
 25 26  1  0  0  0  0
 27 22  1  0  0  0  0
 27 28  1  0  0  0  0
 29 28  1  0  0  0  0
 29 31  1  0  0  0  0
 30 31  2  0  0  0  0
 31 32  1  0  0  0  0
M  END
>  <MODEL>
2

>  <REMARK>
 VINA RESULT:      -9.5      1.074      1.423
  Name = 
  6 active torsions:
  status: ('A' for Active; 'I' for Inactive)
    1  A    between atoms: N_8  and  C_9
    2  A    between atoms: N_8  and  C_14
    3  A    between atoms: C_9  and  C_28
    4  A    between atoms: N_10  and  C_14
    5  A    between atoms: C_17  and  C_31
    6  A    between atoms: C_20  and  N_24
                            x       y       z     vdW  Elec       q    Type
                         _______ _______ _______ _____ _____    ______ ____

>  <TORSDO>
F 6

$$$$
=
 OpenBabel10222416343D

 32 36  0  0  1  0  0  0  0  0999 V2000
  190.6970  177.9920  144.2380 C   0  0  0  0  0  2  0  0  0  0  0  0
  190.2830  177.3900  141.7810 C   0  0  2  0  0  3  0  0  0  0  0  0
  188.8920  176.3420  143.5730 C   0  0  0  0  0  2  0  0  0  0  0  0
  190.8740  178.4030  142.7740 C   0  0  0  0  0  2  0  0  0  0  0  0
  189.3700  177.4140  144.4570 N   0  0  0  0  0  0  0  0  0  0  0  0
  189.8730  176.0700  142.4350 C   0  0  0  0  0  2  0  0  0  0  0  0
  187.2460  178.0960  145.5690 C   0  0  0  0  0  0  0  0  0  0  0  0
  186.5380  178.0820  144.3160 N   0  0  0  0  0  0  0  0  0  0  0  0
  189.1800  178.0230  149.2520 F   0  0  0  0  0  0  0  0  0  0  0  0
  186.5500  178.4280  146.7510 C   0  0  0  0  0  0  0  0  0  0  0  0
  189.2480  177.7230  146.8900 C   0  0  0  0  0  3  0  0  0  0  0  0
  184.5050  178.7600  145.4150 C   0  0  0  0  0  0  0  0  0  0  0  0
  184.6080  178.3480  142.8690 C   0  0  0  0  0  2  0  0  0  0  0  0
  183.2490  179.0710  145.3260 N   0  0  0  0  0  0  0  0  0  0  0  0
  187.2020  178.4050  147.9850 C   0  0  0  0  0  3  0  0  0  0  0  0
  182.5470  179.0720  144.0730 C   0  0  0  0  0  3  0  0  0  0  0  0
  185.2770  178.3850  144.2120 C   0  0  0  0  0  0  0  0  0  0  0  0
  188.6150  177.7490  145.6360 C   0  0  0  0  0  0  0  0  0  0  0  0
  185.1640  178.7720  146.6820 N   0  0  0  0  0  2  0  0  0  0  0  0
  188.5490  178.0500  148.0540 C   0  0  0  0  0  0  0  0  0  0  0  0
  183.1560  178.7430  142.9300 C   0  0  0  0  0  3  0  0  0  0  0  0
  192.0040  176.4660  138.7170 N   0  0  0  0  0  0  0  0  0  0  0  0
  193.0040  177.1030  139.3540 C   0  0  0  0  0  3  0  0  0  0  0  0
  190.9070  176.4740  139.4900 C   0  0  0  0  0  3  0  0  0  0  0  0
  192.5480  177.5570  140.5800 C   0  0  0  0  0  3  0  0  0  0  0  0
  191.2230  177.1520  140.6460 C   0  0  0  0  0  0  0  0  0  0  0  0
  192.1140  175.8180  137.4220 C   0  0  0  0  0  2  0  0  0  0  0  0
  191.5740  174.4710  137.5020 N   0  0  0  0  0  2  0  0  0  0  0  0
  190.6580  174.3240  136.3860 C   0  0  0  0  0  2  0  0  0  0  0  0
  188.9080  172.9190  137.1800 O   0  0  0  0  0  1  0  0  0  0  0  0
  189.2810  174.0860  136.8970 C   0  0  0  0  0  0  0  0  0  0  0  0
  188.4220  175.1570  137.1020 O   0  0  0  0  0  0  0  0  0  0  0  0
  1  5  1  0  0  0  0
  2 26  1  6  0  0  0
  2  6  1  0  0  0  0
  2  4  1  0  0  0  0
  3  5  1  0  0  0  0
  4  1  1  0  0  0  0
  5 18  1  0  0  0  0
  6  3  1  0  0  0  0
  7 18  2  0  0  0  0
  7 10  1  0  0  0  0
  8  7  1  0  0  0  0
 10 15  2  0  0  0  0
 11 20  2  0  0  0  0
 12 19  1  0  0  0  0
 13 21  1  0  0  0  0
 13 17  1  0  0  0  0
 14 12  2  0  0  0  0
 15 20  1  0  0  0  0
 16 14  1  0  0  0  0
 17  8  2  0  0  0  0
 17 12  1  0  0  0  0
 18 11  1  0  0  0  0
 19 10  1  0  0  0  0
 20  9  1  0  0  0  0
 21 16  2  0  0  0  0
 22 23  1  0  0  0  0
 22 24  1  0  0  0  0
 23 25  2  0  0  0  0
 24 26  2  0  0  0  0
 25 26  1  0  0  0  0
 27 28  1  0  0  0  0
 27 22  1  0  0  0  0
 29 31  1  0  0  0  0
 29 28  1  0  0  0  0
 31 32  2  0  0  0  0
 31 30  1  0  0  0  0
M  END
>  <MODEL>
3

>  <REMARK>
 VINA RESULT:      -9.2      2.129      2.344
  Name = 
  6 active torsions:
  status: ('A' for Active; 'I' for Inactive)
    1  A    between atoms: N_8  and  C_9
    2  A    between atoms: N_8  and  C_14
    3  A    between atoms: C_9  and  C_28
    4  A    between atoms: N_10  and  C_14
    5  A    between atoms: C_17  and  C_31
    6  A    between atoms: C_20  and  N_24
                            x       y       z     vdW  Elec       q    Type
                         _______ _______ _______ _____ _____    ______ ____

>  <TORSDO>
F 6

$$$$
=
 OpenBabel10222416343D

 32 36  0  0  1  0  0  0  0  0999 V2000
  189.3800  178.6490  142.9390 C   0  0  0  0  0  2  0  0  0  0  0  0
  189.5650  176.8050  141.1680 C   0  0  2  0  0  3  0  0  0  0  0  0
  189.7820  176.2330  143.5900 C   0  0  0  0  0  2  0  0  0  0  0  0
  189.0670  178.2200  141.5030 C   0  0  0  0  0  2  0  0  0  0  0  0
  189.1680  177.5380  143.8690 N   0  0  0  0  0  0  0  0  0  0  0  0
  190.4880  176.2190  142.2370 C   0  0  0  0  0  2  0  0  0  0  0  0
  187.1590  178.0890  145.2370 C   0  0  0  0  0  0  0  0  0  0  0  0
  186.3290  178.1610  144.0620 N   0  0  0  0  0  0  0  0  0  0  0  0
  189.4510  177.7630  148.6940 F   0  0  0  0  0  0  0  0  0  0  0  0
  186.5800  178.3130  146.5050 C   0  0  0  0  0  0  0  0  0  0  0  0
  189.2860  177.6520  146.3200 C   0  0  0  0  0  3  0  0  0  0  0  0
  184.4090  178.7100  145.4070 C   0  0  0  0  0  0  0  0  0  0  0  0
  184.2620  178.5020  142.8390 C   0  0  0  0  0  2  0  0  0  0  0  0
  183.1460  179.0030  145.4680 N   0  0  0  0  0  0  0  0  0  0  0  0
  187.3520  178.2060  147.6620 C   0  0  0  0  0  3  0  0  0  0  0  0
  182.3230  179.0890  144.2950 C   0  0  0  0  0  3  0  0  0  0  0  0
  185.0610  178.4460  144.1080 C   0  0  0  0  0  0  0  0  0  0  0  0
  188.5310  177.7650  145.1400 C   0  0  0  0  0  0  0  0  0  0  0  0
  185.1910  178.6350  146.6000 N   0  0  0  0  0  2  0  0  0  0  0  0
  188.7030  177.8730  147.5700 C   0  0  0  0  0  0  0  0  0  0  0  0
  182.8190  178.8630  143.0740 C   0  0  0  0  0  3  0  0  0  0  0  0
  190.4770  176.7340  137.6510 N   0  0  0  0  0  0  0  0  0  0  0  0
  191.7050  176.7350  138.2030 C   0  0  0  0  0  3  0  0  0  0  0  0
  189.5520  176.7510  138.6230 C   0  0  0  0  0  3  0  0  0  0  0  0
  191.5860  176.7680  139.5810 C   0  0  0  0  0  3  0  0  0  0  0  0
  190.2210  176.7800  139.8270 C   0  0  0  0  0  0  0  0  0  0  0  0
  190.1980  176.6620  136.2280 C   0  0  0  0  0  2  0  0  0  0  0  0
  188.7890  176.3780  136.0190 N   0  0  0  0  0  2  0  0  0  0  0  0
  188.2430  177.4990  135.2760 C   0  0  0  0  0  2  0  0  0  0  0  0
  186.0890  177.8740  136.2180 O   0  0  0  0  0  0  0  0  0  0  0  0
  187.2870  178.2490  136.1330 C   0  0  0  0  0  0  0  0  0  0  0  0
  187.7250  179.3400  136.8720 O   0  0  0  0  0  1  0  0  0  0  0  0
  1  5  1  0  0  0  0
  2 26  1  6  0  0  0
  2  4  1  0  0  0  0
  2  6  1  0  0  0  0
  3  5  1  0  0  0  0
  4  1  1  0  0  0  0
  5 18  1  0  0  0  0
  6  3  1  0  0  0  0
  7 10  1  0  0  0  0
  8 17  2  0  0  0  0
  8  7  1  0  0  0  0
 10 19  1  0  0  0  0
 10 15  2  0  0  0  0
 11 20  2  0  0  0  0
 12 14  2  0  0  0  0
 12 19  1  0  0  0  0
 13 21  1  0  0  0  0
 13 17  1  0  0  0  0
 16 14  1  0  0  0  0
 17 12  1  0  0  0  0
 18  7  2  0  0  0  0
 18 11  1  0  0  0  0
 20 15  1  0  0  0  0
 20  9  1  0  0  0  0
 21 16  2  0  0  0  0
 22 23  1  0  0  0  0
 22 24  1  0  0  0  0
 23 25  2  0  0  0  0
 24 26  2  0  0  0  0
 25 26  1  0  0  0  0
 27 22  1  0  0  0  0
 28 27  1  0  0  0  0
 29 28  1  0  0  0  0
 29 31  1  0  0  0  0
 31 30  2  0  0  0  0
 31 32  1  0  0  0  0
M  END
>  <MODEL>
4

>  <REMARK>
 VINA RESULT:      -8.9      3.122      3.621
  Name = 
  6 active torsions:
  status: ('A' for Active; 'I' for Inactive)
    1  A    between atoms: N_8  and  C_9
    2  A    between atoms: N_8  and  C_14
    3  A    between atoms: C_9  and  C_28
    4  A    between atoms: N_10  and  C_14
    5  A    between atoms: C_17  and  C_31
    6  A    between atoms: C_20  and  N_24
                            x       y       z     vdW  Elec       q    Type
                         _______ _______ _______ _____ _____    ______ ____

>  <TORSDO>
F 6

$$$$
=
 OpenBabel10222416343D

 32 36  0  0  1  0  0  0  0  0999 V2000
  189.1610  178.0740  142.3240 C   0  0  0  0  0  2  0  0  0  0  0  0
  190.4820  176.5760  140.7160 C   0  0  2  0  0  3  0  0  0  0  0  0
  191.3780  177.0470  143.0010 C   0  0  0  0  0  2  0  0  0  0  0  0
  189.1170  177.1820  141.0820 C   0  0  0  0  0  2  0  0  0  0  0  0
  190.0210  177.4850  143.3540 N   0  0  0  0  0  0  0  0  0  0  0  0
  191.6430  177.1840  141.5030 C   0  0  0  0  0  2  0  0  0  0  0  0
  188.2930  177.8020  145.1220 C   0  0  0  0  0  0  0  0  0  0  0  0
  187.2720  178.0460  144.1370 N   0  0  0  0  0  0  0  0  0  0  0  0
  191.1510  176.9680  148.0300 F   0  0  0  0  0  0  0  0  0  0  0  0
  187.9510  177.8230  146.4910 C   0  0  0  0  0  0  0  0  0  0  0  0
  190.5690  177.2220  145.7330 C   0  0  0  0  0  3  0  0  0  0  0  0
  185.6280  178.3660  145.8680 C   0  0  0  0  0  0  0  0  0  0  0  0
  185.0290  178.5550  143.3650 C   0  0  0  0  0  2  0  0  0  0  0  0
  184.4020  178.6360  146.1940 N   0  0  0  0  0  0  0  0  0  0  0  0
  188.9120  177.5460  147.4640 C   0  0  0  0  0  3  0  0  0  0  0  0
  183.3870  178.8940  145.2120 C   0  0  0  0  0  3  0  0  0  0  0  0
  186.0370  178.3110  144.4490 C   0  0  0  0  0  0  0  0  0  0  0  0
  189.6210  177.5080  144.7370 C   0  0  0  0  0  0  0  0  0  0  0  0
  186.6060  178.1150  146.8780 N   0  0  0  0  0  2  0  0  0  0  0  0
  190.2190  177.2430  147.0850 C   0  0  0  0  0  0  0  0  0  0  0  0
  183.6570  178.8620  143.9030 C   0  0  0  0  0  3  0  0  0  0  0  0
  191.6670  176.4070  137.2860 N   0  0  0  0  0  0  0  0  0  0  0  0
  190.5700  177.1650  137.1080 C   0  0  0  0  0  3  0  0  0  0  0  0
  191.7910  176.1010  138.5860 C   0  0  0  0  0  3  0  0  0  0  0  0
  189.9430  177.3530  138.3270 C   0  0  0  0  0  3  0  0  0  0  0  0
  190.7260  176.6720  139.2470 C   0  0  0  0  0  0  0  0  0  0  0  0
  192.6050  176.0320  136.2420 C   0  0  0  0  0  2  0  0  0  0  0  0
  193.8910  176.6600  136.4920 N   0  0  0  0  0  2  0  0  0  0  0  0
  194.7110  176.4100  135.3200 C   0  0  0  0  0  2  0  0  0  0  0  0
  197.0210  176.8280  135.7130 O   0  0  0  0  0  1  0  0  0  0  0  0
  195.9090  177.2910  135.3510 C   0  0  0  0  0  0  0  0  0  0  0  0
  195.8090  178.6140  134.9410 O   0  0  0  0  0  0  0  0  0  0  0  0
  1  5  1  0  0  0  0
  2 26  1  6  0  0  0
  2  4  1  0  0  0  0
  2  6  1  0  0  0  0
  3  5  1  0  0  0  0
  4  1  1  0  0  0  0
  5 18  1  0  0  0  0
  6  3  1  0  0  0  0
  7 10  1  0  0  0  0
  8 17  2  0  0  0  0
  8  7  1  0  0  0  0
 10 19  1  0  0  0  0
 10 15  2  0  0  0  0
 11 20  2  0  0  0  0
 12 14  2  0  0  0  0
 12 19  1  0  0  0  0
 13 21  1  0  0  0  0
 13 17  1  0  0  0  0
 16 14  1  0  0  0  0
 17 12  1  0  0  0  0
 18  7  2  0  0  0  0
 18 11  1  0  0  0  0
 20 15  1  0  0  0  0
 20  9  1  0  0  0  0
 21 16  2  0  0  0  0
 22 24  1  0  0  0  0
 23 22  1  0  0  0  0
 23 25  2  0  0  0  0
 24 26  2  0  0  0  0
 25 26  1  0  0  0  0
 27 28  1  0  0  0  0
 27 22  1  0  0  0  0
 29 31  1  0  0  0  0
 29 28  1  0  0  0  0
 31 30  1  0  0  0  0
 32 31  2  0  0  0  0
M  END
>  <MODEL>
5

>  <REMARK>
 VINA RESULT:      -8.8      2.043      2.752
  Name = 
  6 active torsions:
  status: ('A' for Active; 'I' for Inactive)
    1  A    between atoms: N_8  and  C_9
    2  A    between atoms: N_8  and  C_14
    3  A    between atoms: C_9  and  C_28
    4  A    between atoms: N_10  and  C_14
    5  A    between atoms: C_17  and  C_31
    6  A    between atoms: C_20  and  N_24
                            x       y       z     vdW  Elec       q    Type
                         _______ _______ _______ _____ _____    ______ ____

>  <TORSDO>
F 6

$$$$
=
 OpenBabel10222416343D

 32 36  0  0  1  0  0  0  0  0999 V2000
  186.4360  177.0100  143.8490 C   0  0  0  0  0  2  0  0  0  0  0  0
  184.7130  178.9070  143.9250 C   0  0  2  0  0  3  0  0  0  0  0  0
  186.3000  178.5870  145.8290 C   0  0  0  0  0  2  0  0  0  0  0  0
  185.5000  177.9190  143.0490 C   0  0  0  0  0  2  0  0  0  0  0  0
  187.1020  177.7620  144.9140 N   0  0  0  0  0  0  0  0  0  0  0  0
  184.8290  178.6130  145.4210 C   0  0  0  0  0  2  0  0  0  0  0  0
  189.4540  177.4380  144.1560 C   0  0  0  0  0  0  0  0  0  0  0  0
  189.0700  177.5770  142.7750 N   0  0  0  0  0  0  0  0  0  0  0  0
  190.6730  177.1670  148.1240 F   0  0  0  0  0  0  0  0  0  0  0  0
  190.8110  177.2210  144.4760 C   0  0  0  0  0  0  0  0  0  0  0  0
  188.9320  177.4640  146.5250 C   0  0  0  0  0  3  0  0  0  0  0  0
  191.3480  177.2420  142.0690 C   0  0  0  0  0  0  0  0  0  0  0  0
  189.4410  177.6450  140.3780 C   0  0  0  0  0  2  0  0  0  0  0  0
  192.2040  177.1450  141.0990 N   0  0  0  0  0  0  0  0  0  0  0  0
  191.2170  177.1280  145.8070 C   0  0  0  0  0  3  0  0  0  0  0  0
  191.8180  177.2680  139.7220 C   0  0  0  0  0  3  0  0  0  0  0  0
  189.9180  177.4890  141.7920 C   0  0  0  0  0  0  0  0  0  0  0  0
  188.4990  177.5510  145.1910 C   0  0  0  0  0  0  0  0  0  0  0  0
  191.7760  177.1130  143.4260 N   0  0  0  0  0  2  0  0  0  0  0  0
  190.2780  177.2520  146.8310 C   0  0  0  0  0  0  0  0  0  0  0  0
  190.5490  177.4970  139.3690 C   0  0  0  0  0  3  0  0  0  0  0  0
  181.5060  179.0480  142.2220 N   0  0  0  0  0  0  0  0  0  0  0  0
  181.0840  179.0590  143.5000 C   0  0  0  0  0  3  0  0  0  0  0  0
  182.8470  179.0000  142.1970 C   0  0  0  0  0  3  0  0  0  0  0  0
  182.1800  179.0030  144.3440 C   0  0  0  0  0  3  0  0  0  0  0  0
  183.2820  178.9640  143.5030 C   0  0  0  0  0  0  0  0  0  0  0  0
  180.6480  179.1380  141.0550 C   0  0  0  0  0  2  0  0  0  0  0  0
  181.4160  178.8440  139.8580 N   0  0  0  0  0  2  0  0  0  0  0  0
  181.0580  179.8500  138.8750 C   0  0  0  0  0  2  0  0  0  0  0  0
  181.9290  182.0010  138.3430 O   0  0  0  0  0  0  0  0  0  0  0  0
  182.1680  180.8290  138.7350 C   0  0  0  0  0  0  0  0  0  0  0  0
  183.4630  180.4640  139.0750 O   0  0  0  0  0  1  0  0  0  0  0  0
  1  5  1  0  0  0  0
  2 26  1  6  0  0  0
  2  6  1  0  0  0  0
  4  1  1  0  0  0  0
  4  2  1  0  0  0  0
  5 18  1  0  0  0  0
  5  3  1  0  0  0  0
  6  3  1  0  0  0  0
  7 10  2  0  0  0  0
  7 18  1  0  0  0  0
  8  7  1  0  0  0  0
 10 15  1  0  0  0  0
 11 20  1  0  0  0  0
 12 19  1  0  0  0  0
 13 17  1  0  0  0  0
 14 12  2  0  0  0  0
 15 20  2  0  0  0  0
 16 14  1  0  0  0  0
 17 12  1  0  0  0  0
 17  8  2  0  0  0  0
 18 11  2  0  0  0  0
 19 10  1  0  0  0  0
 20  9  1  0  0  0  0
 21 16  2  0  0  0  0
 21 13  1  0  0  0  0
 22 23  1  0  0  0  0
 23 25  2  0  0  0  0
 24 22  1  0  0  0  0
 24 26  2  0  0  0  0
 26 25  1  0  0  0  0
 27 22  1  0  0  0  0
 28 27  1  0  0  0  0
 29 28  1  0  0  0  0
 30 31  2  0  0  0  0
 31 29  1  0  0  0  0
 31 32  1  0  0  0  0
M  END
>  <MODEL>
6

>  <REMARK>
 VINA RESULT:      -8.6      4.138      8.756
  Name = 
  6 active torsions:
  status: ('A' for Active; 'I' for Inactive)
    1  A    between atoms: N_8  and  C_9
    2  A    between atoms: N_8  and  C_14
    3  A    between atoms: C_9  and  C_28
    4  A    between atoms: N_10  and  C_14
    5  A    between atoms: C_17  and  C_31
    6  A    between atoms: C_20  and  N_24
                            x       y       z     vdW  Elec       q    Type
                         _______ _______ _______ _____ _____    ______ ____

>  <TORSDO>
F 6

$$$$
=
 OpenBabel10222416343D

 32 36  0  0  1  0  0  0  0  0999 V2000
  188.0130  176.9940  141.9660 C   0  0  0  0  0  2  0  0  0  0  0  0
  188.3410  178.4580  139.8870 C   0  0  2  0  0  3  0  0  0  0  0  0
  186.2920  178.7280  141.2920 C   0  0  0  0  0  2  0  0  0  0  0  0
  189.0050  177.5700  140.9520 C   0  0  0  0  0  2  0  0  0  0  0  0
  187.0150  177.9980  142.3420 N   0  0  0  0  0  0  0  0  0  0  0  0
  186.8140  178.3790  139.9000 C   0  0  0  0  0  2  0  0  0  0  0  0
  187.4760  177.8470  144.7870 C   0  0  0  0  0  0  0  0  0  0  0  0
  188.8380  177.4460  144.5460 N   0  0  0  0  0  0  0  0  0  0  0  0
  183.6000  179.1390  145.5730 F   0  0  0  0  0  0  0  0  0  0  0  0
  187.0220  177.9870  146.1160 C   0  0  0  0  0  0  0  0  0  0  0  0
  185.2990  178.5770  144.0010 C   0  0  0  0  0  3  0  0  0  0  0  0
  189.2490  177.2910  146.9140 C   0  0  0  0  0  0  0  0  0  0  0  0
  191.0810  176.7680  145.1740 C   0  0  0  0  0  2  0  0  0  0  0  0
  190.0730  177.0230  147.8800 N   0  0  0  0  0  0  0  0  0  0  0  0
  185.7210  178.4180  146.3760 C   0  0  0  0  0  3  0  0  0  0  0  0
  191.4260  176.6080  147.6390 C   0  0  0  0  0  3  0  0  0  0  0  0
  189.6770  177.1810  145.5040 C   0  0  0  0  0  0  0  0  0  0  0  0
  186.6020  178.1360  143.7140 C   0  0  0  0  0  0  0  0  0  0  0  0
  187.9100  177.7010  147.1990 N   0  0  0  0  0  2  0  0  0  0  0  0
  184.8610  178.7150  145.3200 C   0  0  0  0  0  0  0  0  0  0  0  0
  191.9090  176.4840  146.3990 C   0  0  0  0  0  3  0  0  0  0  0  0
  189.8410  177.0630  136.8860 N   0  0  0  0  0  0  0  0  0  0  0  0
  189.4700  178.2680  136.4140 C   0  0  0  0  0  3  0  0  0  0  0  0
  189.4990  176.9680  138.1800 C   0  0  0  0  0  3  0  0  0  0  0  0
  188.8530  178.9840  137.4250 C   0  0  0  0  0  3  0  0  0  0  0  0
  188.8790  178.1460  138.5300 C   0  0  0  0  0  0  0  0  0  0  0  0
  190.5550  176.0500  136.1290 C   0  0  0  0  0  2  0  0  0  0  0  0
  191.5090  175.3760  136.9930 N   0  0  0  0  0  2  0  0  0  0  0  0
  192.8150  175.9280  136.6830 C   0  0  0  0  0  2  0  0  0  0  0  0
  194.6140  175.2560  138.0900 O   0  0  0  0  0  0  0  0  0  0  0  0
  193.6270  176.0190  137.9260 C   0  0  0  0  0  0  0  0  0  0  0  0
  193.3210  176.9730  138.8870 O   0  0  0  0  0  1  0  0  0  0  0  0
  1  5  1  0  0  0  0
  2 26  1  6  0  0  0
  2  6  1  0  0  0  0
  2  4  1  0  0  0  0
  3  5  1  0  0  0  0
  4  1  1  0  0  0  0
  5 18  1  0  0  0  0
  6  3  1  0  0  0  0
  7 10  1  0  0  0  0
  8  7  1  0  0  0  0
  8 17  2  0  0  0  0
 10 15  2  0  0  0  0
 10 19  1  0  0  0  0
 11 20  2  0  0  0  0
 12 19  1  0  0  0  0
 12 14  2  0  0  0  0
 13 17  1  0  0  0  0
 13 21  1  0  0  0  0
 16 14  1  0  0  0  0
 17 12  1  0  0  0  0
 18 11  1  0  0  0  0
 18  7  2  0  0  0  0
 20  9  1  0  0  0  0
 20 15  1  0  0  0  0
 21 16  2  0  0  0  0
 22 24  1  0  0  0  0
 23 22  1  0  0  0  0
 23 25  2  0  0  0  0
 24 26  2  0  0  0  0
 25 26  1  0  0  0  0
 27 22  1  0  0  0  0
 27 28  1  0  0  0  0
 29 28  1  0  0  0  0
 29 31  1  0  0  0  0
 31 30  2  0  0  0  0
 31 32  1  0  0  0  0
M  END
>  <MODEL>
7

>  <REMARK>
 VINA RESULT:      -8.5      2.522      4.681
  Name = 
  6 active torsions:
  status: ('A' for Active; 'I' for Inactive)
    1  A    between atoms: N_8  and  C_9
    2  A    between atoms: N_8  and  C_14
    3  A    between atoms: C_9  and  C_28
    4  A    between atoms: N_10  and  C_14
    5  A    between atoms: C_17  and  C_31
    6  A    between atoms: C_20  and  N_24
                            x       y       z     vdW  Elec       q    Type
                         _______ _______ _______ _____ _____    ______ ____

>  <TORSDO>
F 6

$$$$
=
 OpenBabel10222416343D

 32 36  0  0  1  0  0  0  0  0999 V2000
  186.4510  176.9890  143.8780 C   0  0  0  0  0  2  0  0  0  0  0  0
  184.7310  178.8880  143.9590 C   0  0  2  0  0  3  0  0  0  0  0  0
  186.3430  178.5850  145.8440 C   0  0  0  0  0  2  0  0  0  0  0  0
  185.5050  177.8910  143.0820 C   0  0  0  0  0  2  0  0  0  0  0  0
  187.1320  177.7510  144.9270 N   0  0  0  0  0  0  0  0  0  0  0  0
  184.8670  178.6080  145.4560 C   0  0  0  0  0  2  0  0  0  0  0  0
  189.4750  177.4310  144.1390 C   0  0  0  0  0  0  0  0  0  0  0  0
  189.0740  177.5720  142.7630 N   0  0  0  0  0  0  0  0  0  0  0  0
  190.7410  177.1540  148.0930 F   0  0  0  0  0  0  0  0  0  0  0  0
  190.8360  177.2150  144.4430 C   0  0  0  0  0  0  0  0  0  0  0  0
  188.9810  177.4520  146.5150 C   0  0  0  0  0  3  0  0  0  0  0  0
  191.3440  177.2420  142.0300 C   0  0  0  0  0  0  0  0  0  0  0  0
  189.4170  177.6450  140.3620 C   0  0  0  0  0  2  0  0  0  0  0  0
  192.1890  177.1480  141.0500 N   0  0  0  0  0  0  0  0  0  0  0  0
  191.2580  177.1200  145.7690 C   0  0  0  0  0  3  0  0  0  0  0  0
  191.7870  177.2730  139.6780 C   0  0  0  0  0  3  0  0  0  0  0  0
  189.9110  177.4880  141.7710 C   0  0  0  0  0  0  0  0  0  0  0  0
  188.5320  177.5410  145.1870 C   0  0  0  0  0  0  0  0  0  0  0  0
  191.7890  177.1100  143.3820 N   0  0  0  0  0  2  0  0  0  0  0  0
  190.3310  177.2410  146.8050 C   0  0  0  0  0  0  0  0  0  0  0  0
  190.5130  177.5020  139.3410 C   0  0  0  0  0  3  0  0  0  0  0  0
  181.5010  179.0050  142.2990 N   0  0  0  0  0  0  0  0  0  0  0  0
  181.0970  179.0500  143.5820 C   0  0  0  0  0  3  0  0  0  0  0  0
  182.8410  178.9490  142.2560 C   0  0  0  0  0  3  0  0  0  0  0  0
  182.2040  179.0080  144.4110 C   0  0  0  0  0  3  0  0  0  0  0  0
  183.2940  178.9430  143.5570 C   0  0  0  0  0  0  0  0  0  0  0  0
  180.6260  179.0710  141.1430 C   0  0  0  0  0  2  0  0  0  0  0  0
  181.3910  178.8150  139.9350 N   0  0  0  0  0  2  0  0  0  0  0  0
  180.7270  177.7250  139.2430 C   0  0  0  0  0  2  0  0  0  0  0  0
  180.6010  175.4160  139.8090 O   0  0  0  0  0  0  0  0  0  0  0  0
  181.3300  176.4300  139.6580 C   0  0  0  0  0  0  0  0  0  0  0  0
  182.7030  176.3290  139.8370 O   0  0  0  0  0  1  0  0  0  0  0  0
  1  5  1  0  0  0  0
  2 26  1  6  0  0  0
  2  6  1  0  0  0  0
  4  1  1  0  0  0  0
  4  2  1  0  0  0  0
  5 18  1  0  0  0  0
  5  3  1  0  0  0  0
  6  3  1  0  0  0  0
  7 10  2  0  0  0  0
  7 18  1  0  0  0  0
  8  7  1  0  0  0  0
 10 15  1  0  0  0  0
 11 20  1  0  0  0  0
 12 19  1  0  0  0  0
 13 17  1  0  0  0  0
 14 12  2  0  0  0  0
 15 20  2  0  0  0  0
 16 14  1  0  0  0  0
 17 12  1  0  0  0  0
 17  8  2  0  0  0  0
 18 11  2  0  0  0  0
 19 10  1  0  0  0  0
 20  9  1  0  0  0  0
 21 16  2  0  0  0  0
 21 13  1  0  0  0  0
 22 23  1  0  0  0  0
 23 25  2  0  0  0  0
 24 22  1  0  0  0  0
 24 26  2  0  0  0  0
 26 25  1  0  0  0  0
 27 22  1  0  0  0  0
 28 27  1  0  0  0  0
 29 31  1  0  0  0  0
 29 28  1  0  0  0  0
 31 30  2  0  0  0  0
 31 32  1  0  0  0  0
M  END
>  <MODEL>
8

>  <REMARK>
 VINA RESULT:      -8.5      4.015      8.632
  Name = 
  6 active torsions:
  status: ('A' for Active; 'I' for Inactive)
    1  A    between atoms: N_8  and  C_9
    2  A    between atoms: N_8  and  C_14
    3  A    between atoms: C_9  and  C_28
    4  A    between atoms: N_10  and  C_14
    5  A    between atoms: C_17  and  C_31
    6  A    between atoms: C_20  and  N_24
                            x       y       z     vdW  Elec       q    Type
                         _______ _______ _______ _____ _____    ______ ____

>  <TORSDO>
F 6

$$$$
=
 OpenBabel10222416343D

 32 36  0  0  1  0  0  0  0  0999 V2000
  187.7340  178.9440  141.7220 C   0  0  0  0  0  2  0  0  0  0  0  0
  189.1210  176.9550  140.8900 C   0  0  2  0  0  3  0  0  0  0  0  0
  187.9180  176.8090  143.0750 C   0  0  0  0  0  2  0  0  0  0  0  0
  188.3780  178.2490  140.5200 C   0  0  0  0  0  2  0  0  0  0  0  0
  187.1290  177.9630  142.6240 N   0  0  0  0  0  0  0  0  0  0  0  0
  189.2860  176.7620  142.3970 C   0  0  0  0  0  2  0  0  0  0  0  0
  184.6830  178.4060  142.4350 C   0  0  0  0  0  0  0  0  0  0  0  0
  184.7350  178.3020  141.0000 N   0  0  0  0  0  0  0  0  0  0  0  0
  184.4180  178.5810  146.5840 F   0  0  0  0  0  0  0  0  0  0  0  0
  183.4460  178.6640  143.0650 C   0  0  0  0  0  0  0  0  0  0  0  0
  185.7310  178.2740  144.6200 C   0  0  0  0  0  3  0  0  0  0  0  0
  182.3740  178.7510  140.8460 C   0  0  0  0  0  0  0  0  0  0  0  0
  183.8220  178.3360  138.7520 C   0  0  0  0  0  2  0  0  0  0  0  0
  181.3230  178.9160  140.1020 N   0  0  0  0  0  0  0  0  0  0  0  0
  183.3610  178.7250  144.4560 C   0  0  0  0  0  3  0  0  0  0  0  0
  181.3780  178.8280  138.6700 C   0  0  0  0  0  3  0  0  0  0  0  0
  183.6890  178.4580  140.2410 C   0  0  0  0  0  0  0  0  0  0  0  0
  185.8430  178.2180  143.2200 C   0  0  0  0  0  0  0  0  0  0  0  0
  182.2730  178.8480  142.2680 N   0  0  0  0  0  2  0  0  0  0  0  0
  184.5020  178.5270  145.2330 C   0  0  0  0  0  0  0  0  0  0  0  0
  182.5210  178.5620  138.0290 C   0  0  0  0  0  3  0  0  0  0  0  0
  191.9680  176.4170  138.6970 N   0  0  0  0  0  0  0  0  0  0  0  0
  192.5720  177.0960  139.6890 C   0  0  0  0  0  3  0  0  0  0  0  0
  190.6670  176.2670  138.9880 C   0  0  0  0  0  3  0  0  0  0  0  0
  191.6380  177.4170  140.6580 C   0  0  0  0  0  3  0  0  0  0  0  0
  190.4420  176.8870  140.1970 C   0  0  0  0  0  0  0  0  0  0  0  0
  192.6330  175.8760  137.5250 C   0  0  0  0  0  2  0  0  0  0  0  0
  194.0670  176.0750  137.6400 N   0  0  0  0  0  2  0  0  0  0  0  0
  194.6860  174.7770  137.4420 C   0  0  0  0  0  2  0  0  0  0  0  0
  195.2950  173.0440  138.9560 O   0  0  0  0  0  0  0  0  0  0  0  0
  195.2300  174.2800  138.7340 C   0  0  0  0  0  0  0  0  0  0  0  0
  195.7040  175.1790  139.6800 O   0  0  0  0  0  1  0  0  0  0  0  0
  1  5  1  0  0  0  0
  2 26  1  6  0  0  0
  2  6  1  0  0  0  0
  4  2  1  0  0  0  0
  4  1  1  0  0  0  0
  5  3  1  0  0  0  0
  5 18  1  0  0  0  0
  6  3  1  0  0  0  0
  7 10  2  0  0  0  0
  7 18  1  0  0  0  0
  8  7  1  0  0  0  0
 10 15  1  0  0  0  0
 11 20  1  0  0  0  0
 12 19  1  0  0  0  0
 13 17  1  0  0  0  0
 14 12  2  0  0  0  0
 15 20  2  0  0  0  0
 16 14  1  0  0  0  0
 17 12  1  0  0  0  0
 17  8  2  0  0  0  0
 18 11  2  0  0  0  0
 19 10  1  0  0  0  0
 20  9  1  0  0  0  0
 21 16  2  0  0  0  0
 21 13  1  0  0  0  0
 22 24  1  0  0  0  0
 22 23  1  0  0  0  0
 23 25  2  0  0  0  0
 24 26  2  0  0  0  0
 26 25  1  0  0  0  0
 27 28  1  0  0  0  0
 27 22  1  0  0  0  0
 29 28  1  0  0  0  0
 29 31  1  0  0  0  0
 31 30  2  0  0  0  0
 31 32  1  0  0  0  0
M  END
>  <MODEL>
9

>  <REMARK>
 VINA RESULT:      -8.4      2.016      2.887
  Name = 
  6 active torsions:
  status: ('A' for Active; 'I' for Inactive)
    1  A    between atoms: N_8  and  C_9
    2  A    between atoms: N_8  and  C_14
    3  A    between atoms: C_9  and  C_28
    4  A    between atoms: N_10  and  C_14
    5  A    between atoms: C_17  and  C_31
    6  A    between atoms: C_20  and  N_24
                            x       y       z     vdW  Elec       q    Type
                         _______ _______ _______ _____ _____    ______ ____

>  <TORSDO>
F 6

$$$$
