=
 OpenBabel10222418383D

 66 72  0  0  1  0  0  0  0  0999 V2000
  180.7590  178.5890  135.3110 C   0  0  0  0  0  3  0  0  0  0  0  0
  188.5530  175.5590  136.9620 O   0  0  0  0  0  0  0  0  0  0  0  0
  182.3780  177.8020  140.0520 C   0  0  0  0  0  0  0  0  0  0  0  0
  184.9350  172.6430  136.6330 C   0  0  0  0  0  0  0  0  0  0  0  0
  181.7020  176.8690  140.5850 O   0  0  0  0  0  0  0  0  0  0  0  0
  181.7100  178.8590  139.3890 O   0  0  0  0  0  0  0  0  0  0  0  0
  186.6610  176.8280  137.3170 N   0  0  0  0  0  0  0  0  0  0  0  0
  182.5210  176.7890  135.1230 C   0  0  0  0  0  0  0  0  0  0  0  0
  184.6880  178.7900  139.7800 C   0  0  0  0  0  2  0  0  0  0  0  0
  185.9940  178.2800  139.1520 C   0  0  0  0  0  2  0  0  0  0  0  0
  183.8060  177.6580  139.9600 N   0  0  0  0  0  2  0  0  0  0  0  0
  187.9560  176.7610  137.3400 C   0  0  0  0  0  0  0  0  0  0  0  0
  185.8230  177.9690  137.6750 C   0  0  0  0  0  2  0  0  0  0  0  0
  183.8410  176.5200  135.5240 C   0  0  0  0  0  3  0  0  0  0  0  0
  186.2610  172.2420  136.0380 C   0  0  0  0  0  2  0  0  0  0  0  0
  183.4500  174.1510  135.3330 C   0  0  0  0  0  0  0  0  0  0  0  0
  188.4870  173.4100  135.9790 C   0  0  0  0  0  2  0  0  0  0  0  0
  181.3550  178.7600  138.0330 C   0  0  0  0  0  0  0  0  0  0  0  0
  184.2900  175.2140  135.6660 C   0  0  0  0  0  3  0  0  0  0  0  0
  187.4430  172.7530  136.8910 C   0  0  2  0  0  3  0  0  0  0  0  0
  187.9960  171.7260  137.6690 O   0  0  0  0  0  1  0  0  0  0  0  0
  184.8280  172.8770  137.8900 O   0  0  0  0  0  0  0  0  0  0  0  0
  180.0130  179.4500  136.1400 C   0  0  0  0  0  0  0  0  0  0  0  0
  182.0770  177.9710  137.2020 N   0  0  0  0  0  0  0  0  0  0  0  0
  182.2250  174.4100  134.6880 C   0  0  0  0  0  3  0  0  0  0  0  0
  181.7470  175.7270  134.5950 C   0  0  0  0  0  3  0  0  0  0  0  0
  180.2920  179.5040  137.5180 C   0  0  0  0  0  3  0  0  0  0  0  0
  183.7810  172.8200  135.7790 N   0  0  0  0  0  0  0  0  0  0  0  0
  181.8050  177.8410  135.8620 C   0  0  0  0  0  0  0  0  0  0  0  0
  188.1380  174.8540  135.8060 C   0  0  0  0  0  2  0  0  0  0  0  0
  188.8330  177.8880  137.8300 C   0  0  1  0  0  3  0  0  0  0  0  0
  188.1140  179.0730  137.6710 O   0  0  0  0  0  1  0  0  0  0  0  0
  189.1120  177.6590  139.3160 C   0  0  0  0  0  2  0  0  0  0  0  0
  190.5420  177.9710  139.8240 C   0  0  1  0  0  3  0  0  0  0  0  0
  191.1660  177.4360  141.1510 C   0  0  2  0  0  3  0  0  0  0  0  0
  191.1030  176.5480  139.9340 C   0  0  0  0  0  2  0  0  0  0  0  0
  190.4830  177.7850  143.5180 C   0  0  0  0  0  2  0  0  0  0  0  0
  187.9380  176.8950  142.6460 C   0  0  0  0  0  2  0  0  0  0  0  0
  188.8240  177.5110  141.7570 O   0  0  0  0  0  0  0  0  0  0  0  0
  187.8740  177.7610  143.8790 C   0  0  1  0  0  3  0  0  0  0  0  0
  190.1020  177.1060  142.2070 C   0  0  1  0  0  3  0  0  0  0  0  0
  186.8630  177.2010  144.8980 C   0  0  0  0  0  1  0  0  0  0  0  0
  189.2750  178.0600  144.4570 C   0  0  1  0  0  3  0  0  0  0  0  0
  189.2180  178.2790  146.8970 O   0  0  0  0  0  0  0  0  0  0  0  0
  189.4850  177.5170  145.8020 N   0  0  0  0  0  0  0  0  0  0  0  0
  189.9560  177.6610  147.8660 N   0  0  0  0  0  2  0  0  0  0  0  0
  190.3900  176.4420  146.0970 C   0  0  0  0  0  3  0  0  0  0  0  0
  190.6780  176.5310  147.3650 C   0  0  0  0  0  3  0  0  0  0  0  0
  182.1560  171.4270  134.7220 F   0  0  0  0  0  0  0  0  0  0  0  0
  182.7140  171.8120  135.9220 C   0  0  2  0  0  3  0  0  0  0  0  0
  181.6480  172.2240  136.9760 C   0  0  0  0  0  2  0  0  0  0  0  0
  179.5580  172.9430  136.0830 O   0  0  0  0  0  0  0  0  0  0  0  0
  179.6850  170.7060  136.6280 O   0  0  0  0  0  1  0  0  0  0  0  0
  180.2340  171.9840  136.5560 C   0  0  0  0  0  0  0  0  0  0  0  0
  179.0350  180.2800  135.5790 O   0  0  0  0  0  0  0  0  0  0  0  0
  179.1250  181.6880  135.7550 C   0  0  0  0  0  2  0  0  0  0  0  0
  180.1870  182.2240  134.9380 N   0  0  0  0  0  2  0  0  0  0  0  0
  180.1600  183.6630  135.2040 C   0  0  0  0  0  2  0  0  0  0  0  0
  179.2150  186.0760  137.7300 C   0  0  0  0  0  0  0  0  0  0  0  0
  181.0770  186.4040  139.2020 C   0  0  0  0  0  3  0  0  0  0  0  0
  179.6910  186.7000  138.7760 C   0  0  0  0  0  3  0  0  0  0  0  0
  178.9360  185.3040  136.7340 C   0  0  0  0  0  3  0  0  0  0  0  0
  179.6560  183.9670  136.6210 C   0  0  2  0  0  3  0  0  0  0  0  0
  181.9590  185.5650  138.6080 C   0  0  0  0  0  3  0  0  0  0  0  0
  181.6990  184.7780  137.3450 C   0  0  0  0  0  2  0  0  0  0  0  0
  180.7010  183.7960  137.5630 O   0  0  0  0  0  0  0  0  0  0  0  0
  1 29  2  0  0  0  0
  1 23  1  0  0  0  0
  2 12  1  0  0  0  0
  3  5  2  0  0  0  0
  4 22  2  0  0  0  0
  6  3  1  0  0  0  0
  7 12  2  0  0  0  0
  7 13  1  0  0  0  0
  8 14  1  0  0  0  0
  8 29  1  0  0  0  0
  9 11  1  0  0  0  0
 10  9  1  0  0  0  0
 11  3  1  0  0  0  0
 12 31  1  0  0  0  0
 13 10  1  0  0  0  0
 14 19  2  0  0  0  0
 15  4  1  0  0  0  0
 15 20  1  0  0  0  0
 16 19  1  0  0  0  0
 16 28  1  0  0  0  0
 17 20  1  0  0  0  0
 18  6  1  0  0  0  0
 20 21  1  6  0  0  0
 23 27  2  0  0  0  0
 24 18  2  0  0  0  0
 25 16  2  0  0  0  0
 26 25  1  0  0  0  0
 26  8  2  0  0  0  0
 27 18  1  0  0  0  0
 28 50  1  0  0  0  0
 28  4  1  0  0  0  0
 29 24  1  0  0  0  0
 30 17  1  0  0  0  0
 30  2  1  0  0  0  0
 31 32  1  1  0  0  0
 31 33  1  0  0  0  0
 34 33  1  1  0  0  0
 34 36  1  0  0  0  0
 34 35  1  0  0  0  0
 35 36  1  6  0  0  0
 35 41  1  0  0  0  0
 38 40  1  0  0  0  0
 39 41  1  0  0  0  0
 39 38  1  0  0  0  0
 40 43  1  0  0  0  0
 40 42  1  1  0  0  0
 41 37  1  1  0  0  0
 43 37  1  6  0  0  0
 43 45  1  0  0  0  0
 44 46  1  0  0  0  0
 45 47  1  0  0  0  0
 45 44  1  0  0  0  0
 47 48  2  0  0  0  0
 48 46  1  0  0  0  0
 50 49  1  6  0  0  0
 50 51  1  0  0  0  0
 52 54  2  0  0  0  0
 54 53  1  0  0  0  0
 54 51  1  0  0  0  0
 55 56  1  0  0  0  0
 55 23  1  0  0  0  0
 57 58  1  0  0  0  0
 57 56  1  0  0  0  0
 59 61  2  0  0  0  0
 61 60  1  0  0  0  0
 62 59  2  0  0  0  0
 63 58  1  6  0  0  0
 63 62  1  0  0  0  0
 63 66  1  0  0  0  0
 64 60  2  0  0  0  0
 65 66  1  0  0  0  0
 65 64  1  0  0  0  0
M  END
>  <MODEL>
1

>  <REMARK>
 VINA RESULT:      -7.3      0.000      0.000
  Name = 
  13 active torsions:
  status: ('A' for Active; 'I' for Inactive)
    1  A    between atoms: C_6  and  C_19
    2  A    between atoms: C_6  and  C_37
    3  A    between atoms: C_11  and  C_38
    4  A    between atoms: C_11  and  C_57
    5  A    between atoms: C_19  and  C_30
    6  A    between atoms: N_20  and  C_45
    7  A    between atoms: C_22  and  C_43
    8  A    between atoms: N_29  and  C_34
    9  A    between atoms: N_29  and  C_35
   10  A    between atoms: C_34  and  O_52
   11  A    between atoms: C_35  and  C_53
   12  A    between atoms: C_38  and  N_63
   13  A    between atoms: C_50  and  O_52
                            x       y       z     vdW  Elec       q    Type
                         _______ _______ _______ _____ _____    ______ ____

>  <TORSDO>
F 13

$$$$
=
 OpenBabel10222418383D

 66 72  0  0  1  0  0  0  0  0999 V2000
  186.6310  173.2960  136.7190 C   0  0  0  0  0  3  0  0  0  0  0  0
  182.9340  179.0250  141.8340 O   0  0  0  0  0  0  0  0  0  0  0  0
  187.9130  178.2010  136.6150 C   0  0  0  0  0  0  0  0  0  0  0  0
  181.2810  178.3220  137.5360 C   0  0  0  0  0  0  0  0  0  0  0  0
  187.5760  178.7070  135.5000 O   0  0  0  0  0  0  0  0  0  0  0  0
  188.6320  176.9830  136.6410 O   0  0  0  0  0  0  0  0  0  0  0  0
  184.6480  178.0660  140.6270 N   0  0  0  0  0  0  0  0  0  0  0  0
  184.5910  174.5350  137.5480 C   0  0  0  0  0  0  0  0  0  0  0  0
  188.0040  178.5720  139.1130 C   0  0  0  0  0  2  0  0  0  0  0  0
  186.9340  178.7800  140.1950 C   0  0  0  0  0  2  0  0  0  0  0  0
  187.3810  178.7710  137.8230 N   0  0  0  0  0  2  0  0  0  0  0  0
  184.2720  178.6480  141.7230 C   0  0  0  0  0  0  0  0  0  0  0  0
  185.9870  177.5950  140.2850 C   0  0  0  0  0  2  0  0  0  0  0  0
  184.2280  175.5160  138.4860 C   0  0  0  0  0  3  0  0  0  0  0  0
  180.3130  178.5250  138.6730 C   0  0  0  0  0  2  0  0  0  0  0  0
  182.2680  176.0670  137.1980 C   0  0  0  0  0  0  0  0  0  0  0  0
  180.6810  178.9720  141.1200 C   0  0  0  0  0  2  0  0  0  0  0  0
  187.9690  175.7440  136.6300 C   0  0  0  0  0  0  0  0  0  0  0  0
  183.1000  176.3020  138.2940 C   0  0  0  0  0  3  0  0  0  0  0  0
  180.8560  179.5380  139.7060 C   0  0  2  0  0  3  0  0  0  0  0  0
  180.2470  180.7930  139.5620 O   0  0  0  0  0  1  0  0  0  0  0  0
  182.1260  179.2350  137.2260 O   0  0  0  0  0  0  0  0  0  0  0  0
  187.9480  173.3580  136.2230 C   0  0  0  0  0  0  0  0  0  0  0  0
  186.7170  175.6440  137.1370 N   0  0  0  0  0  0  0  0  0  0  0  0
  182.4780  174.9260  136.4000 C   0  0  0  0  0  3  0  0  0  0  0  0
  183.6470  174.1650  136.5590 C   0  0  0  0  0  3  0  0  0  0  0  0
  188.6040  174.6000  136.1430 C   0  0  0  0  0  3  0  0  0  0  0  0
  181.3010  177.0660  136.8170 N   0  0  0  0  0  0  0  0  0  0  0  0
  186.0140  174.4640  137.1800 C   0  0  0  0  0  0  0  0  0  0  0  0
  181.8820  178.1510  141.4660 C   0  0  0  0  0  2  0  0  0  0  0  0
  185.2240  179.0050  142.8380 C   0  0  1  0  0  3  0  0  0  0  0  0
  184.7020  180.1240  143.4880 O   0  0  0  0  0  1  0  0  0  0  0  0
  185.2750  177.8290  143.8140 C   0  0  0  0  0  2  0  0  0  0  0  0
  184.7930  178.0890  145.2630 C   0  0  1  0  0  3  0  0  0  0  0  0
  185.7200  178.2590  146.5060 C   0  0  2  0  0  3  0  0  0  0  0  0
  185.5190  179.4100  145.5520 C   0  0  0  0  0  2  0  0  0  0  0  0
  187.8340  178.2140  145.1930 C   0  0  0  0  0  2  0  0  0  0  0  0
  188.8340  176.6600  147.3420 C   0  0  0  0  0  2  0  0  0  0  0  0
  187.7990  177.5780  147.5430 O   0  0  0  0  0  0  0  0  0  0  0  0
  189.9160  177.3750  146.5720 C   0  0  1  0  0  3  0  0  0  0  0  0
  187.0690  177.5470  146.3320 C   0  0  1  0  0  3  0  0  0  0  0  0
  191.1400  176.4640  146.3590 C   0  0  0  0  0  1  0  0  0  0  0  0
  189.3760  178.0420  145.2870 C   0  0  1  0  0  3  0  0  0  0  0  0
  190.6150  178.3030  143.1900 O   0  0  0  0  0  0  0  0  0  0  0  0
  189.9480  177.4930  144.0550 N   0  0  0  0  0  0  0  0  0  0  0  0
  190.5590  177.5920  142.0250 N   0  0  0  0  0  2  0  0  0  0  0  0
  189.4760  176.2940  143.4210 C   0  0  0  0  0  3  0  0  0  0  0  0
  189.8530  176.3560  142.1740 C   0  0  0  0  0  3  0  0  0  0  0  0
  181.0140  178.3300  134.8120 F   0  0  0  0  0  0  0  0  0  0  0  0
  180.8100  177.1130  135.4270 C   0  0  2  0  0  3  0  0  0  0  0  0
  179.3420  176.6150  135.3010 C   0  0  0  0  0  2  0  0  0  0  0  0
  178.9310  174.2720  135.4430 O   0  0  0  0  0  0  0  0  0  0  0  0
  178.9420  175.3980  137.4540 O   0  0  0  0  0  1  0  0  0  0  0  0
  179.0410  175.3680  136.0660 C   0  0  0  0  0  0  0  0  0  0  0  0
  188.6100  172.1790  135.8580 O   0  0  0  0  0  0  0  0  0  0  0  0
  189.5010  172.1900  134.7510 C   0  0  0  0  0  2  0  0  0  0  0  0
  190.6980  171.4470  135.0690 N   0  0  0  0  0  2  0  0  0  0  0  0
  191.5900  172.4370  135.6740 C   0  0  0  0  0  2  0  0  0  0  0  0
  194.9200  173.4860  134.7230 C   0  0  0  0  0  0  0  0  0  0  0  0
  195.1130  175.8430  135.1020 C   0  0  0  0  0  3  0  0  0  0  0  0
  195.6810  174.5470  134.6700 C   0  0  0  0  0  3  0  0  0  0  0  0
  193.9820  172.6010  134.7910 C   0  0  0  0  0  3  0  0  0  0  0  0
  192.5360  173.0550  134.6380 C   0  0  2  0  0  3  0  0  0  0  0  0
  193.8710  176.0750  135.5930 C   0  0  0  0  0  3  0  0  0  0  0  0
  192.8170  175.0190  135.8310 C   0  0  0  0  0  2  0  0  0  0  0  0
  192.3780  174.4640  134.6030 O   0  0  0  0  0  0  0  0  0  0  0  0
  1 29  2  0  0  0  0
  3  6  1  0  0  0  0
  3 11  1  0  0  0  0
  4 15  1  0  0  0  0
  5  3  2  0  0  0  0
  7 12  2  0  0  0  0
  8 14  1  0  0  0  0
  9 10  1  0  0  0  0
 10 13  1  0  0  0  0
 11  9  1  0  0  0  0
 12  2  1  0  0  0  0
 12 31  1  0  0  0  0
 13  7  1  0  0  0  0
 15 20  1  0  0  0  0
 16 19  1  0  0  0  0
 17 30  1  0  0  0  0
 18  6  1  0  0  0  0
 18 24  2  0  0  0  0
 19 14  2  0  0  0  0
 20 21  1  1  0  0  0
 20 17  1  0  0  0  0
 22  4  2  0  0  0  0
 23  1  1  0  0  0  0
 24 29  1  0  0  0  0
 25 26  1  0  0  0  0
 25 16  2  0  0  0  0
 26  8  2  0  0  0  0
 27 23  2  0  0  0  0
 27 18  1  0  0  0  0
 28 16  1  0  0  0  0
 28  4  1  0  0  0  0
 29  8  1  0  0  0  0
 30  2  1  0  0  0  0
 31 32  1  1  0  0  0
 31 33  1  0  0  0  0
 34 33  1  6  0  0  0
 34 36  1  0  0  0  0
 34 35  1  0  0  0  0
 35 36  1  6  0  0  0
 37 43  1  0  0  0  0
 38 39  1  0  0  0  0
 40 42  1  6  0  0  0
 40 38  1  0  0  0  0
 41 37  1  6  0  0  0
 41 35  1  0  0  0  0
 41 39  1  0  0  0  0
 43 45  1  6  0  0  0
 43 40  1  0  0  0  0
 44 45  1  0  0  0  0
 46 48  1  0  0  0  0
 46 44  1  0  0  0  0
 47 45  1  0  0  0  0
 48 47  2  0  0  0  0
 50 49  1  1  0  0  0
 50 28  1  0  0  0  0
 51 50  1  0  0  0  0
 51 54  1  0  0  0  0
 52 54  2  0  0  0  0
 54 53  1  0  0  0  0
 55 23  1  0  0  0  0
 56 57  1  0  0  0  0
 56 55  1  0  0  0  0
 57 58  1  0  0  0  0
 59 62  2  0  0  0  0
 60 64  2  0  0  0  0
 61 59  2  0  0  0  0
 61 60  1  0  0  0  0
 63 62  1  0  0  0  0
 63 58  1  1  0  0  0
 64 65  1  0  0  0  0
 66 63  1  0  0  0  0
 66 65  1  0  0  0  0
M  END
>  <MODEL>
2

>  <REMARK>
 VINA RESULT:      -6.9      3.223      9.087
  Name = 
  13 active torsions:
  status: ('A' for Active; 'I' for Inactive)
    1  A    between atoms: C_6  and  C_19
    2  A    between atoms: C_6  and  C_37
    3  A    between atoms: C_11  and  C_38
    4  A    between atoms: C_11  and  C_57
    5  A    between atoms: C_19  and  C_30
    6  A    between atoms: N_20  and  C_45
    7  A    between atoms: C_22  and  C_43
    8  A    between atoms: N_29  and  C_34
    9  A    between atoms: N_29  and  C_35
   10  A    between atoms: C_34  and  O_52
   11  A    between atoms: C_35  and  C_53
   12  A    between atoms: C_38  and  N_63
   13  A    between atoms: C_50  and  O_52
                            x       y       z     vdW  Elec       q    Type
                         _______ _______ _______ _____ _____    ______ ____

>  <TORSDO>
F 13

$$$$
=
 OpenBabel10222418383D

 66 72  0  0  1  0  0  0  0  0999 V2000
  191.5790  175.9800  136.3330 C   0  0  0  0  0  3  0  0  0  0  0  0
  184.2720  178.7230  139.7600 O   0  0  0  0  0  0  0  0  0  0  0  0
  187.7930  172.8020  137.4640 C   0  0  0  0  0  0  0  0  0  0  0  0
  187.7170  177.2080  142.5070 C   0  0  0  0  0  0  0  0  0  0  0  0
  188.1530  172.0250  138.4000 O   0  0  0  0  0  0  0  0  0  0  0  0
  188.6380  172.9880  136.3450 O   0  0  0  0  0  0  0  0  0  0  0  0
  185.6200  177.3960  138.4410 N   0  0  0  0  0  0  0  0  0  0  0  0
  190.2900  177.1130  138.1870 C   0  0  0  0  0  0  0  0  0  0  0  0
  185.8990  174.2070  136.5540 C   0  0  0  0  0  2  0  0  0  0  0  0
  185.1440  175.4390  137.0760 C   0  0  0  0  0  2  0  0  0  0  0  0
  186.6320  173.6290  137.6580 N   0  0  0  0  0  2  0  0  0  0  0  0
  184.5080  178.0530  138.5600 C   0  0  0  0  0  0  0  0  0  0  0  0
  186.0760  176.6200  137.2920 C   0  0  0  0  0  2  0  0  0  0  0  0
  188.9740  177.4670  138.5310 C   0  0  0  0  0  3  0  0  0  0  0  0
  186.9200  178.4190  142.9240 C   0  0  0  0  0  2  0  0  0  0  0  0
  189.5600  177.4980  140.8670 C   0  0  0  0  0  0  0  0  0  0  0  0
  184.9770  179.5920  141.8420 C   0  0  0  0  0  2  0  0  0  0  0  0
  189.6490  173.9630  136.3480 C   0  0  0  0  0  0  0  0  0  0  0  0
  188.6020  177.6190  139.8590 C   0  0  0  0  0  3  0  0  0  0  0  0
  185.4370  178.2910  142.5110 C   0  0  2  0  0  3  0  0  0  0  0  0
  184.6290  177.9460  143.6040 O   0  0  0  0  0  1  0  0  0  0  0  0
  187.1420  176.0730  142.3440 O   0  0  0  0  0  0  0  0  0  0  0  0
  191.7300  174.8590  135.4940 C   0  0  0  0  0  0  0  0  0  0  0  0
  189.5150  175.0720  137.1140 N   0  0  0  0  0  0  0  0  0  0  0  0
  190.9220  177.4020  140.5220 C   0  0  0  0  0  3  0  0  0  0  0  0
  191.2930  177.1930  139.1840 C   0  0  0  0  0  3  0  0  0  0  0  0
  190.7750  173.8260  135.5330 C   0  0  0  0  0  3  0  0  0  0  0  0
  189.1320  177.3300  142.2340 N   0  0  0  0  0  0  0  0  0  0  0  0
  190.4500  176.0780  137.1540 C   0  0  0  0  0  0  0  0  0  0  0  0
  185.2700  179.5140  140.3780 C   0  0  0  0  0  2  0  0  0  0  0  0
  183.4340  178.0570  137.5000 C   0  0  1  0  0  3  0  0  0  0  0  0
  184.0730  178.1260  136.2610 O   0  0  0  0  0  1  0  0  0  0  0  0
  182.6630  176.7390  137.6020 C   0  0  0  0  0  2  0  0  0  0  0  0
  181.6690  176.5900  138.7800 C   0  0  1  0  0  3  0  0  0  0  0  0
  180.7920  175.3310  139.0680 C   0  0  2  0  0  3  0  0  0  0  0  0
  182.2480  175.3440  139.4620 C   0  0  0  0  0  2  0  0  0  0  0  0
  181.4210  173.2920  137.7880 C   0  0  0  0  0  2  0  0  0  0  0  0
  178.9590  173.6910  136.4410 C   0  0  0  0  0  2  0  0  0  0  0  0
  179.1420  174.1480  137.7490 O   0  0  0  0  0  0  0  0  0  0  0  0
  179.4320  172.2590  136.4030 C   0  0  1  0  0  3  0  0  0  0  0  0
  180.5080  174.5130  137.8000 C   0  0  1  0  0  3  0  0  0  0  0  0
  179.2050  171.6370  135.0130 C   0  0  0  0  0  1  0  0  0  0  0  0
  180.8670  172.1030  136.9550 C   0  0  1  0  0  3  0  0  0  0  0  0
  182.5220  170.4740  136.1720 O   0  0  0  0  0  0  0  0  0  0  0  0
  181.8310  171.6260  135.9600 N   0  0  0  0  0  0  0  0  0  0  0  0
  183.5930  170.6210  135.3380 N   0  0  0  0  0  2  0  0  0  0  0  0
  182.4810  172.4810  135.0060 C   0  0  0  0  0  3  0  0  0  0  0  0
  183.5630  171.8620  134.6240 C   0  0  0  0  0  3  0  0  0  0  0  0
  189.6110  175.4310  143.5980 F   0  0  0  0  0  0  0  0  0  0  0  0
  190.0330  176.6840  143.2060 C   0  0  2  0  0  3  0  0  0  0  0  0
  190.3660  177.6090  144.4110 C   0  0  0  0  0  2  0  0  0  0  0  0
  189.9110  176.8130  146.6100 O   0  0  0  0  0  1  0  0  0  0  0  0
  191.9800  176.2500  145.7620 O   0  0  0  0  0  0  0  0  0  0  0  0
  190.7460  176.8870  145.6620 C   0  0  0  0  0  0  0  0  0  0  0  0
  192.8010  174.8020  134.5940 O   0  0  0  0  0  0  0  0  0  0  0  0
  193.8560  173.8770  134.8180 C   0  0  0  0  0  2  0  0  0  0  0  0
  194.8870  174.4830  135.6280 N   0  0  0  0  0  2  0  0  0  0  0  0
  195.8380  173.3990  135.8780 C   0  0  0  0  0  2  0  0  0  0  0  0
  195.5540  174.4920  139.3160 C   0  0  0  0  0  0  0  0  0  0  0  0
  197.7230  175.1610  140.0830 C   0  0  0  0  0  3  0  0  0  0  0  0
  196.2720  174.9670  140.3000 C   0  0  0  0  0  3  0  0  0  0  0  0
  195.0640  173.9540  138.2500 C   0  0  0  0  0  3  0  0  0  0  0  0
  195.9750  173.1010  137.3770 C   0  0  2  0  0  3  0  0  0  0  0  0
  198.4220  174.9330  138.9460 C   0  0  0  0  0  3  0  0  0  0  0  0
  197.8310  174.4580  137.6390 C   0  0  0  0  0  2  0  0  0  0  0  0
  197.3380  173.1350  137.7640 O   0  0  0  0  0  0  0  0  0  0  0  0
  1 29  2  0  0  0  0
  2 30  1  0  0  0  0
  3 11  1  0  0  0  0
  3  5  2  0  0  0  0
  4 15  1  0  0  0  0
  6 18  1  0  0  0  0
  6  3  1  0  0  0  0
  7 12  2  0  0  0  0
  8 14  2  0  0  0  0
  8 26  1  0  0  0  0
  9 10  1  0  0  0  0
  9 11  1  0  0  0  0
 10 13  1  0  0  0  0
 12  2  1  0  0  0  0
 13  7  1  0  0  0  0
 14 19  1  0  0  0  0
 16 28  1  0  0  0  0
 17 20  1  0  0  0  0
 18 24  2  0  0  0  0
 19 16  2  0  0  0  0
 20 15  1  0  0  0  0
 20 21  1  1  0  0  0
 22  4  2  0  0  0  0
 23 27  2  0  0  0  0
 23  1  1  0  0  0  0
 24 29  1  0  0  0  0
 25 16  1  0  0  0  0
 26 25  2  0  0  0  0
 27 18  1  0  0  0  0
 28  4  1  0  0  0  0
 28 50  1  0  0  0  0
 29  8  1  0  0  0  0
 30 17  1  0  0  0  0
 31 32  1  6  0  0  0
 31 33  1  0  0  0  0
 31 12  1  0  0  0  0
 34 33  1  6  0  0  0
 34 35  1  0  0  0  0
 34 36  1  0  0  0  0
 35 36  1  1  0  0  0
 38 39  1  0  0  0  0
 39 41  1  0  0  0  0
 40 42  1  6  0  0  0
 40 38  1  0  0  0  0
 40 43  1  0  0  0  0
 41 37  1  1  0  0  0
 41 35  1  0  0  0  0
 43 45  1  6  0  0  0
 43 37  1  0  0  0  0
 45 44  1  0  0  0  0
 46 44  1  0  0  0  0
 47 45  1  0  0  0  0
 48 47  2  0  0  0  0
 48 46  1  0  0  0  0
 50 49  1  1  0  0  0
 50 51  1  0  0  0  0
 51 54  1  0  0  0  0
 54 53  2  0  0  0  0
 54 52  1  0  0  0  0
 55 56  1  0  0  0  0
 55 23  1  0  0  0  0
 56 57  1  0  0  0  0
 57 58  1  0  0  0  0
 59 61  2  0  0  0  0
 60 61  1  0  0  0  0
 62 59  2  0  0  0  0
 63 58  1  6  0  0  0
 63 66  1  0  0  0  0
 63 62  1  0  0  0  0
 64 60  2  0  0  0  0
 65 66  1  0  0  0  0
 65 64  1  0  0  0  0
M  END
>  <MODEL>
3

>  <REMARK>
 VINA RESULT:      -6.3      4.096     12.276
  Name = 
  13 active torsions:
  status: ('A' for Active; 'I' for Inactive)
    1  A    between atoms: C_6  and  C_19
    2  A    between atoms: C_6  and  C_37
    3  A    between atoms: C_11  and  C_38
    4  A    between atoms: C_11  and  C_57
    5  A    between atoms: C_19  and  C_30
    6  A    between atoms: N_20  and  C_45
    7  A    between atoms: C_22  and  C_43
    8  A    between atoms: N_29  and  C_34
    9  A    between atoms: N_29  and  C_35
   10  A    between atoms: C_34  and  O_52
   11  A    between atoms: C_35  and  C_53
   12  A    between atoms: C_38  and  N_63
   13  A    between atoms: C_50  and  O_52
                            x       y       z     vdW  Elec       q    Type
                         _______ _______ _______ _____ _____    ______ ____

>  <TORSDO>
F 13

$$$$
=
 OpenBabel10222418383D

 66 72  0  0  1  0  0  0  0  0999 V2000
  192.2970  176.7520  136.5360 C   0  0  0  0  0  3  0  0  0  0  0  0
  185.0510  178.7650  140.5480 O   0  0  0  0  0  0  0  0  0  0  0  0
  188.5700  173.3760  137.1880 C   0  0  0  0  0  0  0  0  0  0  0  0
  188.5760  176.8480  142.9150 C   0  0  0  0  0  0  0  0  0  0  0  0
  188.9610  172.4540  137.9680 O   0  0  0  0  0  0  0  0  0  0  0  0
  189.3860  173.7620  136.0980 O   0  0  0  0  0  0  0  0  0  0  0  0
  186.3790  177.7030  138.9900 N   0  0  0  0  0  0  0  0  0  0  0  0
  191.0430  177.5320  138.5860 C   0  0  0  0  0  0  0  0  0  0  0  0
  186.6420  174.8910  136.5760 C   0  0  0  0  0  2  0  0  0  0  0  0
  185.8880  176.0040  137.3200 C   0  0  0  0  0  2  0  0  0  0  0  0
  187.4070  174.1410  137.5480 N   0  0  0  0  0  2  0  0  0  0  0  0
  185.2640  178.3150  139.2450 C   0  0  0  0  0  0  0  0  0  0  0  0
  186.8130  177.1430  137.7140 C   0  0  0  0  0  2  0  0  0  0  0  0
  189.7330  177.8030  139.0150 C   0  0  0  0  0  3  0  0  0  0  0  0
  187.7780  177.9580  143.5510 C   0  0  0  0  0  2  0  0  0  0  0  0
  190.3760  177.4400  141.3080 C   0  0  0  0  0  0  0  0  0  0  0  0
  185.7980  179.2730  142.7320 C   0  0  0  0  0  2  0  0  0  0  0  0
  190.3880  174.7360  136.2470 C   0  0  0  0  0  0  0  0  0  0  0  0
  189.3930  177.7190  140.3580 C   0  0  0  0  0  3  0  0  0  0  0  0
  186.2870  177.8830  143.1560 C   0  0  2  0  0  3  0  0  0  0  0  0
  185.5090  177.3440  144.1910 O   0  0  0  0  0  1  0  0  0  0  0  0
  188.0080  175.7500  142.5720 O   0  0  0  0  0  0  0  0  0  0  0  0
  192.4390  175.7940  135.5130 C   0  0  0  0  0  0  0  0  0  0  0  0
  190.2620  175.6950  137.1950 N   0  0  0  0  0  0  0  0  0  0  0  0
  191.7300  177.4240  140.9210 C   0  0  0  0  0  3  0  0  0  0  0  0
  192.0700  177.4530  139.5590 C   0  0  0  0  0  3  0  0  0  0  0  0
  191.4940  174.7570  135.3960 C   0  0  0  0  0  3  0  0  0  0  0  0
  189.9830  177.0340  142.6350 N   0  0  0  0  0  0  0  0  0  0  0  0
  191.1880  176.6920  137.3870 C   0  0  0  0  0  0  0  0  0  0  0  0
  186.0570  179.4520  141.2700 C   0  0  0  0  0  2  0  0  0  0  0  0
  184.1640  178.4860  138.2260 C   0  0  1  0  0  3  0  0  0  0  0  0
  183.4040  177.3160  138.2340 O   0  0  0  0  0  1  0  0  0  0  0  0
  183.2900  179.6620  138.6650 C   0  0  0  0  0  2  0  0  0  0  0  0
  182.2950  179.4100  139.8260 C   0  0  1  0  0  3  0  0  0  0  0  0
  180.7400  179.4230  139.7010 C   0  0  2  0  0  3  0  0  0  0  0  0
  181.5230  178.2120  139.2600 C   0  0  0  0  0  2  0  0  0  0  0  0
  181.0080  181.6200  138.5660 C   0  0  0  0  0  2  0  0  0  0  0  0
  179.6880  180.3690  136.3920 C   0  0  0  0  0  2  0  0  0  0  0  0
  180.4300  179.6170  137.3080 O   0  0  0  0  0  0  0  0  0  0  0  0
  180.5520  181.5320  135.9720 C   0  0  1  0  0  3  0  0  0  0  0  0
  180.2530  180.2960  138.5360 C   0  0  1  0  0  3  0  0  0  0  0  0
  179.8470  182.3880  134.9030 C   0  0  0  0  0  1  0  0  0  0  0  0
  181.0910  182.3260  137.1830 C   0  0  1  0  0  3  0  0  0  0  0  0
  181.4900  184.7280  137.4540 O   0  0  0  0  0  0  0  0  0  0  0  0
  180.6140  183.7110  137.2380 N   0  0  0  0  0  0  0  0  0  0  0  0
  180.6710  185.7240  137.9060 N   0  0  0  0  0  2  0  0  0  0  0  0
  179.2640  184.0770  137.5650 C   0  0  0  0  0  3  0  0  0  0  0  0
  179.3010  185.3140  137.9750 C   0  0  0  0  0  3  0  0  0  0  0  0
  190.4950  174.9450  143.6710 F   0  0  0  0  0  0  0  0  0  0  0  0
  190.9130  176.2420  143.4610 C   0  0  2  0  0  3  0  0  0  0  0  0
  191.3010  176.9690  144.7790 C   0  0  0  0  0  2  0  0  0  0  0  0
  192.3170  175.0290  145.7190 O   0  0  0  0  0  0  0  0  0  0  0  0
  191.1800  176.3720  147.2090 O   0  0  0  0  0  1  0  0  0  0  0  0
  191.6110  176.0600  145.9230 C   0  0  0  0  0  0  0  0  0  0  0  0
  193.4880  175.9070  134.5940 O   0  0  0  0  0  0  0  0  0  0  0  0
  194.6110  175.0430  134.7010 C   0  0  0  0  0  2  0  0  0  0  0  0
  195.4290  175.4290  135.8270 N   0  0  0  0  0  2  0  0  0  0  0  0
  196.7710  174.9580  135.4800 C   0  0  0  0  0  2  0  0  0  0  0  0
  199.1230  172.4960  136.7040 C   0  0  0  0  0  0  0  0  0  0  0  0
  197.9210  170.4900  137.2260 C   0  0  0  0  0  3  0  0  0  0  0  0
  199.1800  171.2640  137.1370 C   0  0  0  0  0  3  0  0  0  0  0  0
  198.8240  173.6940  136.3260 C   0  0  0  0  0  3  0  0  0  0  0  0
  197.4420  174.2420  136.6580 C   0  0  2  0  0  3  0  0  0  0  0  0
  196.6780  170.8980  136.8750 C   0  0  0  0  0  3  0  0  0  0  0  0
  196.3390  172.2430  136.2770 C   0  0  0  0  0  2  0  0  0  0  0  0
  196.5620  173.2800  137.2160 O   0  0  0  0  0  0  0  0  0  0  0  0
  1 29  2  0  0  0  0
  2 30  1  0  0  0  0
  3 11  1  0  0  0  0
  3  5  2  0  0  0  0
  4 15  1  0  0  0  0
  6 18  1  0  0  0  0
  6  3  1  0  0  0  0
  7 12  2  0  0  0  0
  8 14  2  0  0  0  0
  8 26  1  0  0  0  0
  9 10  1  0  0  0  0
  9 11  1  0  0  0  0
 10 13  1  0  0  0  0
 12  2  1  0  0  0  0
 13  7  1  0  0  0  0
 14 19  1  0  0  0  0
 16 28  1  0  0  0  0
 17 20  1  0  0  0  0
 18 24  2  0  0  0  0
 19 16  2  0  0  0  0
 20 15  1  0  0  0  0
 20 21  1  1  0  0  0
 22  4  2  0  0  0  0
 23  1  1  0  0  0  0
 24 29  1  0  0  0  0
 25 16  1  0  0  0  0
 26 25  2  0  0  0  0
 27 23  2  0  0  0  0
 27 18  1  0  0  0  0
 28  4  1  0  0  0  0
 28 50  1  0  0  0  0
 29  8  1  0  0  0  0
 30 17  1  0  0  0  0
 31 32  1  1  0  0  0
 31 33  1  0  0  0  0
 31 12  1  0  0  0  0
 34 33  1  6  0  0  0
 35 36  1  6  0  0  0
 35 34  1  0  0  0  0
 36 34  1  0  0  0  0
 38 39  1  0  0  0  0
 39 41  1  0  0  0  0
 40 42  1  6  0  0  0
 40 38  1  0  0  0  0
 40 43  1  0  0  0  0
 41 37  1  6  0  0  0
 41 35  1  0  0  0  0
 43 45  1  1  0  0  0
 43 37  1  0  0  0  0
 44 46  1  0  0  0  0
 45 44  1  0  0  0  0
 45 47  1  0  0  0  0
 46 48  1  0  0  0  0
 47 48  2  0  0  0  0
 50 49  1  1  0  0  0
 50 51  1  0  0  0  0
 51 54  1  0  0  0  0
 52 54  2  0  0  0  0
 54 53  1  0  0  0  0
 55 56  1  0  0  0  0
 55 23  1  0  0  0  0
 56 57  1  0  0  0  0
 58 57  1  0  0  0  0
 59 61  2  0  0  0  0
 61 60  1  0  0  0  0
 62 63  1  0  0  0  0
 62 59  2  0  0  0  0
 63 58  1  6  0  0  0
 63 66  1  0  0  0  0
 64 60  2  0  0  0  0
 65 64  1  0  0  0  0
 65 66  1  0  0  0  0
M  END
>  <MODEL>
4

>  <REMARK>
 VINA RESULT:      -5.8      4.382     12.877
  Name = 
  13 active torsions:
  status: ('A' for Active; 'I' for Inactive)
    1  A    between atoms: C_6  and  C_19
    2  A    between atoms: C_6  and  C_37
    3  A    between atoms: C_11  and  C_38
    4  A    between atoms: C_11  and  C_57
    5  A    between atoms: C_19  and  C_30
    6  A    between atoms: N_20  and  C_45
    7  A    between atoms: C_22  and  C_43
    8  A    between atoms: N_29  and  C_34
    9  A    between atoms: N_29  and  C_35
   10  A    between atoms: C_34  and  O_52
   11  A    between atoms: C_35  and  C_53
   12  A    between atoms: C_38  and  N_63
   13  A    between atoms: C_50  and  O_52
                            x       y       z     vdW  Elec       q    Type
                         _______ _______ _______ _____ _____    ______ ____

>  <TORSDO>
F 13

$$$$
=
 OpenBabel10222418383D

 66 72  0  0  1  0  0  0  0  0999 V2000
  184.7220  179.5930  144.1820 C   0  0  0  0  0  3  0  0  0  0  0  0
  186.8780  178.0910  136.0740 O   0  0  0  0  0  0  0  0  0  0  0  0
  188.0060  175.9420  142.9170 C   0  0  0  0  0  0  0  0  0  0  0  0
  183.4110  175.6890  138.0520 C   0  0  0  0  0  0  0  0  0  0  0  0
  187.5070  174.8060  143.1870 O   0  0  0  0  0  0  0  0  0  0  0  0
  187.9810  176.9660  143.8930 O   0  0  0  0  0  0  0  0  0  0  0  0
  187.1990  178.2420  138.3520 N   0  0  0  0  0  0  0  0  0  0  0  0
  184.1230  178.9500  141.8140 C   0  0  0  0  0  0  0  0  0  0  0  0
  189.3400  177.2680  141.2290 C   0  0  0  0  0  2  0  0  0  0  0  0
  189.0960  177.6810  139.7700 C   0  0  0  0  0  2  0  0  0  0  0  0
  188.4000  176.2210  141.5620 N   0  0  0  0  0  2  0  0  0  0  0  0
  187.6690  178.4580  137.1620 C   0  0  0  0  0  0  0  0  0  0  0  0
  187.8450  178.5330  139.6290 C   0  0  0  0  0  2  0  0  0  0  0  0
  184.7250  178.7630  140.5580 C   0  0  0  0  0  3  0  0  0  0  0  0
  183.2660  176.1520  136.6240 C   0  0  0  0  0  2  0  0  0  0  0  0
  182.9350  177.2990  139.8830 C   0  0  0  0  0  0  0  0  0  0  0  0
  184.8250  177.4200  135.1130 C   0  0  0  0  0  2  0  0  0  0  0  0
  186.8770  177.8250  144.0200 C   0  0  0  0  0  0  0  0  0  0  0  0
  184.1590  177.9160  139.6170 C   0  0  0  0  0  3  0  0  0  0  0  0
  184.6140  176.1050  135.8730 C   0  0  2  0  0  3  0  0  0  0  0  0
  184.6900  174.9890  135.0260 O   0  0  0  0  0  1  0  0  0  0  0  0
  184.3580  174.8920  138.3860 O   0  0  0  0  0  0  0  0  0  0  0  0
  185.5390  179.3770  145.3100 C   0  0  0  0  0  0  0  0  0  0  0  0
  186.0960  178.0840  142.9440 N   0  0  0  0  0  0  0  0  0  0  0  0
  182.2010  177.6790  141.0230 C   0  0  0  0  0  3  0  0  0  0  0  0
  182.7960  178.4920  142.0010 C   0  0  0  0  0  3  0  0  0  0  0  0
  186.6010  178.4560  145.2340 C   0  0  0  0  0  3  0  0  0  0  0  0
  182.5110  176.1860  139.0700 N   0  0  0  0  0  0  0  0  0  0  0  0
  185.0130  178.9290  142.9850 C   0  0  0  0  0  0  0  0  0  0  0  0
  185.4980  178.4010  136.0200 C   0  0  0  0  0  2  0  0  0  0  0  0
  189.0510  179.0070  136.9070 C   0  0  1  0  0  3  0  0  0  0  0  0
  189.3730  179.8390  137.9810 O   0  0  0  0  0  1  0  0  0  0  0  0
  190.0280  177.8310  136.8640 C   0  0  0  0  0  2  0  0  0  0  0  0
  189.7050  176.6780  135.8820 C   0  0  1  0  0  3  0  0  0  0  0  0
  190.5990  175.4220  135.6390 C   0  0  2  0  0  3  0  0  0  0  0  0
  189.7070  175.4910  136.8530 C   0  0  0  0  0  2  0  0  0  0  0  0
  192.5720  174.6330  136.9330 C   0  0  0  0  0  2  0  0  0  0  0  0
  194.0690  176.2280  135.1310 C   0  0  0  0  0  2  0  0  0  0  0  0
  192.8360  175.6860  134.7540 O   0  0  0  0  0  0  0  0  0  0  0  0
  194.8740  175.1100  135.7440 C   0  0  1  0  0  3  0  0  0  0  0  0
  192.0790  175.6870  135.9480 C   0  0  1  0  0  3  0  0  0  0  0  0
  196.2860  175.5900  136.1300 C   0  0  0  0  0  1  0  0  0  0  0  0
  194.1060  174.3870  136.8730 C   0  0  1  0  0  3  0  0  0  0  0  0
  194.5510  175.6360  138.9340 O   0  0  0  0  0  0  0  0  0  0  0  0
  194.7380  174.5140  138.1890 N   0  0  0  0  0  0  0  0  0  0  0  0
  195.6150  175.5970  139.7900 N   0  0  0  0  0  2  0  0  0  0  0  0
  195.9190  173.7940  138.5800 C   0  0  0  0  0  3  0  0  0  0  0  0
  196.4560  174.4610  139.5630 C   0  0  0  0  0  3  0  0  0  0  0  0
  181.6850  173.9460  139.0720 F   0  0  0  0  0  0  0  0  0  0  0  0
  181.5540  175.2060  139.6170 C   0  0  2  0  0  3  0  0  0  0  0  0
  180.0890  175.7260  139.5820 C   0  0  0  0  0  2  0  0  0  0  0  0
  178.9310  176.8710  141.3220 O   0  0  0  0  0  0  0  0  0  0  0  0
  179.2690  174.6180  141.6740 O   0  0  0  0  0  1  0  0  0  0  0  0
  179.4160  175.7750  140.9140 C   0  0  0  0  0  0  0  0  0  0  0  0
  185.3190  180.1140  146.4800 O   0  0  0  0  0  0  0  0  0  0  0  0
  186.3110  180.1260  147.4970 C   0  0  0  0  0  2  0  0  0  0  0  0
  186.7980  178.7870  147.7330 N   0  0  0  0  0  2  0  0  0  0  0  0
  188.2190  178.9640  148.0330 C   0  0  0  0  0  2  0  0  0  0  0  0
  191.3050  177.0970  148.3280 C   0  0  0  0  0  0  0  0  0  0  0  0
  191.9360  176.3230  146.1500 C   0  0  0  0  0  3  0  0  0  0  0  0
  192.1750  176.4400  147.6060 C   0  0  0  0  0  3  0  0  0  0  0  0
  190.2970  177.7150  148.8440 C   0  0  0  0  0  3  0  0  0  0  0  0
  188.9450  177.6170  148.1500 C   0  0  2  0  0  3  0  0  0  0  0  0
  190.9130  176.8540  145.4390 C   0  0  0  0  0  3  0  0  0  0  0  0
  189.8130  177.7200  146.0070 C   0  0  0  0  0  2  0  0  0  0  0  0
  188.9930  176.9730  146.8880 O   0  0  0  0  0  0  0  0  0  0  0  0
  1 23  1  0  0  0  0
  2 12  1  0  0  0  0
  3  5  2  0  0  0  0
  3  6  1  0  0  0  0
  4 22  2  0  0  0  0
  4 28  1  0  0  0  0
  6 18  1  0  0  0  0
  7 13  1  0  0  0  0
  8 26  1  0  0  0  0
  8 29  1  0  0  0  0
  9 11  1  0  0  0  0
 10  9  1  0  0  0  0
 11  3  1  0  0  0  0
 12  7  2  0  0  0  0
 13 10  1  0  0  0  0
 14  8  2  0  0  0  0
 15  4  1  0  0  0  0
 16 25  1  0  0  0  0
 17 20  1  0  0  0  0
 17 30  1  0  0  0  0
 18 27  1  0  0  0  0
 19 16  2  0  0  0  0
 19 14  1  0  0  0  0
 20 21  1  6  0  0  0
 20 15  1  0  0  0  0
 23 55  1  0  0  0  0
 24 29  1  0  0  0  0
 24 18  2  0  0  0  0
 25 26  2  0  0  0  0
 27 23  2  0  0  0  0
 28 50  1  0  0  0  0
 28 16  1  0  0  0  0
 29  1  2  0  0  0  0
 30  2  1  0  0  0  0
 31 12  1  0  0  0  0
 31 32  1  1  0  0  0
 33 31  1  0  0  0  0
 34 36  1  0  0  0  0
 34 33  1  1  0  0  0
 35 34  1  0  0  0  0
 35 41  1  0  0  0  0
 35 36  1  1  0  0  0
 38 40  1  0  0  0  0
 39 38  1  0  0  0  0
 39 41  1  0  0  0  0
 40 42  1  1  0  0  0
 40 43  1  0  0  0  0
 41 37  1  1  0  0  0
 43 37  1  1  0  0  0
 43 45  1  0  0  0  0
 44 46  1  0  0  0  0
 45 47  1  0  0  0  0
 45 44  1  0  0  0  0
 47 48  2  0  0  0  0
 48 46  1  0  0  0  0
 50 49  1  6  0  0  0
 51 50  1  0  0  0  0
 51 54  1  0  0  0  0
 54 52  2  0  0  0  0
 54 53  1  0  0  0  0
 55 56  1  0  0  0  0
 56 57  1  0  0  0  0
 57 58  1  0  0  0  0
 59 62  2  0  0  0  0
 60 61  1  0  0  0  0
 61 59  2  0  0  0  0
 63 58  1  6  0  0  0
 63 62  1  0  0  0  0
 64 65  1  0  0  0  0
 64 60  2  0  0  0  0
 65 66  1  0  0  0  0
 66 63  1  0  0  0  0
M  END
>  <MODEL>
5

>  <REMARK>
 VINA RESULT:      -4.4      4.371      9.133
  Name = 
  13 active torsions:
  status: ('A' for Active; 'I' for Inactive)
    1  A    between atoms: C_6  and  C_19
    2  A    between atoms: C_6  and  C_37
    3  A    between atoms: C_11  and  C_38
    4  A    between atoms: C_11  and  C_57
    5  A    between atoms: C_19  and  C_30
    6  A    between atoms: N_20  and  C_45
    7  A    between atoms: C_22  and  C_43
    8  A    between atoms: N_29  and  C_34
    9  A    between atoms: N_29  and  C_35
   10  A    between atoms: C_34  and  O_52
   11  A    between atoms: C_35  and  C_53
   12  A    between atoms: C_38  and  N_63
   13  A    between atoms: C_50  and  O_52
                            x       y       z     vdW  Elec       q    Type
                         _______ _______ _______ _____ _____    ______ ____

>  <TORSDO>
F 13

$$$$
=
 OpenBabel10222418383D

 66 72  0  0  1  0  0  0  0  0999 V2000
  185.6910  179.2030  140.9440 C   0  0  0  0  0  3  0  0  0  0  0  0
  191.9350  175.8170  136.2320 O   0  0  0  0  0  0  0  0  0  0  0  0
  189.0010  175.8810  142.8730 C   0  0  0  0  0  0  0  0  0  0  0  0
  187.8750  173.5780  136.6870 C   0  0  0  0  0  0  0  0  0  0  0  0
  188.3990  174.8060  143.1780 O   0  0  0  0  0  0  0  0  0  0  0  0
  188.4730  177.1230  143.2980 O   0  0  0  0  0  0  0  0  0  0  0  0
  190.9420  176.6510  138.1390 N   0  0  0  0  0  0  0  0  0  0  0  0
  186.4870  177.8360  138.9750 C   0  0  0  0  0  0  0  0  0  0  0  0
  191.0910  176.8620  141.8460 C   0  0  0  0  0  2  0  0  0  0  0  0
  191.7120  176.8050  140.4420 C   0  0  0  0  0  2  0  0  0  0  0  0
  190.0900  175.8230  141.9360 N   0  0  0  0  0  2  0  0  0  0  0  0
  192.0000  176.5910  137.3900 C   0  0  0  0  0  0  0  0  0  0  0  0
  190.7800  177.3840  139.3910 C   0  0  0  0  0  2  0  0  0  0  0  0
  187.6780  177.3950  138.3740 C   0  0  0  0  0  3  0  0  0  0  0  0
  188.5630  173.5920  135.3450 C   0  0  0  0  0  2  0  0  0  0  0  0
  186.5170  175.5480  137.3530 C   0  0  0  0  0  0  0  0  0  0  0  0
  190.7400  174.6010  134.5950 C   0  0  0  0  0  2  0  0  0  0  0  0
  187.5140  177.8070  142.5330 C   0  0  0  0  0  0  0  0  0  0  0  0
  187.7020  176.2410  137.6040 C   0  0  0  0  0  3  0  0  0  0  0  0
  190.0990  173.5380  135.4940 C   0  0  2  0  0  3  0  0  0  0  0  0
  190.5950  172.2530  135.2270 O   0  0  0  0  0  1  0  0  0  0  0  0
  188.4500  173.0590  137.7090 O   0  0  0  0  0  0  0  0  0  0  0  0
  185.7370  179.4400  142.3330 C   0  0  0  0  0  0  0  0  0  0  0  0
  187.4700  177.6310  141.1910 N   0  0  0  0  0  0  0  0  0  0  0  0
  185.2860  176.1190  137.7310 C   0  0  0  0  0  3  0  0  0  0  0  0
  185.2650  177.2550  138.5560 C   0  0  0  0  0  3  0  0  0  0  0  0
  186.6310  178.7060  143.1350 C   0  0  0  0  0  3  0  0  0  0  0  0
  186.5790  174.2000  136.8440 N   0  0  0  0  0  0  0  0  0  0  0  0
  186.5760  178.2800  140.3750 C   0  0  0  0  0  0  0  0  0  0  0  0
  190.8280  175.8880  135.3520 C   0  0  0  0  0  2  0  0  0  0  0  0
  193.3090  177.2470  137.7560 C   0  0  1  0  0  3  0  0  0  0  0  0
  193.5020  177.0550  139.1250 O   0  0  0  0  0  1  0  0  0  0  0  0
  194.4250  176.5430  136.9820 C   0  0  0  0  0  2  0  0  0  0  0  0
  195.1610  177.3660  135.8960 C   0  0  1  0  0  3  0  0  0  0  0  0
  196.2230  176.8030  134.9010 C   0  0  2  0  0  3  0  0  0  0  0  0
  194.7530  176.5800  134.6430 C   0  0  0  0  0  2  0  0  0  0  0  0
  196.1090  174.3280  135.1340 C   0  0  0  0  0  2  0  0  0  0  0  0
  198.8800  174.5120  135.7010 C   0  0  0  0  0  2  0  0  0  0  0  0
  198.2460  175.4730  134.9090 O   0  0  0  0  0  0  0  0  0  0  0  0
  198.4710  173.1610  135.1700 C   0  0  1  0  0  3  0  0  0  0  0  0
  196.9430  175.5640  135.4520 C   0  0  1  0  0  3  0  0  0  0  0  0
  199.1780  172.0260  135.9350 C   0  0  0  0  0  1  0  0  0  0  0  0
  196.9370  173.0140  135.0670 C   0  0  1  0  0  3  0  0  0  0  0  0
  196.9190  171.7520  137.1680 O   0  0  0  0  0  0  0  0  0  0  0  0
  196.3870  171.9680  135.9350 N   0  0  0  0  0  0  0  0  0  0  0  0
  196.5100  170.4780  137.4410 N   0  0  0  0  0  2  0  0  0  0  0  0
  195.6620  170.8270  135.4500 C   0  0  0  0  0  3  0  0  0  0  0  0
  195.7380  169.9130  136.3760 C   0  0  0  0  0  3  0  0  0  0  0  0
  185.4040  172.7690  138.3500 F   0  0  0  0  0  0  0  0  0  0  0  0
  185.4480  173.2820  137.0710 C   0  0  2  0  0  3  0  0  0  0  0  0
  185.3510  172.1800  135.9780 C   0  0  0  0  0  2  0  0  0  0  0  0
  184.0030  170.2460  135.6310 O   0  0  0  0  0  0  0  0  0  0  0  0
  182.8590  172.1540  136.2350 O   0  0  0  0  0  1  0  0  0  0  0  0
  184.0340  171.4770  135.9180 C   0  0  0  0  0  0  0  0  0  0  0  0
  184.9300  180.4350  142.8960 O   0  0  0  0  0  0  0  0  0  0  0  0
  184.1150  180.1250  144.0180 C   0  0  0  0  0  2  0  0  0  0  0  0
  182.7250  180.0900  143.6280 N   0  0  0  0  0  2  0  0  0  0  0  0
  182.5900  178.8420  142.8750 C   0  0  0  0  0  2  0  0  0  0  0  0
  179.6460  177.4600  141.2870 C   0  0  0  0  0  0  0  0  0  0  0  0
  180.3270  176.2910  139.3100 C   0  0  0  0  0  3  0  0  0  0  0  0
  179.2820  176.7470  140.2530 C   0  0  0  0  0  3  0  0  0  0  0  0
  180.2160  178.1980  142.1800 C   0  0  0  0  0  3  0  0  0  0  0  0
  181.4920  178.9420  141.8080 C   0  0  2  0  0  3  0  0  0  0  0  0
  181.6630  176.4970  139.3990 C   0  0  0  0  0  3  0  0  0  0  0  0
  182.3600  177.2200  140.5270 C   0  0  0  0  0  2  0  0  0  0  0  0
  182.0090  178.5930  140.5340 O   0  0  0  0  0  0  0  0  0  0  0  0
  1 23  1  0  0  0  0
  2 12  1  0  0  0  0
  3  5  2  0  0  0  0
  3  6  1  0  0  0  0
  4 28  1  0  0  0  0
  4 22  2  0  0  0  0
  7 13  1  0  0  0  0
  8 29  1  0  0  0  0
  9 11  1  0  0  0  0
 10  9  1  0  0  0  0
 11  3  1  0  0  0  0
 12 31  1  0  0  0  0
 12  7  2  0  0  0  0
 13 10  1  0  0  0  0
 14  8  2  0  0  0  0
 15 20  1  0  0  0  0
 15  4  1  0  0  0  0
 16 19  2  0  0  0  0
 16 25  1  0  0  0  0
 17 30  1  0  0  0  0
 17 20  1  0  0  0  0
 18 27  1  0  0  0  0
 18  6  1  0  0  0  0
 19 14  1  0  0  0  0
 20 21  1  6  0  0  0
 23 55  1  0  0  0  0
 23 27  2  0  0  0  0
 24 18  2  0  0  0  0
 25 26  2  0  0  0  0
 26  8  1  0  0  0  0
 28 50  1  0  0  0  0
 28 16  1  0  0  0  0
 29  1  2  0  0  0  0
 29 24  1  0  0  0  0
 30  2  1  0  0  0  0
 31 32  1  1  0  0  0
 33 31  1  0  0  0  0
 34 33  1  1  0  0  0
 35 36  1  6  0  0  0
 35 41  1  0  0  0  0
 35 34  1  0  0  0  0
 36 34  1  0  0  0  0
 39 41  1  0  0  0  0
 39 38  1  0  0  0  0
 40 38  1  0  0  0  0
 40 42  1  1  0  0  0
 41 37  1  6  0  0  0
 43 37  1  1  0  0  0
 43 40  1  0  0  0  0
 43 45  1  0  0  0  0
 44 46  1  0  0  0  0
 45 44  1  0  0  0  0
 47 45  1  0  0  0  0
 47 48  2  0  0  0  0
 48 46  1  0  0  0  0
 50 49  1  1  0  0  0
 51 50  1  0  0  0  0
 52 54  2  0  0  0  0
 54 51  1  0  0  0  0
 54 53  1  0  0  0  0
 55 56  1  0  0  0  0
 57 56  1  0  0  0  0
 58 57  1  0  0  0  0
 59 62  2  0  0  0  0
 60 64  2  0  0  0  0
 60 61  1  0  0  0  0
 61 59  2  0  0  0  0
 63 62  1  0  0  0  0
 63 58  1  1  0  0  0
 64 65  1  0  0  0  0
 65 66  1  0  0  0  0
 66 63  1  0  0  0  0
M  END
>  <MODEL>
6

>  <REMARK>
 VINA RESULT:      -4.3      4.800      8.134
  Name = 
  13 active torsions:
  status: ('A' for Active; 'I' for Inactive)
    1  A    between atoms: C_6  and  C_19
    2  A    between atoms: C_6  and  C_37
    3  A    between atoms: C_11  and  C_38
    4  A    between atoms: C_11  and  C_57
    5  A    between atoms: C_19  and  C_30
    6  A    between atoms: N_20  and  C_45
    7  A    between atoms: C_22  and  C_43
    8  A    between atoms: N_29  and  C_34
    9  A    between atoms: N_29  and  C_35
   10  A    between atoms: C_34  and  O_52
   11  A    between atoms: C_35  and  C_53
   12  A    between atoms: C_38  and  N_63
   13  A    between atoms: C_50  and  O_52
                            x       y       z     vdW  Elec       q    Type
                         _______ _______ _______ _____ _____    ______ ____

>  <TORSDO>
F 13

$$$$
