=
 OpenBabel10222415473D

 31 37  0  0  1  0  0  0  0  0999 V2000
  189.1520  177.3990  138.4170 C   0  0  0  0  0  2  0  0  0  0  0  0
  186.6450  178.4050  140.9720 C   0  0  0  0  0  0  0  0  0  0  0  0
  186.8590  178.2230  142.3130 C   0  0  0  0  0  0  0  0  0  0  0  0
  186.6230  178.0880  145.0700 C   0  0  0  0  0  0  0  0  0  0  0  0
  185.3390  178.3610  147.0350 C   0  0  0  0  0  3  0  0  0  0  0  0
  187.0660  178.6190  138.5670 N   0  0  1  0  0  0  0  0  0  0  0  0
  185.5180  178.5150  144.2940 C   0  0  0  0  0  0  0  0  0  0  0  0
  185.6650  178.5720  142.9100 C   0  0  0  0  0  0  0  0  0  0  0  0
  187.9260  177.8730  137.6270 C   0  0  2  0  0  3  0  0  0  0  0  0
  184.7700  178.9330  142.0100 O   0  0  0  0  0  0  0  0  0  0  0  0
  185.6110  178.3860  138.3870 C   0  0  0  0  0  2  0  0  0  0  0  0
  185.3520  178.8220  140.8290 C   0  0  0  0  0  0  0  0  0  0  0  0
  187.9680  177.7990  143.0410 C   0  0  0  0  0  3  0  0  0  0  0  0
  184.3350  178.8560  144.9460 C   0  0  0  0  0  3  0  0  0  0  0  0
  188.7220  177.4410  139.8670 C   0  0  0  0  0  2  0  0  0  0  0  0
  187.4800  178.1810  139.8400 N   0  0  0  0  0  0  0  0  0  0  0  0
  184.7680  179.0960  139.4750 C   0  0  2  0  0  3  0  0  0  0  0  0
  184.2690  178.7730  146.3010 N   0  0  0  0  0  0  0  0  0  0  0  0
  187.8380  177.7340  144.4420 C   0  0  0  0  0  3  0  0  0  0  0  0
  186.5050  178.0230  146.4200 N   0  0  0  0  0  0  0  0  0  0  0  0
  181.0120  179.1580  139.1460 N   0  0  0  0  0  0  0  0  0  0  0  0
  183.3360  178.6680  139.3970 C   0  0  0  0  0  0  0  0  0  0  0  0
  182.2970  179.5890  139.2180 C   0  0  0  0  0  3  0  0  0  0  0  0
  183.0090  177.3160  139.4950 C   0  0  0  0  0  3  0  0  0  0  0  0
  180.7150  177.8350  139.2460 C   0  0  0  0  0  3  0  0  0  0  0  0
  181.7100  176.9240  139.4190 N   0  0  0  0  0  0  0  0  0  0  0  0
  187.8730  174.7580  135.6750 C   0  0  0  0  0  2  0  0  0  0  0  0
  187.2440  176.6990  136.8880 C   0  0  1  0  0  3  0  0  0  0  0  0
  187.1110  176.9910  135.5230 O   0  0  0  0  0  0  0  0  0  0  0  0
  187.0400  175.7420  134.8890 C   0  0  0  0  0  2  0  0  0  0  0  0
  187.9880  175.3820  137.0320 C   0  0  0  0  0  2  0  0  0  0  0  0
  1 15  1  0  0  0  0
  2  3  1  0  0  0  0
  3  8  2  0  0  0  0
  3 13  1  0  0  0  0
  4 20  1  0  0  0  0
  6 11  1  6  0  0  0
  6 16  1  0  0  0  0
  7 14  1  0  0  0  0
  7  4  2  0  0  0  0
  8  7  1  0  0  0  0
  9  1  1  1  0  0  0
  9  6  1  0  0  0  0
 10  8  1  0  0  0  0
 11 17  1  0  0  0  0
 12  2  2  0  0  0  0
 12 10  1  0  0  0  0
 13 19  2  0  0  0  0
 14 18  2  0  0  0  0
 16 15  1  0  0  0  0
 16  2  1  0  0  0  0
 17 22  1  1  0  0  0
 17 12  1  0  0  0  0
 18  5  1  0  0  0  0
 19  4  1  0  0  0  0
 20  5  2  0  0  0  0
 21 23  2  0  0  0  0
 21 25  1  0  0  0  0
 22 24  2  0  0  0  0
 23 22  1  0  0  0  0
 25 26  2  0  0  0  0
 26 24  1  0  0  0  0
 27 31  1  0  0  0  0
 28 31  1  6  0  0  0
 28  9  1  0  0  0  0
 29 28  1  0  0  0  0
 30 29  1  0  0  0  0
 30 27  1  0  0  0  0
M  END
>  <MODEL>
1

>  <REMARK>
 VINA RESULT:      -9.0      0.000      0.000
  Name = 
  2 active torsions:
  status: ('A' for Active; 'I' for Inactive)
    1  A    between atoms: C_8  and  C_14
    2  A    between atoms: C_9  and  C_26
                            x       y       z     vdW  Elec       q    Type
                         _______ _______ _______ _____ _____    ______ ____

>  <TORSDO>
F 2

$$$$
=
 OpenBabel10222415473D

 31 37  0  0  1  0  0  0  0  0999 V2000
  190.5660  176.5910  138.1410 C   0  0  0  0  0  2  0  0  0  0  0  0
  189.5670  177.6050  141.5760 C   0  0  0  0  0  0  0  0  0  0  0  0
  190.2390  177.1690  142.6880 C   0  0  0  0  0  0  0  0  0  0  0  0
  191.0740  176.6300  145.2730 C   0  0  0  0  0  0  0  0  0  0  0  0
  190.7630  176.8070  147.6090 C   0  0  0  0  0  3  0  0  0  0  0  0
  189.0520  178.1300  139.2380 N   0  0  1  0  0  0  0  0  0  0  0  0
  189.8880  177.3720  145.0630 C   0  0  0  0  0  0  0  0  0  0  0  0
  189.4910  177.6280  143.7530 C   0  0  0  0  0  0  0  0  0  0  0  0
  189.2760  177.4040  137.9720 C   0  0  2  0  0  3  0  0  0  0  0  0
  188.4260  178.2890  143.3380 O   0  0  0  0  0  0  0  0  0  0  0  0
  187.6320  178.1990  139.6640 C   0  0  0  0  0  2  0  0  0  0  0  0
  188.4570  178.2680  142.0180 C   0  0  0  0  0  0  0  0  0  0  0  0
  191.4120  176.4370  142.8530 C   0  0  0  0  0  3  0  0  0  0  0  0
  189.1680  177.8120  146.1730 C   0  0  0  0  0  3  0  0  0  0  0  0
  190.7600  176.4720  139.6370 C   0  0  0  0  0  2  0  0  0  0  0  0
  189.8160  177.4200  140.1860 N   0  0  0  0  0  0  0  0  0  0  0  0
  187.4730  178.8630  141.0550 C   0  0  2  0  0  3  0  0  0  0  0  0
  189.6200  177.5220  147.4220 N   0  0  0  0  0  0  0  0  0  0  0  0
  191.8280  176.1680  144.1720 C   0  0  0  0  0  3  0  0  0  0  0  0
  191.4820  176.3670  146.5410 N   0  0  0  0  0  0  0  0  0  0  0  0
  184.4920  178.2380  143.2780 N   0  0  0  0  0  0  0  0  0  0  0  0
  186.0670  178.7220  141.5500 C   0  0  0  0  0  0  0  0  0  0  0  0
  185.7810  178.3470  142.8670 C   0  0  0  0  0  3  0  0  0  0  0  0
  184.9990  178.9780  140.6900 C   0  0  0  0  0  3  0  0  0  0  0  0
  183.4650  178.4900  142.4220 C   0  0  0  0  0  3  0  0  0  0  0  0
  183.7220  178.8560  141.1390 N   0  0  0  0  0  0  0  0  0  0  0  0
  187.6970  174.8330  135.8710 C   0  0  0  0  0  2  0  0  0  0  0  0
  188.1060  176.5110  137.5000 C   0  0  1  0  0  3  0  0  0  0  0  0
  187.4300  177.1150  136.4300 O   0  0  0  0  0  0  0  0  0  0  0  0
  186.8210  176.0580  135.7400 C   0  0  0  0  0  2  0  0  0  0  0  0
  188.5430  175.1200  137.0740 C   0  0  0  0  0  2  0  0  0  0  0  0
  1 15  1  0  0  0  0
  2 12  2  0  0  0  0
  2  3  1  0  0  0  0
  3 13  2  0  0  0  0
  3  8  1  0  0  0  0
  4 20  1  0  0  0  0
  6 11  1  1  0  0  0
  6 16  1  0  0  0  0
  7  4  1  0  0  0  0
  7 14  1  0  0  0  0
  8  7  2  0  0  0  0
  9  1  1  1  0  0  0
  9  6  1  0  0  0  0
 10  8  1  0  0  0  0
 11 17  1  0  0  0  0
 12 10  1  0  0  0  0
 13 19  1  0  0  0  0
 14 18  2  0  0  0  0
 15 16  1  0  0  0  0
 16  2  1  0  0  0  0
 17 22  1  1  0  0  0
 17 12  1  0  0  0  0
 18  5  1  0  0  0  0
 19  4  2  0  0  0  0
 20  5  2  0  0  0  0
 22 23  2  0  0  0  0
 23 21  1  0  0  0  0
 24 26  2  0  0  0  0
 24 22  1  0  0  0  0
 25 21  2  0  0  0  0
 26 25  1  0  0  0  0
 27 31  1  0  0  0  0
 28 31  1  6  0  0  0
 28  9  1  0  0  0  0
 29 28  1  0  0  0  0
 30 27  1  0  0  0  0
 30 29  1  0  0  0  0
M  END
>  <MODEL>
2

>  <REMARK>
 VINA RESULT:      -8.6      2.479      3.608
  Name = 
  2 active torsions:
  status: ('A' for Active; 'I' for Inactive)
    1  A    between atoms: C_8  and  C_14
    2  A    between atoms: C_9  and  C_26
                            x       y       z     vdW  Elec       q    Type
                         _______ _______ _______ _____ _____    ______ ____

>  <TORSDO>
F 2

$$$$
=
 OpenBabel10222415473D

 31 37  0  0  1  0  0  0  0  0999 V2000
  188.3970  177.5810  138.5280 C   0  0  0  0  0  2  0  0  0  0  0  0
  187.1680  178.2600  141.9700 C   0  0  0  0  0  0  0  0  0  0  0  0
  187.8600  177.8570  143.0830 C   0  0  0  0  0  0  0  0  0  0  0  0
  188.6830  177.2920  145.6670 C   0  0  0  0  0  0  0  0  0  0  0  0
  188.2810  177.2970  147.9950 C   0  0  0  0  0  3  0  0  0  0  0  0
  186.6570  178.8410  139.6450 N   0  0  1  0  0  0  0  0  0  0  0  0
  187.4140  177.8800  145.4510 C   0  0  0  0  0  0  0  0  0  0  0  0
  187.0260  178.1530  144.1410 C   0  0  0  0  0  0  0  0  0  0  0  0
  187.0150  178.2220  138.3530 C   0  0  2  0  0  3  0  0  0  0  0  0
  185.8940  178.6870  143.7220 O   0  0  0  0  0  0  0  0  0  0  0  0
  185.2290  178.6960  140.0220 C   0  0  0  0  0  2  0  0  0  0  0  0
  185.9660  178.7440  142.4040 C   0  0  0  0  0  0  0  0  0  0  0  0
  189.1160  177.2810  143.2540 C   0  0  0  0  0  3  0  0  0  0  0  0
  186.6090  178.1580  146.5540 C   0  0  0  0  0  3  0  0  0  0  0  0
  188.5600  177.4060  140.0220 C   0  0  0  0  0  2  0  0  0  0  0  0
  187.4810  178.1880  140.5830 N   0  0  0  0  0  0  0  0  0  0  0  0
  184.9390  179.2540  141.4370 C   0  0  2  0  0  3  0  0  0  0  0  0
  187.0580  177.8620  147.8020 N   0  0  0  0  0  0  0  0  0  0  0  0
  189.5250  176.9970  144.5710 C   0  0  0  0  0  3  0  0  0  0  0  0
  189.0850  177.0160  146.9330 N   0  0  0  0  0  0  0  0  0  0  0  0
  181.3390  178.1330  141.4040 N   0  0  0  0  0  0  0  0  0  0  0  0
  183.5520  178.9000  141.8720 C   0  0  0  0  0  0  0  0  0  0  0  0
  182.5840  178.4500  140.9660 C   0  0  0  0  0  3  0  0  0  0  0  0
  183.1980  179.0040  143.2170 C   0  0  0  0  0  3  0  0  0  0  0  0
  181.0140  178.2440  142.7190 C   0  0  0  0  0  3  0  0  0  0  0  0
  181.9400  178.6770  143.6160 N   0  0  0  0  0  0  0  0  0  0  0  0
  185.8060  175.6860  135.9800 C   0  0  0  0  0  2  0  0  0  0  0  0
  185.9910  177.2080  137.7930 C   0  0  1  0  0  3  0  0  0  0  0  0
  185.1900  177.8120  136.8120 O   0  0  0  0  0  0  0  0  0  0  0  0
  184.7390  176.7550  136.0090 C   0  0  0  0  0  2  0  0  0  0  0  0
  186.6340  175.9680  137.1970 C   0  0  0  0  0  2  0  0  0  0  0  0
  1 15  1  0  0  0  0
  2 12  2  0  0  0  0
  2  3  1  0  0  0  0
  3 13  2  0  0  0  0
  3  8  1  0  0  0  0
  4 20  1  0  0  0  0
  6 11  1  1  0  0  0
  6 16  1  0  0  0  0
  7  4  1  0  0  0  0
  7 14  1  0  0  0  0
  8  7  2  0  0  0  0
  9  1  1  1  0  0  0
  9  6  1  0  0  0  0
 10  8  1  0  0  0  0
 11 17  1  0  0  0  0
 12 10  1  0  0  0  0
 13 19  1  0  0  0  0
 14 18  2  0  0  0  0
 15 16  1  0  0  0  0
 16  2  1  0  0  0  0
 17 22  1  1  0  0  0
 17 12  1  0  0  0  0
 18  5  1  0  0  0  0
 19  4  2  0  0  0  0
 20  5  2  0  0  0  0
 21 25  1  0  0  0  0
 22 24  2  0  0  0  0
 23 21  2  0  0  0  0
 23 22  1  0  0  0  0
 24 26  1  0  0  0  0
 25 26  2  0  0  0  0
 27 30  1  0  0  0  0
 27 31  1  0  0  0  0
 28 31  1  6  0  0  0
 28  9  1  0  0  0  0
 29 28  1  0  0  0  0
 30 29  1  0  0  0  0
M  END
>  <MODEL>
3

>  <REMARK>
 VINA RESULT:      -7.7      1.823      2.330
  Name = 
  2 active torsions:
  status: ('A' for Active; 'I' for Inactive)
    1  A    between atoms: C_8  and  C_14
    2  A    between atoms: C_9  and  C_26
                            x       y       z     vdW  Elec       q    Type
                         _______ _______ _______ _____ _____    ______ ____

>  <TORSDO>
F 2

$$$$
=
 OpenBabel10222415473D

 31 37  0  0  1  0  0  0  0  0999 V2000
  183.0940  178.4770  138.4000 C   0  0  0  0  0  2  0  0  0  0  0  0
  186.2270  178.6090  140.3980 C   0  0  0  0  0  0  0  0  0  0  0  0
  187.4270  178.1750  139.8990 C   0  0  0  0  0  0  0  0  0  0  0  0
  190.0730  177.4320  139.5520 C   0  0  0  0  0  0  0  0  0  0  0  0
  192.2490  177.1270  140.4220 C   0  0  0  0  0  3  0  0  0  0  0  0
  183.9020  179.3770  140.4980 N   0  0  1  0  0  0  0  0  0  0  0  0
  189.6330  177.8770  140.8220 C   0  0  0  0  0  0  0  0  0  0  0  0
  188.2970  178.2430  140.9680 C   0  0  0  0  0  0  0  0  0  0  0  0
  182.6730  178.9560  139.7950 C   0  0  2  0  0  3  0  0  0  0  0  0
  187.6840  178.6760  142.0540 O   0  0  0  0  0  0  0  0  0  0  0  0
  183.9420  179.0130  141.9360 C   0  0  0  0  0  2  0  0  0  0  0  0
  186.4240  178.8880  141.7210 C   0  0  0  0  0  0  0  0  0  0  0  0
  187.8210  177.7440  138.6350 C   0  0  0  0  0  3  0  0  0  0  0  0
  190.5520  177.9270  141.8690 C   0  0  0  0  0  3  0  0  0  0  0  0
  184.5680  178.1590  138.5240 C   0  0  0  0  0  2  0  0  0  0  0  0
  184.9410  178.7320  139.7980 N   0  0  0  0  0  0  0  0  0  0  0  0
  185.3000  179.3700  142.5900 C   0  0  2  0  0  3  0  0  0  0  0  0
  191.8390  177.5520  141.6480 N   0  0  0  0  0  0  0  0  0  0  0  0
  189.1690  177.3690  138.4690 C   0  0  0  0  0  3  0  0  0  0  0  0
  191.3700  177.0690  139.3840 N   0  0  0  0  0  0  0  0  0  0  0  0
  186.4300  177.3870  145.5920 N   0  0  0  0  0  0  0  0  0  0  0  0
  185.3900  178.7980  143.9700 C   0  0  0  0  0  0  0  0  0  0  0  0
  186.3800  177.8760  144.3260 C   0  0  0  0  0  3  0  0  0  0  0  0
  184.4740  179.1910  144.9450 C   0  0  0  0  0  3  0  0  0  0  0  0
  185.5250  177.7830  146.5270 C   0  0  0  0  0  3  0  0  0  0  0  0
  184.5560  178.6780  146.2010 N   0  0  0  0  0  0  0  0  0  0  0  0
  180.1270  176.3110  140.0000 C   0  0  0  0  0  2  0  0  0  0  0  0
  181.8210  177.8910  140.5220 C   0  0  1  0  0  3  0  0  0  0  0  0
  180.5930  178.4370  140.9250 O   0  0  0  0  0  0  0  0  0  0  0  0
  179.7240  177.3430  141.0280 C   0  0  0  0  0  2  0  0  0  0  0  0
  181.5490  176.6570  139.6780 C   0  0  0  0  0  2  0  0  0  0  0  0
  1 15  1  0  0  0  0
  2 12  2  0  0  0  0
  3  2  1  0  0  0  0
  3  8  1  0  0  0  0
  4  7  1  0  0  0  0
  5 18  1  0  0  0  0
  6 11  1  1  0  0  0
  7  8  2  0  0  0  0
  7 14  1  0  0  0  0
  8 10  1  0  0  0  0
  9  1  1  6  0  0  0
  9  6  1  0  0  0  0
  9 28  1  0  0  0  0
 11 17  1  0  0  0  0
 12 10  1  0  0  0  0
 12 17  1  0  0  0  0
 13  3  2  0  0  0  0
 15 16  1  0  0  0  0
 16  2  1  0  0  0  0
 16  6  1  0  0  0  0
 17 22  1  1  0  0  0
 18 14  2  0  0  0  0
 19 13  1  0  0  0  0
 19  4  2  0  0  0  0
 20  4  1  0  0  0  0
 20  5  2  0  0  0  0
 21 25  1  0  0  0  0
 22 23  1  0  0  0  0
 22 24  2  0  0  0  0
 23 21  2  0  0  0  0
 24 26  1  0  0  0  0
 26 25  2  0  0  0  0
 27 30  1  0  0  0  0
 28 31  1  6  0  0  0
 28 29  1  0  0  0  0
 29 30  1  0  0  0  0
 31 27  1  0  0  0  0
M  END
>  <MODEL>
4

>  <REMARK>
 VINA RESULT:      -7.7      2.280      6.345
  Name = 
  2 active torsions:
  status: ('A' for Active; 'I' for Inactive)
    1  A    between atoms: C_8  and  C_14
    2  A    between atoms: C_9  and  C_26
                            x       y       z     vdW  Elec       q    Type
                         _______ _______ _______ _____ _____    ______ ____

>  <TORSDO>
F 2

$$$$
=
 OpenBabel10222415473D

 31 37  0  0  1  0  0  0  0  0999 V2000
  179.9920  179.7340  139.7340 C   0  0  0  0  0  2  0  0  0  0  0  0
  183.1190  178.5510  141.3620 C   0  0  0  0  0  0  0  0  0  0  0  0
  183.3420  178.7020  142.7050 C   0  0  0  0  0  0  0  0  0  0  0  0
  184.4310  178.7460  145.2520 C   0  0  0  0  0  0  0  0  0  0  0  0
  186.2490  178.3620  146.7120 C   0  0  0  0  0  3  0  0  0  0  0  0
  181.9600  178.4240  139.2060 N   0  0  1  0  0  0  0  0  0  0  0  0
  185.2170  178.2970  144.1630 C   0  0  0  0  0  0  0  0  0  0  0  0
  184.6440  178.2860  142.8940 C   0  0  0  0  0  0  0  0  0  0  0  0
  180.8860  179.2330  138.5930 C   0  0  2  0  0  3  0  0  0  0  0  0
  185.1960  177.9150  141.7540 O   0  0  0  0  0  0  0  0  0  0  0  0
  183.2950  178.6020  138.5840 C   0  0  0  0  0  2  0  0  0  0  0  0
  184.2810  178.0850  140.8160 C   0  0  0  0  0  0  0  0  0  0  0  0
  182.5370  179.1490  143.7490 C   0  0  0  0  0  3  0  0  0  0  0  0
  186.5270  177.8880  144.4070 C   0  0  0  0  0  3  0  0  0  0  0  0
  180.8500  179.6310  140.9770 C   0  0  0  0  0  2  0  0  0  0  0  0
  181.9840  178.8420  140.5510 N   0  0  0  0  0  0  0  0  0  0  0  0
  184.4000  177.8260  139.3430 C   0  0  2  0  0  3  0  0  0  0  0  0
  187.0160  177.9280  145.6750 N   0  0  0  0  0  0  0  0  0  0  0  0
  183.1000  179.1680  145.0400 C   0  0  0  0  0  3  0  0  0  0  0  0
  184.9670  178.7670  146.4990 N   0  0  0  0  0  0  0  0  0  0  0  0
  188.0770  178.6400  139.1660 N   0  0  0  0  0  0  0  0  0  0  0  0
  185.7560  178.1960  138.8280 C   0  0  0  0  0  0  0  0  0  0  0  0
  186.8630  178.3080  139.6760 C   0  0  0  0  0  3  0  0  0  0  0  0
  185.9410  178.4310  137.4660 C   0  0  0  0  0  3  0  0  0  0  0  0
  188.2350  178.8660  137.8350 C   0  0  0  0  0  3  0  0  0  0  0  0
  187.1720  178.7610  136.9950 N   0  0  0  0  0  0  0  0  0  0  0  0
  180.7740  182.6580  137.2610 C   0  0  0  0  0  2  0  0  0  0  0  0
  181.3610  180.3990  137.6960 C   0  0  1  0  0  3  0  0  0  0  0  0
  180.6300  180.4240  136.4990 O   0  0  0  0  0  0  0  0  0  0  0  0
  180.7050  181.7520  136.0550 C   0  0  0  0  0  2  0  0  0  0  0  0
  181.2450  181.7590  138.3630 C   0  0  0  0  0  2  0  0  0  0  0  0
  1 15  1  0  0  0  0
  2  3  1  0  0  0  0
  3  8  2  0  0  0  0
  3 13  1  0  0  0  0
  4 20  1  0  0  0  0
  6 11  1  6  0  0  0
  6 16  1  0  0  0  0
  7 14  1  0  0  0  0
  7  4  2  0  0  0  0
  8  7  1  0  0  0  0
  9  6  1  0  0  0  0
  9  1  1  1  0  0  0
 10  8  1  0  0  0  0
 11 17  1  0  0  0  0
 12  2  2  0  0  0  0
 12 10  1  0  0  0  0
 13 19  2  0  0  0  0
 14 18  2  0  0  0  0
 16 15  1  0  0  0  0
 16  2  1  0  0  0  0
 17 22  1  6  0  0  0
 17 12  1  0  0  0  0
 18  5  1  0  0  0  0
 19  4  1  0  0  0  0
 20  5  2  0  0  0  0
 21 23  1  0  0  0  0
 22 23  2  0  0  0  0
 24 22  1  0  0  0  0
 25 21  2  0  0  0  0
 26 24  2  0  0  0  0
 26 25  1  0  0  0  0
 27 31  1  0  0  0  0
 28 31  1  1  0  0  0
 28  9  1  0  0  0  0
 29 28  1  0  0  0  0
 30 29  1  0  0  0  0
 30 27  1  0  0  0  0
M  END
>  <MODEL>
5

>  <REMARK>
 VINA RESULT:      -7.5      2.142      5.573
  Name = 
  2 active torsions:
  status: ('A' for Active; 'I' for Inactive)
    1  A    between atoms: C_8  and  C_14
    2  A    between atoms: C_9  and  C_26
                            x       y       z     vdW  Elec       q    Type
                         _______ _______ _______ _____ _____    ______ ____

>  <TORSDO>
F 2

$$$$
=
 OpenBabel10222415473D

 31 37  0  0  1  0  0  0  0  0999 V2000
  183.4150  178.0940  137.7290 C   0  0  0  0  0  2  0  0  0  0  0  0
  186.7390  178.2250  139.3900 C   0  0  0  0  0  0  0  0  0  0  0  0
  187.8810  177.7940  138.7680 C   0  0  0  0  0  0  0  0  0  0  0  0
  190.4780  177.0580  138.1460 C   0  0  0  0  0  0  0  0  0  0  0  0
  192.7330  176.7540  138.7830 C   0  0  0  0  0  3  0  0  0  0  0  0
  184.4350  178.9880  139.7350 N   0  0  1  0  0  0  0  0  0  0  0  0
  190.1720  177.4970  139.4560 C   0  0  0  0  0  0  0  0  0  0  0  0
  188.8570  177.8610  139.7410 C   0  0  0  0  0  0  0  0  0  0  0  0
  183.1410  178.5670  139.1610 C   0  0  2  0  0  3  0  0  0  0  0  0
  188.3600  178.2880  140.8870 O   0  0  0  0  0  0  0  0  0  0  0  0
  184.6250  178.6190  141.1590 C   0  0  0  0  0  2  0  0  0  0  0  0
  187.0720  178.4990  140.6870 C   0  0  0  0  0  0  0  0  0  0  0  0
  188.1430  177.3690  137.4680 C   0  0  0  0  0  3  0  0  0  0  0  0
  191.1940  177.5460  140.4020 C   0  0  0  0  0  3  0  0  0  0  0  0
  184.8950  177.7790  137.6980 C   0  0  0  0  0  2  0  0  0  0  0  0
  185.3970  178.3480  138.9280 N   0  0  0  0  0  0  0  0  0  0  0  0
  186.0440  178.9760  141.6700 C   0  0  2  0  0  3  0  0  0  0  0  0
  192.4520  177.1740  140.0470 N   0  0  0  0  0  0  0  0  0  0  0  0
  189.4660  176.9970  137.1620 C   0  0  0  0  0  3  0  0  0  0  0  0
  191.7510  176.6980  137.8420 N   0  0  0  0  0  0  0  0  0  0  0  0
  185.7260  178.2020  145.3460 N   0  0  0  0  0  0  0  0  0  0  0  0
  186.2770  178.4000  143.0310 C   0  0  0  0  0  0  0  0  0  0  0  0
  185.4850  178.7530  144.1290 C   0  0  0  0  0  3  0  0  0  0  0  0
  187.3020  177.4750  143.2280 C   0  0  0  0  0  3  0  0  0  0  0  0
  186.7320  177.3030  145.5160 C   0  0  0  0  0  3  0  0  0  0  0  0
  187.5120  176.9450  144.4610 N   0  0  0  0  0  0  0  0  0  0  0  0
  181.1110  175.5270  139.5600 C   0  0  0  0  0  2  0  0  0  0  0  0
  182.3710  177.4980  139.9690 C   0  0  1  0  0  3  0  0  0  0  0  0
  181.0120  177.8370  140.0590 O   0  0  0  0  0  0  0  0  0  0  0  0
  180.3470  176.6210  140.2690 C   0  0  0  0  0  2  0  0  0  0  0  0
  182.4840  176.1010  139.3830 C   0  0  0  0  0  2  0  0  0  0  0  0
  2 12  2  0  0  0  0
  3  2  1  0  0  0  0
  3  8  1  0  0  0  0
  4  7  1  0  0  0  0
  5 18  1  0  0  0  0
  6 11  1  1  0  0  0
  7  8  2  0  0  0  0
  7 14  1  0  0  0  0
  8 10  1  0  0  0  0
  9  1  1  6  0  0  0
  9  6  1  0  0  0  0
  9 28  1  0  0  0  0
 11 17  1  0  0  0  0
 12 10  1  0  0  0  0
 12 17  1  0  0  0  0
 13  3  2  0  0  0  0
 15  1  1  0  0  0  0
 15 16  1  0  0  0  0
 16  2  1  0  0  0  0
 16  6  1  0  0  0  0
 17 22  1  1  0  0  0
 18 14  2  0  0  0  0
 19 13  1  0  0  0  0
 19  4  2  0  0  0  0
 20  4  1  0  0  0  0
 20  5  2  0  0  0  0
 21 25  1  0  0  0  0
 22 24  2  0  0  0  0
 22 23  1  0  0  0  0
 23 21  2  0  0  0  0
 24 26  1  0  0  0  0
 26 25  2  0  0  0  0
 27 30  1  0  0  0  0
 28 31  1  6  0  0  0
 28 29  1  0  0  0  0
 29 30  1  0  0  0  0
 31 27  1  0  0  0  0
M  END
>  <MODEL>
6

>  <REMARK>
 VINA RESULT:      -7.5      2.216      6.517
  Name = 
  2 active torsions:
  status: ('A' for Active; 'I' for Inactive)
    1  A    between atoms: C_8  and  C_14
    2  A    between atoms: C_9  and  C_26
                            x       y       z     vdW  Elec       q    Type
                         _______ _______ _______ _____ _____    ______ ____

>  <TORSDO>
F 2

$$$$
=
 OpenBabel10222415473D

 31 37  0  0  1  0  0  0  0  0999 V2000
  184.9470  178.2880  138.2220 C   0  0  0  0  0  2  0  0  0  0  0  0
  188.3560  176.8080  138.1270 C   0  0  0  0  0  0  0  0  0  0  0  0
  188.7060  175.8440  137.2180 C   0  0  0  0  0  0  0  0  0  0  0  0
  190.0170  173.8920  135.7550 C   0  0  0  0  0  0  0  0  0  0  0  0
  191.9130  172.5290  135.3880 C   0  0  0  0  0  3  0  0  0  0  0  0
  187.1280  178.6280  139.2170 N   0  0  1  0  0  0  0  0  0  0  0  0
  190.6570  174.4720  136.8760 C   0  0  0  0  0  0  0  0  0  0  0  0
  189.9740  175.4510  137.5940 C   0  0  0  0  0  0  0  0  0  0  0  0
  185.6890  178.8870  139.4230 C   0  0  2  0  0  3  0  0  0  0  0  0
  190.3810  176.1100  138.6630 O   0  0  0  0  0  0  0  0  0  0  0  0
  187.8710  178.2650  140.4490 C   0  0  0  0  0  2  0  0  0  0  0  0
  189.3990  176.9270  139.0010 C   0  0  0  0  0  0  0  0  0  0  0  0
  188.0430  175.2990  136.1220 C   0  0  0  0  0  3  0  0  0  0  0  0
  191.9380  174.0390  137.2130 C   0  0  0  0  0  3  0  0  0  0  0  0
  185.9070  177.2770  137.6330 C   0  0  0  0  0  2  0  0  0  0  0  0
  187.1610  177.5650  138.2920 N   0  0  0  0  0  0  0  0  0  0  0  0
  189.3430  177.8870  140.1520 C   0  0  2  0  0  3  0  0  0  0  0  0
  192.5390  173.0780  136.4630 N   0  0  0  0  0  0  0  0  0  0  0  0
  188.7190  174.3060  135.3840 C   0  0  0  0  0  3  0  0  0  0  0  0
  190.6610  172.9350  135.0390 N   0  0  0  0  0  0  0  0  0  0  0  0
  189.9450  176.0030  143.3630 N   0  0  0  0  0  0  0  0  0  0  0  0
  190.0000  177.3210  141.3720 C   0  0  0  0  0  0  0  0  0  0  0  0
  189.3090  176.5020  142.2720 C   0  0  0  0  0  3  0  0  0  0  0  0
  191.3420  177.5980  141.6310 C   0  0  0  0  0  3  0  0  0  0  0  0
  191.2530  176.2880  143.5970 C   0  0  0  0  0  3  0  0  0  0  0  0
  191.9430  177.0810  142.7340 N   0  0  0  0  0  0  0  0  0  0  0  0
  183.0380  178.4130  141.9270 C   0  0  0  0  0  2  0  0  0  0  0  0
  185.1050  178.3730  140.7590 C   0  0  1  0  0  3  0  0  0  0  0  0
  185.1960  179.3640  141.7470 O   0  0  0  0  0  0  0  0  0  0  0  0
  184.1880  179.0510  142.6700 C   0  0  0  0  0  2  0  0  0  0  0  0
  183.6570  177.9260  140.6520 C   0  0  0  0  0  2  0  0  0  0  0  0
  2 16  1  0  0  0  0
  2 12  2  0  0  0  0
  3  8  1  0  0  0  0
  3  2  1  0  0  0  0
  4  7  1  0  0  0  0
  5 18  1  0  0  0  0
  6  9  1  0  0  0  0
  6 11  1  1  0  0  0
  7 14  1  0  0  0  0
  7  8  2  0  0  0  0
  8 10  1  0  0  0  0
  9  1  1  6  0  0  0
  9 28  1  0  0  0  0
 10 12  1  0  0  0  0
 12 17  1  0  0  0  0
 13  3  2  0  0  0  0
 15  1  1  0  0  0  0
 15 16  1  0  0  0  0
 16  6  1  0  0  0  0
 17 11  1  0  0  0  0
 17 22  1  1  0  0  0
 18 14  2  0  0  0  0
 19  4  2  0  0  0  0
 19 13  1  0  0  0  0
 20  5  2  0  0  0  0
 20  4  1  0  0  0  0
 21 25  1  0  0  0  0
 22 24  2  0  0  0  0
 22 23  1  0  0  0  0
 23 21  2  0  0  0  0
 24 26  1  0  0  0  0
 26 25  2  0  0  0  0
 27 30  1  0  0  0  0
 28 31  1  6  0  0  0
 28 29  1  0  0  0  0
 29 30  1  0  0  0  0
 31 27  1  0  0  0  0
M  END
>  <MODEL>
7

>  <REMARK>
 VINA RESULT:      -7.3      3.140      8.335
  Name = 
  2 active torsions:
  status: ('A' for Active; 'I' for Inactive)
    1  A    between atoms: C_8  and  C_14
    2  A    between atoms: C_9  and  C_26
                            x       y       z     vdW  Elec       q    Type
                         _______ _______ _______ _____ _____    ______ ____

>  <TORSDO>
F 2

$$$$
=
 OpenBabel10222415473D

 31 37  0  0  1  0  0  0  0  0999 V2000
  184.3610  178.2330  137.5490 C   0  0  0  0  0  2  0  0  0  0  0  0
  187.8820  177.9640  138.7130 C   0  0  0  0  0  0  0  0  0  0  0  0
  188.8620  177.3970  137.9420 C   0  0  0  0  0  0  0  0  0  0  0  0
  191.2350  176.3490  136.9680 C   0  0  0  0  0  0  0  0  0  0  0  0
  193.5050  175.7750  137.2810 C   0  0  0  0  0  3  0  0  0  0  0  0
  185.7610  179.0020  139.3680 N   0  0  1  0  0  0  0  0  0  0  0  0
  191.1760  176.8260  138.2990 C   0  0  0  0  0  0  0  0  0  0  0  0
  189.9700  177.3470  138.7620 C   0  0  0  0  0  0  0  0  0  0  0  0
  184.3560  178.7400  138.9960 C   0  0  2  0  0  3  0  0  0  0  0  0
  189.7000  177.8350  139.9590 O   0  0  0  0  0  0  0  0  0  0  0  0
  186.1110  178.6180  140.7580 C   0  0  0  0  0  2  0  0  0  0  0  0
  188.4300  178.2000  139.9420 C   0  0  0  0  0  0  0  0  0  0  0  0
  188.8800  176.9390  136.6270 C   0  0  0  0  0  3  0  0  0  0  0  0
  192.3230  176.7530  139.0870 C   0  0  0  0  0  3  0  0  0  0  0  0
  185.7720  177.7400  137.3120 C   0  0  0  0  0  2  0  0  0  0  0  0
  186.5120  178.2480  138.4450 N   0  0  0  0  0  0  0  0  0  0  0  0
  187.6200  178.8020  141.0520 C   0  0  2  0  0  3  0  0  0  0  0  0
  193.4630  176.2300  138.5630 N   0  0  0  0  0  0  0  0  0  0  0  0
  190.0900  176.4070  136.1410 C   0  0  0  0  0  3  0  0  0  0  0  0
  192.3980  175.8360  136.4920 N   0  0  0  0  0  0  0  0  0  0  0  0
  189.5620  177.7060  144.0930 N   0  0  0  0  0  0  0  0  0  0  0  0
  187.9780  178.2050  142.3780 C   0  0  0  0  0  0  0  0  0  0  0  0
  189.2820  178.2540  142.8820 C   0  0  0  0  0  3  0  0  0  0  0  0
  186.9940  177.5890  143.1500 C   0  0  0  0  0  3  0  0  0  0  0  0
  188.5880  177.1080  144.8290 C   0  0  0  0  0  3  0  0  0  0  0  0
  187.3150  177.0520  144.3560 N   0  0  0  0  0  0  0  0  0  0  0  0
  181.6810  176.3650  139.8430 C   0  0  0  0  0  2  0  0  0  0  0  0
  183.5890  177.7750  139.9280 C   0  0  1  0  0  3  0  0  0  0  0  0
  182.5380  178.4460  140.5700 O   0  0  0  0  0  0  0  0  0  0  0  0
  181.6130  177.4450  140.8980 C   0  0  0  0  0  2  0  0  0  0  0  0
  183.0220  176.5640  139.2070 C   0  0  0  0  0  2  0  0  0  0  0  0
  2 12  2  0  0  0  0
  3  2  1  0  0  0  0
  3  8  1  0  0  0  0
  4  7  1  0  0  0  0
  5 18  1  0  0  0  0
  6 11  1  1  0  0  0
  7  8  2  0  0  0  0
  7 14  1  0  0  0  0
  8 10  1  0  0  0  0
  9  1  1  6  0  0  0
  9  6  1  0  0  0  0
  9 28  1  0  0  0  0
 11 17  1  0  0  0  0
 12 10  1  0  0  0  0
 12 17  1  0  0  0  0
 13  3  2  0  0  0  0
 15  1  1  0  0  0  0
 15 16  1  0  0  0  0
 16  2  1  0  0  0  0
 16  6  1  0  0  0  0
 17 22  1  1  0  0  0
 18 14  2  0  0  0  0
 19 13  1  0  0  0  0
 19  4  2  0  0  0  0
 20  4  1  0  0  0  0
 20  5  2  0  0  0  0
 21 25  1  0  0  0  0
 22 23  1  0  0  0  0
 22 24  2  0  0  0  0
 23 21  2  0  0  0  0
 24 26  1  0  0  0  0
 26 25  2  0  0  0  0
 27 30  1  0  0  0  0
 28 31  1  6  0  0  0
 28 29  1  0  0  0  0
 29 30  1  0  0  0  0
 31 27  1  0  0  0  0
M  END
>  <MODEL>
8

>  <REMARK>
 VINA RESULT:      -7.3      2.640      7.246
  Name = 
  2 active torsions:
  status: ('A' for Active; 'I' for Inactive)
    1  A    between atoms: C_8  and  C_14
    2  A    between atoms: C_9  and  C_26
                            x       y       z     vdW  Elec       q    Type
                         _______ _______ _______ _____ _____    ______ ____

>  <TORSDO>
F 2

$$$$
=
 OpenBabel10222415473D

 31 37  0  0  1  0  0  0  0  0999 V2000
  188.3490  177.8680  146.8250 C   0  0  0  0  0  2  0  0  0  0  0  0
  186.7770  178.4780  143.5120 C   0  0  0  0  0  0  0  0  0  0  0  0
  185.4170  178.5080  143.3460 C   0  0  0  0  0  0  0  0  0  0  0  0
  182.8440  178.6280  142.3250 C   0  0  0  0  0  0  0  0  0  0  0  0
  181.3740  178.7820  140.4810 C   0  0  0  0  0  3  0  0  0  0  0  0
  188.9810  178.5220  144.5810 N   0  0  1  0  0  0  0  0  0  0  0  0
  183.9490  178.6670  141.4410 C   0  0  0  0  0  0  0  0  0  0  0  0
  185.2310  178.6050  141.9820 C   0  0  0  0  0  0  0  0  0  0  0  0
  189.5080  177.9210  145.8230 C   0  0  2  0  0  3  0  0  0  0  0  0
  186.3870  178.6210  141.3440 O   0  0  0  0  0  0  0  0  0  0  0  0
  189.4950  177.9050  143.3330 C   0  0  0  0  0  2  0  0  0  0  0  0
  187.3300  178.5300  142.2640 C   0  0  0  0  0  0  0  0  0  0  0  0
  184.3570  178.4680  144.2480 C   0  0  0  0  0  3  0  0  0  0  0  0
  183.7080  178.7640  140.0720 C   0  0  0  0  0  3  0  0  0  0  0  0
  187.0970  177.9620  145.9800 C   0  0  0  0  0  2  0  0  0  0  0  0
  187.5860  178.3500  144.6770 N   0  0  0  0  0  0  0  0  0  0  0  0
  188.8170  178.4920  142.0710 C   0  0  2  0  0  3  0  0  0  0  0  0
  182.4270  178.8200  139.6200 N   0  0  0  0  0  0  0  0  0  0  0  0
  183.0530  178.5290  143.7180 C   0  0  0  0  0  3  0  0  0  0  0  0
  181.5850  178.6870  141.8230 N   0  0  0  0  0  0  0  0  0  0  0  0
  188.9350  177.1700  138.5410 N   0  0  0  0  0  0  0  0  0  0  0  0
  189.1930  177.7050  140.8540 C   0  0  0  0  0  0  0  0  0  0  0  0
  188.5590  177.9010  139.6220 C   0  0  0  0  0  3  0  0  0  0  0  0
  190.2090  176.7530  140.9290 C   0  0  0  0  0  3  0  0  0  0  0  0
  189.9260  176.2450  138.6370 C   0  0  0  0  0  3  0  0  0  0  0  0
  190.5560  176.0410  139.8250 N   0  0  0  0  0  0  0  0  0  0  0  0
  192.0560  175.3600  146.5090 C   0  0  0  0  0  2  0  0  0  0  0  0
  190.1750  176.5360  145.6620 C   0  0  1  0  0  3  0  0  0  0  0  0
  191.1820  176.5880  144.6870 O   0  0  0  0  0  0  0  0  0  0  0  0
  192.0550  175.5400  145.0090 C   0  0  0  0  0  2  0  0  0  0  0  0
  190.7760  176.0020  146.9510 C   0  0  0  0  0  2  0  0  0  0  0  0
  2 16  1  0  0  0  0
  3  2  1  0  0  0  0
  3 13  1  0  0  0  0
  4 19  1  0  0  0  0
  5 20  2  0  0  0  0
  6 11  1  6  0  0  0
  6 16  1  0  0  0  0
  6  9  1  0  0  0  0
  7  8  1  0  0  0  0
  7  4  2  0  0  0  0
  8  3  2  0  0  0  0
  9  1  1  1  0  0  0
 10  8  1  0  0  0  0
 10 12  1  0  0  0  0
 12  2  2  0  0  0  0
 14  7  1  0  0  0  0
 15  1  1  0  0  0  0
 16 15  1  0  0  0  0
 17 22  1  6  0  0  0
 17 12  1  0  0  0  0
 17 11  1  0  0  0  0
 18 14  2  0  0  0  0
 18  5  1  0  0  0  0
 19 13  2  0  0  0  0
 20  4  1  0  0  0  0
 21 25  2  0  0  0  0
 21 23  1  0  0  0  0
 22 24  1  0  0  0  0
 23 22  2  0  0  0  0
 25 26  1  0  0  0  0
 26 24  2  0  0  0  0
 27 31  1  0  0  0  0
 28  9  1  0  0  0  0
 28 31  1  1  0  0  0
 29 30  1  0  0  0  0
 29 28  1  0  0  0  0
 30 27  1  0  0  0  0
M  END
>  <MODEL>
9

>  <REMARK>
 VINA RESULT:      -7.2      2.674      6.956
  Name = 
  2 active torsions:
  status: ('A' for Active; 'I' for Inactive)
    1  A    between atoms: C_8  and  C_14
    2  A    between atoms: C_9  and  C_26
                            x       y       z     vdW  Elec       q    Type
                         _______ _______ _______ _____ _____    ______ ____

>  <TORSDO>
F 2

$$$$
