=
 OpenBabel10222419413D

 36 38  0  0  1  0  0  0  0  0999 V2000
  187.0280  177.9430  142.5450 C   0  0  0  0  0  0  0  0  0  0  0  0
  188.2220  177.9550  140.4310 C   0  0  0  0  0  0  0  0  0  0  0  0
  189.1970  176.9500  142.4280 C   0  0  0  0  0  0  0  0  0  0  0  0
  188.0750  177.2930  143.1170 N   0  0  0  0  0  0  0  0  0  0  0  0
  190.4080  176.9440  140.3610 F   0  0  0  0  0  0  0  0  0  0  0  0
  187.0930  178.2810  141.1910 C   0  0  0  0  0  3  0  0  0  0  0  0
  189.2910  177.2770  141.0590 C   0  0  0  0  0  0  0  0  0  0  0  0
  183.5630  178.9070  144.8740 C   0  0  0  0  0  3  0  0  0  0  0  0
  184.5870  178.4060  142.7440 C   0  0  0  0  0  3  0  0  0  0  0  0
  185.9390  178.4630  144.7460 C   0  0  0  0  0  3  0  0  0  0  0  0
  184.8060  178.7770  145.5000 C   0  0  0  0  0  3  0  0  0  0  0  0
  183.4420  178.7210  143.4890 C   0  0  0  0  0  0  0  0  0  0  0  0
  185.8390  178.2730  143.3590 C   0  0  0  0  0  0  0  0  0  0  0  0
  182.0280  178.7180  141.4190 C   0  0  0  0  0  3  0  0  0  0  0  0
  181.0140  179.1250  143.5410 N   0  0  0  0  0  0  0  0  0  0  0  0
  179.7910  179.2580  142.9620 C   0  0  0  0  0  3  0  0  0  0  0  0
  180.7810  178.8520  140.8060 C   0  0  0  0  0  3  0  0  0  0  0  0
  179.6530  179.1240  141.5790 C   0  0  0  0  0  3  0  0  0  0  0  0
  182.1350  178.8600  142.8110 C   0  0  0  0  0  0  0  0  0  0  0  0
  188.2260  178.3440  138.9960 C   0  0  0  0  0  0  0  0  0  0  0  0
  187.4100  177.7690  138.1100 C   0  0  0  0  0  3  0  0  0  0  0  0
  189.1060  179.3360  138.5700 O   0  0  0  0  0  1  0  0  0  0  0  0
  186.0510  177.3710  135.5830 C   0  0  0  0  0  1  0  0  0  0  0  0
  187.3880  178.2050  136.4080 S   0  0  0  0  0  0  0  0  0  0  0  0
  187.2310  179.6930  136.2650 O   0  0  0  0  0  0  0  0  0  0  0  0
  188.6870  177.7840  135.7810 O   0  0  0  0  0  0  0  0  0  0  0  0
  190.4120  174.9930  143.0560 O   0  0  0  0  0  0  0  0  0  0  0  0
  190.2790  176.2420  143.1480 C   0  0  0  0  0  0  0  0  0  0  0  0
  191.2210  177.0050  144.0210 C   0  0  0  0  0  2  0  0  0  0  0  0
  192.0550  176.7890  146.2590 O   0  0  0  0  0  1  0  0  0  0  0  0
  190.8910  176.7760  145.4880 C   0  0  1  0  0  3  0  0  0  0  0  0
  189.8830  177.7990  146.0130 C   0  0  0  0  0  2  0  0  0  0  0  0
  188.5620  177.1730  146.4550 C   0  0  0  0  0  2  0  0  0  0  0  0
  188.5580  176.8680  147.9470 C   0  0  0  0  0  2  0  0  0  0  0  0
  187.2290  178.8440  148.1380 O   0  0  0  0  0  1  0  0  0  0  0  0
  188.2380  178.1090  148.7620 C   0  0  0  0  0  2  0  0  0  0  0  0
  1  4  1  0  0  0  0
  1 13  1  0  0  0  0
  2  7  2  0  0  0  0
  2  6  1  0  0  0  0
  3  4  2  0  0  0  0
  3 28  1  0  0  0  0
  5  7  1  0  0  0  0
  6  1  2  0  0  0  0
  7  3  1  0  0  0  0
  8 11  1  0  0  0  0
  9 13  2  0  0  0  0
  9 12  1  0  0  0  0
 10 11  2  0  0  0  0
 12  8  2  0  0  0  0
 13 10  1  0  0  0  0
 14 19  1  0  0  0  0
 16 15  1  0  0  0  0
 17 14  2  0  0  0  0
 17 18  1  0  0  0  0
 18 16  2  0  0  0  0
 19 12  1  0  0  0  0
 19 15  2  0  0  0  0
 20  2  1  0  0  0  0
 21 20  2  0  0  0  0
 22 20  1  0  0  0  0
 23 24  1  0  0  0  0
 24 21  1  0  0  0  0
 25 24  2  0  0  0  0
 26 24  2  0  0  0  0
 27 28  2  0  0  0  0
 28 29  1  0  0  0  0
 29 31  1  0  0  0  0
 31 32  1  0  0  0  0
 31 30  1  1  0  0  0
 32 33  1  0  0  0  0
 33 34  1  0  0  0  0
 34 36  1  0  0  0  0
 35 36  1  0  0  0  0
M  END
>  <MODEL>
1

>  <REMARK>
 VINA RESULT:      -9.0      0.000      0.000
  Name = 
  11 active torsions:
  status: ('A' for Active; 'I' for Inactive)
    1  A    between atoms: C_2  and  C_12
    2  A    between atoms: C_5  and  C_7
    3  A    between atoms: C_5  and  C_11
    4  A    between atoms: C_7  and  C_14
    5  A    between atoms: C_10  and  C_36
    6  A    between atoms: C_11  and  C_22
    7  A    between atoms: C_13  and  C_19
    8  A    between atoms: C_13  and  C_22
    9  A    between atoms: C_17  and  C_19
   10  A    between atoms: S_20  and  C_28
   11  A    between atoms: C_30  and  C_34
                            x       y       z     vdW  Elec       q    Type
                         _______ _______ _______ _____ _____    ______ ____

>  <TORSDO>
F 11

$$$$
=
 OpenBabel10222419413D

 36 38  0  0  1  0  0  0  0  0999 V2000
  184.9290  178.6460  141.7740 C   0  0  0  0  0  0  0  0  0  0  0  0
  183.9380  178.8950  139.5710 C   0  0  0  0  0  0  0  0  0  0  0  0
  186.3090  178.3900  139.8410 C   0  0  0  0  0  0  0  0  0  0  0  0
  186.1320  178.4040  141.1900 N   0  0  0  0  0  0  0  0  0  0  0  0
  185.3690  178.6300  137.6500 F   0  0  0  0  0  0  0  0  0  0  0  0
  183.8180  178.8960  140.9650 C   0  0  0  0  0  3  0  0  0  0  0  0
  185.2050  178.6360  138.9990 C   0  0  0  0  0  0  0  0  0  0  0  0
  184.6340  178.5970  146.0480 C   0  0  0  0  0  3  0  0  0  0  0  0
  185.9380  178.3310  144.0310 C   0  0  0  0  0  3  0  0  0  0  0  0
  183.5980  178.9190  143.8840 C   0  0  0  0  0  3  0  0  0  0  0  0
  183.5090  178.9020  145.2780 C   0  0  0  0  0  3  0  0  0  0  0  0
  185.8610  178.3090  145.4300 C   0  0  0  0  0  0  0  0  0  0  0  0
  184.8160  178.6350  143.2470 C   0  0  0  0  0  0  0  0  0  0  0  0
  188.2200  177.4830  145.6170 C   0  0  0  0  0  3  0  0  0  0  0  0
  187.0480  178.1620  147.5830 N   0  0  0  0  0  0  0  0  0  0  0  0
  188.1280  177.8760  148.3580 C   0  0  0  0  0  3  0  0  0  0  0  0
  189.3380  177.1830  146.3970 C   0  0  0  0  0  3  0  0  0  0  0  0
  189.2960  177.3790  147.7770 C   0  0  0  0  0  3  0  0  0  0  0  0
  187.0600  177.9800  146.2300 C   0  0  0  0  0  0  0  0  0  0  0  0
  182.7160  179.1680  138.7700 C   0  0  0  0  0  0  0  0  0  0  0  0
  182.2860  180.4110  138.5450 C   0  0  0  0  0  3  0  0  0  0  0  0
  182.0050  178.0940  138.2400 O   0  0  0  0  0  1  0  0  0  0  0  0
  180.6110  182.5290  137.4970 C   0  0  0  0  0  1  0  0  0  0  0  0
  180.8470  180.7700  137.6030 S   0  0  0  0  0  0  0  0  0  0  0  0
  180.9810  180.1860  136.2250 O   0  0  0  0  0  0  0  0  0  0  0  0
  179.6550  180.1580  138.2840 O   0  0  0  0  0  0  0  0  0  0  0  0
  187.8280  177.7090  138.1280 O   0  0  0  0  0  0  0  0  0  0  0  0
  187.6630  178.1120  139.3100 C   0  0  0  0  0  0  0  0  0  0  0  0
  188.8600  178.2860  140.1860 C   0  0  0  0  0  2  0  0  0  0  0  0
  190.6280  176.6660  140.1980 O   0  0  0  0  0  1  0  0  0  0  0  0
  189.3500  176.9370  140.6910 C   0  0  1  0  0  3  0  0  0  0  0  0
  189.3320  176.8590  142.2180 C   0  0  0  0  0  2  0  0  0  0  0  0
  190.4300  175.9630  142.7880 C   0  0  0  0  0  2  0  0  0  0  0  0
  191.5280  176.7790  143.4560 C   0  0  0  0  0  2  0  0  0  0  0  0
  191.9580  178.9670  144.3150 O   0  0  0  0  0  1  0  0  0  0  0  0
  191.2650  178.2700  143.3240 C   0  0  0  0  0  2  0  0  0  0  0  0
  1 13  1  0  0  0  0
  2  6  1  0  0  0  0
  3  4  2  0  0  0  0
  4  1  1  0  0  0  0
  5  7  1  0  0  0  0
  6  1  2  0  0  0  0
  7  2  2  0  0  0  0
  7  3  1  0  0  0  0
  9 12  2  0  0  0  0
 10 11  1  0  0  0  0
 11  8  2  0  0  0  0
 12  8  1  0  0  0  0
 12 19  1  0  0  0  0
 13 10  2  0  0  0  0
 13  9  1  0  0  0  0
 14 19  2  0  0  0  0
 14 17  1  0  0  0  0
 15 16  2  0  0  0  0
 17 18  2  0  0  0  0
 18 16  1  0  0  0  0
 19 15  1  0  0  0  0
 20  2  1  0  0  0  0
 21 20  2  0  0  0  0
 22 20  1  0  0  0  0
 23 24  1  0  0  0  0
 24 26  2  0  0  0  0
 24 21  1  0  0  0  0
 25 24  2  0  0  0  0
 27 28  2  0  0  0  0
 28  3  1  0  0  0  0
 28 29  1  0  0  0  0
 29 31  1  0  0  0  0
 31 30  1  1  0  0  0
 31 32  1  0  0  0  0
 32 33  1  0  0  0  0
 33 34  1  0  0  0  0
 36 34  1  0  0  0  0
 36 35  1  0  0  0  0
M  END
>  <MODEL>
2

>  <REMARK>
 VINA RESULT:      -8.7      3.118      5.973
  Name = 
  11 active torsions:
  status: ('A' for Active; 'I' for Inactive)
    1  A    between atoms: C_2  and  C_12
    2  A    between atoms: C_5  and  C_7
    3  A    between atoms: C_5  and  C_11
    4  A    between atoms: C_7  and  C_14
    5  A    between atoms: C_10  and  C_36
    6  A    between atoms: C_11  and  C_22
    7  A    between atoms: C_13  and  C_19
    8  A    between atoms: C_13  and  C_22
    9  A    between atoms: C_17  and  C_19
   10  A    between atoms: S_20  and  C_28
   11  A    between atoms: C_30  and  C_34
                            x       y       z     vdW  Elec       q    Type
                         _______ _______ _______ _____ _____    ______ ____

>  <TORSDO>
F 11

$$$$
=
 OpenBabel10222419413D

 36 38  0  0  1  0  0  0  0  0999 V2000
  185.4310  178.3680  143.2420 C   0  0  0  0  0  0  0  0  0  0  0  0
  183.5000  178.5600  141.7810 C   0  0  0  0  0  0  0  0  0  0  0  0
  185.7660  178.5010  140.8810 C   0  0  0  0  0  0  0  0  0  0  0  0
  186.2410  178.3970  142.1510 N   0  0  0  0  0  0  0  0  0  0  0  0
  183.8870  178.6930  139.4070 F   0  0  0  0  0  0  0  0  0  0  0  0
  184.0470  178.4510  143.0640 C   0  0  0  0  0  3  0  0  0  0  0  0
  184.3750  178.5840  140.6700 C   0  0  0  0  0  0  0  0  0  0  0  0
  187.1770  177.9890  147.1350 C   0  0  0  0  0  3  0  0  0  0  0  0
  187.3430  177.7920  144.7330 C   0  0  0  0  0  3  0  0  0  0  0  0
  185.2860  178.5650  145.7400 C   0  0  0  0  0  3  0  0  0  0  0  0
  185.8610  178.4390  147.0060 C   0  0  0  0  0  3  0  0  0  0  0  0
  187.9310  177.6610  145.9980 C   0  0  0  0  0  0  0  0  0  0  0  0
  186.0230  178.2440  144.5900 C   0  0  0  0  0  0  0  0  0  0  0  0
  190.1570  177.0960  144.9920 C   0  0  0  0  0  3  0  0  0  0  0  0
  189.8140  176.8090  147.3370 N   0  0  0  0  0  0  0  0  0  0  0  0
  191.0880  176.3610  147.4960 C   0  0  0  0  0  3  0  0  0  0  0  0
  191.4670  176.6380  145.1350 C   0  0  0  0  0  3  0  0  0  0  0  0
  191.9400  176.2670  146.3930 C   0  0  0  0  0  3  0  0  0  0  0  0
  189.3240  177.1780  146.1180 C   0  0  0  0  0  0  0  0  0  0  0  0
  182.0210  178.6430  141.6640 C   0  0  0  0  0  0  0  0  0  0  0  0
  181.3490  177.9480  140.7440 C   0  0  0  0  0  3  0  0  0  0  0  0
  181.3210  179.4690  142.5410 O   0  0  0  0  0  1  0  0  0  0  0  0
  179.0790  177.0370  139.1930 C   0  0  0  0  0  1  0  0  0  0  0  0
  179.6010  178.0220  140.5780 S   0  0  0  0  0  0  0  0  0  0  0  0
  178.9480  177.5240  141.8370 O   0  0  0  0  0  0  0  0  0  0  0  0
  179.1950  179.4490  140.3430 O   0  0  0  0  0  0  0  0  0  0  0  0
  186.3510  178.5200  138.5650 O   0  0  0  0  0  0  0  0  0  0  0  0
  186.7380  178.5210  139.7640 C   0  0  0  0  0  0  0  0  0  0  0  0
  188.2050  178.5180  140.0480 C   0  0  0  0  0  2  0  0  0  0  0  0
  189.5580  178.1780  138.0980 O   0  0  0  0  0  1  0  0  0  0  0  0
  188.9180  177.5190  139.1490 C   0  0  1  0  0  3  0  0  0  0  0  0
  189.9100  176.6560  139.9300 C   0  0  0  0  0  2  0  0  0  0  0  0
  190.3600  177.2940  141.2430 C   0  0  0  0  0  2  0  0  0  0  0  0
  191.8770  177.3950  141.3250 C   0  0  0  0  0  2  0  0  0  0  0  0
  193.8750  177.1980  140.0300 O   0  0  0  0  0  1  0  0  0  0  0  0
  192.5030  177.4360  139.9410 C   0  0  0  0  0  2  0  0  0  0  0  0
  1 13  1  0  0  0  0
  2  6  2  0  0  0  0
  3  4  1  0  0  0  0
  4  1  2  0  0  0  0
  5  7  1  0  0  0  0
  6  1  1  0  0  0  0
  7  3  2  0  0  0  0
  7  2  1  0  0  0  0
  9 12  1  0  0  0  0
 10 11  2  0  0  0  0
 11  8  1  0  0  0  0
 12 19  1  0  0  0  0
 12  8  2  0  0  0  0
 13  9  2  0  0  0  0
 13 10  1  0  0  0  0
 14 17  2  0  0  0  0
 14 19  1  0  0  0  0
 15 16  1  0  0  0  0
 17 18  1  0  0  0  0
 18 16  2  0  0  0  0
 19 15  2  0  0  0  0
 20  2  1  0  0  0  0
 20 22  1  0  0  0  0
 21 20  2  0  0  0  0
 23 24  1  0  0  0  0
 24 21  1  0  0  0  0
 24 25  2  0  0  0  0
 26 24  2  0  0  0  0
 27 28  2  0  0  0  0
 28 29  1  0  0  0  0
 28  3  1  0  0  0  0
 31 30  1  6  0  0  0
 31 32  1  0  0  0  0
 31 29  1  0  0  0  0
 32 33  1  0  0  0  0
 33 34  1  0  0  0  0
 36 35  1  0  0  0  0
 36 34  1  0  0  0  0
M  END
>  <MODEL>
3

>  <REMARK>
 VINA RESULT:      -8.7      3.733      7.458
  Name = 
  11 active torsions:
  status: ('A' for Active; 'I' for Inactive)
    1  A    between atoms: C_2  and  C_12
    2  A    between atoms: C_5  and  C_7
    3  A    between atoms: C_5  and  C_11
    4  A    between atoms: C_7  and  C_14
    5  A    between atoms: C_10  and  C_36
    6  A    between atoms: C_11  and  C_22
    7  A    between atoms: C_13  and  C_19
    8  A    between atoms: C_13  and  C_22
    9  A    between atoms: C_17  and  C_19
   10  A    between atoms: S_20  and  C_28
   11  A    between atoms: C_30  and  C_34
                            x       y       z     vdW  Elec       q    Type
                         _______ _______ _______ _____ _____    ______ ____

>  <TORSDO>
F 11

$$$$
=
 OpenBabel10222419413D

 36 38  0  0  1  0  0  0  0  0999 V2000
  189.6130  177.2350  140.9600 C   0  0  0  0  0  0  0  0  0  0  0  0
  191.1080  176.9160  139.0730 C   0  0  0  0  0  0  0  0  0  0  0  0
  188.7770  177.5550  138.7460 C   0  0  0  0  0  0  0  0  0  0  0  0
  188.6100  177.5400  140.0960 N   0  0  0  0  0  0  0  0  0  0  0  0
  190.2200  177.2480  136.8580 F   0  0  0  0  0  0  0  0  0  0  0  0
  190.8760  176.9180  140.4530 C   0  0  0  0  0  3  0  0  0  0  0  0
  190.0410  177.2420  138.2050 C   0  0  0  0  0  0  0  0  0  0  0  0
  188.8310  177.2950  145.1720 C   0  0  0  0  0  3  0  0  0  0  0  0
  188.0870  177.6100  142.8950 C   0  0  0  0  0  3  0  0  0  0  0  0
  190.3590  176.9120  143.3350 C   0  0  0  0  0  3  0  0  0  0  0  0
  190.0980  176.9340  144.7070 C   0  0  0  0  0  3  0  0  0  0  0  0
  187.8130  177.6370  144.2690 C   0  0  0  0  0  0  0  0  0  0  0  0
  189.3540  177.2490  142.4150 C   0  0  0  0  0  0  0  0  0  0  0  0
  185.4450  178.3370  143.8370 C   0  0  0  0  0  3  0  0  0  0  0  0
  186.2100  178.0840  146.0840 N   0  0  0  0  0  0  0  0  0  0  0  0
  184.9880  178.4340  146.5680 C   0  0  0  0  0  3  0  0  0  0  0  0
  184.1850  178.7000  144.3150 C   0  0  0  0  0  3  0  0  0  0  0  0
  183.9510  178.7500  145.6890 C   0  0  0  0  0  3  0  0  0  0  0  0
  186.4680  178.0260  144.7460 C   0  0  0  0  0  0  0  0  0  0  0  0
  192.4750  176.5700  138.6010 C   0  0  0  0  0  0  0  0  0  0  0  0
  192.6850  175.6020  137.7060 C   0  0  0  0  0  3  0  0  0  0  0  0
  193.5610  177.2780  139.1090 O   0  0  0  0  0  1  0  0  0  0  0  0
  194.1950  173.6920  136.1390 C   0  0  0  0  0  1  0  0  0  0  0  0
  194.2850  175.1680  137.1260 S   0  0  0  0  0  0  0  0  0  0  0  0
  194.8560  176.2950  136.3130 O   0  0  0  0  0  0  0  0  0  0  0  0
  195.1780  174.9120  138.3070 O   0  0  0  0  0  0  0  0  0  0  0  0
  187.4270  179.0870  137.5070 O   0  0  0  0  0  0  0  0  0  0  0  0
  187.6170  177.9040  137.8950 C   0  0  0  0  0  0  0  0  0  0  0  0
  186.6340  176.8500  137.5010 C   0  0  0  0  0  2  0  0  0  0  0  0
  184.9940  177.0110  135.7590 O   0  0  0  0  0  1  0  0  0  0  0  0
  185.3350  177.4840  137.0280 C   0  0  1  0  0  3  0  0  0  0  0  0
  184.1930  177.2500  138.0170 C   0  0  0  0  0  2  0  0  0  0  0  0
  183.2550  178.4480  138.1490 C   0  0  0  0  0  2  0  0  0  0  0  0
  183.7810  179.4620  139.1570 C   0  0  0  0  0  2  0  0  0  0  0  0
  185.7120  179.4260  140.5630 O   0  0  0  0  0  1  0  0  0  0  0  0
  184.5060  178.7750  140.3030 C   0  0  0  0  0  2  0  0  0  0  0  0
  1 13  1  0  0  0  0
  2  6  2  0  0  0  0
  3  4  1  0  0  0  0
  4  1  2  0  0  0  0
  5  7  1  0  0  0  0
  6  1  1  0  0  0  0
  7  3  2  0  0  0  0
  7  2  1  0  0  0  0
  9 12  1  0  0  0  0
 10 11  2  0  0  0  0
 11  8  1  0  0  0  0
 12 19  1  0  0  0  0
 12  8  2  0  0  0  0
 13  9  2  0  0  0  0
 13 10  1  0  0  0  0
 14 17  2  0  0  0  0
 14 19  1  0  0  0  0
 15 16  1  0  0  0  0
 17 18  1  0  0  0  0
 18 16  2  0  0  0  0
 19 15  2  0  0  0  0
 20  2  1  0  0  0  0
 20 22  1  0  0  0  0
 21 20  2  0  0  0  0
 23 24  1  0  0  0  0
 24 21  1  0  0  0  0
 24 26  2  0  0  0  0
 25 24  2  0  0  0  0
 27 28  2  0  0  0  0
 28  3  1  0  0  0  0
 29 28  1  0  0  0  0
 31 30  1  6  0  0  0
 31 29  1  0  0  0  0
 31 32  1  0  0  0  0
 32 33  1  0  0  0  0
 33 34  1  0  0  0  0
 34 36  1  0  0  0  0
 36 35  1  0  0  0  0
M  END
>  <MODEL>
4

>  <REMARK>
 VINA RESULT:      -8.5      3.356      6.674
  Name = 
  11 active torsions:
  status: ('A' for Active; 'I' for Inactive)
    1  A    between atoms: C_2  and  C_12
    2  A    between atoms: C_5  and  C_7
    3  A    between atoms: C_5  and  C_11
    4  A    between atoms: C_7  and  C_14
    5  A    between atoms: C_10  and  C_36
    6  A    between atoms: C_11  and  C_22
    7  A    between atoms: C_13  and  C_19
    8  A    between atoms: C_13  and  C_22
    9  A    between atoms: C_17  and  C_19
   10  A    between atoms: S_20  and  C_28
   11  A    between atoms: C_30  and  C_34
                            x       y       z     vdW  Elec       q    Type
                         _______ _______ _______ _____ _____    ______ ____

>  <TORSDO>
F 11

$$$$
=
 OpenBabel10222419413D

 36 38  0  0  1  0  0  0  0  0999 V2000
  185.1050  178.4740  143.2090 C   0  0  0  0  0  0  0  0  0  0  0  0
  185.3140  178.6060  140.7930 C   0  0  0  0  0  0  0  0  0  0  0  0
  183.1410  178.7850  141.8870 C   0  0  0  0  0  0  0  0  0  0  0  0
  183.7610  178.6350  143.0880 N   0  0  0  0  0  0  0  0  0  0  0  0
  183.3040  178.9180  139.5000 F   0  0  0  0  0  0  0  0  0  0  0  0
  185.8960  178.4570  142.0570 C   0  0  0  0  0  3  0  0  0  0  0  0
  183.9120  178.7750  140.7070 C   0  0  0  0  0  0  0  0  0  0  0  0
  186.8770  178.0280  147.0840 C   0  0  0  0  0  3  0  0  0  0  0  0
  187.0390  177.9090  144.6760 C   0  0  0  0  0  3  0  0  0  0  0  0
  184.9640  178.5920  145.7120 C   0  0  0  0  0  3  0  0  0  0  0  0
  185.5480  178.4440  146.9730 C   0  0  0  0  0  3  0  0  0  0  0  0
  187.6350  177.7560  145.9360 C   0  0  0  0  0  0  0  0  0  0  0  0
  185.7060  178.3260  144.5510 C   0  0  0  0  0  0  0  0  0  0  0  0
  189.6040  176.9790  147.2800 C   0  0  0  0  0  3  0  0  0  0  0  0
  189.8080  177.2130  144.9120 N   0  0  0  0  0  0  0  0  0  0  0  0
  191.1050  176.8050  144.9570 C   0  0  0  0  0  3  0  0  0  0  0  0
  190.9330  176.5590  147.3450 C   0  0  0  0  0  3  0  0  0  0  0  0
  191.6920  176.4700  146.1780 C   0  0  0  0  0  3  0  0  0  0  0  0
  189.0420  177.3100  146.0370 C   0  0  0  0  0  0  0  0  0  0  0  0
  186.2120  178.5800  139.6090 C   0  0  0  0  0  0  0  0  0  0  0  0
  187.4890  178.2050  139.7050 C   0  0  0  0  0  3  0  0  0  0  0  0
  185.7030  178.9560  138.3680 O   0  0  0  0  0  1  0  0  0  0  0  0
  188.0150  176.9600  137.1430 C   0  0  0  0  0  1  0  0  0  0  0  0
  188.5790  178.1610  138.3270 S   0  0  0  0  0  0  0  0  0  0  0  0
  188.6470  179.5190  137.6880 O   0  0  0  0  0  0  0  0  0  0  0  0
  189.9490  177.7710  138.8030 O   0  0  0  0  0  0  0  0  0  0  0  0
  181.0660  179.4930  142.8340 O   0  0  0  0  0  0  0  0  0  0  0  0
  181.6710  178.9560  141.8690 C   0  0  0  0  0  0  0  0  0  0  0  0
  180.8750  178.4670  140.7020 C   0  0  0  0  0  2  0  0  0  0  0  0
  179.1680  176.8780  141.2620 O   0  0  0  0  0  1  0  0  0  0  0  0
  180.5070  177.0020  140.8860 C   0  0  1  0  0  3  0  0  0  0  0  0
  180.7950  176.1800  139.6300 C   0  0  0  0  0  2  0  0  0  0  0  0
  182.2490  175.7250  139.5270 C   0  0  0  0  0  2  0  0  0  0  0  0
  182.6160  175.3410  138.0990 C   0  0  0  0  0  2  0  0  0  0  0  0
  184.8690  175.3790  137.3070 O   0  0  0  0  0  1  0  0  0  0  0  0
  183.7660  176.1880  137.5790 C   0  0  0  0  0  2  0  0  0  0  0  0
  1 13  1  0  0  0  0
  2  6  1  0  0  0  0
  3  4  2  0  0  0  0
  4  1  1  0  0  0  0
  5  7  1  0  0  0  0
  6  1  2  0  0  0  0
  7  2  2  0  0  0  0
  7  3  1  0  0  0  0
  9 12  1  0  0  0  0
 10 11  2  0  0  0  0
 11  8  1  0  0  0  0
 12 19  1  0  0  0  0
 12  8  2  0  0  0  0
 13  9  2  0  0  0  0
 13 10  1  0  0  0  0
 14 17  1  0  0  0  0
 15 16  2  0  0  0  0
 15 19  1  0  0  0  0
 16 18  1  0  0  0  0
 18 17  2  0  0  0  0
 19 14  2  0  0  0  0
 20 21  2  0  0  0  0
 20  2  1  0  0  0  0
 22 20  1  0  0  0  0
 23 24  1  0  0  0  0
 24 26  2  0  0  0  0
 24 21  1  0  0  0  0
 25 24  2  0  0  0  0
 28  3  1  0  0  0  0
 28 27  2  0  0  0  0
 29 31  1  0  0  0  0
 29 28  1  0  0  0  0
 31 30  1  6  0  0  0
 32 31  1  0  0  0  0
 33 32  1  0  0  0  0
 34 33  1  0  0  0  0
 35 36  1  0  0  0  0
 36 34  1  0  0  0  0
M  END
>  <MODEL>
5

>  <REMARK>
 VINA RESULT:      -8.4      3.187      7.872
  Name = 
  11 active torsions:
  status: ('A' for Active; 'I' for Inactive)
    1  A    between atoms: C_2  and  C_12
    2  A    between atoms: C_5  and  C_7
    3  A    between atoms: C_5  and  C_11
    4  A    between atoms: C_7  and  C_14
    5  A    between atoms: C_10  and  C_36
    6  A    between atoms: C_11  and  C_22
    7  A    between atoms: C_13  and  C_19
    8  A    between atoms: C_13  and  C_22
    9  A    between atoms: C_17  and  C_19
   10  A    between atoms: S_20  and  C_28
   11  A    between atoms: C_30  and  C_34
                            x       y       z     vdW  Elec       q    Type
                         _______ _______ _______ _____ _____    ______ ____

>  <TORSDO>
F 11

$$$$
=
 OpenBabel10222419413D

 36 38  0  0  1  0  0  0  0  0999 V2000
  185.5810  178.5640  141.7870 C   0  0  0  0  0  0  0  0  0  0  0  0
  186.9640  178.3480  139.8020 C   0  0  0  0  0  0  0  0  0  0  0  0
  184.5830  178.8510  139.6360 C   0  0  0  0  0  0  0  0  0  0  0  0
  184.5060  178.8170  140.9940 N   0  0  0  0  0  0  0  0  0  0  0  0
  185.9130  178.6440  137.6540 F   0  0  0  0  0  0  0  0  0  0  0  0
  186.8240  178.3260  141.1940 C   0  0  0  0  0  3  0  0  0  0  0  0
  185.8240  178.6170  139.0090 C   0  0  0  0  0  0  0  0  0  0  0  0
  185.1440  178.5150  146.0480 C   0  0  0  0  0  3  0  0  0  0  0  0
  186.5200  178.2720  144.0770 C   0  0  0  0  0  3  0  0  0  0  0  0
  184.1750  178.8140  143.8510 C   0  0  0  0  0  3  0  0  0  0  0  0
  184.0390  178.7960  145.2410 C   0  0  0  0  0  3  0  0  0  0  0  0
  186.3960  178.2510  145.4730 C   0  0  0  0  0  0  0  0  0  0  0  0
  185.4190  178.5530  143.2550 C   0  0  0  0  0  0  0  0  0  0  0  0
  187.5540  178.1880  147.6950 C   0  0  0  0  0  3  0  0  0  0  0  0
  188.6990  177.4220  145.7460 N   0  0  0  0  0  0  0  0  0  0  0  0
  189.8050  177.1250  146.4790 C   0  0  0  0  0  3  0  0  0  0  0  0
  188.6800  177.8900  148.4640 C   0  0  0  0  0  3  0  0  0  0  0  0
  189.8150  177.3550  147.8560 C   0  0  0  0  0  3  0  0  0  0  0  0
  187.5750  177.9470  146.3130 C   0  0  0  0  0  0  0  0  0  0  0  0
  188.3140  178.0860  139.2380 C   0  0  0  0  0  0  0  0  0  0  0  0
  188.8300  176.8560  139.1920 C   0  0  0  0  0  3  0  0  0  0  0  0
  189.0560  179.1570  138.7430 O   0  0  0  0  0  1  0  0  0  0  0  0
  191.6810  177.1280  139.6250 C   0  0  0  0  0  1  0  0  0  0  0  0
  190.4210  176.5110  138.5320 S   0  0  0  0  0  0  0  0  0  0  0  0
  190.5850  175.0290  138.3450 O   0  0  0  0  0  0  0  0  0  0  0  0
  190.5540  177.1940  137.2010 O   0  0  0  0  0  0  0  0  0  0  0  0
  182.9150  180.3140  138.7510 O   0  0  0  0  0  0  0  0  0  0  0  0
  183.3510  179.1380  138.8670 C   0  0  0  0  0  0  0  0  0  0  0  0
  182.5880  178.0210  138.2320 C   0  0  0  0  0  2  0  0  0  0  0  0
  180.3290  177.4260  137.6930 O   0  0  0  0  0  1  0  0  0  0  0  0
  181.1230  178.0790  138.6380 C   0  0  1  0  0  3  0  0  0  0  0  0
  180.8940  177.4970  140.0320 C   0  0  0  0  0  2  0  0  0  0  0  0
  180.0810  178.4160  140.9430 C   0  0  0  0  0  2  0  0  0  0  0  0
  180.9580  179.0840  141.9920 C   0  0  0  0  0  2  0  0  0  0  0  0
  179.3080  178.0650  143.3870 O   0  0  0  0  0  1  0  0  0  0  0  0
  180.5820  178.6340  143.3940 C   0  0  0  0  0  2  0  0  0  0  0  0
  1 13  1  0  0  0  0
  2  6  2  0  0  0  0
  3  4  1  0  0  0  0
  4  1  2  0  0  0  0
  5  7  1  0  0  0  0
  6  1  1  0  0  0  0
  7  3  2  0  0  0  0
  7  2  1  0  0  0  0
  9 12  2  0  0  0  0
 10 11  1  0  0  0  0
 11  8  2  0  0  0  0
 12  8  1  0  0  0  0
 12 19  1  0  0  0  0
 13 10  2  0  0  0  0
 13  9  1  0  0  0  0
 14 17  1  0  0  0  0
 15 19  1  0  0  0  0
 15 16  2  0  0  0  0
 16 18  1  0  0  0  0
 18 17  2  0  0  0  0
 19 14  2  0  0  0  0
 20  2  1  0  0  0  0
 21 20  2  0  0  0  0
 22 20  1  0  0  0  0
 24 21  1  0  0  0  0
 24 23  1  0  0  0  0
 25 24  2  0  0  0  0
 26 24  2  0  0  0  0
 27 28  2  0  0  0  0
 28  3  1  0  0  0  0
 29 31  1  0  0  0  0
 29 28  1  0  0  0  0
 31 30  1  6  0  0  0
 31 32  1  0  0  0  0
 32 33  1  0  0  0  0
 33 34  1  0  0  0  0
 34 36  1  0  0  0  0
 35 36  1  0  0  0  0
M  END
>  <MODEL>
6

>  <REMARK>
 VINA RESULT:      -8.4      3.044      7.350
  Name = 
  11 active torsions:
  status: ('A' for Active; 'I' for Inactive)
    1  A    between atoms: C_2  and  C_12
    2  A    between atoms: C_5  and  C_7
    3  A    between atoms: C_5  and  C_11
    4  A    between atoms: C_7  and  C_14
    5  A    between atoms: C_10  and  C_36
    6  A    between atoms: C_11  and  C_22
    7  A    between atoms: C_13  and  C_19
    8  A    between atoms: C_13  and  C_22
    9  A    between atoms: C_17  and  C_19
   10  A    between atoms: S_20  and  C_28
   11  A    between atoms: C_30  and  C_34
                            x       y       z     vdW  Elec       q    Type
                         _______ _______ _______ _____ _____    ______ ____

>  <TORSDO>
F 11

$$$$
=
 OpenBabel10222419413D

 36 38  0  0  1  0  0  0  0  0999 V2000
  185.4160  178.5650  141.7210 C   0  0  0  0  0  0  0  0  0  0  0  0
  186.8440  178.3280  139.7710 C   0  0  0  0  0  0  0  0  0  0  0  0
  184.4550  178.7630  139.5440 C   0  0  0  0  0  0  0  0  0  0  0  0
  184.3520  178.7660  140.9000 N   0  0  0  0  0  0  0  0  0  0  0  0
  185.8310  178.5340  137.5950 F   0  0  0  0  0  0  0  0  0  0  0  0
  186.6760  178.3420  141.1610 C   0  0  0  0  0  3  0  0  0  0  0  0
  185.7150  178.5440  138.9490 C   0  0  0  0  0  0  0  0  0  0  0  0
  184.8930  178.6240  145.9730 C   0  0  0  0  0  3  0  0  0  0  0  0
  186.2980  178.2900  144.0360 C   0  0  0  0  0  3  0  0  0  0  0  0
  183.9790  178.9090  143.7500 C   0  0  0  0  0  3  0  0  0  0  0  0
  183.8150  178.9260  145.1370 C   0  0  0  0  0  3  0  0  0  0  0  0
  186.1460  178.3030  145.4290 C   0  0  0  0  0  0  0  0  0  0  0  0
  185.2240  178.5910  143.1860 C   0  0  0  0  0  0  0  0  0  0  0  0
  187.2360  178.2010  147.6840 C   0  0  0  0  0  3  0  0  0  0  0  0
  188.4310  177.4470  145.7600 N   0  0  0  0  0  0  0  0  0  0  0  0
  189.5120  177.1290  146.5210 C   0  0  0  0  0  3  0  0  0  0  0  0
  188.3360  177.8810  148.4820 C   0  0  0  0  0  3  0  0  0  0  0  0
  189.4830  177.3420  147.9010 C   0  0  0  0  0  3  0  0  0  0  0  0
  187.2960  177.9770  146.3000 C   0  0  0  0  0  0  0  0  0  0  0  0
  188.2120  178.0860  139.2420 C   0  0  0  0  0  0  0  0  0  0  0  0
  188.6510  176.8570  138.9660 C   0  0  0  0  0  3  0  0  0  0  0  0
  189.0540  179.1760  139.0280 O   0  0  0  0  0  1  0  0  0  0  0  0
  190.3940  177.1310  136.6690 C   0  0  0  0  0  1  0  0  0  0  0  0
  190.2610  176.5350  138.3390 S   0  0  0  0  0  0  0  0  0  0  0  0
  191.2890  177.2040  139.2060 O   0  0  0  0  0  0  0  0  0  0  0  0
  190.4990  175.0520  138.3470 O   0  0  0  0  0  0  0  0  0  0  0  0
  182.6520  178.0470  138.1510 O   0  0  0  0  0  0  0  0  0  0  0  0
  183.2320  178.9950  138.7430 C   0  0  0  0  0  0  0  0  0  0  0  0
  182.6790  180.3770  138.6040 C   0  0  0  0  0  2  0  0  0  0  0  0
  180.4800  180.8400  139.4400 O   0  0  0  0  0  1  0  0  0  0  0  0
  181.1810  180.3260  138.3460 C   0  0  1  0  0  3  0  0  0  0  0  0
  180.7980  181.0640  137.0630 C   0  0  0  0  0  2  0  0  0  0  0  0
  180.6430  182.5710  137.2580 C   0  0  0  0  0  2  0  0  0  0  0  0
  180.8090  183.3250  135.9450 C   0  0  0  0  0  2  0  0  0  0  0  0
  181.9270  184.9800  137.2560 O   0  0  0  0  0  1  0  0  0  0  0  0
  181.0470  184.8060  136.1870 C   0  0  0  0  0  2  0  0  0  0  0  0
  1 13  1  0  0  0  0
  2  6  2  0  0  0  0
  3  4  1  0  0  0  0
  4  1  2  0  0  0  0
  5  7  1  0  0  0  0
  6  1  1  0  0  0  0
  7  3  2  0  0  0  0
  7  2  1  0  0  0  0
  9 12  2  0  0  0  0
 10 11  1  0  0  0  0
 11  8  2  0  0  0  0
 12  8  1  0  0  0  0
 12 19  1  0  0  0  0
 13 10  2  0  0  0  0
 13  9  1  0  0  0  0
 14 17  1  0  0  0  0
 15 19  1  0  0  0  0
 15 16  2  0  0  0  0
 16 18  1  0  0  0  0
 18 17  2  0  0  0  0
 19 14  2  0  0  0  0
 20  2  1  0  0  0  0
 21 20  2  0  0  0  0
 22 20  1  0  0  0  0
 23 24  1  0  0  0  0
 24 26  2  0  0  0  0
 24 21  1  0  0  0  0
 24 25  2  0  0  0  0
 27 28  2  0  0  0  0
 28  3  1  0  0  0  0
 29 28  1  0  0  0  0
 31 29  1  0  0  0  0
 31 30  1  1  0  0  0
 32 33  1  0  0  0  0
 32 31  1  0  0  0  0
 34 36  1  0  0  0  0
 34 33  1  0  0  0  0
 36 35  1  0  0  0  0
M  END
>  <MODEL>
7

>  <REMARK>
 VINA RESULT:      -8.3      3.552      8.223
  Name = 
  11 active torsions:
  status: ('A' for Active; 'I' for Inactive)
    1  A    between atoms: C_2  and  C_12
    2  A    between atoms: C_5  and  C_7
    3  A    between atoms: C_5  and  C_11
    4  A    between atoms: C_7  and  C_14
    5  A    between atoms: C_10  and  C_36
    6  A    between atoms: C_11  and  C_22
    7  A    between atoms: C_13  and  C_19
    8  A    between atoms: C_13  and  C_22
    9  A    between atoms: C_17  and  C_19
   10  A    between atoms: S_20  and  C_28
   11  A    between atoms: C_30  and  C_34
                            x       y       z     vdW  Elec       q    Type
                         _______ _______ _______ _____ _____    ______ ____

>  <TORSDO>
F 11

$$$$
=
 OpenBabel10222419413D

 36 38  0  0  1  0  0  0  0  0999 V2000
  184.2860  178.4210  141.8640 C   0  0  0  0  0  0  0  0  0  0  0  0
  185.1420  178.4370  139.5910 C   0  0  0  0  0  0  0  0  0  0  0  0
  182.7520  178.2570  140.0410 C   0  0  0  0  0  0  0  0  0  0  0  0
  183.0240  178.3080  141.3730 N   0  0  0  0  0  0  0  0  0  0  0  0
  183.5570  178.2670  137.7850 F   0  0  0  0  0  0  0  0  0  0  0  0
  185.3610  178.4850  140.9730 C   0  0  0  0  0  3  0  0  0  0  0  0
  183.8150  178.3220  139.1180 C   0  0  0  0  0  0  0  0  0  0  0  0
  184.9380  178.5710  146.0960 C   0  0  0  0  0  3  0  0  0  0  0  0
  185.7440  178.1210  143.8630 C   0  0  0  0  0  3  0  0  0  0  0  0
  183.4740  178.8830  144.1940 C   0  0  0  0  0  3  0  0  0  0  0  0
  183.6930  178.9300  145.5730 C   0  0  0  0  0  3  0  0  0  0  0  0
  185.9760  178.1630  145.2450 C   0  0  0  0  0  0  0  0  0  0  0  0
  184.5000  178.4790  143.3250 C   0  0  0  0  0  0  0  0  0  0  0  0
  188.3910  177.5710  144.9280 C   0  0  0  0  0  3  0  0  0  0  0  0
  187.4650  177.6170  147.1280 N   0  0  0  0  0  0  0  0  0  0  0  0
  188.6620  177.2640  147.6690 C   0  0  0  0  0  3  0  0  0  0  0  0
  189.6270  177.2070  145.4650 C   0  0  0  0  0  3  0  0  0  0  0  0
  189.7680  177.0520  146.8430 C   0  0  0  0  0  3  0  0  0  0  0  0
  187.2980  177.7760  145.7840 C   0  0  0  0  0  0  0  0  0  0  0  0
  186.3300  178.5110  138.7000 C   0  0  0  0  0  0  0  0  0  0  0  0
  187.5280  178.0730  139.0890 C   0  0  0  0  0  3  0  0  0  0  0  0
  186.1810  179.0530  137.4250 O   0  0  0  0  0  1  0  0  0  0  0  0
  188.8040  176.9710  136.7340 C   0  0  0  0  0  1  0  0  0  0  0  0
  188.9520  178.1440  138.0610 S   0  0  0  0  0  0  0  0  0  0  0  0
  189.1090  179.5310  137.5050 O   0  0  0  0  0  0  0  0  0  0  0  0
  190.1620  177.8030  138.8820 O   0  0  0  0  0  0  0  0  0  0  0  0
  180.6840  177.0810  139.8230 O   0  0  0  0  0  0  0  0  0  0  0  0
  181.3400  178.1360  139.6140 C   0  0  0  0  0  0  0  0  0  0  0  0
  180.6750  179.2670  138.9000 C   0  0  0  0  0  2  0  0  0  0  0  0
  180.7060  181.6610  139.0420 O   0  0  0  0  0  1  0  0  0  0  0  0
  180.5990  180.4920  139.7990 C   0  0  1  0  0  3  0  0  0  0  0  0
  179.3200  180.5060  140.6370 C   0  0  0  0  0  2  0  0  0  0  0  0
  179.5830  180.6310  142.1360 C   0  0  0  0  0  2  0  0  0  0  0  0
  178.9510  179.4850  142.9130 C   0  0  0  0  0  2  0  0  0  0  0  0
  179.6630  177.6780  144.3050 O   0  0  0  0  0  1  0  0  0  0  0  0
  179.9340  178.3420  143.1080 C   0  0  0  0  0  2  0  0  0  0  0  0
  1 13  1  0  0  0  0
  2  6  1  0  0  0  0
  3  4  2  0  0  0  0
  4  1  1  0  0  0  0
  5  7  1  0  0  0  0
  6  1  2  0  0  0  0
  7  2  2  0  0  0  0
  7  3  1  0  0  0  0
  9 12  1  0  0  0  0
 10 11  2  0  0  0  0
 11  8  1  0  0  0  0
 12 19  1  0  0  0  0
 12  8  2  0  0  0  0
 13  9  2  0  0  0  0
 13 10  1  0  0  0  0
 14 17  2  0  0  0  0
 14 19  1  0  0  0  0
 15 16  1  0  0  0  0
 17 18  1  0  0  0  0
 18 16  2  0  0  0  0
 19 15  2  0  0  0  0
 20 21  2  0  0  0  0
 20  2  1  0  0  0  0
 22 20  1  0  0  0  0
 23 24  1  0  0  0  0
 24 26  2  0  0  0  0
 24 21  1  0  0  0  0
 25 24  2  0  0  0  0
 28 27  2  0  0  0  0
 28  3  1  0  0  0  0
 29 28  1  0  0  0  0
 29 31  1  0  0  0  0
 31 30  1  6  0  0  0
 31 32  1  0  0  0  0
 32 33  1  0  0  0  0
 33 34  1  0  0  0  0
 34 36  1  0  0  0  0
 36 35  1  0  0  0  0
M  END
>  <MODEL>
8

>  <REMARK>
 VINA RESULT:      -8.2      3.069      7.479
  Name = 
  11 active torsions:
  status: ('A' for Active; 'I' for Inactive)
    1  A    between atoms: C_2  and  C_12
    2  A    between atoms: C_5  and  C_7
    3  A    between atoms: C_5  and  C_11
    4  A    between atoms: C_7  and  C_14
    5  A    between atoms: C_10  and  C_36
    6  A    between atoms: C_11  and  C_22
    7  A    between atoms: C_13  and  C_19
    8  A    between atoms: C_13  and  C_22
    9  A    between atoms: C_17  and  C_19
   10  A    between atoms: S_20  and  C_28
   11  A    between atoms: C_30  and  C_34
                            x       y       z     vdW  Elec       q    Type
                         _______ _______ _______ _____ _____    ______ ____

>  <TORSDO>
F 11

$$$$
=
 OpenBabel10222419413D

 36 38  0  0  1  0  0  0  0  0999 V2000
  185.1390  178.4820  143.1850 C   0  0  0  0  0  0  0  0  0  0  0  0
  185.3590  178.6280  140.7700 C   0  0  0  0  0  0  0  0  0  0  0  0
  183.1790  178.7750  141.8530 C   0  0  0  0  0  0  0  0  0  0  0  0
  183.7940  178.6270  143.0570 N   0  0  0  0  0  0  0  0  0  0  0  0
  183.3540  178.9220  139.4680 F   0  0  0  0  0  0  0  0  0  0  0  0
  185.9360  178.4800  142.0370 C   0  0  0  0  0  3  0  0  0  0  0  0
  183.9570  178.7800  140.6770 C   0  0  0  0  0  0  0  0  0  0  0  0
  186.8940  178.0380  147.0680 C   0  0  0  0  0  3  0  0  0  0  0  0
  187.0590  177.8930  144.6610 C   0  0  0  0  0  3  0  0  0  0  0  0
  184.9960  178.6270  145.6860 C   0  0  0  0  0  3  0  0  0  0  0  0
  185.5740  178.4800  146.9500 C   0  0  0  0  0  3  0  0  0  0  0  0
  187.6490  177.7400  145.9230 C   0  0  0  0  0  0  0  0  0  0  0  0
  185.7350  178.3350  144.5290 C   0  0  0  0  0  0  0  0  0  0  0  0
  189.5820  176.8850  147.2710 C   0  0  0  0  0  3  0  0  0  0  0  0
  189.8300  177.1950  144.9170 N   0  0  0  0  0  0  0  0  0  0  0  0
  191.1180  176.7640  144.9680 C   0  0  0  0  0  3  0  0  0  0  0  0
  190.9030  176.4410  147.3440 C   0  0  0  0  0  3  0  0  0  0  0  0
  191.6800  176.3780  146.1870 C   0  0  0  0  0  3  0  0  0  0  0  0
  189.0470  177.2670  146.0320 C   0  0  0  0  0  0  0  0  0  0  0  0
  186.2650  178.6170  139.5910 C   0  0  0  0  0  0  0  0  0  0  0  0
  187.5450  178.2530  139.6920 C   0  0  0  0  0  3  0  0  0  0  0  0
  185.7590  178.9990  138.3510 O   0  0  0  0  0  1  0  0  0  0  0  0
  188.1110  177.0110  137.1380 C   0  0  0  0  0  1  0  0  0  0  0  0
  188.6420  178.2280  138.3200 S   0  0  0  0  0  0  0  0  0  0  0  0
  188.6830  179.5850  137.6760 O   0  0  0  0  0  0  0  0  0  0  0  0
  190.0180  177.8710  138.8040 O   0  0  0  0  0  0  0  0  0  0  0  0
  181.1570  179.9960  142.2090 O   0  0  0  0  0  0  0  0  0  0  0  0
  181.7070  178.9290  141.8280 C   0  0  0  0  0  0  0  0  0  0  0  0
  180.8440  177.7990  141.3660 C   0  0  0  0  0  2  0  0  0  0  0  0
  180.3470  176.7630  139.2620 O   0  0  0  0  0  1  0  0  0  0  0  0
  180.4430  177.9950  139.9120 C   0  0  1  0  0  3  0  0  0  0  0  0
  179.1380  178.7790  139.7810 C   0  0  0  0  0  2  0  0  0  0  0  0
  179.1430  179.7680  138.6170 C   0  0  0  0  0  2  0  0  0  0  0  0
  180.5580  180.1890  138.2450 C   0  0  0  0  0  2  0  0  0  0  0  0
  181.0650  182.4850  137.8210 O   0  0  0  0  0  1  0  0  0  0  0  0
  180.9030  181.5440  138.8390 C   0  0  0  0  0  2  0  0  0  0  0  0
  1 13  1  0  0  0  0
  2  6  1  0  0  0  0
  3  4  2  0  0  0  0
  4  1  1  0  0  0  0
  5  7  1  0  0  0  0
  6  1  2  0  0  0  0
  7  2  2  0  0  0  0
  7  3  1  0  0  0  0
  9 12  1  0  0  0  0
 10 11  2  0  0  0  0
 11  8  1  0  0  0  0
 12 19  1  0  0  0  0
 12  8  2  0  0  0  0
 13  9  2  0  0  0  0
 13 10  1  0  0  0  0
 14 17  1  0  0  0  0
 15 16  2  0  0  0  0
 15 19  1  0  0  0  0
 16 18  1  0  0  0  0
 18 17  2  0  0  0  0
 19 14  2  0  0  0  0
 20 21  2  0  0  0  0
 20  2  1  0  0  0  0
 22 20  1  0  0  0  0
 23 24  1  0  0  0  0
 24 26  2  0  0  0  0
 24 21  1  0  0  0  0
 25 24  2  0  0  0  0
 28  3  1  0  0  0  0
 28 27  2  0  0  0  0
 29 28  1  0  0  0  0
 31 30  1  1  0  0  0
 31 29  1  0  0  0  0
 32 31  1  0  0  0  0
 33 32  1  0  0  0  0
 34 33  1  0  0  0  0
 34 36  1  0  0  0  0
 35 36  1  0  0  0  0
M  END
>  <MODEL>
9

>  <REMARK>
 VINA RESULT:      -8.1      3.075      8.173
  Name = 
  11 active torsions:
  status: ('A' for Active; 'I' for Inactive)
    1  A    between atoms: C_2  and  C_12
    2  A    between atoms: C_5  and  C_7
    3  A    between atoms: C_5  and  C_11
    4  A    between atoms: C_7  and  C_14
    5  A    between atoms: C_10  and  C_36
    6  A    between atoms: C_11  and  C_22
    7  A    between atoms: C_13  and  C_19
    8  A    between atoms: C_13  and  C_22
    9  A    between atoms: C_17  and  C_19
   10  A    between atoms: S_20  and  C_28
   11  A    between atoms: C_30  and  C_34
                            x       y       z     vdW  Elec       q    Type
                         _______ _______ _______ _____ _____    ______ ____

>  <TORSDO>
F 11

$$$$
