=
 OpenBabel10222419433D

 54 59  0  0  1  0  0  0  0  0999 V2000
  188.5330  177.1410  138.0140 C   0  0  2  0  0  3  0  0  0  0  0  0
  186.6960  177.3860  136.2450 C   0  0  0  0  0  2  0  0  0  0  0  0
  190.0690  177.2370  140.5140 C   0  0  2  0  0  3  0  0  0  0  0  0
  189.8250  176.3390  138.1960 C   0  0  0  0  0  2  0  0  0  0  0  0
  185.4710  177.5880  138.5240 C   0  0  0  0  0  2  0  0  0  0  0  0
  185.4410  177.8550  137.0060 C   0  0  2  0  0  3  0  0  0  0  0  0
  187.3300  175.1830  137.0860 C   0  0  0  0  0  2  0  0  0  0  0  0
  190.7570  177.0500  139.1650 C   0  0  0  0  0  2  0  0  0  0  0  0
  187.8350  177.4030  139.3620 C   0  0  2  0  0  3  0  0  0  0  0  0
  186.6230  178.3180  139.2010 C   0  0  0  0  0  2  0  0  0  0  0  0
  188.8050  178.0730  140.3340 C   0  0  0  0  0  2  0  0  0  0  0  0
  187.6100  176.4880  137.0200 C   0  0  0  0  0  0  0  0  0  0  0  0
  183.7410  175.0470  136.8690 C   0  0  2  0  0  3  0  0  0  0  0  0
  184.1600  177.3010  136.3470 C   0  0  1  0  0  3  0  0  0  0  0  0
  182.3940  179.4740  137.3090 O   0  0  0  0  0  0  0  0  0  0  0  0
  184.3840  175.9270  135.8890 N   0  0  0  0  0  2  0  0  0  0  0  0
  179.9500  176.8980  141.1090 C   0  0  0  0  0  2  0  0  0  0  0  0
  179.1580  176.0410  140.1340 C   0  0  0  0  0  2  0  0  0  0  0  0
  183.0660  177.2380  137.3080 N   0  0  0  0  0  0  0  0  0  0  0  0
  181.9760  178.3030  139.3430 C   0  0  0  0  0  2  0  0  0  0  0  0
  180.0580  175.4550  139.1530 N   0  0  0  0  0  2  0  0  0  0  0  0
  181.3400  175.5290  136.9780 C   0  0  0  0  0  2  0  0  0  0  0  0
  182.4660  178.3820  137.9330 C   0  0  0  0  0  0  0  0  0  0  0  0
  182.6970  175.8650  137.5960 C   0  0  1  0  0  3  0  0  0  0  0  0
  179.8660  178.3860  140.7670 C   0  0  2  0  0  3  0  0  0  0  0  0
  179.4030  176.8430  137.3900 O   0  0  0  0  0  0  0  0  0  0  0  0
  180.2130  175.9860  137.8360 C   0  0  0  0  0  0  0  0  0  0  0  0
  180.5200  178.7500  139.4320 C   0  0  0  0  0  2  0  0  0  0  0  0
  180.2160  180.4810  141.8770 O   0  0  0  0  0  0  0  0  0  0  0  0
  180.3890  179.2290  141.8860 C   0  0  0  0  0  0  0  0  0  0  0  0
  181.0570  178.6130  142.9430 O   0  0  0  0  0  0  0  0  0  0  0  0
  182.3490  179.0280  143.3580 C   0  0  0  0  0  1  0  0  0  0  0  0
  184.7730  174.5360  137.8680 C   0  0  0  0  0  2  0  0  0  0  0  0
  184.8130  173.0160  137.8800 C   0  0  0  0  0  2  0  0  0  0  0  0
  184.7660  172.4750  136.4610 C   0  0  0  0  0  2  0  0  0  0  0  0
  183.8870  171.2400  136.3890 C   0  0  0  0  0  2  0  0  0  0  0  0
  182.5300  171.5190  137.0080 C   0  0  0  0  0  1  0  0  0  0  0  0
  191.0080  177.9540  141.4690 C   0  0  0  0  0  2  0  0  0  0  0  0
  186.4940  178.4720  145.1680 O   0  0  0  0  0  1  0  0  0  0  0  0
  191.3940  177.0690  143.7770 C   0  0  0  0  0  0  0  0  0  0  0  0
  187.2910  177.5940  144.4240 C   0  0  1  0  0  0  0  0  0  0  0  0
  186.5920  176.5260  143.5980 C   0  0  0  0  0  1  0  0  0  0  0  0
  190.4950  177.9050  142.9040 C   0  0  2  0  0  3  0  0  0  0  0  0
  191.6800  177.5230  145.1750 C   0  0  0  0  0  2  0  0  0  0  0  0
  191.0480  176.5550  146.1660 C   0  0  2  0  0  3  0  0  0  0  0  0
  188.6200  178.0710  144.0610 C   0  0  1  0  0  3  0  0  0  0  0  0
  191.8210  175.9940  143.3830 O   0  0  0  0  0  0  0  0  0  0  0  0
  190.0080  177.2180  147.0800 C   0  0  0  0  0  2  0  0  0  0  0  0
  188.4730  177.0830  145.1530 N   0  0  1  0  0  0  0  0  0  0  0  0
  188.8200  177.8470  146.3470 C   0  0  0  0  0  2  0  0  0  0  0  0
  189.1780  177.4240  142.9540 O   0  0  0  0  0  0  0  0  0  0  0  0
  192.6530  174.8340  146.5310 O   0  0  0  0  0  0  0  0  0  0  0  0
  192.5160  176.4100  148.1900 O   0  0  0  0  0  1  0  0  0  0  0  0
  192.1050  175.8780  146.9720 C   0  0  0  0  0  0  0  0  0  0  0  0
  1  4  1  1  0  0  0
  1  9  1  0  0  0  0
  2 12  1  0  0  0  0
  3 38  1  1  0  0  0
  4  8  1  0  0  0  0
  5 10  1  0  0  0  0
  6  2  1  6  0  0  0
  6  5  1  0  0  0  0
  8  3  1  0  0  0  0
  9 10  1  6  0  0  0
  9 11  1  0  0  0  0
 11  3  1  0  0  0  0
 12  7  2  0  0  0  0
 12  1  1  0  0  0  0
 13 24  1  0  0  0  0
 13 33  1  1  0  0  0
 14 16  1  1  0  0  0
 14  6  1  0  0  0  0
 14 19  1  0  0  0  0
 15 23  2  0  0  0  0
 16 13  1  0  0  0  0
 18 17  1  0  0  0  0
 19 24  1  0  0  0  0
 19 23  1  0  0  0  0
 20 28  1  0  0  0  0
 21 18  1  0  0  0  0
 22 27  1  0  0  0  0
 23 20  1  0  0  0  0
 24 22  1  6  0  0  0
 25 17  1  0  0  0  0
 25 30  1  1  0  0  0
 26 27  2  0  0  0  0
 27 21  1  0  0  0  0
 28 25  1  0  0  0  0
 29 30  2  0  0  0  0
 30 31  1  0  0  0  0
 31 32  1  0  0  0  0
 33 34  1  0  0  0  0
 35 34  1  0  0  0  0
 36 35  1  0  0  0  0
 36 37  1  0  0  0  0
 40 44  1  0  0  0  0
 41 42  1  6  0  0  0
 41 49  1  0  0  0  0
 41 39  1  0  0  0  0
 43 38  1  6  0  0  0
 43 51  1  0  0  0  0
 43 40  1  0  0  0  0
 44 45  1  0  0  0  0
 45 54  1  1  0  0  0
 45 48  1  0  0  0  0
 46 51  1  6  0  0  0
 46 41  1  0  0  0  0
 46 49  1  0  0  0  0
 47 40  2  0  0  0  0
 49 50  1  1  0  0  0
 50 48  1  0  0  0  0
 52 54  2  0  0  0  0
 54 53  1  0  0  0  0
M  END
>  <MODEL>
1

>  <REMARK>
 VINA RESULT:      -8.2      0.000      0.000
  Name = 
  10 active torsions:
  status: ('A' for Active; 'I' for Inactive)
    1  A    between atoms: C_2  and  C_33
    2  A    between atoms: C_4  and  C_13
    3  A    between atoms: C_4  and  C_17
    4  A    between atoms: C_11  and  C_20
    5  A    between atoms: C_11  and  C_46
    6  A    between atoms: C_12  and  C_34
    7  A    between atoms: O_19  and  C_25
    8  A    between atoms: C_25  and  C_40
    9  A    between atoms: C_26  and  C_35
   10  A    between atoms: C_33  and  C_46
                            x       y       z     vdW  Elec       q    Type
                         _______ _______ _______ _____ _____    ______ ____

>  <TORSDO>
F 10

$$$$
=
 OpenBabel10222419433D

 54 59  0  0  1  0  0  0  0  0999 V2000
  184.2530  178.2840  144.0830 C   0  0  2  0  0  3  0  0  0  0  0  0
  183.1490  177.9530  141.7950 C   0  0  0  0  0  2  0  0  0  0  0  0
  186.2090  178.6180  146.2460 C   0  0  2  0  0  3  0  0  0  0  0  0
  183.8340  178.7470  145.4810 C   0  0  0  0  0  2  0  0  0  0  0  0
  185.5390  178.8170  141.2730 C   0  0  0  0  0  2  0  0  0  0  0  0
  184.2820  178.0900  140.7590 C   0  0  2  0  0  3  0  0  0  0  0  0
  182.9330  180.0730  142.9870 C   0  0  0  0  0  2  0  0  0  0  0  0
  184.7760  178.1760  146.5310 C   0  0  0  0  0  2  0  0  0  0  0  0
  185.7150  178.6590  143.7770 C   0  0  2  0  0  3  0  0  0  0  0  0
  186.1780  178.0800  142.4420 C   0  0  0  0  0  2  0  0  0  0  0  0
  186.6360  178.1170  144.8690 C   0  0  0  0  0  2  0  0  0  0  0  0
  183.3090  178.7910  143.0250 C   0  0  0  0  0  0  0  0  0  0  0  0
  185.1060  178.2360  137.5820 C   0  0  2  0  0  3  0  0  0  0  0  0
  183.7530  178.7060  139.4470 C   0  0  1  0  0  3  0  0  0  0  0  0
  181.0200  177.5960  139.7050 O   0  0  0  0  0  0  0  0  0  0  0  0
  184.8680  179.2170  138.6450 N   0  0  0  0  0  2  0  0  0  0  0  0
  181.3750  173.7690  136.2010 C   0  0  0  0  0  2  0  0  0  0  0  0
  181.3860  174.7330  135.0240 C   0  0  0  0  0  2  0  0  0  0  0  0
  183.0900  177.6980  138.6290 N   0  0  0  0  0  0  0  0  0  0  0  0
  181.6800  175.5830  138.6120 C   0  0  0  0  0  2  0  0  0  0  0  0
  182.3770  175.7720  135.2500 N   0  0  0  0  0  2  0  0  0  0  0  0
  183.0970  178.0010  136.1970 C   0  0  0  0  0  2  0  0  0  0  0  0
  181.8870  177.0110  139.0030 C   0  0  0  0  0  0  0  0  0  0  0  0
  183.8330  177.4360  137.4110 C   0  0  1  0  0  3  0  0  0  0  0  0
  180.2310  174.0600  137.1730 C   0  0  2  0  0  3  0  0  0  0  0  0
  180.8320  177.4580  135.7270 O   0  0  0  0  0  0  0  0  0  0  0  0
  182.0330  177.0780  135.7160 C   0  0  0  0  0  0  0  0  0  0  0  0
  180.3530  175.4130  137.8800 C   0  0  0  0  0  2  0  0  0  0  0  0
  179.6120  173.1720  139.3110 O   0  0  0  0  0  0  0  0  0  0  0  0
  180.0510  172.9420  138.1490 C   0  0  0  0  0  0  0  0  0  0  0  0
  180.3620  171.6420  137.7530 O   0  0  0  0  0  0  0  0  0  0  0  0
  179.5700  170.9350  136.8110 C   0  0  0  0  0  1  0  0  0  0  0  0
  186.2440  177.3020  137.9780 C   0  0  0  0  0  2  0  0  0  0  0  0
  187.5940  177.9160  137.6420 C   0  0  0  0  0  2  0  0  0  0  0  0
  188.7120  176.9380  137.9600 C   0  0  0  0  0  2  0  0  0  0  0  0
  189.6370  177.5100  139.0180 C   0  0  0  0  0  2  0  0  0  0  0  0
  188.9280  178.5910  139.8130 C   0  0  0  0  0  1  0  0  0  0  0  0
  187.1380  178.0350  147.2980 C   0  0  0  0  0  2  0  0  0  0  0  0
  190.3800  177.1710  142.4940 O   0  0  0  0  0  1  0  0  0  0  0  0
  189.4720  177.2290  147.6980 C   0  0  0  0  0  0  0  0  0  0  0  0
  190.1830  177.9550  143.6370 C   0  0  1  0  0  0  0  0  0  0  0  0
  190.2050  179.4670  143.4750 C   0  0  0  0  0  1  0  0  0  0  0  0
  188.3920  177.4370  146.6690 C   0  0  2  0  0  3  0  0  0  0  0  0
  190.3140  175.9920  147.6320 C   0  0  0  0  0  2  0  0  0  0  0  0
  191.7470  176.3680  147.2780 C   0  0  2  0  0  3  0  0  0  0  0  0
  189.4580  177.3310  144.7370 C   0  0  1  0  0  3  0  0  0  0  0  0
  189.7160  178.0930  148.5280 O   0  0  0  0  0  0  0  0  0  0  0  0
  192.2330  175.7330  145.9680 C   0  0  0  0  0  2  0  0  0  0  0  0
  190.9270  177.4880  144.8270 N   0  0  1  0  0  0  0  0  0  0  0  0
  191.4190  176.1180  144.7300 C   0  0  0  0  0  2  0  0  0  0  0  0
  188.8640  178.2390  145.6200 O   0  0  0  0  0  0  0  0  0  0  0  0
  192.9480  174.8180  148.6310 O   0  0  0  0  0  0  0  0  0  0  0  0
  193.2350  177.0250  149.1830 O   0  0  0  0  0  1  0  0  0  0  0  0
  192.6630  176.0240  148.4040 C   0  0  0  0  0  0  0  0  0  0  0  0
  1  4  1  1  0  0  0
  2 12  1  0  0  0  0
  3  8  1  0  0  0  0
  3 38  1  1  0  0  0
  4  8  1  0  0  0  0
  5 10  1  0  0  0  0
  6  5  1  1  0  0  0
  6  2  1  0  0  0  0
  7 12  2  0  0  0  0
  9 10  1  6  0  0  0
  9  1  1  0  0  0  0
  9 11  1  0  0  0  0
 11  3  1  0  0  0  0
 12  1  1  0  0  0  0
 13 33  1  1  0  0  0
 13 16  1  0  0  0  0
 14 16  1  6  0  0  0
 14  6  1  0  0  0  0
 17 25  1  0  0  0  0
 18 21  1  0  0  0  0
 18 17  1  0  0  0  0
 19 23  1  0  0  0  0
 19 14  1  0  0  0  0
 20 23  1  0  0  0  0
 21 27  1  0  0  0  0
 23 15  2  0  0  0  0
 24 22  1  6  0  0  0
 24 13  1  0  0  0  0
 24 19  1  0  0  0  0
 25 28  1  0  0  0  0
 25 30  1  1  0  0  0
 27 26  2  0  0  0  0
 27 22  1  0  0  0  0
 28 20  1  0  0  0  0
 30 29  2  0  0  0  0
 31 30  1  0  0  0  0
 32 31  1  0  0  0  0
 34 35  1  0  0  0  0
 34 33  1  0  0  0  0
 35 36  1  0  0  0  0
 36 37  1  0  0  0  0
 39 41  1  0  0  0  0
 40 47  2  0  0  0  0
 41 42  1  6  0  0  0
 41 46  1  0  0  0  0
 41 49  1  0  0  0  0
 43 38  1  1  0  0  0
 43 40  1  0  0  0  0
 44 40  1  0  0  0  0
 45 44  1  0  0  0  0
 45 54  1  1  0  0  0
 46 49  1  0  0  0  0
 46 51  1  1  0  0  0
 48 45  1  0  0  0  0
 49 50  1  6  0  0  0
 50 48  1  0  0  0  0
 51 43  1  0  0  0  0
 54 52  2  0  0  0  0
 54 53  1  0  0  0  0
M  END
>  <MODEL>
2

>  <REMARK>
 VINA RESULT:      -8.0      2.117      5.423
  Name = 
  10 active torsions:
  status: ('A' for Active; 'I' for Inactive)
    1  A    between atoms: C_2  and  C_33
    2  A    between atoms: C_4  and  C_13
    3  A    between atoms: C_4  and  C_17
    4  A    between atoms: C_11  and  C_20
    5  A    between atoms: C_11  and  C_46
    6  A    between atoms: C_12  and  C_34
    7  A    between atoms: O_19  and  C_25
    8  A    between atoms: C_25  and  C_40
    9  A    between atoms: C_26  and  C_35
   10  A    between atoms: C_33  and  C_46
                            x       y       z     vdW  Elec       q    Type
                         _______ _______ _______ _____ _____    ______ ____

>  <TORSDO>
F 10

$$$$
=
 OpenBabel10222419433D

 54 59  0  0  1  0  0  0  0  0999 V2000
  189.9980  176.8080  137.9330 C   0  0  2  0  0  3  0  0  0  0  0  0
  188.7320  176.5840  135.7180 C   0  0  0  0  0  2  0  0  0  0  0  0
  190.7400  177.4300  140.7060 C   0  0  2  0  0  3  0  0  0  0  0  0
  191.2440  176.2050  138.5870 C   0  0  0  0  0  2  0  0  0  0  0  0
  186.8930  176.9380  137.5140 C   0  0  0  0  0  2  0  0  0  0  0  0
  187.2770  176.9920  136.0230 C   0  0  2  0  0  3  0  0  0  0  0  0
  189.2750  174.6100  137.0480 C   0  0  0  0  0  2  0  0  0  0  0  0
  191.7990  177.1500  139.6420 C   0  0  0  0  0  2  0  0  0  0  0  0
  188.9240  177.1610  138.9800 C   0  0  2  0  0  3  0  0  0  0  0  0
  187.7400  177.8890  138.3490 C   0  0  0  0  0  2  0  0  0  0  0  0
  189.5170  178.0710  140.0550 C   0  0  0  0  0  2  0  0  0  0  0  0
  189.4550  175.9190  136.8480 C   0  0  0  0  0  0  0  0  0  0  0  0
  185.8890  174.0160  135.9170 C   0  0  2  0  0  3  0  0  0  0  0  0
  186.2890  176.2000  135.1420 C   0  0  1  0  0  3  0  0  0  0  0  0
  184.1740  178.2720  135.1720 O   0  0  0  0  0  0  0  0  0  0  0  0
  186.7300  174.8080  135.0150 N   0  0  0  0  0  2  0  0  0  0  0  0
  180.9000  176.0280  138.5330 C   0  0  0  0  0  2  0  0  0  0  0  0
  180.4910  174.9470  137.5440 C   0  0  0  0  0  2  0  0  0  0  0  0
  184.9670  176.1540  135.7550 N   0  0  0  0  0  0  0  0  0  0  0  0
  183.2560  177.3780  137.1820 C   0  0  0  0  0  2  0  0  0  0  0  0
  181.6770  174.3300  136.9730 N   0  0  0  0  0  2  0  0  0  0  0  0
  183.5360  174.2260  135.2650 C   0  0  0  0  0  2  0  0  0  0  0  0
  184.1330  177.3010  135.9740 C   0  0  0  0  0  0  0  0  0  0  0  0
  184.6230  174.8070  136.1670 C   0  0  1  0  0  3  0  0  0  0  0  0
  180.8190  177.4270  137.9230 C   0  0  2  0  0  3  0  0  0  0  0  0
  181.4780  175.3520  134.8810 O   0  0  0  0  0  0  0  0  0  0  0  0
  182.1770  174.6710  135.6790 C   0  0  0  0  0  0  0  0  0  0  0  0
  181.8110  177.6600  136.7810 C   0  0  0  0  0  2  0  0  0  0  0  0
  181.4320  178.2120  140.1030 O   0  0  0  0  0  0  0  0  0  0  0  0
  180.9310  178.4840  138.9750 C   0  0  0  0  0  0  0  0  0  0  0  0
  180.4880  179.7740  138.6890 O   0  0  0  0  0  0  0  0  0  0  0  0
  181.3920  180.8470  138.4730 C   0  0  0  0  0  1  0  0  0  0  0  0
  186.6130  173.7840  137.2390 C   0  0  0  0  0  2  0  0  0  0  0  0
  186.9260  172.3090  137.4370 C   0  0  0  0  0  2  0  0  0  0  0  0
  186.9770  171.5960  136.0960 C   0  0  0  0  0  2  0  0  0  0  0  0
  188.2870  170.8480  135.9390 C   0  0  0  0  0  2  0  0  0  0  0  0
  188.9190  171.1610  134.5950 C   0  0  0  0  0  1  0  0  0  0  0  0
  191.3050  178.3800  141.7480 C   0  0  0  0  0  2  0  0  0  0  0  0
  186.4820  178.2110  145.0700 O   0  0  0  0  0  1  0  0  0  0  0  0
  191.5650  177.2740  143.9760 C   0  0  0  0  0  0  0  0  0  0  0  0
  187.3960  177.4710  144.3120 C   0  0  1  0  0  0  0  0  0  0  0  0
  186.8440  176.4590  143.3210 C   0  0  0  0  0  1  0  0  0  0  0  0
  190.6820  178.1430  143.1190 C   0  0  2  0  0  3  0  0  0  0  0  0
  191.7050  177.5900  145.4330 C   0  0  0  0  0  2  0  0  0  0  0  0
  191.0640  176.4820  146.2600 C   0  0  2  0  0  3  0  0  0  0  0  0
  188.7130  178.0660  144.1180 C   0  0  1  0  0  3  0  0  0  0  0  0
  192.0970  176.2760  143.5120 O   0  0  0  0  0  0  0  0  0  0  0  0
  189.9100  176.9760  147.1430 C   0  0  0  0  0  2  0  0  0  0  0  0
  188.5490  176.9580  145.0850 N   0  0  1  0  0  0  0  0  0  0  0  0
  188.7430  177.6070  146.3770 C   0  0  0  0  0  2  0  0  0  0  0  0
  189.4030  177.5790  143.0040 O   0  0  0  0  0  0  0  0  0  0  0  0
  192.6290  174.7300  146.6510 O   0  0  0  0  0  0  0  0  0  0  0  0
  192.5060  176.3170  148.3010 O   0  0  0  0  0  1  0  0  0  0  0  0
  192.0980  175.7880  147.0810 C   0  0  0  0  0  0  0  0  0  0  0  0
  1  4  1  1  0  0  0
  1  9  1  0  0  0  0
  2 12  1  0  0  0  0
  3 38  1  1  0  0  0
  4  8  1  0  0  0  0
  5 10  1  0  0  0  0
  6  2  1  1  0  0  0
  6  5  1  0  0  0  0
  8  3  1  0  0  0  0
  9 10  1  6  0  0  0
  9 11  1  0  0  0  0
 11  3  1  0  0  0  0
 12  7  2  0  0  0  0
 12  1  1  0  0  0  0
 13 24  1  0  0  0  0
 13 33  1  1  0  0  0
 14 16  1  1  0  0  0
 14 19  1  0  0  0  0
 14  6  1  0  0  0  0
 15 23  2  0  0  0  0
 16 13  1  0  0  0  0
 18 17  1  0  0  0  0
 19 23  1  0  0  0  0
 19 24  1  0  0  0  0
 21 18  1  0  0  0  0
 22 27  1  0  0  0  0
 23 20  1  0  0  0  0
 24 22  1  6  0  0  0
 25 17  1  0  0  0  0
 25 30  1  1  0  0  0
 26 27  2  0  0  0  0
 27 21  1  0  0  0  0
 28 20  1  0  0  0  0
 28 25  1  0  0  0  0
 30 29  2  0  0  0  0
 31 30  1  0  0  0  0
 32 31  1  0  0  0  0
 33 34  1  0  0  0  0
 35 34  1  0  0  0  0
 36 35  1  0  0  0  0
 37 36  1  0  0  0  0
 40 44  1  0  0  0  0
 41 42  1  6  0  0  0
 41 39  1  0  0  0  0
 41 49  1  0  0  0  0
 43 38  1  6  0  0  0
 43 40  1  0  0  0  0
 44 45  1  0  0  0  0
 45 54  1  1  0  0  0
 45 48  1  0  0  0  0
 46 51  1  6  0  0  0
 46 41  1  0  0  0  0
 46 49  1  0  0  0  0
 47 40  2  0  0  0  0
 49 50  1  1  0  0  0
 50 48  1  0  0  0  0
 51 43  1  0  0  0  0
 52 54  2  0  0  0  0
 54 53  1  0  0  0  0
M  END
>  <MODEL>
3

>  <REMARK>
 VINA RESULT:      -6.6      1.734      2.436
  Name = 
  10 active torsions:
  status: ('A' for Active; 'I' for Inactive)
    1  A    between atoms: C_2  and  C_33
    2  A    between atoms: C_4  and  C_13
    3  A    between atoms: C_4  and  C_17
    4  A    between atoms: C_11  and  C_20
    5  A    between atoms: C_11  and  C_46
    6  A    between atoms: C_12  and  C_34
    7  A    between atoms: O_19  and  C_25
    8  A    between atoms: C_25  and  C_40
    9  A    between atoms: C_26  and  C_35
   10  A    between atoms: C_33  and  C_46
                            x       y       z     vdW  Elec       q    Type
                         _______ _______ _______ _____ _____    ______ ____

>  <TORSDO>
F 10

$$$$
=
 OpenBabel10222419433D

 54 59  0  0  1  0  0  0  0  0999 V2000
  188.1500  176.4960  136.2600 C   0  0  2  0  0  3  0  0  0  0  0  0
  186.4020  177.9700  137.4150 C   0  0  0  0  0  2  0  0  0  0  0  0
  189.6240  174.2070  135.1600 C   0  0  2  0  0  3  0  0  0  0  0  0
  189.3280  176.6840  135.3010 C   0  0  0  0  0  2  0  0  0  0  0  0
  185.1550  175.7680  136.8400 C   0  0  0  0  0  2  0  0  0  0  0  0
  185.1950  177.0510  137.6920 C   0  0  2  0  0  3  0  0  0  0  0  0
  186.7390  178.0960  135.0000 C   0  0  0  0  0  2  0  0  0  0  0  0
  190.3170  175.5370  135.4450 C   0  0  0  0  0  2  0  0  0  0  0  0
  187.4570  175.1370  136.0450 C   0  0  2  0  0  3  0  0  0  0  0  0
  186.3720  174.8870  137.0900 C   0  0  0  0  0  2  0  0  0  0  0  0
  188.4770  174.0050  136.1470 C   0  0  0  0  0  2  0  0  0  0  0  0
  187.1790  177.6430  136.1780 C   0  0  0  0  0  0  0  0  0  0  0  0
  181.9620  176.4970  137.8570 C   0  0  2  0  0  3  0  0  0  0  0  0
  183.8730  177.8430  137.6090 C   0  0  1  0  0  3  0  0  0  0  0  0
  184.6320  179.8560  139.6430 O   0  0  0  0  0  0  0  0  0  0  0  0
  182.8720  177.0750  136.8640 N   0  0  0  0  0  2  0  0  0  0  0  0
  181.7770  178.0960  143.6180 C   0  0  0  0  0  2  0  0  0  0  0  0
  180.4670  178.5350  142.9820 C   0  0  0  0  0  2  0  0  0  0  0  0
  183.3150  178.0620  138.9370 N   0  0  0  0  0  0  0  0  0  0  0  0
  183.8090  178.4690  141.3970 C   0  0  0  0  0  2  0  0  0  0  0  0
  180.4020  178.0550  141.6100 N   0  0  0  0  0  2  0  0  0  0  0  0
  180.8820  178.2840  139.1410 C   0  0  0  0  0  2  0  0  0  0  0  0
  183.9360  178.8560  139.9590 C   0  0  0  0  0  0  0  0  0  0  0  0
  182.0760  177.3300  139.1150 C   0  0  1  0  0  3  0  0  0  0  0  0
  182.8180  179.2160  143.6220 C   0  0  2  0  0  3  0  0  0  0  0  0
  180.7800  180.1390  140.6230 O   0  0  0  0  0  0  0  0  0  0  0  0
  180.6880  178.8900  140.4870 C   0  0  0  0  0  0  0  0  0  0  0  0
  183.2780  179.6360  142.2240 C   0  0  0  0  0  2  0  0  0  0  0  0
  183.8440  178.8720  145.7600 O   0  0  0  0  0  0  0  0  0  0  0  0
  183.9770  178.8740  144.5040 C   0  0  0  0  0  0  0  0  0  0  0  0
  185.1980  178.5450  143.9190 O   0  0  0  0  0  0  0  0  0  0  0  0
  186.1660  177.7570  144.5950 C   0  0  0  0  0  1  0  0  0  0  0  0
  182.3650  175.0580  138.1610 C   0  0  0  0  0  2  0  0  0  0  0  0
  181.5610  174.0780  137.3210 C   0  0  0  0  0  2  0  0  0  0  0  0
  182.4710  173.3480  136.3480 C   0  0  0  0  0  2  0  0  0  0  0  0
  183.4360  172.4460  137.0950 C   0  0  0  0  0  2  0  0  0  0  0  0
  183.5130  171.0850  136.4280 C   0  0  0  0  0  1  0  0  0  0  0  0
  190.6210  173.0710  135.3150 C   0  0  0  0  0  2  0  0  0  0  0  0
  194.3200  177.4260  136.6090 O   0  0  0  0  0  1  0  0  0  0  0  0
  193.0420  172.4480  135.3890 C   0  0  0  0  0  0  0  0  0  0  0  0
  193.7370  176.2310  137.0430 C   0  0  1  0  0  0  0  0  0  0  0  0
  193.1730  176.1860  138.4540 C   0  0  0  0  0  1  0  0  0  0  0  0
  192.0550  173.5860  135.3550 C   0  0  2  0  0  3  0  0  0  0  0  0
  194.3060  172.5550  134.5940 C   0  0  0  0  0  2  0  0  0  0  0  0
  195.4980  172.6450  135.5380 C   0  0  2  0  0  3  0  0  0  0  0  0
  193.2310  175.3400  136.0060 C   0  0  1  0  0  3  0  0  0  0  0  0
  192.8560  171.4840  136.1180 O   0  0  0  0  0  0  0  0  0  0  0  0
  196.3010  173.9430  135.3780 C   0  0  0  0  0  2  0  0  0  0  0  0
  194.5050  175.0180  136.6860 N   0  0  1  0  0  0  0  0  0  0  0  0
  195.5050  175.2240  135.6430 C   0  0  0  0  0  2  0  0  0  0  0  0
  192.2560  174.4400  136.4490 O   0  0  0  0  0  0  0  0  0  0  0  0
  195.9620  170.4530  134.7290 O   0  0  0  0  0  0  0  0  0  0  0  0
  197.6740  171.4520  135.8820 O   0  0  0  0  0  1  0  0  0  0  0  0
  196.3800  171.4540  135.3700 C   0  0  0  0  0  0  0  0  0  0  0  0
  1  4  1  6  0  0  0
  2  6  1  0  0  0  0
  3 38  1  1  0  0  0
  3  8  1  0  0  0  0
  3 11  1  0  0  0  0
  4  8  1  0  0  0  0
  5 10  1  0  0  0  0
  6  5  1  6  0  0  0
  7 12  2  0  0  0  0
  9 11  1  1  0  0  0
  9  1  1  0  0  0  0
  9 10  1  0  0  0  0
 12  1  1  0  0  0  0
 12  2  1  0  0  0  0
 13 33  1  1  0  0  0
 13 24  1  0  0  0  0
 14 16  1  6  0  0  0
 14  6  1  0  0  0  0
 14 19  1  0  0  0  0
 15 23  2  0  0  0  0
 16 13  1  0  0  0  0
 17 25  1  0  0  0  0
 18 17  1  0  0  0  0
 19 24  1  0  0  0  0
 19 23  1  0  0  0  0
 20 28  1  0  0  0  0
 21 18  1  0  0  0  0
 22 27  1  0  0  0  0
 23 20  1  0  0  0  0
 24 22  1  6  0  0  0
 25 30  1  1  0  0  0
 27 26  2  0  0  0  0
 27 21  1  0  0  0  0
 28 25  1  0  0  0  0
 30 29  2  0  0  0  0
 31 30  1  0  0  0  0
 31 32  1  0  0  0  0
 34 33  1  0  0  0  0
 35 36  1  0  0  0  0
 35 34  1  0  0  0  0
 37 36  1  0  0  0  0
 39 41  1  0  0  0  0
 40 47  2  0  0  0  0
 41 42  1  1  0  0  0
 43 38  1  1  0  0  0
 43 40  1  0  0  0  0
 43 51  1  0  0  0  0
 44 40  1  0  0  0  0
 44 45  1  0  0  0  0
 45 54  1  6  0  0  0
 46 51  1  1  0  0  0
 46 49  1  0  0  0  0
 46 41  1  0  0  0  0
 48 45  1  0  0  0  0
 48 50  1  0  0  0  0
 49 50  1  6  0  0  0
 49 41  1  0  0  0  0
 52 54  2  0  0  0  0
 54 53  1  0  0  0  0
M  END
>  <MODEL>
4

>  <REMARK>
 VINA RESULT:      -6.3      4.325      6.820
  Name = 
  10 active torsions:
  status: ('A' for Active; 'I' for Inactive)
    1  A    between atoms: C_2  and  C_33
    2  A    between atoms: C_4  and  C_13
    3  A    between atoms: C_4  and  C_17
    4  A    between atoms: C_11  and  C_20
    5  A    between atoms: C_11  and  C_46
    6  A    between atoms: C_12  and  C_34
    7  A    between atoms: O_19  and  C_25
    8  A    between atoms: C_25  and  C_40
    9  A    between atoms: C_26  and  C_35
   10  A    between atoms: C_33  and  C_46
                            x       y       z     vdW  Elec       q    Type
                         _______ _______ _______ _____ _____    ______ ____

>  <TORSDO>
F 10

$$$$
=
 OpenBabel10222419433D

 54 59  0  0  1  0  0  0  0  0999 V2000
  184.3910  178.1100  143.1820 C   0  0  2  0  0  3  0  0  0  0  0  0
  183.6230  177.6700  140.7790 C   0  0  0  0  0  2  0  0  0  0  0  0
  186.0170  178.6240  145.5720 C   0  0  2  0  0  3  0  0  0  0  0  0
  183.7580  178.5440  144.5070 C   0  0  0  0  0  2  0  0  0  0  0  0
  185.9790  178.7330  140.5510 C   0  0  0  0  0  2  0  0  0  0  0  0
  184.8640  177.8970  139.8930 C   0  0  2  0  0  3  0  0  0  0  0  0
  183.0770  179.7710  141.8960 C   0  0  0  0  0  2  0  0  0  0  0  0
  184.6010  178.0630  145.6790 C   0  0  0  0  0  2  0  0  0  0  0  0
  185.8430  178.6070  143.0590 C   0  0  2  0  0  3  0  0  0  0  0  0
  186.5220  178.0610  141.8050 C   0  0  0  0  0  2  0  0  0  0  0  0
  186.6580  178.1530  144.2690 C   0  0  0  0  0  2  0  0  0  0  0  0
  183.5520  178.5270  142.0040 C   0  0  0  0  0  0  0  0  0  0  0  0
  185.5230  177.3770  136.7170 C   0  0  2  0  0  3  0  0  0  0  0  0
  184.4590  178.4570  138.5130 C   0  0  1  0  0  3  0  0  0  0  0  0
  181.5430  178.2160  138.9660 O   0  0  0  0  0  0  0  0  0  0  0  0
  185.6270  178.5180  137.6310 N   0  0  0  0  0  2  0  0  0  0  0  0
  180.6220  174.0140  136.0430 C   0  0  0  0  0  2  0  0  0  0  0  0
  180.8390  174.7680  134.7400 C   0  0  0  0  0  2  0  0  0  0  0  0
  183.4970  177.5800  137.8580 N   0  0  0  0  0  0  0  0  0  0  0  0
  181.5530  175.9710  138.1640 C   0  0  0  0  0  2  0  0  0  0  0  0
  182.0920  175.5030  134.8010 N   0  0  0  0  0  2  0  0  0  0  0  0
  183.4570  177.5400  135.4080 C   0  0  0  0  0  2  0  0  0  0  0  0
  182.1720  177.3200  138.3430 C   0  0  0  0  0  0  0  0  0  0  0  0
  184.0700  176.9570  136.6810 C   0  0  1  0  0  3  0  0  0  0  0  0
  179.6600  174.7460  136.9790 C   0  0  2  0  0  3  0  0  0  0  0  0
  181.1080  177.6070  135.0520 O   0  0  0  0  0  0  0  0  0  0  0  0
  182.1530  176.9020  135.0790 C   0  0  0  0  0  0  0  0  0  0  0  0
  180.1930  176.0890  137.4830 C   0  0  0  0  0  2  0  0  0  0  0  0
  179.1460  172.6150  137.9470 O   0  0  0  0  0  0  0  0  0  0  0  0
  179.2280  173.8650  138.1080 C   0  0  0  0  0  0  0  0  0  0  0  0
  178.9310  174.4430  139.3410 O   0  0  0  0  0  0  0  0  0  0  0  0
  178.9330  173.6880  140.5430 C   0  0  0  0  0  1  0  0  0  0  0  0
  186.3740  176.2190  137.2270 C   0  0  0  0  0  2  0  0  0  0  0  0
  185.6810  174.8870  136.9870 C   0  0  0  0  0  2  0  0  0  0  0  0
  186.0980  174.3090  135.6450 C   0  0  0  0  0  2  0  0  0  0  0  0
  185.2440  173.1040  135.2940 C   0  0  0  0  0  2  0  0  0  0  0  0
  185.9420  171.8220  135.7080 C   0  0  0  0  0  1  0  0  0  0  0  0
  186.8490  178.1300  146.7440 C   0  0  0  0  0  2  0  0  0  0  0  0
  190.3610  176.6520  142.2930 O   0  0  0  0  0  1  0  0  0  0  0  0
  189.1850  177.4960  147.3730 C   0  0  0  0  0  0  0  0  0  0  0  0
  190.0790  177.5980  143.2850 C   0  0  1  0  0  0  0  0  0  0  0  0
  190.0570  179.0650  142.8830 C   0  0  0  0  0  1  0  0  0  0  0  0
  188.1530  177.4930  146.2770 C   0  0  2  0  0  3  0  0  0  0  0  0
  190.0710  176.3010  147.5450 C   0  0  0  0  0  2  0  0  0  0  0  0
  191.5070  176.6760  147.2010 C   0  0  2  0  0  3  0  0  0  0  0  0
  189.3200  177.1260  144.4370 C   0  0  1  0  0  3  0  0  0  0  0  0
  189.3570  178.4900  148.0650 O   0  0  0  0  0  0  0  0  0  0  0  0
  192.0810  175.8620  146.0330 C   0  0  0  0  0  2  0  0  0  0  0  0
  190.7760  177.3570  144.5670 N   0  0  1  0  0  0  0  0  0  0  0  0
  191.3190  176.0110  144.7140 C   0  0  0  0  0  2  0  0  0  0  0  0
  188.6510  178.1370  145.1340 O   0  0  0  0  0  0  0  0  0  0  0  0
  192.5820  177.5630  149.1330 O   0  0  0  0  0  1  0  0  0  0  0  0
  192.9290  175.3270  148.7600 O   0  0  0  0  0  0  0  0  0  0  0  0
  192.3750  176.5540  148.4080 C   0  0  0  0  0  0  0  0  0  0  0  0
  1  4  1  1  0  0  0
  2 12  1  0  0  0  0
  3  8  1  0  0  0  0
  3 38  1  1  0  0  0
  4  8  1  0  0  0  0
  5 10  1  0  0  0  0
  6  5  1  1  0  0  0
  6  2  1  0  0  0  0
  7 12  2  0  0  0  0
  9 10  1  6  0  0  0
  9  1  1  0  0  0  0
  9 11  1  0  0  0  0
 11  3  1  0  0  0  0
 12  1  1  0  0  0  0
 13 33  1  1  0  0  0
 13 16  1  0  0  0  0
 14 16  1  6  0  0  0
 14  6  1  0  0  0  0
 17 25  1  0  0  0  0
 18 21  1  0  0  0  0
 18 17  1  0  0  0  0
 19 23  1  0  0  0  0
 19 14  1  0  0  0  0
 20 23  1  0  0  0  0
 21 27  1  0  0  0  0
 23 15  2  0  0  0  0
 24 22  1  6  0  0  0
 24 13  1  0  0  0  0
 24 19  1  0  0  0  0
 25 28  1  0  0  0  0
 25 30  1  1  0  0  0
 26 27  2  0  0  0  0
 27 22  1  0  0  0  0
 28 20  1  0  0  0  0
 29 30  2  0  0  0  0
 30 31  1  0  0  0  0
 31 32  1  0  0  0  0
 34 33  1  0  0  0  0
 35 34  1  0  0  0  0
 36 35  1  0  0  0  0
 36 37  1  0  0  0  0
 39 41  1  0  0  0  0
 40 44  1  0  0  0  0
 40 47  2  0  0  0  0
 41 42  1  6  0  0  0
 41 46  1  0  0  0  0
 41 49  1  0  0  0  0
 43 38  1  1  0  0  0
 43 40  1  0  0  0  0
 45 44  1  0  0  0  0
 45 54  1  1  0  0  0
 46 49  1  0  0  0  0
 46 51  1  1  0  0  0
 48 45  1  0  0  0  0
 49 50  1  6  0  0  0
 50 48  1  0  0  0  0
 51 43  1  0  0  0  0
 54 53  2  0  0  0  0
 54 52  1  0  0  0  0
M  END
>  <MODEL>
5

>  <REMARK>
 VINA RESULT:      -6.3      2.206      4.572
  Name = 
  10 active torsions:
  status: ('A' for Active; 'I' for Inactive)
    1  A    between atoms: C_2  and  C_33
    2  A    between atoms: C_4  and  C_13
    3  A    between atoms: C_4  and  C_17
    4  A    between atoms: C_11  and  C_20
    5  A    between atoms: C_11  and  C_46
    6  A    between atoms: C_12  and  C_34
    7  A    between atoms: O_19  and  C_25
    8  A    between atoms: C_25  and  C_40
    9  A    between atoms: C_26  and  C_35
   10  A    between atoms: C_33  and  C_46
                            x       y       z     vdW  Elec       q    Type
                         _______ _______ _______ _____ _____    ______ ____

>  <TORSDO>
F 10

$$$$
=
 OpenBabel10222419433D

 54 59  0  0  1  0  0  0  0  0999 V2000
  185.9550  178.5970  139.6280 C   0  0  2  0  0  3  0  0  0  0  0  0
  183.5550  179.1990  138.9680 C   0  0  0  0  0  2  0  0  0  0  0  0
  188.3970  178.0050  141.1480 C   0  0  2  0  0  3  0  0  0  0  0  0
  187.1860  177.9730  138.9630 C   0  0  0  0  0  2  0  0  0  0  0  0
  183.3970  178.3970  141.4310 C   0  0  0  0  0  2  0  0  0  0  0  0
  182.7430  179.1830  140.2790 C   0  0  2  0  0  3  0  0  0  0  0  0
  184.4290  176.9540  138.5740 C   0  0  0  0  0  2  0  0  0  0  0  0
  188.4540  178.4140  139.6780 C   0  0  0  0  0  2  0  0  0  0  0  0
  185.8910  178.2580  141.1290 C   0  0  2  0  0  3  0  0  0  0  0  0
  184.7440  178.9890  141.8230 C   0  0  0  0  0  2  0  0  0  0  0  0
  187.1930  178.6650  141.8170 C   0  0  0  0  0  2  0  0  0  0  0  0
  184.6870  178.2210  138.9110 C   0  0  0  0  0  0  0  0  0  0  0  0
  180.3140  179.7470  138.1400 C   0  0  2  0  0  3  0  0  0  0  0  0
  181.2920  178.7270  140.0190 C   0  0  1  0  0  3  0  0  0  0  0  0
  181.9000  175.8300  140.0770 O   0  0  0  0  0  0  0  0  0  0  0  0
  180.4750  179.8660  139.5920 N   0  0  0  0  0  2  0  0  0  0  0  0
  181.7010  174.8670  134.9690 C   0  0  0  0  0  2  0  0  0  0  0  0
  180.1890  175.0340  134.9110 C   0  0  0  0  0  2  0  0  0  0  0  0
  181.2380  177.7560  138.9340 N   0  0  0  0  0  0  0  0  0  0  0  0
  182.4190  175.8410  137.7500 C   0  0  0  0  0  2  0  0  0  0  0  0
  179.8070  176.2800  135.5570 N   0  0  0  0  0  2  0  0  0  0  0  0
  179.1890  177.6390  137.5940 C   0  0  0  0  0  2  0  0  0  0  0  0
  181.8300  176.4500  138.9820 C   0  0  0  0  0  0  0  0  0  0  0  0
  180.5550  178.2980  137.7750 C   0  0  1  0  0  3  0  0  0  0  0  0
  182.1330  173.9270  136.0940 C   0  0  2  0  0  3  0  0  0  0  0  0
  178.9310  175.2790  137.4770 O   0  0  0  0  0  0  0  0  0  0  0  0
  179.2940  176.3320  136.8880 C   0  0  0  0  0  0  0  0  0  0  0  0
  181.8250  174.4600  137.4960 C   0  0  0  0  0  2  0  0  0  0  0  0
  184.2660  174.0000  135.0040 O   0  0  0  0  0  0  0  0  0  0  0  0
  183.5710  173.5410  135.9540 C   0  0  0  0  0  0  0  0  0  0  0  0
  184.1360  172.6810  136.8950 O   0  0  0  0  0  0  0  0  0  0  0  0
  185.3250  173.0110  137.5950 C   0  0  0  0  0  1  0  0  0  0  0  0
  181.3340  180.6270  137.4270 C   0  0  0  0  0  2  0  0  0  0  0  0
  180.7970  181.1060  136.0870 C   0  0  0  0  0  2  0  0  0  0  0  0
  180.3360  182.5500  136.1880 C   0  0  0  0  0  2  0  0  0  0  0  0
  181.0970  183.2780  137.2820 C   0  0  0  0  0  2  0  0  0  0  0  0
  181.1740  184.7620  136.9770 C   0  0  0  0  0  1  0  0  0  0  0  0
  189.6660  178.4570  141.8510 C   0  0  0  0  0  2  0  0  0  0  0  0
  186.4450  178.7350  146.7370 O   0  0  0  0  0  1  0  0  0  0  0  0
  190.6060  177.2620  143.8360 C   0  0  0  0  0  0  0  0  0  0  0  0
  186.9170  177.9200  145.7030 C   0  0  1  0  0  0  0  0  0  0  0  0
  185.9210  177.0080  145.0040 C   0  0  0  0  0  1  0  0  0  0  0  0
  189.5760  178.2510  143.3590 C   0  0  2  0  0  3  0  0  0  0  0  0
  191.3150  177.5140  145.1310 C   0  0  0  0  0  2  0  0  0  0  0  0
  190.9040  176.4610  146.1520 C   0  0  2  0  0  3  0  0  0  0  0  0
  188.1270  178.3670  145.0230 C   0  0  1  0  0  3  0  0  0  0  0  0
  190.8070  176.2240  143.2200 O   0  0  0  0  0  0  0  0  0  0  0  0
  190.2280  177.0550  147.3960 C   0  0  0  0  0  2  0  0  0  0  0  0
  188.2060  177.2560  145.9960 N   0  0  1  0  0  0  0  0  0  0  0  0
  188.9430  177.8380  147.1130 C   0  0  0  0  0  2  0  0  0  0  0  0
  188.2900  177.8390  143.7380 O   0  0  0  0  0  0  0  0  0  0  0  0
  192.4660  174.7030  145.7760 O   0  0  0  0  0  0  0  0  0  0  0  0
  192.7790  175.8900  147.7120 O   0  0  0  0  0  1  0  0  0  0  0  0
  192.0810  175.6290  146.5370 C   0  0  0  0  0  0  0  0  0  0  0  0
  1  4  1  6  0  0  0
  1  9  1  0  0  0  0
  3 11  1  0  0  0  0
  3 38  1  1  0  0  0
  4  8  1  0  0  0  0
  5 10  1  0  0  0  0
  6  2  1  6  0  0  0
  6  5  1  0  0  0  0
  7 12  2  0  0  0  0
  8  3  1  0  0  0  0
  9 11  1  1  0  0  0
  9 10  1  0  0  0  0
 12  2  1  0  0  0  0
 12  1  1  0  0  0  0
 13 33  1  6  0  0  0
 13 16  1  0  0  0  0
 14 16  1  6  0  0  0
 14  6  1  0  0  0  0
 17 25  1  0  0  0  0
 18 17  1  0  0  0  0
 18 21  1  0  0  0  0
 19 23  1  0  0  0  0
 19 14  1  0  0  0  0
 20 23  1  0  0  0  0
 21 27  1  0  0  0  0
 23 15  2  0  0  0  0
 24 22  1  1  0  0  0
 24 13  1  0  0  0  0
 24 19  1  0  0  0  0
 25 30  1  1  0  0  0
 25 28  1  0  0  0  0
 27 26  2  0  0  0  0
 27 22  1  0  0  0  0
 28 20  1  0  0  0  0
 29 30  2  0  0  0  0
 30 31  1  0  0  0  0
 31 32  1  0  0  0  0
 34 35  1  0  0  0  0
 34 33  1  0  0  0  0
 35 36  1  0  0  0  0
 37 36  1  0  0  0  0
 40 44  1  0  0  0  0
 41 42  1  6  0  0  0
 41 49  1  0  0  0  0
 41 39  1  0  0  0  0
 43 38  1  6  0  0  0
 43 51  1  0  0  0  0
 43 40  1  0  0  0  0
 44 45  1  0  0  0  0
 45 54  1  1  0  0  0
 45 48  1  0  0  0  0
 46 51  1  6  0  0  0
 46 41  1  0  0  0  0
 46 49  1  0  0  0  0
 47 40  2  0  0  0  0
 49 50  1  1  0  0  0
 50 48  1  0  0  0  0
 52 54  2  0  0  0  0
 54 53  1  0  0  0  0
M  END
>  <MODEL>
6

>  <REMARK>
 VINA RESULT:      -6.1      2.481      5.118
  Name = 
  10 active torsions:
  status: ('A' for Active; 'I' for Inactive)
    1  A    between atoms: C_2  and  C_33
    2  A    between atoms: C_4  and  C_13
    3  A    between atoms: C_4  and  C_17
    4  A    between atoms: C_11  and  C_20
    5  A    between atoms: C_11  and  C_46
    6  A    between atoms: C_12  and  C_34
    7  A    between atoms: O_19  and  C_25
    8  A    between atoms: C_25  and  C_40
    9  A    between atoms: C_26  and  C_35
   10  A    between atoms: C_33  and  C_46
                            x       y       z     vdW  Elec       q    Type
                         _______ _______ _______ _____ _____    ______ ____

>  <TORSDO>
F 10

$$$$
=
 OpenBabel10222419433D

 54 59  0  0  1  0  0  0  0  0999 V2000
  189.2030  175.3790  137.0330 C   0  0  2  0  0  3  0  0  0  0  0  0
  186.9280  176.4730  137.4690 C   0  0  0  0  0  2  0  0  0  0  0  0
  191.3670  173.7030  135.9710 C   0  0  2  0  0  3  0  0  0  0  0  0
  190.6720  175.6640  137.3550 C   0  0  0  0  0  2  0  0  0  0  0  0
  186.7410  175.4500  135.0910 C   0  0  0  0  0  2  0  0  0  0  0  0
  186.0050  175.9890  136.3330 C   0  0  2  0  0  3  0  0  0  0  0  0
  188.7580  177.7540  136.4830 C   0  0  0  0  0  2  0  0  0  0  0  0
  191.4780  174.3740  137.3380 C   0  0  0  0  0  2  0  0  0  0  0  0
  189.0500  174.6480  135.6860 C   0  0  2  0  0  3  0  0  0  0  0  0
  187.6020  174.2390  135.4270 C   0  0  0  0  0  2  0  0  0  0  0  0
  189.9050  173.3820  135.6750 C   0  0  0  0  0  2  0  0  0  0  0  0
  188.3690  176.6300  137.0930 C   0  0  0  0  0  0  0  0  0  0  0  0
  182.7600  176.2750  135.9120 C   0  0  2  0  0  3  0  0  0  0  0  0
  184.9700  177.0730  135.9670 C   0  0  1  0  0  3  0  0  0  0  0  0
  185.8730  179.0140  138.0130 O   0  0  0  0  0  0  0  0  0  0  0  0
  183.9450  176.5130  135.0830 N   0  0  0  0  0  2  0  0  0  0  0  0
  182.0240  178.3970  141.4570 C   0  0  0  0  0  2  0  0  0  0  0  0
  181.0020  179.0870  140.5660 C   0  0  0  0  0  2  0  0  0  0  0  0
  184.2710  177.5470  137.1550 N   0  0  0  0  0  0  0  0  0  0  0  0
  184.4290  178.0440  139.6430 C   0  0  0  0  0  2  0  0  0  0  0  0
  181.0480  178.5140  139.2300 N   0  0  0  0  0  2  0  0  0  0  0  0
  181.9840  178.3860  136.8880 C   0  0  0  0  0  2  0  0  0  0  0  0
  184.8950  178.2520  138.2390 C   0  0  0  0  0  0  0  0  0  0  0  0
  182.8720  177.1660  137.1300 C   0  0  1  0  0  3  0  0  0  0  0  0
  183.3050  179.2170  141.6050 C   0  0  2  0  0  3  0  0  0  0  0  0
  182.1210  180.3370  138.2380 O   0  0  0  0  0  0  0  0  0  0  0  0
  181.7280  179.1430  138.1440 C   0  0  0  0  0  0  0  0  0  0  0  0
  184.0900  179.3780  140.3010 C   0  0  0  0  0  2  0  0  0  0  0  0
  184.6920  177.5370  142.6020 O   0  0  0  0  0  0  0  0  0  0  0  0
  184.1670  178.6810  142.7040 C   0  0  0  0  0  0  0  0  0  0  0  0
  184.3910  179.4670  143.8330 O   0  0  0  0  0  0  0  0  0  0  0  0
  184.6680  178.8960  145.1020 C   0  0  0  0  0  1  0  0  0  0  0  0
  182.7140  174.8160  136.3530 C   0  0  0  0  0  2  0  0  0  0  0  0
  183.2660  173.9030  135.2690 C   0  0  0  0  0  2  0  0  0  0  0  0
  184.2600  172.9190  135.8640 C   0  0  0  0  0  2  0  0  0  0  0  0
  183.5370  171.7240  136.4580 C   0  0  0  0  0  2  0  0  0  0  0  0
  182.9800  170.8400  135.3570 C   0  0  0  0  0  1  0  0  0  0  0  0
  192.1700  172.4140  135.9720 C   0  0  0  0  0  2  0  0  0  0  0  0
  197.2020  170.1930  137.9900 O   0  0  0  0  0  1  0  0  0  0  0  0
  194.1680  173.9060  135.7740 C   0  0  0  0  0  0  0  0  0  0  0  0
  196.4780  170.5870  136.8600 C   0  0  1  0  0  0  0  0  0  0  0  0
  196.4480  169.6430  135.6680 C   0  0  0  0  0  1  0  0  0  0  0  0
  193.6150  172.6520  136.3980 C   0  0  2  0  0  3  0  0  0  0  0  0
  195.0520  174.7980  136.5890 C   0  0  0  0  0  2  0  0  0  0  0  0
  196.4660  174.7740  136.0220 C   0  0  2  0  0  3  0  0  0  0  0  0
  195.4060  171.5510  137.0780 C   0  0  1  0  0  3  0  0  0  0  0  0
  193.9680  174.1550  134.5940 O   0  0  0  0  0  0  0  0  0  0  0  0
  197.5100  174.2600  137.0220 C   0  0  0  0  0  2  0  0  0  0  0  0
  196.6800  172.0020  136.4750 N   0  0  1  0  0  0  0  0  0  0  0  0
  197.2720  172.8310  137.5190 C   0  0  0  0  0  2  0  0  0  0  0  0
  194.4240  171.5500  136.0820 O   0  0  0  0  0  0  0  0  0  0  0  0
  196.0350  177.0850  135.6400 O   0  0  0  0  0  1  0  0  0  0  0  0
  198.0870  176.3430  134.9350 O   0  0  0  0  0  0  0  0  0  0  0  0
  196.8400  176.1250  135.5140 C   0  0  0  0  0  0  0  0  0  0  0  0
  1 12  1  0  0  0  0
  1  4  1  6  0  0  0
  3 38  1  1  0  0  0
  3  8  1  0  0  0  0
  5 10  1  0  0  0  0
  6  5  1  6  0  0  0
  6  2  1  0  0  0  0
  7 12  2  0  0  0  0
  8  4  1  0  0  0  0
  9 10  1  1  0  0  0
  9  1  1  0  0  0  0
 11  9  1  0  0  0  0
 11  3  1  0  0  0  0
 12  2  1  0  0  0  0
 13 33  1  1  0  0  0
 13 24  1  0  0  0  0
 14 16  1  6  0  0  0
 14  6  1  0  0  0  0
 14 19  1  0  0  0  0
 15 23  2  0  0  0  0
 16 13  1  0  0  0  0
 17 25  1  0  0  0  0
 18 17  1  0  0  0  0
 19 23  1  0  0  0  0
 20 28  1  0  0  0  0
 21 18  1  0  0  0  0
 22 27  1  0  0  0  0
 23 20  1  0  0  0  0
 24 22  1  6  0  0  0
 24 19  1  0  0  0  0
 25 30  1  1  0  0  0
 27 26  2  0  0  0  0
 27 21  1  0  0  0  0
 28 25  1  0  0  0  0
 29 30  2  0  0  0  0
 30 31  1  0  0  0  0
 31 32  1  0  0  0  0
 34 35  1  0  0  0  0
 34 33  1  0  0  0  0
 35 36  1  0  0  0  0
 37 36  1  0  0  0  0
 40 43  1  0  0  0  0
 40 44  1  0  0  0  0
 41 42  1  6  0  0  0
 41 46  1  0  0  0  0
 41 39  1  0  0  0  0
 43 38  1  6  0  0  0
 45 54  1  1  0  0  0
 45 44  1  0  0  0  0
 45 48  1  0  0  0  0
 46 51  1  6  0  0  0
 47 40  2  0  0  0  0
 48 50  1  0  0  0  0
 49 41  1  0  0  0  0
 49 46  1  0  0  0  0
 49 50  1  1  0  0  0
 51 43  1  0  0  0  0
 53 54  2  0  0  0  0
 54 52  1  0  0  0  0
M  END
>  <MODEL>
7

>  <REMARK>
 VINA RESULT:      -5.8      4.965      7.234
  Name = 
  10 active torsions:
  status: ('A' for Active; 'I' for Inactive)
    1  A    between atoms: C_2  and  C_33
    2  A    between atoms: C_4  and  C_13
    3  A    between atoms: C_4  and  C_17
    4  A    between atoms: C_11  and  C_20
    5  A    between atoms: C_11  and  C_46
    6  A    between atoms: C_12  and  C_34
    7  A    between atoms: O_19  and  C_25
    8  A    between atoms: C_25  and  C_40
    9  A    between atoms: C_26  and  C_35
   10  A    between atoms: C_33  and  C_46
                            x       y       z     vdW  Elec       q    Type
                         _______ _______ _______ _____ _____    ______ ____

>  <TORSDO>
F 10

$$$$
=
 OpenBabel10222419433D

 54 59  0  0  1  0  0  0  0  0999 V2000
  190.3350  176.2170  137.4120 C   0  0  2  0  0  3  0  0  0  0  0  0
  187.9840  177.2310  137.4650 C   0  0  0  0  0  2  0  0  0  0  0  0
  192.6090  174.3850  137.0990 C   0  0  2  0  0  3  0  0  0  0  0  0
  191.7820  176.7190  137.4310 C   0  0  0  0  0  2  0  0  0  0  0  0
  187.7980  175.1750  135.8920 C   0  0  0  0  0  2  0  0  0  0  0  0
  187.0660  176.1970  136.7830 C   0  0  2  0  0  3  0  0  0  0  0  0
  189.6330  177.9920  135.8330 C   0  0  0  0  0  2  0  0  0  0  0  0
  192.7110  175.6380  137.9640 C   0  0  0  0  0  2  0  0  0  0  0  0
  190.1990  174.9170  136.5970 C   0  0  2  0  0  3  0  0  0  0  0  0
  188.7880  174.3380  136.6910 C   0  0  0  0  0  2  0  0  0  0  0  0
  191.1740  173.8630  137.1200 C   0  0  0  0  0  2  0  0  0  0  0  0
  189.3840  177.2810  136.9370 C   0  0  0  0  0  0  0  0  0  0  0  0
  184.0880  175.4820  135.5950 C   0  0  2  0  0  3  0  0  0  0  0  0
  185.9130  176.8970  136.0340 C   0  0  1  0  0  3  0  0  0  0  0  0
  185.7010  179.1700  137.9200 O   0  0  0  0  0  0  0  0  0  0  0  0
  185.3410  175.9930  135.0330 N   0  0  0  0  0  2  0  0  0  0  0  0
  181.3940  177.7160  140.4460 C   0  0  0  0  0  2  0  0  0  0  0  0
  180.4940  178.0040  139.2530 C   0  0  0  0  0  2  0  0  0  0  0  0
  184.8280  177.2340  136.9470 N   0  0  0  0  0  0  0  0  0  0  0  0
  184.1930  177.9470  139.3030 C   0  0  0  0  0  2  0  0  0  0  0  0
  181.0380  177.3670  138.0640 N   0  0  0  0  0  2  0  0  0  0  0  0
  182.5520  177.3390  136.0430 C   0  0  0  0  0  2  0  0  0  0  0  0
  184.9370  178.1740  138.0270 C   0  0  0  0  0  0  0  0  0  0  0  0
  183.6380  176.4580  136.6600 C   0  0  1  0  0  3  0  0  0  0  0  0
  182.3260  178.8860  140.7600 C   0  0  2  0  0  3  0  0  0  0  0  0
  181.8090  179.3430  137.0830 O   0  0  0  0  0  0  0  0  0  0  0  0
  181.7860  178.0830  137.0810 C   0  0  0  0  0  0  0  0  0  0  0  0
  183.3520  179.1690  139.6600 C   0  0  0  0  0  2  0  0  0  0  0  0
  182.3020  178.3590  143.0980 O   0  0  0  0  0  0  0  0  0  0  0  0
  182.9810  178.7140  142.0930 C   0  0  0  0  0  0  0  0  0  0  0  0
  184.3530  178.9360  142.2080 O   0  0  0  0  0  0  0  0  0  0  0  0
  184.9760  179.1500  143.4640 C   0  0  0  0  0  1  0  0  0  0  0  0
  184.3180  174.1130  136.2260 C   0  0  0  0  0  2  0  0  0  0  0  0
  183.0180  173.5360  136.7640 C   0  0  0  0  0  2  0  0  0  0  0  0
  183.2050  172.0770  137.1440 C   0  0  0  0  0  2  0  0  0  0  0  0
  182.7660  171.1700  136.0090 C   0  0  0  0  0  2  0  0  0  0  0  0
  183.5170  169.8520  136.0630 C   0  0  0  0  0  1  0  0  0  0  0  0
  193.5350  173.3130  137.6480 C   0  0  0  0  0  2  0  0  0  0  0  0
  198.1930  175.1350  134.5960 O   0  0  0  0  0  1  0  0  0  0  0  0
  195.3810  174.3310  138.9950 C   0  0  0  0  0  0  0  0  0  0  0  0
  197.0830  175.5150  135.3580 C   0  0  1  0  0  0  0  0  0  0  0  0
  196.1970  176.6270  134.8180 C   0  0  0  0  0  1  0  0  0  0  0  0
  194.9880  173.7760  137.6510 C   0  0  2  0  0  3  0  0  0  0  0  0
  196.7410  174.0250  139.5410 C   0  0  0  0  0  2  0  0  0  0  0  0
  197.5700  175.3030  139.5940 C   0  0  2  0  0  3  0  0  0  0  0  0
  196.5550  174.5180  136.2810 C   0  0  1  0  0  3  0  0  0  0  0  0
  194.6340  175.0880  139.5990 O   0  0  0  0  0  0  0  0  0  0  0  0
  198.8400  175.2370  138.7360 C   0  0  0  0  0  2  0  0  0  0  0  0
  197.3590  175.6440  136.8060 N   0  0  1  0  0  0  0  0  0  0  0  0
  198.5930  175.0020  137.2430 C   0  0  0  0  0  2  0  0  0  0  0  0
  195.2200  174.7240  136.6430 O   0  0  0  0  0  0  0  0  0  0  0  0
  198.7300  174.9340  141.6420 O   0  0  0  0  0  1  0  0  0  0  0  0
  197.3370  176.7560  141.6210 O   0  0  0  0  0  0  0  0  0  0  0  0
  197.9030  175.6430  141.0080 C   0  0  0  0  0  0  0  0  0  0  0  0
  1  4  1  6  0  0  0
  3 11  1  0  0  0  0
  3 38  1  1  0  0  0
  3  8  1  0  0  0  0
  4  8  1  0  0  0  0
  5 10  1  0  0  0  0
  6  5  1  6  0  0  0
  6  2  1  0  0  0  0
  7 12  2  0  0  0  0
  9 10  1  1  0  0  0
  9 11  1  0  0  0  0
  9  1  1  0  0  0  0
 12  1  1  0  0  0  0
 12  2  1  0  0  0  0
 13 33  1  1  0  0  0
 13 24  1  0  0  0  0
 14 16  1  6  0  0  0
 14  6  1  0  0  0  0
 14 19  1  0  0  0  0
 15 23  2  0  0  0  0
 16 13  1  0  0  0  0
 17 25  1  0  0  0  0
 18 17  1  0  0  0  0
 19 23  1  0  0  0  0
 20 28  1  0  0  0  0
 21 18  1  0  0  0  0
 22 27  1  0  0  0  0
 23 20  1  0  0  0  0
 24 22  1  6  0  0  0
 24 19  1  0  0  0  0
 25 30  1  1  0  0  0
 27 26  2  0  0  0  0
 27 21  1  0  0  0  0
 28 25  1  0  0  0  0
 30 31  1  0  0  0  0
 30 29  2  0  0  0  0
 31 32  1  0  0  0  0
 33 34  1  0  0  0  0
 34 35  1  0  0  0  0
 36 37  1  0  0  0  0
 36 35  1  0  0  0  0
 39 41  1  0  0  0  0
 40 44  1  0  0  0  0
 40 47  2  0  0  0  0
 41 42  1  6  0  0  0
 41 46  1  0  0  0  0
 41 49  1  0  0  0  0
 43 38  1  1  0  0  0
 43 40  1  0  0  0  0
 44 45  1  0  0  0  0
 45 54  1  1  0  0  0
 46 51  1  1  0  0  0
 46 49  1  0  0  0  0
 48 45  1  0  0  0  0
 49 50  1  6  0  0  0
 50 48  1  0  0  0  0
 51 43  1  0  0  0  0
 54 53  2  0  0  0  0
 54 52  1  0  0  0  0
M  END
>  <MODEL>
8

>  <REMARK>
 VINA RESULT:      -5.4      4.477      6.326
  Name = 
  10 active torsions:
  status: ('A' for Active; 'I' for Inactive)
    1  A    between atoms: C_2  and  C_33
    2  A    between atoms: C_4  and  C_13
    3  A    between atoms: C_4  and  C_17
    4  A    between atoms: C_11  and  C_20
    5  A    between atoms: C_11  and  C_46
    6  A    between atoms: C_12  and  C_34
    7  A    between atoms: O_19  and  C_25
    8  A    between atoms: C_25  and  C_40
    9  A    between atoms: C_26  and  C_35
   10  A    between atoms: C_33  and  C_46
                            x       y       z     vdW  Elec       q    Type
                         _______ _______ _______ _____ _____    ______ ____

>  <TORSDO>
F 10

$$$$
=
 OpenBabel10222419433D

 54 59  0  0  1  0  0  0  0  0999 V2000
  188.5380  176.7170  137.7410 C   0  0  2  0  0  3  0  0  0  0  0  0
  186.0320  176.3470  137.3610 C   0  0  0  0  0  2  0  0  0  0  0  0
  191.4530  176.3820  137.8390 C   0  0  2  0  0  3  0  0  0  0  0  0
  189.4720  177.8920  138.0410 C   0  0  0  0  0  2  0  0  0  0  0  0
  187.2110  174.6860  135.7530 C   0  0  0  0  0  2  0  0  0  0  0  0
  185.9210  175.0710  136.5040 C   0  0  2  0  0  3  0  0  0  0  0  0
  187.2500  178.0330  136.0830 C   0  0  0  0  0  2  0  0  0  0  0  0
  190.7390  177.4000  138.7250 C   0  0  0  0  0  2  0  0  0  0  0  0
  189.2400  175.6360  136.8970 C   0  0  2  0  0  3  0  0  0  0  0  0
  188.3580  174.4030  136.7140 C   0  0  0  0  0  2  0  0  0  0  0  0
  190.5320  175.1930  137.5800 C   0  0  0  0  0  2  0  0  0  0  0  0
  187.2520  177.1770  137.1100 C   0  0  0  0  0  0  0  0  0  0  0  0
  183.2950  173.2710  135.6930 C   0  0  2  0  0  3  0  0  0  0  0  0
  184.7040  175.1480  135.5590 C   0  0  1  0  0  3  0  0  0  0  0  0
  183.8200  177.8240  136.4710 O   0  0  0  0  0  0  0  0  0  0  0  0
  184.4380  173.8340  134.9690 N   0  0  0  0  0  2  0  0  0  0  0  0
  179.7710  176.3770  139.3970 C   0  0  0  0  0  2  0  0  0  0  0  0
  178.9310  175.9860  138.1910 C   0  0  0  0  0  2  0  0  0  0  0  0
  183.4990  175.5170  136.2920 N   0  0  0  0  0  0  0  0  0  0  0  0
  182.5260  176.8550  138.2230 C   0  0  0  0  0  2  0  0  0  0  0  0
  179.7020  175.1160  137.3170 N   0  0  0  0  0  2  0  0  0  0  0  0
  181.3420  174.7300  135.4350 C   0  0  0  0  0  2  0  0  0  0  0  0
  183.3000  176.7800  136.9460 C   0  0  0  0  0  0  0  0  0  0  0  0
  182.5470  174.4250  136.3250 C   0  0  1  0  0  3  0  0  0  0  0  0
  180.3810  177.7710  139.2460 C   0  0  2  0  0  3  0  0  0  0  0  0
  180.0750  176.7280  135.6660 O   0  0  0  0  0  0  0  0  0  0  0  0
  180.3430  175.5870  136.1310 C   0  0  0  0  0  0  0  0  0  0  0  0
  181.4010  177.8780  138.1090 C   0  0  0  0  0  2  0  0  0  0  0  0
  181.8790  179.1100  140.5520 O   0  0  0  0  0  0  0  0  0  0  0  0
  180.9460  178.2580  140.5420 C   0  0  0  0  0  0  0  0  0  0  0  0
  180.4200  177.7680  141.7360 O   0  0  0  0  0  0  0  0  0  0  0  0
  180.4560  178.5230  142.9370 C   0  0  0  0  0  1  0  0  0  0  0  0
  183.7810  172.3230  136.7830 C   0  0  0  0  0  2  0  0  0  0  0  0
  182.7090  171.3040  137.1380 C   0  0  0  0  0  2  0  0  0  0  0  0
  181.8140  171.0420  135.9390 C   0  0  0  0  0  2  0  0  0  0  0  0
  180.3750  171.4050  136.2570 C   0  0  0  0  0  2  0  0  0  0  0  0
  180.2200  171.7080  137.7360 C   0  0  0  0  0  1  0  0  0  0  0  0
  192.7110  175.8950  138.5380 C   0  0  0  0  0  2  0  0  0  0  0  0
  192.4390  170.8800  135.5210 O   0  0  0  0  0  1  0  0  0  0  0  0
  194.6940  175.3880  137.1010 C   0  0  0  0  0  0  0  0  0  0  0  0
  192.4270  172.2780  135.4540 C   0  0  1  0  0  0  0  0  0  0  0  0
  191.3570  172.9400  134.6010 C   0  0  0  0  0  1  0  0  0  0  0  0
  193.4350  174.8350  137.7160 C   0  0  2  0  0  3  0  0  0  0  0  0
  195.9200  174.5300  137.0540 C   0  0  0  0  0  2  0  0  0  0  0  0
  196.2450  174.1820  135.6070 C   0  0  2  0  0  3  0  0  0  0  0  0
  193.0410  172.9880  136.5700 C   0  0  1  0  0  3  0  0  0  0  0  0
  194.6980  176.4910  136.5740 O   0  0  0  0  0  0  0  0  0  0  0  0
  196.2230  172.6730  135.3270 C   0  0  0  0  0  2  0  0  0  0  0  0
  193.7650  172.8860  135.2830 N   0  0  1  0  0  0  0  0  0  0  0  0
  194.8770  171.9930  135.5920 C   0  0  0  0  0  2  0  0  0  0  0  0
  192.5980  174.3060  136.7230 O   0  0  0  0  0  0  0  0  0  0  0  0
  198.4420  174.0400  134.6960 O   0  0  0  0  0  0  0  0  0  0  0  0
  197.8040  176.1300  135.3900 O   0  0  0  0  0  1  0  0  0  0  0  0
  197.5590  174.7720  135.2170 C   0  0  0  0  0  0  0  0  0  0  0  0
  1  4  1  6  0  0  0
  3 38  1  1  0  0  0
  3  8  1  0  0  0  0
  4  8  1  0  0  0  0
  5 10  1  0  0  0  0
  6  5  1  6  0  0  0
  6  2  1  0  0  0  0
  7 12  2  0  0  0  0
  9 10  1  1  0  0  0
  9 11  1  0  0  0  0
  9  1  1  0  0  0  0
 11  3  1  0  0  0  0
 12  2  1  0  0  0  0
 12  1  1  0  0  0  0
 13 24  1  0  0  0  0
 13 33  1  1  0  0  0
 14 16  1  1  0  0  0
 14 19  1  0  0  0  0
 14  6  1  0  0  0  0
 15 23  2  0  0  0  0
 16 13  1  0  0  0  0
 18 17  1  0  0  0  0
 19 24  1  0  0  0  0
 19 23  1  0  0  0  0
 21 18  1  0  0  0  0
 22 27  1  0  0  0  0
 23 20  1  0  0  0  0
 24 22  1  6  0  0  0
 25 17  1  0  0  0  0
 25 30  1  1  0  0  0
 26 27  2  0  0  0  0
 27 21  1  0  0  0  0
 28 20  1  0  0  0  0
 28 25  1  0  0  0  0
 30 29  2  0  0  0  0
 30 31  1  0  0  0  0
 31 32  1  0  0  0  0
 33 34  1  0  0  0  0
 35 36  1  0  0  0  0
 35 34  1  0  0  0  0
 36 37  1  0  0  0  0
 40 43  1  0  0  0  0
 41 42  1  6  0  0  0
 41 39  1  0  0  0  0
 41 46  1  0  0  0  0
 43 38  1  6  0  0  0
 44 40  1  0  0  0  0
 45 54  1  1  0  0  0
 45 44  1  0  0  0  0
 46 51  1  6  0  0  0
 47 40  2  0  0  0  0
 48 50  1  0  0  0  0
 48 45  1  0  0  0  0
 49 41  1  0  0  0  0
 49 50  1  1  0  0  0
 49 46  1  0  0  0  0
 51 43  1  0  0  0  0
 52 54  2  0  0  0  0
 54 53  1  0  0  0  0
M  END
>  <MODEL>
9

>  <REMARK>
 VINA RESULT:      -5.4      4.409      6.531
  Name = 
  10 active torsions:
  status: ('A' for Active; 'I' for Inactive)
    1  A    between atoms: C_2  and  C_33
    2  A    between atoms: C_4  and  C_13
    3  A    between atoms: C_4  and  C_17
    4  A    between atoms: C_11  and  C_20
    5  A    between atoms: C_11  and  C_46
    6  A    between atoms: C_12  and  C_34
    7  A    between atoms: O_19  and  C_25
    8  A    between atoms: C_25  and  C_40
    9  A    between atoms: C_26  and  C_35
   10  A    between atoms: C_33  and  C_46
                            x       y       z     vdW  Elec       q    Type
                         _______ _______ _______ _____ _____    ______ ____

>  <TORSDO>
F 10

$$$$
