=
 OpenBabel10222417093D

 25 26  0  0  1  0  0  0  0  0999 V2000
  188.6450  177.4410  142.3810 C   0  0  0  0  0  0  0  0  0  0  0  0
  187.4340  177.6750  142.8320 C   0  0  0  0  0  0  0  0  0  0  0  0
  186.2330  177.9130  143.2800 C   0  0  0  0  0  3  0  0  0  0  0  0
  191.5900  177.1950  145.6230 C   0  0  0  0  0  0  0  0  0  0  0  0
  191.6920  176.9190  146.8470 O   0  0  0  0  0  0  0  0  0  0  0  0
  191.3510  176.0960  144.6580 C   0  0  0  0  0  0  0  0  0  0  0  0
  190.7820  178.6250  142.9990 C   0  0  0  0  0  3  0  0  0  0  0  0
  192.0060  174.7770  144.9220 C   0  0  0  0  0  1  0  0  0  0  0  0
  190.5510  175.2400  142.6050 O   0  0  0  0  0  1  0  0  0  0  0  0
  190.5950  176.2520  143.5630 C   0  0  0  0  0  0  0  0  0  0  0  0
  191.8220  178.5500  145.2030 N   0  0  0  0  0  2  0  0  0  0  0  0
  191.6650  179.0900  143.8820 C   0  0  0  0  0  3  0  0  0  0  0  0
  189.8230  177.5320  143.3460 C   0  0  2  0  0  3  0  0  0  0  0  0
  189.4190  177.7330  136.7230 N   0  0  0  0  0  1  0  0  0  0  0  0
  187.9380  178.2100  140.1020 C   0  0  0  0  0  3  0  0  0  0  0  0
  188.8430  177.5020  140.9100 C   0  0  0  0  0  0  0  0  0  0  0  0
  189.2260  177.6570  138.1290 C   0  0  0  0  0  0  0  0  0  0  0  0
  188.1270  178.2850  138.7190 C   0  0  0  0  0  3  0  0  0  0  0  0
  189.9490  176.8810  140.3050 C   0  0  0  0  0  3  0  0  0  0  0  0
  190.1390  176.9560  138.9220 C   0  0  0  0  0  3  0  0  0  0  0  0
  186.0520  178.6510  144.5600 C   0  0  0  0  0  2  0  0  0  0  0  0
  187.5740  177.7000  146.2540 C   0  0  0  0  0  1  0  0  0  0  0  0
  186.1490  177.7010  145.7430 C   0  0  1  0  0  3  0  0  0  0  0  0
  185.2250  178.1440  146.8670 C   0  0  0  0  0  2  0  0  0  0  0  0
  184.1540  178.8750  146.3530 O   0  0  0  0  0  1  0  0  0  0  0  0
  1  2  2  0  0  0  0
  2  3  2  0  0  0  0
  3 21  1  0  0  0  0
  4  5  2  0  0  0  0
  6  8  1  0  0  0  0
  6  4  1  0  0  0  0
  7 13  1  0  0  0  0
  7 12  2  0  0  0  0
  9 10  1  0  0  0  0
 10  6  2  0  0  0  0
 11  4  1  0  0  0  0
 12 11  1  0  0  0  0
 13  1  1  6  0  0  0
 13 10  1  0  0  0  0
 14 17  1  0  0  0  0
 15 16  1  0  0  0  0
 16  1  1  0  0  0  0
 17 18  1  0  0  0  0
 17 20  2  0  0  0  0
 18 15  2  0  0  0  0
 19 16  2  0  0  0  0
 20 19  1  0  0  0  0
 21 23  1  0  0  0  0
 23 22  1  1  0  0  0
 23 24  1  0  0  0  0
 25 24  1  0  0  0  0
M  END
>  <MODEL>
1

>  <REMARK>
 VINA RESULT:      -7.7      0.000      0.000
  Name = 
  5 active torsions:
  status: ('A' for Active; 'I' for Inactive)
    1  A    between atoms: C_3  and  C_8
    2  A    between atoms: C_3  and  C_24
    3  A    between atoms: C_9  and  C_14
    4  A    between atoms: C_10  and  C_12
    5  A    between atoms: C_10  and  C_14
                            x       y       z     vdW  Elec       q    Type
                         _______ _______ _______ _____ _____    ______ ____

>  <TORSDO>
F 5

$$$$
=
 OpenBabel10222417093D

 25 26  0  0  1  0  0  0  0  0999 V2000
  186.0530  177.8290  143.9140 C   0  0  0  0  0  0  0  0  0  0  0  0
  186.2110  177.7920  145.2170 C   0  0  0  0  0  0  0  0  0  0  0  0
  186.3690  177.7600  146.5100 C   0  0  0  0  0  3  0  0  0  0  0  0
  190.0250  177.8860  142.0530 C   0  0  0  0  0  0  0  0  0  0  0  0
  191.2250  178.1810  142.2930 O   0  0  0  0  0  0  0  0  0  0  0  0
  189.4440  176.6800  142.6870 C   0  0  0  0  0  0  0  0  0  0  0  0
  186.9760  178.1600  141.5920 C   0  0  0  0  0  3  0  0  0  0  0  0
  190.3280  175.4880  142.8680 C   0  0  0  0  0  1  0  0  0  0  0  0
  187.6280  175.4040  143.5020 O   0  0  0  0  0  1  0  0  0  0  0  0
  188.1620  176.6190  143.0770 C   0  0  0  0  0  0  0  0  0  0  0  0
  189.3060  178.6700  141.0860 N   0  0  0  0  0  2  0  0  0  0  0  0
  187.9170  178.5620  140.7380 C   0  0  0  0  0  3  0  0  0  0  0  0
  187.2890  177.8510  143.0210 C   0  0  2  0  0  3  0  0  0  0  0  0
  180.9200  179.3990  141.9420 N   0  0  0  0  0  1  0  0  0  0  0  0
  184.3950  178.0750  142.0500 C   0  0  0  0  0  3  0  0  0  0  0  0
  184.7230  178.2510  143.4040 C   0  0  0  0  0  0  0  0  0  0  0  0
  182.1970  179.0120  142.4340 C   0  0  0  0  0  0  0  0  0  0  0  0
  183.1400  178.4560  141.5660 C   0  0  0  0  0  3  0  0  0  0  0  0
  183.7630  178.8050  144.2680 C   0  0  0  0  0  3  0  0  0  0  0  0
  182.5070  179.1850  143.7850 C   0  0  0  0  0  3  0  0  0  0  0  0
  187.6740  178.1550  147.1070 C   0  0  0  0  0  2  0  0  0  0  0  0
  189.7770  178.2560  145.8210 C   0  0  0  0  0  1  0  0  0  0  0  0
  188.8040  177.3280  146.5160 C   0  0  1  0  0  3  0  0  0  0  0  0
  189.5440  176.5680  147.6070 C   0  0  0  0  0  2  0  0  0  0  0  0
  190.9190  176.6040  147.3730 O   0  0  0  0  0  1  0  0  0  0  0  0
  1  2  2  0  0  0  0
  2  3  2  0  0  0  0
  3 21  1  0  0  0  0
  4  5  2  0  0  0  0
  4  6  1  0  0  0  0
  6  8  1  0  0  0  0
  6 10  2  0  0  0  0
  7 13  1  0  0  0  0
 10  9  1  0  0  0  0
 11  4  1  0  0  0  0
 12 11  1  0  0  0  0
 12  7  2  0  0  0  0
 13 10  1  0  0  0  0
 13  1  1  1  0  0  0
 14 17  1  0  0  0  0
 15 16  1  0  0  0  0
 16  1  1  0  0  0  0
 16 19  2  0  0  0  0
 17 20  2  0  0  0  0
 18 15  2  0  0  0  0
 18 17  1  0  0  0  0
 20 19  1  0  0  0  0
 23 22  1  1  0  0  0
 23 21  1  0  0  0  0
 23 24  1  0  0  0  0
 25 24  1  0  0  0  0
M  END
>  <MODEL>
2

>  <REMARK>
 VINA RESULT:      -7.6      2.984      5.110
  Name = 
  5 active torsions:
  status: ('A' for Active; 'I' for Inactive)
    1  A    between atoms: C_3  and  C_8
    2  A    between atoms: C_3  and  C_24
    3  A    between atoms: C_9  and  C_14
    4  A    between atoms: C_10  and  C_12
    5  A    between atoms: C_10  and  C_14
                            x       y       z     vdW  Elec       q    Type
                         _______ _______ _______ _____ _____    ______ ____

>  <TORSDO>
F 5

$$$$
=
 OpenBabel10222417093D

 25 26  0  0  1  0  0  0  0  0999 V2000
  188.0320  177.8840  140.6290 C   0  0  0  0  0  0  0  0  0  0  0  0
  186.8320  178.2820  140.9840 C   0  0  0  0  0  0  0  0  0  0  0  0
  185.6430  178.6810  141.3370 C   0  0  0  0  0  3  0  0  0  0  0  0
  190.7550  178.3750  144.0320 C   0  0  0  0  0  0  0  0  0  0  0  0
  191.0350  179.1700  144.9680 O   0  0  0  0  0  0  0  0  0  0  0  0
  189.4970  177.5970  144.1060 C   0  0  0  0  0  0  0  0  0  0  0  0
  190.3950  177.2090  141.1870 C   0  0  0  0  0  3  0  0  0  0  0  0
  189.0440  177.1230  145.4500 C   0  0  0  0  0  1  0  0  0  0  0  0
  187.7000  176.4120  143.1290 O   0  0  0  0  0  1  0  0  0  0  0  0
  188.7750  177.2920  143.0180 C   0  0  0  0  0  0  0  0  0  0  0  0
  191.7240  178.1750  142.9890 N   0  0  0  0  0  2  0  0  0  0  0  0
  191.5670  177.3930  141.7950 C   0  0  0  0  0  3  0  0  0  0  0  0
  189.1440  177.8690  141.6720 C   0  0  2  0  0  3  0  0  0  0  0  0
  189.1410  177.8010  135.0190 N   0  0  0  0  0  1  0  0  0  0  0  0
  188.0070  176.7380  138.3990 C   0  0  0  0  0  3  0  0  0  0  0  0
  188.3350  177.8620  139.1740 C   0  0  0  0  0  0  0  0  0  0  0  0
  188.8680  177.8220  136.4140 C   0  0  0  0  0  0  0  0  0  0  0  0
  188.2740  176.7160  137.0270 C   0  0  0  0  0  3  0  0  0  0  0  0
  188.9250  178.9710  138.5440 C   0  0  0  0  0  3  0  0  0  0  0  0
  189.1930  178.9500  137.1720 C   0  0  0  0  0  3  0  0  0  0  0  0
  185.4690  179.4860  142.5770 C   0  0  0  0  0  2  0  0  0  0  0  0
  185.7900  178.7130  144.8990 C   0  0  0  0  0  1  0  0  0  0  0  0
  184.8820  178.6330  143.6900 C   0  0  1  0  0  3  0  0  0  0  0  0
  183.4990  179.1330  144.0810 C   0  0  0  0  0  2  0  0  0  0  0  0
  183.3760  179.1750  145.4700 O   0  0  0  0  0  1  0  0  0  0  0  0
  1  2  2  0  0  0  0
  2  3  2  0  0  0  0
  3 21  1  0  0  0  0
  4  6  1  0  0  0  0
  4  5  2  0  0  0  0
  6  8  1  0  0  0  0
  7 13  1  0  0  0  0
  7 12  2  0  0  0  0
 10  9  1  0  0  0  0
 10  6  2  0  0  0  0
 11  4  1  0  0  0  0
 12 11  1  0  0  0  0
 13  1  1  6  0  0  0
 13 10  1  0  0  0  0
 14 17  1  0  0  0  0
 15 16  1  0  0  0  0
 16  1  1  0  0  0  0
 17 18  1  0  0  0  0
 17 20  2  0  0  0  0
 18 15  2  0  0  0  0
 19 16  2  0  0  0  0
 20 19  1  0  0  0  0
 21 23  1  0  0  0  0
 23 24  1  0  0  0  0
 23 22  1  1  0  0  0
 24 25  1  0  0  0  0
M  END
>  <MODEL>
3

>  <REMARK>
 VINA RESULT:      -7.6      1.826      2.446
  Name = 
  5 active torsions:
  status: ('A' for Active; 'I' for Inactive)
    1  A    between atoms: C_3  and  C_8
    2  A    between atoms: C_3  and  C_24
    3  A    between atoms: C_9  and  C_14
    4  A    between atoms: C_10  and  C_12
    5  A    between atoms: C_10  and  C_14
                            x       y       z     vdW  Elec       q    Type
                         _______ _______ _______ _____ _____    ______ ____

>  <TORSDO>
F 5

$$$$
=
 OpenBabel10222417093D

 25 26  0  0  1  0  0  0  0  0999 V2000
  189.2630  177.5730  143.6130 C   0  0  0  0  0  0  0  0  0  0  0  0
  187.9790  177.7290  143.8380 C   0  0  0  0  0  0  0  0  0  0  0  0
  186.7040  177.8800  144.0610 C   0  0  0  0  0  3  0  0  0  0  0  0
  189.9620  176.7160  139.3680 C   0  0  0  0  0  0  0  0  0  0  0  0
  189.6310  175.9170  138.4530 O   0  0  0  0  0  0  0  0  0  0  0  0
  188.9730  177.7120  139.8430 C   0  0  0  0  0  0  0  0  0  0  0  0
  191.1750  177.8270  141.9910 C   0  0  0  0  0  3  0  0  0  0  0  0
  188.0400  178.3070  138.8370 C   0  0  0  0  0  1  0  0  0  0  0  0
  188.0760  179.1690  141.4750 O   0  0  0  0  0  1  0  0  0  0  0  0
  188.9040  178.1040  141.1230 C   0  0  0  0  0  0  0  0  0  0  0  0
  191.3220  176.7000  139.8340 N   0  0  0  0  0  2  0  0  0  0  0  0
  191.8780  177.4550  140.9220 C   0  0  0  0  0  3  0  0  0  0  0  0
  189.7480  177.4220  142.1750 C   0  0  2  0  0  3  0  0  0  0  0  0
  192.4610  175.9100  148.0530 N   0  0  0  0  0  1  0  0  0  0  0  0
  189.7610  177.5280  146.0700 C   0  0  0  0  0  3  0  0  0  0  0  0
  190.1050  177.1490  144.7620 C   0  0  0  0  0  0  0  0  0  0  0  0
  191.6690  176.3240  146.9480 C   0  0  0  0  0  0  0  0  0  0  0  0
  190.5400  177.1200  147.1570 C   0  0  0  0  0  3  0  0  0  0  0  0
  191.2390  176.3430  144.5660 C   0  0  0  0  0  3  0  0  0  0  0  0
  192.0170  175.9340  145.6520 C   0  0  0  0  0  3  0  0  0  0  0  0
  185.7180  177.5000  143.0120 C   0  0  0  0  0  2  0  0  0  0  0  0
  184.7800  179.6000  143.9060 C   0  0  0  0  0  1  0  0  0  0  0  0
  184.4560  178.3380  143.1350 C   0  0  1  0  0  3  0  0  0  0  0  0
  183.9290  178.7250  141.7610 C   0  0  0  0  0  2  0  0  0  0  0  0
  184.9040  179.4220  141.0480 O   0  0  0  0  0  1  0  0  0  0  0  0
  1  2  2  0  0  0  0
  1 16  1  0  0  0  0
  2  3  2  0  0  0  0
  4 11  1  0  0  0  0
  4  6  1  0  0  0  0
  5  4  2  0  0  0  0
  6 10  2  0  0  0  0
  7 13  1  0  0  0  0
  8  6  1  0  0  0  0
 10  9  1  0  0  0  0
 10 13  1  0  0  0  0
 11 12  1  0  0  0  0
 12  7  2  0  0  0  0
 13  1  1  1  0  0  0
 15 18  1  0  0  0  0
 16 15  2  0  0  0  0
 17 18  2  0  0  0  0
 17 14  1  0  0  0  0
 19 16  1  0  0  0  0
 19 20  2  0  0  0  0
 20 17  1  0  0  0  0
 21 23  1  0  0  0  0
 21  3  1  0  0  0  0
 23 22  1  1  0  0  0
 24 23  1  0  0  0  0
 25 24  1  0  0  0  0
M  END
>  <MODEL>
4

>  <REMARK>
 VINA RESULT:      -7.5      2.569      5.725
  Name = 
  5 active torsions:
  status: ('A' for Active; 'I' for Inactive)
    1  A    between atoms: C_3  and  C_8
    2  A    between atoms: C_3  and  C_24
    3  A    between atoms: C_9  and  C_14
    4  A    between atoms: C_10  and  C_12
    5  A    between atoms: C_10  and  C_14
                            x       y       z     vdW  Elec       q    Type
                         _______ _______ _______ _____ _____    ______ ____

>  <TORSDO>
F 5

$$$$
=
 OpenBabel10222417093D

 25 26  0  0  1  0  0  0  0  0999 V2000
  187.8280  177.5780  142.4220 C   0  0  0  0  0  0  0  0  0  0  0  0
  186.6060  178.0590  142.4290 C   0  0  0  0  0  0  0  0  0  0  0  0
  185.3950  178.5400  142.4360 C   0  0  0  0  0  3  0  0  0  0  0  0
  190.6520  177.0530  145.7370 C   0  0  0  0  0  0  0  0  0  0  0  0
  191.6700  176.3930  146.0740 O   0  0  0  0  0  0  0  0  0  0  0  0
  190.7930  178.1140  144.7120 C   0  0  0  0  0  0  0  0  0  0  0  0
  187.7440  177.7480  144.9350 C   0  0  0  0  0  3  0  0  0  0  0  0
  192.0560  178.9140  144.7000 C   0  0  0  0  0  1  0  0  0  0  0  0
  189.9440  179.5070  143.0010 O   0  0  0  0  0  1  0  0  0  0  0  0
  189.8280  178.3860  143.8220 C   0  0  0  0  0  0  0  0  0  0  0  0
  189.4220  176.8250  146.4440 N   0  0  0  0  0  2  0  0  0  0  0  0
  188.1360  177.3970  146.1590 C   0  0  0  0  0  3  0  0  0  0  0  0
  188.6020  177.5080  143.7340 C   0  0  2  0  0  3  0  0  0  0  0  0
  190.5190  177.3870  137.3790 N   0  0  0  0  0  1  0  0  0  0  0  0
  188.0350  178.2440  140.0130 C   0  0  0  0  0  3  0  0  0  0  0  0
  188.5230  177.5140  141.1100 C   0  0  0  0  0  0  0  0  0  0  0  0
  189.8500  177.4310  138.6330 C   0  0  0  0  0  0  0  0  0  0  0  0
  188.6930  178.2000  138.7810 C   0  0  0  0  0  3  0  0  0  0  0  0
  189.6910  176.7500  140.9500 C   0  0  0  0  0  3  0  0  0  0  0  0
  190.3500  176.7070  139.7180 C   0  0  0  0  0  3  0  0  0  0  0  0
  184.9360  179.3740  143.5800 C   0  0  0  0  0  2  0  0  0  0  0  0
  184.4180  178.6670  145.8870 C   0  0  0  0  0  1  0  0  0  0  0  0
  183.9560  178.5990  144.4470 C   0  0  1  0  0  3  0  0  0  0  0  0
  182.5610  179.1970  144.3500 C   0  0  0  0  0  2  0  0  0  0  0  0
  182.0380  179.0000  143.0720 O   0  0  0  0  0  1  0  0  0  0  0  0
  1  2  2  0  0  0  0
  2  3  2  0  0  0  0
  3 21  1  0  0  0  0
  4  5  2  0  0  0  0
  4 11  1  0  0  0  0
  6  4  1  0  0  0  0
  7 12  2  0  0  0  0
  8  6  1  0  0  0  0
  9 10  1  0  0  0  0
 10  6  2  0  0  0  0
 12 11  1  0  0  0  0
 13  1  1  6  0  0  0
 13 10  1  0  0  0  0
 13  7  1  0  0  0  0
 14 17  1  0  0  0  0
 15 16  1  0  0  0  0
 16  1  1  0  0  0  0
 17 18  1  0  0  0  0
 17 20  2  0  0  0  0
 18 15  2  0  0  0  0
 19 16  2  0  0  0  0
 20 19  1  0  0  0  0
 21 23  1  0  0  0  0
 23 22  1  1  0  0  0
 24 23  1  0  0  0  0
 25 24  1  0  0  0  0
M  END
>  <MODEL>
5

>  <REMARK>
 VINA RESULT:      -7.5      1.814      2.466
  Name = 
  5 active torsions:
  status: ('A' for Active; 'I' for Inactive)
    1  A    between atoms: C_3  and  C_8
    2  A    between atoms: C_3  and  C_24
    3  A    between atoms: C_9  and  C_14
    4  A    between atoms: C_10  and  C_12
    5  A    between atoms: C_10  and  C_14
                            x       y       z     vdW  Elec       q    Type
                         _______ _______ _______ _____ _____    ______ ____

>  <TORSDO>
F 5

$$$$
=
 OpenBabel10222417093D

 25 26  0  0  1  0  0  0  0  0999 V2000
  189.6640  177.1320  141.4330 C   0  0  0  0  0  0  0  0  0  0  0  0
  188.5460  177.6830  141.0200 C   0  0  0  0  0  0  0  0  0  0  0  0
  187.4380  178.2330  140.6110 C   0  0  0  0  0  3  0  0  0  0  0  0
  189.9940  177.5490  145.7880 C   0  0  0  0  0  0  0  0  0  0  0  0
  189.9240  178.4070  146.7070 O   0  0  0  0  0  0  0  0  0  0  0  0
  188.7490  177.1270  145.1050 C   0  0  0  0  0  0  0  0  0  0  0  0
  190.9650  176.0150  143.2800 C   0  0  0  0  0  3  0  0  0  0  0  0
  187.5010  177.0260  145.9230 C   0  0  0  0  0  1  0  0  0  0  0  0
  187.5570  176.2580  143.2580 O   0  0  0  0  0  1  0  0  0  0  0  0
  188.7130  176.8160  143.8020 C   0  0  0  0  0  0  0  0  0  0  0  0
  191.2660  176.9360  145.5180 N   0  0  0  0  0  2  0  0  0  0  0  0
  191.5800  176.0140  144.4620 C   0  0  0  0  0  3  0  0  0  0  0  0
  189.9290  177.0350  142.9320 C   0  0  2  0  0  3  0  0  0  0  0  0
  193.9300  176.6250  137.6590 N   0  0  0  0  0  1  0  0  0  0  0  0
  192.0460  177.5020  140.7450 C   0  0  0  0  0  3  0  0  0  0  0  0
  190.7650  177.0100  140.4440 C   0  0  0  0  0  0  0  0  0  0  0  0
  192.8680  176.7530  138.5950 C   0  0  0  0  0  0  0  0  0  0  0  0
  193.0910  177.3770  139.8250 C   0  0  0  0  0  3  0  0  0  0  0  0
  190.5560  176.3780  139.2060 C   0  0  0  0  0  3  0  0  0  0  0  0
  191.6000  176.2520  138.2860 C   0  0  0  0  0  3  0  0  0  0  0  0
  186.6600  179.1070  141.5310 C   0  0  0  0  0  2  0  0  0  0  0  0
  185.0110  178.7660  143.3350 C   0  0  0  0  0  1  0  0  0  0  0  0
  185.3310  178.4610  141.8870 C   0  0  1  0  0  3  0  0  0  0  0  0
  184.2140  179.0090  141.0120 C   0  0  0  0  0  2  0  0  0  0  0  0
  184.7460  179.7530  139.9580 O   0  0  0  0  0  1  0  0  0  0  0  0
  2  1  2  0  0  0  0
  3  2  2  0  0  0  0
  3 21  1  0  0  0  0
  4  5  2  0  0  0  0
  6  4  1  0  0  0  0
  6  8  1  0  0  0  0
  7 12  2  0  0  0  0
  9 10  1  0  0  0  0
 10  6  2  0  0  0  0
 11  4  1  0  0  0  0
 12 11  1  0  0  0  0
 13  1  1  6  0  0  0
 13  7  1  0  0  0  0
 13 10  1  0  0  0  0
 14 17  1  0  0  0  0
 16 15  1  0  0  0  0
 16  1  1  0  0  0  0
 17 18  1  0  0  0  0
 18 15  2  0  0  0  0
 19 16  2  0  0  0  0
 20 17  2  0  0  0  0
 20 19  1  0  0  0  0
 21 23  1  0  0  0  0
 23 22  1  1  0  0  0
 24 23  1  0  0  0  0
 25 24  1  0  0  0  0
M  END
>  <MODEL>
6

>  <REMARK>
 VINA RESULT:      -7.4      2.372      3.479
  Name = 
  5 active torsions:
  status: ('A' for Active; 'I' for Inactive)
    1  A    between atoms: C_3  and  C_8
    2  A    between atoms: C_3  and  C_24
    3  A    between atoms: C_9  and  C_14
    4  A    between atoms: C_10  and  C_12
    5  A    between atoms: C_10  and  C_14
                            x       y       z     vdW  Elec       q    Type
                         _______ _______ _______ _____ _____    ______ ____

>  <TORSDO>
F 5

$$$$
=
 OpenBabel10222417093D

 25 26  0  0  1  0  0  0  0  0999 V2000
  187.2630  178.0490  144.0150 C   0  0  0  0  0  0  0  0  0  0  0  0
  187.8660  177.7820  142.8790 C   0  0  0  0  0  0  0  0  0  0  0  0
  188.4630  177.5120  141.7530 C   0  0  0  0  0  3  0  0  0  0  0  0
  189.5730  176.3580  147.3390 C   0  0  0  0  0  0  0  0  0  0  0  0
  190.1230  175.2910  147.7180 O   0  0  0  0  0  0  0  0  0  0  0  0
  190.1880  177.1280  146.2320 C   0  0  0  0  0  0  0  0  0  0  0  0
  187.3960  178.3970  146.5070 C   0  0  0  0  0  3  0  0  0  0  0  0
  191.6800  177.1620  146.1480 C   0  0  0  0  0  1  0  0  0  0  0  0
  190.0920  178.6470  144.4240 O   0  0  0  0  0  1  0  0  0  0  0  0
  189.4580  177.8010  145.3320 C   0  0  0  0  0  0  0  0  0  0  0  0
  188.4340  176.8400  148.0720 N   0  0  0  0  0  2  0  0  0  0  0  0
  187.6100  177.9730  147.7530 C   0  0  0  0  0  3  0  0  0  0  0  0
  187.9520  177.6740  145.3230 C   0  0  2  0  0  3  0  0  0  0  0  0
  181.6340  179.0320  143.7880 N   0  0  0  0  0  1  0  0  0  0  0  0
  185.1160  178.2530  142.7360 C   0  0  0  0  0  3  0  0  0  0  0  0
  185.8030  178.3190  143.9600 C   0  0  0  0  0  0  0  0  0  0  0  0
  183.0340  178.7910  143.8460 C   0  0  0  0  0  0  0  0  0  0  0  0
  183.7400  178.4910  142.6790 C   0  0  0  0  0  3  0  0  0  0  0  0
  185.0800  178.6140  145.1270 C   0  0  0  0  0  3  0  0  0  0  0  0
  183.7030  178.8510  145.0710 C   0  0  0  0  0  3  0  0  0  0  0  0
  189.5620  176.5090  141.7190 C   0  0  0  0  0  2  0  0  0  0  0  0
  189.7840  177.6580  139.5460 C   0  0  0  0  0  1  0  0  0  0  0  0
  190.4990  176.7830  140.5530 C   0  0  1  0  0  3  0  0  0  0  0  0
  191.7530  177.5030  141.0260 C   0  0  0  0  0  2  0  0  0  0  0  0
  192.0150  177.1900  142.3600 O   0  0  0  0  0  1  0  0  0  0  0  0
  2  1  2  0  0  0  0
  3  2  2  0  0  0  0
  4  5  2  0  0  0  0
  4 11  1  0  0  0  0
  6  4  1  0  0  0  0
  7 12  2  0  0  0  0
  8  6  1  0  0  0  0
  9 10  1  0  0  0  0
 10  6  2  0  0  0  0
 12 11  1  0  0  0  0
 13  1  1  6  0  0  0
 13 10  1  0  0  0  0
 13  7  1  0  0  0  0
 14 17  1  0  0  0  0
 15 16  1  0  0  0  0
 16  1  1  0  0  0  0
 16 19  2  0  0  0  0
 17 20  2  0  0  0  0
 18 15  2  0  0  0  0
 18 17  1  0  0  0  0
 20 19  1  0  0  0  0
 21  3  1  0  0  0  0
 23 22  1  6  0  0  0
 23 24  1  0  0  0  0
 23 21  1  0  0  0  0
 24 25  1  0  0  0  0
M  END
>  <MODEL>
7

>  <REMARK>
 VINA RESULT:      -7.4      3.097      5.701
  Name = 
  5 active torsions:
  status: ('A' for Active; 'I' for Inactive)
    1  A    between atoms: C_3  and  C_8
    2  A    between atoms: C_3  and  C_24
    3  A    between atoms: C_9  and  C_14
    4  A    between atoms: C_10  and  C_12
    5  A    between atoms: C_10  and  C_14
                            x       y       z     vdW  Elec       q    Type
                         _______ _______ _______ _____ _____    ______ ____

>  <TORSDO>
F 5

$$$$
=
 OpenBabel10222417093D

 25 26  0  0  1  0  0  0  0  0999 V2000
  188.8930  177.9980  141.2980 C   0  0  0  0  0  0  0  0  0  0  0  0
  187.6980  178.5350  141.3820 C   0  0  0  0  0  0  0  0  0  0  0  0
  186.5100  179.0630  141.4660 C   0  0  0  0  0  3  0  0  0  0  0  0
  189.2410  175.8930  137.4650 C   0  0  0  0  0  0  0  0  0  0  0  0
  188.5960  175.1400  136.6880 O   0  0  0  0  0  0  0  0  0  0  0  0
  188.8440  177.3160  137.5760 C   0  0  0  0  0  0  0  0  0  0  0  0
  190.7450  176.9260  139.9660 C   0  0  0  0  0  3  0  0  0  0  0  0
  188.3550  178.0060  136.3420 C   0  0  0  0  0  1  0  0  0  0  0  0
  188.7090  179.3750  138.7290 O   0  0  0  0  0  1  0  0  0  0  0  0
  188.9280  177.9990  138.7270 C   0  0  0  0  0  0  0  0  0  0  0  0
  190.4040  175.3650  138.1240 N   0  0  0  0  0  2  0  0  0  0  0  0
  191.2170  176.0190  139.1110 C   0  0  0  0  0  3  0  0  0  0  0  0
  189.2960  177.2890  140.0090 C   0  0  2  0  0  3  0  0  0  0  0  0
  191.6770  177.1240  146.2160 N   0  0  0  0  0  1  0  0  0  0  0  0
  190.8700  178.3520  142.7990 C   0  0  0  0  0  3  0  0  0  0  0  0
  189.6180  177.7560  142.5720 C   0  0  0  0  0  0  0  0  0  0  0  0
  190.9850  177.3370  144.9930 C   0  0  0  0  0  0  0  0  0  0  0  0
  191.5510  178.1420  144.0020 C   0  0  0  0  0  3  0  0  0  0  0  0
  189.0570  176.9550  143.5810 C   0  0  0  0  0  3  0  0  0  0  0  0
  189.7370  176.7450  144.7840 C   0  0  0  0  0  3  0  0  0  0  0  0
  185.4410  178.6360  140.5230 C   0  0  0  0  0  2  0  0  0  0  0  0
  183.2390  177.5240  140.5800 C   0  0  0  0  0  1  0  0  0  0  0  0
  184.0930  178.5930  141.2260 C   0  0  1  0  0  3  0  0  0  0  0  0
  184.2650  178.2600  142.7010 C   0  0  0  0  0  2  0  0  0  0  0  0
  183.4020  179.0360  143.4750 O   0  0  0  0  0  1  0  0  0  0  0  0
  1  2  2  0  0  0  0
  1 16  1  0  0  0  0
  2  3  2  0  0  0  0
  4  6  1  0  0  0  0
  4 11  1  0  0  0  0
  5  4  2  0  0  0  0
  6 10  2  0  0  0  0
  7 13  1  0  0  0  0
  8  6  1  0  0  0  0
 10  9  1  0  0  0  0
 10 13  1  0  0  0  0
 11 12  1  0  0  0  0
 12  7  2  0  0  0  0
 13  1  1  1  0  0  0
 15 18  1  0  0  0  0
 16 15  2  0  0  0  0
 16 19  1  0  0  0  0
 17 14  1  0  0  0  0
 18 17  2  0  0  0  0
 19 20  2  0  0  0  0
 20 17  1  0  0  0  0
 21 23  1  0  0  0  0
 21  3  1  0  0  0  0
 23 22  1  6  0  0  0
 23 24  1  0  0  0  0
 24 25  1  0  0  0  0
M  END
>  <MODEL>
8

>  <REMARK>
 VINA RESULT:      -7.2      2.906      6.028
  Name = 
  5 active torsions:
  status: ('A' for Active; 'I' for Inactive)
    1  A    between atoms: C_3  and  C_8
    2  A    between atoms: C_3  and  C_24
    3  A    between atoms: C_9  and  C_14
    4  A    between atoms: C_10  and  C_12
    5  A    between atoms: C_10  and  C_14
                            x       y       z     vdW  Elec       q    Type
                         _______ _______ _______ _____ _____    ______ ____

>  <TORSDO>
F 5

$$$$
=
 OpenBabel10222417093D

 25 26  0  0  1  0  0  0  0  0999 V2000
  187.2860  177.4060  143.2140 C   0  0  0  0  0  0  0  0  0  0  0  0
  187.6930  177.4930  144.4590 C   0  0  0  0  0  0  0  0  0  0  0  0
  188.0980  177.5830  145.6940 C   0  0  0  0  0  3  0  0  0  0  0  0
  189.6180  176.7870  139.5500 C   0  0  0  0  0  0  0  0  0  0  0  0
  189.5480  176.2550  138.4120 O   0  0  0  0  0  0  0  0  0  0  0  0
  188.8360  178.0170  139.8160 C   0  0  0  0  0  0  0  0  0  0  0  0
  189.7200  177.1240  142.6260 C   0  0  0  0  0  3  0  0  0  0  0  0
  188.6810  179.0030  138.7020 C   0  0  0  0  0  1  0  0  0  0  0  0
  187.7170  179.5260  141.2510 O   0  0  0  0  0  1  0  0  0  0  0  0
  188.2890  178.2770  141.0120 C   0  0  0  0  0  0  0  0  0  0  0  0
  190.5420  176.2420  140.5070 N   0  0  0  0  0  2  0  0  0  0  0  0
  190.7090  176.6360  141.8780 C   0  0  0  0  0  3  0  0  0  0  0  0
  188.3230  177.2380  142.1080 C   0  0  2  0  0  3  0  0  0  0  0  0
  181.9690  179.1640  142.0560 N   0  0  0  0  0  1  0  0  0  0  0  0
  185.4200  177.8530  141.6000 C   0  0  0  0  0  3  0  0  0  0  0  0
  185.9090  177.8770  142.9170 C   0  0  0  0  0  0  0  0  0  0  0  0
  183.2910  178.7300  142.3450 C   0  0  0  0  0  0  0  0  0  0  0  0
  184.1200  178.2790  141.3150 C   0  0  0  0  0  3  0  0  0  0  0  0
  185.0620  178.3260  143.9450 C   0  0  0  0  0  3  0  0  0  0  0  0
  183.7610  178.7520  143.6610 C   0  0  0  0  0  3  0  0  0  0  0  0
  189.5150  177.9330  145.9860 C   0  0  0  0  0  2  0  0  0  0  0  0
  188.6550  177.0000  148.1020 C   0  0  0  0  0  1  0  0  0  0  0  0
  189.8960  177.4930  147.3900 C   0  0  1  0  0  3  0  0  0  0  0  0
  190.9160  176.3650  147.3430 C   0  0  0  0  0  2  0  0  0  0  0  0
  192.0570  176.7740  146.6540 O   0  0  0  0  0  1  0  0  0  0  0  0
  1  2  2  0  0  0  0
  2  3  2  0  0  0  0
  3 21  1  0  0  0  0
  4  6  1  0  0  0  0
  4 11  1  0  0  0  0
  5  4  2  0  0  0  0
  6 10  2  0  0  0  0
  8  6  1  0  0  0  0
 10  9  1  0  0  0  0
 10 13  1  0  0  0  0
 11 12  1  0  0  0  0
 12  7  2  0  0  0  0
 13  7  1  0  0  0  0
 13  1  1  1  0  0  0
 14 17  1  0  0  0  0
 15 16  1  0  0  0  0
 16  1  1  0  0  0  0
 16 19  2  0  0  0  0
 17 20  2  0  0  0  0
 18 15  2  0  0  0  0
 18 17  1  0  0  0  0
 20 19  1  0  0  0  0
 21 23  1  0  0  0  0
 23 22  1  6  0  0  0
 24 23  1  0  0  0  0
 25 24  1  0  0  0  0
M  END
>  <MODEL>
9

>  <REMARK>
 VINA RESULT:      -7.1      2.911      5.490
  Name = 
  5 active torsions:
  status: ('A' for Active; 'I' for Inactive)
    1  A    between atoms: C_3  and  C_8
    2  A    between atoms: C_3  and  C_24
    3  A    between atoms: C_9  and  C_14
    4  A    between atoms: C_10  and  C_12
    5  A    between atoms: C_10  and  C_14
                            x       y       z     vdW  Elec       q    Type
                         _______ _______ _______ _____ _____    ______ ____

>  <TORSDO>
F 5

$$$$
