=
 OpenBabel10222417073D

 25 28  0  0  1  0  0  0  0  0999 V2000
  187.1030  177.8840  142.4560 C   0  0  0  0  0  0  0  0  0  0  0  0
  184.3550  179.9660  143.6800 O   0  0  0  0  0  0  0  0  0  0  0  0
  185.2290  179.1600  143.4110 C   0  0  0  0  0  0  0  0  0  0  0  0
  185.8620  178.9730  141.7540 S   0  0  0  0  0  0  0  0  0  0  0  0
  185.8490  178.2980  144.4500 C   0  0  0  0  0  2  0  0  0  0  0  0
  186.9850  177.6270  143.7640 C   0  0  0  0  0  0  0  0  0  0  0  0
  187.9180  176.7540  144.5610 C   0  0  1  0  0  3  0  0  0  0  0  0
  189.9330  177.9520  147.3860 C   0  0  0  0  0  3  0  0  0  0  0  0
  187.1810  177.4880  146.9410 C   0  0  0  0  0  3  0  0  0  0  0  0
  189.4610  177.4780  146.1640 C   0  0  0  0  0  0  0  0  0  0  0  0
  189.3460  176.7350  143.9670 C   0  0  0  0  0  3  0  0  0  0  0  0
  188.1310  177.2580  145.9450 C   0  0  0  0  0  0  0  0  0  0  0  0
  188.9980  178.1990  148.4050 C   0  0  0  0  0  3  0  0  0  0  0  0
  190.2480  177.1790  145.0300 N   0  0  0  0  0  0  0  0  0  0  0  0
  187.6260  177.9660  148.1830 C   0  0  0  0  0  3  0  0  0  0  0  0
  188.1750  177.3500  141.6720 N   0  0  0  0  0  2  0  0  0  0  0  0
  191.8610  176.8890  138.7600 C   0  0  0  0  0  0  0  0  0  0  0  0
  192.9680  177.0130  139.6460 N   0  0  0  0  0  1  0  0  0  0  0  0
  189.3670  177.0690  138.3690 C   0  0  0  0  0  2  0  0  0  0  0  0
  190.5410  177.2230  139.2000 N   0  0  0  0  0  0  0  0  0  0  0  0
  187.4720  178.4930  138.5820 O   0  0  0  0  0  1  0  0  0  0  0  0
  188.7680  178.0410  140.5380 C   0  0  1  0  0  3  0  0  0  0  0  0
  190.2590  177.7630  140.5130 C   0  0  0  0  0  2  0  0  0  0  0  0
  188.1940  177.4930  139.2330 C   0  0  2  0  0  3  0  0  0  0  0  0
  192.0510  176.4710  137.5870 O   0  0  0  0  0  0  0  0  0  0  0  0
  1  6  2  0  0  0  0
  3  2  2  0  0  0  0
  3  5  1  0  0  0  0
  4  1  1  0  0  0  0
  4  3  1  0  0  0  0
  6  5  1  0  0  0  0
  7  6  1  6  0  0  0
  7 12  1  0  0  0  0
  8 13  1  0  0  0  0
  9 15  1  0  0  0  0
 10  8  2  0  0  0  0
 11  7  1  0  0  0  0
 11 14  2  0  0  0  0
 12 10  1  0  0  0  0
 12  9  2  0  0  0  0
 14 10  1  0  0  0  0
 15 13  2  0  0  0  0
 16  1  1  0  0  0  0
 17 20  1  0  0  0  0
 17 18  1  0  0  0  0
 19 20  1  0  0  0  0
 19 24  1  0  0  0  0
 20 23  1  0  0  0  0
 22 16  1  1  0  0  0
 23 22  1  0  0  0  0
 24 21  1  6  0  0  0
 24 22  1  0  0  0  0
 25 17  2  0  0  0  0
M  END
>  <MODEL>
1

>  <REMARK>
 VINA RESULT:      -8.6      0.000      0.000
  Name = 
  3 active torsions:
  status: ('A' for Active; 'I' for Inactive)
    1  A    between atoms: C_1  and  N_13
    2  A    between atoms: C_8  and  C_21
    3  A    between atoms: N_13  and  C_14
                            x       y       z     vdW  Elec       q    Type
                         _______ _______ _______ _____ _____    ______ ____

>  <TORSDO>
F 3

$$$$
=
 OpenBabel10222417073D

 25 28  0  0  1  0  0  0  0  0999 V2000
  185.4370  178.0980  144.1930 C   0  0  0  0  0  0  0  0  0  0  0  0
  185.6560  179.7650  147.4420 O   0  0  0  0  0  0  0  0  0  0  0  0
  185.7070  179.0910  146.4270 C   0  0  0  0  0  0  0  0  0  0  0  0
  184.3400  179.0040  145.2850 S   0  0  0  0  0  0  0  0  0  0  0  0
  186.9210  178.3200  146.0560 C   0  0  0  0  0  2  0  0  0  0  0  0
  186.6510  177.8200  144.6820 C   0  0  0  0  0  0  0  0  0  0  0  0
  187.7350  177.0840  143.9380 C   0  0  1  0  0  3  0  0  0  0  0  0
  191.3070  177.8890  144.1940 C   0  0  0  0  0  3  0  0  0  0  0  0
  189.3840  176.7410  145.9160 C   0  0  0  0  0  3  0  0  0  0  0  0
  189.9850  177.7080  143.7930 C   0  0  0  0  0  0  0  0  0  0  0  0
  188.0210  177.7130  142.5550 C   0  0  0  0  0  3  0  0  0  0  0  0
  189.0520  177.1570  144.6260 C   0  0  0  0  0  0  0  0  0  0  0  0
  191.6670  177.4850  145.4890 C   0  0  0  0  0  3  0  0  0  0  0  0
  189.4440  178.0560  142.5360 N   0  0  0  0  0  0  0  0  0  0  0  0
  190.7080  176.9110  146.3480 C   0  0  0  0  0  3  0  0  0  0  0  0
  185.0510  177.7250  142.8660 N   0  0  0  0  0  2  0  0  0  0  0  0
  184.6480  178.3500  138.2050 C   0  0  0  0  0  0  0  0  0  0  0  0
  185.9870  178.6410  137.8190 N   0  0  0  0  0  1  0  0  0  0  0  0
  182.9520  178.0010  140.0510 C   0  0  0  0  0  2  0  0  0  0  0  0
  184.2800  178.3420  139.5880 N   0  0  0  0  0  0  0  0  0  0  0  0
  182.0220  178.9420  142.0290 O   0  0  0  0  0  1  0  0  0  0  0  0
  184.3900  178.6250  141.9350 C   0  0  1  0  0  3  0  0  0  0  0  0
  185.1960  178.6910  140.6520 C   0  0  0  0  0  2  0  0  0  0  0  0
  183.0130  178.0760  141.5650 C   0  0  2  0  0  3  0  0  0  0  0  0
  183.7930  178.0870  137.3190 O   0  0  0  0  0  0  0  0  0  0  0  0
  1  6  2  0  0  0  0
  1  4  1  0  0  0  0
  3  2  2  0  0  0  0
  4  3  1  0  0  0  0
  5  3  1  0  0  0  0
  6  5  1  0  0  0  0
  7 12  1  0  0  0  0
  7  6  1  1  0  0  0
  8 13  1  0  0  0  0
  9 15  1  0  0  0  0
 10  8  2  0  0  0  0
 10 12  1  0  0  0  0
 11  7  1  0  0  0  0
 12  9  2  0  0  0  0
 13 15  2  0  0  0  0
 14 11  2  0  0  0  0
 14 10  1  0  0  0  0
 16  1  1  0  0  0  0
 17 20  1  0  0  0  0
 18 17  1  0  0  0  0
 19 24  1  0  0  0  0
 20 19  1  0  0  0  0
 20 23  1  0  0  0  0
 22 16  1  1  0  0  0
 23 22  1  0  0  0  0
 24 22  1  0  0  0  0
 24 21  1  6  0  0  0
 25 17  2  0  0  0  0
M  END
>  <MODEL>
2

>  <REMARK>
 VINA RESULT:      -8.6      3.195      4.560
  Name = 
  3 active torsions:
  status: ('A' for Active; 'I' for Inactive)
    1  A    between atoms: C_1  and  N_13
    2  A    between atoms: C_8  and  C_21
    3  A    between atoms: N_13  and  C_14
                            x       y       z     vdW  Elec       q    Type
                         _______ _______ _______ _____ _____    ______ ____

>  <TORSDO>
F 3

$$$$
=
 OpenBabel10222417073D

 25 28  0  0  1  0  0  0  0  0999 V2000
  190.1210  176.3340  138.8130 C   0  0  0  0  0  0  0  0  0  0  0  0
  187.6790  178.9740  138.1430 O   0  0  0  0  0  0  0  0  0  0  0  0
  188.4210  178.0910  138.5350 C   0  0  0  0  0  0  0  0  0  0  0  0
  189.1460  176.9040  137.4190 S   0  0  0  0  0  0  0  0  0  0  0  0
  188.7980  177.9600  139.9660 C   0  0  0  0  0  2  0  0  0  0  0  0
  189.8550  176.9140  139.9890 C   0  0  0  0  0  0  0  0  0  0  0  0
  190.5570  176.6020  141.2860 C   0  0  1  0  0  3  0  0  0  0  0  0
  189.7390  178.1890  144.4930 C   0  0  0  0  0  3  0  0  0  0  0  0
  188.4610  176.3260  142.7940 C   0  0  0  0  0  3  0  0  0  0  0  0
  190.3240  177.7670  143.3010 C   0  0  0  0  0  0  0  0  0  0  0  0
  191.7850  177.5140  141.5140 C   0  0  0  0  0  3  0  0  0  0  0  0
  189.7070  176.8700  142.4760 C   0  0  0  0  0  0  0  0  0  0  0  0
  188.4820  177.6630  144.8340 C   0  0  0  0  0  3  0  0  0  0  0  0
  191.5740  178.1890  142.7960 N   0  0  0  0  0  0  0  0  0  0  0  0
  187.8460  176.7330  143.9880 C   0  0  0  0  0  3  0  0  0  0  0  0
  191.1470  175.3470  138.6700 N   0  0  0  0  0  2  0  0  0  0  0  0
  195.7540  174.3190  138.6150 C   0  0  0  0  0  0  0  0  0  0  0  0
  196.2550  175.1050  139.6910 N   0  0  0  0  0  1  0  0  0  0  0  0
  193.8380  173.7320  137.0690 C   0  0  0  0  0  2  0  0  0  0  0  0
  194.4270  174.5310  138.1220 N   0  0  0  0  0  0  0  0  0  0  0  0
  192.2250  174.6210  135.5610 O   0  0  0  0  0  1  0  0  0  0  0  0
  192.2920  175.4940  137.7850 C   0  0  1  0  0  3  0  0  0  0  0  0
  193.5560  175.5740  138.6190 C   0  0  0  0  0  2  0  0  0  0  0  0
  192.4260  174.2610  136.8930 C   0  0  2  0  0  3  0  0  0  0  0  0
  196.4840  173.4290  138.1080 O   0  0  0  0  0  0  0  0  0  0  0  0
  1  6  2  0  0  0  0
  2  3  2  0  0  0  0
  3  5  1  0  0  0  0
  4  3  1  0  0  0  0
  4  1  1  0  0  0  0
  5  6  1  0  0  0  0
  7  6  1  6  0  0  0
  7 11  1  0  0  0  0
  7 12  1  0  0  0  0
  8 13  1  0  0  0  0
  9 15  1  0  0  0  0
 10  8  2  0  0  0  0
 11 14  2  0  0  0  0
 12  9  2  0  0  0  0
 12 10  1  0  0  0  0
 14 10  1  0  0  0  0
 15 13  2  0  0  0  0
 16  1  1  0  0  0  0
 17 18  1  0  0  0  0
 19 20  1  0  0  0  0
 20 17  1  0  0  0  0
 20 23  1  0  0  0  0
 22 23  1  0  0  0  0
 22 16  1  1  0  0  0
 24 21  1  6  0  0  0
 24 19  1  0  0  0  0
 24 22  1  0  0  0  0
 25 17  2  0  0  0  0
M  END
>  <MODEL>
3

>  <REMARK>
 VINA RESULT:      -8.4      2.802      4.821
  Name = 
  3 active torsions:
  status: ('A' for Active; 'I' for Inactive)
    1  A    between atoms: C_1  and  N_13
    2  A    between atoms: C_8  and  C_21
    3  A    between atoms: N_13  and  C_14
                            x       y       z     vdW  Elec       q    Type
                         _______ _______ _______ _____ _____    ______ ____

>  <TORSDO>
F 3

$$$$
=
 OpenBabel10222417073D

 25 28  0  0  1  0  0  0  0  0999 V2000
  189.6330  177.4460  142.5910 C   0  0  0  0  0  0  0  0  0  0  0  0
  192.0560  178.5730  145.0890 O   0  0  0  0  0  0  0  0  0  0  0  0
  191.1210  178.2650  144.3700 C   0  0  0  0  0  0  0  0  0  0  0  0
  191.3060  178.0920  142.6050 S   0  0  0  0  0  0  0  0  0  0  0  0
  189.7700  177.9830  144.9190 C   0  0  0  0  0  2  0  0  0  0  0  0
  188.9920  177.4540  143.7660 C   0  0  0  0  0  0  0  0  0  0  0  0
  187.5900  176.9490  143.9900 C   0  0  1  0  0  3  0  0  0  0  0  0
  184.6760  179.1320  144.4510 C   0  0  0  0  0  3  0  0  0  0  0  0
  186.3620  178.4720  142.2830 C   0  0  0  0  0  3  0  0  0  0  0  0
  185.7350  178.2390  144.5970 C   0  0  0  0  0  0  0  0  0  0  0  0
  187.2780  176.7520  145.4920 C   0  0  0  0  0  3  0  0  0  0  0  0
  186.5550  177.9220  143.5500 C   0  0  0  0  0  0  0  0  0  0  0  0
  184.4630  179.7060  143.1880 C   0  0  0  0  0  3  0  0  0  0  0  0
  186.1010  177.5710  145.7860 N   0  0  0  0  0  0  0  0  0  0  0  0
  185.3030  179.3760  142.1060 C   0  0  0  0  0  3  0  0  0  0  0  0
  189.0310  176.9210  141.4040 N   0  0  0  0  0  2  0  0  0  0  0  0
  190.4290  175.0640  137.2950 C   0  0  0  0  0  0  0  0  0  0  0  0
  191.6950  174.5030  137.6290 N   0  0  0  0  0  1  0  0  0  0  0  0
  188.4610  176.5130  137.9510 C   0  0  0  0  0  2  0  0  0  0  0  0
  189.7700  175.9520  138.2040 N   0  0  0  0  0  0  0  0  0  0  0  0
  187.8210  178.6520  138.7780 O   0  0  0  0  0  1  0  0  0  0  0  0
  189.3730  177.3640  140.0610 C   0  0  1  0  0  3  0  0  0  0  0  0
  190.3590  176.3860  139.4530 C   0  0  0  0  0  2  0  0  0  0  0  0
  188.1300  177.3500  139.1730 C   0  0  2  0  0  3  0  0  0  0  0  0
  189.8890  174.7630  136.1990 O   0  0  0  0  0  0  0  0  0  0  0  0
  1  4  1  0  0  0  0
  1  6  2  0  0  0  0
  3  5  1  0  0  0  0
  3  2  2  0  0  0  0
  4  3  1  0  0  0  0
  6  5  1  0  0  0  0
  7  6  1  1  0  0  0
  7 11  1  0  0  0  0
  8 10  1  0  0  0  0
  9 12  1  0  0  0  0
 10 14  1  0  0  0  0
 11 14  2  0  0  0  0
 12  7  1  0  0  0  0
 12 10  2  0  0  0  0
 13  8  2  0  0  0  0
 15  9  2  0  0  0  0
 15 13  1  0  0  0  0
 16  1  1  0  0  0  0
 17 18  1  0  0  0  0
 17 20  1  0  0  0  0
 19 20  1  0  0  0  0
 19 24  1  0  0  0  0
 20 23  1  0  0  0  0
 22 16  1  1  0  0  0
 23 22  1  0  0  0  0
 24 21  1  6  0  0  0
 24 22  1  0  0  0  0
 25 17  2  0  0  0  0
M  END
>  <MODEL>
4

>  <REMARK>
 VINA RESULT:      -8.3      2.561      4.010
  Name = 
  3 active torsions:
  status: ('A' for Active; 'I' for Inactive)
    1  A    between atoms: C_1  and  N_13
    2  A    between atoms: C_8  and  C_21
    3  A    between atoms: N_13  and  C_14
                            x       y       z     vdW  Elec       q    Type
                         _______ _______ _______ _____ _____    ______ ____

>  <TORSDO>
F 3

$$$$
=
 OpenBabel10222417073D

 25 28  0  0  1  0  0  0  0  0999 V2000
  186.3470  177.8930  143.3460 C   0  0  0  0  0  0  0  0  0  0  0  0
  184.6080  179.3530  146.2140 O   0  0  0  0  0  0  0  0  0  0  0  0
  185.2410  178.7350  145.3750 C   0  0  0  0  0  0  0  0  0  0  0  0
  184.8450  178.8280  143.6390 S   0  0  0  0  0  0  0  0  0  0  0  0
  186.4040  177.8850  145.7380 C   0  0  0  0  0  2  0  0  0  0  0  0
  187.0060  177.4870  144.4380 C   0  0  0  0  0  0  0  0  0  0  0  0
  188.2930  176.7030  144.4300 C   0  0  1  0  0  3  0  0  0  0  0  0
  191.3740  177.8370  142.7890 C   0  0  0  0  0  3  0  0  0  0  0  0
  189.9130  178.6280  145.0740 C   0  0  0  0  0  3  0  0  0  0  0  0
  190.2010  177.1870  143.1660 C   0  0  0  0  0  0  0  0  0  0  0  0
  188.3810  175.7450  143.2190 C   0  0  0  0  0  3  0  0  0  0  0  0
  189.4900  177.5700  144.2680 C   0  0  0  0  0  0  0  0  0  0  0  0
  191.8180  178.9100  143.5780 C   0  0  0  0  0  3  0  0  0  0  0  0
  189.6040  176.0970  142.4950 N   0  0  0  0  0  0  0  0  0  0  0  0
  191.0910  179.3030  144.7190 C   0  0  0  0  0  3  0  0  0  0  0  0
  186.8320  177.6280  142.0260 N   0  0  0  0  0  2  0  0  0  0  0  0
  188.3820  178.0210  137.5840 C   0  0  0  0  0  0  0  0  0  0  0  0
  189.7820  177.8060  137.7290 N   0  0  0  0  0  1  0  0  0  0  0  0
  186.1260  178.4100  138.6640 C   0  0  0  0  0  2  0  0  0  0  0  0
  187.5610  178.2390  138.7360 N   0  0  0  0  0  0  0  0  0  0  0  0
  184.9330  179.7520  140.2260 O   0  0  0  0  0  1  0  0  0  0  0  0
  186.9070  178.6330  140.9770 C   0  0  1  0  0  3  0  0  0  0  0  0
  188.0910  178.3260  140.0800 C   0  0  0  0  0  2  0  0  0  0  0  0
  185.6590  178.5670  140.0990 C   0  0  2  0  0  3  0  0  0  0  0  0
  187.8700  178.0070  136.4340 O   0  0  0  0  0  0  0  0  0  0  0  0
  1  4  1  0  0  0  0
  1  6  2  0  0  0  0
  3  5  1  0  0  0  0
  3  2  2  0  0  0  0
  4  3  1  0  0  0  0
  6  5  1  0  0  0  0
  7  6  1  6  0  0  0
  8 10  2  0  0  0  0
  8 13  1  0  0  0  0
 10 12  1  0  0  0  0
 11  7  1  0  0  0  0
 12  7  1  0  0  0  0
 12  9  2  0  0  0  0
 13 15  2  0  0  0  0
 14 10  1  0  0  0  0
 14 11  2  0  0  0  0
 15  9  1  0  0  0  0
 16  1  1  0  0  0  0
 17 18  1  0  0  0  0
 17 20  1  0  0  0  0
 19 20  1  0  0  0  0
 19 24  1  0  0  0  0
 20 23  1  0  0  0  0
 22 16  1  1  0  0  0
 23 22  1  0  0  0  0
 24 21  1  6  0  0  0
 24 22  1  0  0  0  0
 25 17  2  0  0  0  0
M  END
>  <MODEL>
5

>  <REMARK>
 VINA RESULT:      -8.3      2.279      3.103
  Name = 
  3 active torsions:
  status: ('A' for Active; 'I' for Inactive)
    1  A    between atoms: C_1  and  N_13
    2  A    between atoms: C_8  and  C_21
    3  A    between atoms: N_13  and  C_14
                            x       y       z     vdW  Elec       q    Type
                         _______ _______ _______ _____ _____    ______ ____

>  <TORSDO>
F 3

$$$$
=
 OpenBabel10222417073D

 25 28  0  0  1  0  0  0  0  0999 V2000
  185.3500  178.6120  144.6100 C   0  0  0  0  0  0  0  0  0  0  0  0
  187.4030  178.1250  147.5980 O   0  0  0  0  0  0  0  0  0  0  0  0
  186.8010  178.1350  146.5380 C   0  0  0  0  0  0  0  0  0  0  0  0
  185.1960  178.8950  146.3740 S   0  0  0  0  0  0  0  0  0  0  0  0
  187.3750  177.5430  145.3030 C   0  0  0  0  0  2  0  0  0  0  0  0
  186.4400  177.9420  144.2170 C   0  0  0  0  0  0  0  0  0  0  0  0
  186.7800  177.6040  142.7880 C   0  0  1  0  0  3  0  0  0  0  0  0
  190.1900  177.6320  141.4320 C   0  0  0  0  0  3  0  0  0  0  0  0
  188.7670  175.9960  143.2430 C   0  0  0  0  0  3  0  0  0  0  0  0
  188.8600  177.8880  141.7560 C   0  0  0  0  0  0  0  0  0  0  0  0
  186.7500  178.8510  141.8740 C   0  0  0  0  0  3  0  0  0  0  0  0
  188.1710  177.1010  142.6350 C   0  0  0  0  0  0  0  0  0  0  0  0
  190.8170  176.5300  142.0350 C   0  0  0  0  0  3  0  0  0  0  0  0
  188.0720  178.9480  141.2540 N   0  0  0  0  0  0  0  0  0  0  0  0
  190.1070  175.7130  142.9370 C   0  0  0  0  0  3  0  0  0  0  0  0
  184.3850  179.1040  143.6740 N   0  0  0  0  0  2  0  0  0  0  0  0
  179.7120  179.3420  143.0490 C   0  0  0  0  0  0  0  0  0  0  0  0
  179.2280  179.3950  144.3870 N   0  0  0  0  0  1  0  0  0  0  0  0
  181.6490  178.9890  141.4590 C   0  0  0  0  0  2  0  0  0  0  0  0
  181.0790  179.0070  142.7880 N   0  0  0  0  0  0  0  0  0  0  0  0
  183.4210  177.5160  140.8630 O   0  0  0  0  0  1  0  0  0  0  0  0
  183.3120  178.2950  143.1200 C   0  0  1  0  0  3  0  0  0  0  0  0
  182.0160  178.6390  143.8280 C   0  0  0  0  0  2  0  0  0  0  0  0
  183.1120  178.6300  141.6430 C   0  0  2  0  0  3  0  0  0  0  0  0
  178.9310  179.6050  142.0980 O   0  0  0  0  0  0  0  0  0  0  0  0
  1  4  1  0  0  0  0
  3  2  2  0  0  0  0
  4  3  1  0  0  0  0
  5  3  1  0  0  0  0
  6  1  2  0  0  0  0
  6  5  1  0  0  0  0
  7  6  1  1  0  0  0
  8 10  2  0  0  0  0
  8 13  1  0  0  0  0
 10 12  1  0  0  0  0
 11  7  1  0  0  0  0
 12  7  1  0  0  0  0
 12  9  2  0  0  0  0
 13 15  2  0  0  0  0
 14 10  1  0  0  0  0
 14 11  2  0  0  0  0
 15  9  1  0  0  0  0
 16  1  1  0  0  0  0
 17 18  1  0  0  0  0
 19 24  1  0  0  0  0
 19 20  1  0  0  0  0
 20 17  1  0  0  0  0
 20 23  1  0  0  0  0
 22 16  1  1  0  0  0
 22 23  1  0  0  0  0
 24 21  1  6  0  0  0
 24 22  1  0  0  0  0
 25 17  2  0  0  0  0
M  END
>  <MODEL>
6

>  <REMARK>
 VINA RESULT:      -8.2      3.763      7.076
  Name = 
  3 active torsions:
  status: ('A' for Active; 'I' for Inactive)
    1  A    between atoms: C_1  and  N_13
    2  A    between atoms: C_8  and  C_21
    3  A    between atoms: N_13  and  C_14
                            x       y       z     vdW  Elec       q    Type
                         _______ _______ _______ _____ _____    ______ ____

>  <TORSDO>
F 3

$$$$
=
 OpenBabel10222417073D

 25 28  0  0  1  0  0  0  0  0999 V2000
  187.1160  178.4380  142.5730 C   0  0  0  0  0  0  0  0  0  0  0  0
  183.8440  179.4950  143.8210 O   0  0  0  0  0  0  0  0  0  0  0  0
  184.9110  178.9940  143.5110 C   0  0  0  0  0  0  0  0  0  0  0  0
  185.7010  179.3490  141.9530 S   0  0  0  0  0  0  0  0  0  0  0  0
  185.6420  178.0770  144.4230 C   0  0  0  0  0  2  0  0  0  0  0  0
  186.9620  177.8630  143.7710 C   0  0  0  0  0  0  0  0  0  0  0  0
  188.0180  177.0630  144.4890 C   0  0  1  0  0  3  0  0  0  0  0  0
  189.8320  178.2530  147.4490 C   0  0  0  0  0  3  0  0  0  0  0  0
  187.1820  177.4280  146.9200 C   0  0  0  0  0  3  0  0  0  0  0  0
  189.4360  177.8430  146.1780 C   0  0  0  0  0  0  0  0  0  0  0  0
  189.4310  177.3210  143.9160 C   0  0  0  0  0  3  0  0  0  0  0  0
  188.1540  177.4480  145.9190 C   0  0  0  0  0  0  0  0  0  0  0  0
  188.8730  178.2510  148.4740 C   0  0  0  0  0  3  0  0  0  0  0  0
  190.2580  177.7840  145.0310 N   0  0  0  0  0  0  0  0  0  0  0  0
  187.5510  177.8380  148.2110 C   0  0  0  0  0  3  0  0  0  0  0  0
  188.3470  178.3600  141.8480 N   0  0  0  0  0  2  0  0  0  0  0  0
  188.5140  178.5870  137.1360 C   0  0  0  0  0  0  0  0  0  0  0  0
  187.1890  178.9870  136.8020 N   0  0  0  0  0  1  0  0  0  0  0  0
  190.1600  177.7850  138.8830 C   0  0  0  0  0  2  0  0  0  0  0  0
  188.8250  178.1530  138.4640 N   0  0  0  0  0  0  0  0  0  0  0  0
  190.5510  176.1540  140.5710 O   0  0  0  0  0  1  0  0  0  0  0  0
  188.5630  177.4740  140.7160 C   0  0  1  0  0  3  0  0  0  0  0  0
  187.8310  178.0250  139.5080 C   0  0  0  0  0  2  0  0  0  0  0  0
  190.0470  177.4370  140.3550 C   0  0  2  0  0  3  0  0  0  0  0  0
  189.4130  178.6290  136.2550 O   0  0  0  0  0  0  0  0  0  0  0  0
  1  6  2  0  0  0  0
  3  2  2  0  0  0  0
  3  5  1  0  0  0  0
  4  1  1  0  0  0  0
  4  3  1  0  0  0  0
  6  5  1  0  0  0  0
  7  6  1  6  0  0  0
  7 12  1  0  0  0  0
  8 13  1  0  0  0  0
  9 15  1  0  0  0  0
 10  8  2  0  0  0  0
 11  7  1  0  0  0  0
 11 14  2  0  0  0  0
 12 10  1  0  0  0  0
 12  9  2  0  0  0  0
 14 10  1  0  0  0  0
 15 13  2  0  0  0  0
 16  1  1  0  0  0  0
 17 20  1  0  0  0  0
 18 17  1  0  0  0  0
 19 24  1  0  0  0  0
 20 19  1  0  0  0  0
 20 23  1  0  0  0  0
 22 16  1  1  0  0  0
 23 22  1  0  0  0  0
 24 21  1  6  0  0  0
 24 22  1  0  0  0  0
 25 17  2  0  0  0  0
M  END
>  <MODEL>
7

>  <REMARK>
 VINA RESULT:      -8.1      1.490      2.152
  Name = 
  3 active torsions:
  status: ('A' for Active; 'I' for Inactive)
    1  A    between atoms: C_1  and  N_13
    2  A    between atoms: C_8  and  C_21
    3  A    between atoms: N_13  and  C_14
                            x       y       z     vdW  Elec       q    Type
                         _______ _______ _______ _____ _____    ______ ____

>  <TORSDO>
F 3

$$$$
=
 OpenBabel10222417073D

 25 28  0  0  1  0  0  0  0  0999 V2000
  187.2020  177.9790  142.3430 C   0  0  0  0  0  0  0  0  0  0  0  0
  188.8000  178.8170  139.1600 O   0  0  0  0  0  0  0  0  0  0  0  0
  188.4370  178.5030  140.2810 C   0  0  0  0  0  0  0  0  0  0  0  0
  186.9260  179.1270  140.9920 S   0  0  0  0  0  0  0  0  0  0  0  0
  189.2140  177.5550  141.1210 C   0  0  0  0  0  2  0  0  0  0  0  0
  188.3450  177.2850  142.2970 C   0  0  0  0  0  0  0  0  0  0  0  0
  188.7760  176.2600  143.3140 C   0  0  1  0  0  3  0  0  0  0  0  0
  191.0320  176.9790  146.1180 C   0  0  0  0  0  3  0  0  0  0  0  0
  188.3710  177.6640  145.4610 C   0  0  0  0  0  3  0  0  0  0  0  0
  190.4350  176.5360  144.9400 C   0  0  0  0  0  0  0  0  0  0  0  0
  190.0660  175.5220  142.8840 C   0  0  0  0  0  3  0  0  0  0  0  0
  189.1500  176.8700  144.6180 C   0  0  0  0  0  0  0  0  0  0  0  0
  190.2740  177.7850  146.9820 C   0  0  0  0  0  3  0  0  0  0  0  0
  191.0410  175.7250  143.9560 N   0  0  0  0  0  0  0  0  0  0  0  0
  188.9460  178.1260  146.6550 C   0  0  0  0  0  3  0  0  0  0  0  0
  186.2420  177.7900  143.3870 N   0  0  0  0  0  2  0  0  0  0  0  0
  181.6460  178.8660  143.4250 C   0  0  0  0  0  0  0  0  0  0  0  0
  181.3590  179.0270  142.0390 N   0  0  0  0  0  1  0  0  0  0  0  0
  183.3610  178.5650  145.2610 C   0  0  0  0  0  2  0  0  0  0  0  0
  183.0010  178.7820  143.8770 N   0  0  0  0  0  0  0  0  0  0  0  0
  185.3700  179.4340  146.1960 O   0  0  0  0  0  1  0  0  0  0  0  0
  185.3670  178.8420  143.8800 C   0  0  1  0  0  3  0  0  0  0  0  0
  184.1400  178.9220  142.9940 C   0  0  0  0  0  2  0  0  0  0  0  0
  184.8770  178.4990  145.2860 C   0  0  2  0  0  3  0  0  0  0  0  0
  180.6970  178.7880  144.2480 O   0  0  0  0  0  0  0  0  0  0  0  0
  1 16  1  0  0  0  0
  2  3  2  0  0  0  0
  3  4  1  0  0  0  0
  3  5  1  0  0  0  0
  4  1  1  0  0  0  0
  5  6  1  0  0  0  0
  6  1  2  0  0  0  0
  7  6  1  6  0  0  0
  7 12  1  0  0  0  0
  8 13  1  0  0  0  0
  9 15  1  0  0  0  0
 10  8  2  0  0  0  0
 11  7  1  0  0  0  0
 11 14  2  0  0  0  0
 12 10  1  0  0  0  0
 12  9  2  0  0  0  0
 14 10  1  0  0  0  0
 15 13  2  0  0  0  0
 17 20  1  0  0  0  0
 17 25  2  0  0  0  0
 18 17  1  0  0  0  0
 19 24  1  0  0  0  0
 20 19  1  0  0  0  0
 22 16  1  6  0  0  0
 22 24  1  0  0  0  0
 23 20  1  0  0  0  0
 23 22  1  0  0  0  0
 24 21  1  1  0  0  0
M  END
>  <MODEL>
8

>  <REMARK>
 VINA RESULT:      -8.1      2.515      6.097
  Name = 
  3 active torsions:
  status: ('A' for Active; 'I' for Inactive)
    1  A    between atoms: C_1  and  N_13
    2  A    between atoms: C_8  and  C_21
    3  A    between atoms: N_13  and  C_14
                            x       y       z     vdW  Elec       q    Type
                         _______ _______ _______ _____ _____    ______ ____

>  <TORSDO>
F 3

$$$$
=
 OpenBabel10222417073D

 25 28  0  0  1  0  0  0  0  0999 V2000
  185.2240  178.7600  143.3270 C   0  0  0  0  0  0  0  0  0  0  0  0
  184.7450  178.7610  146.9530 O   0  0  0  0  0  0  0  0  0  0  0  0
  184.9870  178.5980  145.7700 C   0  0  0  0  0  0  0  0  0  0  0  0
  183.9980  179.3550  144.4930 S   0  0  0  0  0  0  0  0  0  0  0  0
  186.1400  177.7830  145.3090 C   0  0  0  0  0  2  0  0  0  0  0  0
  186.2030  178.0060  143.8400 C   0  0  0  0  0  0  0  0  0  0  0  0
  187.3410  177.4130  143.0510 C   0  0  1  0  0  3  0  0  0  0  0  0
  190.8570  178.3690  143.4930 C   0  0  0  0  0  3  0  0  0  0  0  0
  188.9620  176.9390  145.0250 C   0  0  0  0  0  3  0  0  0  0  0  0
  189.5560  178.1660  143.0380 C   0  0  0  0  0  0  0  0  0  0  0  0
  187.6230  178.2050  141.7530 C   0  0  0  0  0  3  0  0  0  0  0  0
  188.6370  177.4780  143.7790 C   0  0  0  0  0  0  0  0  0  0  0  0
  191.2100  177.8440  144.7460 C   0  0  0  0  0  3  0  0  0  0  0  0
  189.0250  178.6210  141.8120 N   0  0  0  0  0  0  0  0  0  0  0  0
  190.2650  177.1300  145.5100 C   0  0  0  0  0  3  0  0  0  0  0  0
  185.1790  179.1020  141.9370 N   0  0  0  0  0  2  0  0  0  0  0  0
  180.8130  179.3890  140.1660 C   0  0  0  0  0  0  0  0  0  0  0  0
  180.0030  179.1360  141.3090 N   0  0  0  0  0  1  0  0  0  0  0  0
  183.1110  179.4300  139.1050 C   0  0  0  0  0  2  0  0  0  0  0  0
  182.2230  179.1440  140.2110 N   0  0  0  0  0  0  0  0  0  0  0  0
  185.0820  178.1570  138.7040 O   0  0  0  0  0  1  0  0  0  0  0  0
  184.3450  178.4160  140.9640 C   0  0  1  0  0  3  0  0  0  0  0  0
  182.8900  178.5710  141.3600 C   0  0  0  0  0  2  0  0  0  0  0  0
  184.5020  179.0660  139.5900 C   0  0  2  0  0  3  0  0  0  0  0  0
  180.2810  179.8410  139.1180 O   0  0  0  0  0  0  0  0  0  0  0  0
  1  6  2  0  0  0  0
  1  4  1  0  0  0  0
  3  2  2  0  0  0  0
  4  3  1  0  0  0  0
  5  3  1  0  0  0  0
  6  5  1  0  0  0  0
  7 12  1  0  0  0  0
  7  6  1  1  0  0  0
  8 13  1  0  0  0  0
  9 15  1  0  0  0  0
 10  8  2  0  0  0  0
 10 12  1  0  0  0  0
 11 14  2  0  0  0  0
 11  7  1  0  0  0  0
 12  9  2  0  0  0  0
 13 15  2  0  0  0  0
 14 10  1  0  0  0  0
 16  1  1  0  0  0  0
 17 20  1  0  0  0  0
 17 18  1  0  0  0  0
 19 24  1  0  0  0  0
 19 20  1  0  0  0  0
 20 23  1  0  0  0  0
 22 23  1  0  0  0  0
 22 16  1  1  0  0  0
 24 21  1  6  0  0  0
 24 22  1  0  0  0  0
 25 17  2  0  0  0  0
M  END
>  <MODEL>
9

>  <REMARK>
 VINA RESULT:      -8.1      3.468      5.734
  Name = 
  3 active torsions:
  status: ('A' for Active; 'I' for Inactive)
    1  A    between atoms: C_1  and  N_13
    2  A    between atoms: C_8  and  C_21
    3  A    between atoms: N_13  and  C_14
                            x       y       z     vdW  Elec       q    Type
                         _______ _______ _______ _____ _____    ______ ____

>  <TORSDO>
F 3

$$$$
