=
 OpenBabel10222417353D

 67 72  0  0  1  0  0  0  0  0999 V2000
  189.8930  178.4040  143.4910 N   0  0  0  0  0  0  0  0  0  0  0  0
  190.2010  175.8570  137.4510 O   0  0  0  0  0  0  0  0  0  0  0  0
  190.4950  176.1120  139.7630 C   0  0  0  0  0  2  0  0  0  0  0  0
  187.0420  177.5860  137.4560 C   0  0  1  0  0  3  0  0  0  0  0  0
  191.1390  175.6450  138.4880 C   0  0  2  0  0  3  0  0  0  0  0  0
  188.7300  177.6470  141.5520 N   0  0  0  0  0  2  0  0  0  0  0  0
  187.4430  178.8130  138.2770 C   0  0  0  0  0  2  0  0  0  0  0  0
  188.0150  176.4210  137.6860 C   0  0  0  0  0  2  0  0  0  0  0  0
  189.8130  178.3200  142.1960 C   0  0  0  0  0  3  0  0  0  0  0  0
  188.5680  177.7220  140.1330 C   0  0  0  0  0  0  0  0  0  0  0  0
  189.7130  177.2590  139.2310 C   0  0  2  0  0  3  0  0  0  0  0  0
  189.3870  176.8970  137.8350 N   0  0  1  0  0  0  0  0  0  0  0  0
  187.6070  178.4700  139.6810 N   0  0  0  0  0  0  0  0  0  0  0  0
  188.9730  177.7820  144.3880 C   0  0  0  0  0  0  0  0  0  0  0  0
  187.6640  178.0200  144.2480 C   0  0  0  0  0  3  0  0  0  0  0  0
  185.8420  178.4730  145.8570 C   0  0  0  0  0  1  0  0  0  0  0  0
  186.6200  177.3990  145.1160 C   0  0  0  0  0  2  0  0  0  0  0  0
  189.4960  176.8280  145.4230 C   0  0  0  0  0  2  0  0  0  0  0  0
  190.8460  176.5510  145.1830 O   0  0  0  0  0  1  0  0  0  0  0  0
  185.6190  177.0940  137.7670 C   0  0  0  0  0  2  0  0  0  0  0  0
  184.9420  176.3570  136.6050 C   0  0  1  0  0  3  0  0  0  0  0  0
  183.4770  176.1550  136.8470 C   0  0  0  0  0  0  0  0  0  0  0  0
  182.9610  176.1180  138.1850 N   0  0  0  0  0  2  0  0  0  0  0  0
  182.6990  176.0510  135.8620 O   0  0  0  0  0  0  0  0  0  0  0  0
  181.5800  175.7530  138.4940 C   0  0  0  0  0  2  0  0  0  0  0  0
  179.7410  180.4650  140.8070 O   0  0  0  0  0  1  0  0  0  0  0  0
  181.3020  178.6650  140.8440 C   0  0  0  0  0  0  0  0  0  0  0  0
  179.8930  179.1920  138.7690 C   0  0  1  0  0  3  0  0  0  0  0  0
  180.6740  178.0490  138.1280 C   0  0  0  0  0  2  0  0  0  0  0  0
  180.8150  176.9120  139.1330 C   0  0  2  0  0  3  0  0  0  0  0  0
  181.4620  177.4070  140.4030 C   0  0  0  0  0  3  0  0  0  0  0  0
  181.9100  179.0310  142.0020 F   0  0  0  0  0  0  0  0  0  0  0  0
  180.6240  179.7310  140.0130 C   0  0  1  0  0  3  0  0  0  0  0  0
  179.7350  180.2290  137.8380 O   0  0  0  0  0  0  0  0  0  0  0  0
  180.7250  181.1650  138.1570 C   0  0  0  0  0  2  0  0  0  0  0  0
  180.2170  182.4480  138.0110 O   0  0  0  0  0  1  0  0  0  0  0  0
  185.1870  177.0250  135.3270 N   0  0  0  0  0  2  0  0  0  0  0  0
  186.1670  176.3060  134.6160 N   0  0  0  0  0  2  0  0  0  0  0  0
  186.8600  170.3140  135.0810 C   0  0  0  0  0  3  0  0  0  0  0  0
  188.2060  170.7970  135.0460 O   0  0  0  0  0  0  0  0  0  0  0  0
  185.9750  171.5780  135.1400 C   0  0  0  0  0  3  0  0  0  0  0  0
  187.0890  174.0590  135.0420 C   0  0  0  0  0  0  0  0  0  0  0  0
  188.3170  174.4130  134.8370 N   0  0  0  0  0  0  0  0  0  0  0  0
  189.1810  173.2290  134.9530 C   0  0  0  0  0  2  0  0  0  0  0  0
  188.1780  172.1600  135.1850 C   0  0  0  0  0  0  0  0  0  0  0  0
  186.9940  172.6360  135.3170 C   0  0  0  0  0  0  0  0  0  0  0  0
  185.9780  174.9450  134.9040 N   0  0  0  0  0  2  0  0  0  0  0  0
  192.3940  176.4650  138.1820 C   0  0  0  0  0  2  0  0  0  0  0  0
  194.3980  175.1310  137.2820 C   0  0  1  0  0  0  0  0  0  0  0  0
  194.8240  175.1540  138.7640 C   0  0  0  0  0  1  0  0  0  0  0  0
  193.6100  173.8600  136.9220 C   0  0  1  0  0  3  0  0  0  0  0  0
  192.4470  174.7200  136.4410 C   0  0  0  0  0  2  0  0  0  0  0  0
  193.1470  175.9740  136.9450 C   0  0  1  0  0  3  0  0  0  0  0  0
  194.2390  172.9220  135.8770 C   0  0  2  0  0  3  0  0  0  0  0  0
  193.5470  172.9370  134.6640 O   0  0  0  0  0  1  0  0  0  0  0  0
  194.3000  171.5070  136.4340 C   0  0  0  0  0  2  0  0  0  0  0  0
  195.4780  170.8890  135.9970 O   0  0  0  0  0  0  0  0  0  0  0  0
  196.5180  171.3670  136.8170 C   0  0  1  0  0  3  0  0  0  0  0  0
  195.8290  169.9130  138.6610 O   0  0  0  0  0  0  0  0  0  0  0  0
  197.8610  169.6770  137.6980 O   0  0  0  0  0  0  0  0  0  0  0  0
  196.8300  170.3610  137.8230 N   0  0  0  0  0  0  0  0  0  0  0  0
  197.7730  171.6650  135.9750 C   0  0  0  0  0  2  0  0  0  0  0  0
  198.2250  173.1140  136.0990 C   0  0  0  0  0  2  0  0  0  0  0  0
  198.8350  173.4090  137.4370 C   0  0  0  0  0  3  0  0  0  0  0  0
  198.2640  174.1320  138.2350 O   0  0  0  0  0  0  0  0  0  0  0  0
  195.4370  175.4650  136.3720 O   0  0  0  0  0  0  0  0  0  0  0  0
  194.9550  176.3890  135.4320 C   0  0  0  0  0  1  0  0  0  0  0  0
  1 14  1  0  0  0  0
  2 12  1  0  0  0  0
  2  5  1  0  0  0  0
  4  8  1  0  0  0  0
  4 20  1  1  0  0  0
  4  7  1  0  0  0  0
  5 48  1  6  0  0  0
  5  3  1  0  0  0  0
  6  9  1  0  0  0  0
  7 13  1  0  0  0  0
  9  1  2  0  0  0  0
 10  6  1  0  0  0  0
 11  3  1  1  0  0  0
 11 10  1  0  0  0  0
 12  8  1  1  0  0  0
 12 11  1  0  0  0  0
 13 10  2  0  0  0  0
 14 18  1  0  0  0  0
 15 14  2  0  0  0  0
 15 17  1  0  0  0  0
 17 16  1  0  0  0  0
 19 18  1  0  0  0  0
 21 22  1  0  0  0  0
 21 20  1  1  0  0  0
 22 23  1  0  0  0  0
 23 25  1  0  0  0  0
 24 22  2  0  0  0  0
 27 32  1  0  0  0  0
 28 34  1  6  0  0  0
 28 33  1  0  0  0  0
 29 28  1  0  0  0  0
 29 30  1  0  0  0  0
 30 25  1  6  0  0  0
 30 31  1  0  0  0  0
 31 27  2  0  0  0  0
 33 26  1  1  0  0  0
 33 27  1  0  0  0  0
 34 35  1  0  0  0  0
 36 35  1  0  0  0  0
 37 21  1  0  0  0  0
 38 47  1  0  0  0  0
 38 37  1  0  0  0  0
 39 41  2  0  0  0  0
 40 39  1  0  0  0  0
 40 45  1  0  0  0  0
 41 46  1  0  0  0  0
 42 46  1  0  0  0  0
 43 44  1  0  0  0  0
 43 42  2  0  0  0  0
 44 45  1  0  0  0  0
 45 46  2  0  0  0  0
 47 42  1  0  0  0  0
 49 50  1  1  0  0  0
 51 54  1  6  0  0  0
 51 49  1  0  0  0  0
 52 51  1  0  0  0  0
 52 53  1  0  0  0  0
 53 49  1  0  0  0  0
 53 48  1  1  0  0  0
 54 55  1  6  0  0  0
 54 56  1  0  0  0  0
 57 56  1  0  0  0  0
 57 58  1  0  0  0  0
 58 62  1  6  0  0  0
 58 61  1  0  0  0  0
 60 61  2  0  0  0  0
 61 59  2  0  0  0  0
 62 63  1  0  0  0  0
 63 64  1  0  0  0  0
 64 65  2  0  0  0  0
 66 49  1  0  0  0  0
 67 66  1  0  0  0  0
M  END
>  <MODEL>
1

>  <REMARK>
 VINA RESULT:      -5.4      0.000      0.000
  Name = 
  24 active torsions:
  status: ('A' for Active; 'I' for Inactive)
    1  A    between atoms: C_1  and  O_51
    2  A    between atoms: N_4  and  CA_29
    3  A    between atoms: C_7  and  C_32
    4  A    between atoms: C_7  and  N_54
    5  A    between atoms: C_10  and  C_25
    6  A    between atoms: C_10  and  C_38
    7  A    between atoms: C_14  and  O_18
    8  A    between atoms: C_15  and  C_34
    9  A    between atoms: C_16  and  O_18
   10  A    between atoms: C_19  and  C_30
   11  A    between atoms: C_19  and  C_65
   12  A    between atoms: C_21  and  C_48
   13  A    between atoms: C_22  and  N_37
   14  A    between atoms: C_22  and  C_48
   15  A    between atoms: C_22  and  C_52
   16  A    between atoms: C_25  and  O_60
   17  A    between atoms: C_26  and  C_45
   18  A    between atoms: CA_29  and  C_40
   19  A    between atoms: N_37  and  N_39
   20  A    between atoms: N_39  and  N_63
   21  A    between atoms: C_44  and  C_45
   22  A    between atoms: C_44  and  C_50
   23  A    between atoms: C_50  and  O_60
   24  A    between atoms: C_50  and  N_66
                            x       y       z     vdW  Elec       q    Type
                         _______ _______ _______ _____ _____    ______ ____

>  <TORSDO>
F 24

$$$$
=
 OpenBabel10222417353D

 67 72  0  0  1  0  0  0  0  0999 V2000
  188.7040  177.0330  143.7620 N   0  0  0  0  0  0  0  0  0  0  0  0
  187.4100  178.1980  137.4350 O   0  0  0  0  0  0  0  0  0  0  0  0
  187.5400  178.4900  139.7570 C   0  0  0  0  0  2  0  0  0  0  0  0
  190.4200  176.2240  137.3110 C   0  0  1  0  0  3  0  0  0  0  0  0
  186.6950  178.7220  138.5360 C   0  0  2  0  0  3  0  0  0  0  0  0
  189.5230  177.2290  141.5310 N   0  0  0  0  0  2  0  0  0  0  0  0
  190.1150  175.2520  138.4530 C   0  0  0  0  0  2  0  0  0  0  0  0
  189.5700  177.4980  137.4220 C   0  0  0  0  0  2  0  0  0  0  0  0
  188.5460  176.8210  142.4890 C   0  0  0  0  0  3  0  0  0  0  0  0
  189.4140  176.8280  140.1630 C   0  0  0  0  0  0  0  0  0  0  0  0
  188.1470  177.1860  139.3850 C   0  0  2  0  0  3  0  0  0  0  0  0
  188.2260  177.1970  137.9090 N   0  0  1  0  0  0  0  0  0  0  0  0
  190.2340  175.9110  139.7440 N   0  0  0  0  0  0  0  0  0  0  0  0
  189.8060  177.7490  144.3190 C   0  0  0  0  0  0  0  0  0  0  0  0
  190.1420  178.9360  143.8020 C   0  0  0  0  0  3  0  0  0  0  0  0
  192.5680  179.0040  144.2720 C   0  0  0  0  0  1  0  0  0  0  0  0
  191.2590  179.7740  144.3280 C   0  0  0  0  0  2  0  0  0  0  0  0
  190.5190  177.1770  145.5110 C   0  0  0  0  0  2  0  0  0  0  0  0
  189.8770  177.5700  146.6900 O   0  0  0  0  0  1  0  0  0  0  0  0
  191.8990  176.6360  137.2530 C   0  0  0  0  0  2  0  0  0  0  0  0
  192.8700  175.4640  137.0570 C   0  0  1  0  0  3  0  0  0  0  0  0
  192.5220  174.6430  135.8540 C   0  0  0  0  0  0  0  0  0  0  0  0
  191.7440  173.4460  135.9910 N   0  0  0  0  0  2  0  0  0  0  0  0
  192.8920  175.0330  134.7140 O   0  0  0  0  0  0  0  0  0  0  0  0
  191.5180  172.5130  134.8900 C   0  0  0  0  0  2  0  0  0  0  0  0
  186.0260  171.6380  134.8860 O   0  0  0  0  0  1  0  0  0  0  0  0
  188.2020  170.8550  135.4620 C   0  0  0  0  0  0  0  0  0  0  0  0
  187.7610  173.3070  134.8580 C   0  0  1  0  0  3  0  0  0  0  0  0
  189.2430  173.4970  135.1690 C   0  0  0  0  0  2  0  0  0  0  0  0
  190.0300  172.3230  134.6000 C   0  0  2  0  0  3  0  0  0  0  0  0
  189.4940  171.0180  135.1390 C   0  0  0  0  0  3  0  0  0  0  0  0
  187.7960  169.6470  135.9310 F   0  0  0  0  0  0  0  0  0  0  0  0
  187.2260  172.0100  135.4940 C   0  0  1  0  0  3  0  0  0  0  0  0
  187.0370  174.4010  135.3530 O   0  0  0  0  0  0  0  0  0  0  0  0
  186.9910  174.2140  136.7390 C   0  0  0  0  0  2  0  0  0  0  0  0
  186.0030  175.0230  137.2850 O   0  0  0  0  0  1  0  0  0  0  0  0
  194.2600  175.9180  137.0140 N   0  0  0  0  0  2  0  0  0  0  0  0
  194.9280  175.4540  138.1630 N   0  0  0  0  0  2  0  0  0  0  0  0
  196.6320  170.2500  135.5920 C   0  0  0  0  0  3  0  0  0  0  0  0
  197.2810  171.2390  134.7880 O   0  0  0  0  0  0  0  0  0  0  0  0
  195.9870  171.0310  136.7580 C   0  0  0  0  0  3  0  0  0  0  0  0
  196.1430  173.7450  136.8650 C   0  0  0  0  0  0  0  0  0  0  0  0
  196.6080  174.5880  135.9990 N   0  0  0  0  0  0  0  0  0  0  0  0
  197.3710  173.8520  134.9800 C   0  0  0  0  0  2  0  0  0  0  0  0
  197.1650  172.4500  135.4200 C   0  0  0  0  0  0  0  0  0  0  0  0
  196.5360  172.3870  136.5360 C   0  0  0  0  0  0  0  0  0  0  0  0
  195.2700  174.1120  137.9340 N   0  0  0  0  0  2  0  0  0  0  0  0
  185.3640  177.9770  138.6480 C   0  0  0  0  0  2  0  0  0  0  0  0
  182.8900  177.9180  137.9500 C   0  0  1  0  0  0  0  0  0  0  0  0
  183.0630  176.4060  138.1960 C   0  0  0  0  0  1  0  0  0  0  0  0
  182.3460  178.6510  139.1880 C   0  0  1  0  0  3  0  0  0  0  0  0
  183.5590  179.5730  139.1730 C   0  0  0  0  0  2  0  0  0  0  0  0
  184.1870  178.7520  138.0550 C   0  0  1  0  0  3  0  0  0  0  0  0
  180.9740  179.3320  139.0470 C   0  0  2  0  0  3  0  0  0  0  0  0
  181.0830  180.7020  138.7990 O   0  0  0  0  0  1  0  0  0  0  0  0
  180.1520  179.0860  140.3050 C   0  0  0  0  0  2  0  0  0  0  0  0
  180.9910  178.6050  141.3180 O   0  0  0  0  0  0  0  0  0  0  0  0
  180.5690  179.2090  142.5180 C   0  0  1  0  0  3  0  0  0  0  0  0
  179.1580  178.6550  144.4380 O   0  0  0  0  0  0  0  0  0  0  0  0
  179.4720  177.1660  142.7660 O   0  0  0  0  0  0  0  0  0  0  0  0
  179.8120  178.2390  143.2970 N   0  0  0  0  0  0  0  0  0  0  0  0
  181.7840  179.6940  143.3310 C   0  0  0  0  0  2  0  0  0  0  0  0
  182.4420  178.5690  144.1190 C   0  0  0  0  0  2  0  0  0  0  0  0
  183.8180  178.9330  144.5920 C   0  0  0  0  0  3  0  0  0  0  0  0
  184.7040  179.1850  143.7940 O   0  0  0  0  0  0  0  0  0  0  0  0
  182.2340  178.2390  136.7310 O   0  0  0  0  0  0  0  0  0  0  0  0
  181.6640  177.0770  136.1880 C   0  0  0  0  0  1  0  0  0  0  0  0
  1 14  1  0  0  0  0
  2 12  1  0  0  0  0
  2  5  1  0  0  0  0
  4 20  1  1  0  0  0
  4  8  1  0  0  0  0
  4  7  1  0  0  0  0
  5 48  1  1  0  0  0
  5  3  1  0  0  0  0
  6  9  1  0  0  0  0
  7 13  1  0  0  0  0
  9  1  2  0  0  0  0
 10  6  1  0  0  0  0
 11  3  1  1  0  0  0
 11 10  1  0  0  0  0
 12  8  1  1  0  0  0
 12 11  1  0  0  0  0
 13 10  2  0  0  0  0
 14 18  1  0  0  0  0
 15 14  2  0  0  0  0
 15 17  1  0  0  0  0
 16 17  1  0  0  0  0
 18 19  1  0  0  0  0
 21 20  1  6  0  0  0
 22 23  1  0  0  0  0
 22 21  1  0  0  0  0
 24 22  2  0  0  0  0
 25 23  1  0  0  0  0
 27 33  1  0  0  0  0
 27 32  1  0  0  0  0
 28 29  1  0  0  0  0
 28 34  1  1  0  0  0
 28 33  1  0  0  0  0
 30 25  1  1  0  0  0
 30 31  1  0  0  0  0
 30 29  1  0  0  0  0
 31 27  2  0  0  0  0
 33 26  1  6  0  0  0
 34 35  1  0  0  0  0
 35 36  1  0  0  0  0
 37 21  1  0  0  0  0
 37 38  1  0  0  0  0
 39 41  2  0  0  0  0
 40 45  1  0  0  0  0
 40 39  1  0  0  0  0
 42 47  1  0  0  0  0
 43 42  2  0  0  0  0
 44 45  1  0  0  0  0
 44 43  1  0  0  0  0
 45 46  2  0  0  0  0
 46 41  1  0  0  0  0
 46 42  1  0  0  0  0
 47 38  1  0  0  0  0
 49 53  1  0  0  0  0
 49 50  1  1  0  0  0
 49 51  1  0  0  0  0
 51 54  1  6  0  0  0
 52 51  1  0  0  0  0
 53 48  1  1  0  0  0
 53 52  1  0  0  0  0
 54 55  1  1  0  0  0
 54 56  1  0  0  0  0
 56 57  1  0  0  0  0
 57 58  1  0  0  0  0
 58 61  1  0  0  0  0
 58 62  1  1  0  0  0
 60 61  2  0  0  0  0
 61 59  2  0  0  0  0
 62 63  1  0  0  0  0
 63 64  1  0  0  0  0
 65 64  2  0  0  0  0
 66 49  1  0  0  0  0
 67 66  1  0  0  0  0
M  END
>  <MODEL>
2

>  <REMARK>
 VINA RESULT:      -4.9      2.979     10.835
  Name = 
  24 active torsions:
  status: ('A' for Active; 'I' for Inactive)
    1  A    between atoms: C_1  and  O_51
    2  A    between atoms: N_4  and  CA_29
    3  A    between atoms: C_7  and  C_32
    4  A    between atoms: C_7  and  N_54
    5  A    between atoms: C_10  and  C_25
    6  A    between atoms: C_10  and  C_38
    7  A    between atoms: C_14  and  O_18
    8  A    between atoms: C_15  and  C_34
    9  A    between atoms: C_16  and  O_18
   10  A    between atoms: C_19  and  C_30
   11  A    between atoms: C_19  and  C_65
   12  A    between atoms: C_21  and  C_48
   13  A    between atoms: C_22  and  N_37
   14  A    between atoms: C_22  and  C_48
   15  A    between atoms: C_22  and  C_52
   16  A    between atoms: C_25  and  O_60
   17  A    between atoms: C_26  and  C_45
   18  A    between atoms: CA_29  and  C_40
   19  A    between atoms: N_37  and  N_39
   20  A    between atoms: N_39  and  N_63
   21  A    between atoms: C_44  and  C_45
   22  A    between atoms: C_44  and  C_50
   23  A    between atoms: C_50  and  O_60
   24  A    between atoms: C_50  and  N_66
                            x       y       z     vdW  Elec       q    Type
                         _______ _______ _______ _____ _____    ______ ____

>  <TORSDO>
F 24

$$$$
=
 OpenBabel10222417353D

 67 72  0  0  1  0  0  0  0  0999 V2000
  191.5640  177.7720  144.5940 N   0  0  0  0  0  0  0  0  0  0  0  0
  188.9400  176.6040  138.6940 O   0  0  0  0  0  0  0  0  0  0  0  0
  190.1470  176.2940  140.6800 C   0  0  0  0  0  2  0  0  0  0  0  0
  186.5130  178.7510  140.2640 C   0  0  1  0  0  3  0  0  0  0  0  0
  190.1270  176.0270  139.2010 C   0  0  2  0  0  3  0  0  0  0  0  0
  189.6060  177.6480  143.2380 N   0  0  0  0  0  2  0  0  0  0  0  0
  187.4680  179.6910  141.0030 C   0  0  0  0  0  2  0  0  0  0  0  0
  187.2040  177.4290  139.9010 C   0  0  0  0  0  2  0  0  0  0  0  0
  190.9760  177.9890  143.4540 C   0  0  0  0  0  3  0  0  0  0  0  0
  188.9350  178.0580  142.0430 C   0  0  0  0  0  0  0  0  0  0  0  0
  189.5080  177.6360  140.6900 C   0  0  2  0  0  3  0  0  0  0  0  0
  188.5980  177.6450  139.5240 N   0  0  1  0  0  0  0  0  0  0  0  0
  188.0740  179.0260  142.1460 N   0  0  0  0  0  0  0  0  0  0  0  0
  190.9410  177.1160  145.6990 C   0  0  0  0  0  0  0  0  0  0  0  0
  189.7730  177.5780  146.1580 C   0  0  0  0  0  3  0  0  0  0  0  0
  188.9500  177.9050  148.4660 C   0  0  0  0  0  1  0  0  0  0  0  0
  189.0280  176.9480  147.2890 C   0  0  0  0  0  2  0  0  0  0  0  0
  191.5840  175.8860  146.2740 C   0  0  0  0  0  2  0  0  0  0  0  0
  192.2960  176.2130  147.4330 O   0  0  0  0  0  1  0  0  0  0  0  0
  185.2470  178.4270  141.0720 C   0  0  0  0  0  2  0  0  0  0  0  0
  183.9360  178.7220  140.3300 C   0  0  1  0  0  3  0  0  0  0  0  0
  183.8360  177.9590  139.0450 C   0  0  0  0  0  0  0  0  0  0  0  0
  183.3680  176.6040  139.0390 N   0  0  0  0  0  2  0  0  0  0  0  0
  184.1370  178.5330  137.9640 O   0  0  0  0  0  0  0  0  0  0  0  0
  183.4110  175.7530  137.8520 C   0  0  0  0  0  2  0  0  0  0  0  0
  187.7430  172.4880  136.6270 O   0  0  0  0  0  1  0  0  0  0  0  0
  185.3890  172.7020  136.9270 C   0  0  0  0  0  0  0  0  0  0  0  0
  186.9070  174.7450  136.6220 C   0  0  1  0  0  3  0  0  0  0  0  0
  185.6040  175.5380  136.6820 C   0  0  0  0  0  2  0  0  0  0  0  0
  184.7110  174.9540  137.7700 C   0  0  2  0  0  3  0  0  0  0  0  0
  184.4750  173.4830  137.5250 C   0  0  0  0  0  3  0  0  0  0  0  0
  185.1060  171.3860  136.7520 F   0  0  0  0  0  0  0  0  0  0  0  0
  186.6370  173.2670  136.2850 C   0  0  1  0  0  3  0  0  0  0  0  0
  187.7440  175.2990  135.6430 O   0  0  0  0  0  0  0  0  0  0  0  0
  187.3390  176.6330  135.5230 C   0  0  0  0  0  2  0  0  0  0  0  0
  188.4540  177.4480  135.3800 O   0  0  0  0  0  1  0  0  0  0  0  0
  182.7710  178.4910  141.1830 N   0  0  0  0  0  2  0  0  0  0  0  0
  181.6120  178.4820  140.3830 N   0  0  0  0  0  2  0  0  0  0  0  0
  180.9670  183.1860  136.6340 C   0  0  0  0  0  3  0  0  0  0  0  0
  180.3790  182.1040  135.9060 O   0  0  0  0  0  0  0  0  0  0  0  0
  181.2990  182.6070  138.0270 C   0  0  0  0  0  3  0  0  0  0  0  0
  180.8450  179.9820  138.5830 C   0  0  0  0  0  0  0  0  0  0  0  0
  180.4630  179.0190  137.8060 N   0  0  0  0  0  0  0  0  0  0  0  0
  179.9840  179.5910  136.5390 C   0  0  0  0  0  2  0  0  0  0  0  0
  180.2490  181.0360  136.7540 C   0  0  0  0  0  0  0  0  0  0  0  0
  180.6630  181.2730  137.9440 C   0  0  0  0  0  0  0  0  0  0  0  0
  181.4600  179.7730  139.8540 N   0  0  0  0  0  2  0  0  0  0  0  0
  191.3210  176.6920  138.5140 C   0  0  0  0  0  2  0  0  0  0  0  0
  193.0710  175.8190  136.8450 C   0  0  1  0  0  0  0  0  0  0  0  0
  194.0560  176.3310  137.9160 C   0  0  0  0  0  1  0  0  0  0  0  0
  192.7450  174.3260  137.0200 C   0  0  1  0  0  3  0  0  0  0  0  0
  191.2610  174.6640  137.1120 C   0  0  0  0  0  2  0  0  0  0  0  0
  191.5850  176.1510  137.1080 C   0  0  1  0  0  3  0  0  0  0  0  0
  193.1560  173.3840  135.8750 C   0  0  2  0  0  3  0  0  0  0  0  0
  192.7180  172.0750  136.0800 O   0  0  0  0  0  1  0  0  0  0  0  0
  194.6700  173.4160  135.7090 C   0  0  0  0  0  2  0  0  0  0  0  0
  195.2740  173.0140  136.9070 O   0  0  0  0  0  0  0  0  0  0  0  0
  196.6490  173.2890  136.7830 C   0  0  1  0  0  3  0  0  0  0  0  0
  197.2770  175.5880  137.3380 O   0  0  0  0  0  0  0  0  0  0  0  0
  196.7730  174.1010  138.9650 O   0  0  0  0  0  0  0  0  0  0  0  0
  197.0220  174.3000  137.7620 N   0  0  0  0  0  0  0  0  0  0  0  0
  197.4760  172.0100  137.0160 C   0  0  0  0  0  2  0  0  0  0  0  0
  196.8440  170.7850  136.3680 C   0  0  0  0  0  2  0  0  0  0  0  0
  196.5360  169.7080  137.3660 C   0  0  0  0  0  3  0  0  0  0  0  0
  195.4940  169.7260  137.9980 O   0  0  0  0  0  0  0  0  0  0  0  0
  193.4010  176.2060  135.5180 O   0  0  0  0  0  0  0  0  0  0  0  0
  192.2280  176.3060  134.7560 C   0  0  0  0  0  1  0  0  0  0  0  0
  1 14  1  0  0  0  0
  2  5  1  0  0  0  0
  2 12  1  0  0  0  0
  4  7  1  0  0  0  0
  4 20  1  1  0  0  0
  5 48  1  6  0  0  0
  5  3  1  0  0  0  0
  6  9  1  0  0  0  0
  7 13  1  0  0  0  0
  8  4  1  0  0  0  0
  9  1  2  0  0  0  0
 10 13  2  0  0  0  0
 10  6  1  0  0  0  0
 11  3  1  1  0  0  0
 11 10  1  0  0  0  0
 12  8  1  1  0  0  0
 12 11  1  0  0  0  0
 14 15  2  0  0  0  0
 14 18  1  0  0  0  0
 15 17  1  0  0  0  0
 17 16  1  0  0  0  0
 18 19  1  0  0  0  0
 21 20  1  1  0  0  0
 21 37  1  0  0  0  0
 22 21  1  0  0  0  0
 23 22  1  0  0  0  0
 24 22  2  0  0  0  0
 25 23  1  0  0  0  0
 27 31  2  0  0  0  0
 28 34  1  6  0  0  0
 28 29  1  0  0  0  0
 29 30  1  0  0  0  0
 30 25  1  6  0  0  0
 31 30  1  0  0  0  0
 32 27  1  0  0  0  0
 33 28  1  0  0  0  0
 33 26  1  1  0  0  0
 33 27  1  0  0  0  0
 35 34  1  0  0  0  0
 36 35  1  0  0  0  0
 38 37  1  0  0  0  0
 39 41  2  0  0  0  0
 40 39  1  0  0  0  0
 40 45  1  0  0  0  0
 42 47  1  0  0  0  0
 43 42  2  0  0  0  0
 44 45  1  0  0  0  0
 44 43  1  0  0  0  0
 45 46  2  0  0  0  0
 46 41  1  0  0  0  0
 46 42  1  0  0  0  0
 47 38  1  0  0  0  0
 49 51  1  0  0  0  0
 49 53  1  0  0  0  0
 49 50  1  1  0  0  0
 51 54  1  6  0  0  0
 51 52  1  0  0  0  0
 53 52  1  0  0  0  0
 53 48  1  1  0  0  0
 54 55  1  1  0  0  0
 56 54  1  0  0  0  0
 56 57  1  0  0  0  0
 58 57  1  0  0  0  0
 58 62  1  1  0  0  0
 58 61  1  0  0  0  0
 59 61  2  0  0  0  0
 61 60  2  0  0  0  0
 63 62  1  0  0  0  0
 63 64  1  0  0  0  0
 64 65  2  0  0  0  0
 66 49  1  0  0  0  0
 67 66  1  0  0  0  0
M  END
>  <MODEL>
3

>  <REMARK>
 VINA RESULT:      -4.8      2.659      6.054
  Name = 
  24 active torsions:
  status: ('A' for Active; 'I' for Inactive)
    1  A    between atoms: C_1  and  O_51
    2  A    between atoms: N_4  and  CA_29
    3  A    between atoms: C_7  and  C_32
    4  A    between atoms: C_7  and  N_54
    5  A    between atoms: C_10  and  C_25
    6  A    between atoms: C_10  and  C_38
    7  A    between atoms: C_14  and  O_18
    8  A    between atoms: C_15  and  C_34
    9  A    between atoms: C_16  and  O_18
   10  A    between atoms: C_19  and  C_30
   11  A    between atoms: C_19  and  C_65
   12  A    between atoms: C_21  and  C_48
   13  A    between atoms: C_22  and  N_37
   14  A    between atoms: C_22  and  C_48
   15  A    between atoms: C_22  and  C_52
   16  A    between atoms: C_25  and  O_60
   17  A    between atoms: C_26  and  C_45
   18  A    between atoms: CA_29  and  C_40
   19  A    between atoms: N_37  and  N_39
   20  A    between atoms: N_39  and  N_63
   21  A    between atoms: C_44  and  C_45
   22  A    between atoms: C_44  and  C_50
   23  A    between atoms: C_50  and  O_60
   24  A    between atoms: C_50  and  N_66
                            x       y       z     vdW  Elec       q    Type
                         _______ _______ _______ _____ _____    ______ ____

>  <TORSDO>
F 24

$$$$
=
 OpenBabel10222417353D

 67 72  0  0  1  0  0  0  0  0999 V2000
  190.2820  177.8450  140.9370 N   0  0  0  0  0  0  0  0  0  0  0  0
  188.0960  175.3320  135.2830 O   0  0  0  0  0  0  0  0  0  0  0  0
  189.3180  175.5820  137.2680 C   0  0  0  0  0  2  0  0  0  0  0  0
  185.1970  176.9990  136.6190 C   0  0  1  0  0  3  0  0  0  0  0  0
  189.3820  175.1330  135.8350 C   0  0  2  0  0  3  0  0  0  0  0  0
  188.4310  177.0740  139.6450 N   0  0  0  0  0  2  0  0  0  0  0  0
  185.8830  178.2300  137.2140 C   0  0  0  0  0  2  0  0  0  0  0  0
  186.1960  175.8520  136.4100 C   0  0  0  0  0  2  0  0  0  0  0  0
  189.6720  177.7650  139.7910 C   0  0  0  0  0  3  0  0  0  0  0  0
  187.6930  177.1520  138.4230 C   0  0  0  0  0  0  0  0  0  0  0  0
  188.3690  176.7150  137.1210 C   0  0  2  0  0  3  0  0  0  0  0  0
  187.4980  176.3540  135.9820 N   0  0  1  0  0  0  0  0  0  0  0  0
  186.6200  177.8840  138.4190 N   0  0  0  0  0  0  0  0  0  0  0  0
  189.8260  177.2010  142.1270 C   0  0  0  0  0  0  0  0  0  0  0  0
  188.6690  177.5870  142.6760 C   0  0  0  0  0  3  0  0  0  0  0  0
  188.7020  177.5830  145.1480 C   0  0  0  0  0  1  0  0  0  0  0  0
  188.0930  176.9610  143.9030 C   0  0  0  0  0  2  0  0  0  0  0  0
  190.6290  176.0660  142.6940 C   0  0  0  0  0  2  0  0  0  0  0  0
  191.3510  176.4980  143.8120 O   0  0  0  0  0  1  0  0  0  0  0  0
  184.0400  176.4790  137.4860 C   0  0  0  0  0  2  0  0  0  0  0  0
  182.7010  176.3640  136.7430 C   0  0  1  0  0  3  0  0  0  0  0  0
  181.7690  177.4830  137.0930 C   0  0  0  0  0  0  0  0  0  0  0  0
  182.2800  178.7210  137.6050 N   0  0  0  0  0  2  0  0  0  0  0  0
  180.5320  177.3360  136.9010 O   0  0  0  0  0  0  0  0  0  0  0  0
  181.4210  179.7820  138.1250 C   0  0  0  0  0  2  0  0  0  0  0  0
  179.9230  177.6160  143.0240 O   0  0  0  0  0  1  0  0  0  0  0  0
  179.9810  177.4090  140.6500 C   0  0  0  0  0  0  0  0  0  0  0  0
  181.4670  179.0830  141.9010 C   0  0  1  0  0  3  0  0  0  0  0  0
  182.0230  179.4010  140.5160 C   0  0  0  0  0  2  0  0  0  0  0  0
  180.8760  179.4460  139.5130 C   0  0  2  0  0  3  0  0  0  0  0  0
  180.1040  178.1490  139.5370 C   0  0  0  0  0  3  0  0  0  0  0  0
  179.2610  176.2600  140.5920 F   0  0  0  0  0  0  0  0  0  0  0  0
  180.7600  177.7150  141.9110 C   0  0  1  0  0  3  0  0  0  0  0  0
  182.5150  179.0710  142.8320 O   0  0  0  0  0  0  0  0  0  0  0  0
  183.5020  178.2560  142.2660 C   0  0  0  0  0  2  0  0  0  0  0  0
  184.6040  178.2050  143.1080 O   0  0  0  0  0  1  0  0  0  0  0  0
  182.8950  176.2580  135.2970 N   0  0  0  0  0  2  0  0  0  0  0  0
  181.8880  175.4350  134.7600 N   0  0  0  0  0  2  0  0  0  0  0  0
  183.9240  169.8240  135.7490 C   0  0  0  0  0  3  0  0  0  0  0  0
  182.9200  169.9900  136.7550 O   0  0  0  0  0  0  0  0  0  0  0  0
  183.8320  171.0910  134.8690 C   0  0  0  0  0  3  0  0  0  0  0  0
  182.0900  173.0870  135.4880 C   0  0  0  0  0  0  0  0  0  0  0  0
  181.3270  173.2370  136.5240 N   0  0  0  0  0  0  0  0  0  0  0  0
  181.2800  171.9700  137.2680 C   0  0  0  0  0  2  0  0  0  0  0  0
  182.2190  171.1350  136.4780 C   0  0  0  0  0  0  0  0  0  0  0  0
  182.6210  171.7380  135.4200 C   0  0  0  0  0  0  0  0  0  0  0  0
  182.4370  174.1520  134.6020 N   0  0  0  0  0  2  0  0  0  0  0  0
  190.3840  175.9780  135.0460 C   0  0  0  0  0  2  0  0  0  0  0  0
  192.7410  175.3720  135.8730 C   0  0  1  0  0  0  0  0  0  0  0  0
  192.4140  176.4190  136.9560 C   0  0  0  0  0  1  0  0  0  0  0  0
  192.4010  173.9410  136.3240 C   0  0  1  0  0  3  0  0  0  0  0  0
  191.4930  173.7770  135.1110 C   0  0  0  0  0  2  0  0  0  0  0  0
  191.6900  175.2420  134.7470 C   0  0  1  0  0  3  0  0  0  0  0  0
  193.5720  172.9480  136.4340 C   0  0  2  0  0  3  0  0  0  0  0  0
  193.1390  171.6330  136.6180 O   0  0  0  0  0  1  0  0  0  0  0  0
  194.4890  173.3680  137.5740 C   0  0  0  0  0  2  0  0  0  0  0  0
  195.7530  172.7950  137.3850 O   0  0  0  0  0  0  0  0  0  0  0  0
  196.5470  173.7630  136.7400 C   0  0  1  0  0  3  0  0  0  0  0  0
  198.5140  175.0800  137.3580 O   0  0  0  0  0  0  0  0  0  0  0  0
  196.7950  174.8210  138.8030 O   0  0  0  0  0  0  0  0  0  0  0  0
  197.3350  174.4720  137.7380 N   0  0  0  0  0  0  0  0  0  0  0  0
  197.4840  173.0940  135.7170 C   0  0  0  0  0  2  0  0  0  0  0  0
  198.3330  171.9940  136.3400 C   0  0  0  0  0  2  0  0  0  0  0  0
  198.4130  170.7730  135.4710 C   0  0  0  0  0  3  0  0  0  0  0  0
  198.9030  169.7410  135.8930 O   0  0  0  0  0  0  0  0  0  0  0  0
  194.0280  175.5220  135.2860 O   0  0  0  0  0  0  0  0  0  0  0  0
  194.4110  176.8710  135.3410 C   0  0  0  0  0  1  0  0  0  0  0  0
  1 14  1  0  0  0  0
  2  5  1  0  0  0  0
  2 12  1  0  0  0  0
  4  7  1  0  0  0  0
  4 20  1  1  0  0  0
  5 48  1  6  0  0  0
  5  3  1  0  0  0  0
  6  9  1  0  0  0  0
  7 13  1  0  0  0  0
  8  4  1  0  0  0  0
  9  1  2  0  0  0  0
 10  6  1  0  0  0  0
 11  3  1  1  0  0  0
 11 10  1  0  0  0  0
 12  8  1  1  0  0  0
 12 11  1  0  0  0  0
 13 10  2  0  0  0  0
 14 15  2  0  0  0  0
 14 18  1  0  0  0  0
 15 17  1  0  0  0  0
 17 16  1  0  0  0  0
 18 19  1  0  0  0  0
 21 22  1  0  0  0  0
 21 20  1  1  0  0  0
 22 23  1  0  0  0  0
 23 25  1  0  0  0  0
 24 22  2  0  0  0  0
 27 33  1  0  0  0  0
 28 33  1  0  0  0  0
 28 34  1  1  0  0  0
 29 28  1  0  0  0  0
 30 25  1  6  0  0  0
 30 31  1  0  0  0  0
 30 29  1  0  0  0  0
 31 27  2  0  0  0  0
 32 27  1  0  0  0  0
 33 26  1  1  0  0  0
 35 34  1  0  0  0  0
 35 36  1  0  0  0  0
 37 21  1  0  0  0  0
 38 37  1  0  0  0  0
 39 40  1  0  0  0  0
 41 46  1  0  0  0  0
 41 39  2  0  0  0  0
 42 43  2  0  0  0  0
 43 44  1  0  0  0  0
 45 40  1  0  0  0  0
 45 44  1  0  0  0  0
 46 42  1  0  0  0  0
 46 45  2  0  0  0  0
 47 38  1  0  0  0  0
 47 42  1  0  0  0  0
 49 51  1  0  0  0  0
 49 50  1  1  0  0  0
 51 54  1  6  0  0  0
 52 51  1  0  0  0  0
 53 48  1  1  0  0  0
 53 52  1  0  0  0  0
 53 49  1  0  0  0  0
 54 55  1  1  0  0  0
 54 56  1  0  0  0  0
 57 56  1  0  0  0  0
 58 62  1  6  0  0  0
 58 57  1  0  0  0  0
 58 61  1  0  0  0  0
 59 61  2  0  0  0  0
 61 60  2  0  0  0  0
 62 63  1  0  0  0  0
 64 65  2  0  0  0  0
 64 63  1  0  0  0  0
 66 67  1  0  0  0  0
 66 49  1  0  0  0  0
M  END
>  <MODEL>
4

>  <REMARK>
 VINA RESULT:      -4.8      2.373      3.543
  Name = 
  24 active torsions:
  status: ('A' for Active; 'I' for Inactive)
    1  A    between atoms: C_1  and  O_51
    2  A    between atoms: N_4  and  CA_29
    3  A    between atoms: C_7  and  C_32
    4  A    between atoms: C_7  and  N_54
    5  A    between atoms: C_10  and  C_25
    6  A    between atoms: C_10  and  C_38
    7  A    between atoms: C_14  and  O_18
    8  A    between atoms: C_15  and  C_34
    9  A    between atoms: C_16  and  O_18
   10  A    between atoms: C_19  and  C_30
   11  A    between atoms: C_19  and  C_65
   12  A    between atoms: C_21  and  C_48
   13  A    between atoms: C_22  and  N_37
   14  A    between atoms: C_22  and  C_48
   15  A    between atoms: C_22  and  C_52
   16  A    between atoms: C_25  and  O_60
   17  A    between atoms: C_26  and  C_45
   18  A    between atoms: CA_29  and  C_40
   19  A    between atoms: N_37  and  N_39
   20  A    between atoms: N_39  and  N_63
   21  A    between atoms: C_44  and  C_45
   22  A    between atoms: C_44  and  C_50
   23  A    between atoms: C_50  and  O_60
   24  A    between atoms: C_50  and  N_66
                            x       y       z     vdW  Elec       q    Type
                         _______ _______ _______ _____ _____    ______ ____

>  <TORSDO>
F 24

$$$$
=
 OpenBabel10222417353D

 67 72  0  0  1  0  0  0  0  0999 V2000
  186.6640  178.4590  136.3090 N   0  0  0  0  0  0  0  0  0  0  0  0
  183.4080  178.3670  142.0060 O   0  0  0  0  0  0  0  0  0  0  0  0
  183.8940  178.0850  139.7300 C   0  0  0  0  0  2  0  0  0  0  0  0
  186.8330  177.8820  143.0060 C   0  0  1  0  0  3  0  0  0  0  0  0
  182.8250  178.4520  140.7200 C   0  0  2  0  0  3  0  0  0  0  0  0
  186.5860  177.7520  138.5850 N   0  0  0  0  0  2  0  0  0  0  0  0
  187.5090  178.8260  142.0100 C   0  0  0  0  0  2  0  0  0  0  0  0
  185.4310  177.4790  142.5280 C   0  0  0  0  0  2  0  0  0  0  0  0
  186.3660  178.7110  137.5500 C   0  0  0  0  0  3  0  0  0  0  0  0
  186.4210  178.1130  139.9590 C   0  0  0  0  0  0  0  0  0  0  0  0
  185.0730  178.6670  140.4220 C   0  0  2  0  0  3  0  0  0  0  0  0
  184.7570  178.5920  141.8650 N   0  0  1  0  0  0  0  0  0  0  0  0
  187.4990  178.2640  140.6690 N   0  0  0  0  0  0  0  0  0  0  0  0
  187.1560  177.2010  135.8470 C   0  0  0  0  0  0  0  0  0  0  0  0
  186.4450  176.0940  136.0880 C   0  0  0  0  0  3  0  0  0  0  0  0
  185.6860  173.7730  135.7050 C   0  0  0  0  0  1  0  0  0  0  0  0
  186.8580  174.7360  135.6260 C   0  0  0  0  0  2  0  0  0  0  0  0
  188.4280  177.1640  135.0500 C   0  0  0  0  0  2  0  0  0  0  0  0
  189.3340  178.1080  135.5450 O   0  0  0  0  0  1  0  0  0  0  0  0
  187.6420  176.6000  143.2610 C   0  0  0  0  0  2  0  0  0  0  0  0
  188.7880  176.7690  144.2670 C   0  0  1  0  0  3  0  0  0  0  0  0
  190.1230  176.8270  143.5910 C   0  0  0  0  0  0  0  0  0  0  0  0
  190.5900  178.0520  143.0090 N   0  0  0  0  0  2  0  0  0  0  0  0
  190.8470  175.7960  143.5680 O   0  0  0  0  0  0  0  0  0  0  0  0
  191.7970  178.1330  142.1890 C   0  0  0  0  0  2  0  0  0  0  0  0
  191.3740  175.7970  137.1600 O   0  0  0  0  0  1  0  0  0  0  0  0
  190.4600  177.2750  138.7900 C   0  0  0  0  0  0  0  0  0  0  0  0
  192.8900  176.4670  138.9060 C   0  0  1  0  0  3  0  0  0  0  0  0
  192.9800  177.3780  140.1270 C   0  0  0  0  0  2  0  0  0  0  0  0
  191.7080  177.2380  140.9540 C   0  0  2  0  0  3  0  0  0  0  0  0
  190.4940  177.5330  140.1070 C   0  0  0  0  0  3  0  0  0  0  0  0
  189.3260  177.5600  138.1000 F   0  0  0  0  0  0  0  0  0  0  0  0
  191.6900  176.8500  138.0190 C   0  0  1  0  0  3  0  0  0  0  0  0
  194.0710  176.5700  138.1590 O   0  0  0  0  0  0  0  0  0  0  0  0
  194.5680  175.2640  138.0730 C   0  0  0  0  0  2  0  0  0  0  0  0
  195.7760  175.1800  138.7530 O   0  0  0  0  0  1  0  0  0  0  0  0
  188.5750  177.9270  145.1350 N   0  0  0  0  0  2  0  0  0  0  0  0
  188.2720  177.4760  146.4340 N   0  0  0  0  0  2  0  0  0  0  0  0
  193.1180  177.5030  150.0570 C   0  0  0  0  0  3  0  0  0  0  0  0
  193.3180  176.3370  149.2510 O   0  0  0  0  0  0  0  0  0  0  0  0
  191.8720  178.1980  149.4640 C   0  0  0  0  0  3  0  0  0  0  0  0
  190.5080  177.0760  147.3950 C   0  0  0  0  0  0  0  0  0  0  0  0
  190.6570  175.9220  146.8270 N   0  0  0  0  0  0  0  0  0  0  0  0
  191.9340  175.3370  147.2630 C   0  0  0  0  0  2  0  0  0  0  0  0
  192.4060  176.3600  148.2280 C   0  0  0  0  0  0  0  0  0  0  0  0
  191.6400  177.3890  148.2480 C   0  0  0  0  0  0  0  0  0  0  0  0
  189.3290  177.8710  147.2700 N   0  0  0  0  0  2  0  0  0  0  0  0
  182.3500  179.8890  140.4980 C   0  0  0  0  0  2  0  0  0  0  0  0
  181.1050  180.9020  138.4900 C   0  0  1  0  0  0  0  0  0  0  0  0
  182.3720  181.7770  138.4010 C   0  0  0  0  0  1  0  0  0  0  0  0
  181.1920  179.6580  137.5890 C   0  0  1  0  0  3  0  0  0  0  0  0
  180.9550  178.7660  138.8020 C   0  0  0  0  0  2  0  0  0  0  0  0
  181.0330  179.9750  139.7240 C   0  0  1  0  0  3  0  0  0  0  0  0
  180.1600  179.5470  136.4530 C   0  0  2  0  0  3  0  0  0  0  0  0
  178.9460  179.0120  136.8870 O   0  0  0  0  0  1  0  0  0  0  0  0
  180.7370  178.7040  135.3240 C   0  0  0  0  0  2  0  0  0  0  0  0
  180.1990  177.4120  135.3910 O   0  0  0  0  0  0  0  0  0  0  0  0
  181.2250  176.5230  135.0180 C   0  0  1  0  0  3  0  0  0  0  0  0
  182.9670  176.5980  136.7350 O   0  0  0  0  0  0  0  0  0  0  0  0
  183.2940  177.5530  134.7120 O   0  0  0  0  0  0  0  0  0  0  0  0
  182.4970  177.0310  135.5130 N   0  0  0  0  0  0  0  0  0  0  0  0
  180.9610  175.1230  135.6040 C   0  0  0  0  0  2  0  0  0  0  0  0
  179.4970  174.7160  135.5010 C   0  0  0  0  0  2  0  0  0  0  0  0
  179.2970  173.2460  135.7190 C   0  0  0  0  0  3  0  0  0  0  0  0
  179.7580  172.4330  134.9360 O   0  0  0  0  0  0  0  0  0  0  0  0
  179.8870  181.6280  138.3880 O   0  0  0  0  0  0  0  0  0  0  0  0
  179.2680  181.6790  139.6460 C   0  0  0  0  0  1  0  0  0  0  0  0
  1  9  2  0  0  0  0
  3  5  1  0  0  0  0
  4 20  1  6  0  0  0
  5 48  1  6  0  0  0
  5  2  1  0  0  0  0
  6 10  1  0  0  0  0
  7  4  1  0  0  0  0
  8  4  1  0  0  0  0
  9  6  1  0  0  0  0
 10 11  1  0  0  0  0
 10 13  2  0  0  0  0
 11  3  1  6  0  0  0
 11 12  1  0  0  0  0
 12  2  1  0  0  0  0
 12  8  1  6  0  0  0
 13  7  1  0  0  0  0
 14 15  2  0  0  0  0
 14  1  1  0  0  0  0
 17 16  1  0  0  0  0
 17 15  1  0  0  0  0
 18 19  1  0  0  0  0
 18 14  1  0  0  0  0
 21 20  1  6  0  0  0
 21 37  1  0  0  0  0
 22 21  1  0  0  0  0
 23 22  1  0  0  0  0
 24 22  2  0  0  0  0
 25 23  1  0  0  0  0
 27 31  2  0  0  0  0
 28 34  1  6  0  0  0
 28 29  1  0  0  0  0
 29 30  1  0  0  0  0
 30 25  1  1  0  0  0
 31 30  1  0  0  0  0
 32 27  1  0  0  0  0
 33 26  1  1  0  0  0
 33 27  1  0  0  0  0
 33 28  1  0  0  0  0
 35 34  1  0  0  0  0
 35 36  1  0  0  0  0
 37 38  1  0  0  0  0
 38 47  1  0  0  0  0
 40 39  1  0  0  0  0
 41 39  2  0  0  0  0
 42 46  1  0  0  0  0
 43 44  1  0  0  0  0
 43 42  2  0  0  0  0
 44 45  1  0  0  0  0
 45 46  2  0  0  0  0
 45 40  1  0  0  0  0
 46 41  1  0  0  0  0
 47 42  1  0  0  0  0
 49 50  1  6  0  0  0
 49 53  1  0  0  0  0
 51 54  1  6  0  0  0
 51 49  1  0  0  0  0
 51 52  1  0  0  0  0
 52 53  1  0  0  0  0
 53 48  1  1  0  0  0
 54 55  1  1  0  0  0
 56 57  1  0  0  0  0
 56 54  1  0  0  0  0
 58 57  1  0  0  0  0
 58 61  1  0  0  0  0
 58 62  1  1  0  0  0
 60 61  2  0  0  0  0
 61 59  2  0  0  0  0
 63 62  1  0  0  0  0
 63 64  1  0  0  0  0
 65 64  2  0  0  0  0
 66 49  1  0  0  0  0
 66 67  1  0  0  0  0
M  END
>  <MODEL>
5

>  <REMARK>
 VINA RESULT:      -4.1      3.247     12.540
  Name = 
  24 active torsions:
  status: ('A' for Active; 'I' for Inactive)
    1  A    between atoms: C_1  and  O_51
    2  A    between atoms: N_4  and  CA_29
    3  A    between atoms: C_7  and  C_32
    4  A    between atoms: C_7  and  N_54
    5  A    between atoms: C_10  and  C_25
    6  A    between atoms: C_10  and  C_38
    7  A    between atoms: C_14  and  O_18
    8  A    between atoms: C_15  and  C_34
    9  A    between atoms: C_16  and  O_18
   10  A    between atoms: C_19  and  C_30
   11  A    between atoms: C_19  and  C_65
   12  A    between atoms: C_21  and  C_48
   13  A    between atoms: C_22  and  N_37
   14  A    between atoms: C_22  and  C_48
   15  A    between atoms: C_22  and  C_52
   16  A    between atoms: C_25  and  O_60
   17  A    between atoms: C_26  and  C_45
   18  A    between atoms: CA_29  and  C_40
   19  A    between atoms: N_37  and  N_39
   20  A    between atoms: N_39  and  N_63
   21  A    between atoms: C_44  and  C_45
   22  A    between atoms: C_44  and  C_50
   23  A    between atoms: C_50  and  O_60
   24  A    between atoms: C_50  and  N_66
                            x       y       z     vdW  Elec       q    Type
                         _______ _______ _______ _____ _____    ______ ____

>  <TORSDO>
F 24

$$$$
=
 OpenBabel10222417353D

 67 72  0  0  1  0  0  0  0  0999 V2000
  191.2780  178.0060  143.3810 N   0  0  0  0  0  0  0  0  0  0  0  0
  188.2950  176.4180  137.7560 O   0  0  0  0  0  0  0  0  0  0  0  0
  189.6910  176.2860  139.6340 C   0  0  0  0  0  2  0  0  0  0  0  0
  185.8040  178.3560  139.4910 C   0  0  1  0  0  3  0  0  0  0  0  0
  189.5730  175.9770  138.1690 C   0  0  2  0  0  3  0  0  0  0  0  0
  189.2350  177.6500  142.2030 N   0  0  0  0  0  2  0  0  0  0  0  0
  186.7180  179.4060  140.1250 C   0  0  0  0  0  2  0  0  0  0  0  0
  186.5920  177.0990  139.0940 C   0  0  0  0  0  2  0  0  0  0  0  0
  190.5770  178.1320  142.2930 C   0  0  0  0  0  3  0  0  0  0  0  0
  188.4260  177.9580  141.0650 C   0  0  0  0  0  0  0  0  0  0  0  0
  188.9220  177.5570  139.6740 C   0  0  2  0  0  3  0  0  0  0  0  0
  187.9200  177.4430  138.5930 N   0  0  1  0  0  0  0  0  0  0  0  0
  187.4830  178.8370  141.2230 N   0  0  0  0  0  0  0  0  0  0  0  0
  190.8220  177.3220  144.5480 C   0  0  0  0  0  0  0  0  0  0  0  0
  191.6800  177.0960  145.5490 C   0  0  0  0  0  3  0  0  0  0  0  0
  192.4620  175.5990  147.3540 C   0  0  0  0  0  1  0  0  0  0  0  0
  191.2960  176.4140  146.8210 C   0  0  0  0  0  2  0  0  0  0  0  0
  189.3750  176.9310  144.6450 C   0  0  0  0  0  2  0  0  0  0  0  0
  188.6300  177.9780  145.1980 O   0  0  0  0  0  1  0  0  0  0  0  0
  184.6510  177.9300  140.4130 C   0  0  0  0  0  2  0  0  0  0  0  0
  183.2650  178.0000  139.7580 C   0  0  1  0  0  3  0  0  0  0  0  0
  183.2820  177.4840  138.3520 C   0  0  0  0  0  0  0  0  0  0  0  0
  183.0180  176.1000  138.0830 N   0  0  0  0  0  2  0  0  0  0  0  0
  183.4990  178.2860  137.4040 O   0  0  0  0  0  0  0  0  0  0  0  0
  183.1890  175.5000  136.7620 C   0  0  0  0  0  2  0  0  0  0  0  0
  183.7840  170.0030  136.1600 O   0  0  0  0  0  1  0  0  0  0  0  0
  182.3250  171.8850  136.2480 C   0  0  0  0  0  0  0  0  0  0  0  0
  184.8520  172.1460  135.9050 C   0  0  1  0  0  3  0  0  0  0  0  0
  184.5350  173.6350  135.7960 C   0  0  0  0  0  2  0  0  0  0  0  0
  183.5000  174.0060  136.8500 C   0  0  2  0  0  3  0  0  0  0  0  0
  182.2680  173.1460  136.7050 C   0  0  0  0  0  3  0  0  0  0  0  0
  181.1730  171.1730  136.1560 F   0  0  0  0  0  0  0  0  0  0  0  0
  183.5910  171.2950  135.6670 C   0  0  1  0  0  3  0  0  0  0  0  0
  185.8280  171.8060  134.9570 O   0  0  0  0  0  0  0  0  0  0  0  0
  186.9790  171.5180  135.6990 C   0  0  0  0  0  2  0  0  0  0  0  0
  188.0960  171.6080  134.8800 O   0  0  0  0  0  1  0  0  0  0  0  0
  182.2520  177.3220  140.5660 N   0  0  0  0  0  2  0  0  0  0  0  0
  180.9900  177.8740  140.2770 N   0  0  0  0  0  2  0  0  0  0  0  0
  181.1990  183.0220  137.1050 C   0  0  0  0  0  3  0  0  0  0  0  0
  180.0850  182.3300  136.5330 O   0  0  0  0  0  0  0  0  0  0  0  0
  181.6380  182.1610  138.3110 C   0  0  0  0  0  3  0  0  0  0  0  0
  180.4000  179.7990  138.8530 C   0  0  0  0  0  0  0  0  0  0  0  0
  179.5020  179.1540  138.1790 N   0  0  0  0  0  0  0  0  0  0  0  0
  178.9620  180.0400  137.1360 C   0  0  0  0  0  2  0  0  0  0  0  0
  179.7900  181.2560  137.3310 C   0  0  0  0  0  0  0  0  0  0  0  0
  180.5540  181.1550  138.3560 C   0  0  0  0  0  0  0  0  0  0  0  0
  181.1980  179.2040  139.8760 N   0  0  0  0  0  2  0  0  0  0  0  0
  190.6300  176.7380  137.3670 C   0  0  0  0  0  2  0  0  0  0  0  0
  192.7380  175.7200  136.3040 C   0  0  1  0  0  0  0  0  0  0  0  0
  193.4480  176.5770  137.3720 C   0  0  0  0  0  1  0  0  0  0  0  0
  192.4920  174.2790  136.7820 C   0  0  1  0  0  3  0  0  0  0  0  0
  190.9990  174.4510  136.5230 C   0  0  0  0  0  2  0  0  0  0  0  0
  191.2090  175.9250  136.2080 C   0  0  1  0  0  3  0  0  0  0  0  0
  193.1910  173.1550  135.9980 C   0  0  2  0  0  3  0  0  0  0  0  0
  192.2880  172.2260  135.4790 O   0  0  0  0  0  1  0  0  0  0  0  0
  194.2050  172.4620  136.8990 C   0  0  0  0  0  2  0  0  0  0  0  0
  195.3910  173.2070  136.9180 O   0  0  0  0  0  0  0  0  0  0  0  0
  196.4490  172.2850  137.0270 C   0  0  1  0  0  3  0  0  0  0  0  0
  196.7110  172.3170  134.5940 O   0  0  0  0  0  0  0  0  0  0  0  0
  196.9790  170.4000  135.7610 O   0  0  0  0  0  0  0  0  0  0  0  0
  196.6030  171.5860  135.7590 N   0  0  0  0  0  0  0  0  0  0  0  0
  197.7600  173.0120  137.3810 C   0  0  0  0  0  2  0  0  0  0  0  0
  197.5490  174.4980  137.6370 C   0  0  0  0  0  2  0  0  0  0  0  0
  197.2400  174.7910  139.0750 C   0  0  0  0  0  3  0  0  0  0  0  0
  197.9210  175.5790  139.7100 O   0  0  0  0  0  0  0  0  0  0  0  0
  193.2990  175.8280  135.0020 O   0  0  0  0  0  0  0  0  0  0  0  0
  194.5550  176.4480  135.0860 C   0  0  0  0  0  1  0  0  0  0  0  0
  1 14  1  0  0  0  0
  2  5  1  0  0  0  0
  2 12  1  0  0  0  0
  4  7  1  0  0  0  0
  4 20  1  1  0  0  0
  5 48  1  6  0  0  0
  5  3  1  0  0  0  0
  6  9  1  0  0  0  0
  7 13  1  0  0  0  0
  8  4  1  0  0  0  0
  9  1  2  0  0  0  0
 10 13  2  0  0  0  0
 10  6  1  0  0  0  0
 11  3  1  1  0  0  0
 11 10  1  0  0  0  0
 12  8  1  1  0  0  0
 12 11  1  0  0  0  0
 14 18  1  0  0  0  0
 14 15  2  0  0  0  0
 15 17  1  0  0  0  0
 17 16  1  0  0  0  0
 18 19  1  0  0  0  0
 21 20  1  1  0  0  0
 21 37  1  0  0  0  0
 22 21  1  0  0  0  0
 23 22  1  0  0  0  0
 24 22  2  0  0  0  0
 25 23  1  0  0  0  0
 27 31  2  0  0  0  0
 28 34  1  6  0  0  0
 29 28  1  0  0  0  0
 29 30  1  0  0  0  0
 30 25  1  6  0  0  0
 31 30  1  0  0  0  0
 32 27  1  0  0  0  0
 33 28  1  0  0  0  0
 33 26  1  1  0  0  0
 33 27  1  0  0  0  0
 34 35  1  0  0  0  0
 36 35  1  0  0  0  0
 38 37  1  0  0  0  0
 39 41  2  0  0  0  0
 40 39  1  0  0  0  0
 40 45  1  0  0  0  0
 41 46  1  0  0  0  0
 42 47  1  0  0  0  0
 43 42  2  0  0  0  0
 44 45  1  0  0  0  0
 44 43  1  0  0  0  0
 45 46  2  0  0  0  0
 46 42  1  0  0  0  0
 47 38  1  0  0  0  0
 49 51  1  0  0  0  0
 49 50  1  1  0  0  0
 51 54  1  6  0  0  0
 52 51  1  0  0  0  0
 53 49  1  0  0  0  0
 53 52  1  0  0  0  0
 53 48  1  1  0  0  0
 54 55  1  1  0  0  0
 54 56  1  0  0  0  0
 56 57  1  0  0  0  0
 57 58  1  0  0  0  0
 58 62  1  6  0  0  0
 59 61  2  0  0  0  0
 61 60  2  0  0  0  0
 61 58  1  0  0  0  0
 62 63  1  0  0  0  0
 63 64  1  0  0  0  0
 64 65  2  0  0  0  0
 66 67  1  0  0  0  0
 66 49  1  0  0  0  0
M  END
>  <MODEL>
6

>  <REMARK>
 VINA RESULT:      -4.1      2.419      6.293
  Name = 
  24 active torsions:
  status: ('A' for Active; 'I' for Inactive)
    1  A    between atoms: C_1  and  O_51
    2  A    between atoms: N_4  and  CA_29
    3  A    between atoms: C_7  and  C_32
    4  A    between atoms: C_7  and  N_54
    5  A    between atoms: C_10  and  C_25
    6  A    between atoms: C_10  and  C_38
    7  A    between atoms: C_14  and  O_18
    8  A    between atoms: C_15  and  C_34
    9  A    between atoms: C_16  and  O_18
   10  A    between atoms: C_19  and  C_30
   11  A    between atoms: C_19  and  C_65
   12  A    between atoms: C_21  and  C_48
   13  A    between atoms: C_22  and  N_37
   14  A    between atoms: C_22  and  C_48
   15  A    between atoms: C_22  and  C_52
   16  A    between atoms: C_25  and  O_60
   17  A    between atoms: C_26  and  C_45
   18  A    between atoms: CA_29  and  C_40
   19  A    between atoms: N_37  and  N_39
   20  A    between atoms: N_39  and  N_63
   21  A    between atoms: C_44  and  C_45
   22  A    between atoms: C_44  and  C_50
   23  A    between atoms: C_50  and  O_60
   24  A    between atoms: C_50  and  N_66
                            x       y       z     vdW  Elec       q    Type
                         _______ _______ _______ _____ _____    ______ ____

>  <TORSDO>
F 24

$$$$
=
 OpenBabel10222417353D

 67 72  0  0  1  0  0  0  0  0999 V2000
  185.1470  179.7970  142.3680 N   0  0  0  0  0  0  0  0  0  0  0  0
  189.9210  176.4990  139.3020 O   0  0  0  0  0  0  0  0  0  0  0  0
  188.5040  177.2700  141.0030 C   0  0  0  0  0  2  0  0  0  0  0  0
  187.3920  176.8390  136.7620 C   0  0  1  0  0  3  0  0  0  0  0  0
  189.9110  176.8620  140.6690 C   0  0  2  0  0  3  0  0  0  0  0  0
  185.7750  178.3040  140.6170 N   0  0  0  0  0  2  0  0  0  0  0  0
  186.9120  178.2540  137.0900 C   0  0  0  0  0  2  0  0  0  0  0  0
  188.1160  176.2050  137.9580 C   0  0  0  0  0  2  0  0  0  0  0  0
  185.9910  179.4500  141.4410 C   0  0  0  0  0  3  0  0  0  0  0  0
  186.6190  178.0470  139.4920 C   0  0  0  0  0  0  0  0  0  0  0  0
  188.1260  177.9050  139.7140 C   0  0  2  0  0  3  0  0  0  0  0  0
  188.9100  177.1940  138.6820 N   0  0  1  0  0  0  0  0  0  0  0  0
  186.1230  178.2670  138.3110 N   0  0  0  0  0  0  0  0  0  0  0  0
  183.9820  179.0440  142.7050 C   0  0  0  0  0  0  0  0  0  0  0  0
  183.0900  178.7600  141.7490 C   0  0  0  0  0  3  0  0  0  0  0  0
  180.6720  178.8770  142.2500 C   0  0  0  0  0  1  0  0  0  0  0  0
  181.8540  177.9580  141.9920 C   0  0  0  0  0  2  0  0  0  0  0  0
  183.8210  178.5390  144.1100 C   0  0  0  0  0  2  0  0  0  0  0  0
  183.1170  179.4720  144.8790 O   0  0  0  0  0  1  0  0  0  0  0  0
  186.2500  175.9020  136.3380 C   0  0  0  0  0  2  0  0  0  0  0  0
  184.8480  176.4280  136.6740 C   0  0  1  0  0  3  0  0  0  0  0  0
  183.8350  176.0200  135.6480 C   0  0  0  0  0  0  0  0  0  0  0  0
  183.2250  174.7230  135.7060 N   0  0  0  0  0  2  0  0  0  0  0  0
  183.5010  176.8410  134.7530 O   0  0  0  0  0  0  0  0  0  0  0  0
  182.3660  174.2010  134.6460 C   0  0  0  0  0  2  0  0  0  0  0  0
  179.0000  170.4520  137.0010 O   0  0  0  0  0  1  0  0  0  0  0  0
  180.7640  170.9080  135.4650 C   0  0  0  0  0  0  0  0  0  0  0  0
  180.0720  172.5910  137.2710 C   0  0  1  0  0  3  0  0  0  0  0  0
  181.2250  173.4280  136.7250 C   0  0  0  0  0  2  0  0  0  0  0  0
  181.2260  173.3500  135.2040 C   0  0  2  0  0  3  0  0  0  0  0  0
  181.2980  171.9120  134.7500 C   0  0  0  0  0  3  0  0  0  0  0  0
  180.8610  169.6430  134.9840 F   0  0  0  0  0  0  0  0  0  0  0  0
  180.2210  171.1130  136.8620 C   0  0  1  0  0  3  0  0  0  0  0  0
  180.0490  172.6850  138.6700 O   0  0  0  0  0  0  0  0  0  0  0  0
  180.0940  174.0560  138.9480 C   0  0  0  0  0  2  0  0  0  0  0  0
  179.2650  174.3410  140.0240 O   0  0  0  0  0  1  0  0  0  0  0  0
  184.4350  176.0380  138.0220 N   0  0  0  0  0  2  0  0  0  0  0  0
  183.0870  176.4000  138.2100 N   0  0  0  0  0  2  0  0  0  0  0  0
  181.3510  182.1930  138.0640 C   0  0  0  0  0  3  0  0  0  0  0  0
  180.1140  181.4840  138.1860 O   0  0  0  0  0  0  0  0  0  0  0  0
  182.4520  181.1180  138.1940 C   0  0  0  0  0  3  0  0  0  0  0  0
  181.8000  178.4890  138.4560 C   0  0  0  0  0  0  0  0  0  0  0  0
  180.6460  177.9050  138.3870 N   0  0  0  0  0  0  0  0  0  0  0  0
  179.5910  178.9280  138.4380 C   0  0  0  0  0  2  0  0  0  0  0  0
  180.3960  180.1740  138.4720 C   0  0  0  0  0  0  0  0  0  0  0  0
  181.6520  179.9290  138.5640 C   0  0  0  0  0  0  0  0  0  0  0  0
  183.0440  177.7980  138.3320 N   0  0  0  0  0  2  0  0  0  0  0  0
  190.8770  178.0310  140.8670 C   0  0  0  0  0  2  0  0  0  0  0  0
  191.0530  178.5860  143.3710 C   0  0  1  0  0  0  0  0  0  0  0  0
  189.8330  179.4740  143.0560 C   0  0  0  0  0  1  0  0  0  0  0  0
  190.6440  177.1940  143.8830 C   0  0  1  0  0  3  0  0  0  0  0  0
  191.4380  176.5470  142.7550 C   0  0  0  0  0  2  0  0  0  0  0  0
  191.7110  177.9150  142.1430 C   0  0  1  0  0  3  0  0  0  0  0  0
  191.0730  176.8240  145.3130 C   0  0  2  0  0  3  0  0  0  0  0  0
  192.1020  175.8810  145.3330 O   0  0  0  0  0  1  0  0  0  0  0  0
  189.8680  176.3100  146.0890 C   0  0  0  0  0  2  0  0  0  0  0  0
  189.7910  176.9770  147.3180 O   0  0  0  0  0  0  0  0  0  0  0  0
  188.4770  177.4700  147.4330 C   0  0  1  0  0  3  0  0  0  0  0  0
  187.2550  177.3150  149.5470 O   0  0  0  0  0  0  0  0  0  0  0  0
  189.1490  178.5400  149.3920 O   0  0  0  0  0  0  0  0  0  0  0  0
  188.2530  177.9100  148.8020 N   0  0  0  0  0  0  0  0  0  0  0  0
  188.2600  178.6490  146.4650 C   0  0  0  0  0  2  0  0  0  0  0  0
  186.8830  178.6210  145.8160 C   0  0  0  0  0  2  0  0  0  0  0  0
  186.6080  177.3220  145.1170 C   0  0  0  0  0  3  0  0  0  0  0  0
  187.1580  177.0550  144.0630 O   0  0  0  0  0  0  0  0  0  0  0  0
  192.0620  179.2310  144.1380 O   0  0  0  0  0  0  0  0  0  0  0  0
  191.4600  180.0390  145.1140 C   0  0  0  0  0  1  0  0  0  0  0  0
  1 14  1  0  0  0  0
  2  5  1  0  0  0  0
  4 20  1  1  0  0  0
  4  7  1  0  0  0  0
  4  8  1  0  0  0  0
  5 48  1  6  0  0  0
  5  3  1  0  0  0  0
  6  9  1  0  0  0  0
  7 13  1  0  0  0  0
  9  1  2  0  0  0  0
 10 11  1  0  0  0  0
 10  6  1  0  0  0  0
 11  3  1  1  0  0  0
 12  8  1  1  0  0  0
 12  2  1  0  0  0  0
 12 11  1  0  0  0  0
 13 10  2  0  0  0  0
 14 18  1  0  0  0  0
 15 17  1  0  0  0  0
 15 14  2  0  0  0  0
 17 16  1  0  0  0  0
 18 19  1  0  0  0  0
 21 20  1  6  0  0  0
 21 37  1  0  0  0  0
 22 23  1  0  0  0  0
 22 21  1  0  0  0  0
 24 22  2  0  0  0  0
 25 23  1  0  0  0  0
 27 33  1  0  0  0  0
 28 34  1  1  0  0  0
 29 28  1  0  0  0  0
 30 25  1  6  0  0  0
 30 29  1  0  0  0  0
 31 30  1  0  0  0  0
 31 27  2  0  0  0  0
 32 27  1  0  0  0  0
 33 26  1  6  0  0  0
 33 28  1  0  0  0  0
 34 35  1  0  0  0  0
 35 36  1  0  0  0  0
 37 38  1  0  0  0  0
 38 47  1  0  0  0  0
 39 40  1  0  0  0  0
 39 41  2  0  0  0  0
 40 45  1  0  0  0  0
 41 46  1  0  0  0  0
 42 46  1  0  0  0  0
 43 44  1  0  0  0  0
 43 42  2  0  0  0  0
 44 45  1  0  0  0  0
 45 46  2  0  0  0  0
 47 42  1  0  0  0  0
 49 50  1  6  0  0  0
 49 51  1  0  0  0  0
 49 66  1  0  0  0  0
 51 54  1  1  0  0  0
 52 51  1  0  0  0  0
 53 48  1  6  0  0  0
 53 52  1  0  0  0  0
 53 49  1  0  0  0  0
 54 55  1  6  0  0  0
 54 56  1  0  0  0  0
 56 57  1  0  0  0  0
 57 58  1  0  0  0  0
 58 62  1  6  0  0  0
 58 61  1  0  0  0  0
 61 60  2  0  0  0  0
 61 59  2  0  0  0  0
 63 62  1  0  0  0  0
 64 63  1  0  0  0  0
 65 64  2  0  0  0  0
 66 67  1  0  0  0  0
M  END
>  <MODEL>
7

>  <REMARK>
 VINA RESULT:      -3.7      5.054      8.747
  Name = 
  24 active torsions:
  status: ('A' for Active; 'I' for Inactive)
    1  A    between atoms: C_1  and  O_51
    2  A    between atoms: N_4  and  CA_29
    3  A    between atoms: C_7  and  C_32
    4  A    between atoms: C_7  and  N_54
    5  A    between atoms: C_10  and  C_25
    6  A    between atoms: C_10  and  C_38
    7  A    between atoms: C_14  and  O_18
    8  A    between atoms: C_15  and  C_34
    9  A    between atoms: C_16  and  O_18
   10  A    between atoms: C_19  and  C_30
   11  A    between atoms: C_19  and  C_65
   12  A    between atoms: C_21  and  C_48
   13  A    between atoms: C_22  and  N_37
   14  A    between atoms: C_22  and  C_48
   15  A    between atoms: C_22  and  C_52
   16  A    between atoms: C_25  and  O_60
   17  A    between atoms: C_26  and  C_45
   18  A    between atoms: CA_29  and  C_40
   19  A    between atoms: N_37  and  N_39
   20  A    between atoms: N_39  and  N_63
   21  A    between atoms: C_44  and  C_45
   22  A    between atoms: C_44  and  C_50
   23  A    between atoms: C_50  and  O_60
   24  A    between atoms: C_50  and  N_66
                            x       y       z     vdW  Elec       q    Type
                         _______ _______ _______ _____ _____    ______ ____

>  <TORSDO>
F 24

$$$$
=
 OpenBabel10222417353D

 67 72  0  0  1  0  0  0  0  0999 V2000
  187.4260  177.6630  138.9580 N   0  0  0  0  0  0  0  0  0  0  0  0
  181.3100  178.9170  140.9820 O   0  0  0  0  0  0  0  0  0  0  0  0
  183.5560  179.2390  140.3930 C   0  0  0  0  0  2  0  0  0  0  0  0
  180.8620  176.2430  138.6110 C   0  0  1  0  0  3  0  0  0  0  0  0
  182.4690  179.6390  141.3500 C   0  0  2  0  0  3  0  0  0  0  0  0
  185.0860  177.5750  138.5060 N   0  0  0  0  0  2  0  0  0  0  0  0
  182.1050  175.4160  138.9460 C   0  0  0  0  0  2  0  0  0  0  0  0
  181.0120  177.6930  139.0930 C   0  0  0  0  0  2  0  0  0  0  0  0
  186.2120  177.4570  139.3770 C   0  0  0  0  0  3  0  0  0  0  0  0
  183.7840  177.1710  138.9400 C   0  0  0  0  0  0  0  0  0  0  0  0
  183.1900  177.8130  140.1950 C   0  0  2  0  0  3  0  0  0  0  0  0
  181.7230  177.7580  140.3670 N   0  0  1  0  0  0  0  0  0  0  0  0
  183.3100  176.0640  138.4520 N   0  0  0  0  0  0  0  0  0  0  0  0
  187.7500  178.0940  137.6360 C   0  0  0  0  0  0  0  0  0  0  0  0
  188.9260  177.7440  137.1060 C   0  0  0  0  0  3  0  0  0  0  0  0
  188.7300  177.1750  134.7080 C   0  0  0  0  0  1  0  0  0  0  0  0
  189.3490  178.1200  135.7240 C   0  0  0  0  0  2  0  0  0  0  0  0
  186.7330  178.8760  136.8550 C   0  0  0  0  0  2  0  0  0  0  0  0
  185.7440  178.0190  136.3600 O   0  0  0  0  0  1  0  0  0  0  0  0
  180.5430  176.2660  137.1080 C   0  0  0  0  0  2  0  0  0  0  0  0
  180.8730  177.5950  136.4160 C   0  0  1  0  0  3  0  0  0  0  0  0
  182.0680  177.4780  135.5190 C   0  0  0  0  0  0  0  0  0  0  0  0
  182.7020  176.2080  135.3160 N   0  0  0  0  0  2  0  0  0  0  0  0
  182.4890  178.5030  134.9200 O   0  0  0  0  0  0  0  0  0  0  0  0
  183.9660  176.0560  134.5980 C   0  0  0  0  0  2  0  0  0  0  0  0
  186.7490  171.9160  137.0560 O   0  0  0  0  0  1  0  0  0  0  0  0
  186.6320  174.2320  136.5060 C   0  0  0  0  0  0  0  0  0  0  0  0
  184.5820  172.7000  136.3590 C   0  0  1  0  0  3  0  0  0  0  0  0
  183.8400  173.9740  135.9660 C   0  0  0  0  0  2  0  0  0  0  0  0
  184.7070  174.7860  135.0120 C   0  0  2  0  0  3  0  0  0  0  0  0
  186.0510  175.0750  135.6370 C   0  0  0  0  0  3  0  0  0  0  0  0
  187.8470  174.5590  137.0160 F   0  0  0  0  0  0  0  0  0  0  0  0
  185.9080  173.0300  137.0700 C   0  0  1  0  0  3  0  0  0  0  0  0
  183.7740  171.9350  137.2130 O   0  0  0  0  0  0  0  0  0  0  0  0
  183.1710  170.9770  136.3900 C   0  0  0  0  0  2  0  0  0  0  0  0
  184.1270  170.0720  135.9500 O   0  0  0  0  0  1  0  0  0  0  0  0
  179.7150  178.1310  135.7000 N   0  0  0  0  0  2  0  0  0  0  0  0
  178.9860  178.9640  136.5700 N   0  0  0  0  0  2  0  0  0  0  0  0
  182.5060  183.6770  137.9830 C   0  0  0  0  0  3  0  0  0  0  0  0
  181.4120  184.2820  137.2880 O   0  0  0  0  0  0  0  0  0  0  0  0
  182.1200  182.1880  138.1320 C   0  0  0  0  0  3  0  0  0  0  0  0
  179.8130  181.2370  137.0470 C   0  0  0  0  0  0  0  0  0  0  0  0
  178.9500  181.8220  136.2790 N   0  0  0  0  0  0  0  0  0  0  0  0
  179.2170  183.2680  136.2770 C   0  0  0  0  0  2  0  0  0  0  0  0
  180.4290  183.3410  137.1290 C   0  0  0  0  0  0  0  0  0  0  0  0
  180.7260  182.2000  137.6350 C   0  0  0  0  0  0  0  0  0  0  0  0
  179.9050  179.8200  137.1970 N   0  0  0  0  0  2  0  0  0  0  0  0
  182.8410  179.2580  142.7840 C   0  0  0  0  0  2  0  0  0  0  0  0
  184.8260  178.9200  144.3810 C   0  0  1  0  0  0  0  0  0  0  0  0
  183.8120  178.0390  145.1370 C   0  0  0  0  0  1  0  0  0  0  0  0
  185.6930  178.1050  143.4070 C   0  0  1  0  0  3  0  0  0  0  0  0
  185.2360  178.9970  142.2580 C   0  0  0  0  0  2  0  0  0  0  0  0
  184.2500  179.7020  143.1790 C   0  0  1  0  0  3  0  0  0  0  0  0
  187.2070  178.0740  143.6790 C   0  0  2  0  0  3  0  0  0  0  0  0
  187.9610  178.2660  142.5200 O   0  0  0  0  0  1  0  0  0  0  0  0
  187.5780  176.7530  144.3390 C   0  0  0  0  0  2  0  0  0  0  0  0
  188.9710  176.6700  144.4560 O   0  0  0  0  0  0  0  0  0  0  0  0
  189.3770  177.7490  145.2640 C   0  0  1  0  0  3  0  0  0  0  0  0
  188.4810  176.6800  147.2750 O   0  0  0  0  0  0  0  0  0  0  0  0
  190.6930  177.1050  147.0780 O   0  0  0  0  0  0  0  0  0  0  0  0
  189.5440  177.2810  146.6330 N   0  0  0  0  0  0  0  0  0  0  0  0
  190.7060  178.3350  144.7500 C   0  0  0  0  0  2  0  0  0  0  0  0
  191.6610  177.2590  144.2520 C   0  0  0  0  0  2  0  0  0  0  0  0
  191.5800  177.0670  142.7670 C   0  0  0  0  0  3  0  0  0  0  0  0
  190.9770  177.8640  142.0690 O   0  0  0  0  0  0  0  0  0  0  0  0
  185.5490  179.8200  145.2120 O   0  0  0  0  0  0  0  0  0  0  0  0
  185.5980  179.3120  146.5190 C   0  0  0  0  0  1  0  0  0  0  0  0
  1  9  2  0  0  0  0
  2  5  1  0  0  0  0
  3  5  1  0  0  0  0
  4 20  1  6  0  0  0
  4  7  1  0  0  0  0
  4  8  1  0  0  0  0
  5 48  1  1  0  0  0
  6 10  1  0  0  0  0
  6  9  1  0  0  0  0
 10 11  1  0  0  0  0
 11 12  1  0  0  0  0
 11  3  1  6  0  0  0
 12  8  1  6  0  0  0
 12  2  1  0  0  0  0
 13 10  2  0  0  0  0
 13  7  1  0  0  0  0
 14  1  1  0  0  0  0
 15 14  2  0  0  0  0
 16 17  1  0  0  0  0
 17 15  1  0  0  0  0
 18 14  1  0  0  0  0
 19 18  1  0  0  0  0
 21 20  1  6  0  0  0
 22 21  1  0  0  0  0
 23 22  1  0  0  0  0
 24 22  2  0  0  0  0
 25 23  1  0  0  0  0
 27 32  1  0  0  0  0
 27 33  1  0  0  0  0
 28 33  1  0  0  0  0
 28 34  1  1  0  0  0
 29 28  1  0  0  0  0
 30 25  1  1  0  0  0
 30 31  1  0  0  0  0
 30 29  1  0  0  0  0
 31 27  2  0  0  0  0
 33 26  1  6  0  0  0
 35 34  1  0  0  0  0
 36 35  1  0  0  0  0
 37 21  1  0  0  0  0
 37 38  1  0  0  0  0
 38 47  1  0  0  0  0
 39 41  2  0  0  0  0
 40 39  1  0  0  0  0
 42 47  1  0  0  0  0
 42 46  1  0  0  0  0
 43 42  2  0  0  0  0
 44 43  1  0  0  0  0
 44 45  1  0  0  0  0
 45 40  1  0  0  0  0
 45 46  2  0  0  0  0
 46 41  1  0  0  0  0
 49 50  1  1  0  0  0
 49 66  1  0  0  0  0
 51 54  1  1  0  0  0
 51 49  1  0  0  0  0
 52 53  1  0  0  0  0
 52 51  1  0  0  0  0
 53 48  1  6  0  0  0
 53 49  1  0  0  0  0
 54 55  1  6  0  0  0
 54 56  1  0  0  0  0
 56 57  1  0  0  0  0
 57 58  1  0  0  0  0
 58 62  1  6  0  0  0
 58 61  1  0  0  0  0
 61 60  2  0  0  0  0
 61 59  2  0  0  0  0
 63 62  1  0  0  0  0
 64 63  1  0  0  0  0
 65 64  2  0  0  0  0
 66 67  1  0  0  0  0
M  END
>  <MODEL>
8

>  <REMARK>
 VINA RESULT:      -3.6      5.041      9.937
  Name = 
  24 active torsions:
  status: ('A' for Active; 'I' for Inactive)
    1  A    between atoms: C_1  and  O_51
    2  A    between atoms: N_4  and  CA_29
    3  A    between atoms: C_7  and  C_32
    4  A    between atoms: C_7  and  N_54
    5  A    between atoms: C_10  and  C_25
    6  A    between atoms: C_10  and  C_38
    7  A    between atoms: C_14  and  O_18
    8  A    between atoms: C_15  and  C_34
    9  A    between atoms: C_16  and  O_18
   10  A    between atoms: C_19  and  C_30
   11  A    between atoms: C_19  and  C_65
   12  A    between atoms: C_21  and  C_48
   13  A    between atoms: C_22  and  N_37
   14  A    between atoms: C_22  and  C_48
   15  A    between atoms: C_22  and  C_52
   16  A    between atoms: C_25  and  O_60
   17  A    between atoms: C_26  and  C_45
   18  A    between atoms: CA_29  and  C_40
   19  A    between atoms: N_37  and  N_39
   20  A    between atoms: N_39  and  N_63
   21  A    between atoms: C_44  and  C_45
   22  A    between atoms: C_44  and  C_50
   23  A    between atoms: C_50  and  O_60
   24  A    between atoms: C_50  and  N_66
                            x       y       z     vdW  Elec       q    Type
                         _______ _______ _______ _____ _____    ______ ____

>  <TORSDO>
F 24

$$$$
=
 OpenBabel10222417353D

 67 72  0  0  1  0  0  0  0  0999 V2000
  191.3180  177.3160  140.8010 N   0  0  0  0  0  0  0  0  0  0  0  0
  188.8470  173.7370  135.8870 O   0  0  0  0  0  0  0  0  0  0  0  0
  190.0930  174.3340  137.7810 C   0  0  0  0  0  2  0  0  0  0  0  0
  186.1620  175.9990  136.6900 C   0  0  1  0  0  3  0  0  0  0  0  0
  190.1030  173.5390  136.5060 C   0  0  2  0  0  3  0  0  0  0  0  0
  189.3880  176.4610  139.6910 N   0  0  0  0  0  2  0  0  0  0  0  0
  186.9870  177.2540  136.9810 C   0  0  0  0  0  2  0  0  0  0  0  0
  187.0210  174.7310  136.7990 C   0  0  0  0  0  2  0  0  0  0  0  0
  190.7010  177.0220  139.6940 C   0  0  0  0  0  3  0  0  0  0  0  0
  188.6620  176.3150  138.4670 C   0  0  0  0  0  0  0  0  0  0  0  0
  189.2810  175.4950  137.3330 C   0  0  2  0  0  3  0  0  0  0  0  0
  188.3730  174.9620  136.2960 N   0  0  1  0  0  0  0  0  0  0  0  0
  187.6810  177.1390  138.2540 N   0  0  0  0  0  0  0  0  0  0  0  0
  190.7930  177.0440  142.1010 C   0  0  0  0  0  0  0  0  0  0  0  0
  189.9180  177.8980  142.6430 C   0  0  0  0  0  3  0  0  0  0  0  0
  187.8050  178.0020  143.9230 C   0  0  0  0  0  1  0  0  0  0  0  0
  189.2910  177.6910  143.9830 C   0  0  0  0  0  2  0  0  0  0  0  0
  191.1910  175.7730  142.7960 C   0  0  0  0  0  2  0  0  0  0  0  0
  192.0090  176.0620  143.8940 O   0  0  0  0  0  1  0  0  0  0  0  0
  184.9540  175.8440  137.6270 C   0  0  0  0  0  2  0  0  0  0  0  0
  183.8130  176.8310  137.3480 C   0  0  1  0  0  3  0  0  0  0  0  0
  183.9210  178.0650  138.1910 C   0  0  0  0  0  0  0  0  0  0  0  0
  182.9300  178.3530  139.1870 N   0  0  0  0  0  2  0  0  0  0  0  0
  184.9100  178.8310  138.0370 O   0  0  0  0  0  0  0  0  0  0  0  0
  182.8820  179.6180  139.9180 C   0  0  0  0  0  2  0  0  0  0  0  0
  179.5390  178.3460  144.1770 O   0  0  0  0  0  1  0  0  0  0  0  0
  180.1590  177.9720  141.9070 C   0  0  0  0  0  0  0  0  0  0  0  0
  181.7030  179.1940  143.5490 C   0  0  1  0  0  3  0  0  0  0  0  0
  182.6770  179.2330  142.3750 C   0  0  0  0  0  2  0  0  0  0  0  0
  181.9120  179.5580  141.0980 C   0  0  2  0  0  3  0  0  0  0  0  0
  180.7970  178.5630  140.8840 C   0  0  0  0  0  3  0  0  0  0  0  0
  179.1590  177.0960  141.6310 F   0  0  0  0  0  0  0  0  0  0  0  0
  180.6290  178.1100  143.3380 C   0  0  1  0  0  3  0  0  0  0  0  0
  182.4080  178.9250  144.7310 O   0  0  0  0  0  0  0  0  0  0  0  0
  183.7220  179.3360  144.4780 C   0  0  0  0  0  2  0  0  0  0  0  0
  184.6100  178.4210  145.0270 O   0  0  0  0  0  1  0  0  0  0  0  0
  183.7190  177.1590  135.9260 N   0  0  0  0  0  2  0  0  0  0  0  0
  182.4270  176.8410  135.4670 N   0  0  0  0  0  2  0  0  0  0  0  0
  181.4290  170.9130  136.1450 C   0  0  0  0  0  3  0  0  0  0  0  0
  180.3540  171.5110  136.8750 O   0  0  0  0  0  0  0  0  0  0  0  0
  182.1590  172.0880  135.4580 C   0  0  0  0  0  3  0  0  0  0  0  0
  181.3650  174.6550  135.8860 C   0  0  0  0  0  0  0  0  0  0  0  0
  180.4790  175.1290  136.7030 N   0  0  0  0  0  0  0  0  0  0  0  0
  179.6700  174.0170  137.2250 C   0  0  0  0  0  2  0  0  0  0  0  0
  180.3360  172.8520  136.5920 C   0  0  0  0  0  0  0  0  0  0  0  0
  181.2490  173.2130  135.7670 C   0  0  0  0  0  0  0  0  0  0  0  0
  182.3820  175.4510  135.2760 N   0  0  0  0  0  2  0  0  0  0  0  0
  191.1940  174.0430  135.5600 C   0  0  0  0  0  2  0  0  0  0  0  0
  193.5970  174.6160  136.2690 C   0  0  1  0  0  0  0  0  0  0  0  0
  193.1310  176.0540  135.9680 C   0  0  0  0  0  1  0  0  0  0  0  0
  193.4310  174.2470  137.7530 C   0  0  1  0  0  3  0  0  0  0  0  0
  192.5640  173.0570  137.3570 C   0  0  0  0  0  2  0  0  0  0  0  0
  192.5840  173.5070  135.9030 C   0  0  1  0  0  3  0  0  0  0  0  0
  194.7120  173.9210  138.5390 C   0  0  2  0  0  3  0  0  0  0  0  0
  195.4360  175.0660  138.8770 O   0  0  0  0  0  1  0  0  0  0  0  0
  195.5790  172.9690  137.7250 C   0  0  0  0  0  2  0  0  0  0  0  0
  196.8910  173.4580  137.6850 O   0  0  0  0  0  0  0  0  0  0  0  0
  197.4650  172.9880  136.4890 C   0  0  1  0  0  3  0  0  0  0  0  0
  198.9120  174.0230  134.8080 O   0  0  0  0  0  0  0  0  0  0  0  0
  199.0290  174.6470  136.9780 O   0  0  0  0  0  0  0  0  0  0  0  0
  198.5940  173.8380  136.1380 N   0  0  0  0  0  0  0  0  0  0  0  0
  197.9430  171.5340  136.6580 C   0  0  0  0  0  2  0  0  0  0  0  0
  196.7860  170.5600  136.8380 C   0  0  0  0  0  2  0  0  0  0  0  0
  196.2510  170.0610  135.5290 C   0  0  0  0  0  3  0  0  0  0  0  0
  195.8390  170.8420  134.6880 O   0  0  0  0  0  0  0  0  0  0  0  0
  194.8630  174.2840  135.7110 O   0  0  0  0  0  0  0  0  0  0  0  0
  195.3500  175.3760  134.9780 C   0  0  0  0  0  1  0  0  0  0  0  0
  1 14  1  0  0  0  0
  2 12  1  0  0  0  0
  2  5  1  0  0  0  0
  4  8  1  0  0  0  0
  4  7  1  0  0  0  0
  4 20  1  1  0  0  0
  5 48  1  6  0  0  0
  5  3  1  0  0  0  0
  6  9  1  0  0  0  0
  7 13  1  0  0  0  0
  9  1  2  0  0  0  0
 10  6  1  0  0  0  0
 11  3  1  1  0  0  0
 11 10  1  0  0  0  0
 12  8  1  1  0  0  0
 12 11  1  0  0  0  0
 13 10  2  0  0  0  0
 14 15  2  0  0  0  0
 14 18  1  0  0  0  0
 15 17  1  0  0  0  0
 16 17  1  0  0  0  0
 18 19  1  0  0  0  0
 21 20  1  6  0  0  0
 21 22  1  0  0  0  0
 22 23  1  0  0  0  0
 23 25  1  0  0  0  0
 24 22  2  0  0  0  0
 27 33  1  0  0  0  0
 28 34  1  1  0  0  0
 29 28  1  0  0  0  0
 30 25  1  6  0  0  0
 30 29  1  0  0  0  0
 31 30  1  0  0  0  0
 31 27  2  0  0  0  0
 32 27  1  0  0  0  0
 33 28  1  0  0  0  0
 33 26  1  1  0  0  0
 35 34  1  0  0  0  0
 35 36  1  0  0  0  0
 37 21  1  0  0  0  0
 38 37  1  0  0  0  0
 39 40  1  0  0  0  0
 41 46  1  0  0  0  0
 41 39  2  0  0  0  0
 42 43  2  0  0  0  0
 43 44  1  0  0  0  0
 45 40  1  0  0  0  0
 45 44  1  0  0  0  0
 46 42  1  0  0  0  0
 46 45  2  0  0  0  0
 47 38  1  0  0  0  0
 47 42  1  0  0  0  0
 49 50  1  6  0  0  0
 49 51  1  0  0  0  0
 51 54  1  6  0  0  0
 52 51  1  0  0  0  0
 53 48  1  1  0  0  0
 53 49  1  0  0  0  0
 53 52  1  0  0  0  0
 54 55  1  6  0  0  0
 56 54  1  0  0  0  0
 57 56  1  0  0  0  0
 58 62  1  1  0  0  0
 58 57  1  0  0  0  0
 59 61  2  0  0  0  0
 61 58  1  0  0  0  0
 61 60  2  0  0  0  0
 62 63  1  0  0  0  0
 64 63  1  0  0  0  0
 65 64  2  0  0  0  0
 66 49  1  0  0  0  0
 67 66  1  0  0  0  0
M  END
>  <MODEL>
9

>  <REMARK>
 VINA RESULT:      -3.1      2.506      4.169
  Name = 
  24 active torsions:
  status: ('A' for Active; 'I' for Inactive)
    1  A    between atoms: C_1  and  O_51
    2  A    between atoms: N_4  and  CA_29
    3  A    between atoms: C_7  and  C_32
    4  A    between atoms: C_7  and  N_54
    5  A    between atoms: C_10  and  C_25
    6  A    between atoms: C_10  and  C_38
    7  A    between atoms: C_14  and  O_18
    8  A    between atoms: C_15  and  C_34
    9  A    between atoms: C_16  and  O_18
   10  A    between atoms: C_19  and  C_30
   11  A    between atoms: C_19  and  C_65
   12  A    between atoms: C_21  and  C_48
   13  A    between atoms: C_22  and  N_37
   14  A    between atoms: C_22  and  C_48
   15  A    between atoms: C_22  and  C_52
   16  A    between atoms: C_25  and  O_60
   17  A    between atoms: C_26  and  C_45
   18  A    between atoms: CA_29  and  C_40
   19  A    between atoms: N_37  and  N_39
   20  A    between atoms: N_39  and  N_63
   21  A    between atoms: C_44  and  C_45
   22  A    between atoms: C_44  and  C_50
   23  A    between atoms: C_50  and  O_60
   24  A    between atoms: C_50  and  N_66
                            x       y       z     vdW  Elec       q    Type
                         _______ _______ _______ _____ _____    ______ ____

>  <TORSDO>
F 24

$$$$
