=
 OpenBabel10222416223D

 38 41  0  0  1  0  0  0  0  0999 V2000
  189.8780  177.2590  144.1900 C   0  0  0  0  0  0  0  0  0  0  0  0
  187.5190  177.8030  144.3630 C   0  0  0  0  0  0  0  0  0  0  0  0
  185.0360  178.4350  144.4040 C   0  0  0  0  0  3  0  0  0  0  0  0
  188.7990  177.4530  144.9210 N   0  0  0  0  0  0  0  0  0  0  0  0
  187.4330  177.9310  143.0590 C   0  0  0  0  0  0  0  0  0  0  0  0
  186.2780  178.3180  142.3370 C   0  0  0  0  0  0  0  0  0  0  0  0
  186.2870  178.0630  145.2110 C   0  0  0  0  0  2  0  0  0  0  0  0
  188.5110  177.7680  142.1610 C   0  0  0  0  0  0  0  0  0  0  0  0
  186.5950  178.4030  141.0430 C   0  0  0  0  0  3  0  0  0  0  0  0
  191.1110  176.9160  144.8220 N   0  0  0  0  0  2  0  0  0  0  0  0
  185.0290  178.5730  143.0620 C   0  0  0  0  0  0  0  0  0  0  0  0
  189.8720  177.3940  142.6660 C   0  0  0  0  0  2  0  0  0  0  0  0
  188.0430  178.0440  140.9410 C   0  0  0  0  0  0  0  0  0  0  0  0
  188.8240  178.0360  139.6910 C   0  0  0  0  0  0  0  0  0  0  0  0
  189.1600  179.1210  139.1440 O   0  0  0  0  0  0  0  0  0  0  0  0
  189.1970  176.7330  139.0530 C   0  0  1  0  0  3  0  0  0  0  0  0
  188.7180  176.7110  137.6120 C   0  0  0  0  0  1  0  0  0  0  0  0
  190.7010  176.5220  139.1170 C   0  0  0  0  0  2  0  0  0  0  0  0
  191.0810  175.3510  138.3280 N   0  0  0  0  0  2  0  0  0  0  0  0
  193.2330  174.3910  137.6250 C   0  0  0  0  0  1  0  0  0  0  0  0
  192.3230  175.6090  137.5950 C   0  0  0  0  0  0  0  0  0  0  0  0
  192.9920  176.7110  138.1350 O   0  0  0  0  0  1  0  0  0  0  0  0
  191.9800  175.9110  136.1500 C   0  0  0  0  0  1  0  0  0  0  0  0
  191.2430  176.7960  146.2660 C   0  0  0  0  0  2  0  0  0  0  0  0
  192.5600  175.7260  148.0860 C   0  0  0  0  0  1  0  0  0  0  0  0
  192.2160  175.6840  146.6090 C   0  0  0  0  0  2  0  0  0  0  0  0
  183.7720  178.9220  142.3440 C   0  0  0  0  0  2  0  0  0  0  0  0
  183.3600  177.8070  141.5060 N   0  0  0  0  0  2  0  0  0  0  0  0
  182.6100  176.8550  139.3560 N   0  0  0  0  0  2  0  0  0  0  0  0
  183.0940  177.9690  140.1130 C   0  0  0  0  0  0  0  0  0  0  0  0
  183.2740  179.0870  139.5570 O   0  0  0  0  0  0  0  0  0  0  0  0
  182.3490  176.9370  137.9270 C   0  0  0  0  0  2  0  0  0  0  0  0
  182.7860  175.7530  135.8160 O   0  0  0  0  0  0  0  0  0  0  0  0
  183.1590  175.8750  137.1790 C   0  0  1  0  0  3  0  0  0  0  0  0
  184.6720  176.0640  137.3500 C   0  0  0  0  0  2  0  0  0  0  0  0
  185.1680  177.2310  136.5040 C   0  0  0  0  0  2  0  0  0  0  0  0
  184.6550  177.0970  135.0770 C   0  0  0  0  0  2  0  0  0  0  0  0
  183.1400  176.9290  135.1180 C   0  0  0  0  0  2  0  0  0  0  0  0
  1 10  1  0  0  0  0
  1  4  2  0  0  0  0
  2  4  1  0  0  0  0
  2  7  1  0  0  0  0
  3  7  1  0  0  0  0
  5  2  2  0  0  0  0
  6  5  1  0  0  0  0
  6 11  1  0  0  0  0
  8 12  1  0  0  0  0
  8  5  1  0  0  0  0
  9  6  2  0  0  0  0
 10 24  1  0  0  0  0
 11  3  2  0  0  0  0
 12  1  1  0  0  0  0
 13  9  1  0  0  0  0
 13  8  2  0  0  0  0
 14 13  1  0  0  0  0
 15 14  2  0  0  0  0
 16 17  1  6  0  0  0
 16 18  1  0  0  0  0
 16 14  1  0  0  0  0
 19 18  1  0  0  0  0
 21 20  1  0  0  0  0
 21 22  1  0  0  0  0
 21 19  1  0  0  0  0
 23 21  1  0  0  0  0
 24 26  1  0  0  0  0
 26 25  1  0  0  0  0
 27 11  1  0  0  0  0
 28 27  1  0  0  0  0
 29 30  1  0  0  0  0
 30 28  1  0  0  0  0
 31 30  2  0  0  0  0
 32 29  1  0  0  0  0
 33 34  1  0  0  0  0
 34 35  1  0  0  0  0
 34 32  1  6  0  0  0
 36 35  1  0  0  0  0
 37 38  1  0  0  0  0
 37 36  1  0  0  0  0
 38 33  1  0  0  0  0
M  END
>  <MODEL>
1

>  <REMARK>
 VINA RESULT:      -7.8      0.000      0.000
  Name = 
  11 active torsions:
  status: ('A' for Active; 'I' for Inactive)
    1  A    between atoms: C_1  and  C_6
    2  A    between atoms: C_1  and  C_36
    3  A    between atoms: N_4  and  C_38
    4  A    between atoms: C_6  and  C_10
    5  A    between atoms: C_7  and  C_22
    6  A    between atoms: N_9  and  C_10
    7  A    between atoms: N_9  and  C_11
    8  A    between atoms: N_12  and  C_22
    9  A    between atoms: N_28  and  C_34
   10  A    between atoms: C_30  and  C_38
   11  A    between atoms: C_34  and  C_37
                            x       y       z     vdW  Elec       q    Type
                         _______ _______ _______ _____ _____    ______ ____

>  <TORSDO>
F 11

$$$$
=
 OpenBabel10222416223D

 38 41  0  0  1  0  0  0  0  0999 V2000
  183.0870  178.8180  143.6280 C   0  0  0  0  0  0  0  0  0  0  0  0
  184.8500  178.6230  141.9720 C   0  0  0  0  0  0  0  0  0  0  0  0
  186.8140  178.4330  140.3360 C   0  0  0  0  0  3  0  0  0  0  0  0
  183.4890  178.8640  142.3740 N   0  0  0  0  0  0  0  0  0  0  0  0
  185.7260  178.3440  142.9080 C   0  0  0  0  0  0  0  0  0  0  0  0
  187.1120  178.1300  142.7130 C   0  0  0  0  0  0  0  0  0  0  0  0
  185.3170  178.7150  140.5300 C   0  0  0  0  0  3  0  0  0  0  0  0
  185.4350  178.2780  144.2890 C   0  0  0  0  0  0  0  0  0  0  0  0
  187.6840  177.9390  143.9030 C   0  0  0  0  0  3  0  0  0  0  0  0
  181.7180  179.0710  143.9450 N   0  0  0  0  0  2  0  0  0  0  0  0
  187.6610  178.1750  141.3530 C   0  0  0  0  0  0  0  0  0  0  0  0
  184.0390  178.5070  144.7850 C   0  0  0  0  0  3  0  0  0  0  0  0
  186.5900  178.0360  144.9160 C   0  0  0  0  0  0  0  0  0  0  0  0
  186.7760  177.9190  146.3740 C   0  0  0  0  0  0  0  0  0  0  0  0
  185.7810  177.7520  147.1300 O   0  0  0  0  0  0  0  0  0  0  0  0
  188.1490  178.0270  146.9620 C   0  0  1  0  0  3  0  0  0  0  0  0
  188.0780  177.8530  148.4690 C   0  0  0  0  0  1  0  0  0  0  0  0
  189.0720  176.9870  146.3500 C   0  0  0  0  0  2  0  0  0  0  0  0
  189.8940  176.3680  147.3880 N   0  0  0  0  0  2  0  0  0  0  0  0
  192.1210  175.3290  147.2690 C   0  0  0  0  0  1  0  0  0  0  0  0
  191.3160  176.6130  147.1290 C   0  0  0  0  0  0  0  0  0  0  0  0
  191.8150  177.5800  148.0050 O   0  0  0  0  0  1  0  0  0  0  0  0
  191.4700  177.1180  145.7100 C   0  0  0  0  0  1  0  0  0  0  0  0
  180.7320  179.4120  142.9310 C   0  0  0  0  0  2  0  0  0  0  0  0
  179.9410  177.8950  141.1230 C   0  0  0  0  0  1  0  0  0  0  0  0
  179.8780  178.2010  142.6090 C   0  0  0  0  0  2  0  0  0  0  0  0
  189.1000  177.8960  141.0870 C   0  0  0  0  0  2  0  0  0  0  0  0
  189.2680  177.4670  139.7090 N   0  0  0  0  0  2  0  0  0  0  0  0
  190.5080  176.2940  137.9260 N   0  0  0  0  0  2  0  0  0  0  0  0
  190.3440  176.6160  139.3110 C   0  0  0  0  0  0  0  0  0  0  0  0
  191.1460  176.1610  140.1700 O   0  0  0  0  0  0  0  0  0  0  0  0
  191.5600  175.4080  137.4510 C   0  0  0  0  0  2  0  0  0  0  0  0
  193.8730  176.0690  137.9660 O   0  0  0  0  0  0  0  0  0  0  0  0
  192.7960  176.2180  137.0540 C   0  0  1  0  0  3  0  0  0  0  0  0
  193.2270  175.9580  135.6040 C   0  0  0  0  0  2  0  0  0  0  0  0
  193.9100  174.6020  135.4800 C   0  0  0  0  0  2  0  0  0  0  0  0
  194.9880  174.4600  136.5460 C   0  0  0  0  0  2  0  0  0  0  0  0
  194.3650  174.7460  137.9090 C   0  0  0  0  0  2  0  0  0  0  0  0
  1 10  1  0  0  0  0
  1 12  1  0  0  0  0
  2  4  1  0  0  0  0
  2  5  1  0  0  0  0
  3  7  1  0  0  0  0
  3 11  2  0  0  0  0
  4  1  2  0  0  0  0
  5  8  1  0  0  0  0
  6  5  2  0  0  0  0
  6  9  1  0  0  0  0
  7  2  2  0  0  0  0
  8 12  2  0  0  0  0
  8 13  1  0  0  0  0
  9 13  2  0  0  0  0
 11  6  1  0  0  0  0
 13 14  1  0  0  0  0
 14 16  1  0  0  0  0
 14 15  2  0  0  0  0
 16 17  1  1  0  0  0
 18 16  1  0  0  0  0
 18 19  1  0  0  0  0
 21 20  1  0  0  0  0
 21 19  1  0  0  0  0
 21 22  1  0  0  0  0
 23 21  1  0  0  0  0
 24 10  1  0  0  0  0
 25 26  1  0  0  0  0
 26 24  1  0  0  0  0
 27 11  1  0  0  0  0
 28 27  1  0  0  0  0
 29 30  1  0  0  0  0
 30 28  1  0  0  0  0
 30 31  2  0  0  0  0
 32 29  1  0  0  0  0
 34 32  1  1  0  0  0
 34 33  1  0  0  0  0
 35 34  1  0  0  0  0
 36 35  1  0  0  0  0
 36 37  1  0  0  0  0
 37 38  1  0  0  0  0
 38 33  1  0  0  0  0
M  END
>  <MODEL>
2

>  <REMARK>
 VINA RESULT:      -7.7      3.183      8.368
  Name = 
  11 active torsions:
  status: ('A' for Active; 'I' for Inactive)
    1  A    between atoms: C_1  and  C_6
    2  A    between atoms: C_1  and  C_36
    3  A    between atoms: N_4  and  C_38
    4  A    between atoms: C_6  and  C_10
    5  A    between atoms: C_7  and  C_22
    6  A    between atoms: N_9  and  C_10
    7  A    between atoms: N_9  and  C_11
    8  A    between atoms: N_12  and  C_22
    9  A    between atoms: N_28  and  C_34
   10  A    between atoms: C_30  and  C_38
   11  A    between atoms: C_34  and  C_37
                            x       y       z     vdW  Elec       q    Type
                         _______ _______ _______ _____ _____    ______ ____

>  <TORSDO>
F 11

$$$$
=
 OpenBabel10222416223D

 38 41  0  0  1  0  0  0  0  0999 V2000
  188.4340  177.4820  144.6520 C   0  0  0  0  0  0  0  0  0  0  0  0
  189.6500  177.2970  142.5610 C   0  0  0  0  0  0  0  0  0  0  0  0
  190.8010  177.1100  140.2780 C   0  0  0  0  0  3  0  0  0  0  0  0
  189.5260  177.1600  143.9880 N   0  0  0  0  0  0  0  0  0  0  0  0
  188.6210  177.7670  141.8970 C   0  0  0  0  0  0  0  0  0  0  0  0
  188.5380  177.9230  140.4920 C   0  0  0  0  0  0  0  0  0  0  0  0
  190.8960  176.8890  141.7940 C   0  0  0  0  0  3  0  0  0  0  0  0
  187.3870  178.1350  142.4790 C   0  0  0  0  0  0  0  0  0  0  0  0
  187.3170  178.3650  140.1850 C   0  0  0  0  0  3  0  0  0  0  0  0
  188.3900  177.3140  146.0690 N   0  0  0  0  0  2  0  0  0  0  0  0
  189.6960  177.5780  139.6610 C   0  0  0  0  0  0  0  0  0  0  0  0
  187.1840  178.0310  143.9610 C   0  0  0  0  0  3  0  0  0  0  0  0
  186.5810  178.4990  141.4790 C   0  0  0  0  0  0  0  0  0  0  0  0
  185.1780  178.9310  141.6110 C   0  0  0  0  0  0  0  0  0  0  0  0
  184.6020  179.5260  140.6590 O   0  0  0  0  0  0  0  0  0  0  0  0
  184.4400  178.6880  142.8920 C   0  0  1  0  0  3  0  0  0  0  0  0
  184.6070  179.8810  143.8170 C   0  0  0  0  0  1  0  0  0  0  0  0
  182.9680  178.4320  142.6150 C   0  0  0  0  0  2  0  0  0  0  0  0
  182.1390  179.3310  143.4170 N   0  0  0  0  0  2  0  0  0  0  0  0
  180.6820  178.8110  141.5050 C   0  0  0  0  0  1  0  0  0  0  0  0
  180.7540  179.3140  142.9390 C   0  0  0  0  0  0  0  0  0  0  0  0
  180.1910  180.5900  143.0200 O   0  0  0  0  0  1  0  0  0  0  0  0
  179.9510  178.3730  143.8130 C   0  0  0  0  0  1  0  0  0  0  0  0
  189.5060  176.7670  146.8270 C   0  0  0  0  0  2  0  0  0  0  0  0
  188.4410  178.2330  148.5330 C   0  0  0  0  0  1  0  0  0  0  0  0
  189.7400  177.5940  148.0770 C   0  0  0  0  0  2  0  0  0  0  0  0
  189.6820  177.7810  138.1860 C   0  0  0  0  0  2  0  0  0  0  0  0
  189.6090  176.4930  137.5150 N   0  0  0  0  0  2  0  0  0  0  0  0
  188.3450  174.6310  136.5020 N   0  0  0  0  0  2  0  0  0  0  0  0
  188.3670  175.9400  137.0800 C   0  0  0  0  0  0  0  0  0  0  0  0
  187.2980  176.5950  137.2120 O   0  0  0  0  0  0  0  0  0  0  0  0
  187.1220  174.0180  136.0050 C   0  0  0  0  0  2  0  0  0  0  0  0
  186.2730  172.7540  137.9370 O   0  0  0  0  0  0  0  0  0  0  0  0
  186.9050  172.6570  136.6710 C   0  0  1  0  0  3  0  0  0  0  0  0
  186.1950  171.6590  135.7460 C   0  0  0  0  0  2  0  0  0  0  0  0
  184.7120  171.9910  135.6320 C   0  0  0  0  0  2  0  0  0  0  0  0
  184.1110  172.1820  137.0180 C   0  0  0  0  0  2  0  0  0  0  0  0
  184.9460  173.2110  137.7730 C   0  0  0  0  0  2  0  0  0  0  0  0
  1 10  1  0  0  0  0
  2  4  1  0  0  0  0
  3  7  1  0  0  0  0
  4  1  2  0  0  0  0
  5  8  1  0  0  0  0
  5  2  1  0  0  0  0
  6  5  2  0  0  0  0
  7  2  2  0  0  0  0
  8 12  2  0  0  0  0
  9  6  1  0  0  0  0
  9 13  2  0  0  0  0
 10 24  1  0  0  0  0
 11  3  2  0  0  0  0
 11  6  1  0  0  0  0
 12  1  1  0  0  0  0
 13 14  1  0  0  0  0
 13  8  1  0  0  0  0
 14 16  1  0  0  0  0
 15 14  2  0  0  0  0
 16 17  1  1  0  0  0
 18 16  1  0  0  0  0
 18 19  1  0  0  0  0
 20 21  1  0  0  0  0
 21 22  1  0  0  0  0
 21 19  1  0  0  0  0
 21 23  1  0  0  0  0
 24 26  1  0  0  0  0
 26 25  1  0  0  0  0
 27 11  1  0  0  0  0
 28 27  1  0  0  0  0
 29 30  1  0  0  0  0
 30 31  2  0  0  0  0
 30 28  1  0  0  0  0
 32 29  1  0  0  0  0
 34 32  1  6  0  0  0
 34 33  1  0  0  0  0
 35 34  1  0  0  0  0
 36 35  1  0  0  0  0
 36 37  1  0  0  0  0
 37 38  1  0  0  0  0
 38 33  1  0  0  0  0
M  END
>  <MODEL>
3

>  <REMARK>
 VINA RESULT:      -7.7      2.780      6.782
  Name = 
  11 active torsions:
  status: ('A' for Active; 'I' for Inactive)
    1  A    between atoms: C_1  and  C_6
    2  A    between atoms: C_1  and  C_36
    3  A    between atoms: N_4  and  C_38
    4  A    between atoms: C_6  and  C_10
    5  A    between atoms: C_7  and  C_22
    6  A    between atoms: N_9  and  C_10
    7  A    between atoms: N_9  and  C_11
    8  A    between atoms: N_12  and  C_22
    9  A    between atoms: N_28  and  C_34
   10  A    between atoms: C_30  and  C_38
   11  A    between atoms: C_34  and  C_37
                            x       y       z     vdW  Elec       q    Type
                         _______ _______ _______ _____ _____    ______ ____

>  <TORSDO>
F 11

$$$$
=
 OpenBabel10222416223D

 38 41  0  0  1  0  0  0  0  0999 V2000
  189.8940  177.1860  143.5360 C   0  0  0  0  0  0  0  0  0  0  0  0
  190.1830  177.0880  141.1290 C   0  0  0  0  0  0  0  0  0  0  0  0
  190.3360  177.0060  138.5720 C   0  0  0  0  0  3  0  0  0  0  0  0
  190.6130  176.8550  142.4820 N   0  0  0  0  0  0  0  0  0  0  0  0
  189.0160  177.6600  140.9460 C   0  0  0  0  0  0  0  0  0  0  0  0
  188.4050  177.9220  139.6950 C   0  0  0  0  0  0  0  0  0  0  0  0
  190.9960  176.6710  139.9170 C   0  0  0  0  0  3  0  0  0  0  0  0
  188.1390  178.0500  141.9820 C   0  0  0  0  0  0  0  0  0  0  0  0
  187.1990  178.4490  139.9130 C   0  0  0  0  0  3  0  0  0  0  0  0
  190.3920  176.9190  144.8470 N   0  0  0  0  0  2  0  0  0  0  0  0
  189.1190  177.5760  138.4610 C   0  0  0  0  0  0  0  0  0  0  0  0
  188.5210  177.8500  143.4180 C   0  0  0  0  0  3  0  0  0  0  0  0
  187.0370  178.5290  141.3970 C   0  0  0  0  0  0  0  0  0  0  0  0
  185.8340  179.0240  142.0900 C   0  0  0  0  0  0  0  0  0  0  0  0
  185.6960  180.2560  142.3220 O   0  0  0  0  0  0  0  0  0  0  0  0
  184.7850  178.0580  142.5460 C   0  0  1  0  0  3  0  0  0  0  0  0
  184.5250  178.2440  144.0310 C   0  0  0  0  0  1  0  0  0  0  0  0
  183.5030  178.2520  141.7530 C   0  0  0  0  0  2  0  0  0  0  0  0
  183.6450  177.6790  140.4150 N   0  0  0  0  0  2  0  0  0  0  0  0
  181.6020  178.9970  140.0420 C   0  0  0  0  0  1  0  0  0  0  0  0
  182.8950  178.4730  139.4370 C   0  0  0  0  0  0  0  0  0  0  0  0
  182.6100  177.7100  138.3020 O   0  0  0  0  0  1  0  0  0  0  0  0
  183.7420  179.6590  139.0240 C   0  0  0  0  0  1  0  0  0  0  0  0
  191.6680  176.2600  145.0790 C   0  0  0  0  0  2  0  0  0  0  0  0
  190.7930  176.7730  147.3520 C   0  0  0  0  0  1  0  0  0  0  0  0
  191.9150  176.1150  146.5690 C   0  0  0  0  0  2  0  0  0  0  0  0
  188.5480  177.8860  137.1210 C   0  0  0  0  0  2  0  0  0  0  0  0
  187.9180  176.6970  136.5700 N   0  0  0  0  0  2  0  0  0  0  0  0
  185.9510  175.2660  136.1510 N   0  0  0  0  0  2  0  0  0  0  0  0
  186.5060  176.4940  136.6330 C   0  0  0  0  0  0  0  0  0  0  0  0
  185.7570  177.3850  137.1180 O   0  0  0  0  0  0  0  0  0  0  0  0
  184.5190  175.0040  136.1530 C   0  0  0  0  0  2  0  0  0  0  0  0
  182.6980  174.2060  137.6010 O   0  0  0  0  0  0  0  0  0  0  0  0
  184.1040  174.3430  137.4690 C   0  0  1  0  0  3  0  0  0  0  0  0
  184.8380  173.0200  137.7180 C   0  0  0  0  0  2  0  0  0  0  0  0
  184.2750  171.9150  136.8310 C   0  0  0  0  0  2  0  0  0  0  0  0
  182.7570  171.8820  136.9380 C   0  0  0  0  0  2  0  0  0  0  0  0
  182.2180  173.2800  136.6490 C   0  0  0  0  0  2  0  0  0  0  0  0
  1 10  1  0  0  0  0
  2  4  1  0  0  0  0
  3  7  1  0  0  0  0
  4  1  2  0  0  0  0
  5  2  1  0  0  0  0
  5  8  1  0  0  0  0
  6  9  1  0  0  0  0
  6  5  2  0  0  0  0
  7  2  2  0  0  0  0
  8 12  2  0  0  0  0
  9 13  2  0  0  0  0
 10 24  1  0  0  0  0
 11  3  2  0  0  0  0
 11  6  1  0  0  0  0
 12  1  1  0  0  0  0
 13  8  1  0  0  0  0
 13 14  1  0  0  0  0
 14 15  2  0  0  0  0
 14 16  1  0  0  0  0
 16 17  1  1  0  0  0
 18 16  1  0  0  0  0
 19 18  1  0  0  0  0
 21 20  1  0  0  0  0
 21 19  1  0  0  0  0
 22 21  1  0  0  0  0
 23 21  1  0  0  0  0
 24 26  1  0  0  0  0
 26 25  1  0  0  0  0
 27 11  1  0  0  0  0
 28 30  1  0  0  0  0
 28 27  1  0  0  0  0
 29 32  1  0  0  0  0
 29 30  1  0  0  0  0
 30 31  2  0  0  0  0
 34 32  1  6  0  0  0
 34 33  1  0  0  0  0
 34 35  1  0  0  0  0
 36 37  1  0  0  0  0
 36 35  1  0  0  0  0
 38 37  1  0  0  0  0
 38 33  1  0  0  0  0
M  END
>  <MODEL>
4

>  <REMARK>
 VINA RESULT:      -7.6      2.199      5.643
  Name = 
  11 active torsions:
  status: ('A' for Active; 'I' for Inactive)
    1  A    between atoms: C_1  and  C_6
    2  A    between atoms: C_1  and  C_36
    3  A    between atoms: N_4  and  C_38
    4  A    between atoms: C_6  and  C_10
    5  A    between atoms: C_7  and  C_22
    6  A    between atoms: N_9  and  C_10
    7  A    between atoms: N_9  and  C_11
    8  A    between atoms: N_12  and  C_22
    9  A    between atoms: N_28  and  C_34
   10  A    between atoms: C_30  and  C_38
   11  A    between atoms: C_34  and  C_37
                            x       y       z     vdW  Elec       q    Type
                         _______ _______ _______ _____ _____    ______ ____

>  <TORSDO>
F 11

$$$$
=
 OpenBabel10222416223D

 38 41  0  0  1  0  0  0  0  0999 V2000
  187.7920  177.7210  144.1480 C   0  0  0  0  0  0  0  0  0  0  0  0
  189.2840  177.4460  142.2550 C   0  0  0  0  0  0  0  0  0  0  0  0
  190.7370  177.1540  140.1640 C   0  0  0  0  0  3  0  0  0  0  0  0
  188.9720  177.4010  143.6600 N   0  0  0  0  0  0  0  0  0  0  0  0
  188.3390  177.8280  141.4290 C   0  0  0  0  0  0  0  0  0  0  0  0
  188.4410  177.8850  140.0170 C   0  0  0  0  0  0  0  0  0  0  0  0
  190.6340  177.0390  141.6920 C   0  0  0  0  0  2  0  0  0  0  0  0
  187.0270  178.1830  141.8150 C   0  0  0  0  0  0  0  0  0  0  0  0
  187.2590  178.2550  139.5210 C   0  0  0  0  0  3  0  0  0  0  0  0
  187.5620  177.6480  145.5560 N   0  0  0  0  0  2  0  0  0  0  0  0
  189.7110  177.5330  139.3740 C   0  0  0  0  0  0  0  0  0  0  0  0
  186.6290  178.1700  143.2600 C   0  0  0  0  0  2  0  0  0  0  0  0
  186.3510  178.4450  140.6920 C   0  0  0  0  0  0  0  0  0  0  0  0
  184.9300  178.8260  140.6070 C   0  0  0  0  0  0  0  0  0  0  0  0
  184.5920  179.8970  140.0320 O   0  0  0  0  0  0  0  0  0  0  0  0
  183.8850  177.9530  141.2300 C   0  0  1  0  0  3  0  0  0  0  0  0
  183.3230  178.6270  142.4690 C   0  0  0  0  0  1  0  0  0  0  0  0
  182.7740  177.6620  140.2340 C   0  0  0  0  0  2  0  0  0  0  0  0
  183.0490  176.4160  139.5210 N   0  0  0  0  0  2  0  0  0  0  0  0
  182.5410  175.5600  137.2710 C   0  0  0  0  0  1  0  0  0  0  0  0
  183.1910  176.6690  138.0840 C   0  0  0  0  0  0  0  0  0  0  0  0
  184.5400  176.7800  137.7370 O   0  0  0  0  0  1  0  0  0  0  0  0
  182.4950  177.9720  137.7500 C   0  0  0  0  0  1  0  0  0  0  0  0
  188.5820  177.2000  146.4910 C   0  0  0  0  0  2  0  0  0  0  0  0
  188.0320  177.8580  148.8270 C   0  0  0  0  0  1  0  0  0  0  0  0
  188.7910  178.2440  147.5710 C   0  0  0  0  0  2  0  0  0  0  0  0
  189.8900  177.6350  137.9000 C   0  0  0  0  0  2  0  0  0  0  0  0
  189.9110  176.3040  137.3160 N   0  0  0  0  0  2  0  0  0  0  0  0
  188.7990  174.3610  136.2770 N   0  0  0  0  0  2  0  0  0  0  0  0
  188.7390  175.7060  136.7610 C   0  0  0  0  0  0  0  0  0  0  0  0
  187.6580  176.3550  136.7080 O   0  0  0  0  0  0  0  0  0  0  0  0
  187.6540  173.6990  135.6690 C   0  0  0  0  0  2  0  0  0  0  0  0
  186.7970  172.6410  137.7170 O   0  0  0  0  0  0  0  0  0  0  0  0
  187.3280  172.4080  136.4220 C   0  0  1  0  0  3  0  0  0  0  0  0
  186.4490  171.4560  135.6010 C   0  0  0  0  0  2  0  0  0  0  0  0
  185.0090  171.9530  135.5580 C   0  0  0  0  0  2  0  0  0  0  0  0
  184.5270  172.2810  136.9640 C   0  0  0  0  0  2  0  0  0  0  0  0
  185.5230  173.2410  137.6080 C   0  0  0  0  0  2  0  0  0  0  0  0
  1 10  1  0  0  0  0
  2  4  1  0  0  0  0
  3  7  1  0  0  0  0
  4  1  2  0  0  0  0
  5  8  1  0  0  0  0
  5  2  2  0  0  0  0
  6  5  1  0  0  0  0
  7  2  1  0  0  0  0
  8 12  1  0  0  0  0
  9  6  2  0  0  0  0
  9 13  1  0  0  0  0
 10 24  1  0  0  0  0
 11  6  1  0  0  0  0
 11  3  2  0  0  0  0
 12  1  1  0  0  0  0
 13  8  2  0  0  0  0
 14 13  1  0  0  0  0
 14 16  1  0  0  0  0
 15 14  2  0  0  0  0
 16 17  1  1  0  0  0
 18 16  1  0  0  0  0
 19 18  1  0  0  0  0
 20 21  1  0  0  0  0
 21 19  1  0  0  0  0
 22 21  1  0  0  0  0
 23 21  1  0  0  0  0
 24 26  1  0  0  0  0
 26 25  1  0  0  0  0
 27 11  1  0  0  0  0
 28 27  1  0  0  0  0
 29 30  1  0  0  0  0
 30 28  1  0  0  0  0
 31 30  2  0  0  0  0
 32 29  1  0  0  0  0
 34 32  1  6  0  0  0
 34 33  1  0  0  0  0
 35 34  1  0  0  0  0
 36 35  1  0  0  0  0
 36 37  1  0  0  0  0
 37 38  1  0  0  0  0
 38 33  1  0  0  0  0
M  END
>  <MODEL>
5

>  <REMARK>
 VINA RESULT:      -7.4      2.478      5.928
  Name = 
  11 active torsions:
  status: ('A' for Active; 'I' for Inactive)
    1  A    between atoms: C_1  and  C_6
    2  A    between atoms: C_1  and  C_36
    3  A    between atoms: N_4  and  C_38
    4  A    between atoms: C_6  and  C_10
    5  A    between atoms: C_7  and  C_22
    6  A    between atoms: N_9  and  C_10
    7  A    between atoms: N_9  and  C_11
    8  A    between atoms: N_12  and  C_22
    9  A    between atoms: N_28  and  C_34
   10  A    between atoms: C_30  and  C_38
   11  A    between atoms: C_34  and  C_37
                            x       y       z     vdW  Elec       q    Type
                         _______ _______ _______ _____ _____    ______ ____

>  <TORSDO>
F 11

$$$$
=
 OpenBabel10222416223D

 38 41  0  0  1  0  0  0  0  0999 V2000
  187.5840  177.5060  145.3660 C   0  0  0  0  0  0  0  0  0  0  0  0
  189.3770  177.1620  143.7680 C   0  0  0  0  0  0  0  0  0  0  0  0
  191.1660  176.8040  141.9690 C   0  0  0  0  0  3  0  0  0  0  0  0
  188.8150  177.1250  145.0930 N   0  0  0  0  0  0  0  0  0  0  0  0
  188.6170  177.6000  142.7910 C   0  0  0  0  0  0  0  0  0  0  0  0
  188.9760  177.6610  141.4230 C   0  0  0  0  0  0  0  0  0  0  0  0
  190.7830  176.6860  143.4500 C   0  0  0  0  0  2  0  0  0  0  0  0
  187.2780  178.0240  142.9410 C   0  0  0  0  0  0  0  0  0  0  0  0
  187.9240  178.0970  140.7270 C   0  0  0  0  0  3  0  0  0  0  0  0
  187.1010  177.4370  146.7080 N   0  0  0  0  0  2  0  0  0  0  0  0
  190.3210  177.2430  141.0130 C   0  0  0  0  0  0  0  0  0  0  0  0
  186.6260  178.0230  144.2910 C   0  0  0  0  0  2  0  0  0  0  0  0
  186.8310  178.3300  141.7200 C   0  0  0  0  0  0  0  0  0  0  0  0
  185.4710  178.7880  141.3860 C   0  0  0  0  0  0  0  0  0  0  0  0
  185.3020  179.7510  140.5890 O   0  0  0  0  0  0  0  0  0  0  0  0
  184.2840  178.1270  142.0160 C   0  0  1  0  0  3  0  0  0  0  0  0
  183.7130  179.0210  143.1030 C   0  0  0  0  0  1  0  0  0  0  0  0
  183.2270  177.8230  140.9680 C   0  0  0  0  0  2  0  0  0  0  0  0
  181.9940  178.5510  141.2680 N   0  0  0  0  0  2  0  0  0  0  0  0
  182.3500  179.0680  138.8900 C   0  0  0  0  0  1  0  0  0  0  0  0
  181.3460  178.9910  140.0290 C   0  0  0  0  0  0  0  0  0  0  0  0
  180.7400  180.2360  140.2090 O   0  0  0  0  0  1  0  0  0  0  0  0
  180.2800  177.9820  139.6550 C   0  0  0  0  0  1  0  0  0  0  0  0
  187.9100  176.9270  147.8050 C   0  0  0  0  0  2  0  0  0  0  0  0
  189.8130  178.3640  148.5160 C   0  0  0  0  0  1  0  0  0  0  0  0
  188.3370  178.0680  148.7080 C   0  0  0  0  0  2  0  0  0  0  0  0
  190.7680  177.3460  139.5960 C   0  0  0  0  0  2  0  0  0  0  0  0
  192.1210  176.8270  139.4710 N   0  0  0  0  0  2  0  0  0  0  0  0
  193.9390  175.7640  138.1840 N   0  0  0  0  0  2  0  0  0  0  0  0
  192.6290  176.3410  138.2290 C   0  0  0  0  0  0  0  0  0  0  0  0
  191.9280  176.4110  137.1830 O   0  0  0  0  0  0  0  0  0  0  0  0
  194.5350  175.2790  136.9480 C   0  0  0  0  0  2  0  0  0  0  0  0
  196.4670  173.8340  136.4660 O   0  0  0  0  0  0  0  0  0  0  0  0
  195.2530  173.9500  137.1930 C   0  0  1  0  0  3  0  0  0  0  0  0
  195.4440  173.6530  138.6860 C   0  0  0  0  0  2  0  0  0  0  0  0
  196.5560  174.5160  139.2690 C   0  0  0  0  0  2  0  0  0  0  0  0
  197.7990  174.4290  138.3940 C   0  0  0  0  0  2  0  0  0  0  0  0
  197.4070  174.7660  136.9580 C   0  0  0  0  0  2  0  0  0  0  0  0
  1 10  1  0  0  0  0
  2  4  1  0  0  0  0
  3  7  1  0  0  0  0
  4  1  2  0  0  0  0
  5  8  1  0  0  0  0
  5  2  2  0  0  0  0
  6  5  1  0  0  0  0
  7  2  1  0  0  0  0
  8 12  1  0  0  0  0
  9  6  2  0  0  0  0
  9 13  1  0  0  0  0
 10 24  1  0  0  0  0
 11  6  1  0  0  0  0
 11  3  2  0  0  0  0
 12  1  1  0  0  0  0
 13  8  2  0  0  0  0
 14 13  1  0  0  0  0
 14 16  1  0  0  0  0
 15 14  2  0  0  0  0
 16 17  1  1  0  0  0
 18 19  1  0  0  0  0
 18 16  1  0  0  0  0
 20 21  1  0  0  0  0
 21 22  1  0  0  0  0
 21 19  1  0  0  0  0
 23 21  1  0  0  0  0
 24 26  1  0  0  0  0
 25 26  1  0  0  0  0
 27 11  1  0  0  0  0
 28 27  1  0  0  0  0
 29 30  1  0  0  0  0
 30 28  1  0  0  0  0
 31 30  2  0  0  0  0
 32 29  1  0  0  0  0
 33 38  1  0  0  0  0
 33 34  1  0  0  0  0
 34 32  1  1  0  0  0
 34 35  1  0  0  0  0
 35 36  1  0  0  0  0
 37 36  1  0  0  0  0
 38 37  1  0  0  0  0
M  END
>  <MODEL>
6

>  <REMARK>
 VINA RESULT:      -7.4      2.591      8.477
  Name = 
  11 active torsions:
  status: ('A' for Active; 'I' for Inactive)
    1  A    between atoms: C_1  and  C_6
    2  A    between atoms: C_1  and  C_36
    3  A    between atoms: N_4  and  C_38
    4  A    between atoms: C_6  and  C_10
    5  A    between atoms: C_7  and  C_22
    6  A    between atoms: N_9  and  C_10
    7  A    between atoms: N_9  and  C_11
    8  A    between atoms: N_12  and  C_22
    9  A    between atoms: N_28  and  C_34
   10  A    between atoms: C_30  and  C_38
   11  A    between atoms: C_34  and  C_37
                            x       y       z     vdW  Elec       q    Type
                         _______ _______ _______ _____ _____    ______ ____

>  <TORSDO>
F 11

$$$$
=
 OpenBabel10222416223D

 38 41  0  0  1  0  0  0  0  0999 V2000
  186.6090  178.0220  142.6050 C   0  0  0  0  0  0  0  0  0  0  0  0
  187.6160  178.0490  140.3980 C   0  0  0  0  0  0  0  0  0  0  0  0
  188.8170  178.0730  138.1340 C   0  0  0  0  0  3  0  0  0  0  0  0
  186.5210  178.2500  141.3110 N   0  0  0  0  0  0  0  0  0  0  0  0
  188.7530  177.6160  140.8900 C   0  0  0  0  0  0  0  0  0  0  0  0
  189.9490  177.4090  140.1600 C   0  0  0  0  0  0  0  0  0  0  0  0
  187.5230  178.3490  138.9120 C   0  0  0  0  0  3  0  0  0  0  0  0
  188.9890  177.3470  142.2560 C   0  0  0  0  0  0  0  0  0  0  0  0
  190.9050  177.0300  141.0110 C   0  0  0  0  0  3  0  0  0  0  0  0
  185.4760  178.2480  143.4440 N   0  0  0  0  0  2  0  0  0  0  0  0
  189.9590  177.6490  138.7130 C   0  0  0  0  0  0  0  0  0  0  0  0
  187.8960  177.5230  143.2660 C   0  0  0  0  0  3  0  0  0  0  0  0
  190.2730  176.9930  142.3640 C   0  0  0  0  0  0  0  0  0  0  0  0
  190.9750  176.6530  143.6150 C   0  0  0  0  0  0  0  0  0  0  0  0
  191.2310  175.4500  143.8940 O   0  0  0  0  0  0  0  0  0  0  0  0
  191.3600  177.7380  144.5730 C   0  0  1  0  0  3  0  0  0  0  0  0
  190.9800  179.0910  143.9980 C   0  0  0  0  0  1  0  0  0  0  0  0
  190.6840  177.5230  145.9170 C   0  0  0  0  0  2  0  0  0  0  0  0
  189.2870  177.9510  145.8550 N   0  0  0  0  0  2  0  0  0  0  0  0
  189.1320  178.4410  148.2610 C   0  0  0  0  0  1  0  0  0  0  0  0
  188.5940  177.6160  147.1020 C   0  0  0  0  0  0  0  0  0  0  0  0
  188.7300  176.2550  147.3880 O   0  0  0  0  0  1  0  0  0  0  0  0
  187.1210  177.9310  146.9380 C   0  0  0  0  0  1  0  0  0  0  0  0
  184.2130  178.7570  142.9310 C   0  0  0  0  0  2  0  0  0  0  0  0
  183.8170  178.9970  145.3760 C   0  0  0  0  0  1  0  0  0  0  0  0
  183.1660  178.7480  144.0290 C   0  0  0  0  0  2  0  0  0  0  0  0
  191.1730  177.3890  137.8910 C   0  0  0  0  0  2  0  0  0  0  0  0
  191.5190  175.9790  137.9640 N   0  0  0  0  0  2  0  0  0  0  0  0
  193.0110  174.0720  137.4830 N   0  0  0  0  0  2  0  0  0  0  0  0
  192.7600  175.4810  137.4620 C   0  0  0  0  0  0  0  0  0  0  0  0
  193.6220  176.2740  136.9950 O   0  0  0  0  0  0  0  0  0  0  0  0
  194.2650  173.4960  137.0200 C   0  0  0  0  0  2  0  0  0  0  0  0
  195.4220  171.9730  138.5670 O   0  0  0  0  0  0  0  0  0  0  0  0
  195.2350  173.3280  138.1920 C   0  0  1  0  0  3  0  0  0  0  0  0
  196.5680  174.0510  137.9570 C   0  0  0  0  0  2  0  0  0  0  0  0
  197.4280  173.2840  136.9590 C   0  0  0  0  0  2  0  0  0  0  0  0
  197.5100  171.8170  137.3600 C   0  0  0  0  0  2  0  0  0  0  0  0
  196.0930  171.2810  137.5350 C   0  0  0  0  0  2  0  0  0  0  0  0
  1 12  1  0  0  0  0
  1 10  1  0  0  0  0
  2  5  1  0  0  0  0
  2  4  1  0  0  0  0
  3 11  2  0  0  0  0
  3  7  1  0  0  0  0
  4  1  2  0  0  0  0
  5  8  1  0  0  0  0
  6  5  2  0  0  0  0
  6  9  1  0  0  0  0
  7  2  2  0  0  0  0
  8 13  1  0  0  0  0
  8 12  2  0  0  0  0
  9 13  2  0  0  0  0
 11  6  1  0  0  0  0
 13 14  1  0  0  0  0
 14 15  2  0  0  0  0
 14 16  1  0  0  0  0
 16 17  1  6  0  0  0
 16 18  1  0  0  0  0
 19 18  1  0  0  0  0
 19 21  1  0  0  0  0
 21 22  1  0  0  0  0
 21 20  1  0  0  0  0
 23 21  1  0  0  0  0
 24 10  1  0  0  0  0
 24 26  1  0  0  0  0
 26 25  1  0  0  0  0
 27 28  1  0  0  0  0
 27 11  1  0  0  0  0
 30 29  1  0  0  0  0
 30 28  1  0  0  0  0
 31 30  2  0  0  0  0
 32 29  1  0  0  0  0
 34 32  1  6  0  0  0
 34 33  1  0  0  0  0
 35 34  1  0  0  0  0
 36 37  1  0  0  0  0
 36 35  1  0  0  0  0
 37 38  1  0  0  0  0
 38 33  1  0  0  0  0
M  END
>  <MODEL>
7

>  <REMARK>
 VINA RESULT:      -7.4      3.579      8.911
  Name = 
  11 active torsions:
  status: ('A' for Active; 'I' for Inactive)
    1  A    between atoms: C_1  and  C_6
    2  A    between atoms: C_1  and  C_36
    3  A    between atoms: N_4  and  C_38
    4  A    between atoms: C_6  and  C_10
    5  A    between atoms: C_7  and  C_22
    6  A    between atoms: N_9  and  C_10
    7  A    between atoms: N_9  and  C_11
    8  A    between atoms: N_12  and  C_22
    9  A    between atoms: N_28  and  C_34
   10  A    between atoms: C_30  and  C_38
   11  A    between atoms: C_34  and  C_37
                            x       y       z     vdW  Elec       q    Type
                         _______ _______ _______ _____ _____    ______ ____

>  <TORSDO>
F 11

$$$$
=
 OpenBabel10222416223D

 38 41  0  0  1  0  0  0  0  0999 V2000
  187.8520  177.4290  145.7720 C   0  0  0  0  0  0  0  0  0  0  0  0
  188.9690  177.3850  143.6190 C   0  0  0  0  0  0  0  0  0  0  0  0
  190.0130  177.3540  141.2780 C   0  0  0  0  0  3  0  0  0  0  0  0
  188.9080  177.1460  145.0370 N   0  0  0  0  0  0  0  0  0  0  0  0
  187.9170  177.9120  143.0400 C   0  0  0  0  0  0  0  0  0  0  0  0
  187.7720  178.1700  141.6550 C   0  0  0  0  0  0  0  0  0  0  0  0
  190.1740  177.0220  142.7680 C   0  0  0  0  0  3  0  0  0  0  0  0
  186.7160  178.2480  143.7030 C   0  0  0  0  0  0  0  0  0  0  0  0
  186.5440  178.6450  141.4370 C   0  0  0  0  0  3  0  0  0  0  0  0
  187.8710  177.1600  147.1740 N   0  0  0  0  0  2  0  0  0  0  0  0
  188.8870  177.8750  140.7480 C   0  0  0  0  0  0  0  0  0  0  0  0
  186.5790  178.0390  145.1810 C   0  0  0  0  0  3  0  0  0  0  0  0
  185.8700  178.6920  142.7700 C   0  0  0  0  0  0  0  0  0  0  0  0
  184.4790  179.1260  142.9980 C   0  0  0  0  0  0  0  0  0  0  0  0
  184.2420  180.2090  143.6000 O   0  0  0  0  0  0  0  0  0  0  0  0
  183.3440  178.2650  142.5390 C   0  0  1  0  0  3  0  0  0  0  0  0
  182.0290  178.8360  143.0400 C   0  0  0  0  0  1  0  0  0  0  0  0
  183.3350  178.1620  141.0230 C   0  0  0  0  0  2  0  0  0  0  0  0
  182.5770  179.2710  140.4460 N   0  0  0  0  0  2  0  0  0  0  0  0
  183.1120  178.2700  138.2640 C   0  0  0  0  0  1  0  0  0  0  0  0
  183.0360  179.5500  139.0820 C   0  0  0  0  0  0  0  0  0  0  0  0
  184.2870  180.1710  139.1030 O   0  0  0  0  0  1  0  0  0  0  0  0
  182.0440  180.4800  138.4170 C   0  0  0  0  0  1  0  0  0  0  0  0
  189.0120  176.5480  147.8380 C   0  0  0  0  0  2  0  0  0  0  0  0
  191.4470  176.4420  147.3370 C   0  0  0  0  0  1  0  0  0  0  0  0
  190.2640  177.3630  147.5730 C   0  0  0  0  0  2  0  0  0  0  0  0
  188.8090  178.1850  139.2940 C   0  0  0  0  0  2  0  0  0  0  0  0
  188.4800  176.9780  138.5540 N   0  0  0  0  0  2  0  0  0  0  0  0
  186.9430  175.6000  137.2000 N   0  0  0  0  0  2  0  0  0  0  0  0
  187.2500  176.8430  137.8410 C   0  0  0  0  0  0  0  0  0  0  0  0
  186.4390  177.8060  137.7840 O   0  0  0  0  0  0  0  0  0  0  0  0
  185.7260  175.4000  136.4280 C   0  0  0  0  0  2  0  0  0  0  0  0
  183.4470  174.4900  136.6040 O   0  0  0  0  0  0  0  0  0  0  0  0
  184.7130  174.5880  137.2380 C   0  0  1  0  0  3  0  0  0  0  0  0
  185.2590  173.2160  137.6530 C   0  0  0  0  0  2  0  0  0  0  0  0
  185.2770  172.2610  136.4650 C   0  0  0  0  0  2  0  0  0  0  0  0
  183.9250  172.2730  135.7650 C   0  0  0  0  0  2  0  0  0  0  0  0
  183.5640  173.7160  135.4280 C   0  0  0  0  0  2  0  0  0  0  0  0
  1 10  1  0  0  0  0
  2  4  1  0  0  0  0
  3  7  1  0  0  0  0
  4  1  2  0  0  0  0
  5  2  1  0  0  0  0
  5  8  1  0  0  0  0
  6  5  2  0  0  0  0
  7  2  2  0  0  0  0
  8 12  2  0  0  0  0
  9  6  1  0  0  0  0
  9 13  2  0  0  0  0
 10 24  1  0  0  0  0
 11  3  2  0  0  0  0
 11  6  1  0  0  0  0
 12  1  1  0  0  0  0
 13 14  1  0  0  0  0
 13  8  1  0  0  0  0
 14 15  2  0  0  0  0
 16 14  1  0  0  0  0
 16 17  1  6  0  0  0
 18 16  1  0  0  0  0
 19 18  1  0  0  0  0
 20 21  1  0  0  0  0
 21 22  1  0  0  0  0
 21 19  1  0  0  0  0
 23 21  1  0  0  0  0
 25 26  1  0  0  0  0
 26 24  1  0  0  0  0
 27 11  1  0  0  0  0
 28 27  1  0  0  0  0
 29 30  1  0  0  0  0
 30 28  1  0  0  0  0
 31 30  2  0  0  0  0
 32 29  1  0  0  0  0
 33 34  1  0  0  0  0
 34 32  1  6  0  0  0
 34 35  1  0  0  0  0
 36 35  1  0  0  0  0
 37 36  1  0  0  0  0
 38 37  1  0  0  0  0
 38 33  1  0  0  0  0
M  END
>  <MODEL>
8

>  <REMARK>
 VINA RESULT:      -7.4      2.407      5.558
  Name = 
  11 active torsions:
  status: ('A' for Active; 'I' for Inactive)
    1  A    between atoms: C_1  and  C_6
    2  A    between atoms: C_1  and  C_36
    3  A    between atoms: N_4  and  C_38
    4  A    between atoms: C_6  and  C_10
    5  A    between atoms: C_7  and  C_22
    6  A    between atoms: N_9  and  C_10
    7  A    between atoms: N_9  and  C_11
    8  A    between atoms: N_12  and  C_22
    9  A    between atoms: N_28  and  C_34
   10  A    between atoms: C_30  and  C_38
   11  A    between atoms: C_34  and  C_37
                            x       y       z     vdW  Elec       q    Type
                         _______ _______ _______ _____ _____    ______ ____

>  <TORSDO>
F 11

$$$$
=
 OpenBabel10222416223D

 38 41  0  0  1  0  0  0  0  0999 V2000
  189.4560  177.2590  144.8110 C   0  0  0  0  0  0  0  0  0  0  0  0
  187.1290  177.8680  144.4960 C   0  0  0  0  0  0  0  0  0  0  0  0
  184.7070  178.5580  144.0220 C   0  0  0  0  0  3  0  0  0  0  0  0
  188.2690  177.5370  145.3100 N   0  0  0  0  0  0  0  0  0  0  0  0
  187.2900  177.8910  143.1940 C   0  0  0  0  0  0  0  0  0  0  0  0
  186.3050  178.2430  142.2400 C   0  0  0  0  0  0  0  0  0  0  0  0
  185.7720  178.2260  145.0760 C   0  0  0  0  0  2  0  0  0  0  0  0
  188.5090  177.6290  142.5290 C   0  0  0  0  0  0  0  0  0  0  0  0
  186.8590  178.2130  141.0260 C   0  0  0  0  0  3  0  0  0  0  0  0
  190.5380  176.9410  145.6880 N   0  0  0  0  0  2  0  0  0  0  0  0
  184.9530  178.5840  142.6960 C   0  0  0  0  0  0  0  0  0  0  0  0
  189.7380  177.2680  143.3070 C   0  0  0  0  0  2  0  0  0  0  0  0
  188.2850  177.8140  141.2250 C   0  0  0  0  0  0  0  0  0  0  0  0
  189.2840  177.6850  140.1480 C   0  0  0  0  0  0  0  0  0  0  0  0
  190.5160  177.7090  140.4170 O   0  0  0  0  0  0  0  0  0  0  0  0
  188.8350  177.5540  138.7260 C   0  0  1  0  0  3  0  0  0  0  0  0
  189.1100  178.8460  137.9770 C   0  0  0  0  0  1  0  0  0  0  0  0
  189.5410  176.3890  138.0520 C   0  0  0  0  0  2  0  0  0  0  0  0
  188.5830  175.5900  137.2890 N   0  0  0  0  0  2  0  0  0  0  0  0
  190.3090  175.9700  135.5790 C   0  0  0  0  0  1  0  0  0  0  0  0
  188.8320  175.7270  135.8510 C   0  0  0  0  0  0  0  0  0  0  0  0
  188.0760  176.7740  135.3200 O   0  0  0  0  0  1  0  0  0  0  0  0
  188.4290  174.4390  135.1640 C   0  0  0  0  0  1  0  0  0  0  0  0
  190.3950  176.9390  147.1360 C   0  0  0  0  0  2  0  0  0  0  0  0
  192.3740  175.4410  146.9500 C   0  0  0  0  0  1  0  0  0  0  0  0
  191.6990  176.5140  147.7850 C   0  0  0  0  0  2  0  0  0  0  0  0
  183.8650  178.9010  141.7300 C   0  0  0  0  0  2  0  0  0  0  0  0
  183.2880  177.6680  141.2210 N   0  0  0  0  0  2  0  0  0  0  0  0
  182.6330  176.1660  139.3750 N   0  0  0  0  0  2  0  0  0  0  0  0
  183.2910  177.3540  139.8280 C   0  0  0  0  0  0  0  0  0  0  0  0
  183.8590  178.1210  139.0040 O   0  0  0  0  0  0  0  0  0  0  0  0
  182.6240  175.7650  137.9760 C   0  0  0  0  0  2  0  0  0  0  0  0
  183.1900  173.5870  136.9820 O   0  0  0  0  0  0  0  0  0  0  0  0
  183.6840  174.6890  137.7270 C   0  0  1  0  0  3  0  0  0  0  0  0
  184.9720  175.2640  137.1230 C   0  0  0  0  0  2  0  0  0  0  0  0
  184.7730  175.5990  135.6490 C   0  0  0  0  0  2  0  0  0  0  0  0
  184.1490  174.4150  134.9230 C   0  0  0  0  0  2  0  0  0  0  0  0
  182.8830  174.0000  135.6670 C   0  0  0  0  0  2  0  0  0  0  0  0
  1  4  2  0  0  0  0
  1 10  1  0  0  0  0
  2  7  1  0  0  0  0
  2  4  1  0  0  0  0
  3  7  1  0  0  0  0
  5  2  2  0  0  0  0
  6 11  1  0  0  0  0
  6  5  1  0  0  0  0
  8  5  1  0  0  0  0
  8 12  1  0  0  0  0
  9 13  1  0  0  0  0
  9  6  2  0  0  0  0
 10 24  1  0  0  0  0
 11  3  2  0  0  0  0
 12  1  1  0  0  0  0
 13  8  2  0  0  0  0
 14 15  2  0  0  0  0
 14 13  1  0  0  0  0
 16 17  1  6  0  0  0
 16 14  1  0  0  0  0
 18 16  1  0  0  0  0
 19 18  1  0  0  0  0
 20 21  1  0  0  0  0
 21 19  1  0  0  0  0
 22 21  1  0  0  0  0
 23 21  1  0  0  0  0
 24 26  1  0  0  0  0
 25 26  1  0  0  0  0
 27 11  1  0  0  0  0
 28 27  1  0  0  0  0
 29 30  1  0  0  0  0
 30 28  1  0  0  0  0
 31 30  2  0  0  0  0
 32 29  1  0  0  0  0
 33 34  1  0  0  0  0
 34 32  1  6  0  0  0
 35 34  1  0  0  0  0
 36 35  1  0  0  0  0
 37 36  1  0  0  0  0
 37 38  1  0  0  0  0
 38 33  1  0  0  0  0
M  END
>  <MODEL>
9

>  <REMARK>
 VINA RESULT:      -7.3      1.577      1.937
  Name = 
  11 active torsions:
  status: ('A' for Active; 'I' for Inactive)
    1  A    between atoms: C_1  and  C_6
    2  A    between atoms: C_1  and  C_36
    3  A    between atoms: N_4  and  C_38
    4  A    between atoms: C_6  and  C_10
    5  A    between atoms: C_7  and  C_22
    6  A    between atoms: N_9  and  C_10
    7  A    between atoms: N_9  and  C_11
    8  A    between atoms: N_12  and  C_22
    9  A    between atoms: N_28  and  C_34
   10  A    between atoms: C_30  and  C_38
   11  A    between atoms: C_34  and  C_37
                            x       y       z     vdW  Elec       q    Type
                         _______ _______ _______ _____ _____    ______ ____

>  <TORSDO>
F 11

$$$$
