=
 OpenBabel10222415113D

 69 74  0  0  1  0  0  0  0  0999 V2000
  190.3530  175.9900  139.4740 C   0  0  0  0  0  3  0  0  0  0  0  0
  189.8280  176.1310  138.2480 C   0  0  0  0  0  0  0  0  0  0  0  0
  186.6180  176.6850  136.4300 C   0  0  0  0  0  2  0  0  0  0  0  0
  188.4240  176.5880  137.9740 C   0  0  1  0  0  3  0  0  0  0  0  0
  186.1190  178.9560  136.6300 C   0  0  0  0  0  1  0  0  0  0  0  0
  187.2170  178.0250  136.4490 N   0  0  0  0  0  0  0  0  0  0  0  0
  188.0390  178.0570  137.6690 C   0  0  2  0  0  3  0  0  0  0  0  0
  187.6830  175.7460  136.9610 C   0  0  0  0  0  2  0  0  0  0  0  0
  189.2580  179.9290  138.5230 O   0  0  0  0  0  1  0  0  0  0  0  0
  189.9420  179.2500  136.4530 O   0  0  0  0  0  0  0  0  0  0  0  0
  189.1140  179.1270  137.5620 C   0  0  0  0  0  0  0  0  0  0  0  0
  190.7560  176.1370  137.0780 C   0  0  0  0  0  2  0  0  0  0  0  0
  191.5120  174.9560  137.0860 O   0  0  0  0  0  0  0  0  0  0  0  0
  191.0920  174.2110  135.9640 C   0  0  2  0  0  3  0  0  0  0  0  0
  190.4410  172.0320  135.2030 C   0  0  0  0  0  2  0  0  0  0  0  0
  189.0130  171.8250  134.7540 C   0  0  0  0  0  2  0  0  0  0  0  0
  188.2050  172.1620  135.9760 C   0  0  1  0  0  3  0  0  0  0  0  0
  189.0640  173.1400  136.7550 C   0  0  0  0  0  2  0  0  0  0  0  0
  190.4600  172.9240  136.3560 N   0  0  0  0  0  0  0  0  0  0  0  0
  184.6040  174.2490  137.2270 N   0  0  0  0  0  0  0  0  0  0  0  0
  184.5140  173.0700  136.4400 C   0  0  0  0  0  0  0  0  0  0  0  0
  183.0570  170.5330  135.7970 N   0  0  0  0  0  2  0  0  0  0  0  0
  182.8000  171.8100  135.1380 C   0  0  0  0  0  2  0  0  0  0  0  0
  184.4230  170.1260  135.4800 C   0  0  0  0  0  2  0  0  0  0  0  0
  186.7850  173.7860  134.9550 O   0  0  0  0  0  0  0  0  0  0  0  0
  186.8280  172.7090  135.6280 C   0  0  0  0  0  0  0  0  0  0  0  0
  183.2970  172.9190  136.0050 C   0  0  0  0  0  0  0  0  0  0  0  0
  185.4320  170.7580  136.4530 C   0  0  0  0  0  2  0  0  0  0  0  0
  182.5310  174.0100  136.5040 N   0  0  0  0  0  0  0  0  0  0  0  0
  185.6070  172.1830  136.1740 N   0  0  0  0  0  0  0  0  0  0  0  0
  183.3260  174.8280  137.3380 N   0  0  0  0  0  0  0  0  0  0  0  0
  181.0790  173.9250  136.6760 C   0  0  0  0  0  2  0  0  0  0  0  0
  180.3730  174.9550  135.8220 C   0  0  0  0  0  1  0  0  0  0  0  0
  192.2780  174.0190  135.0050 C   0  0  0  0  0  2  0  0  0  0  0  0
  193.2030  175.0750  135.1280 O   0  0  0  0  0  1  0  0  0  0  0  0
  189.6070  176.1820  140.7640 C   0  0  0  0  0  2  0  0  0  0  0  0
  191.4790  177.4910  141.5190 O   0  0  0  0  0  1  0  0  0  0  0  0
  190.5650  176.4930  141.9090 C   0  0  1  0  0  3  0  0  0  0  0  0
  189.8340  176.9230  143.0240 O   0  0  0  0  0  0  0  0  0  0  0  0
  190.3130  178.2030  143.3310 C   0  0  2  0  0  3  0  0  0  0  0  0
  189.9680  178.7650  145.8300 C   0  0  0  0  0  2  0  0  0  0  0  0
  190.9210  178.2820  144.7380 C   0  0  1  0  0  3  0  0  0  0  0  0
  190.3800  176.4050  146.1150 N   0  0  0  0  0  2  0  0  0  0  0  0
  189.8090  177.5720  146.7540 C   0  0  2  0  0  3  0  0  0  0  0  0
  191.3760  176.9190  145.1780 C   0  0  0  0  0  2  0  0  0  0  0  0
  187.9870  177.6540  148.4470 C   0  0  0  0  0  1  0  0  0  0  0  0
  188.3360  177.3280  147.0100 C   0  0  0  0  0  2  0  0  0  0  0  0
  189.1640  179.2200  143.2280 C   0  0  0  0  0  2  0  0  0  0  0  0
  188.0110  178.7470  142.3780 C   0  0  0  0  0  0  0  0  0  0  0  0
  187.9210  179.1430  141.1870 O   0  0  0  0  0  0  0  0  0  0  0  0
  187.0540  177.8500  142.8340 O   0  0  0  0  0  0  0  0  0  0  0  0
  186.1450  178.1300  143.8950 C   0  0  0  0  0  2  0  0  0  0  0  0
  182.2460  178.2950  142.1160 C   0  0  0  0  0  0  0  0  0  0  0  0
  183.6660  178.6380  144.0780 C   0  0  0  0  0  0  0  0  0  0  0  0
  183.4050  177.9780  141.3820 C   0  0  0  0  0  0  0  0  0  0  0  0
  182.3850  178.6450  143.4760 C   0  0  0  0  0  0  0  0  0  0  0  0
  184.7750  178.2920  143.2960 C   0  0  0  0  0  0  0  0  0  0  0  0
  181.2280  179.0330  144.2300 N   0  0  0  0  0  1  0  0  0  0  0  0
  184.6110  177.9810  141.9880 N   0  0  0  0  0  0  0  0  0  0  0  0
  183.3800  177.6300  139.9360 C   0  0  0  0  0  1  0  0  0  0  0  0
  185.0180  179.5270  145.8700 O   0  0  0  0  0  0  0  0  0  0  0  0
  183.9150  179.0480  145.4880 C   0  0  0  0  0  3  0  0  0  0  0  0
  180.8710  178.4600  141.4830 C   0  0  2  0  0  3  0  0  0  0  0  0
  180.6070  176.0770  141.8510 O   0  0  0  0  0  1  0  0  0  0  0  0
  180.0080  177.1970  141.2750 C   0  0  2  0  0  3  0  0  0  0  0  0
  179.3140  175.6370  139.5900 O   0  0  0  0  0  1  0  0  0  0  0  0
  179.7500  176.9470  139.7870 C   0  0  0  0  0  2  0  0  0  0  0  0
  180.7760  179.4360  140.4600 O   0  0  0  0  0  0  0  0  0  0  0  0
  179.9480  180.3720  140.8930 O   0  0  0  0  0  1  0  0  0  0  0  0
  1 36  1  0  0  0  0
  2  1  2  0  0  0  0
  3  6  1  0  0  0  0
  3  8  1  0  0  0  0
  4  2  1  6  0  0  0
  6  5  1  0  0  0  0
  6  7  1  0  0  0  0
  7 11  1  6  0  0  0
  7  4  1  0  0  0  0
  8  4  1  0  0  0  0
 10 11  2  0  0  0  0
 11  9  1  0  0  0  0
 12 13  1  0  0  0  0
 12  2  1  0  0  0  0
 14 34  1  6  0  0  0
 14 19  1  0  0  0  0
 14 13  1  0  0  0  0
 15 19  1  0  0  0  0
 16 15  1  0  0  0  0
 16 17  1  0  0  0  0
 17 26  1  6  0  0  0
 17 18  1  0  0  0  0
 19 18  1  0  0  0  0
 20 31  2  0  0  0  0
 21 20  1  0  0  0  0
 23 22  1  0  0  0  0
 23 27  1  0  0  0  0
 24 22  1  0  0  0  0
 24 28  1  0  0  0  0
 25 26  2  0  0  0  0
 26 30  1  0  0  0  0
 27 21  2  0  0  0  0
 27 29  1  0  0  0  0
 29 32  1  0  0  0  0
 29 31  1  0  0  0  0
 30 21  1  0  0  0  0
 30 28  1  0  0  0  0
 33 32  1  0  0  0  0
 34 35  1  0  0  0  0
 36 38  1  0  0  0  0
 38 37  1  6  0  0  0
 38 39  1  0  0  0  0
 39 40  1  0  0  0  0
 40 48  1  1  0  0  0
 41 44  1  0  0  0  0
 42 40  1  6  0  0  0
 42 45  1  0  0  0  0
 42 41  1  0  0  0  0
 43 44  1  0  0  0  0
 44 47  1  6  0  0  0
 45 43  1  0  0  0  0
 47 46  1  0  0  0  0
 49 51  1  0  0  0  0
 49 48  1  0  0  0  0
 50 49  2  0  0  0  0
 51 52  1  0  0  0  0
 53 56  1  0  0  0  0
 54 62  1  0  0  0  0
 55 59  1  0  0  0  0
 55 53  2  0  0  0  0
 56 54  2  0  0  0  0
 56 58  1  0  0  0  0
 57 52  1  0  0  0  0
 57 54  1  0  0  0  0
 59 57  2  0  0  0  0
 60 55  1  0  0  0  0
 62 61  2  0  0  0  0
 63 68  1  6  0  0  0
 63 53  1  0  0  0  0
 65 63  1  0  0  0  0
 65 64  1  6  0  0  0
 66 67  1  0  0  0  0
 67 65  1  0  0  0  0
 68 69  1  0  0  0  0
M  END
>  <MODEL>
1

>  <REMARK>
 VINA RESULT:      -3.1      0.000      0.000
  Name = 
  25 active torsions:
  status: ('A' for Active; 'I' for Inactive)
    1  A    between atoms: C_1  and  C_13
    2  A    between atoms: C_1  and  C_45
    3  A    between atoms: O_5  and  C_14
    4  A    between atoms: O_5  and  C_63
    5  A    between atoms: C_7  and  C_35
    6  A    between atoms: C_9  and  C_55
    7  A    between atoms: C_10  and  C_45
    8  A    between atoms: C_11  and  C_53
    9  A    between atoms: C_13  and  O_34
   10  A    between atoms: C_14  and  C_21
   11  A    between atoms: C_14  and  N_54
   12  A    between atoms: O_17  and  C_35
   13  A    between atoms: O_19  and  C_45
   14  A    between atoms: O_19  and  C_58
   15  A    between atoms: C_20  and  C_26
   16  A    between atoms: C_20  and  C_58
   17  A    between atoms: C_24  and  C_67
   18  A    between atoms: C_31  and  C_52
   19  A    between atoms: O_34  and  C_52
   20  A    between atoms: C_35  and  C_67
   21  A    between atoms: C_37  and  C_50
   22  A    between atoms: C_41  and  C_44
   23  A    between atoms: C_49  and  C_64
   24  A    between atoms: C_55  and  C_63
   25  A    between atoms: N_59  and  C_62
                            x       y       z     vdW  Elec       q    Type
                         _______ _______ _______ _____ _____    ______ ____

>  <TORSDO>
F 25

$$$$
=
 OpenBabel10222415113D

 69 74  0  0  1  0  0  0  0  0999 V2000
  187.3390  178.5900  144.1650 C   0  0  0  0  0  3  0  0  0  0  0  0
  188.6230  178.2360  144.3130 C   0  0  0  0  0  0  0  0  0  0  0  0
  189.7120  176.8910  147.6190 C   0  0  0  0  0  2  0  0  0  0  0  0
  189.1220  177.2650  145.3460 C   0  0  1  0  0  3  0  0  0  0  0  0
  191.7670  175.8400  147.2700 C   0  0  0  0  0  1  0  0  0  0  0  0
  190.9740  176.9900  146.8750 N   0  0  0  0  0  0  0  0  0  0  0  0
  190.5990  176.8140  145.4630 C   0  0  2  0  0  3  0  0  0  0  0  0
  188.6670  177.5690  146.7550 C   0  0  0  0  0  2  0  0  0  0  0  0
  192.1550  178.5260  144.8560 O   0  0  0  0  0  1  0  0  0  0  0  0
  192.1030  176.7670  143.4000 O   0  0  0  0  0  0  0  0  0  0  0  0
  191.6590  177.4080  144.5500 C   0  0  0  0  0  0  0  0  0  0  0  0
  189.5800  178.5700  143.2170 C   0  0  0  0  0  2  0  0  0  0  0  0
  189.0040  178.2280  141.9850 O   0  0  0  0  0  0  0  0  0  0  0  0
  189.8810  177.3010  141.3830 C   0  0  2  0  0  3  0  0  0  0  0  0
  189.6860  178.9380  139.6400 C   0  0  0  0  0  2  0  0  0  0  0  0
  189.0610  178.5210  138.3290 C   0  0  0  0  0  2  0  0  0  0  0  0
  189.9580  177.4150  137.8450 C   0  0  1  0  0  3  0  0  0  0  0  0
  190.5600  176.8210  139.1040 C   0  0  0  0  0  2  0  0  0  0  0  0
  190.5090  177.8480  140.1510 N   0  0  0  0  0  0  0  0  0  0  0  0
  187.5710  173.7910  137.6040 N   0  0  0  0  0  0  0  0  0  0  0  0
  188.6500  174.0020  136.7050 C   0  0  0  0  0  0  0  0  0  0  0  0
  190.9150  172.8500  135.1200 N   0  0  0  0  0  2  0  0  0  0  0  0
  189.5590  173.0140  134.6030 C   0  0  0  0  0  2  0  0  0  0  0  0
  191.4550  174.1770  135.4040 C   0  0  0  0  0  2  0  0  0  0  0  0
  188.0820  176.7440  136.5310 O   0  0  0  0  0  0  0  0  0  0  0  0
  189.2140  176.3980  136.9900 C   0  0  0  0  0  0  0  0  0  0  0  0
  188.6070  173.1200  135.7480 C   0  0  0  0  0  0  0  0  0  0  0  0
  191.0470  174.6550  136.8070 C   0  0  0  0  0  2  0  0  0  0  0  0
  187.4820  172.2830  135.9930 N   0  0  0  0  0  0  0  0  0  0  0  0
  189.6350  175.0320  136.8420 N   0  0  0  0  0  0  0  0  0  0  0  0
  186.8510  172.6500  137.2030 N   0  0  0  0  0  0  0  0  0  0  0  0
  187.4040  170.9160  135.4730 C   0  0  0  0  0  2  0  0  0  0  0  0
  188.2780  169.9810  136.2810 C   0  0  0  0  0  1  0  0  0  0  0  0
  189.1350  175.9810  141.1290 C   0  0  0  0  0  2  0  0  0  0  0  0
  188.8970  175.2960  142.3390 O   0  0  0  0  0  1  0  0  0  0  0  0
  186.2080  178.1450  145.0500 C   0  0  0  0  0  2  0  0  0  0  0  0
  184.6060  179.7060  144.1650 O   0  0  0  0  0  1  0  0  0  0  0  0
  184.8630  178.3350  144.3560 C   0  0  1  0  0  3  0  0  0  0  0  0
  184.8790  177.6740  143.1220 O   0  0  0  0  0  0  0  0  0  0  0  0
  183.9090  178.3030  142.3320 C   0  0  2  0  0  3  0  0  0  0  0  0
  185.7290  178.7660  140.5580 C   0  0  0  0  0  2  0  0  0  0  0  0
  184.5170  179.2890  141.3250 C   0  0  1  0  0  3  0  0  0  0  0  0
  183.8340  178.8890  139.0700 N   0  0  0  0  0  2  0  0  0  0  0  0
  185.2690  178.7010  139.1140 C   0  0  2  0  0  3  0  0  0  0  0  0
  183.5010  179.6440  140.2760 C   0  0  0  0  0  2  0  0  0  0  0  0
  184.6040  176.9470  137.4780 C   0  0  0  0  0  1  0  0  0  0  0  0
  185.6100  177.3410  138.5380 C   0  0  0  0  0  2  0  0  0  0  0  0
  182.9220  179.0600  143.2350 C   0  0  0  0  0  2  0  0  0  0  0  0
  181.4810  178.9160  142.8120 C   0  0  0  0  0  0  0  0  0  0  0  0
  180.6640  178.3530  143.5870 O   0  0  0  0  0  0  0  0  0  0  0  0
  180.9910  179.4190  141.6140 O   0  0  0  0  0  0  0  0  0  0  0  0
  179.8150  178.9360  140.9710 C   0  0  0  0  0  2  0  0  0  0  0  0
  180.8000  176.2210  137.8020 C   0  0  0  0  0  0  0  0  0  0  0  0
  180.2310  178.4910  138.5090 C   0  0  0  0  0  0  0  0  0  0  0  0
  180.8170  175.8450  139.1590 C   0  0  0  0  0  0  0  0  0  0  0  0
  180.5200  177.5640  137.4790 C   0  0  0  0  0  0  0  0  0  0  0  0
  180.2430  178.0470  139.8360 C   0  0  0  0  0  0  0  0  0  0  0  0
  180.5580  177.9870  136.1080 N   0  0  0  0  0  1  0  0  0  0  0  0
  180.5360  176.7550  140.1150 N   0  0  0  0  0  0  0  0  0  0  0  0
  181.1350  174.4650  139.6150 C   0  0  0  0  0  1  0  0  0  0  0  0
  179.7250  180.7490  139.2000 O   0  0  0  0  0  0  0  0  0  0  0  0
  179.9800  179.9390  138.2660 C   0  0  0  0  0  3  0  0  0  0  0  0
  181.2460  175.3020  136.6720 C   0  0  2  0  0  3  0  0  0  0  0  0
  178.9400  174.5600  136.5520 O   0  0  0  0  0  1  0  0  0  0  0  0
  180.2380  174.2640  136.1350 C   0  0  2  0  0  3  0  0  0  0  0  0
  179.5850  172.2840  137.3220 O   0  0  0  0  0  1  0  0  0  0  0  0
  180.6200  172.8490  136.5750 C   0  0  0  0  0  2  0  0  0  0  0  0
  182.5940  174.8680  136.7250 O   0  0  0  0  0  0  0  0  0  0  0  0
  182.9600  174.5880  135.4860 O   0  0  0  0  0  1  0  0  0  0  0  0
  1  2  2  0  0  0  0
  1 36  1  0  0  0  0
  4  2  1  6  0  0  0
  4  7  1  0  0  0  0
  4  8  1  0  0  0  0
  6  5  1  0  0  0  0
  6  3  1  0  0  0  0
  7 11  1  6  0  0  0
  7  6  1  0  0  0  0
  8  3  1  0  0  0  0
 10 11  2  0  0  0  0
 11  9  1  0  0  0  0
 12  2  1  0  0  0  0
 13 12  1  0  0  0  0
 14 34  1  6  0  0  0
 14 13  1  0  0  0  0
 15 19  1  0  0  0  0
 16 15  1  0  0  0  0
 17 26  1  1  0  0  0
 17 16  1  0  0  0  0
 17 18  1  0  0  0  0
 18 19  1  0  0  0  0
 19 14  1  0  0  0  0
 21 30  1  0  0  0  0
 21 20  1  0  0  0  0
 22 24  1  0  0  0  0
 23 22  1  0  0  0  0
 23 27  1  0  0  0  0
 24 28  1  0  0  0  0
 25 26  2  0  0  0  0
 27 29  1  0  0  0  0
 27 21  2  0  0  0  0
 28 30  1  0  0  0  0
 29 31  1  0  0  0  0
 30 26  1  0  0  0  0
 31 20  2  0  0  0  0
 32 29  1  0  0  0  0
 32 33  1  0  0  0  0
 34 35  1  0  0  0  0
 38 37  1  6  0  0  0
 38 36  1  0  0  0  0
 39 38  1  0  0  0  0
 40 39  1  0  0  0  0
 40 48  1  1  0  0  0
 41 42  1  0  0  0  0
 42 40  1  1  0  0  0
 43 44  1  0  0  0  0
 43 45  1  0  0  0  0
 44 47  1  1  0  0  0
 44 41  1  0  0  0  0
 45 42  1  0  0  0  0
 46 47  1  0  0  0  0
 49 48  1  0  0  0  0
 49 50  2  0  0  0  0
 51 49  1  0  0  0  0
 52 51  1  0  0  0  0
 53 55  1  0  0  0  0
 54 57  2  0  0  0  0
 55 60  1  0  0  0  0
 55 59  2  0  0  0  0
 56 53  2  0  0  0  0
 56 54  1  0  0  0  0
 57 59  1  0  0  0  0
 57 52  1  0  0  0  0
 58 56  1  0  0  0  0
 62 54  1  0  0  0  0
 62 61  2  0  0  0  0
 63 68  1  1  0  0  0
 63 53  1  0  0  0  0
 65 64  1  1  0  0  0
 65 67  1  0  0  0  0
 65 63  1  0  0  0  0
 67 66  1  0  0  0  0
 69 68  1  0  0  0  0
M  END
>  <MODEL>
2

>  <REMARK>
 VINA RESULT:      -2.4      2.283      7.178
  Name = 
  25 active torsions:
  status: ('A' for Active; 'I' for Inactive)
    1  A    between atoms: C_1  and  C_13
    2  A    between atoms: C_1  and  C_45
    3  A    between atoms: O_5  and  C_14
    4  A    between atoms: O_5  and  C_63
    5  A    between atoms: C_7  and  C_35
    6  A    between atoms: C_9  and  C_55
    7  A    between atoms: C_10  and  C_45
    8  A    between atoms: C_11  and  C_53
    9  A    between atoms: C_13  and  O_34
   10  A    between atoms: C_14  and  C_21
   11  A    between atoms: C_14  and  N_54
   12  A    between atoms: O_17  and  C_35
   13  A    between atoms: O_19  and  C_45
   14  A    between atoms: O_19  and  C_58
   15  A    between atoms: C_20  and  C_26
   16  A    between atoms: C_20  and  C_58
   17  A    between atoms: C_24  and  C_67
   18  A    between atoms: C_31  and  C_52
   19  A    between atoms: O_34  and  C_52
   20  A    between atoms: C_35  and  C_67
   21  A    between atoms: C_37  and  C_50
   22  A    between atoms: C_41  and  C_44
   23  A    between atoms: C_49  and  C_64
   24  A    between atoms: C_55  and  C_63
   25  A    between atoms: N_59  and  C_62
                            x       y       z     vdW  Elec       q    Type
                         _______ _______ _______ _____ _____    ______ ____

>  <TORSDO>
F 25

$$$$
=
 OpenBabel10222415113D

 69 74  0  0  1  0  0  0  0  0999 V2000
  185.4600  178.4580  139.8390 C   0  0  0  0  0  3  0  0  0  0  0  0
  185.0950  178.2700  138.5630 C   0  0  0  0  0  0  0  0  0  0  0  0
  181.6490  179.6820  138.3500 C   0  0  0  0  0  2  0  0  0  0  0  0
  183.8100  178.7690  137.9660 C   0  0  1  0  0  3  0  0  0  0  0  0
  180.4230  178.2530  136.9710 C   0  0  0  0  0  1  0  0  0  0  0  0
  181.4450  178.2710  138.0020 N   0  0  0  0  0  0  0  0  0  0  0  0
  182.7110  177.8440  137.3880 C   0  0  2  0  0  3  0  0  0  0  0  0
  183.0880  179.7920  138.8120 C   0  0  0  0  0  2  0  0  0  0  0  0
  183.3330  175.7270  136.4650 O   0  0  0  0  0  0  0  0  0  0  0  0
  182.5020  175.5990  138.5880 O   0  0  0  0  0  1  0  0  0  0  0  0
  182.8600  176.3330  137.4640 C   0  0  0  0  0  0  0  0  0  0  0  0
  186.1330  177.8160  137.5900 C   0  0  0  0  0  2  0  0  0  0  0  0
  187.4050  178.0410  138.1370 O   0  0  0  0  0  0  0  0  0  0  0  0
  188.2710  177.1180  137.5150 C   0  0  2  0  0  3  0  0  0  0  0  0
  189.5330  177.6190  135.5390 C   0  0  0  0  0  2  0  0  0  0  0  0
  190.6720  176.7010  135.1610 C   0  0  0  0  0  2  0  0  0  0  0  0
  191.5950  176.7750  136.3460 C   0  0  1  0  0  3  0  0  0  0  0  0
  190.6970  177.1150  137.5200 C   0  0  0  0  0  2  0  0  0  0  0  0
  189.4970  177.7720  136.9880 N   0  0  0  0  0  0  0  0  0  0  0  0
  194.2430  174.3800  138.8240 N   0  0  0  0  0  0  0  0  0  0  0  0
  194.4850  174.5090  137.4300 C   0  0  0  0  0  0  0  0  0  0  0  0
  196.4610  174.7320  135.1910 N   0  0  0  0  0  2  0  0  0  0  0  0
  195.9130  173.4660  135.6710 C   0  0  0  0  0  2  0  0  0  0  0  0
  195.3640  175.5210  134.6380 C   0  0  0  0  0  2  0  0  0  0  0  0
  191.7370  174.4490  136.8620 O   0  0  0  0  0  0  0  0  0  0  0  0
  192.3900  175.4910  136.5430 C   0  0  0  0  0  0  0  0  0  0  0  0
  195.3910  173.6520  137.0570 C   0  0  0  0  0  0  0  0  0  0  0  0
  194.6460  176.3230  135.7360 C   0  0  0  0  0  2  0  0  0  0  0  0
  195.7860  172.9220  138.2140 N   0  0  0  0  0  0  0  0  0  0  0  0
  193.8260  175.4480  136.5720 N   0  0  0  0  0  0  0  0  0  0  0  0
  195.1190  173.4150  139.3580 N   0  0  0  0  0  0  0  0  0  0  0  0
  197.0950  172.2730  138.3130 C   0  0  0  0  0  2  0  0  0  0  0  0
  197.1480  171.0320  137.4480 C   0  0  0  0  0  1  0  0  0  0  0  0
  187.5020  176.3440  136.4310 C   0  0  0  0  0  2  0  0  0  0  0  0
  187.2190  175.0290  136.8550 O   0  0  0  0  0  1  0  0  0  0  0  0
  184.6170  179.1170  140.8940 C   0  0  0  0  0  2  0  0  0  0  0  0
  183.2550  177.1620  141.2220 O   0  0  0  0  0  1  0  0  0  0  0  0
  183.2080  178.5340  140.9120 C   0  0  1  0  0  3  0  0  0  0  0  0
  182.4360  179.2130  141.8630 O   0  0  0  0  0  0  0  0  0  0  0  0
  182.0600  178.2560  142.8130 C   0  0  2  0  0  3  0  0  0  0  0  0
  179.8180  179.5050  143.1130 C   0  0  0  0  0  2  0  0  0  0  0  0
  180.5380  178.1640  142.9860 C   0  0  1  0  0  3  0  0  0  0  0  0
  179.3260  178.5340  140.9590 N   0  0  0  0  0  2  0  0  0  0  0  0
  178.9440  179.5880  141.8750 C   0  0  2  0  0  3  0  0  0  0  0  0
  179.9250  177.4920  141.7890 C   0  0  0  0  0  2  0  0  0  0  0  0
  179.0290  180.7950  139.7010 C   0  0  0  0  0  1  0  0  0  0  0  0
  179.1500  180.9300  141.2040 C   0  0  0  0  0  2  0  0  0  0  0  0
  182.6950  178.6010  144.1700 C   0  0  0  0  0  2  0  0  0  0  0  0
  183.5090  179.8700  144.1530 C   0  0  0  0  0  0  0  0  0  0  0  0
  183.0610  180.8820  143.5530 O   0  0  0  0  0  0  0  0  0  0  0  0
  184.7260  179.9970  144.8110 O   0  0  0  0  0  0  0  0  0  0  0  0
  185.1570  179.1300  145.8560 C   0  0  0  0  0  2  0  0  0  0  0  0
  188.8840  177.5480  144.4440 C   0  0  0  0  0  0  0  0  0  0  0  0
  187.4730  178.2090  146.3280 C   0  0  0  0  0  0  0  0  0  0  0  0
  187.8030  177.8270  143.5870 C   0  0  0  0  0  0  0  0  0  0  0  0
  188.7080  177.7270  145.8320 C   0  0  0  0  0  0  0  0  0  0  0  0
  186.4450  178.4880  145.4200 C   0  0  0  0  0  0  0  0  0  0  0  0
  189.7730  177.3890  146.7310 N   0  0  0  0  0  1  0  0  0  0  0  0
  186.6390  178.2860  144.0950 N   0  0  0  0  0  0  0  0  0  0  0  0
  187.8660  177.6410  142.1130 C   0  0  0  0  0  1  0  0  0  0  0  0
  187.3090  177.4310  148.6080 O   0  0  0  0  0  0  0  0  0  0  0  0
  187.1770  178.3730  147.7790 C   0  0  0  0  0  3  0  0  0  0  0  0
  190.1760  176.8910  143.9770 C   0  0  2  0  0  3  0  0  0  0  0  0
  192.3290  177.0920  142.8790 O   0  0  0  0  0  1  0  0  0  0  0  0
  191.0520  177.6470  142.9550 C   0  0  2  0  0  3  0  0  0  0  0  0
  191.0760  179.3040  144.6900 O   0  0  0  0  0  1  0  0  0  0  0  0
  191.1460  179.1340  143.3060 C   0  0  0  0  0  2  0  0  0  0  0  0
  190.1280  175.4840  143.8120 O   0  0  0  0  0  0  0  0  0  0  0  0
  190.8100  175.1980  142.7160 O   0  0  0  0  0  1  0  0  0  0  0  0
  1 36  1  0  0  0  0
  2  1  2  0  0  0  0
  3  8  1  0  0  0  0
  4  2  1  1  0  0  0
  4  8  1  0  0  0  0
  5  6  1  0  0  0  0
  6  3  1  0  0  0  0
  7 11  1  1  0  0  0
  7  4  1  0  0  0  0
  7  6  1  0  0  0  0
  9 11  2  0  0  0  0
 11 10  1  0  0  0  0
 12 13  1  0  0  0  0
 12  2  1  0  0  0  0
 14 34  1  6  0  0  0
 14 13  1  0  0  0  0
 15 19  1  0  0  0  0
 16 15  1  0  0  0  0
 16 17  1  0  0  0  0
 17 26  1  1  0  0  0
 17 18  1  0  0  0  0
 19 14  1  0  0  0  0
 19 18  1  0  0  0  0
 20 31  2  0  0  0  0
 21 20  1  0  0  0  0
 22 23  1  0  0  0  0
 23 27  1  0  0  0  0
 24 22  1  0  0  0  0
 24 28  1  0  0  0  0
 26 30  1  0  0  0  0
 26 25  2  0  0  0  0
 27 21  2  0  0  0  0
 27 29  1  0  0  0  0
 28 30  1  0  0  0  0
 29 32  1  0  0  0  0
 29 31  1  0  0  0  0
 30 21  1  0  0  0  0
 33 32  1  0  0  0  0
 34 35  1  0  0  0  0
 36 38  1  0  0  0  0
 38 37  1  1  0  0  0
 38 39  1  0  0  0  0
 39 40  1  0  0  0  0
 40 48  1  1  0  0  0
 42 40  1  6  0  0  0
 42 41  1  0  0  0  0
 43 45  1  0  0  0  0
 43 44  1  0  0  0  0
 44 47  1  6  0  0  0
 44 41  1  0  0  0  0
 45 42  1  0  0  0  0
 46 47  1  0  0  0  0
 49 48  1  0  0  0  0
 49 51  1  0  0  0  0
 50 49  2  0  0  0  0
 51 52  1  0  0  0  0
 53 56  1  0  0  0  0
 54 62  1  0  0  0  0
 55 59  1  0  0  0  0
 55 53  2  0  0  0  0
 56 54  2  0  0  0  0
 56 58  1  0  0  0  0
 57 52  1  0  0  0  0
 57 54  1  0  0  0  0
 59 57  2  0  0  0  0
 60 55  1  0  0  0  0
 62 61  2  0  0  0  0
 63 68  1  6  0  0  0
 63 53  1  0  0  0  0
 65 64  1  1  0  0  0
 65 67  1  0  0  0  0
 65 63  1  0  0  0  0
 67 66  1  0  0  0  0
 69 68  1  0  0  0  0
M  END
>  <MODEL>
3

>  <REMARK>
 VINA RESULT:      -2.2      3.047      8.801
  Name = 
  25 active torsions:
  status: ('A' for Active; 'I' for Inactive)
    1  A    between atoms: C_1  and  C_13
    2  A    between atoms: C_1  and  C_45
    3  A    between atoms: O_5  and  C_14
    4  A    between atoms: O_5  and  C_63
    5  A    between atoms: C_7  and  C_35
    6  A    between atoms: C_9  and  C_55
    7  A    between atoms: C_10  and  C_45
    8  A    between atoms: C_11  and  C_53
    9  A    between atoms: C_13  and  O_34
   10  A    between atoms: C_14  and  C_21
   11  A    between atoms: C_14  and  N_54
   12  A    between atoms: O_17  and  C_35
   13  A    between atoms: O_19  and  C_45
   14  A    between atoms: O_19  and  C_58
   15  A    between atoms: C_20  and  C_26
   16  A    between atoms: C_20  and  C_58
   17  A    between atoms: C_24  and  C_67
   18  A    between atoms: C_31  and  C_52
   19  A    between atoms: O_34  and  C_52
   20  A    between atoms: C_35  and  C_67
   21  A    between atoms: C_37  and  C_50
   22  A    between atoms: C_41  and  C_44
   23  A    between atoms: C_49  and  C_64
   24  A    between atoms: C_55  and  C_63
   25  A    between atoms: N_59  and  C_62
                            x       y       z     vdW  Elec       q    Type
                         _______ _______ _______ _____ _____    ______ ____

>  <TORSDO>
F 25

$$$$
=
 OpenBabel10222415113D

 69 74  0  0  1  0  0  0  0  0999 V2000
  187.2500  177.0610  137.3710 C   0  0  0  0  0  3  0  0  0  0  0  0
  188.2600  176.7620  136.5420 C   0  0  0  0  0  0  0  0  0  0  0  0
  191.9610  177.0390  136.1570 C   0  0  0  0  0  2  0  0  0  0  0  0
  189.6560  177.3030  136.6760 C   0  0  1  0  0  3  0  0  0  0  0  0
  192.8340  177.3720  138.2960 C   0  0  0  0  0  1  0  0  0  0  0  0
  191.8070  176.6520  137.5650 N   0  0  0  0  0  0  0  0  0  0  0  0
  190.5020  177.1950  137.9690 C   0  0  2  0  0  3  0  0  0  0  0  0
  190.5800  176.9240  135.5420 C   0  0  0  0  0  2  0  0  0  0  0  0
  190.3840  175.2830  139.4000 O   0  0  0  0  0  0  0  0  0  0  0  0
  189.0350  177.0070  140.0510 O   0  0  0  0  0  1  0  0  0  0  0  0
  189.9640  176.4500  139.1800 C   0  0  0  0  0  0  0  0  0  0  0  0
  188.0970  175.6010  135.6170 C   0  0  0  0  0  2  0  0  0  0  0  0
  188.5400  174.4370  136.2610 O   0  0  0  0  0  0  0  0  0  0  0  0
  188.4240  173.3960  135.3160 C   0  0  2  0  0  3  0  0  0  0  0  0
  186.9050  171.6380  134.7200 C   0  0  0  0  0  2  0  0  0  0  0  0
  185.4220  171.8890  134.8650 C   0  0  0  0  0  2  0  0  0  0  0  0
  185.2540  172.1870  136.3290 C   0  0  1  0  0  3  0  0  0  0  0  0
  186.5920  172.7490  136.7690 C   0  0  0  0  0  2  0  0  0  0  0  0
  187.6110  172.2630  135.8320 N   0  0  0  0  0  0  0  0  0  0  0  0
  181.1370  173.3260  135.5310 N   0  0  0  0  0  0  0  0  0  0  0  0
  182.1550  174.3140  135.6000 C   0  0  0  0  0  0  0  0  0  0  0  0
  183.2730  176.9040  134.5940 N   0  0  0  0  0  2  0  0  0  0  0  0
  182.3530  176.7970  135.7220 C   0  0  0  0  0  2  0  0  0  0  0  0
  184.5110  176.2170  134.9520 C   0  0  0  0  0  2  0  0  0  0  0  0
  183.4490  172.9560  137.6870 O   0  0  0  0  0  0  0  0  0  0  0  0
  184.0840  173.1230  136.6000 C   0  0  0  0  0  0  0  0  0  0  0  0
  181.6200  175.5000  135.6370 C   0  0  0  0  0  0  0  0  0  0  0  0
  184.4190  174.7120  134.6520 C   0  0  0  0  0  2  0  0  0  0  0  0
  180.2070  175.3290  135.5870 N   0  0  0  0  0  0  0  0  0  0  0  0
  183.5600  174.0350  135.6220 N   0  0  0  0  0  0  0  0  0  0  0  0
  179.8820  173.9600  135.4510 N   0  0  0  0  0  0  0  0  0  0  0  0
  179.3150  176.3790  135.0930 C   0  0  0  0  0  2  0  0  0  0  0  0
  179.5930  177.6950  135.7880 C   0  0  0  0  0  1  0  0  0  0  0  0
  189.8270  172.9580  134.8630 C   0  0  0  0  0  2  0  0  0  0  0  0
  190.8140  173.8270  135.3700 O   0  0  0  0  0  1  0  0  0  0  0  0
  187.3220  178.0400  138.5090 C   0  0  0  0  0  2  0  0  0  0  0  0
  185.3780  178.7920  137.3080 O   0  0  0  0  0  1  0  0  0  0  0  0
  186.1750  179.0430  138.4410 C   0  0  1  0  0  3  0  0  0  0  0  0
  185.4010  178.9440  139.6030 O   0  0  0  0  0  0  0  0  0  0  0  0
  184.2630  178.2070  139.2500 C   0  0  2  0  0  3  0  0  0  0  0  0
  181.7810  178.4870  138.5880 C   0  0  0  0  0  2  0  0  0  0  0  0
  183.1940  179.0680  138.5640 C   0  0  1  0  0  3  0  0  0  0  0  0
  181.8960  180.3700  140.0910 N   0  0  0  0  0  2  0  0  0  0  0  0
  180.9820  179.4590  139.4360 C   0  0  2  0  0  3  0  0  0  0  0  0
  183.0900  180.4010  139.2490 C   0  0  0  0  0  2  0  0  0  0  0  0
  179.7550  179.6160  141.5950 C   0  0  0  0  0  1  0  0  0  0  0  0
  180.2080  178.6900  140.4870 C   0  0  0  0  0  2  0  0  0  0  0  0
  183.6540  177.5660  140.5080 C   0  0  0  0  0  2  0  0  0  0  0  0
  184.1410  178.1810  141.7970 C   0  0  0  0  0  0  0  0  0  0  0  0
  183.5640  179.2060  142.2470 O   0  0  0  0  0  0  0  0  0  0  0  0
  185.1780  177.6430  142.5470 O   0  0  0  0  0  0  0  0  0  0  0  0
  185.3240  177.8320  143.9520 C   0  0  0  0  0  2  0  0  0  0  0  0
  189.4950  177.1990  144.7200 C   0  0  0  0  0  0  0  0  0  0  0  0
  187.3290  178.0290  145.4930 C   0  0  0  0  0  0  0  0  0  0  0  0
  188.8550  176.7250  143.5590 C   0  0  0  0  0  0  0  0  0  0  0  0
  188.7170  177.8430  145.7030 C   0  0  0  0  0  0  0  0  0  0  0  0
  186.7590  177.5530  144.3070 C   0  0  0  0  0  0  0  0  0  0  0  0
  189.3340  178.2790  146.9230 N   0  0  0  0  0  1  0  0  0  0  0  0
  187.5290  176.9200  143.3910 N   0  0  0  0  0  0  0  0  0  0  0  0
  189.5710  176.0000  142.4750 C   0  0  0  0  0  1  0  0  0  0  0  0
  186.3170  178.2070  147.6780 O   0  0  0  0  0  0  0  0  0  0  0  0
  186.4200  178.6460  146.4980 C   0  0  0  0  0  3  0  0  0  0  0  0
  190.9490  176.8950  145.0590 C   0  0  2  0  0  3  0  0  0  0  0  0
  191.2260  175.8450  147.2270 O   0  0  0  0  0  1  0  0  0  0  0  0
  191.2600  175.6090  145.8530 C   0  0  2  0  0  3  0  0  0  0  0  0
  192.4490  173.8090  144.8030 O   0  0  0  0  0  1  0  0  0  0  0  0
  192.6200  175.0320  145.4530 C   0  0  0  0  0  2  0  0  0  0  0  0
  191.7540  178.0170  145.3800 O   0  0  0  0  0  0  0  0  0  0  0  0
  192.0120  178.6470  144.2460 O   0  0  0  0  0  1  0  0  0  0  0  0
  1 36  1  0  0  0  0
  2  1  2  0  0  0  0
  3  6  1  0  0  0  0
  4  2  1  1  0  0  0
  4  7  1  0  0  0  0
  6  7  1  0  0  0  0
  6  5  1  0  0  0  0
  7 11  1  1  0  0  0
  8  3  1  0  0  0  0
  8  4  1  0  0  0  0
 11  9  2  0  0  0  0
 11 10  1  0  0  0  0
 12 13  1  0  0  0  0
 12  2  1  0  0  0  0
 14 34  1  1  0  0  0
 14 19  1  0  0  0  0
 14 13  1  0  0  0  0
 15 16  1  0  0  0  0
 15 19  1  0  0  0  0
 16 17  1  0  0  0  0
 17 26  1  6  0  0  0
 17 18  1  0  0  0  0
 19 18  1  0  0  0  0
 20 21  1  0  0  0  0
 21 30  1  0  0  0  0
 21 27  2  0  0  0  0
 22 24  1  0  0  0  0
 22 23  1  0  0  0  0
 26 25  2  0  0  0  0
 27 23  1  0  0  0  0
 28 24  1  0  0  0  0
 28 30  1  0  0  0  0
 29 27  1  0  0  0  0
 30 26  1  0  0  0  0
 31 20  2  0  0  0  0
 31 29  1  0  0  0  0
 32 29  1  0  0  0  0
 32 33  1  0  0  0  0
 34 35  1  0  0  0  0
 38 37  1  6  0  0  0
 38 36  1  0  0  0  0
 38 39  1  0  0  0  0
 40 39  1  0  0  0  0
 40 48  1  1  0  0  0
 41 44  1  0  0  0  0
 42 41  1  0  0  0  0
 42 45  1  0  0  0  0
 42 40  1  1  0  0  0
 44 43  1  0  0  0  0
 44 47  1  1  0  0  0
 45 43  1  0  0  0  0
 47 46  1  0  0  0  0
 48 49  1  0  0  0  0
 49 50  2  0  0  0  0
 49 51  1  0  0  0  0
 51 52  1  0  0  0  0
 52 57  1  0  0  0  0
 53 63  1  0  0  0  0
 53 56  1  0  0  0  0
 54 56  2  0  0  0  0
 54 62  1  0  0  0  0
 55 53  2  0  0  0  0
 56 58  1  0  0  0  0
 57 54  1  0  0  0  0
 59 55  1  0  0  0  0
 59 57  2  0  0  0  0
 60 55  1  0  0  0  0
 62 61  2  0  0  0  0
 63 68  1  1  0  0  0
 63 65  1  0  0  0  0
 65 64  1  1  0  0  0
 66 67  1  0  0  0  0
 67 65  1  0  0  0  0
 69 68  1  0  0  0  0
M  END
>  <MODEL>
4

>  <REMARK>
 VINA RESULT:      -2.1      2.328      6.658
  Name = 
  25 active torsions:
  status: ('A' for Active; 'I' for Inactive)
    1  A    between atoms: C_1  and  C_13
    2  A    between atoms: C_1  and  C_45
    3  A    between atoms: O_5  and  C_14
    4  A    between atoms: O_5  and  C_63
    5  A    between atoms: C_7  and  C_35
    6  A    between atoms: C_9  and  C_55
    7  A    between atoms: C_10  and  C_45
    8  A    between atoms: C_11  and  C_53
    9  A    between atoms: C_13  and  O_34
   10  A    between atoms: C_14  and  C_21
   11  A    between atoms: C_14  and  N_54
   12  A    between atoms: O_17  and  C_35
   13  A    between atoms: O_19  and  C_45
   14  A    between atoms: O_19  and  C_58
   15  A    between atoms: C_20  and  C_26
   16  A    between atoms: C_20  and  C_58
   17  A    between atoms: C_24  and  C_67
   18  A    between atoms: C_31  and  C_52
   19  A    between atoms: O_34  and  C_52
   20  A    between atoms: C_35  and  C_67
   21  A    between atoms: C_37  and  C_50
   22  A    between atoms: C_41  and  C_44
   23  A    between atoms: C_49  and  C_64
   24  A    between atoms: C_55  and  C_63
   25  A    between atoms: N_59  and  C_62
                            x       y       z     vdW  Elec       q    Type
                         _______ _______ _______ _____ _____    ______ ____

>  <TORSDO>
F 25

$$$$
=
 OpenBabel10222415113D

 69 74  0  0  1  0  0  0  0  0999 V2000
  186.8600  177.4120  137.8930 C   0  0  0  0  0  3  0  0  0  0  0  0
  188.1010  177.0460  137.5440 C   0  0  0  0  0  0  0  0  0  0  0  0
  191.6990  177.3950  138.4690 C   0  0  0  0  0  2  0  0  0  0  0  0
  189.3540  177.6200  138.1420 C   0  0  1  0  0  3  0  0  0  0  0  0
  191.7630  177.7980  140.7680 C   0  0  0  0  0  1  0  0  0  0  0  0
  191.0670  177.0380  139.7450 N   0  0  0  0  0  0  0  0  0  0  0  0
  189.6960  177.5610  139.6510 C   0  0  2  0  0  3  0  0  0  0  0  0
  190.6220  177.2360  137.4140 C   0  0  0  0  0  2  0  0  0  0  0  0
  187.8050  177.4660  141.1130 O   0  0  0  0  0  1  0  0  0  0  0  0
  188.9640  175.5030  140.9740 O   0  0  0  0  0  0  0  0  0  0  0  0
  188.7770  176.8330  140.6190 C   0  0  0  0  0  0  0  0  0  0  0  0
  188.2730  175.7930  136.7500 C   0  0  0  0  0  2  0  0  0  0  0  0
  189.1480  174.9340  137.4320 O   0  0  0  0  0  0  0  0  0  0  0  0
  189.6820  174.0630  136.4600 C   0  0  2  0  0  3  0  0  0  0  0  0
  188.5860  172.3420  135.2000 C   0  0  0  0  0  2  0  0  0  0  0  0
  187.0760  172.2930  135.2110 C   0  0  0  0  0  2  0  0  0  0  0  0
  186.7390  172.1070  136.6640 C   0  0  1  0  0  3  0  0  0  0  0  0
  187.9030  172.7220  137.4180 C   0  0  0  0  0  2  0  0  0  0  0  0
  189.0670  172.7110  136.5250 N   0  0  0  0  0  0  0  0  0  0  0  0
  182.4020  171.8110  136.6770 N   0  0  0  0  0  0  0  0  0  0  0  0
  183.0390  173.0290  136.3170 C   0  0  0  0  0  0  0  0  0  0  0  0
  183.0630  175.4920  134.6120 N   0  0  0  0  0  2  0  0  0  0  0  0
  182.4330  175.4180  135.9280 C   0  0  0  0  0  2  0  0  0  0  0  0
  184.4990  175.2910  134.7850 C   0  0  0  0  0  2  0  0  0  0  0  0
  185.0400  172.6530  138.2480 O   0  0  0  0  0  0  0  0  0  0  0  0
  185.3910  172.7150  137.0290 C   0  0  0  0  0  0  0  0  0  0  0  0
  182.1600  173.9880  136.2610 C   0  0  0  0  0  0  0  0  0  0  0  0
  184.8540  173.7950  134.7990 C   0  0  0  0  0  2  0  0  0  0  0  0
  180.8940  173.4220  136.5820 N   0  0  0  0  0  0  0  0  0  0  0  0
  184.4400  173.1700  136.0540 N   0  0  0  0  0  0  0  0  0  0  0  0
  181.0150  172.0290  136.7820 N   0  0  0  0  0  0  0  0  0  0  0  0
  179.6380  174.0230  136.1300 C   0  0  0  0  0  2  0  0  0  0  0  0
  179.5670  174.0530  134.6180 C   0  0  0  0  0  1  0  0  0  0  0  0
  191.2140  174.0230  136.5950 C   0  0  0  0  0  2  0  0  0  0  0  0
  191.5980  173.9460  137.9500 O   0  0  0  0  0  1  0  0  0  0  0  0
  186.5190  178.5050  138.8670 C   0  0  0  0  0  2  0  0  0  0  0  0
  184.3280  177.8750  138.0980 O   0  0  0  0  0  1  0  0  0  0  0  0
  185.0440  178.8840  138.7700 C   0  0  1  0  0  3  0  0  0  0  0  0
  184.5250  179.0630  140.0580 O   0  0  0  0  0  0  0  0  0  0  0  0
  183.7590  177.9220  140.3300 C   0  0  2  0  0  3  0  0  0  0  0  0
  181.8540  179.6670  140.3330 C   0  0  0  0  0  2  0  0  0  0  0  0
  182.2500  178.1940  140.2580 C   0  0  1  0  0  3  0  0  0  0  0  0
  181.5060  178.8600  138.0860 N   0  0  0  0  0  2  0  0  0  0  0  0
  181.2370  179.9670  138.9800 C   0  0  2  0  0  3  0  0  0  0  0  0
  181.7000  177.6980  138.9500 C   0  0  0  0  0  2  0  0  0  0  0  0
  180.7850  182.1620  137.8960 C   0  0  0  0  0  1  0  0  0  0  0  0
  181.8590  181.2270  138.4120 C   0  0  0  0  0  2  0  0  0  0  0  0
  184.1030  177.3940  141.7320 C   0  0  0  0  0  2  0  0  0  0  0  0
  184.4920  178.4750  142.7080 C   0  0  0  0  0  0  0  0  0  0  0  0
  183.6820  179.4080  142.9510 O   0  0  0  0  0  0  0  0  0  0  0  0
  185.6980  178.4730  143.3970 O   0  0  0  0  0  0  0  0  0  0  0  0
  185.8770  179.0530  144.6860 C   0  0  0  0  0  2  0  0  0  0  0  0
  189.1220  177.0140  146.6120 C   0  0  0  0  0  0  0  0  0  0  0  0
  186.9670  178.1550  146.7940 C   0  0  0  0  0  0  0  0  0  0  0  0
  189.0270  177.1420  145.2130 C   0  0  0  0  0  0  0  0  0  0  0  0
  188.0700  177.5130  147.4070 C   0  0  0  0  0  0  0  0  0  0  0  0
  186.9440  178.2680  145.3990 C   0  0  0  0  0  0  0  0  0  0  0  0
  188.1130  177.3390  148.8310 N   0  0  0  0  0  1  0  0  0  0  0  0
  187.9610  177.7600  144.6620 N   0  0  0  0  0  0  0  0  0  0  0  0
  190.0600  176.6210  144.2780 C   0  0  0  0  0  1  0  0  0  0  0  0
  184.6320  178.1640  147.4110 O   0  0  0  0  0  0  0  0  0  0  0  0
  185.7860  178.6590  147.5480 C   0  0  0  0  0  3  0  0  0  0  0  0
  190.2100  176.2070  147.3080 C   0  0  2  0  0  3  0  0  0  0  0  0
  191.9260  177.1270  145.8620 O   0  0  0  0  0  1  0  0  0  0  0  0
  191.6740  176.6720  147.1560 C   0  0  2  0  0  3  0  0  0  0  0  0
  193.1540  175.7420  148.8000 O   0  0  0  0  0  1  0  0  0  0  0  0
  192.6470  175.5460  147.5150 C   0  0  0  0  0  2  0  0  0  0  0  0
  190.0170  174.8020  147.3290 O   0  0  0  0  0  0  0  0  0  0  0  0
  189.6060  174.4860  148.5450 O   0  0  0  0  0  1  0  0  0  0  0  0
  1 36  1  0  0  0  0
  2  1  2  0  0  0  0
  3  6  1  0  0  0  0
  4  2  1  1  0  0  0
  4  7  1  0  0  0  0
  6  5  1  0  0  0  0
  7  6  1  0  0  0  0
  7 11  1  1  0  0  0
  8  4  1  0  0  0  0
  8  3  1  0  0  0  0
 11 10  2  0  0  0  0
 11  9  1  0  0  0  0
 12 13  1  0  0  0  0
 12  2  1  0  0  0  0
 14 19  1  0  0  0  0
 14 34  1  1  0  0  0
 14 13  1  0  0  0  0
 15 16  1  0  0  0  0
 15 19  1  0  0  0  0
 16 17  1  0  0  0  0
 17 26  1  1  0  0  0
 17 18  1  0  0  0  0
 19 18  1  0  0  0  0
 20 31  2  0  0  0  0
 21 20  1  0  0  0  0
 22 24  1  0  0  0  0
 22 23  1  0  0  0  0
 23 27  1  0  0  0  0
 24 28  1  0  0  0  0
 26 25  2  0  0  0  0
 27 21  2  0  0  0  0
 27 29  1  0  0  0  0
 28 30  1  0  0  0  0
 29 31  1  0  0  0  0
 30 21  1  0  0  0  0
 30 26  1  0  0  0  0
 32 29  1  0  0  0  0
 33 32  1  0  0  0  0
 34 35  1  0  0  0  0
 38 37  1  1  0  0  0
 38 36  1  0  0  0  0
 38 39  1  0  0  0  0
 39 40  1  0  0  0  0
 40 48  1  1  0  0  0
 42 40  1  6  0  0  0
 42 41  1  0  0  0  0
 43 45  1  0  0  0  0
 43 44  1  0  0  0  0
 44 47  1  6  0  0  0
 44 41  1  0  0  0  0
 45 42  1  0  0  0  0
 46 47  1  0  0  0  0
 48 49  1  0  0  0  0
 49 50  2  0  0  0  0
 49 51  1  0  0  0  0
 51 52  1  0  0  0  0
 52 57  1  0  0  0  0
 53 63  1  0  0  0  0
 53 56  1  0  0  0  0
 54 56  2  0  0  0  0
 54 62  1  0  0  0  0
 55 53  2  0  0  0  0
 56 58  1  0  0  0  0
 57 54  1  0  0  0  0
 59 55  1  0  0  0  0
 59 57  2  0  0  0  0
 60 55  1  0  0  0  0
 61 62  2  0  0  0  0
 63 68  1  6  0  0  0
 65 64  1  6  0  0  0
 65 63  1  0  0  0  0
 65 67  1  0  0  0  0
 67 66  1  0  0  0  0
 68 69  1  0  0  0  0
M  END
>  <MODEL>
5

>  <REMARK>
 VINA RESULT:      -1.7      2.556      6.875
  Name = 
  25 active torsions:
  status: ('A' for Active; 'I' for Inactive)
    1  A    between atoms: C_1  and  C_13
    2  A    between atoms: C_1  and  C_45
    3  A    between atoms: O_5  and  C_14
    4  A    between atoms: O_5  and  C_63
    5  A    between atoms: C_7  and  C_35
    6  A    between atoms: C_9  and  C_55
    7  A    between atoms: C_10  and  C_45
    8  A    between atoms: C_11  and  C_53
    9  A    between atoms: C_13  and  O_34
   10  A    between atoms: C_14  and  C_21
   11  A    between atoms: C_14  and  N_54
   12  A    between atoms: O_17  and  C_35
   13  A    between atoms: O_19  and  C_45
   14  A    between atoms: O_19  and  C_58
   15  A    between atoms: C_20  and  C_26
   16  A    between atoms: C_20  and  C_58
   17  A    between atoms: C_24  and  C_67
   18  A    between atoms: C_31  and  C_52
   19  A    between atoms: O_34  and  C_52
   20  A    between atoms: C_35  and  C_67
   21  A    between atoms: C_37  and  C_50
   22  A    between atoms: C_41  and  C_44
   23  A    between atoms: C_49  and  C_64
   24  A    between atoms: C_55  and  C_63
   25  A    between atoms: N_59  and  C_62
                            x       y       z     vdW  Elec       q    Type
                         _______ _______ _______ _____ _____    ______ ____

>  <TORSDO>
F 25

$$$$
=
 OpenBabel10222415113D

 69 74  0  0  1  0  0  0  0  0999 V2000
  185.2450  178.1230  138.8400 C   0  0  0  0  0  3  0  0  0  0  0  0
  185.2570  177.5950  137.6080 C   0  0  0  0  0  0  0  0  0  0  0  0
  181.7130  177.5030  136.4430 C   0  0  0  0  0  2  0  0  0  0  0  0
  184.0780  177.5890  136.6760 C   0  0  1  0  0  3  0  0  0  0  0  0
  181.5910  175.8490  134.8010 C   0  0  0  0  0  1  0  0  0  0  0  0
  182.2140  176.1740  136.0710 N   0  0  0  0  0  0  0  0  0  0  0  0
  183.6530  176.3620  135.8320 C   0  0  2  0  0  3  0  0  0  0  0  0
  182.8060  178.1390  137.2790 C   0  0  0  0  0  2  0  0  0  0  0  0
  184.2920  174.4050  137.0490 O   0  0  0  0  0  1  0  0  0  0  0  0
  185.1720  174.5110  134.9440 O   0  0  0  0  0  0  0  0  0  0  0  0
  184.3950  175.0420  135.9660 C   0  0  0  0  0  0  0  0  0  0  0  0
  186.5770  177.2670  136.9920 C   0  0  0  0  0  2  0  0  0  0  0  0
  187.5770  177.3700  137.9700 O   0  0  0  0  0  0  0  0  0  0  0  0
  188.6700  176.6140  137.4960 C   0  0  2  0  0  3  0  0  0  0  0  0
  190.7550  177.7810  137.7110 C   0  0  0  0  0  2  0  0  0  0  0  0
  192.0140  177.0980  137.2320 C   0  0  0  0  0  2  0  0  0  0  0  0
  192.0800  175.8500  138.0680 C   0  0  1  0  0  3  0  0  0  0  0  0
  190.6380  175.5440  138.4280 C   0  0  0  0  0  2  0  0  0  0  0  0
  189.8810  176.7980  138.3400 N   0  0  0  0  0  0  0  0  0  0  0  0
  194.9240  172.5650  138.1820 N   0  0  0  0  0  0  0  0  0  0  0  0
  194.9090  173.4650  137.0830 C   0  0  0  0  0  0  0  0  0  0  0  0
  196.4400  174.9770  135.0000 N   0  0  0  0  0  2  0  0  0  0  0  0
  195.8820  173.6440  134.7930 C   0  0  0  0  0  2  0  0  0  0  0  0
  195.3330  175.9030  135.2200 C   0  0  0  0  0  2  0  0  0  0  0  0
  192.1090  173.6440  137.1570 O   0  0  0  0  0  0  0  0  0  0  0  0
  192.7800  174.7060  137.3470 C   0  0  0  0  0  0  0  0  0  0  0  0
  195.6490  172.9990  136.1190 C   0  0  0  0  0  0  0  0  0  0  0  0
  194.9090  175.9220  136.6980 C   0  0  0  0  0  2  0  0  0  0  0  0
  196.1880  171.7570  136.5610 N   0  0  0  0  0  0  0  0  0  0  0  0
  194.1860  174.7010  137.0520 N   0  0  0  0  0  0  0  0  0  0  0  0
  195.7950  171.4980  137.8930 N   0  0  0  0  0  0  0  0  0  0  0  0
  197.4300  171.2100  136.0100 C   0  0  0  0  0  2  0  0  0  0  0  0
  197.8030  169.9160  136.7010 C   0  0  0  0  0  1  0  0  0  0  0  0
  188.9240  176.9520  136.0180 C   0  0  0  0  0  2  0  0  0  0  0  0
  188.9140  175.7860  135.2250 O   0  0  0  0  0  1  0  0  0  0  0  0
  184.0410  178.7150  139.5180 C   0  0  0  0  0  2  0  0  0  0  0  0
  182.9410  176.6020  139.8540 O   0  0  0  0  0  1  0  0  0  0  0  0
  182.7970  177.8700  139.2600 C   0  0  1  0  0  3  0  0  0  0  0  0
  181.6750  178.5220  139.7880 O   0  0  0  0  0  0  0  0  0  0  0  0
  181.1030  177.6290  140.7030 C   0  0  2  0  0  3  0  0  0  0  0  0
  179.6220  176.1260  139.2110 C   0  0  0  0  0  2  0  0  0  0  0  0
  179.6870  177.1980  140.2970 C   0  0  1  0  0  3  0  0  0  0  0  0
  178.9810  175.1590  141.3270 N   0  0  0  0  0  2  0  0  0  0  0  0
  179.0080  174.9210  139.8990 C   0  0  2  0  0  3  0  0  0  0  0  0
  178.9690  176.6120  141.4810 C   0  0  0  0  0  2  0  0  0  0  0  0
  179.1170  172.7450  138.6950 C   0  0  0  0  0  1  0  0  0  0  0  0
  179.8540  173.6960  139.6150 C   0  0  0  0  0  2  0  0  0  0  0  0
  181.0450  178.2830  142.0930 C   0  0  0  0  0  2  0  0  0  0  0  0
  181.7420  179.6180  142.1630 C   0  0  0  0  0  0  0  0  0  0  0  0
  181.3570  180.5550  141.4160 O   0  0  0  0  0  0  0  0  0  0  0  0
  182.7740  179.8860  143.0540 O   0  0  0  0  0  0  0  0  0  0  0  0
  183.0790  179.0720  144.1830 C   0  0  0  0  0  2  0  0  0  0  0  0
  187.2410  178.1370  143.7390 C   0  0  0  0  0  0  0  0  0  0  0  0
  185.2880  178.3470  145.1970 C   0  0  0  0  0  0  0  0  0  0  0  0
  186.4050  178.4250  142.6440 C   0  0  0  0  0  0  0  0  0  0  0  0
  186.6690  178.0820  145.0270 C   0  0  0  0  0  0  0  0  0  0  0  0
  184.5180  178.6480  144.0680 C   0  0  0  0  0  0  0  0  0  0  0  0
  187.4870  177.7290  146.1520 N   0  0  0  0  0  1  0  0  0  0  0  0
  185.0930  178.6730  142.8420 N   0  0  0  0  0  0  0  0  0  0  0  0
  186.8940  178.4740  141.2400 C   0  0  0  0  0  1  0  0  0  0  0  0
  185.1460  178.5640  147.5980 O   0  0  0  0  0  0  0  0  0  0  0  0
  184.5890  178.2550  146.5080 C   0  0  0  0  0  3  0  0  0  0  0  0
  188.6940  177.7030  143.5950 C   0  0  2  0  0  3  0  0  0  0  0  0
  190.5640  178.7140  142.4280 O   0  0  0  0  0  1  0  0  0  0  0  0
  189.7840  178.7950  143.5820 C   0  0  2  0  0  3  0  0  0  0  0  0
  191.8490  178.0080  144.5170 O   0  0  0  0  0  1  0  0  0  0  0  0
  190.6740  178.6970  144.8240 C   0  0  0  0  0  2  0  0  0  0  0  0
  188.9250  176.6030  142.7300 O   0  0  0  0  0  0  0  0  0  0  0  0
  188.9980  175.5220  143.4890 O   0  0  0  0  0  1  0  0  0  0  0  0
  1 36  1  0  0  0  0
  2  1  2  0  0  0  0
  3  8  1  0  0  0  0
  4  8  1  0  0  0  0
  4  2  1  1  0  0  0
  5  6  1  0  0  0  0
  6  3  1  0  0  0  0
  7 11  1  1  0  0  0
  7  6  1  0  0  0  0
  7  4  1  0  0  0  0
 10 11  2  0  0  0  0
 11  9  1  0  0  0  0
 12  2  1  0  0  0  0
 12 13  1  0  0  0  0
 14 34  1  6  0  0  0
 14 13  1  0  0  0  0
 14 19  1  0  0  0  0
 15 19  1  0  0  0  0
 16 15  1  0  0  0  0
 16 17  1  0  0  0  0
 17 26  1  6  0  0  0
 17 18  1  0  0  0  0
 19 18  1  0  0  0  0
 21 20  1  0  0  0  0
 22 24  1  0  0  0  0
 23 22  1  0  0  0  0
 23 27  1  0  0  0  0
 24 28  1  0  0  0  0
 25 26  2  0  0  0  0
 27 29  1  0  0  0  0
 27 21  2  0  0  0  0
 28 30  1  0  0  0  0
 29 31  1  0  0  0  0
 30 21  1  0  0  0  0
 30 26  1  0  0  0  0
 31 20  2  0  0  0  0
 32 29  1  0  0  0  0
 32 33  1  0  0  0  0
 35 34  1  0  0  0  0
 38 36  1  0  0  0  0
 38 39  1  0  0  0  0
 38 37  1  1  0  0  0
 39 40  1  0  0  0  0
 40 48  1  1  0  0  0
 41 44  1  0  0  0  0
 41 42  1  0  0  0  0
 42 40  1  1  0  0  0
 42 45  1  0  0  0  0
 43 45  1  0  0  0  0
 44 47  1  1  0  0  0
 44 43  1  0  0  0  0
 46 47  1  0  0  0  0
 48 49  1  0  0  0  0
 49 51  1  0  0  0  0
 50 49  2  0  0  0  0
 51 52  1  0  0  0  0
 53 56  1  0  0  0  0
 54 62  1  0  0  0  0
 55 59  1  0  0  0  0
 55 53  2  0  0  0  0
 56 54  2  0  0  0  0
 56 58  1  0  0  0  0
 57 52  1  0  0  0  0
 57 54  1  0  0  0  0
 59 57  2  0  0  0  0
 60 55  1  0  0  0  0
 62 61  2  0  0  0  0
 63 68  1  6  0  0  0
 63 53  1  0  0  0  0
 65 64  1  6  0  0  0
 65 63  1  0  0  0  0
 65 67  1  0  0  0  0
 66 67  1  0  0  0  0
 68 69  1  0  0  0  0
M  END
>  <MODEL>
6

>  <REMARK>
 VINA RESULT:      -1.5      2.828      8.806
  Name = 
  25 active torsions:
  status: ('A' for Active; 'I' for Inactive)
    1  A    between atoms: C_1  and  C_13
    2  A    between atoms: C_1  and  C_45
    3  A    between atoms: O_5  and  C_14
    4  A    between atoms: O_5  and  C_63
    5  A    between atoms: C_7  and  C_35
    6  A    between atoms: C_9  and  C_55
    7  A    between atoms: C_10  and  C_45
    8  A    between atoms: C_11  and  C_53
    9  A    between atoms: C_13  and  O_34
   10  A    between atoms: C_14  and  C_21
   11  A    between atoms: C_14  and  N_54
   12  A    between atoms: O_17  and  C_35
   13  A    between atoms: O_19  and  C_45
   14  A    between atoms: O_19  and  C_58
   15  A    between atoms: C_20  and  C_26
   16  A    between atoms: C_20  and  C_58
   17  A    between atoms: C_24  and  C_67
   18  A    between atoms: C_31  and  C_52
   19  A    between atoms: O_34  and  C_52
   20  A    between atoms: C_35  and  C_67
   21  A    between atoms: C_37  and  C_50
   22  A    between atoms: C_41  and  C_44
   23  A    between atoms: C_49  and  C_64
   24  A    between atoms: C_55  and  C_63
   25  A    between atoms: N_59  and  C_62
                            x       y       z     vdW  Elec       q    Type
                         _______ _______ _______ _____ _____    ______ ____

>  <TORSDO>
F 25

$$$$
=
 OpenBabel10222415113D

 69 74  0  0  1  0  0  0  0  0999 V2000
  186.8930  177.6340  138.6170 C   0  0  0  0  0  3  0  0  0  0  0  0
  188.0250  177.2420  138.0170 C   0  0  0  0  0  0  0  0  0  0  0  0
  191.7430  177.5410  138.0890 C   0  0  0  0  0  2  0  0  0  0  0  0
  189.3910  177.7650  138.3580 C   0  0  1  0  0  3  0  0  0  0  0  0
  192.3600  177.6860  140.3350 C   0  0  0  0  0  1  0  0  0  0  0  0
  191.4310  177.0340  139.4300 N   0  0  0  0  0  0  0  0  0  0  0  0
  190.0830  177.5430  139.7260 C   0  0  2  0  0  3  0  0  0  0  0  0
  190.4440  177.4840  137.3100 C   0  0  0  0  0  2  0  0  0  0  0  0
  189.9860  175.6370  141.1670 O   0  0  0  0  0  0  0  0  0  0  0  0
  188.2050  177.0500  141.3850 O   0  0  0  0  0  1  0  0  0  0  0  0
  189.4140  176.6980  140.7980 C   0  0  0  0  0  0  0  0  0  0  0  0
  187.9910  176.0050  137.1800 C   0  0  0  0  0  2  0  0  0  0  0  0
  188.8540  175.0510  137.7380 O   0  0  0  0  0  0  0  0  0  0  0  0
  189.4360  174.3640  136.6530 C   0  0  2  0  0  3  0  0  0  0  0  0
  188.3900  172.9470  135.0240 C   0  0  0  0  0  2  0  0  0  0  0  0
  186.8820  172.9420  134.9390 C   0  0  0  0  0  2  0  0  0  0  0  0
  186.4510  172.4910  136.3080 C   0  0  1  0  0  3  0  0  0  0  0  0
  187.5770  172.9160  137.2310 C   0  0  0  0  0  2  0  0  0  0  0  0
  188.7950  173.0420  136.4210 N   0  0  0  0  0  0  0  0  0  0  0  0
  182.1620  172.6950  135.6380 N   0  0  0  0  0  0  0  0  0  0  0  0
  182.9090  173.8790  135.8760 C   0  0  0  0  0  0  0  0  0  0  0  0
  183.3350  176.7890  135.3060 N   0  0  0  0  0  2  0  0  0  0  0  0
  182.4960  176.2850  136.3900 C   0  0  0  0  0  2  0  0  0  0  0  0
  184.7120  176.3790  135.5700 C   0  0  0  0  0  2  0  0  0  0  0  0
  184.5470  172.5720  137.7430 O   0  0  0  0  0  0  0  0  0  0  0  0
  185.0950  173.0570  136.7050 C   0  0  0  0  0  0  0  0  0  0  0  0
  182.1010  174.8770  136.0910 C   0  0  0  0  0  0  0  0  0  0  0  0
  184.9840  174.9630  135.0360 C   0  0  0  0  0  2  0  0  0  0  0  0
  180.7720  174.3740  135.9940 N   0  0  0  0  0  0  0  0  0  0  0  0
  184.3390  173.9540  135.8750 N   0  0  0  0  0  0  0  0  0  0  0  0
  180.7890  173.0060  135.6400 N   0  0  0  0  0  0  0  0  0  0  0  0
  179.6380  175.2370  135.6570 C   0  0  0  0  0  2  0  0  0  0  0  0
  178.9780  175.7730  136.9090 C   0  0  0  0  0  1  0  0  0  0  0  0
  190.9540  174.2520  136.8720 C   0  0  0  0  0  2  0  0  0  0  0  0
  191.4020  172.9350  136.6410 O   0  0  0  0  0  1  0  0  0  0  0  0
  186.7920  178.7110  139.6620 C   0  0  0  0  0  2  0  0  0  0  0  0
  184.4880  178.1000  139.3380 O   0  0  0  0  0  1  0  0  0  0  0  0
  185.3350  179.0050  140.0050 C   0  0  1  0  0  3  0  0  0  0  0  0
  185.1540  178.8980  141.3900 O   0  0  0  0  0  0  0  0  0  0  0  0
  183.8820  178.3400  141.5730 C   0  0  2  0  0  3  0  0  0  0  0  0
  181.8840  179.1840  140.1700 C   0  0  0  0  0  2  0  0  0  0  0  0
  182.7570  179.3710  141.4090 C   0  0  1  0  0  3  0  0  0  0  0  0
  180.6240  178.5750  142.1350 N   0  0  0  0  0  2  0  0  0  0  0  0
  180.5100  178.8480  140.7180 C   0  0  2  0  0  3  0  0  0  0  0  0
  181.8160  179.2950  142.5780 C   0  0  0  0  0  2  0  0  0  0  0  0
  181.0750  176.5900  139.8370 C   0  0  0  0  0  1  0  0  0  0  0  0
  179.9760  177.6160  140.0150 C   0  0  0  0  0  2  0  0  0  0  0  0
  183.7890  177.7230  142.9780 C   0  0  0  0  0  2  0  0  0  0  0  0
  184.7740  178.3040  143.9620 C   0  0  0  0  0  0  0  0  0  0  0  0
  184.3800  179.1610  144.7960 O   0  0  0  0  0  0  0  0  0  0  0  0
  186.1030  177.9050  144.0260 O   0  0  0  0  0  0  0  0  0  0  0  0
  187.2060  178.7830  143.8190 C   0  0  0  0  0  2  0  0  0  0  0  0
  190.3220  177.1790  146.2910 C   0  0  0  0  0  0  0  0  0  0  0  0
  189.6730  178.4910  144.3320 C   0  0  0  0  0  0  0  0  0  0  0  0
  188.9570  177.0640  146.6170 C   0  0  0  0  0  0  0  0  0  0  0  0
  190.6810  177.9170  145.1440 C   0  0  0  0  0  0  0  0  0  0  0  0
  188.3340  178.3200  144.7000 C   0  0  0  0  0  0  0  0  0  0  0  0
  192.0670  178.1030  144.8260 N   0  0  0  0  0  1  0  0  0  0  0  0
  188.0230  177.6240  145.8190 N   0  0  0  0  0  0  0  0  0  0  0  0
  188.4680  176.3400  147.8210 C   0  0  0  0  0  1  0  0  0  0  0  0
  191.0130  179.2010  142.4520 O   0  0  0  0  0  0  0  0  0  0  0  0
  189.9600  179.3320  143.1370 C   0  0  0  0  0  3  0  0  0  0  0  0
  191.4450  176.7080  147.2060 C   0  0  2  0  0  3  0  0  0  0  0  0
  192.2680  174.8970  148.5930 O   0  0  0  0  0  1  0  0  0  0  0  0
  191.6640  175.1890  147.3690 C   0  0  2  0  0  3  0  0  0  0  0  0
  192.0590  175.1420  145.0040 O   0  0  0  0  0  1  0  0  0  0  0  0
  192.5080  174.6300  146.2220 C   0  0  0  0  0  2  0  0  0  0  0  0
  191.6520  177.4810  148.3760 O   0  0  0  0  0  0  0  0  0  0  0  0
  192.8170  177.1130  148.8830 O   0  0  0  0  0  1  0  0  0  0  0  0
  1 36  1  0  0  0  0
  2  1  2  0  0  0  0
  3  6  1  0  0  0  0
  4  2  1  6  0  0  0
  4  7  1  0  0  0  0
  6  7  1  0  0  0  0
  6  5  1  0  0  0  0
  7 11  1  1  0  0  0
  8  3  1  0  0  0  0
  8  4  1  0  0  0  0
 11  9  2  0  0  0  0
 11 10  1  0  0  0  0
 12 13  1  0  0  0  0
 12  2  1  0  0  0  0
 14 34  1  1  0  0  0
 14 13  1  0  0  0  0
 15 19  1  0  0  0  0
 16 15  1  0  0  0  0
 16 17  1  0  0  0  0
 17 26  1  1  0  0  0
 17 18  1  0  0  0  0
 19 14  1  0  0  0  0
 19 18  1  0  0  0  0
 20 31  2  0  0  0  0
 20 21  1  0  0  0  0
 21 27  2  0  0  0  0
 22 24  1  0  0  0  0
 22 23  1  0  0  0  0
 26 25  2  0  0  0  0
 27 23  1  0  0  0  0
 28 24  1  0  0  0  0
 28 30  1  0  0  0  0
 29 27  1  0  0  0  0
 30 21  1  0  0  0  0
 30 26  1  0  0  0  0
 31 29  1  0  0  0  0
 32 29  1  0  0  0  0
 32 33  1  0  0  0  0
 35 34  1  0  0  0  0
 36 38  1  0  0  0  0
 38 37  1  6  0  0  0
 38 39  1  0  0  0  0
 39 40  1  0  0  0  0
 40 48  1  1  0  0  0
 41 44  1  0  0  0  0
 41 42  1  0  0  0  0
 42 40  1  1  0  0  0
 42 45  1  0  0  0  0
 43 45  1  0  0  0  0
 44 47  1  6  0  0  0
 44 43  1  0  0  0  0
 46 47  1  0  0  0  0
 48 49  1  0  0  0  0
 49 51  1  0  0  0  0
 49 50  2  0  0  0  0
 52 51  1  0  0  0  0
 52 57  1  0  0  0  0
 53 55  1  0  0  0  0
 53 63  1  0  0  0  0
 54 57  2  0  0  0  0
 54 56  1  0  0  0  0
 55 60  1  0  0  0  0
 56 53  2  0  0  0  0
 57 59  1  0  0  0  0
 58 56  1  0  0  0  0
 59 55  2  0  0  0  0
 61 62  2  0  0  0  0
 62 54  1  0  0  0  0
 63 65  1  0  0  0  0
 63 68  1  1  0  0  0
 65 64  1  1  0  0  0
 66 67  1  0  0  0  0
 67 65  1  0  0  0  0
 68 69  1  0  0  0  0
M  END
>  <MODEL>
7

>  <REMARK>
 VINA RESULT:      -1.0      2.326      7.030
  Name = 
  25 active torsions:
  status: ('A' for Active; 'I' for Inactive)
    1  A    between atoms: C_1  and  C_13
    2  A    between atoms: C_1  and  C_45
    3  A    between atoms: O_5  and  C_14
    4  A    between atoms: O_5  and  C_63
    5  A    between atoms: C_7  and  C_35
    6  A    between atoms: C_9  and  C_55
    7  A    between atoms: C_10  and  C_45
    8  A    between atoms: C_11  and  C_53
    9  A    between atoms: C_13  and  O_34
   10  A    between atoms: C_14  and  C_21
   11  A    between atoms: C_14  and  N_54
   12  A    between atoms: O_17  and  C_35
   13  A    between atoms: O_19  and  C_45
   14  A    between atoms: O_19  and  C_58
   15  A    between atoms: C_20  and  C_26
   16  A    between atoms: C_20  and  C_58
   17  A    between atoms: C_24  and  C_67
   18  A    between atoms: C_31  and  C_52
   19  A    between atoms: O_34  and  C_52
   20  A    between atoms: C_35  and  C_67
   21  A    between atoms: C_37  and  C_50
   22  A    between atoms: C_41  and  C_44
   23  A    between atoms: C_49  and  C_64
   24  A    between atoms: C_55  and  C_63
   25  A    between atoms: N_59  and  C_62
                            x       y       z     vdW  Elec       q    Type
                         _______ _______ _______ _____ _____    ______ ____

>  <TORSDO>
F 25

$$$$
=
 OpenBabel10222415113D

 69 74  0  0  1  0  0  0  0  0999 V2000
  182.5830  177.0460  138.0960 C   0  0  0  0  0  3  0  0  0  0  0  0
  182.9160  177.9030  137.1210 C   0  0  0  0  0  0  0  0  0  0  0  0
  181.4690  181.1770  138.1750 C   0  0  0  0  0  2  0  0  0  0  0  0
  182.4340  179.3240  137.0390 C   0  0  1  0  0  3  0  0  0  0  0  0
  179.8170  181.7120  136.6150 C   0  0  0  0  0  1  0  0  0  0  0  0
  180.4040  180.6020  137.3430 N   0  0  0  0  0  0  0  0  0  0  0  0
  181.1010  179.7450  136.3720 C   0  0  2  0  0  3  0  0  0  0  0  0
  182.5000  180.0790  138.3460 C   0  0  0  0  0  2  0  0  0  0  0  0
  179.0180  178.5700  136.3390 O   0  0  0  0  0  1  0  0  0  0  0  0
  180.4960  177.8730  134.7430 O   0  0  0  0  0  0  0  0  0  0  0  0
  180.1560  178.6930  135.8120 C   0  0  0  0  0  0  0  0  0  0  0  0
  184.0630  177.5520  136.2310 C   0  0  0  0  0  2  0  0  0  0  0  0
  185.2440  177.5450  136.9860 O   0  0  0  0  0  0  0  0  0  0  0  0
  186.3050  177.6260  136.0600 C   0  0  2  0  0  3  0  0  0  0  0  0
  186.8320  175.7900  134.6090 C   0  0  0  0  0  2  0  0  0  0  0  0
  186.0010  174.5320  134.7110 C   0  0  0  0  0  2  0  0  0  0  0  0
  186.2040  174.0870  136.1330 C   0  0  1  0  0  3  0  0  0  0  0  0
  186.5140  175.3590  136.8990 C   0  0  0  0  0  2  0  0  0  0  0  0
  187.0410  176.3390  135.9430 N   0  0  0  0  0  0  0  0  0  0  0  0
  183.4930  170.7030  135.8400 N   0  0  0  0  0  0  0  0  0  0  0  0
  182.9900  172.0070  136.0940 C   0  0  0  0  0  0  0  0  0  0  0  0
  180.8200  174.0320  135.6880 N   0  0  0  0  0  2  0  0  0  0  0  0
  180.8570  173.0880  136.8020 C   0  0  0  0  0  2  0  0  0  0  0  0
  181.9740  174.9190  135.8080 C   0  0  0  0  0  2  0  0  0  0  0  0
  185.1880  172.6290  137.7250 O   0  0  0  0  0  0  0  0  0  0  0  0
  185.0040  173.3270  136.6800 C   0  0  0  0  0  0  0  0  0  0  0  0
  181.7370  171.9380  136.4420 C   0  0  0  0  0  0  0  0  0  0  0  0
  183.2220  174.2990  135.1580 C   0  0  0  0  0  2  0  0  0  0  0  0
  181.3680  170.5630  136.4240 N   0  0  0  0  0  0  0  0  0  0  0  0
  183.7550  173.2120  135.9790 N   0  0  0  0  0  0  0  0  0  0  0  0
  182.4480  169.7700  135.9770 N   0  0  0  0  0  0  0  0  0  0  0  0
  179.9790  170.1360  136.2420 C   0  0  0  0  0  2  0  0  0  0  0  0
  179.6320  170.0390  134.7720 C   0  0  0  0  0  1  0  0  0  0  0  0
  187.2250  178.8000  136.4360 C   0  0  0  0  0  2  0  0  0  0  0  0
  188.2680  178.3720  137.2820 O   0  0  0  0  0  1  0  0  0  0  0  0
  181.6160  177.3330  139.2110 C   0  0  0  0  0  2  0  0  0  0  0  0
  183.3710  176.3710  140.5460 O   0  0  0  0  0  1  0  0  0  0  0  0
  181.9760  176.5410  140.4640 C   0  0  1  0  0  3  0  0  0  0  0  0
  181.5100  177.2230  141.5940 O   0  0  0  0  0  0  0  0  0  0  0  0
  182.6150  177.9050  142.1190 C   0  0  2  0  0  3  0  0  0  0  0  0
  182.5610  178.0450  144.6990 C   0  0  0  0  0  2  0  0  0  0  0  0
  182.2620  178.7270  143.3660 C   0  0  1  0  0  3  0  0  0  0  0  0
  184.1430  179.8310  144.3430 N   0  0  0  0  0  2  0  0  0  0  0  0
  183.6430  178.9000  145.3320 C   0  0  2  0  0  3  0  0  0  0  0  0
  183.0560  180.0030  143.3820 C   0  0  0  0  0  2  0  0  0  0  0  0
  185.3490  178.5170  147.1040 C   0  0  0  0  0  1  0  0  0  0  0  0
  184.7790  178.0100  145.7960 C   0  0  0  0  0  2  0  0  0  0  0  0
  183.1940  178.8460  141.0500 C   0  0  0  0  0  2  0  0  0  0  0  0
  184.6940  178.9950  141.1230 C   0  0  0  0  0  0  0  0  0  0  0  0
  185.2140  180.1170  140.8900 O   0  0  0  0  0  0  0  0  0  0  0  0
  185.5400  177.9530  141.4810 O   0  0  0  0  0  0  0  0  0  0  0  0
  186.7270  177.6140  140.7690 C   0  0  0  0  0  2  0  0  0  0  0  0
  189.8100  177.3420  143.7360 C   0  0  0  0  0  0  0  0  0  0  0  0
  189.1410  177.1500  141.3920 C   0  0  0  0  0  0  0  0  0  0  0  0
  188.5120  177.8000  144.0290 C   0  0  0  0  0  0  0  0  0  0  0  0
  190.1300  177.0300  142.3990 C   0  0  0  0  0  0  0  0  0  0  0  0
  187.8630  177.5910  141.7540 C   0  0  0  0  0  0  0  0  0  0  0  0
  191.4640  176.6220  142.0650 N   0  0  0  0  0  1  0  0  0  0  0  0
  187.5940  177.9020  143.0440 N   0  0  0  0  0  0  0  0  0  0  0  0
  188.0770  178.1910  145.3970 C   0  0  0  0  0  1  0  0  0  0  0  0
  189.0530  175.8320  139.3710 O   0  0  0  0  0  0  0  0  0  0  0  0
  189.4030  176.8990  139.9480 C   0  0  0  0  0  3  0  0  0  0  0  0
  190.9460  177.3360  144.7510 C   0  0  2  0  0  3  0  0  0  0  0  0
  190.3860  177.4310  147.1090 O   0  0  0  0  0  1  0  0  0  0  0  0
  190.7390  176.5660  146.0730 C   0  0  2  0  0  3  0  0  0  0  0  0
  191.6420  174.5410  146.9890 O   0  0  0  0  0  1  0  0  0  0  0  0
  191.9960  175.7800  146.4530 C   0  0  0  0  0  2  0  0  0  0  0  0
  191.6830  178.5430  144.8600 O   0  0  0  0  0  0  0  0  0  0  0  0
  191.1870  179.3810  143.9660 O   0  0  0  0  0  1  0  0  0  0  0  0
  1 36  1  0  0  0  0
  2  1  2  0  0  0  0
  3  8  1  0  0  0  0
  4  2  1  1  0  0  0
  4  8  1  0  0  0  0
  5  6  1  0  0  0  0
  6  3  1  0  0  0  0
  7 11  1  1  0  0  0
  7  4  1  0  0  0  0
  7  6  1  0  0  0  0
 10 11  2  0  0  0  0
 11  9  1  0  0  0  0
 12 13  1  0  0  0  0
 12  2  1  0  0  0  0
 14 34  1  1  0  0  0
 14 13  1  0  0  0  0
 15 16  1  0  0  0  0
 15 19  1  0  0  0  0
 16 17  1  0  0  0  0
 17 26  1  1  0  0  0
 17 18  1  0  0  0  0
 19 14  1  0  0  0  0
 19 18  1  0  0  0  0
 20 31  2  0  0  0  0
 20 21  1  0  0  0  0
 21 27  2  0  0  0  0
 22 24  1  0  0  0  0
 22 23  1  0  0  0  0
 26 25  2  0  0  0  0
 27 23  1  0  0  0  0
 28 24  1  0  0  0  0
 28 30  1  0  0  0  0
 29 27  1  0  0  0  0
 30 21  1  0  0  0  0
 30 26  1  0  0  0  0
 31 29  1  0  0  0  0
 32 29  1  0  0  0  0
 33 32  1  0  0  0  0
 34 35  1  0  0  0  0
 36 38  1  0  0  0  0
 38 37  1  1  0  0  0
 38 39  1  0  0  0  0
 39 40  1  0  0  0  0
 40 48  1  6  0  0  0
 41 44  1  0  0  0  0
 42 40  1  6  0  0  0
 42 45  1  0  0  0  0
 42 41  1  0  0  0  0
 43 44  1  0  0  0  0
 44 47  1  6  0  0  0
 45 43  1  0  0  0  0
 47 46  1  0  0  0  0
 48 49  1  0  0  0  0
 49 51  1  0  0  0  0
 50 49  2  0  0  0  0
 52 51  1  0  0  0  0
 52 57  1  0  0  0  0
 53 55  1  0  0  0  0
 53 63  1  0  0  0  0
 54 57  2  0  0  0  0
 54 56  1  0  0  0  0
 55 60  1  0  0  0  0
 56 53  2  0  0  0  0
 57 59  1  0  0  0  0
 58 56  1  0  0  0  0
 59 55  2  0  0  0  0
 61 62  2  0  0  0  0
 62 54  1  0  0  0  0
 63 68  1  1  0  0  0
 63 65  1  0  0  0  0
 65 67  1  0  0  0  0
 65 64  1  1  0  0  0
 67 66  1  0  0  0  0
 69 68  1  0  0  0  0
M  END
>  <MODEL>
8

>  <REMARK>
 VINA RESULT:      -0.8      2.687      7.164
  Name = 
  25 active torsions:
  status: ('A' for Active; 'I' for Inactive)
    1  A    between atoms: C_1  and  C_13
    2  A    between atoms: C_1  and  C_45
    3  A    between atoms: O_5  and  C_14
    4  A    between atoms: O_5  and  C_63
    5  A    between atoms: C_7  and  C_35
    6  A    between atoms: C_9  and  C_55
    7  A    between atoms: C_10  and  C_45
    8  A    between atoms: C_11  and  C_53
    9  A    between atoms: C_13  and  O_34
   10  A    between atoms: C_14  and  C_21
   11  A    between atoms: C_14  and  N_54
   12  A    between atoms: O_17  and  C_35
   13  A    between atoms: O_19  and  C_45
   14  A    between atoms: O_19  and  C_58
   15  A    between atoms: C_20  and  C_26
   16  A    between atoms: C_20  and  C_58
   17  A    between atoms: C_24  and  C_67
   18  A    between atoms: C_31  and  C_52
   19  A    between atoms: O_34  and  C_52
   20  A    between atoms: C_35  and  C_67
   21  A    between atoms: C_37  and  C_50
   22  A    between atoms: C_41  and  C_44
   23  A    between atoms: C_49  and  C_64
   24  A    between atoms: C_55  and  C_63
   25  A    between atoms: N_59  and  C_62
                            x       y       z     vdW  Elec       q    Type
                         _______ _______ _______ _____ _____    ______ ____

>  <TORSDO>
F 25

$$$$
=
 OpenBabel10222415113D

 69 74  0  0  1  0  0  0  0  0999 V2000
  182.5020  177.0520  138.2930 C   0  0  0  0  0  3  0  0  0  0  0  0
  182.8130  177.8400  137.2540 C   0  0  0  0  0  0  0  0  0  0  0  0
  182.1010  181.3110  138.4240 C   0  0  0  0  0  2  0  0  0  0  0  0
  182.5560  179.3200  137.2060 C   0  0  1  0  0  3  0  0  0  0  0  0
  180.3180  182.0980  137.1390 C   0  0  0  0  0  1  0  0  0  0  0  0
  180.8350  180.9120  137.7970 N   0  0  0  0  0  0  0  0  0  0  0  0
  181.2140  179.9480  136.7530 C   0  0  2  0  0  3  0  0  0  0  0  0
  182.9580  180.0620  138.4600 C   0  0  0  0  0  2  0  0  0  0  0  0
  179.4530  178.4300  137.3130 O   0  0  0  0  0  1  0  0  0  0  0  0
  179.5720  178.9240  135.0860 O   0  0  0  0  0  0  0  0  0  0  0  0
  180.0340  179.0610  136.3890 C   0  0  0  0  0  0  0  0  0  0  0  0
  183.7380  177.3050  136.2110 C   0  0  0  0  0  2  0  0  0  0  0  0
  184.9430  176.9240  136.8190 O   0  0  0  0  0  0  0  0  0  0  0  0
  185.7240  176.3280  135.8070 C   0  0  2  0  0  3  0  0  0  0  0  0
  186.2810  174.6210  137.3970 C   0  0  0  0  0  2  0  0  0  0  0  0
  187.6980  174.0990  137.4250 C   0  0  0  0  0  2  0  0  0  0  0  0
  187.8990  173.5440  136.0420 C   0  0  1  0  0  3  0  0  0  0  0  0
  186.9530  174.3390  135.1610 C   0  0  0  0  0  2  0  0  0  0  0  0
  185.8830  174.8640  136.0160 N   0  0  0  0  0  0  0  0  0  0  0  0
  192.0770  172.6060  136.7870 N   0  0  0  0  0  0  0  0  0  0  0  0
  191.7000  173.8980  136.3310 C   0  0  0  0  0  0  0  0  0  0  0  0
  192.1500  176.8590  136.3900 N   0  0  0  0  0  2  0  0  0  0  0  0
  192.7820  175.9570  135.4310 C   0  0  0  0  0  2  0  0  0  0  0  0
  190.7080  176.8270  136.1610 C   0  0  0  0  0  2  0  0  0  0  0  0
  189.7120  172.8250  134.6670 O   0  0  0  0  0  0  0  0  0  0  0  0
  189.3520  173.6160  135.5930 C   0  0  0  0  0  0  0  0  0  0  0  0
  192.7580  174.5670  135.9740 C   0  0  0  0  0  0  0  0  0  0  0  0
  190.0490  175.6630  136.9180 C   0  0  0  0  0  2  0  0  0  0  0  0
  193.8850  173.7250  136.1920 N   0  0  0  0  0  0  0  0  0  0  0  0
  190.3530  174.3830  136.2800 N   0  0  0  0  0  0  0  0  0  0  0  0
  193.4800  172.5020  136.7710 N   0  0  0  0  0  0  0  0  0  0  0  0
  195.2280  174.2670  136.4090 C   0  0  0  0  0  2  0  0  0  0  0  0
  195.6440  174.1140  137.8570 C   0  0  0  0  0  1  0  0  0  0  0  0
  187.0730  177.0590  135.7040 C   0  0  0  0  0  2  0  0  0  0  0  0
  187.7350  177.0730  136.9480 O   0  0  0  0  0  1  0  0  0  0  0  0
  181.7760  177.4950  139.5320 C   0  0  0  0  0  2  0  0  0  0  0  0
  183.7680  176.8370  140.7120 O   0  0  0  0  0  1  0  0  0  0  0  0
  182.3610  176.8310  140.7750 C   0  0  1  0  0  3  0  0  0  0  0  0
  181.9300  177.5180  141.9160 O   0  0  0  0  0  0  0  0  0  0  0  0
  183.0690  178.1320  142.4530 C   0  0  2  0  0  3  0  0  0  0  0  0
  182.9820  178.4100  145.0200 C   0  0  0  0  0  2  0  0  0  0  0  0
  182.7420  179.0370  143.6490 C   0  0  1  0  0  3  0  0  0  0  0  0
  184.6660  180.0870  144.6020 N   0  0  0  0  0  2  0  0  0  0  0  0
  184.1000  179.2370  145.6280 C   0  0  2  0  0  3  0  0  0  0  0  0
  183.6050  180.2670  143.6130 C   0  0  0  0  0  2  0  0  0  0  0  0
  185.3070  178.4570  147.6600 C   0  0  0  0  0  1  0  0  0  0  0  0
  185.1770  178.3130  146.1590 C   0  0  0  0  0  2  0  0  0  0  0  0
  183.7610  178.9720  141.3680 C   0  0  0  0  0  2  0  0  0  0  0  0
  185.2630  179.0150  141.5000 C   0  0  0  0  0  0  0  0  0  0  0  0
  185.8610  180.1150  141.3750 O   0  0  0  0  0  0  0  0  0  0  0  0
  186.0270  177.8960  141.8020 O   0  0  0  0  0  0  0  0  0  0  0  0
  187.1870  177.5060  141.0720 C   0  0  0  0  0  2  0  0  0  0  0  0
  190.3100  176.9960  143.9660 C   0  0  0  0  0  0  0  0  0  0  0  0
  189.6350  177.1280  141.6190 C   0  0  0  0  0  0  0  0  0  0  0  0
  188.9840  177.3060  144.3240 C   0  0  0  0  0  0  0  0  0  0  0  0
  190.6390  176.9230  142.5960 C   0  0  0  0  0  0  0  0  0  0  0  0
  188.3310  177.4110  142.0430 C   0  0  0  0  0  0  0  0  0  0  0  0
  191.9960  176.6710  142.2050 N   0  0  0  0  0  1  0  0  0  0  0  0
  188.0520  177.4940  143.3660 N   0  0  0  0  0  0  0  0  0  0  0  0
  188.5350  177.4420  145.7350 C   0  0  0  0  0  1  0  0  0  0  0  0
  189.9170  178.1870  139.4680 O   0  0  0  0  0  0  0  0  0  0  0  0
  189.9010  177.1280  140.1540 C   0  0  0  0  0  3  0  0  0  0  0  0
  191.4520  176.9130  144.9700 C   0  0  2  0  0  3  0  0  0  0  0  0
  191.4050  176.2230  147.2950 O   0  0  0  0  0  1  0  0  0  0  0  0
  191.4500  175.7490  145.9830 C   0  0  2  0  0  3  0  0  0  0  0  0
  192.4040  173.8640  144.8460 O   0  0  0  0  0  1  0  0  0  0  0  0
  192.6760  174.8520  145.7930 C   0  0  0  0  0  2  0  0  0  0  0  0
  191.9260  178.1520  145.4690 O   0  0  0  0  0  0  0  0  0  0  0  0
  191.6240  179.0730  144.5700 O   0  0  0  0  0  1  0  0  0  0  0  0
  1 36  1  0  0  0  0
  2  1  2  0  0  0  0
  3  8  1  0  0  0  0
  4  2  1  1  0  0  0
  4  8  1  0  0  0  0
  5  6  1  0  0  0  0
  6  3  1  0  0  0  0
  7 11  1  1  0  0  0
  7  4  1  0  0  0  0
  7  6  1  0  0  0  0
 10 11  2  0  0  0  0
 11  9  1  0  0  0  0
 12 13  1  0  0  0  0
 12  2  1  0  0  0  0
 14 34  1  1  0  0  0
 14 19  1  0  0  0  0
 14 13  1  0  0  0  0
 15 16  1  0  0  0  0
 17 26  1  6  0  0  0
 17 16  1  0  0  0  0
 18 19  1  0  0  0  0
 18 17  1  0  0  0  0
 19 15  1  0  0  0  0
 21 20  1  0  0  0  0
 23 27  1  0  0  0  0
 23 22  1  0  0  0  0
 24 22  1  0  0  0  0
 24 28  1  0  0  0  0
 25 26  2  0  0  0  0
 26 30  1  0  0  0  0
 27 29  1  0  0  0  0
 27 21  2  0  0  0  0
 29 32  1  0  0  0  0
 29 31  1  0  0  0  0
 30 21  1  0  0  0  0
 30 28  1  0  0  0  0
 31 20  2  0  0  0  0
 32 33  1  0  0  0  0
 34 35  1  0  0  0  0
 36 38  1  0  0  0  0
 38 37  1  6  0  0  0
 38 39  1  0  0  0  0
 39 40  1  0  0  0  0
 40 48  1  6  0  0  0
 41 44  1  0  0  0  0
 42 40  1  6  0  0  0
 42 41  1  0  0  0  0
 43 44  1  0  0  0  0
 44 47  1  6  0  0  0
 45 42  1  0  0  0  0
 45 43  1  0  0  0  0
 47 46  1  0  0  0  0
 48 49  1  0  0  0  0
 49 51  1  0  0  0  0
 50 49  2  0  0  0  0
 52 51  1  0  0  0  0
 52 57  1  0  0  0  0
 53 55  1  0  0  0  0
 53 63  1  0  0  0  0
 54 57  2  0  0  0  0
 54 56  1  0  0  0  0
 55 60  1  0  0  0  0
 56 53  2  0  0  0  0
 57 59  1  0  0  0  0
 58 56  1  0  0  0  0
 59 55  2  0  0  0  0
 61 62  2  0  0  0  0
 62 54  1  0  0  0  0
 63 68  1  1  0  0  0
 63 65  1  0  0  0  0
 65 64  1  1  0  0  0
 66 67  1  0  0  0  0
 67 65  1  0  0  0  0
 69 68  1  0  0  0  0
M  END
>  <MODEL>
9

>  <REMARK>
 VINA RESULT:      -0.6      2.774      8.208
  Name = 
  25 active torsions:
  status: ('A' for Active; 'I' for Inactive)
    1  A    between atoms: C_1  and  C_13
    2  A    between atoms: C_1  and  C_45
    3  A    between atoms: O_5  and  C_14
    4  A    between atoms: O_5  and  C_63
    5  A    between atoms: C_7  and  C_35
    6  A    between atoms: C_9  and  C_55
    7  A    between atoms: C_10  and  C_45
    8  A    between atoms: C_11  and  C_53
    9  A    between atoms: C_13  and  O_34
   10  A    between atoms: C_14  and  C_21
   11  A    between atoms: C_14  and  N_54
   12  A    between atoms: O_17  and  C_35
   13  A    between atoms: O_19  and  C_45
   14  A    between atoms: O_19  and  C_58
   15  A    between atoms: C_20  and  C_26
   16  A    between atoms: C_20  and  C_58
   17  A    between atoms: C_24  and  C_67
   18  A    between atoms: C_31  and  C_52
   19  A    between atoms: O_34  and  C_52
   20  A    between atoms: C_35  and  C_67
   21  A    between atoms: C_37  and  C_50
   22  A    between atoms: C_41  and  C_44
   23  A    between atoms: C_49  and  C_64
   24  A    between atoms: C_55  and  C_63
   25  A    between atoms: N_59  and  C_62
                            x       y       z     vdW  Elec       q    Type
                         _______ _______ _______ _____ _____    ______ ____

>  <TORSDO>
F 25

$$$$
