=
 OpenBabel10222416383D

 32 37  0  0  1  0  0  0  0  0999 V2000
  186.1090  178.5050  144.6800 C   0  0  0  0  0  3  0  0  0  0  0  0
  188.5640  177.5220  141.0750 C   0  0  0  0  0  0  0  0  0  0  0  0
  185.1970  178.8840  143.6700 C   0  0  0  0  0  0  0  0  0  0  0  0
  185.5450  178.7560  142.3110 C   0  0  0  0  0  3  0  0  0  0  0  0
  188.8040  177.3970  142.4110 N   0  0  0  0  0  0  0  0  0  0  0  0
  187.3340  178.0310  140.7970 N   0  0  0  0  0  0  0  0  0  0  0  0
  187.6800  177.8610  142.9900 C   0  0  0  0  0  0  0  0  0  0  0  0
  186.8020  178.2330  142.0150 C   0  0  0  0  0  0  0  0  0  0  0  0
  187.3710  177.9810  144.3460 C   0  0  0  0  0  3  0  0  0  0  0  0
  189.2070  176.7580  138.7290 C   0  0  0  0  0  0  0  0  0  0  0  0
  190.4500  176.5100  138.0530 C   0  0  0  0  0  0  0  0  0  0  0  0
  190.4360  176.1250  136.7020 C   0  0  0  0  0  0  0  0  0  0  0  0
  191.4320  176.8090  138.9900 C   0  0  0  0  0  0  0  0  0  0  0  0
  193.1680  176.8710  138.7470 Cl  0  0  0  0  0  0  0  0  0  0  0  0
  188.0300  176.2910  136.7170 C   0  0  0  0  0  3  0  0  0  0  0  0
  189.2180  176.0400  136.0840 N   0  0  0  0  0  0  0  0  0  0  0  0
  189.5240  177.1510  140.0120 C   0  0  1  0  0  3  0  0  0  0  0  0
  190.8690  177.1880  140.1630 N   0  0  0  0  0  0  0  0  0  0  0  0
  187.9900  176.6570  138.0700 C   0  0  0  0  0  3  0  0  0  0  0  0
  192.4180  174.8640  136.3300 O   0  0  0  0  0  0  0  0  0  0  0  0
  191.8750  176.3820  134.6680 N   0  0  0  0  0  1  0  0  0  0  0  0
  191.6380  175.7670  135.9310 C   0  0  0  0  0  0  0  0  0  0  0  0
  190.9400  176.8970  145.2800 C   0  0  2  0  0  0  0  0  0  0  0  0
  191.0790  178.0630  143.1530 C   0  0  1  0  0  3  0  0  0  0  0  0
  190.4200  177.3920  146.4770 O   0  0  0  0  0  1  0  0  0  0  0  0
  191.6380  178.0120  144.5040 C   0  0  1  0  0  3  0  0  0  0  0  0
  190.0460  176.9450  143.0460 C   0  0  1  0  0  3  0  0  0  0  0  0
  189.8190  176.3520  144.4200 C   0  0  0  0  0  2  0  0  0  0  0  0
  191.9320  175.7900  145.5820 C   0  0  0  0  0  1  0  0  0  0  0  0
  190.6800  179.0720  144.1480 N   0  0  0  0  0  2  0  0  0  0  0  0
  183.5530  179.0950  145.4140 N   0  0  0  0  0  1  0  0  0  0  0  0
  183.8750  179.4560  144.0440 C   0  0  0  0  0  2  0  0  0  0  0  0
  2  5  1  0  0  0  0
  3 32  1  0  0  0  0
  3  1  2  0  0  0  0
  4  3  1  0  0  0  0
  5  7  1  0  0  0  0
  6  2  2  0  0  0  0
  6  8  1  0  0  0  0
  7  9  2  0  0  0  0
  8  4  2  0  0  0  0
  8  7  1  0  0  0  0
  9  1  1  0  0  0  0
 10 17  1  0  0  0  0
 11 10  2  0  0  0  0
 11 13  1  0  0  0  0
 12 11  1  0  0  0  0
 13 18  2  0  0  0  0
 14 13  1  0  0  0  0
 15 19  2  0  0  0  0
 16 12  2  0  0  0  0
 16 15  1  0  0  0  0
 17 18  1  0  0  0  0
 17  2  1  6  0  0  0
 19 10  1  0  0  0  0
 21 22  1  0  0  0  0
 22 20  2  0  0  0  0
 22 12  1  0  0  0  0
 23 29  1  1  0  0  0
 23 25  1  0  0  0  0
 24 30  1  1  0  0  0
 24 26  1  0  0  0  0
 26 30  1  1  0  0  0
 26 23  1  0  0  0  0
 27  5  1  1  0  0  0
 27 24  1  0  0  0  0
 27 28  1  0  0  0  0
 28 23  1  0  0  0  0
 32 31  1  0  0  0  0
M  END
>  <MODEL>
1

>  <REMARK>
 VINA RESULT:      -8.5      0.000      0.000
  Name = 
  4 active torsions:
  status: ('A' for Active; 'I' for Inactive)
    1  A    between atoms: C_5  and  C_27
    2  A    between atoms: C_6  and  C_26
    3  A    between atoms: C_9  and  C_29
    4  A    between atoms: N_16  and  C_20
                            x       y       z     vdW  Elec       q    Type
                         _______ _______ _______ _____ _____    ______ ____

>  <TORSDO>
F 4

$$$$
=
 OpenBabel10222416383D

 32 37  0  0  1  0  0  0  0  0999 V2000
  190.5320  177.3600  138.7920 C   0  0  0  0  0  3  0  0  0  0  0  0
  186.5850  178.3490  140.6430 C   0  0  0  0  0  0  0  0  0  0  0  0
  189.7500  177.4720  137.6210 C   0  0  0  0  0  0  0  0  0  0  0  0
  188.3780  177.7800  137.7070 C   0  0  0  0  0  3  0  0  0  0  0  0
  187.8170  178.1190  141.1770 N   0  0  0  0  0  0  0  0  0  0  0  0
  186.5680  178.2750  139.2850 N   0  0  0  0  0  0  0  0  0  0  0  0
  188.5980  177.8780  140.1070 C   0  0  0  0  0  0  0  0  0  0  0  0
  187.8420  177.9790  138.9760 C   0  0  0  0  0  0  0  0  0  0  0  0
  189.9580  177.5660  140.0590 C   0  0  0  0  0  3  0  0  0  0  0  0
  184.0670  178.4890  141.0180 C   0  0  0  0  0  0  0  0  0  0  0  0
  183.2290  178.8960  142.1120 C   0  0  1  0  0  3  0  0  0  0  0  0
  181.8330  178.8020  141.9840 C   0  0  0  0  0  0  0  0  0  0  0  0
  184.1130  179.2480  143.1260 C   0  0  0  0  0  0  0  0  0  0  0  0
  183.7320  179.6790  144.7830 Cl  0  0  0  0  0  0  0  0  0  0  0  0
  182.1330  177.8800  139.7760 C   0  0  0  0  0  3  0  0  0  0  0  0
  181.3410  178.2860  140.8170 N   0  0  0  0  0  0  0  0  0  0  0  0
  185.3710  178.6510  141.4340 C   0  0  0  0  0  0  0  0  0  0  0  0
  185.3940  179.1030  142.7100 N   0  0  0  0  0  0  0  0  0  0  0  0
  183.5300  177.9720  139.8470 C   0  0  0  0  0  3  0  0  0  0  0  0
  180.3500  180.4040  142.9270 O   0  0  0  0  0  0  0  0  0  0  0  0
  180.4650  178.3770  144.0380 N   0  0  0  0  0  1  0  0  0  0  0  0
  180.8760  179.2640  143.0030 C   0  0  0  0  0  0  0  0  0  0  0  0
  190.1050  177.4620  143.8940 C   0  0  2  0  0  0  0  0  0  0  0  0
  187.9110  176.6810  143.2010 C   0  0  1  0  0  3  0  0  0  0  0  0
  191.3430  176.9550  143.4940 O   0  0  0  0  0  1  0  0  0  0  0  0
  189.0820  176.3340  144.0080 C   0  0  1  0  0  3  0  0  0  0  0  0
  188.1660  178.0610  142.6010 C   0  0  1  0  0  3  0  0  0  0  0  0
  189.6020  178.4560  142.8700 C   0  0  0  0  0  2  0  0  0  0  0  0
  190.2540  178.1490  145.2380 C   0  0  0  0  0  1  0  0  0  0  0  0
  188.8760  175.6890  142.7000 N   0  0  0  0  0  2  0  0  0  0  0  0
  189.3590  177.3180  135.2520 N   0  0  0  0  0  1  0  0  0  0  0  0
  190.3710  177.2280  136.2900 C   0  0  0  0  0  2  0  0  0  0  0  0
  1  9  1  0  0  0  0
  2  5  1  0  0  0  0
  2 17  1  0  0  0  0
  3  4  1  0  0  0  0
  3  1  2  0  0  0  0
  4  8  2  0  0  0  0
  6  2  2  0  0  0  0
  7  5  1  0  0  0  0
  8  6  1  0  0  0  0
  8  7  1  0  0  0  0
  9  7  2  0  0  0  0
 10 17  2  0  0  0  0
 11 10  1  1  0  0  0
 11 13  1  0  0  0  0
 12 11  1  0  0  0  0
 12 22  1  0  0  0  0
 13 14  1  0  0  0  0
 15 19  2  0  0  0  0
 15 16  1  0  0  0  0
 16 12  2  0  0  0  0
 17 18  1  0  0  0  0
 18 13  2  0  0  0  0
 19 10  1  0  0  0  0
 20 22  2  0  0  0  0
 22 21  1  0  0  0  0
 23 26  1  0  0  0  0
 23 29  1  1  0  0  0
 24 30  1  6  0  0  0
 24 26  1  0  0  0  0
 25 23  1  0  0  0  0
 26 30  1  6  0  0  0
 27  5  1  6  0  0  0
 27 28  1  0  0  0  0
 27 24  1  0  0  0  0
 28 23  1  0  0  0  0
 31 32  1  0  0  0  0
 32  3  1  0  0  0  0
M  END
>  <MODEL>
2

>  <REMARK>
 VINA RESULT:      -8.3      3.539      7.479
  Name = 
  4 active torsions:
  status: ('A' for Active; 'I' for Inactive)
    1  A    between atoms: C_5  and  C_27
    2  A    between atoms: C_6  and  C_26
    3  A    between atoms: C_9  and  C_29
    4  A    between atoms: N_16  and  C_20
                            x       y       z     vdW  Elec       q    Type
                         _______ _______ _______ _____ _____    ______ ____

>  <TORSDO>
F 4

$$$$
=
 OpenBabel10222416383D

 32 37  0  0  1  0  0  0  0  0999 V2000
  191.8800  175.8760  136.0030 C   0  0  0  0  0  3  0  0  0  0  0  0
  189.5690  177.1140  139.6250 C   0  0  0  0  0  0  0  0  0  0  0  0
  192.9530  176.1240  136.8880 C   0  0  0  0  0  0  0  0  0  0  0  0
  192.7060  176.5590  138.2040 C   0  0  0  0  0  3  0  0  0  0  0  0
  189.1820  176.7100  138.3820 N   0  0  0  0  0  0  0  0  0  0  0  0
  190.9200  177.1240  139.7870 N   0  0  0  0  0  0  0  0  0  0  0  0
  190.3410  176.4730  137.7390 C   0  0  0  0  0  0  0  0  0  0  0  0
  191.3770  176.7180  138.5900 C   0  0  0  0  0  0  0  0  0  0  0  0
  190.5500  176.0480  136.4260 C   0  0  0  0  0  3  0  0  0  0  0  0
  188.7310  177.1390  142.0320 C   0  0  0  0  0  0  0  0  0  0  0  0
  187.6270  177.7590  142.7110 C   0  0  0  0  0  0  0  0  0  0  0  0
  187.4850  177.5860  144.0980 C   0  0  0  0  0  0  0  0  0  0  0  0
  186.9680  178.4880  141.7280 C   0  0  0  0  0  0  0  0  0  0  0  0
  185.6300  179.6040  141.9320 Cl  0  0  0  0  0  0  0  0  0  0  0  0
  189.5070  176.2720  144.1060 C   0  0  0  0  0  3  0  0  0  0  0  0
  188.4430  176.8520  144.7430 N   0  0  0  0  0  2  0  0  0  0  0  0
  188.6400  177.5070  140.7070 C   0  0  0  0  0  0  0  0  0  0  0  0
  187.5780  178.3280  140.5300 N   0  0  0  0  0  0  0  0  0  0  0  0
  189.6810  176.3980  142.7200 C   0  0  0  0  0  3  0  0  0  0  0  0
  185.1730  178.0040  144.4640 O   0  0  0  0  0  0  0  0  0  0  0  0
  186.5850  178.6410  146.1840 N   0  0  0  0  0  1  0  0  0  0  0  0
  186.3540  178.1040  144.8850 C   0  0  0  0  0  0  0  0  0  0  0  0
  186.7610  175.9670  135.8060 C   0  0  2  0  0  0  0  0  0  0  0  0
  187.4260  177.9130  137.1010 C   0  0  1  0  0  3  0  0  0  0  0  0
  187.3180  175.5270  134.6040 O   0  0  0  0  0  1  0  0  0  0  0  0
  186.7640  177.4930  135.8650 C   0  0  1  0  0  3  0  0  0  0  0  0
  187.8110  176.6480  137.8620 C   0  0  1  0  0  3  0  0  0  0  0  0
  187.5780  175.4480  136.9700 C   0  0  0  0  0  2  0  0  0  0  0  0
  185.3370  175.4580  135.9170 C   0  0  0  0  0  1  0  0  0  0  0  0
  188.1430  178.0100  135.8180 N   0  0  0  0  0  2  0  0  0  0  0  0
  195.1290  175.2420  137.4150 N   0  0  0  0  0  1  0  0  0  0  0  0
  194.3550  175.9570  136.4150 C   0  0  0  0  0  2  0  0  0  0  0  0
  1  9  2  0  0  0  0
  1  3  1  0  0  0  0
  2  6  2  0  0  0  0
  2 17  1  0  0  0  0
  3  4  2  0  0  0  0
  4  8  1  0  0  0  0
  5  2  1  0  0  0  0
  7  5  1  0  0  0  0
  7  8  2  0  0  0  0
  8  6  1  0  0  0  0
  9  7  1  0  0  0  0
 10 11  1  0  0  0  0
 10 19  1  0  0  0  0
 11 12  2  0  0  0  0
 12 16  1  0  0  0  0
 12 22  1  0  0  0  0
 13 14  1  0  0  0  0
 13 11  1  0  0  0  0
 15 16  1  0  0  0  0
 17 10  2  0  0  0  0
 18 17  1  0  0  0  0
 18 13  2  0  0  0  0
 19 15  2  0  0  0  0
 20 22  2  0  0  0  0
 22 21  1  0  0  0  0
 23 26  1  0  0  0  0
 23 29  1  1  0  0  0
 23 28  1  0  0  0  0
 24 30  1  6  0  0  0
 24 27  1  0  0  0  0
 25 23  1  0  0  0  0
 26 30  1  6  0  0  0
 26 24  1  0  0  0  0
 27 28  1  6  0  0  0
 27  5  1  0  0  0  0
 32  3  1  0  0  0  0
 32 31  1  0  0  0  0
M  END
>  <MODEL>
3

>  <REMARK>
 VINA RESULT:      -8.0      2.675      8.639
  Name = 
  4 active torsions:
  status: ('A' for Active; 'I' for Inactive)
    1  A    between atoms: C_5  and  C_27
    2  A    between atoms: C_6  and  C_26
    3  A    between atoms: C_9  and  C_29
    4  A    between atoms: N_16  and  C_20
                            x       y       z     vdW  Elec       q    Type
                         _______ _______ _______ _____ _____    ______ ____

>  <TORSDO>
F 4

$$$$
=
 OpenBabel10222416383D

 32 37  0  0  1  0  0  0  0  0999 V2000
  179.9250  180.2890  137.1190 C   0  0  0  0  0  3  0  0  0  0  0  0
  183.8200  179.4630  139.1530 C   0  0  0  0  0  0  0  0  0  0  0  0
  180.2930  181.6110  137.4580 C   0  0  0  0  0  0  0  0  0  0  0  0
  181.4960  181.8610  138.1460 C   0  0  0  0  0  3  0  0  0  0  0  0
  182.9070  178.6490  138.5510 N   0  0  0  0  0  0  0  0  0  0  0  0
  183.4750  180.7780  139.1080 N   0  0  0  0  0  0  0  0  0  0  0  0
  181.9480  179.4920  138.1250 C   0  0  0  0  0  0  0  0  0  0  0  0
  182.2990  180.7670  138.4570 C   0  0  0  0  0  0  0  0  0  0  0  0
  180.7590  179.2060  137.4510 C   0  0  0  0  0  3  0  0  0  0  0  0
  185.2410  178.7400  141.1420 C   0  0  0  0  0  0  0  0  0  0  0  0
  186.5980  178.3000  141.3070 C   0  0  0  0  0  0  0  0  0  0  0  0
  187.0540  177.9300  142.5840 C   0  0  0  0  0  0  0  0  0  0  0  0
  187.1300  178.2950  140.0230 C   0  0  0  0  0  0  0  0  0  0  0  0
  188.7000  177.7020  139.5110 Cl  0  0  0  0  0  0  0  0  0  0  0  0
  184.8530  178.3800  143.4600 C   0  0  0  0  0  3  0  0  0  0  0  0
  186.1530  177.9780  143.6120 N   0  0  0  0  0  2  0  0  0  0  0  0
  185.0660  178.9950  139.7990 C   0  0  0  0  0  0  0  0  0  0  0  0
  186.2070  178.7180  139.1260 N   0  0  0  0  0  0  0  0  0  0  0  0
  184.3560  178.7790  142.2110 C   0  0  0  0  0  3  0  0  0  0  0  0
  189.3650  178.3950  142.8960 O   0  0  0  0  0  0  0  0  0  0  0  0
  188.7310  176.2010  143.2700 N   0  0  0  0  0  1  0  0  0  0  0  0
  188.4410  177.5410  142.8870 C   0  0  0  0  0  0  0  0  0  0  0  0
  181.4300  175.4380  137.8060 C   0  0  2  0  0  0  0  0  0  0  0  0
  182.3970  176.5330  139.7480 C   0  0  1  0  0  3  0  0  0  0  0  0
  180.1020  175.5010  137.3800 O   0  0  0  0  0  1  0  0  0  0  0  0
  181.4980  175.4550  139.3320 C   0  0  1  0  0  3  0  0  0  0  0  0
  182.9430  177.1840  138.4810 C   0  0  1  0  0  3  0  0  0  0  0  0
  182.1940  176.6370  137.2850 C   0  0  0  0  0  2  0  0  0  0  0  0
  182.0660  174.1650  137.2830 C   0  0  0  0  0  1  0  0  0  0  0  0
  180.9390  176.7110  139.8610 N   0  0  0  0  0  2  0  0  0  0  0  0
  179.9620  183.9900  137.5850 N   0  0  0  0  0  1  0  0  0  0  0  0
  179.3870  182.7410  137.1180 C   0  0  0  0  0  2  0  0  0  0  0  0
  1  9  2  0  0  0  0
  1  3  1  0  0  0  0
  2 17  1  0  0  0  0
  3  4  2  0  0  0  0
  4  8  1  0  0  0  0
  5  2  1  0  0  0  0
  6  2  2  0  0  0  0
  7  8  2  0  0  0  0
  7  5  1  0  0  0  0
  8  6  1  0  0  0  0
  9  7  1  0  0  0  0
 10 11  1  0  0  0  0
 10 19  1  0  0  0  0
 11 12  2  0  0  0  0
 12 22  1  0  0  0  0
 12 16  1  0  0  0  0
 13 11  1  0  0  0  0
 14 13  1  0  0  0  0
 15 16  1  0  0  0  0
 17 10  2  0  0  0  0
 18 17  1  0  0  0  0
 18 13  2  0  0  0  0
 19 15  2  0  0  0  0
 22 20  2  0  0  0  0
 22 21  1  0  0  0  0
 23 29  1  6  0  0  0
 23 26  1  0  0  0  0
 24 30  1  6  0  0  0
 25 23  1  0  0  0  0
 26 24  1  0  0  0  0
 26 30  1  1  0  0  0
 27 28  1  6  0  0  0
 27  5  1  0  0  0  0
 27 24  1  0  0  0  0
 28 23  1  0  0  0  0
 32  3  1  0  0  0  0
 32 31  1  0  0  0  0
M  END
>  <MODEL>
4

>  <REMARK>
 VINA RESULT:      -7.9      5.522      8.463
  Name = 
  4 active torsions:
  status: ('A' for Active; 'I' for Inactive)
    1  A    between atoms: C_5  and  C_27
    2  A    between atoms: C_6  and  C_26
    3  A    between atoms: C_9  and  C_29
    4  A    between atoms: N_16  and  C_20
                            x       y       z     vdW  Elec       q    Type
                         _______ _______ _______ _____ _____    ______ ____

>  <TORSDO>
F 4

$$$$
=
 OpenBabel10222416383D

 32 37  0  0  1  0  0  0  0  0999 V2000
  189.5710  176.9050  147.6880 C   0  0  0  0  0  3  0  0  0  0  0  0
  188.6550  177.6840  143.3820 C   0  0  0  0  0  0  0  0  0  0  0  0
  190.8880  176.9680  147.1810 C   0  0  0  0  0  0  0  0  0  0  0  0
  191.1120  177.2000  145.8100 C   0  0  0  0  0  3  0  0  0  0  0  0
  187.8580  177.5240  144.4760 N   0  0  0  0  0  0  0  0  0  0  0  0
  189.9820  177.6020  143.6710 N   0  0  0  0  0  0  0  0  0  0  0  0
  188.7250  177.3210  145.4860 C   0  0  0  0  0  0  0  0  0  0  0  0
  189.9960  177.3760  144.9960 C   0  0  0  0  0  0  0  0  0  0  0  0
  188.4660  177.0850  146.8370 C   0  0  0  0  0  3  0  0  0  0  0  0
  188.8180  177.6140  140.8390 C   0  0  0  0  0  0  0  0  0  0  0  0
  187.9570  178.0110  139.7600 C   0  0  0  0  0  0  0  0  0  0  0  0
  188.3610  177.7810  138.4340 C   0  0  0  0  0  0  0  0  0  0  0  0
  186.8150  178.5050  140.3790 C   0  0  0  0  0  0  0  0  0  0  0  0
  185.3120  179.0030  139.6240 Cl  0  0  0  0  0  0  0  0  0  0  0  0
  190.3780  176.7530  139.2650 C   0  0  0  0  0  3  0  0  0  0  0  0
  189.5590  177.1490  138.2410 N   0  0  0  0  0  0  0  0  0  0  0  0
  188.1580  177.9210  142.0090 C   0  0  1  0  0  3  0  0  0  0  0  0
  186.9460  178.4530  141.7260 N   0  0  0  0  0  0  0  0  0  0  0  0
  190.0290  176.9780  140.6040 C   0  0  0  0  0  3  0  0  0  0  0  0
  187.6440  179.4100  136.8570 O   0  0  0  0  0  0  0  0  0  0  0  0
  186.8830  177.2570  136.4810 N   0  0  0  0  0  1  0  0  0  0  0  0
  187.6010  178.2160  137.2510 C   0  0  0  0  0  0  0  0  0  0  0  0
  184.6150  179.1110  144.3920 C   0  0  2  0  0  0  0  0  0  0  0  0
  185.8370  177.6620  145.9130 C   0  0  1  0  0  3  0  0  0  0  0  0
  184.6580  180.5060  144.3430 O   0  0  0  0  0  1  0  0  0  0  0  0
  184.7390  178.6280  145.8360 C   0  0  1  0  0  3  0  0  0  0  0  0
  186.3920  177.4920  144.5020 C   0  0  1  0  0  3  0  0  0  0  0  0
  185.7670  178.5340  143.5990 C   0  0  0  0  0  2  0  0  0  0  0  0
  183.3020  178.6280  143.8070 C   0  0  0  0  0  1  0  0  0  0  0  0
  186.0340  179.0350  146.4080 N   0  0  0  0  0  2  0  0  0  0  0  0
  192.8050  175.5950  147.6570 N   0  0  0  0  0  1  0  0  0  0  0  0
  192.0430  176.7530  148.0930 C   0  0  0  0  0  2  0  0  0  0  0  0
  2  6  2  0  0  0  0
  2  5  1  0  0  0  0
  3  1  1  0  0  0  0
  3 32  1  0  0  0  0
  4  3  2  0  0  0  0
  5 27  1  0  0  0  0
  5  7  1  0  0  0  0
  6  8  1  0  0  0  0
  7  9  1  0  0  0  0
  8  7  2  0  0  0  0
  8  4  1  0  0  0  0
  9  1  2  0  0  0  0
 10 17  1  0  0  0  0
 11 13  1  0  0  0  0
 11 10  2  0  0  0  0
 12 11  1  0  0  0  0
 13 18  2  0  0  0  0
 14 13  1  0  0  0  0
 15 19  2  0  0  0  0
 16 12  2  0  0  0  0
 16 15  1  0  0  0  0
 17  2  1  1  0  0  0
 18 17  1  0  0  0  0
 19 10  1  0  0  0  0
 20 22  2  0  0  0  0
 21 22  1  0  0  0  0
 22 12  1  0  0  0  0
 23 29  1  6  0  0  0
 23 26  1  0  0  0  0
 24 30  1  1  0  0  0
 25 23  1  0  0  0  0
 26 24  1  0  0  0  0
 26 30  1  1  0  0  0
 27 28  1  6  0  0  0
 27 24  1  0  0  0  0
 28 23  1  0  0  0  0
 31 32  1  0  0  0  0
M  END
>  <MODEL>
5

>  <REMARK>
 VINA RESULT:      -7.8      2.909      5.512
  Name = 
  4 active torsions:
  status: ('A' for Active; 'I' for Inactive)
    1  A    between atoms: C_5  and  C_27
    2  A    between atoms: C_6  and  C_26
    3  A    between atoms: C_9  and  C_29
    4  A    between atoms: N_16  and  C_20
                            x       y       z     vdW  Elec       q    Type
                         _______ _______ _______ _____ _____    ______ ____

>  <TORSDO>
F 4

$$$$
=
 OpenBabel10222416383D

 32 37  0  0  1  0  0  0  0  0999 V2000
  190.0890  177.4940  141.1830 C   0  0  0  0  0  3  0  0  0  0  0  0
  185.8990  178.6280  140.1130 C   0  0  0  0  0  0  0  0  0  0  0  0
  189.6480  177.9610  142.4410 C   0  0  0  0  0  0  0  0  0  0  0  0
  188.3360  178.4470  142.6010 C   0  0  0  0  0  3  0  0  0  0  0  0
  186.9170  178.0850  139.3870 N   0  0  0  0  0  0  0  0  0  0  0  0
  186.2280  178.8510  141.4130 N   0  0  0  0  0  0  0  0  0  0  0  0
  187.9270  177.9770  140.2710 C   0  0  0  0  0  0  0  0  0  0  0  0
  187.5040  178.4330  141.4850 C   0  0  0  0  0  0  0  0  0  0  0  0
  189.2230  177.4960  140.0750 C   0  0  0  0  0  3  0  0  0  0  0  0
  183.5160  178.0750  139.3960 C   0  0  0  0  0  0  0  0  0  0  0  0
  182.4220  178.8320  138.8540 C   0  0  0  0  0  0  0  0  0  0  0  0
  181.1960  178.1930  138.6060 C   0  0  0  0  0  0  0  0  0  0  0  0
  182.8970  180.1360  138.7720 C   0  0  0  0  0  0  0  0  0  0  0  0
  182.0020  181.5820  138.3430 Cl  0  0  0  0  0  0  0  0  0  0  0  0
  182.1310  176.1440  139.4670 C   0  0  0  0  0  3  0  0  0  0  0  0
  181.0980  176.8680  138.9340 N   0  0  0  0  0  2  0  0  0  0  0  0
  184.5620  178.9550  139.5690 C   0  0  0  0  0  0  0  0  0  0  0  0
  184.1820  180.2000  139.1980 N   0  0  0  0  0  0  0  0  0  0  0  0
  183.3800  176.7300  139.7130 C   0  0  0  0  0  3  0  0  0  0  0  0
  179.1120  179.3370  138.6800 O   0  0  0  0  0  0  0  0  0  0  0  0
  179.9950  179.0100  136.5650 N   0  0  0  0  0  1  0  0  0  0  0  0
  180.0340  178.8460  137.9790 C   0  0  0  0  0  0  0  0  0  0  0  0
  188.5380  177.0850  136.3190 C   0  0  2  0  0  0  0  0  0  0  0  0
  187.2690  179.0020  137.1060 C   0  0  1  0  0  3  0  0  0  0  0  0
  189.9150  176.8830  136.4350 O   0  0  0  0  0  1  0  0  0  0  0  0
  188.2360  178.5660  136.0980 C   0  0  1  0  0  3  0  0  0  0  0  0
  186.9140  177.7830  137.9520 C   0  0  1  0  0  3  0  0  0  0  0  0
  187.8460  176.6460  137.5910 C   0  0  0  0  0  2  0  0  0  0  0  0
  188.0090  176.2800  135.1480 C   0  0  0  0  0  1  0  0  0  0  0  0
  188.6890  179.3640  137.2500 N   0  0  0  0  0  2  0  0  0  0  0  0
  190.9300  179.3400  143.9380 N   0  0  0  0  0  1  0  0  0  0  0  0
  190.5860  177.9710  143.5970 C   0  0  0  0  0  2  0  0  0  0  0  0
  1  3  1  0  0  0  0
  2  6  2  0  0  0  0
  3  4  2  0  0  0  0
  3 32  1  0  0  0  0
  5  2  1  0  0  0  0
  5  7  1  0  0  0  0
  6  8  1  0  0  0  0
  7  8  2  0  0  0  0
  8  4  1  0  0  0  0
  9  7  1  0  0  0  0
  9  1  2  0  0  0  0
 10 17  2  0  0  0  0
 10 19  1  0  0  0  0
 11 10  1  0  0  0  0
 12 11  2  0  0  0  0
 12 16  1  0  0  0  0
 13 11  1  0  0  0  0
 13 18  2  0  0  0  0
 14 13  1  0  0  0  0
 15 19  2  0  0  0  0
 16 15  1  0  0  0  0
 17  2  1  0  0  0  0
 18 17  1  0  0  0  0
 21 22  1  0  0  0  0
 22 12  1  0  0  0  0
 22 20  2  0  0  0  0
 23 29  1  6  0  0  0
 23 25  1  0  0  0  0
 23 28  1  0  0  0  0
 24 30  1  1  0  0  0
 24 27  1  0  0  0  0
 26 23  1  0  0  0  0
 26 24  1  0  0  0  0
 26 30  1  1  0  0  0
 27 28  1  1  0  0  0
 27  5  1  0  0  0  0
 32 31  1  0  0  0  0
M  END
>  <MODEL>
6

>  <REMARK>
 VINA RESULT:      -7.8      4.744      7.825
  Name = 
  4 active torsions:
  status: ('A' for Active; 'I' for Inactive)
    1  A    between atoms: C_5  and  C_27
    2  A    between atoms: C_6  and  C_26
    3  A    between atoms: C_9  and  C_29
    4  A    between atoms: N_16  and  C_20
                            x       y       z     vdW  Elec       q    Type
                         _______ _______ _______ _____ _____    ______ ____

>  <TORSDO>
F 4

$$$$
=
 OpenBabel10222416383D

 32 37  0  0  1  0  0  0  0  0999 V2000
  188.9390  177.4620  146.4370 C   0  0  0  0  0  3  0  0  0  0  0  0
  185.5260  178.2110  143.6480 C   0  0  0  0  0  0  0  0  0  0  0  0
  187.9640  177.8750  147.3720 C   0  0  0  0  0  0  0  0  0  0  0  0
  186.6720  178.2360  146.9420 C   0  0  0  0  0  3  0  0  0  0  0  0
  186.8000  177.7700  143.4430 N   0  0  0  0  0  0  0  0  0  0  0  0
  185.2480  178.4530  144.9570 N   0  0  0  0  0  0  0  0  0  0  0  0
  187.3410  177.7490  144.6760 C   0  0  0  0  0  0  0  0  0  0  0  0
  186.4020  178.1540  145.5790 C   0  0  0  0  0  0  0  0  0  0  0  0
  188.6330  177.3920  145.0660 C   0  0  0  0  0  3  0  0  0  0  0  0
  183.1720  178.5990  142.7510 C   0  0  0  0  0  0  0  0  0  0  0  0
  182.6050  178.7680  141.4420 C   0  0  0  0  0  0  0  0  0  0  0  0
  181.2270  179.0110  141.3120 C   0  0  0  0  0  0  0  0  0  0  0  0
  183.6880  178.7030  140.5730 C   0  0  0  0  0  0  0  0  0  0  0  0
  183.6990  178.9970  138.8440 Cl  0  0  0  0  0  0  0  0  0  0  0  0
  181.0300  178.9680  143.7150 C   0  0  0  0  0  3  0  0  0  0  0  0
  180.4940  179.1100  142.4630 N   0  0  0  0  0  2  0  0  0  0  0  0
  184.5270  178.4170  142.5770 C   0  0  0  0  0  0  0  0  0  0  0  0
  184.8350  178.4870  141.2600 N   0  0  0  0  0  0  0  0  0  0  0  0
  182.3950  178.7030  143.8960 C   0  0  0  0  0  3  0  0  0  0  0  0
  180.2690  180.2430  139.5180 O   0  0  0  0  0  0  0  0  0  0  0  0
  180.2080  177.9400  139.2900 N   0  0  0  0  0  1  0  0  0  0  0  0
  180.5230  179.1200  140.0240 C   0  0  0  0  0  0  0  0  0  0  0  0
  189.6910  177.2930  141.3310 C   0  0  2  0  0  0  0  0  0  0  0  0
  187.7470  178.7510  141.3670 C   0  0  1  0  0  3  0  0  0  0  0  0
  190.9130  177.5060  141.9720 O   0  0  0  0  0  1  0  0  0  0  0  0
  189.1080  178.6190  140.8460 C   0  0  1  0  0  3  0  0  0  0  0  0
  187.4370  177.4810  142.1540 C   0  0  1  0  0  3  0  0  0  0  0  0
  188.7060  176.6690  142.2970 C   0  0  0  0  0  2  0  0  0  0  0  0
  189.8980  176.3670  140.1480 C   0  0  0  0  0  1  0  0  0  0  0  0
  188.8430  179.5150  141.9860 N   0  0  0  0  0  2  0  0  0  0  0  0
  189.7310  178.2460  148.9620 N   0  0  0  0  0  1  0  0  0  0  0  0
  188.3140  177.9630  148.8160 C   0  0  0  0  0  2  0  0  0  0  0  0
  1  3  1  0  0  0  0
  2  6  2  0  0  0  0
  3 32  1  0  0  0  0
  4  3  2  0  0  0  0
  5  2  1  0  0  0  0
  5  7  1  0  0  0  0
  6  8  1  0  0  0  0
  7  9  1  0  0  0  0
  7  8  2  0  0  0  0
  8  4  1  0  0  0  0
  9  1  2  0  0  0  0
 10 19  1  0  0  0  0
 11 10  1  0  0  0  0
 12 11  2  0  0  0  0
 12 16  1  0  0  0  0
 13 18  2  0  0  0  0
 13 11  1  0  0  0  0
 14 13  1  0  0  0  0
 15 19  2  0  0  0  0
 16 15  1  0  0  0  0
 17 10  2  0  0  0  0
 17  2  1  0  0  0  0
 18 17  1  0  0  0  0
 20 22  2  0  0  0  0
 21 22  1  0  0  0  0
 22 12  1  0  0  0  0
 23 29  1  6  0  0  0
 23 25  1  0  0  0  0
 23 28  1  0  0  0  0
 24 30  1  1  0  0  0
 24 27  1  0  0  0  0
 26 23  1  0  0  0  0
 26 24  1  0  0  0  0
 26 30  1  1  0  0  0
 27 28  1  1  0  0  0
 27  5  1  0  0  0  0
 32 31  1  0  0  0  0
M  END
>  <MODEL>
7

>  <REMARK>
 VINA RESULT:      -7.7      4.008      7.125
  Name = 
  4 active torsions:
  status: ('A' for Active; 'I' for Inactive)
    1  A    between atoms: C_5  and  C_27
    2  A    between atoms: C_6  and  C_26
    3  A    between atoms: C_9  and  C_29
    4  A    between atoms: N_16  and  C_20
                            x       y       z     vdW  Elec       q    Type
                         _______ _______ _______ _____ _____    ______ ____

>  <TORSDO>
F 4

$$$$
=
 OpenBabel10222416383D

 32 37  0  0  1  0  0  0  0  0999 V2000
  190.7950  177.3490  140.7350 C   0  0  0  0  0  3  0  0  0  0  0  0
  186.4770  178.5090  140.6940 C   0  0  0  0  0  0  0  0  0  0  0  0
  190.6390  177.7040  142.0930 C   0  0  0  0  0  0  0  0  0  0  0  0
  189.3940  178.1570  142.5730 C   0  0  0  0  0  3  0  0  0  0  0  0
  187.3120  178.0410  139.7230 N   0  0  0  0  0  0  0  0  0  0  0  0
  187.0810  178.6290  141.9060 N   0  0  0  0  0  0  0  0  0  0  0  0
  188.4890  177.8750  140.3550 C   0  0  0  0  0  0  0  0  0  0  0  0
  188.3400  178.2240  141.6650 C   0  0  0  0  0  0  0  0  0  0  0  0
  189.7090  177.4300  139.8440 C   0  0  0  0  0  3  0  0  0  0  0  0
  184.0530  178.8040  141.4240 C   0  0  0  0  0  0  0  0  0  0  0  0
  182.8480  179.2440  140.7760 C   0  0  0  0  0  0  0  0  0  0  0  0
  181.6560  179.3240  141.5150 C   0  0  0  0  0  0  0  0  0  0  0  0
  183.2380  179.5640  139.4800 C   0  0  0  0  0  0  0  0  0  0  0  0
  182.2740  180.3160  138.2220 Cl  0  0  0  0  0  0  0  0  0  0  0  0
  182.8640  178.6040  143.4740 C   0  0  0  0  0  3  0  0  0  0  0  0
  181.7170  179.0070  142.8440 N   0  0  0  0  0  2  0  0  0  0  0  0
  185.0560  178.8610  140.4810 C   0  0  0  0  0  0  0  0  0  0  0  0
  184.5600  179.3270  139.3100 N   0  0  0  0  0  0  0  0  0  0  0  0
  184.0740  178.4870  142.7750 C   0  0  0  0  0  3  0  0  0  0  0  0
  179.7570  178.9060  140.1470 O   0  0  0  0  0  0  0  0  0  0  0  0
  179.6980  180.8780  141.3580 N   0  0  0  0  0  1  0  0  0  0  0  0
  180.3490  179.6820  140.9400 C   0  0  0  0  0  0  0  0  0  0  0  0
  188.1760  177.1080  136.3420 C   0  0  2  0  0  0  0  0  0  0  0  0
  187.3420  179.0920  137.4720 C   0  0  1  0  0  3  0  0  0  0  0  0
  189.5110  176.7370  136.1710 O   0  0  0  0  0  1  0  0  0  0  0  0
  188.0350  178.6280  136.2690 C   0  0  1  0  0  3  0  0  0  0  0  0
  186.9970  177.8590  138.3020 C   0  0  1  0  0  3  0  0  0  0  0  0
  187.6860  176.6530  137.7000 C   0  0  0  0  0  2  0  0  0  0  0  0
  187.3330  176.4680  135.2560 C   0  0  0  0  0  1  0  0  0  0  0  0
  188.7990  179.2710  137.3520 N   0  0  0  0  0  2  0  0  0  0  0  0
  191.6800  176.4690  143.8760 N   0  0  0  0  0  1  0  0  0  0  0  0
  191.8050  177.6330  143.0150 C   0  0  0  0  0  2  0  0  0  0  0  0
  1  3  1  0  0  0  0
  2  6  2  0  0  0  0
  3  4  2  0  0  0  0
  3 32  1  0  0  0  0
  5  7  1  0  0  0  0
  5  2  1  0  0  0  0
  7  8  2  0  0  0  0
  8  6  1  0  0  0  0
  8  4  1  0  0  0  0
  9  7  1  0  0  0  0
  9  1  2  0  0  0  0
 10 19  1  0  0  0  0
 11 10  1  0  0  0  0
 11 12  2  0  0  0  0
 12 16  1  0  0  0  0
 13 11  1  0  0  0  0
 14 13  1  0  0  0  0
 16 15  1  0  0  0  0
 17  2  1  0  0  0  0
 17 10  2  0  0  0  0
 18 13  2  0  0  0  0
 18 17  1  0  0  0  0
 19 15  2  0  0  0  0
 20 22  2  0  0  0  0
 22 21  1  0  0  0  0
 22 12  1  0  0  0  0
 23 29  1  6  0  0  0
 23 28  1  0  0  0  0
 24 30  1  1  0  0  0
 24 27  1  0  0  0  0
 25 23  1  0  0  0  0
 26 23  1  0  0  0  0
 26 30  1  1  0  0  0
 26 24  1  0  0  0  0
 27 28  1  6  0  0  0
 27  5  1  0  0  0  0
 32 31  1  0  0  0  0
M  END
>  <MODEL>
8

>  <REMARK>
 VINA RESULT:      -7.6      3.852      8.224
  Name = 
  4 active torsions:
  status: ('A' for Active; 'I' for Inactive)
    1  A    between atoms: C_5  and  C_27
    2  A    between atoms: C_6  and  C_26
    3  A    between atoms: C_9  and  C_29
    4  A    between atoms: N_16  and  C_20
                            x       y       z     vdW  Elec       q    Type
                         _______ _______ _______ _____ _____    ______ ____

>  <TORSDO>
F 4

$$$$
=
 OpenBabel10222416383D

 32 37  0  0  1  0  0  0  0  0999 V2000
  192.0300  176.7800  139.2730 C   0  0  0  0  0  3  0  0  0  0  0  0
  187.7510  177.9420  139.8490 C   0  0  0  0  0  0  0  0  0  0  0  0
  191.6010  176.7530  137.9280 C   0  0  0  0  0  0  0  0  0  0  0  0
  190.2650  177.0590  137.6000 C   0  0  0  0  0  3  0  0  0  0  0  0
  188.7850  177.7820  140.7230 N   0  0  0  0  0  0  0  0  0  0  0  0
  188.1040  177.7150  138.5560 N   0  0  0  0  0  0  0  0  0  0  0  0
  189.8220  177.4280  139.9410 C   0  0  0  0  0  0  0  0  0  0  0  0
  189.4070  177.3960  138.6430 C   0  0  0  0  0  0  0  0  0  0  0  0
  191.1360  177.1240  140.3040 C   0  0  0  0  0  3  0  0  0  0  0  0
  185.2600  178.2840  139.4280 C   0  0  0  0  0  0  0  0  0  0  0  0
  184.1520  178.7270  140.2270 C   0  0  0  0  0  0  0  0  0  0  0  0
  182.8640  178.7580  139.6660 C   0  0  0  0  0  0  0  0  0  0  0  0
  184.6930  178.9690  141.4850 C   0  0  0  0  0  0  0  0  0  0  0  0
  183.8410  179.3780  142.9620 Cl  0  0  0  0  0  0  0  0  0  0  0  0
  183.7780  177.8830  137.6130 C   0  0  0  0  0  3  0  0  0  0  0  0
  182.7300  178.3230  138.3760 N   0  0  0  0  0  0  0  0  0  0  0  0
  186.3750  178.3210  140.2380 C   0  0  1  0  0  3  0  0  0  0  0  0
  186.0260  178.7290  141.4810 N   0  0  0  0  0  0  0  0  0  0  0  0
  185.0850  177.8540  138.1200 C   0  0  0  0  0  3  0  0  0  0  0  0
  181.2130  178.6820  141.3750 O   0  0  0  0  0  0  0  0  0  0  0  0
  181.0780  180.4920  139.9390 N   0  0  0  0  0  1  0  0  0  0  0  0
  181.6700  179.2670  140.3600 C   0  0  0  0  0  0  0  0  0  0  0  0
  190.2620  177.5640  144.0120 C   0  0  2  0  0  0  0  0  0  0  0  0
  188.3830  176.5570  142.8460 C   0  0  1  0  0  3  0  0  0  0  0  0
  191.5840  177.1160  144.0210 O   0  0  0  0  0  1  0  0  0  0  0  0
  189.3000  176.3780  143.9730 C   0  0  1  0  0  3  0  0  0  0  0  0
  188.7290  177.8880  142.1860 C   0  0  1  0  0  3  0  0  0  0  0  0
  190.0150  178.4140  142.7840 C   0  0  0  0  0  2  0  0  0  0  0  0
  190.0010  178.3860  145.2600 C   0  0  0  0  0  1  0  0  0  0  0  0
  189.4940  175.5960  142.7390 N   0  0  0  0  0  2  0  0  0  0  0  0
  193.9060  176.7370  137.2410 N   0  0  0  0  0  1  0  0  0  0  0  0
  192.5560  176.3660  136.8540 C   0  0  0  0  0  2  0  0  0  0  0  0
  1  9  1  0  0  0  0
  2  5  1  0  0  0  0
  3  1  2  0  0  0  0
  4  3  1  0  0  0  0
  4  8  2  0  0  0  0
  6  8  1  0  0  0  0
  6  2  2  0  0  0  0
  7  9  2  0  0  0  0
  7  5  1  0  0  0  0
  8  7  1  0  0  0  0
 10 11  2  0  0  0  0
 10 17  1  0  0  0  0
 11 13  1  0  0  0  0
 12 11  1  0  0  0  0
 12 22  1  0  0  0  0
 13 14  1  0  0  0  0
 15 19  2  0  0  0  0
 15 16  1  0  0  0  0
 16 12  2  0  0  0  0
 17  2  1  1  0  0  0
 17 18  1  0  0  0  0
 18 13  2  0  0  0  0
 19 10  1  0  0  0  0
 21 22  1  0  0  0  0
 22 20  2  0  0  0  0
 23 25  1  0  0  0  0
 23 29  1  1  0  0  0
 24 30  1  6  0  0  0
 24 26  1  0  0  0  0
 26 30  1  6  0  0  0
 26 23  1  0  0  0  0
 27  5  1  6  0  0  0
 27 28  1  0  0  0  0
 27 24  1  0  0  0  0
 28 23  1  0  0  0  0
 32 31  1  0  0  0  0
 32  3  1  0  0  0  0
M  END
>  <MODEL>
9

>  <REMARK>
 VINA RESULT:      -7.4      3.632      6.932
  Name = 
  4 active torsions:
  status: ('A' for Active; 'I' for Inactive)
    1  A    between atoms: C_5  and  C_27
    2  A    between atoms: C_6  and  C_26
    3  A    between atoms: C_9  and  C_29
    4  A    between atoms: N_16  and  C_20
                            x       y       z     vdW  Elec       q    Type
                         _______ _______ _______ _____ _____    ______ ____

>  <TORSDO>
F 4

$$$$
