=
 OpenBabel10222420293D

 31 34  0  0  1  0  0  0  0  0999 V2000
  186.6520  178.3320  139.9670 C   0  0  0  0  0  0  0  0  0  0  0  0
  188.6490  177.9610  143.0830 C   0  0  0  0  0  0  0  0  0  0  0  0
  186.9420  178.2820  137.4940 C   0  0  0  0  0  0  0  0  0  0  0  0
  185.4220  178.8700  139.8710 N   0  0  0  0  0  0  0  0  0  0  0  0
  185.7950  178.1030  137.0050 O   0  0  0  0  0  0  0  0  0  0  0  0
  187.3970  177.7280  138.8010 C   0  0  1  0  0  3  0  0  0  0  0  0
  188.9440  178.0910  144.3500 C   0  0  0  0  0  0  0  0  0  0  0  0
  189.0890  178.9090  137.6770 C   0  0  0  0  0  3  0  0  0  0  0  0
  188.8210  178.2070  138.7720 C   0  0  2  0  0  3  0  0  0  0  0  0
  185.0710  179.2470  141.1180 C   0  0  0  0  0  3  0  0  0  0  0  0
  188.3560  177.8260  141.8170 C   0  0  0  0  0  0  0  0  0  0  0  0
  189.3080  177.0650  140.9500 C   0  0  0  0  0  2  0  0  0  0  0  0
  187.9570  179.0070  136.8220 N   0  0  0  0  0  0  0  0  0  0  0  0
  189.8530  177.9370  139.8250 C   0  0  0  0  0  2  0  0  0  0  0  0
  187.0750  178.3430  141.2850 C   0  0  1  0  0  3  0  0  0  0  0  0
  186.0710  178.9400  142.0240 C   0  0  0  0  0  3  0  0  0  0  0  0
  188.2810  177.5290  146.5800 N   0  0  0  0  0  0  0  0  0  0  0  0
  187.9090  177.8690  145.3780 C   0  0  0  0  0  0  0  0  0  0  0  0
  187.4080  177.2930  147.6170 O   0  0  0  0  0  1  0  0  0  0  0  0
  186.5610  178.0370  145.0130 O   0  0  0  0  0  0  0  0  0  0  0  0
  185.7160  179.0920  145.4490 C   0  0  0  0  0  2  0  0  0  0  0  0
  183.3840  178.9810  144.6400 C   0  0  0  0  0  1  0  0  0  0  0  0
  184.3340  178.5440  145.7330 C   0  0  0  0  0  2  0  0  0  0  0  0
  190.3610  178.3890  144.7330 C   0  0  0  0  0  2  0  0  0  0  0  0
  192.4360  174.7600  145.7010 C   0  0  0  0  0  3  0  0  0  0  0  0
  192.2030  175.7170  146.6920 C   0  0  0  0  0  0  0  0  0  0  0  0
  192.6350  175.4900  147.9920 O   0  0  0  0  0  1  0  0  0  0  0  0
  191.0990  177.1350  145.0670 C   0  0  0  0  0  0  0  0  0  0  0  0
  191.3290  176.1740  144.0760 C   0  0  0  0  0  3  0  0  0  0  0  0
  191.9990  174.9880  144.3920 C   0  0  0  0  0  3  0  0  0  0  0  0
  191.5320  176.9030  146.3770 C   0  0  0  0  0  3  0  0  0  0  0  0
  1 15  1  0  0  0  0
  2  7  2  0  0  0  0
  4  1  2  0  0  0  0
  4 10  1  0  0  0  0
  5  3  2  0  0  0  0
  6  3  1  6  0  0  0
  6  1  1  0  0  0  0
  7 24  1  0  0  0  0
  7 18  1  0  0  0  0
  9  8  1  6  0  0  0
  9  6  1  0  0  0  0
  9 14  1  0  0  0  0
 10 16  2  0  0  0  0
 11  2  2  0  0  0  0
 12 11  1  0  0  0  0
 13  3  1  0  0  0  0
 13  8  2  0  0  0  0
 14 12  1  0  0  0  0
 15 11  1  0  0  0  0
 15 16  1  6  0  0  0
 17 19  1  0  0  0  0
 18 17  2  0  0  0  0
 20 18  1  0  0  0  0
 20 21  1  0  0  0  0
 21 23  1  0  0  0  0
 22 23  1  0  0  0  0
 24 28  1  0  0  0  0
 25 26  1  0  0  0  0
 26 27  1  0  0  0  0
 28 31  1  0  0  0  0
 29 30  1  0  0  0  0
 29 28  2  0  0  0  0
 30 25  2  0  0  0  0
 31 26  2  0  0  0  0
M  END
>  <MODEL>
1

>  <REMARK>
 VINA RESULT:      -9.1      0.000      0.000
  Name = 
  6 active torsions:
  status: ('A' for Active; 'I' for Inactive)
    1  A    between atoms: C_5  and  O_22
    2  A    between atoms: C_5  and  C_28
    3  A    between atoms: C_13  and  C_14
    4  A    between atoms: C_13  and  C_25
    5  A    between atoms: C_14  and  C_15
    6  A    between atoms: O_22  and  C_25
                            x       y       z     vdW  Elec       q    Type
                         _______ _______ _______ _____ _____    ______ ____

>  <TORSDO>
F 6

$$$$
=
 OpenBabel10222420293D

 31 34  0  0  1  0  0  0  0  0999 V2000
  184.9180  178.9920  139.6140 C   0  0  0  0  0  0  0  0  0  0  0  0
  187.1450  177.9030  142.3870 C   0  0  0  0  0  0  0  0  0  0  0  0
  182.5180  179.4870  139.1720 C   0  0  0  0  0  0  0  0  0  0  0  0
  185.2170  178.9750  138.3010 N   0  0  0  0  0  0  0  0  0  0  0  0
  182.4840  180.1750  138.1180 O   0  0  0  0  0  0  0  0  0  0  0  0
  183.6220  179.5290  140.1720 C   0  0  1  0  0  3  0  0  0  0  0  0
  188.2080  177.3940  142.9510 C   0  0  0  0  0  0  0  0  0  0  0  0
  181.8720  178.0980  140.8130 C   0  0  0  0  0  3  0  0  0  0  0  0
  183.0490  178.5840  141.1910 C   0  0  2  0  0  3  0  0  0  0  0  0
  186.4680  178.4820  138.2000 C   0  0  0  0  0  3  0  0  0  0  0  0
  186.0820  178.4150  141.8260 C   0  0  0  0  0  0  0  0  0  0  0  0
  185.0050  178.9520  142.7150 C   0  0  0  0  0  2  0  0  0  0  0  0
  181.4680  178.6120  139.5500 N   0  0  0  0  0  0  0  0  0  0  0  0
  183.6870  178.2180  142.4950 C   0  0  0  0  0  2  0  0  0  0  0  0
  185.9940  178.5330  140.3520 C   0  0  1  0  0  3  0  0  0  0  0  0
  186.9850  178.1920  139.4510 C   0  0  0  0  0  3  0  0  0  0  0  0
  189.9430  177.2400  141.3090 N   0  0  0  0  0  0  0  0  0  0  0  0
  189.5520  177.7410  142.4470 C   0  0  0  0  0  0  0  0  0  0  0  0
  191.1720  177.4880  140.7420 O   0  0  0  0  0  1  0  0  0  0  0  0
  190.3520  178.6010  143.2200 O   0  0  0  0  0  0  0  0  0  0  0  0
  191.5080  178.2140  143.9490 C   0  0  0  0  0  2  0  0  0  0  0  0
  191.7230  176.5170  145.7320 C   0  0  0  0  0  1  0  0  0  0  0  0
  191.4320  176.7360  144.2630 C   0  0  0  0  0  2  0  0  0  0  0  0
  188.0370  176.5240  144.1570 C   0  0  0  0  0  2  0  0  0  0  0  0
  186.6360  178.7630  147.5390 C   0  0  0  0  0  3  0  0  0  0  0  0
  185.7400  178.3710  146.5410 C   0  0  0  0  0  0  0  0  0  0  0  0
  184.3950  178.6980  146.6490 O   0  0  0  0  0  1  0  0  0  0  0  0
  187.5520  177.3180  145.3240 C   0  0  0  0  0  0  0  0  0  0  0  0
  188.4480  177.7080  146.3260 C   0  0  0  0  0  3  0  0  0  0  0  0
  187.9910  178.4320  147.4320 C   0  0  0  0  0  3  0  0  0  0  0  0
  186.1960  177.6460  145.4360 C   0  0  0  0  0  3  0  0  0  0  0  0
  1  6  1  0  0  0  0
  1 15  1  0  0  0  0
  2  7  2  0  0  0  0
  3 13  1  0  0  0  0
  4  1  2  0  0  0  0
  5  3  2  0  0  0  0
  6  3  1  6  0  0  0
  6  9  1  0  0  0  0
  7 24  1  0  0  0  0
  9  8  1  1  0  0  0
  9 14  1  0  0  0  0
 10  4  1  0  0  0  0
 10 16  2  0  0  0  0
 11  2  2  0  0  0  0
 11 12  1  0  0  0  0
 13  8  2  0  0  0  0
 14 12  1  0  0  0  0
 15 16  1  6  0  0  0
 15 11  1  0  0  0  0
 17 18  2  0  0  0  0
 18  7  1  0  0  0  0
 18 20  1  0  0  0  0
 19 17  1  0  0  0  0
 20 21  1  0  0  0  0
 21 23  1  0  0  0  0
 23 22  1  0  0  0  0
 24 28  1  0  0  0  0
 26 27  1  0  0  0  0
 26 25  2  0  0  0  0
 28 31  2  0  0  0  0
 28 29  1  0  0  0  0
 29 30  2  0  0  0  0
 30 25  1  0  0  0  0
 31 26  1  0  0  0  0
M  END
>  <MODEL>
2

>  <REMARK>
 VINA RESULT:      -9.0      2.482      5.380
  Name = 
  6 active torsions:
  status: ('A' for Active; 'I' for Inactive)
    1  A    between atoms: C_5  and  O_22
    2  A    between atoms: C_5  and  C_28
    3  A    between atoms: C_13  and  C_14
    4  A    between atoms: C_13  and  C_25
    5  A    between atoms: C_14  and  C_15
    6  A    between atoms: O_22  and  C_25
                            x       y       z     vdW  Elec       q    Type
                         _______ _______ _______ _____ _____    ______ ____

>  <TORSDO>
F 6

$$$$
=
 OpenBabel10222420293D

 31 34  0  0  1  0  0  0  0  0999 V2000
  189.8120  177.7790  145.0430 C   0  0  0  0  0  0  0  0  0  0  0  0
  187.5290  178.0030  142.1150 C   0  0  0  0  0  0  0  0  0  0  0  0
  189.7500  177.2710  147.4800 C   0  0  0  0  0  0  0  0  0  0  0  0
  191.0570  178.2840  145.1200 N   0  0  0  0  0  2  0  0  0  0  0  0
  190.9330  176.9990  147.8180 O   0  0  0  0  0  0  0  0  0  0  0  0
  189.1640  176.9720  146.1420 C   0  0  1  0  0  3  0  0  0  0  0  0
  187.1220  178.3680  140.9270 C   0  0  0  0  0  0  0  0  0  0  0  0
  187.6090  177.9300  147.6200 C   0  0  0  0  0  3  0  0  0  0  0  0
  187.7600  177.4440  146.3930 C   0  0  0  0  0  0  0  0  0  0  0  0
  191.3000  178.8850  143.9380 C   0  0  0  0  0  3  0  0  0  0  0  0
  187.9350  177.6340  143.3000 C   0  0  0  0  0  0  0  0  0  0  0  0
  187.0500  176.7280  144.0980 C   0  0  0  0  0  2  0  0  0  0  0  0
  188.8170  177.8630  148.3670 N   0  0  0  0  0  2  0  0  0  0  0  0
  186.6300  177.3780  145.4110 C   0  0  0  0  0  2  0  0  0  0  0  0
  189.2710  178.0370  143.7960 C   0  0  0  0  0  0  0  0  0  0  0  0
  190.2150  178.7570  143.0890 C   0  0  0  0  0  3  0  0  0  0  0  0
  187.6190  178.7060  138.6110 N   0  0  0  0  0  0  0  0  0  0  0  0
  188.0540  178.3370  139.7830 C   0  0  0  0  0  0  0  0  0  0  0  0
  188.3930  178.7150  137.4730 O   0  0  0  0  0  1  0  0  0  0  0  0
  189.3740  177.9090  140.0110 O   0  0  0  0  0  0  0  0  0  0  0  0
  189.9090  176.6510  139.6250 C   0  0  0  0  0  2  0  0  0  0  0  0
  192.1410  177.4620  140.3120 C   0  0  0  0  0  1  0  0  0  0  0  0
  191.3470  176.8300  139.1880 C   0  0  0  0  0  2  0  0  0  0  0  0
  185.6830  178.7370  140.7420 C   0  0  0  0  0  2  0  0  0  0  0  0
  183.8740  179.6500  144.5240 C   0  0  0  0  0  3  0  0  0  0  0  0
  183.2470  178.7610  143.6460 C   0  0  0  0  0  0  0  0  0  0  0  0
  182.0440  178.1670  144.0020 O   0  0  0  0  0  1  0  0  0  0  0  0
  185.0440  179.0680  142.0500 C   0  0  0  0  0  0  0  0  0  0  0  0
  185.6720  179.9550  142.9310 C   0  0  0  0  0  3  0  0  0  0  0  0
  185.0870  180.2470  144.1670 C   0  0  0  0  0  3  0  0  0  0  0  0
  183.8330  178.4680  142.4110 C   0  0  0  0  0  3  0  0  0  0  0  0
  1  4  1  0  0  0  0
  2 11  2  0  0  0  0
  3  5  2  0  0  0  0
  3 13  1  0  0  0  0
  6  1  1  6  0  0  0
  6  9  1  0  0  0  0
  6  3  1  0  0  0  0
  7  2  2  0  0  0  0
  8 13  1  0  0  0  0
  9  8  2  0  0  0  0
 10  4  1  0  0  0  0
 11 15  1  0  0  0  0
 11 12  1  0  0  0  0
 12 14  1  0  0  0  0
 14  9  1  0  0  0  0
 15  1  2  0  0  0  0
 16 15  1  0  0  0  0
 16 10  2  0  0  0  0
 17 18  2  0  0  0  0
 18 20  1  0  0  0  0
 18  7  1  0  0  0  0
 19 17  1  0  0  0  0
 21 20  1  0  0  0  0
 23 21  1  0  0  0  0
 23 22  1  0  0  0  0
 24  7  1  0  0  0  0
 24 28  1  0  0  0  0
 26 27  1  0  0  0  0
 26 25  2  0  0  0  0
 28 31  2  0  0  0  0
 28 29  1  0  0  0  0
 29 30  2  0  0  0  0
 30 25  1  0  0  0  0
 31 26  1  0  0  0  0
M  END
>  <MODEL>
3

>  <REMARK>
 VINA RESULT:      -9.0      2.155      7.958
  Name = 
  6 active torsions:
  status: ('A' for Active; 'I' for Inactive)
    1  A    between atoms: C_5  and  O_22
    2  A    between atoms: C_5  and  C_28
    3  A    between atoms: C_13  and  C_14
    4  A    between atoms: C_13  and  C_25
    5  A    between atoms: C_14  and  C_15
    6  A    between atoms: O_22  and  C_25
                            x       y       z     vdW  Elec       q    Type
                         _______ _______ _______ _____ _____    ______ ____

>  <TORSDO>
F 6

$$$$
=
 OpenBabel10222420293D

 31 34  0  0  1  0  0  0  0  0999 V2000
  182.3460  179.2220  141.5620 C   0  0  0  0  0  0  0  0  0  0  0  0
  185.5760  178.1070  143.0320 C   0  0  0  0  0  0  0  0  0  0  0  0
  179.9730  179.5900  142.2190 C   0  0  0  0  0  0  0  0  0  0  0  0
  182.0570  179.3050  140.2490 N   0  0  0  0  0  0  0  0  0  0  0  0
  179.4710  180.3390  141.3390 O   0  0  0  0  0  0  0  0  0  0  0  0
  181.3970  179.6400  142.6580 C   0  0  1  0  0  3  0  0  0  0  0  0
  186.7940  177.6330  143.0490 C   0  0  0  0  0  0  0  0  0  0  0  0
  180.1320  178.0640  143.8580 C   0  0  0  0  0  3  0  0  0  0  0  0
  181.3420  178.6000  143.7410 C   0  0  2  0  0  3  0  0  0  0  0  0
  183.1610  178.9000  139.5880 C   0  0  0  0  0  3  0  0  0  0  0  0
  184.3600  178.5850  143.0180 C   0  0  0  0  0  0  0  0  0  0  0  0
  183.7490  178.9960  144.3200 C   0  0  0  0  0  2  0  0  0  0  0  0
  179.2130  178.6290  142.9320 N   0  0  0  0  0  0  0  0  0  0  0  0
  182.4870  178.1950  144.6180 C   0  0  0  0  0  2  0  0  0  0  0  0
  183.6480  178.7880  141.7350 C   0  0  1  0  0  3  0  0  0  0  0  0
  184.1700  178.5670  140.4740 C   0  0  0  0  0  3  0  0  0  0  0  0
  187.3950  178.2790  140.8240 N   0  0  0  0  0  0  0  0  0  0  0  0
  187.7830  178.0950  142.0550 C   0  0  0  0  0  0  0  0  0  0  0  0
  188.2260  178.7030  139.8130 O   0  0  0  0  0  1  0  0  0  0  0  0
  189.1040  178.3180  142.4830 O   0  0  0  0  0  0  0  0  0  0  0  0
  190.1660  177.3790  142.3960 C   0  0  0  0  0  2  0  0  0  0  0  0
  190.9470  179.1230  143.9630 C   0  0  0  0  0  1  0  0  0  0  0  0
  191.2600  177.7680  143.3670 C   0  0  0  0  0  2  0  0  0  0  0  0
  187.1810  176.6810  144.1380 C   0  0  0  0  0  2  0  0  0  0  0  0
  187.8890  178.7260  147.8430 C   0  0  0  0  0  3  0  0  0  0  0  0
  186.6710  178.8900  147.1760 C   0  0  0  0  0  0  0  0  0  0  0  0
  185.6880  179.7070  147.7180 O   0  0  0  0  0  1  0  0  0  0  0  0
  187.4320  177.4070  145.4180 C   0  0  0  0  0  0  0  0  0  0  0  0
  188.6500  177.2410  146.0880 C   0  0  0  0  0  3  0  0  0  0  0  0
  188.8790  177.9010  147.2990 C   0  0  0  0  0  3  0  0  0  0  0  0
  186.4420  178.2290  145.9660 C   0  0  0  0  0  3  0  0  0  0  0  0
  1 15  1  0  0  0  0
  2  7  2  0  0  0  0
  3  6  1  0  0  0  0
  3 13  1  0  0  0  0
  4  1  2  0  0  0  0
  5  3  2  0  0  0  0
  6  1  1  6  0  0  0
  6  9  1  0  0  0  0
  7 24  1  0  0  0  0
  9  8  1  1  0  0  0
  9 14  1  0  0  0  0
 10  4  1  0  0  0  0
 10 16  2  0  0  0  0
 11  2  2  0  0  0  0
 11 12  1  0  0  0  0
 12 14  1  0  0  0  0
 13  8  2  0  0  0  0
 15 16  1  1  0  0  0
 15 11  1  0  0  0  0
 17 18  2  0  0  0  0
 18 20  1  0  0  0  0
 18  7  1  0  0  0  0
 19 17  1  0  0  0  0
 21 20  1  0  0  0  0
 21 23  1  0  0  0  0
 23 22  1  0  0  0  0
 24 28  1  0  0  0  0
 26 27  1  0  0  0  0
 26 25  2  0  0  0  0
 28 31  2  0  0  0  0
 28 29  1  0  0  0  0
 29 30  2  0  0  0  0
 30 25  1  0  0  0  0
 31 26  1  0  0  0  0
M  END
>  <MODEL>
4

>  <REMARK>
 VINA RESULT:      -8.9      3.060      6.294
  Name = 
  6 active torsions:
  status: ('A' for Active; 'I' for Inactive)
    1  A    between atoms: C_5  and  O_22
    2  A    between atoms: C_5  and  C_28
    3  A    between atoms: C_13  and  C_14
    4  A    between atoms: C_13  and  C_25
    5  A    between atoms: C_14  and  C_15
    6  A    between atoms: O_22  and  C_25
                            x       y       z     vdW  Elec       q    Type
                         _______ _______ _______ _____ _____    ______ ____

>  <TORSDO>
F 6

$$$$
=
 OpenBabel10222420293D

 31 34  0  0  1  0  0  0  0  0999 V2000
  189.7760  177.7720  145.0960 C   0  0  0  0  0  0  0  0  0  0  0  0
  187.5010  177.9280  142.1570 C   0  0  0  0  0  0  0  0  0  0  0  0
  189.7050  177.3430  147.5470 C   0  0  0  0  0  0  0  0  0  0  0  0
  191.0280  178.2640  145.1580 N   0  0  0  0  0  2  0  0  0  0  0  0
  190.8840  177.0680  147.8950 O   0  0  0  0  0  0  0  0  0  0  0  0
  189.1180  177.0080  146.2190 C   0  0  1  0  0  3  0  0  0  0  0  0
  187.0990  178.2590  140.9580 C   0  0  0  0  0  0  0  0  0  0  0  0
  187.5720  178.0320  147.6620 C   0  0  0  0  0  3  0  0  0  0  0  0
  187.7190  177.5050  146.4520 C   0  0  0  0  0  0  0  0  0  0  0  0
  191.2790  178.8240  143.9570 C   0  0  0  0  0  3  0  0  0  0  0  0
  187.9000  177.5920  143.3550 C   0  0  0  0  0  0  0  0  0  0  0  0
  187.0030  176.7240  144.1800 C   0  0  0  0  0  2  0  0  0  0  0  0
  188.7780  177.9750  148.4130 N   0  0  0  0  0  2  0  0  0  0  0  0
  186.5900  177.4210  145.4710 C   0  0  0  0  0  2  0  0  0  0  0  0
  189.2400  177.9950  143.8400 C   0  0  0  0  0  0  0  0  0  0  0  0
  190.1940  178.6810  143.1110 C   0  0  0  0  0  3  0  0  0  0  0  0
  189.2290  177.7010  140.0170 N   0  0  0  0  0  0  0  0  0  0  0  0
  188.0320  178.1800  139.8170 C   0  0  0  0  0  0  0  0  0  0  0  0
  190.1830  177.5830  139.0330 O   0  0  0  0  0  1  0  0  0  0  0  0
  187.5860  178.6240  138.5590 O   0  0  0  0  0  0  0  0  0  0  0  0
  187.1470  177.7860  137.5000 C   0  0  0  0  0  2  0  0  0  0  0  0
  188.8200  177.4020  135.7210 C   0  0  0  0  0  1  0  0  0  0  0  0
  187.6980  178.3040  136.1890 C   0  0  0  0  0  2  0  0  0  0  0  0
  185.6650  178.6400  140.7580 C   0  0  0  0  0  2  0  0  0  0  0  0
  183.8480  179.6510  144.5110 C   0  0  0  0  0  3  0  0  0  0  0  0
  183.1930  178.7880  143.6280 C   0  0  0  0  0  0  0  0  0  0  0  0
  181.9590  178.2520  143.9690 O   0  0  0  0  0  1  0  0  0  0  0  0
  185.0240  179.0050  142.0550 C   0  0  0  0  0  0  0  0  0  0  0  0
  185.6810  179.8660  142.9420 C   0  0  0  0  0  3  0  0  0  0  0  0
  185.0920  180.1900  144.1690 C   0  0  0  0  0  3  0  0  0  0  0  0
  183.7810  178.4630  142.4020 C   0  0  0  0  0  3  0  0  0  0  0  0
  1  4  1  0  0  0  0
  2 11  2  0  0  0  0
  3  5  2  0  0  0  0
  3 13  1  0  0  0  0
  6  1  1  6  0  0  0
  6  9  1  0  0  0  0
  6  3  1  0  0  0  0
  7  2  2  0  0  0  0
  8 13  1  0  0  0  0
  9  8  2  0  0  0  0
 10  4  1  0  0  0  0
 11 15  1  0  0  0  0
 11 12  1  0  0  0  0
 12 14  1  0  0  0  0
 14  9  1  0  0  0  0
 15  1  2  0  0  0  0
 16 15  1  0  0  0  0
 16 10  2  0  0  0  0
 18 17  2  0  0  0  0
 18  7  1  0  0  0  0
 19 17  1  0  0  0  0
 20 18  1  0  0  0  0
 21 20  1  0  0  0  0
 22 23  1  0  0  0  0
 23 21  1  0  0  0  0
 24  7  1  0  0  0  0
 24 28  1  0  0  0  0
 26 27  1  0  0  0  0
 26 25  2  0  0  0  0
 28 31  2  0  0  0  0
 28 29  1  0  0  0  0
 29 30  2  0  0  0  0
 30 25  1  0  0  0  0
 31 26  1  0  0  0  0
M  END
>  <MODEL>
5

>  <REMARK>
 VINA RESULT:      -8.7      2.282      7.969
  Name = 
  6 active torsions:
  status: ('A' for Active; 'I' for Inactive)
    1  A    between atoms: C_5  and  O_22
    2  A    between atoms: C_5  and  C_28
    3  A    between atoms: C_13  and  C_14
    4  A    between atoms: C_13  and  C_25
    5  A    between atoms: C_14  and  C_15
    6  A    between atoms: O_22  and  C_25
                            x       y       z     vdW  Elec       q    Type
                         _______ _______ _______ _____ _____    ______ ____

>  <TORSDO>
F 6

$$$$
=
 OpenBabel10222420293D

 31 34  0  0  1  0  0  0  0  0999 V2000
  189.0470  177.3280  145.2870 C   0  0  0  0  0  0  0  0  0  0  0  0
  189.1400  177.6330  141.5810 C   0  0  0  0  0  0  0  0  0  0  0  0
  187.4420  177.5160  147.1800 C   0  0  0  0  0  0  0  0  0  0  0  0
  190.1120  177.3340  146.1110 N   0  0  0  0  0  2  0  0  0  0  0  0
  187.9690  176.9180  148.1560 O   0  0  0  0  0  0  0  0  0  0  0  0
  187.6260  177.1270  145.7530 C   0  0  1  0  0  3  0  0  0  0  0  0
  189.6660  177.8090  140.3970 C   0  0  0  0  0  0  0  0  0  0  0  0
  186.1510  178.9370  146.0180 C   0  0  0  0  0  3  0  0  0  0  0  0
  186.7100  178.1350  145.1180 C   0  0  0  0  0  0  0  0  0  0  0  0
  191.2010  177.4800  145.3290 C   0  0  0  0  0  3  0  0  0  0  0  0
  188.6110  177.4540  142.7610 C   0  0  0  0  0  0  0  0  0  0  0  0
  187.1420  177.1780  142.8420 C   0  0  0  0  0  2  0  0  0  0  0  0
  186.5640  178.6170  147.3400 N   0  0  0  0  0  2  0  0  0  0  0  0
  186.4200  178.2470  143.6530 C   0  0  0  0  0  2  0  0  0  0  0  0
  189.4640  177.4420  143.9720 C   0  0  0  0  0  0  0  0  0  0  0  0
  190.8420  177.5540  143.9950 C   0  0  0  0  0  3  0  0  0  0  0  0
  192.0540  177.6630  140.4690 N   0  0  0  0  0  0  0  0  0  0  0  0
  190.9360  177.1440  140.0450 C   0  0  0  0  0  0  0  0  0  0  0  0
  193.2960  177.1350  140.2010 O   0  0  0  0  0  1  0  0  0  0  0  0
  190.8820  175.9730  139.2680 O   0  0  0  0  0  0  0  0  0  0  0  0
  191.5730  175.7660  138.0440 C   0  0  0  0  0  2  0  0  0  0  0  0
  191.2970  174.6460  135.8590 C   0  0  0  0  0  1  0  0  0  0  0  0
  190.9960  174.5580  137.3400 C   0  0  0  0  0  2  0  0  0  0  0  0
  188.9190  178.6280  139.3910 C   0  0  0  0  0  2  0  0  0  0  0  0
  187.9820  176.3460  135.8800 C   0  0  0  0  0  3  0  0  0  0  0  0
  187.4630  175.9640  137.1210 C   0  0  0  0  0  0  0  0  0  0  0  0
  186.6380  174.8520  137.2150 O   0  0  0  0  0  1  0  0  0  0  0  0
  188.6070  177.8230  138.1730 C   0  0  0  0  0  0  0  0  0  0  0  0
  189.1230  178.2060  136.9300 C   0  0  0  0  0  3  0  0  0  0  0  0
  188.8120  177.4670  135.7840 C   0  0  0  0  0  3  0  0  0  0  0  0
  187.7730  176.7030  138.2660 C   0  0  0  0  0  3  0  0  0  0  0  0
  1  6  1  0  0  0  0
  1  4  1  0  0  0  0
  2 11  2  0  0  0  0
  3 13  1  0  0  0  0
  3  5  2  0  0  0  0
  6  9  1  6  0  0  0
  6  3  1  0  0  0  0
  7  2  2  0  0  0  0
  8 13  1  0  0  0  0
  9  8  2  0  0  0  0
 10  4  1  0  0  0  0
 11 12  1  0  0  0  0
 11 15  1  0  0  0  0
 12 14  1  0  0  0  0
 14  9  1  0  0  0  0
 15 16  1  0  0  0  0
 15  1  2  0  0  0  0
 16 10  2  0  0  0  0
 18  7  1  0  0  0  0
 18 17  2  0  0  0  0
 19 17  1  0  0  0  0
 20 18  1  0  0  0  0
 21 20  1  0  0  0  0
 22 23  1  0  0  0  0
 23 21  1  0  0  0  0
 24  7  1  0  0  0  0
 25 26  1  0  0  0  0
 26 27  1  0  0  0  0
 26 31  2  0  0  0  0
 28 31  1  0  0  0  0
 28 24  1  0  0  0  0
 29 28  2  0  0  0  0
 30 25  2  0  0  0  0
 30 29  1  0  0  0  0
M  END
>  <MODEL>
6

>  <REMARK>
 VINA RESULT:      -8.7      2.841      8.209
  Name = 
  6 active torsions:
  status: ('A' for Active; 'I' for Inactive)
    1  A    between atoms: C_5  and  O_22
    2  A    between atoms: C_5  and  C_28
    3  A    between atoms: C_13  and  C_14
    4  A    between atoms: C_13  and  C_25
    5  A    between atoms: C_14  and  C_15
    6  A    between atoms: O_22  and  C_25
                            x       y       z     vdW  Elec       q    Type
                         _______ _______ _______ _____ _____    ______ ____

>  <TORSDO>
F 6

$$$$
=
 OpenBabel10222420293D

 31 34  0  0  1  0  0  0  0  0999 V2000
  187.1900  177.8540  143.4450 C   0  0  0  0  0  0  0  0  0  0  0  0
  184.9570  178.7280  140.6010 C   0  0  0  0  0  0  0  0  0  0  0  0
  187.1710  177.7720  145.9330 C   0  0  0  0  0  0  0  0  0  0  0  0
  188.5270  177.7160  143.3910 N   0  0  0  0  0  2  0  0  0  0  0  0
  188.1250  177.0230  146.2720 O   0  0  0  0  0  0  0  0  0  0  0  0
  186.3700  177.6060  144.6880 C   0  0  1  0  0  3  0  0  0  0  0  0
  184.6340  179.0770  139.3830 C   0  0  0  0  0  0  0  0  0  0  0  0
  185.6050  179.3760  146.0300 C   0  0  0  0  0  3  0  0  0  0  0  0
  185.3780  178.7150  144.9020 C   0  0  0  0  0  0  0  0  0  0  0  0
  188.8870  177.9640  142.1150 C   0  0  0  0  0  3  0  0  0  0  0  0
  185.2760  178.3770  141.8180 C   0  0  0  0  0  0  0  0  0  0  0  0
  184.1680  178.1150  142.7890 C   0  0  0  0  0  2  0  0  0  0  0  0
  186.7210  178.8490  146.7370 N   0  0  0  0  0  2  0  0  0  0  0  0
  184.2440  179.0570  143.9840 C   0  0  0  0  0  2  0  0  0  0  0  0
  186.6930  178.1640  142.1910 C   0  0  0  0  0  0  0  0  0  0  0  0
  187.7780  178.2490  141.3380 C   0  0  0  0  0  3  0  0  0  0  0  0
  186.5700  178.7300  138.0190 N   0  0  0  0  0  0  0  0  0  0  0  0
  185.3140  178.4540  138.2300 C   0  0  0  0  0  0  0  0  0  0  0  0
  187.3050  178.2130  136.9770 O   0  0  0  0  0  1  0  0  0  0  0  0
  184.5720  177.5850  137.4090 O   0  0  0  0  0  0  0  0  0  0  0  0
  184.4190  176.1890  137.6180 C   0  0  0  0  0  2  0  0  0  0  0  0
  182.6250  175.6210  139.2200 C   0  0  0  0  0  1  0  0  0  0  0  0
  182.9480  175.8620  137.7620 C   0  0  0  0  0  2  0  0  0  0  0  0
  183.5170  180.0530  139.1850 C   0  0  0  0  0  2  0  0  0  0  0  0
  179.6930  178.1060  139.1970 C   0  0  0  0  0  3  0  0  0  0  0  0
  180.3640  178.3350  140.4010 C   0  0  0  0  0  0  0  0  0  0  0  0
  179.7890  177.9400  141.6010 O   0  0  0  0  0  1  0  0  0  0  0  0
  182.1950  179.3600  139.1890 C   0  0  0  0  0  0  0  0  0  0  0  0
  181.5200  179.1330  137.9840 C   0  0  0  0  0  3  0  0  0  0  0  0
  180.2710  178.5050  137.9870 C   0  0  0  0  0  3  0  0  0  0  0  0
  181.6130  178.9640  140.3980 C   0  0  0  0  0  3  0  0  0  0  0  0
  2 11  2  0  0  0  0
  3  5  2  0  0  0  0
  3 13  1  0  0  0  0
  4  1  1  0  0  0  0
  6  1  1  6  0  0  0
  6  9  1  0  0  0  0
  6  3  1  0  0  0  0
  7  2  2  0  0  0  0
  8 13  1  0  0  0  0
  9  8  2  0  0  0  0
 10  4  1  0  0  0  0
 11 15  1  0  0  0  0
 11 12  1  0  0  0  0
 12 14  1  0  0  0  0
 14  9  1  0  0  0  0
 15  1  2  0  0  0  0
 16 10  2  0  0  0  0
 16 15  1  0  0  0  0
 17 18  2  0  0  0  0
 18  7  1  0  0  0  0
 19 17  1  0  0  0  0
 20 21  1  0  0  0  0
 20 18  1  0  0  0  0
 21 23  1  0  0  0  0
 23 22  1  0  0  0  0
 24 28  1  0  0  0  0
 24  7  1  0  0  0  0
 25 26  1  0  0  0  0
 26 27  1  0  0  0  0
 28 31  1  0  0  0  0
 29 30  1  0  0  0  0
 29 28  2  0  0  0  0
 30 25  2  0  0  0  0
 31 26  2  0  0  0  0
M  END
>  <MODEL>
7

>  <REMARK>
 VINA RESULT:      -8.4      3.135      8.848
  Name = 
  6 active torsions:
  status: ('A' for Active; 'I' for Inactive)
    1  A    between atoms: C_5  and  O_22
    2  A    between atoms: C_5  and  C_28
    3  A    between atoms: C_13  and  C_14
    4  A    between atoms: C_13  and  C_25
    5  A    between atoms: C_14  and  C_15
    6  A    between atoms: O_22  and  C_25
                            x       y       z     vdW  Elec       q    Type
                         _______ _______ _______ _____ _____    ______ ____

>  <TORSDO>
F 6

$$$$
=
 OpenBabel10222420293D

 31 34  0  0  1  0  0  0  0  0999 V2000
  187.8070  177.9520  143.5260 C   0  0  0  0  0  0  0  0  0  0  0  0
  186.3010  178.4190  140.1570 C   0  0  0  0  0  0  0  0  0  0  0  0
  189.9450  177.2320  144.5810 C   0  0  0  0  0  0  0  0  0  0  0  0
  187.1380  177.8780  144.6920 N   0  0  0  0  0  2  0  0  0  0  0  0
  189.9220  177.6640  145.7640 O   0  0  0  0  0  0  0  0  0  0  0  0
  189.3130  177.9190  143.4190 C   0  0  1  0  0  3  0  0  0  0  0  0
  185.3530  178.5390  139.2650 C   0  0  0  0  0  0  0  0  0  0  0  0
  190.4590  175.9630  142.8030 C   0  0  0  0  0  3  0  0  0  0  0  0
  189.7480  176.9800  142.3290 C   0  0  0  0  0  0  0  0  0  0  0  0
  185.8290  177.9980  144.3900 C   0  0  0  0  0  3  0  0  0  0  0  0
  187.2510  178.3030  141.0460 C   0  0  0  0  0  0  0  0  0  0  0  0
  188.6700  178.4180  140.5820 C   0  0  0  0  0  2  0  0  0  0  0  0
  190.6240  176.0430  144.2130 N   0  0  0  0  0  2  0  0  0  0  0  0
  189.4520  177.1420  140.8700 C   0  0  0  0  0  2  0  0  0  0  0  0
  186.9220  178.1480  142.4810 C   0  0  0  0  0  0  0  0  0  0  0  0
  185.6520  178.1650  143.0280 C   0  0  0  0  0  3  0  0  0  0  0  0
  183.8990  180.3670  138.7420 N   0  0  0  0  0  0  0  0  0  0  0  0
  184.1730  179.3790  139.5480 C   0  0  0  0  0  0  0  0  0  0  0  0
  182.8290  181.2170  138.9060 O   0  0  0  0  0  1  0  0  0  0  0  0
  183.3930  179.0730  140.6780 O   0  0  0  0  0  0  0  0  0  0  0  0
  182.2570  178.2210  140.6860 C   0  0  0  0  0  2  0  0  0  0  0  0
  182.0130  179.0030  143.0170 C   0  0  0  0  0  1  0  0  0  0  0  0
  181.2740  178.7050  141.7310 C   0  0  0  0  0  2  0  0  0  0  0  0
  185.5280  177.8760  137.9340 C   0  0  0  0  0  2  0  0  0  0  0  0
  189.6740  177.4800  136.9000 C   0  0  0  0  0  3  0  0  0  0  0  0
  188.9430  176.3580  137.3000 C   0  0  0  0  0  0  0  0  0  0  0  0
  189.5570  175.1140  137.3540 O   0  0  0  0  0  1  0  0  0  0  0  0
  186.9750  177.7400  137.5920 C   0  0  0  0  0  0  0  0  0  0  0  0
  187.7070  178.8630  137.1880 C   0  0  0  0  0  3  0  0  0  0  0  0
  189.0560  178.7330  136.8430 C   0  0  0  0  0  3  0  0  0  0  0  0
  187.5940  176.4870  137.6430 C   0  0  0  0  0  3  0  0  0  0  0  0
  1  4  1  0  0  0  0
  2 11  2  0  0  0  0
  3  5  2  0  0  0  0
  6  9  1  6  0  0  0
  6  1  1  0  0  0  0
  6  3  1  0  0  0  0
  7 18  1  0  0  0  0
  7  2  2  0  0  0  0
  8 13  1  0  0  0  0
  9  8  2  0  0  0  0
 10  4  1  0  0  0  0
 11 15  1  0  0  0  0
 12 14  1  0  0  0  0
 12 11  1  0  0  0  0
 13  3  1  0  0  0  0
 14  9  1  0  0  0  0
 15 16  1  0  0  0  0
 15  1  2  0  0  0  0
 16 10  2  0  0  0  0
 17 19  1  0  0  0  0
 17 18  2  0  0  0  0
 18 20  1  0  0  0  0
 20 21  1  0  0  0  0
 21 23  1  0  0  0  0
 23 22  1  0  0  0  0
 24  7  1  0  0  0  0
 25 26  1  0  0  0  0
 26 27  1  0  0  0  0
 26 31  2  0  0  0  0
 28 31  1  0  0  0  0
 28 24  1  0  0  0  0
 29 28  2  0  0  0  0
 30 25  2  0  0  0  0
 30 29  1  0  0  0  0
M  END
>  <MODEL>
8

>  <REMARK>
 VINA RESULT:      -8.2      2.312      6.868
  Name = 
  6 active torsions:
  status: ('A' for Active; 'I' for Inactive)
    1  A    between atoms: C_5  and  O_22
    2  A    between atoms: C_5  and  C_28
    3  A    between atoms: C_13  and  C_14
    4  A    between atoms: C_13  and  C_25
    5  A    between atoms: C_14  and  C_15
    6  A    between atoms: O_22  and  C_25
                            x       y       z     vdW  Elec       q    Type
                         _______ _______ _______ _____ _____    ______ ____

>  <TORSDO>
F 6

$$$$
=
 OpenBabel10222420293D

 31 34  0  0  1  0  0  0  0  0999 V2000
  184.5430  178.9270  144.1370 C   0  0  0  0  0  0  0  0  0  0  0  0
  184.8290  178.4740  140.4560 C   0  0  0  0  0  0  0  0  0  0  0  0
  185.9000  178.6530  146.2070 C   0  0  0  0  0  0  0  0  0  0  0  0
  183.4000  179.0680  144.8340 N   0  0  0  0  0  2  0  0  0  0  0  0
  185.3360  179.3430  147.0970 O   0  0  0  0  0  0  0  0  0  0  0  0
  185.9180  178.9970  144.7570 C   0  0  1  0  0  3  0  0  0  0  0  0
  184.4210  178.3040  139.2260 C   0  0  0  0  0  0  0  0  0  0  0  0
  187.1480  177.0550  145.2440 C   0  0  0  0  0  3  0  0  0  0  0  0
  186.7830  177.8720  144.2630 C   0  0  0  0  0  0  0  0  0  0  0  0
  182.3950  179.0040  143.9370 C   0  0  0  0  0  3  0  0  0  0  0  0
  185.2400  178.6470  141.6840 C   0  0  0  0  0  0  0  0  0  0  0  0
  186.7120  178.7700  141.9240 C   0  0  0  0  0  2  0  0  0  0  0  0
  186.6280  177.4730  146.5000 N   0  0  0  0  0  2  0  0  0  0  0  0
  187.2190  177.6670  142.8440 C   0  0  0  0  0  2  0  0  0  0  0  0
  184.2650  178.8010  142.7880 C   0  0  0  0  0  0  0  0  0  0  0  0
  182.8890  178.8360  142.6560 C   0  0  0  0  0  3  0  0  0  0  0  0
  183.1860  180.3460  139.0270 N   0  0  0  0  0  0  0  0  0  0  0  0
  183.2780  179.0840  138.7110 C   0  0  0  0  0  0  0  0  0  0  0  0
  182.1670  181.1700  138.6100 O   0  0  0  0  0  1  0  0  0  0  0  0
  182.3370  178.4280  137.8970 O   0  0  0  0  0  0  0  0  0  0  0  0
  181.0670  177.9570  138.3260 C   0  0  0  0  0  2  0  0  0  0  0  0
  181.6720  175.8500  139.4670 C   0  0  0  0  0  1  0  0  0  0  0  0
  181.2120  177.2780  139.6700 C   0  0  0  0  0  2  0  0  0  0  0  0
  185.1800  177.3690  138.3380 C   0  0  0  0  0  2  0  0  0  0  0  0
  189.0550  178.9240  137.3460 C   0  0  0  0  0  3  0  0  0  0  0  0
  188.8680  178.2210  138.5410 C   0  0  0  0  0  0  0  0  0  0  0  0
  189.9390  178.0190  139.4010 O   0  0  0  0  0  1  0  0  0  0  0  0
  186.5250  177.9250  138.0030 C   0  0  0  0  0  0  0  0  0  0  0  0
  186.7130  178.6250  136.8050 C   0  0  0  0  0  3  0  0  0  0  0  0
  187.9770  179.1260  136.4780 C   0  0  0  0  0  3  0  0  0  0  0  0
  187.6050  177.7190  138.8670 C   0  0  0  0  0  3  0  0  0  0  0  0
  1  4  1  0  0  0  0
  2 11  2  0  0  0  0
  3 13  1  0  0  0  0
  3  5  2  0  0  0  0
  6  1  1  6  0  0  0
  6  3  1  0  0  0  0
  7  2  2  0  0  0  0
  8 13  1  0  0  0  0
  9  6  1  0  0  0  0
  9  8  2  0  0  0  0
 10  4  1  0  0  0  0
 11 12  1  0  0  0  0
 11 15  1  0  0  0  0
 12 14  1  0  0  0  0
 14  9  1  0  0  0  0
 15  1  2  0  0  0  0
 16 15  1  0  0  0  0
 16 10  2  0  0  0  0
 18 17  2  0  0  0  0
 18  7  1  0  0  0  0
 19 17  1  0  0  0  0
 20 21  1  0  0  0  0
 20 18  1  0  0  0  0
 21 23  1  0  0  0  0
 22 23  1  0  0  0  0
 24  7  1  0  0  0  0
 25 26  1  0  0  0  0
 26 31  2  0  0  0  0
 26 27  1  0  0  0  0
 28 24  1  0  0  0  0
 28 31  1  0  0  0  0
 29 28  2  0  0  0  0
 30 29  1  0  0  0  0
 30 25  2  0  0  0  0
M  END
>  <MODEL>
9

>  <REMARK>
 VINA RESULT:      -8.2      3.254      7.577
  Name = 
  6 active torsions:
  status: ('A' for Active; 'I' for Inactive)
    1  A    between atoms: C_5  and  O_22
    2  A    between atoms: C_5  and  C_28
    3  A    between atoms: C_13  and  C_14
    4  A    between atoms: C_13  and  C_25
    5  A    between atoms: C_14  and  C_15
    6  A    between atoms: O_22  and  C_25
                            x       y       z     vdW  Elec       q    Type
                         _______ _______ _______ _____ _____    ______ ____

>  <TORSDO>
F 6

$$$$
