=
 OpenBabel10222417013D

 30 33  0  0  1  0  0  0  0  0999 V2000
  188.0280  179.8270  141.0560 O   0  0  0  0  0  0  0  0  0  0  0  0
  184.8020  178.4790  144.2860 C   0  0  0  0  0  3  0  0  0  0  0  0
  185.3010  178.2190  146.6020 F   0  0  0  0  0  0  0  0  0  0  0  0
  185.1950  178.3720  142.9490 C   0  0  0  0  0  3  0  0  0  0  0  0
  190.2750  177.6030  140.4780 N   0  0  0  0  0  2  0  0  0  0  0  0
  185.6820  178.1110  145.3070 C   0  0  0  0  0  0  0  0  0  0  0  0
  191.6780  176.9200  142.1960 O   0  0  0  0  0  0  0  0  0  0  0  0
  189.6730  177.9820  142.9440 C   0  0  1  0  0  3  0  0  0  0  0  0
  187.3500  177.5000  143.6560 C   0  0  0  0  0  0  0  0  0  0  0  0
  187.9220  178.6140  140.7290 C   0  0  0  0  0  0  0  0  0  0  0  0
  190.5960  177.4800  141.8720 C   0  0  0  0  0  0  0  0  0  0  0  0
  186.9500  177.6140  144.9920 C   0  0  0  0  0  3  0  0  0  0  0  0
  188.4510  177.0530  138.8570 N   0  0  0  0  0  0  0  0  0  0  0  0
  188.6880  176.9000  143.3520 C   0  0  0  0  0  2  0  0  0  0  0  0
  186.4720  177.9030  142.6270 C   0  0  0  0  0  0  0  0  0  0  0  0
  189.0290  178.3640  138.4890 C   0  0  0  0  0  2  0  0  0  0  0  0
  188.9790  177.9780  139.8890 C   0  0  2  0  0  0  0  0  0  0  0  0
  186.8590  177.8170  141.2530 N   0  0  0  0  0  2  0  0  0  0  0  0
  189.4320  176.0510  138.4530 C   0  0  0  0  0  2  0  0  0  0  0  0
  188.9940  175.3850  137.1590 C   0  0  0  0  0  2  0  0  0  0  0  0
  190.8100  173.9060  137.5980 O   0  0  0  0  0  1  0  0  0  0  0  0
  189.7800  174.1430  136.9150 C   0  0  0  0  0  0  0  0  0  0  0  0
  189.3970  173.2630  135.9120 O   0  0  0  0  0  0  0  0  0  0  0  0
  190.4110  178.4580  144.1090 N   0  0  0  0  0  2  0  0  0  0  0  0
  191.9900  175.9900  146.3520 N   0  0  0  0  0  0  0  0  0  0  0  0
  190.1000  176.9020  147.4960 C   0  0  0  0  0  3  0  0  0  0  0  0
  189.8310  177.7090  146.3890 C   0  0  0  0  0  3  0  0  0  0  0  0
  191.7460  176.7700  145.2660 C   0  0  0  0  0  3  0  0  0  0  0  0
  190.6590  177.6490  145.2610 C   0  0  0  0  0  0  0  0  0  0  0  0
  191.1980  176.0390  147.4580 C   0  0  0  0  0  3  0  0  0  0  0  0
  2  6  1  0  0  0  0
  4  2  2  0  0  0  0
  5 11  1  0  0  0  0
  6  3  1  0  0  0  0
  8 14  1  0  0  0  0
  8 24  1  1  0  0  0
  9 12  1  0  0  0  0
 10  1  2  0  0  0  0
 10 18  1  0  0  0  0
 11  7  2  0  0  0  0
 11  8  1  0  0  0  0
 12  6  2  0  0  0  0
 13 17  1  0  0  0  0
 14  9  1  0  0  0  0
 15  4  1  0  0  0  0
 15  9  2  0  0  0  0
 16 13  1  0  0  0  0
 17 16  1  6  0  0  0
 17  5  1  0  0  0  0
 17 10  1  0  0  0  0
 18 15  1  0  0  0  0
 19 13  1  0  0  0  0
 20 19  1  0  0  0  0
 22 20  1  0  0  0  0
 22 21  1  0  0  0  0
 23 22  2  0  0  0  0
 24 29  1  0  0  0  0
 25 30  1  0  0  0  0
 27 26  1  0  0  0  0
 28 25  2  0  0  0  0
 29 28  1  0  0  0  0
 29 27  2  0  0  0  0
 30 26  2  0  0  0  0
M  END
>  <MODEL>
1

>  <REMARK>
 VINA RESULT:      -8.1      0.000      0.000
  Name = 
  5 active torsions:
  status: ('A' for Active; 'I' for Inactive)
    1  A    between atoms: C_4  and  C_5
    2  A    between atoms: C_4  and  N_21
    3  A    between atoms: C_5  and  C_15
    4  A    between atoms: C_11  and  N_30
    5  A    between atoms: C_27  and  N_30
                            x       y       z     vdW  Elec       q    Type
                         _______ _______ _______ _____ _____    ______ ____

>  <TORSDO>
F 5

$$$$
=
 OpenBabel10222417013D

 30 33  0  0  1  0  0  0  0  0999 V2000
  185.6140  180.3860  142.3830 O   0  0  0  0  0  0  0  0  0  0  0  0
  185.6900  178.2250  146.6230 C   0  0  0  0  0  3  0  0  0  0  0  0
  187.7020  177.5570  147.7130 F   0  0  0  0  0  0  0  0  0  0  0  0
  184.9610  178.4050  145.4440 C   0  0  0  0  0  3  0  0  0  0  0  0
  186.4780  178.4720  139.9490 N   0  0  0  0  0  2  0  0  0  0  0  0
  186.9950  177.7270  146.5700 C   0  0  0  0  0  0  0  0  0  0  0  0
  188.6150  177.5680  139.9070 O   0  0  0  0  0  0  0  0  0  0  0  0
  187.9240  178.3270  142.0640 C   0  0  1  0  0  3  0  0  0  0  0  0
  186.8410  177.5610  144.1560 C   0  0  0  0  0  0  0  0  0  0  0  0
  185.1830  179.2550  142.0300 C   0  0  0  0  0  0  0  0  0  0  0  0
  187.7060  178.1050  140.5960 C   0  0  0  0  0  0  0  0  0  0  0  0
  187.5650  177.3880  145.3410 C   0  0  0  0  0  3  0  0  0  0  0  0
  184.0090  178.1240  140.1430 N   0  0  0  0  0  0  0  0  0  0  0  0
  187.4560  177.1230  142.8620 C   0  0  0  0  0  2  0  0  0  0  0  0
  185.5350  178.0940  144.2080 C   0  0  0  0  0  0  0  0  0  0  0  0
  184.2550  179.5170  139.7130 C   0  0  0  0  0  2  0  0  0  0  0  0
  185.2120  178.8660  140.5900 C   0  0  2  0  0  0  0  0  0  0  0  0
  184.7770  178.3020  143.0140 N   0  0  0  0  0  2  0  0  0  0  0  0
  184.2710  177.2880  138.9770 C   0  0  0  0  0  2  0  0  0  0  0  0
  183.0070  177.1400  138.1460 C   0  0  0  0  0  2  0  0  0  0  0  0
  181.8310  175.6000  139.5340 O   0  0  0  0  0  1  0  0  0  0  0  0
  181.8570  176.7420  139.0060 C   0  0  0  0  0  0  0  0  0  0  0  0
  180.7960  177.6160  139.1980 O   0  0  0  0  0  0  0  0  0  0  0  0
  189.3220  178.6180  142.3620 N   0  0  0  0  0  2  0  0  0  0  0  0
  191.2430  175.6690  143.4700 N   0  0  0  0  0  0  0  0  0  0  0  0
  191.4190  177.3310  145.1780 C   0  0  0  0  0  3  0  0  0  0  0  0
  190.6230  178.1870  144.4150 C   0  0  0  0  0  3  0  0  0  0  0  0
  190.4690  176.4900  142.7110 C   0  0  0  0  0  3  0  0  0  0  0  0
  190.1420  177.7690  143.1680 C   0  0  0  0  0  0  0  0  0  0  0  0
  191.7220  176.0610  144.6830 C   0  0  0  0  0  3  0  0  0  0  0  0
  4  2  2  0  0  0  0
  5 17  1  0  0  0  0
  5 11  1  0  0  0  0
  6  2  1  0  0  0  0
  6  3  1  0  0  0  0
  7 11  2  0  0  0  0
  8 24  1  6  0  0  0
  8 14  1  0  0  0  0
  9 15  2  0  0  0  0
  9 12  1  0  0  0  0
 10  1  2  0  0  0  0
 10 18  1  0  0  0  0
 11  8  1  0  0  0  0
 12  6  2  0  0  0  0
 13 17  1  0  0  0  0
 14  9  1  0  0  0  0
 15  4  1  0  0  0  0
 16 13  1  0  0  0  0
 17 16  1  6  0  0  0
 17 10  1  0  0  0  0
 18 15  1  0  0  0  0
 19 13  1  0  0  0  0
 20 19  1  0  0  0  0
 20 22  1  0  0  0  0
 22 23  2  0  0  0  0
 22 21  1  0  0  0  0
 24 29  1  0  0  0  0
 25 30  1  0  0  0  0
 27 26  1  0  0  0  0
 28 29  1  0  0  0  0
 28 25  2  0  0  0  0
 29 27  2  0  0  0  0
 30 26  2  0  0  0  0
M  END
>  <MODEL>
2

>  <REMARK>
 VINA RESULT:      -8.1      3.079      4.253
  Name = 
  5 active torsions:
  status: ('A' for Active; 'I' for Inactive)
    1  A    between atoms: C_4  and  C_5
    2  A    between atoms: C_4  and  N_21
    3  A    between atoms: C_5  and  C_15
    4  A    between atoms: C_11  and  N_30
    5  A    between atoms: C_27  and  N_30
                            x       y       z     vdW  Elec       q    Type
                         _______ _______ _______ _____ _____    ______ ____

>  <TORSDO>
F 5

$$$$
=
 OpenBabel10222417013D

 30 33  0  0  1  0  0  0  0  0999 V2000
  190.2460  174.5620  138.1320 O   0  0  0  0  0  0  0  0  0  0  0  0
  189.2980  177.2430  141.9490 C   0  0  0  0  0  3  0  0  0  0  0  0
  187.3330  178.5780  142.1530 F   0  0  0  0  0  0  0  0  0  0  0  0
  190.3130  176.7070  141.1520 C   0  0  0  0  0  3  0  0  0  0  0  0
  190.9500  176.2710  135.5030 N   0  0  0  0  0  2  0  0  0  0  0  0
  188.3190  178.0620  141.3800 C   0  0  0  0  0  0  0  0  0  0  0  0
  189.3580  177.7040  134.6100 O   0  0  0  0  0  0  0  0  0  0  0  0
  188.9530  177.1010  136.8850 C   0  0  1  0  0  3  0  0  0  0  0  0
  189.3810  177.8350  139.2120 C   0  0  0  0  0  0  0  0  0  0  0  0
  191.0970  175.4720  137.9440 C   0  0  0  0  0  0  0  0  0  0  0  0
  189.7450  177.0450  135.6110 C   0  0  0  0  0  0  0  0  0  0  0  0
  188.3660  178.3640  140.0160 C   0  0  0  0  0  3  0  0  0  0  0  0
  193.1600  175.9630  136.6320 N   0  0  0  0  0  0  0  0  0  0  0  0
  189.4420  178.2350  137.7690 C   0  0  0  0  0  2  0  0  0  0  0  0
  190.3510  176.9820  139.7820 C   0  0  0  0  0  0  0  0  0  0  0  0
  192.6760  174.6420  136.1770 C   0  0  0  0  0  2  0  0  0  0  0  0
  191.7130  175.6460  136.5960 C   0  0  2  0  0  0  0  0  0  0  0  0
  191.3890  176.4100  138.9820 N   0  0  0  0  0  2  0  0  0  0  0  0
  193.6070  176.6650  135.4330 C   0  0  0  0  0  2  0  0  0  0  0  0
  194.9620  176.1350  134.9930 C   0  0  0  0  0  2  0  0  0  0  0  0
  197.1780  176.7070  135.6580 O   0  0  0  0  0  1  0  0  0  0  0  0
  196.0380  177.1140  135.3130 C   0  0  0  0  0  0  0  0  0  0  0  0
  195.7760  178.4770  135.2650 O   0  0  0  0  0  0  0  0  0  0  0  0
  187.5250  177.2440  136.6240 N   0  0  0  0  0  2  0  0  0  0  0  0
  184.3210  175.6100  137.4500 N   0  0  0  0  0  0  0  0  0  0  0  0
  185.9810  173.9000  137.2710 C   0  0  0  0  0  3  0  0  0  0  0  0
  186.9390  174.8720  136.9770 C   0  0  0  0  0  3  0  0  0  0  0  0
  185.2390  176.5710  137.1620 C   0  0  0  0  0  3  0  0  0  0  0  0
  186.5700  176.2220  136.9190 C   0  0  0  0  0  0  0  0  0  0  0  0
  184.6620  174.2930  137.5070 C   0  0  0  0  0  3  0  0  0  0  0  0
  4  2  2  0  0  0  0
  5 11  1  0  0  0  0
  5 17  1  0  0  0  0
  6  2  1  0  0  0  0
  6  3  1  0  0  0  0
  7 11  2  0  0  0  0
  8 24  1  6  0  0  0
  8 14  1  0  0  0  0
  9 15  2  0  0  0  0
  9 12  1  0  0  0  0
 10  1  2  0  0  0  0
 10 18  1  0  0  0  0
 11  8  1  0  0  0  0
 12  6  2  0  0  0  0
 14  9  1  0  0  0  0
 15  4  1  0  0  0  0
 16 13  1  0  0  0  0
 17 16  1  6  0  0  0
 17 13  1  0  0  0  0
 17 10  1  0  0  0  0
 18 15  1  0  0  0  0
 19 13  1  0  0  0  0
 20 22  1  0  0  0  0
 20 19  1  0  0  0  0
 22 21  1  0  0  0  0
 23 22  2  0  0  0  0
 24 29  1  0  0  0  0
 25 30  1  0  0  0  0
 26 30  2  0  0  0  0
 27 26  1  0  0  0  0
 28 25  2  0  0  0  0
 29 27  2  0  0  0  0
 29 28  1  0  0  0  0
M  END
>  <MODEL>
3

>  <REMARK>
 VINA RESULT:      -7.0      3.807      7.266
  Name = 
  5 active torsions:
  status: ('A' for Active; 'I' for Inactive)
    1  A    between atoms: C_4  and  C_5
    2  A    between atoms: C_4  and  N_21
    3  A    between atoms: C_5  and  C_15
    4  A    between atoms: C_11  and  N_30
    5  A    between atoms: C_27  and  N_30
                            x       y       z     vdW  Elec       q    Type
                         _______ _______ _______ _____ _____    ______ ____

>  <TORSDO>
F 5

$$$$
=
 OpenBabel10222417013D

 30 33  0  0  1  0  0  0  0  0999 V2000
  184.0870  177.3740  136.0190 O   0  0  0  0  0  0  0  0  0  0  0  0
  181.1060  174.0040  137.5720 C   0  0  0  0  0  3  0  0  0  0  0  0
  179.2150  174.4650  138.9490 F   0  0  0  0  0  0  0  0  0  0  0  0
  182.4260  174.2820  137.2050 C   0  0  0  0  0  3  0  0  0  0  0  0
  185.8990  178.6570  138.3430 N   0  0  0  0  0  2  0  0  0  0  0  0
  180.4950  174.7330  138.5960 C   0  0  0  0  0  0  0  0  0  0  0  0
  184.8810  179.7890  140.0950 O   0  0  0  0  0  0  0  0  0  0  0  0
  183.4170  178.3240  138.9040 C   0  0  1  0  0  3  0  0  0  0  0  0
  182.5330  176.0110  138.9100 C   0  0  0  0  0  0  0  0  0  0  0  0
  184.8380  176.8310  136.8740 C   0  0  0  0  0  0  0  0  0  0  0  0
  184.7520  178.9670  139.1490 C   0  0  0  0  0  0  0  0  0  0  0  0
  181.2100  175.7280  139.2690 C   0  0  0  0  0  3  0  0  0  0  0  0
  187.2350  176.6980  137.5490 N   0  0  0  0  0  0  0  0  0  0  0  0
  183.2910  177.0350  139.6970 C   0  0  0  0  0  2  0  0  0  0  0  0
  183.1380  175.2950  137.8540 C   0  0  0  0  0  0  0  0  0  0  0  0
  187.1600  177.6900  136.4560 C   0  0  0  0  0  2  0  0  0  0  0  0
  186.0410  177.5590  137.3730 C   0  0  2  0  0  0  0  0  0  0  0  0
  184.4810  175.5740  137.4510 N   0  0  0  0  0  2  0  0  0  0  0  0
  188.1750  177.2410  138.5240 C   0  0  0  0  0  2  0  0  0  0  0  0
  189.5980  177.1160  138.0030 C   0  0  0  0  0  2  0  0  0  0  0  0
  190.5100  176.2980  140.0470 O   0  0  0  0  0  1  0  0  0  0  0  0
  190.3670  176.1270  138.8090 C   0  0  0  0  0  0  0  0  0  0  0  0
  190.9550  175.0330  138.1890 O   0  0  0  0  0  0  0  0  0  0  0  0
  182.3180  179.2260  139.2310 N   0  0  0  0  0  2  0  0  0  0  0  0
  181.0950  182.3110  137.6180 N   0  0  0  0  0  0  0  0  0  0  0  0
  180.5510  180.4800  136.1830 C   0  0  0  0  0  3  0  0  0  0  0  0
  181.1400  179.6020  137.0950 C   0  0  0  0  0  3  0  0  0  0  0  0
  181.6750  181.4720  138.5170 C   0  0  0  0  0  3  0  0  0  0  0  0
  181.7110  180.0960  138.2740 C   0  0  0  0  0  0  0  0  0  0  0  0
  180.5390  181.8480  136.4660 C   0  0  0  0  0  3  0  0  0  0  0  0
  1 10  2  0  0  0  0
  2  6  1  0  0  0  0
  4  2  2  0  0  0  0
  4 15  1  0  0  0  0
  5 11  1  0  0  0  0
  6  3  1  0  0  0  0
  6 12  2  0  0  0  0
  8 11  1  0  0  0  0
  8 24  1  1  0  0  0
  8 14  1  0  0  0  0
  9 12  1  0  0  0  0
  9 14  1  0  0  0  0
 10 17  1  0  0  0  0
 10 18  1  0  0  0  0
 11  7  2  0  0  0  0
 13 19  1  0  0  0  0
 15  9  2  0  0  0  0
 16 13  1  0  0  0  0
 17 16  1  6  0  0  0
 17 13  1  0  0  0  0
 17  5  1  0  0  0  0
 18 15  1  0  0  0  0
 20 19  1  0  0  0  0
 20 22  1  0  0  0  0
 22 21  1  0  0  0  0
 23 22  2  0  0  0  0
 25 28  1  0  0  0  0
 26 30  1  0  0  0  0
 26 27  2  0  0  0  0
 27 29  1  0  0  0  0
 29 28  2  0  0  0  0
 29 24  1  0  0  0  0
 30 25  2  0  0  0  0
M  END
>  <MODEL>
4

>  <REMARK>
 VINA RESULT:      -6.9      5.574      8.506
  Name = 
  5 active torsions:
  status: ('A' for Active; 'I' for Inactive)
    1  A    between atoms: C_4  and  C_5
    2  A    between atoms: C_4  and  N_21
    3  A    between atoms: C_5  and  C_15
    4  A    between atoms: C_11  and  N_30
    5  A    between atoms: C_27  and  N_30
                            x       y       z     vdW  Elec       q    Type
                         _______ _______ _______ _____ _____    ______ ____

>  <TORSDO>
F 5

$$$$
=
 OpenBabel10222417013D

 30 33  0  0  1  0  0  0  0  0999 V2000
  192.1160  176.3940  134.5960 O   0  0  0  0  0  0  0  0  0  0  0  0
  188.8200  172.9880  135.0380 C   0  0  0  0  0  3  0  0  0  0  0  0
  187.0660  173.0690  136.6500 F   0  0  0  0  0  0  0  0  0  0  0  0
  190.1450  173.2580  134.6860 C   0  0  0  0  0  3  0  0  0  0  0  0
  194.1770  176.5160  137.0580 N   0  0  0  0  0  2  0  0  0  0  0  0
  188.3510  173.3270  136.3110 C   0  0  0  0  0  0  0  0  0  0  0  0
  193.3870  176.9870  139.1900 O   0  0  0  0  0  0  0  0  0  0  0  0
  191.7020  176.2330  137.6740 C   0  0  1  0  0  3  0  0  0  0  0  0
  190.5420  174.1880  136.8950 C   0  0  0  0  0  0  0  0  0  0  0  0
  192.8340  175.4970  135.1150 C   0  0  0  0  0  0  0  0  0  0  0  0
  193.1150  176.6040  138.0200 C   0  0  0  0  0  0  0  0  0  0  0  0
  189.2130  173.9180  137.2390 C   0  0  0  0  0  3  0  0  0  0  0  0
  195.2250  174.8880  135.4750 N   0  0  0  0  0  0  0  0  0  0  0  0
  191.4560  174.7580  137.9360 C   0  0  0  0  0  2  0  0  0  0  0  0
  191.0060  173.8740  135.5990 C   0  0  0  0  0  0  0  0  0  0  0  0
  195.2210  176.2250  134.8420 C   0  0  0  0  0  2  0  0  0  0  0  0
  194.1380  175.8610  135.7410 C   0  0  2  0  0  0  0  0  0  0  0  0
  192.3520  174.1560  135.2110 N   0  0  0  0  0  2  0  0  0  0  0  0
  196.2690  174.9270  136.4940 C   0  0  0  0  0  2  0  0  0  0  0  0
  196.3920  173.5690  137.1670 C   0  0  0  0  0  2  0  0  0  0  0  0
  195.8540  174.6530  139.2200 O   0  0  0  0  0  1  0  0  0  0  0  0
  195.7920  173.6030  138.5300 C   0  0  0  0  0  0  0  0  0  0  0  0
  195.1940  172.4650  139.0550 O   0  0  0  0  0  0  0  0  0  0  0  0
  190.7380  177.0440  138.4100 N   0  0  0  0  0  2  0  0  0  0  0  0
  187.2650  178.2670  138.1660 N   0  0  0  0  0  0  0  0  0  0  0  0
  188.1120  178.0470  135.9430 C   0  0  0  0  0  3  0  0  0  0  0  0
  189.3310  177.6030  136.4610 C   0  0  0  0  0  3  0  0  0  0  0  0
  188.4450  177.8390  138.6890 C   0  0  0  0  0  3  0  0  0  0  0  0
  189.5060  177.4980  137.8460 C   0  0  0  0  0  0  0  0  0  0  0  0
  187.0790  178.3780  136.8230 C   0  0  0  0  0  3  0  0  0  0  0  0
  1 10  2  0  0  0  0
  2  6  1  0  0  0  0
  4  2  2  0  0  0  0
  4 15  1  0  0  0  0
  5 11  1  0  0  0  0
  6  3  1  0  0  0  0
  6 12  2  0  0  0  0
  8 14  1  0  0  0  0
  8 11  1  0  0  0  0
  8 24  1  1  0  0  0
  9 12  1  0  0  0  0
  9 14  1  0  0  0  0
 10 18  1  0  0  0  0
 10 17  1  0  0  0  0
 11  7  2  0  0  0  0
 13 17  1  0  0  0  0
 13 19  1  0  0  0  0
 15  9  2  0  0  0  0
 16 13  1  0  0  0  0
 17 16  1  6  0  0  0
 17  5  1  0  0  0  0
 18 15  1  0  0  0  0
 19 20  1  0  0  0  0
 20 22  1  0  0  0  0
 22 23  2  0  0  0  0
 22 21  1  0  0  0  0
 25 28  1  0  0  0  0
 26 27  2  0  0  0  0
 26 30  1  0  0  0  0
 27 29  1  0  0  0  0
 29 24  1  0  0  0  0
 29 28  2  0  0  0  0
 30 25  2  0  0  0  0
M  END
>  <MODEL>
5

>  <REMARK>
 VINA RESULT:      -6.5      5.629      8.324
  Name = 
  5 active torsions:
  status: ('A' for Active; 'I' for Inactive)
    1  A    between atoms: C_4  and  C_5
    2  A    between atoms: C_4  and  N_21
    3  A    between atoms: C_5  and  C_15
    4  A    between atoms: C_11  and  N_30
    5  A    between atoms: C_27  and  N_30
                            x       y       z     vdW  Elec       q    Type
                         _______ _______ _______ _____ _____    ______ ____

>  <TORSDO>
F 5

$$$$
=
 OpenBabel10222417013D

 30 33  0  0  1  0  0  0  0  0999 V2000
  186.4710  179.9850  141.1500 O   0  0  0  0  0  0  0  0  0  0  0  0
  184.9730  178.4080  145.3840 C   0  0  0  0  0  3  0  0  0  0  0  0
  186.4410  177.9720  147.2100 F   0  0  0  0  0  0  0  0  0  0  0  0
  184.7260  178.4000  144.0080 C   0  0  0  0  0  3  0  0  0  0  0  0
  188.1420  177.8030  139.4840 N   0  0  0  0  0  2  0  0  0  0  0  0
  186.2010  177.9600  145.8770 C   0  0  0  0  0  0  0  0  0  0  0  0
  190.1380  176.9880  140.3450 O   0  0  0  0  0  0  0  0  0  0  0  0
  188.7160  177.9980  141.9780 C   0  0  1  0  0  3  0  0  0  0  0  0
  186.9370  177.4710  143.6180 C   0  0  0  0  0  0  0  0  0  0  0  0
  186.1860  178.8000  140.8250 C   0  0  0  0  0  0  0  0  0  0  0  0
  189.0460  177.5750  140.5760 C   0  0  0  0  0  0  0  0  0  0  0  0
  187.1770  177.4850  144.9970 C   0  0  0  0  0  3  0  0  0  0  0  0
  185.7690  177.3830  138.8150 N   0  0  0  0  0  0  0  0  0  0  0  0
  187.9770  176.8910  142.7100 C   0  0  0  0  0  2  0  0  0  0  0  0
  185.7070  177.9530  143.1190 C   0  0  0  0  0  0  0  0  0  0  0  0
  186.1710  178.7160  138.3160 C   0  0  0  0  0  2  0  0  0  0  0  0
  186.7350  178.2260  139.5620 C   0  0  2  0  0  0  0  0  0  0  0  0
  185.4390  177.9700  141.7150 N   0  0  0  0  0  2  0  0  0  0  0  0
  186.4300  176.4110  137.9510 C   0  0  0  0  0  2  0  0  0  0  0  0
  185.3940  175.5790  137.2140 C   0  0  0  0  0  2  0  0  0  0  0  0
  185.0900  173.2280  136.9730 O   0  0  0  0  0  1  0  0  0  0  0  0
  185.8950  174.1940  136.9890 C   0  0  0  0  0  0  0  0  0  0  0  0
  187.2550  173.9640  136.8310 O   0  0  0  0  0  0  0  0  0  0  0  0
  189.9120  178.3820  142.7190 N   0  0  0  0  0  2  0  0  0  0  0  0
  191.7860  175.6240  144.3000 N   0  0  0  0  0  0  0  0  0  0  0  0
  190.9680  177.0360  146.0450 C   0  0  0  0  0  3  0  0  0  0  0  0
  190.3780  177.8640  145.0870 C   0  0  0  0  0  3  0  0  0  0  0  0
  191.2220  176.4200  143.3520 C   0  0  0  0  0  3  0  0  0  0  0  0
  190.5050  177.5590  143.7260 C   0  0  0  0  0  0  0  0  0  0  0  0
  191.6760  175.9080  145.6270 C   0  0  0  0  0  3  0  0  0  0  0  0
  2  6  1  0  0  0  0
  4  2  2  0  0  0  0
  5 17  1  0  0  0  0
  5 11  1  0  0  0  0
  6  3  1  0  0  0  0
  7 11  2  0  0  0  0
  8 14  1  0  0  0  0
  8 24  1  1  0  0  0
  9 12  1  0  0  0  0
 10  1  2  0  0  0  0
 10 18  1  0  0  0  0
 11  8  1  0  0  0  0
 12  6  2  0  0  0  0
 13 17  1  0  0  0  0
 14  9  1  0  0  0  0
 15  9  2  0  0  0  0
 15  4  1  0  0  0  0
 16 13  1  0  0  0  0
 17 16  1  6  0  0  0
 17 10  1  0  0  0  0
 18 15  1  0  0  0  0
 19 13  1  0  0  0  0
 20 19  1  0  0  0  0
 21 22  1  0  0  0  0
 22 20  1  0  0  0  0
 23 22  2  0  0  0  0
 24 29  1  0  0  0  0
 25 30  1  0  0  0  0
 27 26  1  0  0  0  0
 28 29  1  0  0  0  0
 28 25  2  0  0  0  0
 29 27  2  0  0  0  0
 30 26  2  0  0  0  0
M  END
>  <MODEL>
6

>  <REMARK>
 VINA RESULT:      -6.5      1.933      2.246
  Name = 
  5 active torsions:
  status: ('A' for Active; 'I' for Inactive)
    1  A    between atoms: C_4  and  C_5
    2  A    between atoms: C_4  and  N_21
    3  A    between atoms: C_5  and  C_15
    4  A    between atoms: C_11  and  N_30
    5  A    between atoms: C_27  and  N_30
                            x       y       z     vdW  Elec       q    Type
                         _______ _______ _______ _____ _____    ______ ____

>  <TORSDO>
F 5

$$$$
=
 OpenBabel10222417013D

 30 33  0  0  1  0  0  0  0  0999 V2000
  188.8640  179.5760  142.1380 O   0  0  0  0  0  0  0  0  0  0  0  0
  184.7820  179.1340  144.5450 C   0  0  0  0  0  3  0  0  0  0  0  0
  184.6540  178.2260  146.7450 F   0  0  0  0  0  0  0  0  0  0  0  0
  185.3660  179.1370  143.2750 C   0  0  0  0  0  3  0  0  0  0  0  0
  190.1240  176.7670  141.2160 N   0  0  0  0  0  2  0  0  0  0  0  0
  185.2180  178.2260  145.5140 C   0  0  0  0  0  0  0  0  0  0  0  0
  190.7630  175.2170  142.8220 O   0  0  0  0  0  0  0  0  0  0  0  0
  189.2300  176.8660  143.6200 C   0  0  1  0  0  3  0  0  0  0  0  0
  186.8120  177.3000  143.9370 C   0  0  0  0  0  0  0  0  0  0  0  0
  188.3610  178.6200  141.4890 C   0  0  0  0  0  0  0  0  0  0  0  0
  190.0800  176.2410  142.5520 C   0  0  0  0  0  0  0  0  0  0  0  0
  186.2250  177.3060  145.2070 C   0  0  0  0  0  3  0  0  0  0  0  0
  188.6050  177.3930  139.3310 N   0  0  0  0  0  0  0  0  0  0  0  0
  187.8390  176.2570  143.6210 C   0  0  0  0  0  2  0  0  0  0  0  0
  186.3930  178.2390  142.9700 C   0  0  0  0  0  0  0  0  0  0  0  0
  189.7120  178.3710  139.3880 C   0  0  0  0  0  2  0  0  0  0  0  0
  189.2300  177.7730  140.6210 C   0  0  2  0  0  0  0  0  0  0  0  0
  186.9870  178.2720  141.6700 N   0  0  0  0  0  2  0  0  0  0  0  0
  189.1730  176.1700  138.7750 C   0  0  0  0  0  2  0  0  0  0  0  0
  188.3020  175.6590  137.6390 C   0  0  0  0  0  2  0  0  0  0  0  0
  189.3780  177.0430  136.0240 O   0  0  0  0  0  1  0  0  0  0  0  0
  188.2930  176.6290  136.5080 C   0  0  0  0  0  0  0  0  0  0  0  0
  187.0880  177.1040  136.0090 O   0  0  0  0  0  0  0  0  0  0  0  0
  189.8400  176.7340  144.9380 N   0  0  0  0  0  2  0  0  0  0  0  0
  188.4430  179.0910  147.4100 N   0  0  0  0  0  0  0  0  0  0  0  0
  188.2740  176.8920  148.3300 C   0  0  0  0  0  3  0  0  0  0  0  0
  188.8600  176.3720  147.1750 C   0  0  0  0  0  3  0  0  0  0  0  0
  189.0120  178.6030  146.2750 C   0  0  0  0  0  3  0  0  0  0  0  0
  189.2340  177.2310  146.1330 C   0  0  0  0  0  0  0  0  0  0  0  0
  188.0700  178.2700  148.4300 C   0  0  0  0  0  3  0  0  0  0  0  0
  2  6  1  0  0  0  0
  4  2  2  0  0  0  0
  5 11  1  0  0  0  0
  6  3  1  0  0  0  0
  8 14  1  0  0  0  0
  8 24  1  1  0  0  0
  9 12  1  0  0  0  0
 10 18  1  0  0  0  0
 10  1  2  0  0  0  0
 11  7  2  0  0  0  0
 11  8  1  0  0  0  0
 12  6  2  0  0  0  0
 13 16  1  0  0  0  0
 13 17  1  0  0  0  0
 14  9  1  0  0  0  0
 15  4  1  0  0  0  0
 15  9  2  0  0  0  0
 17 16  1  6  0  0  0
 17  5  1  0  0  0  0
 17 10  1  0  0  0  0
 18 15  1  0  0  0  0
 19 13  1  0  0  0  0
 20 19  1  0  0  0  0
 21 22  1  0  0  0  0
 22 20  1  0  0  0  0
 23 22  2  0  0  0  0
 24 29  1  0  0  0  0
 25 30  1  0  0  0  0
 26 30  2  0  0  0  0
 27 26  1  0  0  0  0
 28 25  2  0  0  0  0
 29 28  1  0  0  0  0
 29 27  2  0  0  0  0
M  END
>  <MODEL>
7

>  <REMARK>
 VINA RESULT:      -6.4      1.727      2.070
  Name = 
  5 active torsions:
  status: ('A' for Active; 'I' for Inactive)
    1  A    between atoms: C_4  and  C_5
    2  A    between atoms: C_4  and  N_21
    3  A    between atoms: C_5  and  C_15
    4  A    between atoms: C_11  and  N_30
    5  A    between atoms: C_27  and  N_30
                            x       y       z     vdW  Elec       q    Type
                         _______ _______ _______ _____ _____    ______ ____

>  <TORSDO>
F 5

$$$$
=
 OpenBabel10222417013D

 30 33  0  0  1  0  0  0  0  0999 V2000
  183.8600  180.5730  144.0860 O   0  0  0  0  0  0  0  0  0  0  0  0
  186.7230  178.1590  147.0240 C   0  0  0  0  0  3  0  0  0  0  0  0
  189.0230  177.7400  146.5560 F   0  0  0  0  0  0  0  0  0  0  0  0
  185.4090  178.3040  146.5720 C   0  0  0  0  0  3  0  0  0  0  0  0
  183.1770  178.9940  141.3710 N   0  0  0  0  0  2  0  0  0  0  0  0
  187.7480  177.8770  146.1170 C   0  0  0  0  0  0  0  0  0  0  0  0
  184.8920  178.4420  139.9070 O   0  0  0  0  0  0  0  0  0  0  0  0
  185.6300  178.9300  142.1260 C   0  0  1  0  0  3  0  0  0  0  0  0
  186.1440  177.8580  144.2990 C   0  0  0  0  0  0  0  0  0  0  0  0
  183.3960  179.4160  143.9000 C   0  0  0  0  0  0  0  0  0  0  0  0
  184.5660  178.7800  141.0770 C   0  0  0  0  0  0  0  0  0  0  0  0
  187.4570  177.7180  144.7590 C   0  0  0  0  0  3  0  0  0  0  0  0
  181.4000  178.2490  142.9640 N   0  0  0  0  0  0  0  0  0  0  0  0
  185.8570  177.6140  142.8490 C   0  0  0  0  0  2  0  0  0  0  0  0
  185.1140  178.1750  145.2110 C   0  0  0  0  0  0  0  0  0  0  0  0
  181.2130  179.6900  142.6910 C   0  0  0  0  0  2  0  0  0  0  0  0
  182.5560  179.1380  142.6980 C   0  0  2  0  0  0  0  0  0  0  0  0
  183.7650  178.3440  144.7690 N   0  0  0  0  0  2  0  0  0  0  0  0
  180.9480  177.5480  141.7670 C   0  0  0  0  0  2  0  0  0  0  0  0
  179.4660  177.8020  141.5420 C   0  0  0  0  0  2  0  0  0  0  0  0
  178.9360  179.1650  139.6610 O   0  0  0  0  0  1  0  0  0  0  0  0
  179.1830  178.0100  140.0940 C   0  0  0  0  0  0  0  0  0  0  0  0
  179.1580  176.9260  139.2280 O   0  0  0  0  0  0  0  0  0  0  0  0
  186.8820  179.4150  141.5570 N   0  0  0  0  0  2  0  0  0  0  0  0
  188.9670  177.1500  139.5220 N   0  0  0  0  0  0  0  0  0  0  0  0
  190.0310  177.4010  141.6470 C   0  0  0  0  0  3  0  0  0  0  0  0
  189.0020  178.2530  142.0520 C   0  0  0  0  0  3  0  0  0  0  0  0
  187.9570  177.9800  139.8980 C   0  0  0  0  0  3  0  0  0  0  0  0
  187.9530  178.5510  141.1740 C   0  0  0  0  0  0  0  0  0  0  0  0
  189.9950  176.8530  140.3620 C   0  0  0  0  0  3  0  0  0  0  0  0
  4  2  1  0  0  0  0
  5 17  1  0  0  0  0
  6  3  1  0  0  0  0
  6  2  2  0  0  0  0
  7 11  2  0  0  0  0
  8 24  1  6  0  0  0
  8 14  1  0  0  0  0
  9 12  2  0  0  0  0
  9 15  1  0  0  0  0
 10  1  2  0  0  0  0
 10 18  1  0  0  0  0
 11  5  1  0  0  0  0
 11  8  1  0  0  0  0
 12  6  1  0  0  0  0
 14  9  1  0  0  0  0
 15  4  2  0  0  0  0
 16 13  1  0  0  0  0
 17 16  1  6  0  0  0
 17 13  1  0  0  0  0
 17 10  1  0  0  0  0
 18 15  1  0  0  0  0
 19 13  1  0  0  0  0
 20 19  1  0  0  0  0
 21 22  1  0  0  0  0
 22 20  1  0  0  0  0
 23 22  2  0  0  0  0
 25 28  2  0  0  0  0
 25 30  1  0  0  0  0
 26 27  1  0  0  0  0
 28 29  1  0  0  0  0
 29 24  1  0  0  0  0
 29 27  2  0  0  0  0
 30 26  2  0  0  0  0
M  END
>  <MODEL>
8

>  <REMARK>
 VINA RESULT:      -6.3      3.878      6.831
  Name = 
  5 active torsions:
  status: ('A' for Active; 'I' for Inactive)
    1  A    between atoms: C_4  and  C_5
    2  A    between atoms: C_4  and  N_21
    3  A    between atoms: C_5  and  C_15
    4  A    between atoms: C_11  and  N_30
    5  A    between atoms: C_27  and  N_30
                            x       y       z     vdW  Elec       q    Type
                         _______ _______ _______ _____ _____    ______ ____

>  <TORSDO>
F 5

$$$$
=
 OpenBabel10222417013D

 30 33  0  0  1  0  0  0  0  0999 V2000
  189.4710  175.2530  141.8530 O   0  0  0  0  0  0  0  0  0  0  0  0
  192.0490  176.3980  145.6870 C   0  0  0  0  0  3  0  0  0  0  0  0
  191.0860  176.8650  147.8170 F   0  0  0  0  0  0  0  0  0  0  0  0
  191.9810  176.4680  144.2930 C   0  0  0  0  0  3  0  0  0  0  0  0
  187.7280  177.6950  140.7000 N   0  0  0  0  0  2  0  0  0  0  0  0
  191.0200  176.9360  146.4660 C   0  0  0  0  0  0  0  0  0  0  0  0
  186.0820  178.6520  142.0270 O   0  0  0  0  0  0  0  0  0  0  0  0
  187.7090  177.4020  143.2500 C   0  0  1  0  0  3  0  0  0  0  0  0
  189.8580  177.6400  144.4570 C   0  0  0  0  0  0  0  0  0  0  0  0
  189.8080  176.4200  141.5170 C   0  0  0  0  0  0  0  0  0  0  0  0
  187.1230  177.9440  141.9780 C   0  0  0  0  0  0  0  0  0  0  0  0
  189.9330  177.5630  145.8520 C   0  0  0  0  0  3  0  0  0  0  0  0
  189.9230  177.9120  139.5210 N   0  0  0  0  0  0  0  0  0  0  0  0
  188.7140  178.3790  143.8350 C   0  0  0  0  0  2  0  0  0  0  0  0
  190.8820  177.0680  143.6710 C   0  0  0  0  0  0  0  0  0  0  0  0
  189.2710  176.6620  139.0760 C   0  0  0  0  0  2  0  0  0  0  0  0
  189.0600  177.1270  140.4360 C   0  0  2  0  0  0  0  0  0  0  0  0
  190.8250  177.1130  142.2430 N   0  0  0  0  0  2  0  0  0  0  0  0
  189.2000  178.9990  138.8700 C   0  0  0  0  0  2  0  0  0  0  0  0
  189.1700  178.7780  137.3660 C   0  0  0  0  0  2  0  0  0  0  0  0
  187.5390  178.2560  135.7090 O   0  0  0  0  0  0  0  0  0  0  0  0
  187.7670  178.6530  136.8810 C   0  0  0  0  0  0  0  0  0  0  0  0
  186.7110  179.0070  137.7090 O   0  0  0  0  0  1  0  0  0  0  0  0
  186.6740  177.0950  144.2300 N   0  0  0  0  0  2  0  0  0  0  0  0
  185.4640  179.7260  146.5180 N   0  0  0  0  0  0  0  0  0  0  0  0
  186.8850  178.2720  147.7740 C   0  0  0  0  0  3  0  0  0  0  0  0
  187.0970  177.5030  146.6280 C   0  0  0  0  0  3  0  0  0  0  0  0
  185.6550  178.9880  145.3920 C   0  0  0  0  0  3  0  0  0  0  0  0
  186.4770  177.8580  145.4230 C   0  0  0  0  0  0  0  0  0  0  0  0
  186.0550  179.3930  147.6980 C   0  0  0  0  0  3  0  0  0  0  0  0
  2  6  1  0  0  0  0
  4  2  2  0  0  0  0
  5 11  1  0  0  0  0
  6  3  1  0  0  0  0
  8 14  1  0  0  0  0
  8 24  1  1  0  0  0
  9 12  1  0  0  0  0
 10  1  2  0  0  0  0
 10 18  1  0  0  0  0
 11  7  2  0  0  0  0
 11  8  1  0  0  0  0
 12  6  2  0  0  0  0
 13 17  1  0  0  0  0
 14  9  1  0  0  0  0
 15  4  1  0  0  0  0
 15  9  2  0  0  0  0
 16 13  1  0  0  0  0
 17 16  1  6  0  0  0
 17  5  1  0  0  0  0
 17 10  1  0  0  0  0
 18 15  1  0  0  0  0
 19 13  1  0  0  0  0
 20 19  1  0  0  0  0
 21 22  2  0  0  0  0
 22 20  1  0  0  0  0
 22 23  1  0  0  0  0
 24 29  1  0  0  0  0
 25 30  1  0  0  0  0
 27 26  1  0  0  0  0
 28 29  1  0  0  0  0
 28 25  2  0  0  0  0
 29 27  2  0  0  0  0
 30 26  2  0  0  0  0
M  END
>  <MODEL>
9

>  <REMARK>
 VINA RESULT:      -6.2      2.447      4.636
  Name = 
  5 active torsions:
  status: ('A' for Active; 'I' for Inactive)
    1  A    between atoms: C_4  and  C_5
    2  A    between atoms: C_4  and  N_21
    3  A    between atoms: C_5  and  C_15
    4  A    between atoms: C_11  and  N_30
    5  A    between atoms: C_27  and  N_30
                            x       y       z     vdW  Elec       q    Type
                         _______ _______ _______ _____ _____    ______ ____

>  <TORSDO>
F 5

$$$$
