=
 OpenBabel10222415483D

 31 31  0  0  1  0  0  0  0  0999 V2000
  191.0890  176.6880  139.6850 C   0  0  0  0  0  3  0  0  0  0  0  0
  189.0710  177.9190  140.1790 C   0  0  0  0  0  3  0  0  0  0  0  0
  189.4670  177.7770  136.4910 N   0  0  0  0  0  1  0  0  0  0  0  0
  189.7580  177.5960  137.8740 C   0  0  0  0  0  0  0  0  0  0  0  0
  190.1880  177.2060  140.6170 C   0  0  0  0  0  0  0  0  0  0  0  0
  190.8960  176.8690  138.3070 C   0  0  0  0  0  0  0  0  0  0  0  0
  188.8600  178.1130  138.8140 C   0  0  0  0  0  3  0  0  0  0  0  0
  190.4340  176.9110  142.3310 S   0  0  0  0  0  0  0  0  0  0  0  0
  191.8620  177.2140  142.6880 O   0  0  0  0  0  0  0  0  0  0  0  0
  190.1600  175.4640  142.6380 O   0  0  0  0  0  0  0  0  0  0  0  0
  189.3870  177.9270  143.2670 N   0  0  0  0  0  2  0  0  0  0  0  0
  188.3100  177.1050  143.8040 C   0  0  1  0  0  3  0  0  0  0  0  0
  188.1460  177.3770  145.2920 C   0  0  0  0  0  2  0  0  0  0  0  0
  189.4630  177.8080  145.9170 C   0  0  0  0  0  2  0  0  0  0  0  0
  189.6450  177.1690  147.2830 C   0  0  0  0  0  2  0  0  0  0  0  0
  191.7120  176.5460  146.0360 C   0  0  0  0  0  1  0  0  0  0  0  0
  190.9940  176.4770  147.3700 C   0  0  0  0  0  2  0  0  0  0  0  0
  187.0670  177.3700  143.0860 N   0  0  0  0  0  2  0  0  0  0  0  0
  184.9060  178.3570  142.9630 C   0  0  0  0  0  2  0  0  0  0  0  0
  185.9640  178.0410  143.6910 C   0  0  0  0  0  3  0  0  0  0  0  0
  193.1830  176.5920  137.4620 C   0  0  0  0  0  3  0  0  0  0  0  0
  191.8840  176.2580  137.3730 C   0  0  0  0  0  0  0  0  0  0  0  0
  194.2600  176.0720  136.6660 N   0  0  0  0  0  2  0  0  0  0  0  0
  194.9130  174.7830  136.8300 C   0  0  0  0  0  2  0  0  0  0  0  0
  195.0580  174.4760  138.3050 C   0  0  0  0  0  1  0  0  0  0  0  0
  191.3930  175.2510  136.3760 C   0  0  0  0  0  2  0  0  0  0  0  0
  191.3780  173.8620  136.9950 C   0  0  0  0  0  2  0  0  0  0  0  0
  190.0790  173.5580  137.4820 O   0  0  0  0  0  0  0  0  0  0  0  0
  188.9390  173.7250  136.6960 C   0  0  0  0  0  0  0  0  0  0  0  0
  187.9860  174.6840  137.0190 O   0  0  0  0  0  1  0  0  0  0  0  0
  188.7660  172.9940  135.6870 O   0  0  0  0  0  0  0  0  0  0  0  0
  1  5  1  0  0  0  0
  2  5  2  0  0  0  0
  3  4  1  0  0  0  0
  4  6  1  0  0  0  0
  4  7  2  0  0  0  0
  5  8  1  0  0  0  0
  6  1  2  0  0  0  0
  7  2  1  0  0  0  0
  8 10  2  0  0  0  0
  8  9  2  0  0  0  0
  8 11  1  0  0  0  0
 11 12  1  0  0  0  0
 12 13  1  1  0  0  0
 13 14  1  0  0  0  0
 14 15  1  0  0  0  0
 15 17  1  0  0  0  0
 16 17  1  0  0  0  0
 18 20  1  0  0  0  0
 18 12  1  0  0  0  0
 19 20  2  0  0  0  0
 22 21  2  0  0  0  0
 22  6  1  0  0  0  0
 23 24  1  0  0  0  0
 23 21  1  0  0  0  0
 24 25  1  0  0  0  0
 26 27  1  0  0  0  0
 26 22  1  0  0  0  0
 27 28  1  0  0  0  0
 29 30  1  0  0  0  0
 29 28  1  0  0  0  0
 31 29  2  0  0  0  0
M  END
>  <MODEL>
1

>  <REMARK>
 VINA RESULT:      -6.3      0.000      0.000
  Name = 
  16 active torsions:
  status: ('A' for Active; 'I' for Inactive)
    1  A    between atoms: C_1  and  N_7
    2  A    between atoms: C_2  and  O_8
    3  A    between atoms: C_3  and  O_8
    4  A    between atoms: C_3  and  C_28
    5  A    between atoms: C_4  and  C_25
    6  A    between atoms: C_4  and  C_26
    7  A    between atoms: S_6  and  N_16
    8  A    between atoms: S_6  and  C_21
    9  A    between atoms: N_7  and  C_11
   10  A    between atoms: C_9  and  C_15
   11  A    between atoms: C_9  and  N_16
   12  A    between atoms: C_9  and  N_29
   13  A    between atoms: C_14  and  C_27
   14  A    between atoms: C_14  and  C_28
   15  A    between atoms: C_15  and  C_25
   16  A    between atoms: N_29  and  C_30
                            x       y       z     vdW  Elec       q    Type
                         _______ _______ _______ _____ _____    ______ ____

>  <TORSDO>
F 16

$$$$
=
 OpenBabel10222415483D

 31 31  0  0  1  0  0  0  0  0999 V2000
  185.3080  178.0810  142.9530 C   0  0  0  0  0  3  0  0  0  0  0  0
  183.2090  179.1810  143.4130 C   0  0  0  0  0  3  0  0  0  0  0  0
  185.0720  178.8580  146.6080 N   0  0  0  0  0  1  0  0  0  0  0  0
  184.7580  178.7240  145.2250 C   0  0  0  0  0  0  0  0  0  0  0  0
  184.0930  178.5990  142.5040 C   0  0  0  0  0  0  0  0  0  0  0  0
  185.6650  178.1310  144.3100 C   0  0  0  0  0  0  0  0  0  0  0  0
  183.5410  179.2410  144.7670 C   0  0  0  0  0  3  0  0  0  0  0  0
  183.7070  178.5670  140.7900 S   0  0  0  0  0  0  0  0  0  0  0  0
  182.3950  179.2630  140.5630 O   0  0  0  0  0  0  0  0  0  0  0  0
  183.5800  177.1420  140.3280 O   0  0  0  0  0  0  0  0  0  0  0  0
  184.9430  179.3790  139.8860 N   0  0  0  0  0  2  0  0  0  0  0  0
  185.7800  178.3720  139.2460 C   0  0  1  0  0  3  0  0  0  0  0  0
  185.5250  178.3680  137.7450 C   0  0  0  0  0  2  0  0  0  0  0  0
  185.3670  176.9500  137.2210 C   0  0  0  0  0  2  0  0  0  0  0  0
  186.5380  176.5720  136.3300 C   0  0  0  0  0  2  0  0  0  0  0  0
  188.7400  177.6690  135.9260 C   0  0  0  0  0  1  0  0  0  0  0  0
  187.2350  177.8170  135.8130 C   0  0  0  0  0  2  0  0  0  0  0  0
  187.1870  178.6280  139.5340 N   0  0  0  0  0  2  0  0  0  0  0  0
  189.4350  177.8490  139.5240 C   0  0  0  0  0  2  0  0  0  0  0  0
  188.1460  177.5800  139.6500 C   0  0  0  0  0  3  0  0  0  0  0  0
  187.3840  177.6430  145.9920 C   0  0  0  0  0  3  0  0  0  0  0  0
  186.9930  177.5850  144.7070 C   0  0  0  0  0  0  0  0  0  0  0  0
  188.6100  177.1360  146.5410 N   0  0  0  0  0  2  0  0  0  0  0  0
  189.3000  177.6320  147.7210 C   0  0  0  0  0  2  0  0  0  0  0  0
  188.2960  177.8790  148.8260 C   0  0  0  0  0  1  0  0  0  0  0  0
  187.8460  176.9460  143.6500 C   0  0  0  0  0  2  0  0  0  0  0  0
  188.9940  177.8700  143.2730 C   0  0  0  0  0  2  0  0  0  0  0  0
  190.1880  177.4540  143.9200 O   0  0  0  0  0  0  0  0  0  0  0  0
  191.2460  176.8780  143.2170 C   0  0  0  0  0  0  0  0  0  0  0  0
  191.8460  175.7080  143.6670 O   0  0  0  0  0  1  0  0  0  0  0  0
  191.6680  177.4290  142.1670 O   0  0  0  0  0  0  0  0  0  0  0  0
  1  6  1  0  0  0  0
  2  7  2  0  0  0  0
  4  3  1  0  0  0  0
  5  1  2  0  0  0  0
  5  2  1  0  0  0  0
  6 22  1  0  0  0  0
  6  4  2  0  0  0  0
  7  4  1  0  0  0  0
  8  5  1  0  0  0  0
  9  8  2  0  0  0  0
 10  8  2  0  0  0  0
 11  8  1  0  0  0  0
 12 13  1  6  0  0  0
 12 18  1  0  0  0  0
 12 11  1  0  0  0  0
 14 13  1  0  0  0  0
 15 14  1  0  0  0  0
 17 16  1  0  0  0  0
 17 15  1  0  0  0  0
 18 20  1  0  0  0  0
 19 20  2  0  0  0  0
 21 23  1  0  0  0  0
 22 21  2  0  0  0  0
 23 24  1  0  0  0  0
 24 25  1  0  0  0  0
 26 22  1  0  0  0  0
 27 26  1  0  0  0  0
 27 28  1  0  0  0  0
 29 30  1  0  0  0  0
 29 28  1  0  0  0  0
 31 29  2  0  0  0  0
M  END
>  <MODEL>
2

>  <REMARK>
 VINA RESULT:      -6.3      4.056      8.737
  Name = 
  16 active torsions:
  status: ('A' for Active; 'I' for Inactive)
    1  A    between atoms: C_1  and  N_7
    2  A    between atoms: C_2  and  O_8
    3  A    between atoms: C_3  and  O_8
    4  A    between atoms: C_3  and  C_28
    5  A    between atoms: C_4  and  C_25
    6  A    between atoms: C_4  and  C_26
    7  A    between atoms: S_6  and  N_16
    8  A    between atoms: S_6  and  C_21
    9  A    between atoms: N_7  and  C_11
   10  A    between atoms: C_9  and  C_15
   11  A    between atoms: C_9  and  N_16
   12  A    between atoms: C_9  and  N_29
   13  A    between atoms: C_14  and  C_27
   14  A    between atoms: C_14  and  C_28
   15  A    between atoms: C_15  and  C_25
   16  A    between atoms: N_29  and  C_30
                            x       y       z     vdW  Elec       q    Type
                         _______ _______ _______ _____ _____    ______ ____

>  <TORSDO>
F 16

$$$$
=
 OpenBabel10222415483D

 31 31  0  0  1  0  0  0  0  0999 V2000
  190.1030  176.8710  140.8550 C   0  0  0  0  0  3  0  0  0  0  0  0
  188.5250  178.2730  142.0270 C   0  0  0  0  0  3  0  0  0  0  0  0
  187.6090  178.2540  138.4300 N   0  0  0  0  0  1  0  0  0  0  0  0
  188.3360  177.9840  139.6250 C   0  0  0  0  0  0  0  0  0  0  0  0
  189.6400  177.4340  142.0450 C   0  0  0  0  0  0  0  0  0  0  0  0
  189.4680  177.1300  139.6300 C   0  0  0  0  0  0  0  0  0  0  0  0
  187.8790  178.5460  140.8210 C   0  0  0  0  0  3  0  0  0  0  0  0
  190.4280  177.0400  143.5650 S   0  0  0  0  0  0  0  0  0  0  0  0
  191.1720  178.2460  144.0660 O   0  0  0  0  0  0  0  0  0  0  0  0
  191.4130  175.9250  143.3490 O   0  0  0  0  0  0  0  0  0  0  0  0
  189.2470  176.5730  144.7450 N   0  0  0  0  0  2  0  0  0  0  0  0
  189.3890  177.4410  145.9060 C   0  0  1  0  0  3  0  0  0  0  0  0
  188.0330  178.0190  146.2870 C   0  0  0  0  0  2  0  0  0  0  0  0
  186.9360  177.4840  145.3800 C   0  0  0  0  0  2  0  0  0  0  0  0
  185.6200  178.1920  145.6530 C   0  0  0  0  0  2  0  0  0  0  0  0
  183.5240  179.0030  144.5740 C   0  0  0  0  0  1  0  0  0  0  0  0
  184.9810  178.6450  144.3520 C   0  0  0  0  0  2  0  0  0  0  0  0
  189.9710  176.7020  147.0210 N   0  0  0  0  0  2  0  0  0  0  0  0
  192.1220  175.6870  147.0030 C   0  0  0  0  0  2  0  0  0  0  0  0
  191.3670  176.7280  147.3090 C   0  0  0  0  0  3  0  0  0  0  0  0
  189.3890  175.3770  137.9150 C   0  0  0  0  0  3  0  0  0  0  0  0
  190.0030  176.4670  138.4080 C   0  0  1  0  0  3  0  0  0  0  0  0
  189.7550  174.6460  136.7340 N   0  0  0  0  0  0  0  0  0  0  0  0
  188.9130  173.7180  135.9960 C   0  0  0  0  0  2  0  0  0  0  0  0
  188.2100  172.7940  136.9660 C   0  0  0  0  0  1  0  0  0  0  0  0
  191.2040  177.0680  137.7390 C   0  0  0  0  0  2  0  0  0  0  0  0
  192.4740  176.3970  138.2390 C   0  0  0  0  0  2  0  0  0  0  0  0
  193.5910  176.8390  137.4810 O   0  0  0  0  0  0  0  0  0  0  0  0
  194.1720  176.0450  136.4910 C   0  0  0  0  0  0  0  0  0  0  0  0
  195.4080  175.4450  136.6960 O   0  0  0  0  0  1  0  0  0  0  0  0
  193.5730  175.8780  135.3970 O   0  0  0  0  0  0  0  0  0  0  0  0
  1  5  1  0  0  0  0
  2  5  2  0  0  0  0
  3  4  1  0  0  0  0
  4  6  1  0  0  0  0
  4  7  2  0  0  0  0
  5  8  1  0  0  0  0
  6  1  2  0  0  0  0
  7  2  1  0  0  0  0
  8  9  2  0  0  0  0
  8 11  1  0  0  0  0
 10  8  2  0  0  0  0
 11 12  1  0  0  0  0
 12 13  1  1  0  0  0
 12 18  1  0  0  0  0
 14 15  1  0  0  0  0
 14 13  1  0  0  0  0
 17 16  1  0  0  0  0
 17 15  1  0  0  0  0
 18 20  1  0  0  0  0
 19 20  2  0  0  0  0
 21 22  1  0  0  0  0
 22 26  1  6  0  0  0
 22  6  1  0  0  0  0
 23 21  2  0  0  0  0
 24 23  1  0  0  0  0
 24 25  1  0  0  0  0
 26 27  1  0  0  0  0
 28 27  1  0  0  0  0
 29 30  1  0  0  0  0
 29 28  1  0  0  0  0
 31 29  2  0  0  0  0
M  END
>  <MODEL>
3

>  <REMARK>
 VINA RESULT:      -6.3      2.416      4.524
  Name = 
  16 active torsions:
  status: ('A' for Active; 'I' for Inactive)
    1  A    between atoms: C_1  and  N_7
    2  A    between atoms: C_2  and  O_8
    3  A    between atoms: C_3  and  O_8
    4  A    between atoms: C_3  and  C_28
    5  A    between atoms: C_4  and  C_25
    6  A    between atoms: C_4  and  C_26
    7  A    between atoms: S_6  and  N_16
    8  A    between atoms: S_6  and  C_21
    9  A    between atoms: N_7  and  C_11
   10  A    between atoms: C_9  and  C_15
   11  A    between atoms: C_9  and  N_16
   12  A    between atoms: C_9  and  N_29
   13  A    between atoms: C_14  and  C_27
   14  A    between atoms: C_14  and  C_28
   15  A    between atoms: C_15  and  C_25
   16  A    between atoms: N_29  and  C_30
                            x       y       z     vdW  Elec       q    Type
                         _______ _______ _______ _____ _____    ______ ____

>  <TORSDO>
F 16

$$$$
=
 OpenBabel10222415483D

 31 31  0  0  1  0  0  0  0  0999 V2000
  186.6590  177.9620  144.4110 C   0  0  0  0  0  3  0  0  0  0  0  0
  185.3380  178.4390  146.3750 C   0  0  0  0  0  3  0  0  0  0  0  0
  188.7420  177.4510  147.4800 N   0  0  0  0  0  1  0  0  0  0  0  0
  187.6440  177.7180  146.6130 C   0  0  0  0  0  0  0  0  0  0  0  0
  185.4520  178.3610  144.9860 C   0  0  0  0  0  0  0  0  0  0  0  0
  187.7710  177.6350  145.2020 C   0  0  0  0  0  0  0  0  0  0  0  0
  186.4300  178.1170  147.1820 C   0  0  0  0  0  3  0  0  0  0  0  0
  184.1000  178.8160  143.9610 S   0  0  0  0  0  0  0  0  0  0  0  0
  184.1450  180.2960  143.7070 O   0  0  0  0  0  0  0  0  0  0  0  0
  182.8070  178.4880  144.6550 O   0  0  0  0  0  0  0  0  0  0  0  0
  184.1930  177.9770  142.4470 N   0  0  0  0  0  2  0  0  0  0  0  0
  183.8310  178.9060  141.3840 C   0  0  1  0  0  3  0  0  0  0  0  0
  184.9190  178.9230  140.3200 C   0  0  0  0  0  2  0  0  0  0  0  0
  184.3190  178.8930  138.9240 C   0  0  0  0  0  2  0  0  0  0  0  0
  185.1350  177.9980  138.0060 C   0  0  0  0  0  2  0  0  0  0  0  0
  187.3730  178.3350  136.9610 C   0  0  0  0  0  1  0  0  0  0  0  0
  186.6190  178.1820  138.2680 C   0  0  0  0  0  2  0  0  0  0  0  0
  182.5430  178.5350  140.8060 N   0  0  0  0  0  2  0  0  0  0  0  0
  180.4150  179.5880  140.6660 C   0  0  0  0  0  2  0  0  0  0  0  0
  181.3030  178.9260  141.3890 C   0  0  0  0  0  3  0  0  0  0  0  0
  189.0030  176.3540  143.5100 C   0  0  0  0  0  3  0  0  0  0  0  0
  189.0340  177.2480  144.5130 C   0  0  0  0  0  0  0  0  0  0  0  0
  190.1190  175.9030  142.7270 N   0  0  0  0  0  2  0  0  0  0  0  0
  190.5740  176.4660  141.4660 C   0  0  0  0  0  2  0  0  0  0  0  0
  189.4500  177.2560  140.8320 C   0  0  0  0  0  1  0  0  0  0  0  0
  190.3110  177.9070  144.9450 C   0  0  0  0  0  2  0  0  0  0  0  0
  191.3710  176.8570  145.2410 C   0  0  0  0  0  2  0  0  0  0  0  0
  191.8590  177.0130  146.5650 O   0  0  0  0  0  0  0  0  0  0  0  0
  192.1160  175.9190  147.3910 C   0  0  0  0  0  0  0  0  0  0  0  0
  193.3750  175.7290  147.9480 O   0  0  0  0  0  1  0  0  0  0  0  0
  191.2010  175.0890  147.6270 O   0  0  0  0  0  0  0  0  0  0  0  0
  1  5  2  0  0  0  0
  1  6  1  0  0  0  0
  2  7  2  0  0  0  0
  4  7  1  0  0  0  0
  4  3  1  0  0  0  0
  5  2  1  0  0  0  0
  6  4  2  0  0  0  0
  8 10  2  0  0  0  0
  8  5  1  0  0  0  0
  9  8  2  0  0  0  0
 11  8  1  0  0  0  0
 12 13  1  6  0  0  0
 12 11  1  0  0  0  0
 14 13  1  0  0  0  0
 15 17  1  0  0  0  0
 15 14  1  0  0  0  0
 16 17  1  0  0  0  0
 18 12  1  0  0  0  0
 18 20  1  0  0  0  0
 19 20  2  0  0  0  0
 21 22  2  0  0  0  0
 22 26  1  0  0  0  0
 22  6  1  0  0  0  0
 23 21  1  0  0  0  0
 24 23  1  0  0  0  0
 25 24  1  0  0  0  0
 26 27  1  0  0  0  0
 27 28  1  0  0  0  0
 28 29  1  0  0  0  0
 29 31  2  0  0  0  0
 29 30  1  0  0  0  0
M  END
>  <MODEL>
4

>  <REMARK>
 VINA RESULT:      -6.2      4.942      8.372
  Name = 
  16 active torsions:
  status: ('A' for Active; 'I' for Inactive)
    1  A    between atoms: C_1  and  N_7
    2  A    between atoms: C_2  and  O_8
    3  A    between atoms: C_3  and  O_8
    4  A    between atoms: C_3  and  C_28
    5  A    between atoms: C_4  and  C_25
    6  A    between atoms: C_4  and  C_26
    7  A    between atoms: S_6  and  N_16
    8  A    between atoms: S_6  and  C_21
    9  A    between atoms: N_7  and  C_11
   10  A    between atoms: C_9  and  C_15
   11  A    between atoms: C_9  and  N_16
   12  A    between atoms: C_9  and  N_29
   13  A    between atoms: C_14  and  C_27
   14  A    between atoms: C_14  and  C_28
   15  A    between atoms: C_15  and  C_25
   16  A    between atoms: N_29  and  C_30
                            x       y       z     vdW  Elec       q    Type
                         _______ _______ _______ _____ _____    ______ ____

>  <TORSDO>
F 16

$$$$
=
 OpenBabel10222415483D

 31 31  0  0  1  0  0  0  0  0999 V2000
  190.7200  177.0530  141.0150 C   0  0  0  0  0  3  0  0  0  0  0  0
  188.8050  178.1480  141.9950 C   0  0  0  0  0  3  0  0  0  0  0  0
  188.5530  178.4590  138.3040 N   0  0  0  0  0  1  0  0  0  0  0  0
  189.0820  178.1240  139.5840 C   0  0  0  0  0  0  0  0  0  0  0  0
  189.9890  177.4260  142.1440 C   0  0  0  0  0  0  0  0  0  0  0  0
  190.2880  177.3900  139.7230 C   0  0  0  0  0  0  0  0  0  0  0  0
  188.3560  178.4960  140.7210 C   0  0  0  0  0  3  0  0  0  0  0  0
  190.5340  176.9370  143.7410 S   0  0  0  0  0  0  0  0  0  0  0  0
  191.4510  177.9900  144.2970 O   0  0  0  0  0  0  0  0  0  0  0  0
  191.2950  175.6440  143.6400 O   0  0  0  0  0  0  0  0  0  0  0  0
  189.1760  176.7500  144.8020 N   0  0  0  0  0  2  0  0  0  0  0  0
  189.4230  177.5330  146.0050 C   0  0  1  0  0  3  0  0  0  0  0  0
  188.1420  178.2350  146.4350 C   0  0  0  0  0  2  0  0  0  0  0  0
  186.9190  177.4030  146.0840 C   0  0  0  0  0  2  0  0  0  0  0  0
  185.6420  178.1580  146.4140 C   0  0  0  0  0  2  0  0  0  0  0  0
  185.4600  178.3290  143.9340 C   0  0  0  0  0  1  0  0  0  0  0  0
  185.2340  179.0450  145.2520 C   0  0  0  0  0  2  0  0  0  0  0  0
  189.9290  176.6750  147.0720 N   0  0  0  0  0  2  0  0  0  0  0  0
  192.0830  175.6850  147.2670 C   0  0  0  0  0  2  0  0  0  0  0  0
  191.2860  176.7140  147.5040 C   0  0  0  0  0  3  0  0  0  0  0  0
  192.4450  176.8740  138.6720 C   0  0  0  0  0  3  0  0  0  0  0  0
  191.1060  176.9290  138.5660 C   0  0  0  0  0  0  0  0  0  0  0  0
  193.3680  176.4240  137.6680 N   0  0  0  0  0  2  0  0  0  0  0  0
  194.1550  175.2020  137.7040 C   0  0  0  0  0  2  0  0  0  0  0  0
  193.4800  174.1430  136.8590 C   0  0  0  0  0  1  0  0  0  0  0  0
  190.3940  176.5000  137.3160 C   0  0  0  0  0  2  0  0  0  0  0  0
  189.9140  175.0640  137.4510 C   0  0  0  0  0  2  0  0  0  0  0  0
  188.9360  174.7800  136.4600 O   0  0  0  0  0  0  0  0  0  0  0  0
  187.7200  175.4610  136.4070 C   0  0  0  0  0  0  0  0  0  0  0  0
  187.4260  176.3120  135.3480 O   0  0  0  0  0  0  0  0  0  0  0  0
  186.8830  175.3110  137.3340 O   0  0  0  0  0  1  0  0  0  0  0  0
  1  5  1  0  0  0  0
  2  5  2  0  0  0  0
  3  4  1  0  0  0  0
  4  6  1  0  0  0  0
  4  7  2  0  0  0  0
  5  8  1  0  0  0  0
  6  1  2  0  0  0  0
  7  2  1  0  0  0  0
  8  9  2  0  0  0  0
  8 11  1  0  0  0  0
 10  8  2  0  0  0  0
 11 12  1  0  0  0  0
 12 13  1  1  0  0  0
 12 18  1  0  0  0  0
 14 15  1  0  0  0  0
 14 13  1  0  0  0  0
 16 17  1  0  0  0  0
 17 15  1  0  0  0  0
 18 20  1  0  0  0  0
 19 20  2  0  0  0  0
 22 21  2  0  0  0  0
 22  6  1  0  0  0  0
 23 24  1  0  0  0  0
 23 21  1  0  0  0  0
 25 24  1  0  0  0  0
 26 27  1  0  0  0  0
 26 22  1  0  0  0  0
 28 27  1  0  0  0  0
 29 28  1  0  0  0  0
 29 31  1  0  0  0  0
 30 29  2  0  0  0  0
M  END
>  <MODEL>
5

>  <REMARK>
 VINA RESULT:      -6.2      1.659      3.360
  Name = 
  16 active torsions:
  status: ('A' for Active; 'I' for Inactive)
    1  A    between atoms: C_1  and  N_7
    2  A    between atoms: C_2  and  O_8
    3  A    between atoms: C_3  and  O_8
    4  A    between atoms: C_3  and  C_28
    5  A    between atoms: C_4  and  C_25
    6  A    between atoms: C_4  and  C_26
    7  A    between atoms: S_6  and  N_16
    8  A    between atoms: S_6  and  C_21
    9  A    between atoms: N_7  and  C_11
   10  A    between atoms: C_9  and  C_15
   11  A    between atoms: C_9  and  N_16
   12  A    between atoms: C_9  and  N_29
   13  A    between atoms: C_14  and  C_27
   14  A    between atoms: C_14  and  C_28
   15  A    between atoms: C_15  and  C_25
   16  A    between atoms: N_29  and  C_30
                            x       y       z     vdW  Elec       q    Type
                         _______ _______ _______ _____ _____    ______ ____

>  <TORSDO>
F 16

$$$$
=
 OpenBabel10222415483D

 31 31  0  0  1  0  0  0  0  0999 V2000
  185.2620  178.1340  142.8780 C   0  0  0  0  0  3  0  0  0  0  0  0
  183.1090  179.0700  143.4390 C   0  0  0  0  0  3  0  0  0  0  0  0
  185.0190  178.5920  146.5860 N   0  0  0  0  0  1  0  0  0  0  0  0
  184.7000  178.5550  145.1980 C   0  0  0  0  0  0  0  0  0  0  0  0
  184.0150  178.6170  142.4800 C   0  0  0  0  0  0  0  0  0  0  0  0
  185.6290  178.0920  144.2320 C   0  0  0  0  0  0  0  0  0  0  0  0
  183.4510  179.0370  144.7910 C   0  0  0  0  0  3  0  0  0  0  0  0
  183.6140  178.7050  140.7720 S   0  0  0  0  0  0  0  0  0  0  0  0
  183.7590  177.3420  140.1560 O   0  0  0  0  0  0  0  0  0  0  0  0
  184.5610  179.6470  140.0790 O   0  0  0  0  0  0  0  0  0  0  0  0
  181.9800  179.2480  140.5710 N   0  0  0  0  0  2  0  0  0  0  0  0
  181.1870  178.1380  140.0590 C   0  0  1  0  0  3  0  0  0  0  0  0
  180.2150  177.6630  141.1290 C   0  0  0  0  0  2  0  0  0  0  0  0
  179.3240  176.5490  140.6030 C   0  0  0  0  0  2  0  0  0  0  0  0
  180.1430  175.3070  140.2910 C   0  0  0  0  0  2  0  0  0  0  0  0
  179.3750  173.5450  141.8780 C   0  0  0  0  0  1  0  0  0  0  0  0
  179.2960  174.0580  140.4530 C   0  0  0  0  0  2  0  0  0  0  0  0
  180.4760  178.5400  138.8500 N   0  0  0  0  0  2  0  0  0  0  0  0
  181.6420  177.1250  137.3360 C   0  0  0  0  0  2  0  0  0  0  0  0
  180.9570  178.2370  137.5430 C   0  0  0  0  0  3  0  0  0  0  0  0
  187.6310  178.0800  145.6520 C   0  0  0  0  0  3  0  0  0  0  0  0
  186.9900  177.5920  144.5760 C   0  0  0  0  0  0  0  0  0  0  0  0
  188.9240  177.6830  146.1360 N   0  0  0  0  0  2  0  0  0  0  0  0
  189.2350  177.1960  147.4700 C   0  0  0  0  0  2  0  0  0  0  0  0
  188.4580  177.9970  148.4930 C   0  0  0  0  0  1  0  0  0  0  0  0
  187.5930  176.5190  143.7160 C   0  0  0  0  0  2  0  0  0  0  0  0
  188.6720  177.1070  142.8220 C   0  0  0  0  0  2  0  0  0  0  0  0
  189.9010  176.4240  143.0250 O   0  0  0  0  0  0  0  0  0  0  0  0
  191.1260  177.0920  143.0230 C   0  0  0  0  0  0  0  0  0  0  0  0
  191.6960  177.5280  141.8330 O   0  0  0  0  0  0  0  0  0  0  0  0
  191.7260  177.2930  144.1110 O   0  0  0  0  0  1  0  0  0  0  0  0
  1  6  1  0  0  0  0
  2  7  2  0  0  0  0
  4  3  1  0  0  0  0
  5  1  2  0  0  0  0
  5  2  1  0  0  0  0
  6 22  1  0  0  0  0
  6  4  2  0  0  0  0
  7  4  1  0  0  0  0
  8  5  1  0  0  0  0
  9  8  2  0  0  0  0
 10  8  2  0  0  0  0
 11  8  1  0  0  0  0
 12 11  1  0  0  0  0
 12 13  1  1  0  0  0
 14 13  1  0  0  0  0
 15 17  1  0  0  0  0
 15 14  1  0  0  0  0
 17 16  1  0  0  0  0
 18 12  1  0  0  0  0
 19 20  2  0  0  0  0
 20 18  1  0  0  0  0
 21 23  1  0  0  0  0
 22 21  2  0  0  0  0
 23 24  1  0  0  0  0
 24 25  1  0  0  0  0
 26 22  1  0  0  0  0
 27 28  1  0  0  0  0
 27 26  1  0  0  0  0
 29 28  1  0  0  0  0
 29 31  1  0  0  0  0
 30 29  2  0  0  0  0
M  END
>  <MODEL>
6

>  <REMARK>
 VINA RESULT:      -6.1      5.176      9.234
  Name = 
  16 active torsions:
  status: ('A' for Active; 'I' for Inactive)
    1  A    between atoms: C_1  and  N_7
    2  A    between atoms: C_2  and  O_8
    3  A    between atoms: C_3  and  O_8
    4  A    between atoms: C_3  and  C_28
    5  A    between atoms: C_4  and  C_25
    6  A    between atoms: C_4  and  C_26
    7  A    between atoms: S_6  and  N_16
    8  A    between atoms: S_6  and  C_21
    9  A    between atoms: N_7  and  C_11
   10  A    between atoms: C_9  and  C_15
   11  A    between atoms: C_9  and  N_16
   12  A    between atoms: C_9  and  N_29
   13  A    between atoms: C_14  and  C_27
   14  A    between atoms: C_14  and  C_28
   15  A    between atoms: C_15  and  C_25
   16  A    between atoms: N_29  and  C_30
                            x       y       z     vdW  Elec       q    Type
                         _______ _______ _______ _____ _____    ______ ____

>  <TORSDO>
F 16

$$$$
=
 OpenBabel10222415483D

 31 31  0  0  1  0  0  0  0  0999 V2000
  185.2980  177.9220  142.7920 C   0  0  0  0  0  3  0  0  0  0  0  0
  184.6900  178.6390  145.0160 C   0  0  0  0  0  3  0  0  0  0  0  0
  181.8770  179.4440  142.7320 N   0  0  0  0  0  1  0  0  0  0  0  0
  183.1550  178.9920  143.1690 C   0  0  0  0  0  0  0  0  0  0  0  0
  185.6060  178.0430  144.1480 C   0  0  0  0  0  0  0  0  0  0  0  0
  184.0780  178.3890  142.2770 C   0  0  0  0  0  0  0  0  0  0  0  0
  183.4720  179.1120  144.5270 C   0  0  0  0  0  3  0  0  0  0  0  0
  187.1190  177.3970  144.7630 S   0  0  0  0  0  0  0  0  0  0  0  0
  187.5470  176.2370  143.9100 O   0  0  0  0  0  0  0  0  0  0  0  0
  186.9230  176.9100  146.1720 O   0  0  0  0  0  0  0  0  0  0  0  0
  188.3490  178.6180  144.7200 N   0  0  0  0  0  2  0  0  0  0  0  0
  189.6400  177.9750  144.9290 C   0  0  1  0  0  3  0  0  0  0  0  0
  190.7290  178.7610  144.2130 C   0  0  0  0  0  2  0  0  0  0  0  0
  191.6860  177.8310  143.4850 C   0  0  0  0  0  2  0  0  0  0  0  0
  190.9470  176.6280  142.9260 C   0  0  0  0  0  2  0  0  0  0  0  0
  191.5140  177.4920  140.6580 C   0  0  0  0  0  1  0  0  0  0  0  0
  190.4140  176.9300  141.5370 C   0  0  0  0  0  2  0  0  0  0  0  0
  189.9270  177.8700  146.3560 N   0  0  0  0  0  2  0  0  0  0  0  0
  191.6760  176.4340  147.0880 C   0  0  0  0  0  2  0  0  0  0  0  0
  190.3790  176.6600  146.9580 C   0  0  0  0  0  3  0  0  0  0  0  0
  182.9460  177.2440  140.4250 C   0  0  0  0  0  3  0  0  0  0  0  0
  183.8080  178.1950  140.8250 C   0  0  0  0  0  0  0  0  0  0  0  0
  182.5540  176.9530  139.0740 N   0  0  0  0  0  2  0  0  0  0  0  0
  182.3260  175.6340  138.5050 C   0  0  0  0  0  2  0  0  0  0  0  0
  183.5990  175.1380  137.8560 C   0  0  0  0  0  1  0  0  0  0  0  0
  184.4910  179.1050  139.8460 C   0  0  0  0  0  2  0  0  0  0  0  0
  185.5760  178.3490  139.0940 C   0  0  0  0  0  2  0  0  0  0  0  0
  186.8470  178.6210  139.6670 O   0  0  0  0  0  0  0  0  0  0  0  0
  188.0340  178.2470  139.0380 C   0  0  0  0  0  0  0  0  0  0  0  0
  188.2690  176.9210  138.6930 O   0  0  0  0  0  0  0  0  0  0  0  0
  188.9070  179.1180  138.7880 O   0  0  0  0  0  1  0  0  0  0  0  0
  1  5  1  0  0  0  0
  3  4  1  0  0  0  0
  4  7  2  0  0  0  0
  5  8  1  0  0  0  0
  5  2  2  0  0  0  0
  6  1  2  0  0  0  0
  6  4  1  0  0  0  0
  7  2  1  0  0  0  0
  8 10  2  0  0  0  0
  9  8  2  0  0  0  0
 11  8  1  0  0  0  0
 11 12  1  0  0  0  0
 12 13  1  6  0  0  0
 12 18  1  0  0  0  0
 14 13  1  0  0  0  0
 15 14  1  0  0  0  0
 16 17  1  0  0  0  0
 17 15  1  0  0  0  0
 18 20  1  0  0  0  0
 20 19  2  0  0  0  0
 21 22  2  0  0  0  0
 22  6  1  0  0  0  0
 23 21  1  0  0  0  0
 24 23  1  0  0  0  0
 25 24  1  0  0  0  0
 26 22  1  0  0  0  0
 27 28  1  0  0  0  0
 27 26  1  0  0  0  0
 29 28  1  0  0  0  0
 30 29  2  0  0  0  0
 31 29  1  0  0  0  0
M  END
>  <MODEL>
7

>  <REMARK>
 VINA RESULT:      -6.0      3.846      7.194
  Name = 
  16 active torsions:
  status: ('A' for Active; 'I' for Inactive)
    1  A    between atoms: C_1  and  N_7
    2  A    between atoms: C_2  and  O_8
    3  A    between atoms: C_3  and  O_8
    4  A    between atoms: C_3  and  C_28
    5  A    between atoms: C_4  and  C_25
    6  A    between atoms: C_4  and  C_26
    7  A    between atoms: S_6  and  N_16
    8  A    between atoms: S_6  and  C_21
    9  A    between atoms: N_7  and  C_11
   10  A    between atoms: C_9  and  C_15
   11  A    between atoms: C_9  and  N_16
   12  A    between atoms: C_9  and  N_29
   13  A    between atoms: C_14  and  C_27
   14  A    between atoms: C_14  and  C_28
   15  A    between atoms: C_15  and  C_25
   16  A    between atoms: N_29  and  C_30
                            x       y       z     vdW  Elec       q    Type
                         _______ _______ _______ _____ _____    ______ ____

>  <TORSDO>
F 16

$$$$
=
 OpenBabel10222415483D

 31 31  0  0  1  0  0  0  0  0999 V2000
  184.9870  178.1200  142.8600 C   0  0  0  0  0  3  0  0  0  0  0  0
  182.8560  179.0140  143.5580 C   0  0  0  0  0  3  0  0  0  0  0  0
  185.0140  178.6910  146.5610 N   0  0  0  0  0  1  0  0  0  0  0  0
  184.5910  178.6000  145.2040 C   0  0  0  0  0  0  0  0  0  0  0  0
  183.6990  178.5560  142.5460 C   0  0  0  0  0  0  0  0  0  0  0  0
  185.4580  178.1330  144.1830 C   0  0  0  0  0  0  0  0  0  0  0  0
  183.3010  179.0340  144.8800 C   0  0  0  0  0  3  0  0  0  0  0  0
  183.1670  178.5780  140.8720 S   0  0  0  0  0  0  0  0  0  0  0  0
  183.6230  177.3200  140.1890 O   0  0  0  0  0  0  0  0  0  0  0  0
  183.7770  179.7560  140.1640 O   0  0  0  0  0  0  0  0  0  0  0  0
  181.4370  178.6680  140.7980 N   0  0  0  0  0  2  0  0  0  0  0  0
  181.0550  180.0710  140.7030 C   0  0  1  0  0  3  0  0  0  0  0  0
  180.4120  180.3400  139.3500 C   0  0  0  0  0  2  0  0  0  0  0  0
  180.9850  181.5950  138.7120 C   0  0  0  0  0  2  0  0  0  0  0  0
  180.7970  181.5670  137.2050 C   0  0  0  0  0  2  0  0  0  0  0  0
  181.1570  184.0000  136.7960 C   0  0  0  0  0  1  0  0  0  0  0  0
  180.1600  182.8590  136.7250 C   0  0  0  0  0  2  0  0  0  0  0  0
  180.1460  180.4220  141.7900 N   0  0  0  0  0  2  0  0  0  0  0  0
  179.0790  179.4540  143.6830 C   0  0  0  0  0  2  0  0  0  0  0  0
  179.2510  179.4780  142.3720 C   0  0  0  0  0  3  0  0  0  0  0  0
  187.4190  177.8890  145.6380 C   0  0  0  0  0  3  0  0  0  0  0  0
  186.8550  177.6820  144.4350 C   0  0  0  0  0  0  0  0  0  0  0  0
  188.7350  177.4880  146.0510 N   0  0  0  0  0  2  0  0  0  0  0  0
  189.1200  177.0140  147.3700 C   0  0  0  0  0  2  0  0  0  0  0  0
  188.7810  178.0670  148.4030 C   0  0  0  0  0  1  0  0  0  0  0  0
  187.5840  176.9700  143.3330 C   0  0  0  0  0  2  0  0  0  0  0  0
  188.6560  177.8720  142.7440 C   0  0  0  0  0  2  0  0  0  0  0  0
  188.1000  178.6920  141.7270 O   0  0  0  0  0  0  0  0  0  0  0  0
  188.0030  178.2630  140.4030 C   0  0  0  0  0  0  0  0  0  0  0  0
  188.9780  177.4430  139.8480 O   0  0  0  0  0  1  0  0  0  0  0  0
  187.0270  178.6300  139.7000 O   0  0  0  0  0  0  0  0  0  0  0  0
  1  6  1  0  0  0  0
  2  7  2  0  0  0  0
  4  3  1  0  0  0  0
  5  1  2  0  0  0  0
  5  2  1  0  0  0  0
  6 22  1  0  0  0  0
  6  4  2  0  0  0  0
  7  4  1  0  0  0  0
  8  5  1  0  0  0  0
  9  8  2  0  0  0  0
 10  8  2  0  0  0  0
 11  8  1  0  0  0  0
 12 13  1  6  0  0  0
 12 11  1  0  0  0  0
 12 18  1  0  0  0  0
 14 13  1  0  0  0  0
 15 14  1  0  0  0  0
 17 16  1  0  0  0  0
 17 15  1  0  0  0  0
 18 20  1  0  0  0  0
 20 19  2  0  0  0  0
 21 23  1  0  0  0  0
 22 21  2  0  0  0  0
 23 24  1  0  0  0  0
 24 25  1  0  0  0  0
 26 22  1  0  0  0  0
 27 26  1  0  0  0  0
 28 27  1  0  0  0  0
 29 28  1  0  0  0  0
 30 29  1  0  0  0  0
 31 29  2  0  0  0  0
M  END
>  <MODEL>
8

>  <REMARK>
 VINA RESULT:      -5.9      5.000      9.520
  Name = 
  16 active torsions:
  status: ('A' for Active; 'I' for Inactive)
    1  A    between atoms: C_1  and  N_7
    2  A    between atoms: C_2  and  O_8
    3  A    between atoms: C_3  and  O_8
    4  A    between atoms: C_3  and  C_28
    5  A    between atoms: C_4  and  C_25
    6  A    between atoms: C_4  and  C_26
    7  A    between atoms: S_6  and  N_16
    8  A    between atoms: S_6  and  C_21
    9  A    between atoms: N_7  and  C_11
   10  A    between atoms: C_9  and  C_15
   11  A    between atoms: C_9  and  N_16
   12  A    between atoms: C_9  and  N_29
   13  A    between atoms: C_14  and  C_27
   14  A    between atoms: C_14  and  C_28
   15  A    between atoms: C_15  and  C_25
   16  A    between atoms: N_29  and  C_30
                            x       y       z     vdW  Elec       q    Type
                         _______ _______ _______ _____ _____    ______ ____

>  <TORSDO>
F 16

$$$$
=
 OpenBabel10222415483D

 31 31  0  0  1  0  0  0  0  0999 V2000
  190.4480  176.4600  139.4910 C   0  0  0  0  0  3  0  0  0  0  0  0
  192.1980  177.5040  140.7850 C   0  0  0  0  0  3  0  0  0  0  0  0
  193.6570  176.3720  137.5640 N   0  0  0  0  0  1  0  0  0  0  0  0
  192.6990  176.5770  138.5980 C   0  0  0  0  0  0  0  0  0  0  0  0
  190.8650  177.1170  140.6500 C   0  0  0  0  0  0  0  0  0  0  0  0
  191.3460  176.1790  138.4490 C   0  0  0  0  0  0  0  0  0  0  0  0
  193.1090  177.2340  139.7640 C   0  0  0  0  0  3  0  0  0  0  0  0
  189.6990  177.5010  141.9060 S   0  0  0  0  0  0  0  0  0  0  0  0
  188.3110  177.2450  141.3920 O   0  0  0  0  0  0  0  0  0  0  0  0
  189.8140  178.9550  142.2730 O   0  0  0  0  0  0  0  0  0  0  0  0
  189.9790  176.5100  143.3010 N   0  0  0  0  0  2  0  0  0  0  0  0
  190.5780  177.3380  144.3390 C   0  0  1  0  0  3  0  0  0  0  0  0
  189.4860  177.9360  145.2160 C   0  0  0  0  0  2  0  0  0  0  0  0
  188.2410  177.0640  145.2100 C   0  0  0  0  0  2  0  0  0  0  0  0
  187.0080  177.8900  144.8840 C   0  0  0  0  0  2  0  0  0  0  0  0
  186.6890  178.4100  147.3010 C   0  0  0  0  0  1  0  0  0  0  0  0
  186.0320  177.8670  146.0460 C   0  0  0  0  0  2  0  0  0  0  0  0
  191.5130  176.5510  145.1370 N   0  0  0  0  0  0  0  0  0  0  0  0
  192.1040  175.6300  147.2490 C   0  0  0  0  0  1  0  0  0  0  0  0
  191.5410  176.6090  146.5600 C   0  0  0  0  0  3  0  0  0  0  0  0
  190.5430  174.1880  137.2610 C   0  0  0  0  0  3  0  0  0  0  0  0
  190.8180  175.5030  137.2310 C   0  0  0  0  0  0  0  0  0  0  0  0
  190.0010  173.3990  136.1890 N   0  0  0  0  0  2  0  0  0  0  0  0
  188.7350  172.6830  136.1980 C   0  0  0  0  0  2  0  0  0  0  0  0
  187.6230  173.6300  136.5940 C   0  0  0  0  0  1  0  0  0  0  0  0
  190.5760  176.3340  136.0050 C   0  0  0  0  0  2  0  0  0  0  0  0
  189.1800  176.9340  136.0440 C   0  0  0  0  0  2  0  0  0  0  0  0
  189.2540  178.3240  136.3270 O   0  0  0  0  0  0  0  0  0  0  0  0
  188.4860  178.9150  137.3310 C   0  0  0  0  0  0  0  0  0  0  0  0
  187.1060  179.0120  137.2070 O   0  0  0  0  0  0  0  0  0  0  0  0
  189.0510  179.3730  138.3580 O   0  0  0  0  0  1  0  0  0  0  0  0
  1  5  1  0  0  0  0
  3  4  1  0  0  0  0
  4  7  2  0  0  0  0
  5  2  2  0  0  0  0
  5  8  1  0  0  0  0
  6  4  1  0  0  0  0
  6  1  2  0  0  0  0
  7  2  1  0  0  0  0
  8 10  2  0  0  0  0
  8 11  1  0  0  0  0
  9  8  2  0  0  0  0
 11 12  1  0  0  0  0
 12 18  1  0  0  0  0
 12 13  1  1  0  0  0
 14 13  1  0  0  0  0
 15 14  1  0  0  0  0
 15 17  1  0  0  0  0
 17 16  1  0  0  0  0
 18 20  2  0  0  0  0
 20 19  1  0  0  0  0
 22 21  2  0  0  0  0
 22  6  1  0  0  0  0
 23 24  1  0  0  0  0
 23 21  1  0  0  0  0
 24 25  1  0  0  0  0
 26 27  1  0  0  0  0
 26 22  1  0  0  0  0
 27 28  1  0  0  0  0
 28 29  1  0  0  0  0
 29 31  1  0  0  0  0
 30 29  2  0  0  0  0
M  END
>  <MODEL>
9

>  <REMARK>
 VINA RESULT:      -5.9      2.392      4.389
  Name = 
  16 active torsions:
  status: ('A' for Active; 'I' for Inactive)
    1  A    between atoms: C_1  and  N_7
    2  A    between atoms: C_2  and  O_8
    3  A    between atoms: C_3  and  O_8
    4  A    between atoms: C_3  and  C_28
    5  A    between atoms: C_4  and  C_25
    6  A    between atoms: C_4  and  C_26
    7  A    between atoms: S_6  and  N_16
    8  A    between atoms: S_6  and  C_21
    9  A    between atoms: N_7  and  C_11
   10  A    between atoms: C_9  and  C_15
   11  A    between atoms: C_9  and  N_16
   12  A    between atoms: C_9  and  N_29
   13  A    between atoms: C_14  and  C_27
   14  A    between atoms: C_14  and  C_28
   15  A    between atoms: C_15  and  C_25
   16  A    between atoms: N_29  and  C_30
                            x       y       z     vdW  Elec       q    Type
                         _______ _______ _______ _____ _____    ______ ____

>  <TORSDO>
F 16

$$$$
