=
 OpenBabel10222415123D

 34 40  0  0  1  0  0  0  0  0999 V2000
  187.9850  178.2210  136.5250 C   0  0  0  0  0  3  0  0  0  0  0  0
  184.8270  179.3340  141.6490 C   0  0  0  0  0  3  0  0  0  0  0  0
  185.2490  178.1810  146.5690 C   0  0  2  0  0  3  0  0  0  0  0  0
  189.4470  177.8650  138.4250 C   0  0  0  0  0  0  0  0  0  0  0  0
  188.8360  177.9790  140.5370 N   0  0  0  0  0  0  0  0  0  0  0  0
  190.4680  177.2920  139.1880 C   0  0  1  0  0  3  0  0  0  0  0  0
  186.8490  178.0770  142.0060 C   0  0  0  0  0  0  0  0  0  0  0  0
  185.9920  178.7800  141.1140 C   0  0  0  0  0  0  0  0  0  0  0  0
  189.1180  177.0890  142.6280 C   0  0  2  0  0  0  0  0  0  0  0  0
  188.4370  176.1390  143.6010 C   0  0  0  0  0  2  0  0  0  0  0  0
  186.1200  178.8220  139.6660 N   0  0  0  0  0  0  0  0  0  0  0  0
  190.0270  177.3960  140.5040 C   0  0  2  0  0  3  0  0  0  0  0  0
  191.5940  176.4560  138.6880 C   0  0  0  0  0  1  0  0  0  0  0  0
  185.2660  178.4240  143.8020 C   0  0  0  0  0  0  0  0  0  0  0  0
  187.2100  176.8460  144.2440 C   0  0  0  0  0  2  0  0  0  0  0  0
  188.4620  178.2440  139.3010 C   0  0  0  0  0  0  0  0  0  0  0  0
  186.9230  178.6010  137.4350 N   0  0  0  0  0  2  0  0  0  0  0  0
  184.5070  179.1710  142.9590 N   0  0  0  0  0  0  0  0  0  0  0  0
  189.1990  177.8460  136.9750 C   0  0  0  0  0  3  0  0  0  0  0  0
  187.1160  178.5680  138.8590 C   0  0  0  0  0  0  0  0  0  0  0  0
  188.0740  177.3700  141.5630 C   0  0  2  0  0  3  0  0  0  0  0  0
  184.8560  178.2770  145.1600 N   0  0  0  0  0  0  0  0  0  0  0  0
  184.0800  178.6590  146.2640 O   0  0  0  0  0  0  0  0  0  0  0  0
  186.4310  177.8030  143.3310 C   0  0  0  0  0  0  0  0  0  0  0  0
  190.2860  176.5750  141.7420 C   0  0  0  0  0  2  0  0  0  0  0  0
  189.5720  178.3750  143.3530 C   0  0  0  0  0  2  0  0  0  0  0  0
  190.0040  178.0930  144.6810 O   0  0  0  0  0  0  0  0  0  0  0  0
  191.6700  176.6440  145.8270 C   0  0  0  0  0  1  0  0  0  0  0  0
  191.3380  177.8230  144.9880 C   0  0  0  0  0  0  0  0  0  0  0  0
  192.2630  178.5710  144.5710 O   0  0  0  0  0  0  0  0  0  0  0  0
  186.1810  179.3270  146.9170 C   0  0  0  0  0  2  0  0  0  0  0  0
  187.2060  178.8830  147.9450 C   0  0  0  0  0  2  0  0  0  0  0  0
  187.9400  177.8050  147.4500 O   0  0  0  0  0  0  0  0  0  0  0  0
  189.1380  177.8390  148.1640 C   0  0  0  0  0  1  0  0  0  0  0  0
  1 19  2  0  0  0  0
  1 17  1  0  0  0  0
  2 18  1  0  0  0  0
  3 31  1  6  0  0  0
  4  6  1  0  0  0  0
  4 16  2  0  0  0  0
  5 21  1  0  0  0  0
  6 13  1  6  0  0  0
  6 12  1  0  0  0  0
  7 24  2  0  0  0  0
  8  2  2  0  0  0  0
  8  7  1  0  0  0  0
  9 26  1  1  0  0  0
  9 10  1  0  0  0  0
 10 15  1  0  0  0  0
 11  8  1  0  0  0  0
 12  5  1  0  0  0  0
 12 25  1  6  0  0  0
 14 22  1  0  0  0  0
 16  5  1  0  0  0  0
 17 20  1  0  0  0  0
 18 14  2  0  0  0  0
 19  4  1  0  0  0  0
 20 16  1  0  0  0  0
 20 11  2  0  0  0  0
 21  7  1  1  0  0  0
 21  9  1  0  0  0  0
 22 23  1  0  0  0  0
 22  3  1  0  0  0  0
 23  3  1  0  0  0  0
 24 14  1  0  0  0  0
 24 15  1  0  0  0  0
 25  9  1  0  0  0  0
 26 27  1  0  0  0  0
 27 29  1  0  0  0  0
 29 28  1  0  0  0  0
 30 29  2  0  0  0  0
 31 32  1  0  0  0  0
 33 32  1  0  0  0  0
 33 34  1  0  0  0  0
M  END
>  <MODEL>
1

>  <REMARK>
 VINA RESULT:      -9.3      0.000      0.000
  Name = 
  6 active torsions:
  status: ('A' for Active; 'I' for Inactive)
    1  A    between atoms: C_4  and  C_32
    2  A    between atoms: C_10  and  C_11
    3  A    between atoms: C_11  and  O_12
    4  A    between atoms: O_12  and  C_28
    5  A    between atoms: O_13  and  C_25
    6  A    between atoms: C_25  and  C_32
                            x       y       z     vdW  Elec       q    Type
                         _______ _______ _______ _____ _____    ______ ____

>  <TORSDO>
F 6

$$$$
=
 OpenBabel10222415123D

 34 40  0  0  1  0  0  0  0  0999 V2000
  184.6030  178.9830  146.1320 C   0  0  0  0  0  3  0  0  0  0  0  0
  186.8560  177.9880  140.5280 C   0  0  0  0  0  3  0  0  0  0  0  0
  191.4150  177.1260  138.4820 C   0  0  2  0  0  3  0  0  0  0  0  0
  186.7800  177.9390  146.3500 C   0  0  0  0  0  0  0  0  0  0  0  0
  188.1350  177.4670  144.6800 N   0  0  0  0  0  0  0  0  0  0  0  0
  188.0340  177.6530  146.8960 C   0  0  1  0  0  3  0  0  0  0  0  0
  188.5110  177.8930  142.2740 C   0  0  0  0  0  0  0  0  0  0  0  0
  187.1470  178.0340  141.8930 C   0  0  0  0  0  0  0  0  0  0  0  0
  190.3190  177.3740  143.9980 C   0  0  2  0  0  0  0  0  0  0  0  0
  191.3280  178.1630  143.1780 C   0  0  0  0  0  2  0  0  0  0  0  0
  186.0530  178.4040  142.7750 N   0  0  0  0  0  0  0  0  0  0  0  0
  188.8400  177.3620  145.7990 C   0  0  2  0  0  3  0  0  0  0  0  0
  188.4880  177.9360  148.2860 C   0  0  0  0  0  1  0  0  0  0  0  0
  189.1540  177.8130  139.9430 C   0  0  0  0  0  0  0  0  0  0  0  0
  191.0170  177.9890  141.6640 C   0  0  0  0  0  2  0  0  0  0  0  0
  186.9070  177.8350  144.9880 C   0  0  0  0  0  0  0  0  0  0  0  0
  184.7290  178.9050  144.6910 N   0  0  0  0  0  0  0  0  0  0  0  0
  187.8400  177.8550  139.6020 N   0  0  0  0  0  0  0  0  0  0  0  0
  185.5800  178.5430  146.9500 C   0  0  0  0  0  2  0  0  0  0  0  0
  185.9160  178.3780  144.0740 C   0  0  0  0  0  0  0  0  0  0  0  0
  188.9760  178.0040  143.6760 C   0  0  2  0  0  3  0  0  0  0  0  0
  190.1360  177.6960  138.9140 N   0  0  0  0  0  0  0  0  0  0  0  0
  190.5110  177.4140  137.5930 O   0  0  0  0  0  0  0  0  0  0  0  0
  189.5310  177.8940  141.2900 C   0  0  0  0  0  0  0  0  0  0  0  0
  190.3200  177.4990  145.5460 C   0  0  0  0  0  2  0  0  0  0  0  0
  190.3660  175.8770  143.6200 C   0  0  0  0  0  2  0  0  0  0  0  0
  191.6940  175.3670  143.6990 O   0  0  0  0  0  0  0  0  0  0  0  0
  192.2340  175.2680  146.1260 C   0  0  0  0  0  1  0  0  0  0  0  0
  192.1420  174.6230  144.7910 C   0  0  0  0  0  0  0  0  0  0  0  0
  192.4790  173.4160  144.6590 O   0  0  0  0  0  0  0  0  0  0  0  0
  191.4140  175.6280  138.7270 C   0  0  0  0  0  2  0  0  0  0  0  0
  191.5860  174.8780  137.4190 C   0  0  0  0  0  2  0  0  0  0  0  0
  190.8550  173.6910  137.4510 O   0  0  0  0  0  0  0  0  0  0  0  0
  189.6190  174.0250  136.8960 C   0  0  0  0  0  1  0  0  0  0  0  0
  1 19  1  0  0  0  0
  2  8  1  0  0  0  0
  3 31  1  1  0  0  0
  3 22  1  0  0  0  0
  4  6  1  0  0  0  0
  4 19  1  0  0  0  0
  5 16  1  0  0  0  0
  5 12  1  0  0  0  0
  6 13  1  6  0  0  0
  8  7  2  0  0  0  0
  8 11  1  0  0  0  0
  9 26  1  6  0  0  0
  9 25  1  0  0  0  0
 10  9  1  0  0  0  0
 11 20  2  0  0  0  0
 12 25  1  6  0  0  0
 12  6  1  0  0  0  0
 14 24  2  0  0  0  0
 15 10  1  0  0  0  0
 16  4  2  0  0  0  0
 17  1  2  0  0  0  0
 18 14  1  0  0  0  0
 18  2  2  0  0  0  0
 20 17  1  0  0  0  0
 20 16  1  0  0  0  0
 21  7  1  6  0  0  0
 21  9  1  0  0  0  0
 21  5  1  0  0  0  0
 22 14  1  0  0  0  0
 23  3  1  0  0  0  0
 23 22  1  0  0  0  0
 24 15  1  0  0  0  0
 24  7  1  0  0  0  0
 26 27  1  0  0  0  0
 27 29  1  0  0  0  0
 29 28  1  0  0  0  0
 30 29  2  0  0  0  0
 32 33  1  0  0  0  0
 32 31  1  0  0  0  0
 34 33  1  0  0  0  0
M  END
>  <MODEL>
2

>  <REMARK>
 VINA RESULT:      -7.9      2.669      6.955
  Name = 
  6 active torsions:
  status: ('A' for Active; 'I' for Inactive)
    1  A    between atoms: C_4  and  C_32
    2  A    between atoms: C_10  and  C_11
    3  A    between atoms: C_11  and  O_12
    4  A    between atoms: O_12  and  C_28
    5  A    between atoms: O_13  and  C_25
    6  A    between atoms: C_25  and  C_32
                            x       y       z     vdW  Elec       q    Type
                         _______ _______ _______ _____ _____    ______ ____

>  <TORSDO>
F 6

$$$$
=
 OpenBabel10222415123D

 34 40  0  0  1  0  0  0  0  0999 V2000
  183.3100  179.2890  139.2870 C   0  0  0  0  0  3  0  0  0  0  0  0
  184.6900  178.9350  145.2400 C   0  0  0  0  0  3  0  0  0  0  0  0
  188.4600  177.0310  148.0470 C   0  0  2  0  0  3  0  0  0  0  0  0
  185.6860  178.8620  139.5040 C   0  0  0  0  0  0  0  0  0  0  0  0
  186.7430  178.5000  141.4000 N   0  0  0  0  0  0  0  0  0  0  0  0
  186.9470  178.3480  139.1890 C   0  0  1  0  0  3  0  0  0  0  0  0
  186.3720  178.0000  143.7930 C   0  0  0  0  0  0  0  0  0  0  0  0
  185.1370  178.6900  143.9390 C   0  0  0  0  0  0  0  0  0  0  0  0
  188.4170  177.3200  142.4260 C   0  0  2  0  0  0  0  0  0  0  0  0
  188.6200  176.1130  143.3280 C   0  0  0  0  0  2  0  0  0  0  0  0
  184.2070  179.0050  142.8680 N   0  0  0  0  0  0  0  0  0  0  0  0
  187.5630  178.1440  140.4190 C   0  0  2  0  0  3  0  0  0  0  0  0
  187.3900  177.8170  137.8700 C   0  0  0  0  0  1  0  0  0  0  0  0
  186.5190  177.7520  146.1950 C   0  0  0  0  0  0  0  0  0  0  0  0
  188.2050  176.4770  144.7830 C   0  0  0  0  0  2  0  0  0  0  0  0
  185.6070  178.9090  140.8720 C   0  0  0  0  0  0  0  0  0  0  0  0
  183.2000  179.3180  140.7320 N   0  0  0  0  0  2  0  0  0  0  0  0
  185.3880  178.4940  146.3180 N   0  0  0  0  0  0  0  0  0  0  0  0
  184.4870  179.0550  138.6730 C   0  0  0  0  0  3  0  0  0  0  0  0
  184.3420  179.0700  141.5690 C   0  0  0  0  0  0  0  0  0  0  0  0
  186.9260  177.6010  142.4780 C   0  0  2  0  0  3  0  0  0  0  0  0
  187.1870  177.3020  147.3730 N   0  0  0  0  0  0  0  0  0  0  0  0
  187.4160  177.3480  148.7550 O   0  0  0  0  0  0  0  0  0  0  0  0
  187.0110  177.4310  144.9230 C   0  0  0  0  0  0  0  0  0  0  0  0
  188.6180  177.1760  140.8920 C   0  0  0  0  0  2  0  0  0  0  0  0
  189.2530  178.5190  142.9270 C   0  0  0  0  0  2  0  0  0  0  0  0
  190.6420  178.3140  142.6880 O   0  0  0  0  0  0  0  0  0  0  0  0
  191.8400  176.5320  143.9450 C   0  0  0  0  0  1  0  0  0  0  0  0
  191.5300  177.9650  143.7060 C   0  0  0  0  0  0  0  0  0  0  0  0
  192.0650  178.8470  144.4300 O   0  0  0  0  0  0  0  0  0  0  0  0
  189.3680  178.2410  147.9280 C   0  0  0  0  0  2  0  0  0  0  0  0
  190.7960  177.8060  147.6520 C   0  0  0  0  0  2  0  0  0  0  0  0
  190.8220  176.4590  147.2930 O   0  0  0  0  0  0  0  0  0  0  0  0
  192.0940  176.0220  147.6630 C   0  0  0  0  0  1  0  0  0  0  0  0
  1 17  1  0  0  0  0
  2 18  1  0  0  0  0
  3 31  1  6  0  0  0
  3 23  1  0  0  0  0
  4 16  2  0  0  0  0
  5 21  1  0  0  0  0
  6 13  1  1  0  0  0
  6  4  1  0  0  0  0
  6 12  1  0  0  0  0
  7  8  1  0  0  0  0
  7 24  2  0  0  0  0
  8  2  2  0  0  0  0
  9 21  1  0  0  0  0
  9 26  1  1  0  0  0
  9 10  1  0  0  0  0
 10 15  1  0  0  0  0
 11  8  1  0  0  0  0
 12 25  1  1  0  0  0
 12  5  1  0  0  0  0
 14 18  2  0  0  0  0
 14 22  1  0  0  0  0
 15 24  1  0  0  0  0
 16  5  1  0  0  0  0
 16 20  1  0  0  0  0
 17 20  1  0  0  0  0
 19  1  2  0  0  0  0
 19  4  1  0  0  0  0
 20 11  2  0  0  0  0
 21  7  1  1  0  0  0
 22  3  1  0  0  0  0
 22 23  1  0  0  0  0
 24 14  1  0  0  0  0
 25  9  1  0  0  0  0
 27 26  1  0  0  0  0
 27 29  1  0  0  0  0
 29 28  1  0  0  0  0
 29 30  2  0  0  0  0
 32 31  1  0  0  0  0
 33 32  1  0  0  0  0
 33 34  1  0  0  0  0
M  END
>  <MODEL>
3

>  <REMARK>
 VINA RESULT:      -7.9      1.811      3.184
  Name = 
  6 active torsions:
  status: ('A' for Active; 'I' for Inactive)
    1  A    between atoms: C_4  and  C_32
    2  A    between atoms: C_10  and  C_11
    3  A    between atoms: C_11  and  O_12
    4  A    between atoms: O_12  and  C_28
    5  A    between atoms: O_13  and  C_25
    6  A    between atoms: C_25  and  C_32
                            x       y       z     vdW  Elec       q    Type
                         _______ _______ _______ _____ _____    ______ ____

>  <TORSDO>
F 6

$$$$
=
 OpenBabel10222415123D

 34 40  0  0  1  0  0  0  0  0999 V2000
  187.7000  177.7940  148.4940 C   0  0  0  0  0  3  0  0  0  0  0  0
  184.3830  178.2530  143.3700 C   0  0  0  0  0  3  0  0  0  0  0  0
  185.3040  178.7810  138.4120 C   0  0  2  0  0  3  0  0  0  0  0  0
  189.1170  177.2440  146.6060 C   0  0  0  0  0  0  0  0  0  0  0  0
  188.5180  177.3660  144.4910 N   0  0  0  0  0  0  0  0  0  0  0  0
  190.2800  177.1620  145.8360 C   0  0  1  0  0  3  0  0  0  0  0  0
  186.7610  178.2500  142.9930 C   0  0  0  0  0  0  0  0  0  0  0  0
  185.6700  178.1420  143.9010 C   0  0  0  0  0  0  0  0  0  0  0  0
  189.2060  177.8780  142.3680 C   0  0  2  0  0  0  0  0  0  0  0  0
  189.1130  178.9960  141.3410 C   0  0  0  0  0  2  0  0  0  0  0  0
  185.7700  178.1080  145.3500 N   0  0  0  0  0  0  0  0  0  0  0  0
  189.8390  177.2420  144.5190 C   0  0  2  0  0  3  0  0  0  0  0  0
  191.6810  177.3100  146.3180 C   0  0  0  0  0  1  0  0  0  0  0  0
  185.2140  178.6970  141.1870 C   0  0  0  0  0  0  0  0  0  0  0  0
  187.6920  179.0040  140.7080 C   0  0  0  0  0  2  0  0  0  0  0  0
  188.0710  177.3940  145.7310 C   0  0  0  0  0  0  0  0  0  0  0  0
  186.5880  177.9820  147.5840 N   0  0  0  0  0  0  0  0  0  0  0  0
  184.1840  178.4960  142.0490 N   0  0  0  0  0  0  0  0  0  0  0  0
  188.9270  177.4580  148.0490 C   0  0  0  0  0  2  0  0  0  0  0  0
  186.7580  177.8420  146.1630 C   0  0  0  0  0  0  0  0  0  0  0  0
  188.1780  178.2340  143.4250 C   0  0  2  0  0  3  0  0  0  0  0  0
  184.9300  178.9720  139.8160 N   0  0  0  0  0  0  0  0  0  0  0  0
  184.0590  178.9990  138.7180 O   0  0  0  0  0  0  0  0  0  0  0  0
  186.5360  178.6400  141.6500 C   0  0  0  0  0  0  0  0  0  0  0  0
  190.4780  177.7470  143.2490 C   0  0  0  0  0  2  0  0  0  0  0  0
  188.9150  176.5110  141.7080 C   0  0  0  0  0  2  0  0  0  0  0  0
  190.0680  176.0030  141.0460 O   0  0  0  0  0  0  0  0  0  0  0  0
  189.7410  176.4650  138.6230 C   0  0  0  0  0  1  0  0  0  0  0  0
  190.5540  176.5600  139.8620 C   0  0  0  0  0  0  0  0  0  0  0  0
  191.6750  177.1350  139.8290 O   0  0  0  0  0  0  0  0  0  0  0  0
  185.4960  177.3020  138.1320 C   0  0  0  0  0  2  0  0  0  0  0  0
  186.3300  177.1050  136.8790 C   0  0  0  0  0  2  0  0  0  0  0  0
  187.2160  178.1710  136.7230 O   0  0  0  0  0  0  0  0  0  0  0  0
  187.9360  177.8630  135.5690 C   0  0  0  0  0  1  0  0  0  0  0  0
  2  8  1  0  0  0  0
  3 31  1  1  0  0  0
  3 23  1  0  0  0  0
  3 22  1  0  0  0  0
  4 19  1  0  0  0  0
  5 12  1  0  0  0  0
  5 16  1  0  0  0  0
  6 13  1  1  0  0  0
  6  4  1  0  0  0  0
  7  8  2  0  0  0  0
  8 11  1  0  0  0  0
  9 26  1  6  0  0  0
  9 25  1  0  0  0  0
  9 21  1  0  0  0  0
 10  9  1  0  0  0  0
 11 20  2  0  0  0  0
 12 25  1  1  0  0  0
 12  6  1  0  0  0  0
 14 24  2  0  0  0  0
 14 18  1  0  0  0  0
 15 10  1  0  0  0  0
 15 24  1  0  0  0  0
 16 20  1  0  0  0  0
 16  4  2  0  0  0  0
 17  1  2  0  0  0  0
 18  2  2  0  0  0  0
 19  1  1  0  0  0  0
 20 17  1  0  0  0  0
 21  7  1  6  0  0  0
 21  5  1  0  0  0  0
 22 14  1  0  0  0  0
 23 22  1  0  0  0  0
 24  7  1  0  0  0  0
 27 26  1  0  0  0  0
 28 29  1  0  0  0  0
 29 27  1  0  0  0  0
 30 29  2  0  0  0  0
 32 31  1  0  0  0  0
 33 32  1  0  0  0  0
 34 33  1  0  0  0  0
M  END
>  <MODEL>
4

>  <REMARK>
 VINA RESULT:      -7.4      2.684      6.724
  Name = 
  6 active torsions:
  status: ('A' for Active; 'I' for Inactive)
    1  A    between atoms: C_4  and  C_32
    2  A    between atoms: C_10  and  C_11
    3  A    between atoms: C_11  and  O_12
    4  A    between atoms: O_12  and  C_28
    5  A    between atoms: O_13  and  C_25
    6  A    between atoms: C_25  and  C_32
                            x       y       z     vdW  Elec       q    Type
                         _______ _______ _______ _____ _____    ______ ____

>  <TORSDO>
F 6

$$$$
=
 OpenBabel10222415123D

 34 40  0  0  1  0  0  0  0  0999 V2000
  183.3010  179.3780  144.8090 C   0  0  0  0  0  3  0  0  0  0  0  0
  186.2020  178.2400  139.5400 C   0  0  0  0  0  3  0  0  0  0  0  0
  190.9480  177.1930  138.0910 C   0  0  2  0  0  3  0  0  0  0  0  0
  185.3930  178.2590  145.3060 C   0  0  0  0  0  0  0  0  0  0  0  0
  186.9280  177.7200  143.8240 N   0  0  0  0  0  0  0  0  0  0  0  0
  186.5570  177.9340  146.0080 C   0  0  1  0  0  3  0  0  0  0  0  0
  187.6200  178.1050  141.4810 C   0  0  0  0  0  0  0  0  0  0  0  0
  186.3210  178.2910  140.9310 C   0  0  0  0  0  0  0  0  0  0  0  0
  189.1760  177.5410  143.4230 C   0  0  2  0  0  0  0  0  0  0  0  0
  190.3080  178.2840  142.7320 C   0  0  0  0  0  2  0  0  0  0  0  0
  185.1380  178.7090  141.6650 N   0  0  0  0  0  0  0  0  0  0  0  0
  187.4820  177.6020  145.0240 C   0  0  2  0  0  3  0  0  0  0  0  0
  186.8420  178.2160  147.4420 C   0  0  0  0  0  1  0  0  0  0  0  0
  188.5480  177.9770  139.2500 C   0  0  0  0  0  0  0  0  0  0  0  0
  190.1840  178.1040  141.1920 C   0  0  0  0  0  2  0  0  0  0  0  0
  185.6860  178.1350  143.9720 C   0  0  0  0  0  0  0  0  0  0  0  0
  183.6040  179.2800  143.3950 N   0  0  0  0  0  0  0  0  0  0  0  0
  187.2890  178.0610  138.7470 N   0  0  0  0  0  0  0  0  0  0  0  0
  184.1500  178.9120  145.7460 C   0  0  0  0  0  2  0  0  0  0  0  0
  184.8390  178.7030  142.9370 C   0  0  0  0  0  0  0  0  0  0  0  0
  187.9090  178.2150  142.9300 C   0  0  2  0  0  3  0  0  0  0  0  0
  189.6460  177.8130  138.3550 N   0  0  0  0  0  0  0  0  0  0  0  0
  190.1740  177.5030  137.0930 O   0  0  0  0  0  0  0  0  0  0  0  0
  188.7550  178.0580  140.6340 C   0  0  0  0  0  0  0  0  0  0  0  0
  188.9870  177.6830  144.9580 C   0  0  0  0  0  2  0  0  0  0  0  0
  189.2150  176.0390  143.0640 C   0  0  0  0  0  2  0  0  0  0  0  0
  190.5540  175.5850  142.8900 O   0  0  0  0  0  0  0  0  0  0  0  0
  191.7050  175.9900  145.0580 C   0  0  0  0  0  1  0  0  0  0  0  0
  191.3140  175.0850  143.9480 C   0  0  0  0  0  0  0  0  0  0  0  0
  191.6810  173.8790  143.9690 O   0  0  0  0  0  0  0  0  0  0  0  0
  190.8600  175.6980  138.3440 C   0  0  0  0  0  2  0  0  0  0  0  0
  192.1050  175.0010  137.8270 C   0  0  0  0  0  2  0  0  0  0  0  0
  193.2130  175.8360  137.9680 O   0  0  0  0  0  0  0  0  0  0  0  0
  194.3080  175.0150  137.6980 C   0  0  0  0  0  1  0  0  0  0  0  0
  1 19  1  0  0  0  0
  2  8  1  0  0  0  0
  3 31  1  1  0  0  0
  3 22  1  0  0  0  0
  4 19  1  0  0  0  0
  4  6  1  0  0  0  0
  5 16  1  0  0  0  0
  5 12  1  0  0  0  0
  6 13  1  6  0  0  0
  8  7  2  0  0  0  0
  8 11  1  0  0  0  0
  9 26  1  6  0  0  0
  9 25  1  0  0  0  0
 10  9  1  0  0  0  0
 11 20  2  0  0  0  0
 12 25  1  6  0  0  0
 12  6  1  0  0  0  0
 14 24  2  0  0  0  0
 15 10  1  0  0  0  0
 16  4  2  0  0  0  0
 17  1  2  0  0  0  0
 18 14  1  0  0  0  0
 18  2  2  0  0  0  0
 20 17  1  0  0  0  0
 20 16  1  0  0  0  0
 21  7  1  6  0  0  0
 21  9  1  0  0  0  0
 21  5  1  0  0  0  0
 22 14  1  0  0  0  0
 23  3  1  0  0  0  0
 23 22  1  0  0  0  0
 24 15  1  0  0  0  0
 24  7  1  0  0  0  0
 27 26  1  0  0  0  0
 27 29  1  0  0  0  0
 29 30  2  0  0  0  0
 29 28  1  0  0  0  0
 32 33  1  0  0  0  0
 32 31  1  0  0  0  0
 34 33  1  0  0  0  0
M  END
>  <MODEL>
5

>  <REMARK>
 VINA RESULT:      -7.3      2.486      6.763
  Name = 
  6 active torsions:
  status: ('A' for Active; 'I' for Inactive)
    1  A    between atoms: C_4  and  C_32
    2  A    between atoms: C_10  and  C_11
    3  A    between atoms: C_11  and  O_12
    4  A    between atoms: O_12  and  C_28
    5  A    between atoms: O_13  and  C_25
    6  A    between atoms: C_25  and  C_32
                            x       y       z     vdW  Elec       q    Type
                         _______ _______ _______ _____ _____    ______ ____

>  <TORSDO>
F 6

$$$$
=
 OpenBabel10222415123D

 34 40  0  0  1  0  0  0  0  0999 V2000
  184.9040  178.6310  147.0420 C   0  0  0  0  0  3  0  0  0  0  0  0
  184.1090  178.0960  140.9960 C   0  0  0  0  0  3  0  0  0  0  0  0
  187.0690  177.9630  136.8810 C   0  0  2  0  0  3  0  0  0  0  0  0
  186.9970  177.9180  146.0480 C   0  0  0  0  0  0  0  0  0  0  0  0
  187.3650  177.6860  143.8900 N   0  0  0  0  0  0  0  0  0  0  0  0
  188.3790  177.8100  145.8680 C   0  0  1  0  0  3  0  0  0  0  0  0
  186.4180  178.2120  141.6670 C   0  0  0  0  0  0  0  0  0  0  0  0
  185.0440  178.1570  142.0320 C   0  0  0  0  0  0  0  0  0  0  0  0
  188.8960  177.9330  142.2050 C   0  0  2  0  0  0  0  0  0  0  0  0
  189.2500  178.8790  141.0690 C   0  0  0  0  0  2  0  0  0  0  0  0
  184.5110  178.3420  143.3710 N   0  0  0  0  0  0  0  0  0  0  0  0
  188.5460  177.6640  144.4940 C   0  0  2  0  0  3  0  0  0  0  0  0
  189.4360  178.1290  146.8660 C   0  0  0  0  0  1  0  0  0  0  0  0
  185.7960  178.2760  139.3300 C   0  0  0  0  0  0  0  0  0  0  0  0
  188.2390  178.6920  139.9030 C   0  0  0  0  0  2  0  0  0  0  0  0
  186.4280  177.8610  144.8010 C   0  0  0  0  0  0  0  0  0  0  0  0
  184.2910  178.6020  145.7290 N   0  0  0  0  0  0  0  0  0  0  0  0
  184.4960  178.1290  139.6950 N   0  0  0  0  0  0  0  0  0  0  0  0
  186.2050  178.3240  147.2190 C   0  0  0  0  0  2  0  0  0  0  0  0
  185.0550  178.2700  144.5570 C   0  0  0  0  0  0  0  0  0  0  0  0
  187.5120  178.3620  142.6550 C   0  0  2  0  0  3  0  0  0  0  0  0
  186.1280  178.3270  137.9430 N   0  0  0  0  0  0  0  0  0  0  0  0
  185.8130  178.1310  136.5910 O   0  0  0  0  0  0  0  0  0  0  0  0
  186.7910  178.3840  140.3110 C   0  0  0  0  0  0  0  0  0  0  0  0
  189.6660  178.0250  143.5510 C   0  0  0  0  0  2  0  0  0  0  0  0
  188.9220  176.4670  141.7180 C   0  0  0  0  0  2  0  0  0  0  0  0
  190.2540  176.0300  141.4690 O   0  0  0  0  0  0  0  0  0  0  0  0
  192.1840  177.2260  140.4510 C   0  0  0  0  0  1  0  0  0  0  0  0
  190.9580  176.3980  140.3210 C   0  0  0  0  0  0  0  0  0  0  0  0
  190.5620  176.0460  139.1780 O   0  0  0  0  0  0  0  0  0  0  0  0
  187.3690  176.4760  136.9540 C   0  0  0  0  0  2  0  0  0  0  0  0
  187.4810  175.8900  135.5580 C   0  0  0  0  0  2  0  0  0  0  0  0
  188.1710  174.6790  135.6050 O   0  0  0  0  0  0  0  0  0  0  0  0
  188.7510  174.6530  136.8730 C   0  0  0  0  0  1  0  0  0  0  0  0
  1 19  1  0  0  0  0
  2  8  1  0  0  0  0
  3 31  1  1  0  0  0
  3 22  1  0  0  0  0
  4 19  1  0  0  0  0
  5 12  1  0  0  0  0
  5 16  1  0  0  0  0
  6  4  1  0  0  0  0
  6 13  1  6  0  0  0
  7  8  2  0  0  0  0
  8 11  1  0  0  0  0
  9 26  1  6  0  0  0
  9 21  1  0  0  0  0
  9 25  1  0  0  0  0
 10  9  1  0  0  0  0
 11 20  2  0  0  0  0
 12 25  1  6  0  0  0
 12  6  1  0  0  0  0
 14 18  1  0  0  0  0
 14 24  2  0  0  0  0
 15 24  1  0  0  0  0
 15 10  1  0  0  0  0
 16  4  2  0  0  0  0
 17  1  2  0  0  0  0
 18  2  2  0  0  0  0
 20 16  1  0  0  0  0
 20 17  1  0  0  0  0
 21  7  1  6  0  0  0
 21  5  1  0  0  0  0
 22 14  1  0  0  0  0
 23  3  1  0  0  0  0
 23 22  1  0  0  0  0
 24  7  1  0  0  0  0
 27 26  1  0  0  0  0
 29 28  1  0  0  0  0
 29 27  1  0  0  0  0
 30 29  2  0  0  0  0
 32 33  1  0  0  0  0
 32 31  1  0  0  0  0
 33 34  1  0  0  0  0
M  END
>  <MODEL>
6

>  <REMARK>
 VINA RESULT:      -6.4      2.986      6.926
  Name = 
  6 active torsions:
  status: ('A' for Active; 'I' for Inactive)
    1  A    between atoms: C_4  and  C_32
    2  A    between atoms: C_10  and  C_11
    3  A    between atoms: C_11  and  O_12
    4  A    between atoms: O_12  and  C_28
    5  A    between atoms: O_13  and  C_25
    6  A    between atoms: C_25  and  C_32
                            x       y       z     vdW  Elec       q    Type
                         _______ _______ _______ _____ _____    ______ ____

>  <TORSDO>
F 6

$$$$
