=
 OpenBabel10222421033D

 38 43  0  0  1  0  0  0  0  0999 V2000
  186.6470  177.6300  137.5240 C   0  0  1  0  0  3  0  0  0  0  0  0
  187.2620  176.3200  137.7070 N   0  0  0  0  0  0  0  0  0  0  0  0
  186.6610  178.6640  140.8200 C   0  0  2  0  0  3  0  0  0  0  0  0
  184.4120  177.6870  138.6740 N   0  0  0  0  0  2  0  0  0  0  0  0
  188.7140  177.5140  140.0650 C   0  0  0  0  0  2  0  0  0  0  0  0
  183.1820  178.5060  141.3570 C   0  0  0  0  0  2  0  0  0  0  0  0
  187.6270  177.7390  142.8260 N   0  0  0  0  0  0  0  0  0  0  0  0
  180.9010  180.0160  138.8020 N   0  0  0  0  0  0  0  0  0  0  0  0
  184.6580  178.6790  141.5320 C   0  0  0  0  0  0  0  0  0  0  0  0
  180.7640  180.0610  136.3410 C   0  0  0  0  0  1  0  0  0  0  0  0
  185.4370  179.1170  140.5320 N   0  0  0  0  0  0  0  0  0  0  0  0
  181.4240  179.6410  137.6060 C   0  0  0  0  0  0  0  0  0  0  0  0
  186.3840  175.4080  136.9850 C   0  0  0  0  0  2  0  0  0  0  0  0
  184.9780  175.9800  136.9740 C   0  0  2  0  0  3  0  0  0  0  0  0
  185.3440  178.0690  142.5210 N   0  0  0  0  0  2  0  0  0  0  0  0
  187.5390  178.4100  139.8420 C   0  0  1  0  0  3  0  0  0  0  0  0
  185.1300  177.4330  137.4240 C   0  0  2  0  0  3  0  0  0  0  0  0
  183.2080  178.4700  138.7450 C   0  0  0  0  0  0  0  0  0  0  0  0
  189.0240  177.8780  142.5090 C   0  0  0  0  0  3  0  0  0  0  0  0
  182.5830  178.8700  137.5590 C   0  0  0  0  0  3  0  0  0  0  0  0
  181.4860  179.6580  139.9780 C   0  0  0  0  0  3  0  0  0  0  0  0
  186.6200  178.1060  142.0860 C   0  0  0  0  0  0  0  0  0  0  0  0
  189.5220  177.8480  141.2750 C   0  0  0  0  0  3  0  0  0  0  0  0
  182.6540  178.8900  139.9920 C   0  0  0  0  0  0  0  0  0  0  0  0
  187.1180  178.6470  138.4860 N   0  0  0  0  0  2  0  0  0  0  0  0
  184.1330  175.1830  137.8560 N   0  0  0  0  0  2  0  0  0  0  0  0
  183.2060  174.4330  137.0280 C   0  0  2  0  0  3  0  0  0  0  0  0
  182.1710  175.3890  136.4640 C   0  0  0  0  0  2  0  0  0  0  0  0
  181.8170  174.4980  137.6380 C   0  0  1  0  0  3  0  0  0  0  0  0
  180.4150  173.3420  135.4300 O   0  0  0  0  0  0  0  0  0  0  0  0
  179.5590  172.9790  137.8720 O   0  0  0  0  0  1  0  0  0  0  0  0
  181.7000  171.6390  137.1830 O   0  0  0  0  0  1  0  0  0  0  0  0
  180.8270  173.0860  137.0540 P   0  0  0  0  0  0  0  0  0  0  0  0
  188.5440  176.3360  137.0020 C   0  0  0  0  0  2  0  0  0  0  0  0
  189.2930  175.2210  134.9800 N   0  0  0  0  0  1  0  0  0  0  0  0
  188.8470  174.9880  136.3380 C   0  0  1  0  0  3  0  0  0  0  0  0
  190.4930  174.9930  138.0840 O   0  0  0  0  0  1  0  0  0  0  0  0
  189.9190  174.2010  137.0810 C   0  0  0  0  0  2  0  0  0  0  0  0
  1  2  1  0  0  0  0
  1 25  1  1  0  0  0
  3 11  1  6  0  0  0
  3 22  1  0  0  0  0
  4 18  1  0  0  0  0
  5 23  1  0  0  0  0
  6  9  1  0  0  0  0
  8 21  1  0  0  0  0
  9 15  1  0  0  0  0
 10 12  1  0  0  0  0
 11  9  2  0  0  0  0
 12  8  2  0  0  0  0
 13  2  1  0  0  0  0
 14 13  1  0  0  0  0
 14 17  1  0  0  0  0
 14 26  1  1  0  0  0
 16  5  1  6  0  0  0
 16  3  1  0  0  0  0
 17  1  1  0  0  0  0
 17  4  1  1  0  0  0
 18 24  1  0  0  0  0
 19  7  1  0  0  0  0
 20 12  1  0  0  0  0
 20 18  2  0  0  0  0
 21 24  2  0  0  0  0
 22 15  1  0  0  0  0
 22  7  2  0  0  0  0
 23 19  2  0  0  0  0
 24  6  1  0  0  0  0
 25 16  1  0  0  0  0
 27 29  1  0  0  0  0
 27 26  1  1  0  0  0
 28 27  1  0  0  0  0
 28 29  1  0  0  0  0
 29 33  1  6  0  0  0
 30 33  2  0  0  0  0
 33 32  1  0  0  0  0
 33 31  1  0  0  0  0
 34  2  1  0  0  0  0
 36 35  1  6  0  0  0
 36 34  1  0  0  0  0
 36 38  1  0  0  0  0
 38 37  1  0  0  0  0
M  END
>  <MODEL>
1

>  <REMARK>
 VINA RESULT:      -6.7      0.000      0.000
  Name = 
  6 active torsions:
  status: ('A' for Active; 'I' for Inactive)
    1  A    between atoms: N_2  and  C_38
    2  A    between atoms: C_8  and  N_29
    3  A    between atoms: CA_13  and  C_17
    4  A    between atoms: CA_13  and  C_38
    5  A    between atoms: C_23  and  N_29
    6  A    between atoms: P_24  and  C_37
                            x       y       z     vdW  Elec       q    Type
                         _______ _______ _______ _____ _____    ______ ____

>  <TORSDO>
F 6

$$$$
=
 OpenBabel10222421033D

 38 43  0  0  1  0  0  0  0  0999 V2000
  187.5840  177.5810  137.1580 C   0  0  1  0  0  3  0  0  0  0  0  0
  186.9590  177.7670  138.4630 N   0  0  0  0  0  0  0  0  0  0  0  0
  186.4400  174.3900  136.4940 C   0  0  2  0  0  3  0  0  0  0  0  0
  189.2950  175.7440  137.2900 N   0  0  0  0  0  2  0  0  0  0  0  0
  184.7790  175.9210  137.4980 C   0  0  0  0  0  2  0  0  0  0  0  0
  189.5320  172.7290  136.8070 C   0  0  0  0  0  2  0  0  0  0  0  0
  184.8610  172.9490  137.6090 N   0  0  0  0  0  0  0  0  0  0  0  0
  192.5270  174.1720  135.0870 N   0  0  0  0  0  0  0  0  0  0  0  0
  188.0820  173.0450  136.6140 C   0  0  0  0  0  0  0  0  0  0  0  0
  193.4900  176.4200  134.7740 C   0  0  0  0  0  1  0  0  0  0  0  0
  187.6840  174.1940  136.0460 N   0  0  0  0  0  0  0  0  0  0  0  0
  192.4450  175.5090  135.3120 C   0  0  0  0  0  0  0  0  0  0  0  0
  188.0410  178.2480  139.3140 C   0  0  0  0  0  2  0  0  0  0  0  0
  189.3600  177.7170  138.7820 C   0  0  2  0  0  3  0  0  0  0  0  0
  187.1080  172.4230  137.3100 N   0  0  0  0  0  2  0  0  0  0  0  0
  185.9500  175.6300  136.6140 C   0  0  1  0  0  3  0  0  0  0  0  0
  189.0470  177.1830  137.3840 C   0  0  2  0  0  3  0  0  0  0  0  0
  190.3940  175.1810  136.5530 C   0  0  0  0  0  0  0  0  0  0  0  0
  183.6530  173.7010  137.3970 C   0  0  0  0  0  3  0  0  0  0  0  0
  191.3800  176.0330  136.0420 C   0  0  0  0  0  3  0  0  0  0  0  0
  191.5820  173.3120  135.5570 C   0  0  0  0  0  3  0  0  0  0  0  0
  186.0560  173.2570  137.1900 C   0  0  0  0  0  0  0  0  0  0  0  0
  183.6040  175.0260  137.2770 C   0  0  0  0  0  3  0  0  0  0  0  0
  190.4880  173.7820  136.2890 C   0  0  0  0  0  0  0  0  0  0  0  0
  186.8030  176.7270  136.2410 N   0  0  0  0  0  2  0  0  0  0  0  0
  189.8650  176.6970  139.6950 N   0  0  0  0  0  2  0  0  0  0  0  0
  190.1580  177.3390  140.9630 C   0  0  2  0  0  3  0  0  0  0  0  0
  191.6630  177.4870  141.0990 C   0  0  0  0  0  2  0  0  0  0  0  0
  190.9410  176.3820  141.8450 C   0  0  1  0  0  3  0  0  0  0  0  0
  191.1660  178.4870  143.7670 O   0  0  0  0  0  0  0  0  0  0  0  0
  191.6500  176.0130  144.4570 O   0  0  0  0  0  1  0  0  0  0  0  0
  189.1360  176.6450  144.0960 O   0  0  0  0  0  1  0  0  0  0  0  0
  190.7400  176.8560  143.5910 P   0  0  0  0  0  0  0  0  0  0  0  0
  185.9920  178.8580  138.3340 C   0  0  0  0  0  2  0  0  0  0  0  0
  185.3670  179.3770  140.6220 N   0  0  0  0  0  1  0  0  0  0  0  0
  184.8900  178.7720  139.3950 C   0  0  1  0  0  3  0  0  0  0  0  0
  183.8230  180.8600  138.8830 O   0  0  0  0  0  1  0  0  0  0  0  0
  183.6110  179.4780  138.9630 C   0  0  0  0  0  2  0  0  0  0  0  0
  1 25  1  1  0  0  0
  1 17  1  0  0  0  0
  1  2  1  0  0  0  0
  2 13  1  0  0  0  0
  3 11  1  1  0  0  0
  3 16  1  0  0  0  0
  3 22  1  0  0  0  0
  8 12  2  0  0  0  0
  8 21  1  0  0  0  0
  9  6  1  0  0  0  0
  9 15  1  0  0  0  0
 10 12  1  0  0  0  0
 11  9  2  0  0  0  0
 12 20  1  0  0  0  0
 14 13  1  0  0  0  0
 14 26  1  1  0  0  0
 16  5  1  1  0  0  0
 17  4  1  1  0  0  0
 17 14  1  0  0  0  0
 18  4  1  0  0  0  0
 19  7  1  0  0  0  0
 20 18  2  0  0  0  0
 21 24  2  0  0  0  0
 22 15  1  0  0  0  0
 22  7  2  0  0  0  0
 23 19  2  0  0  0  0
 23  5  1  0  0  0  0
 24 18  1  0  0  0  0
 24  6  1  0  0  0  0
 25 16  1  0  0  0  0
 27 26  1  6  0  0  0
 27 28  1  0  0  0  0
 27 29  1  0  0  0  0
 28 29  1  0  0  0  0
 29 33  1  1  0  0  0
 33 30  2  0  0  0  0
 33 32  1  0  0  0  0
 33 31  1  0  0  0  0
 34  2  1  0  0  0  0
 34 36  1  0  0  0  0
 36 35  1  1  0  0  0
 37 38  1  0  0  0  0
 38 36  1  0  0  0  0
M  END
>  <MODEL>
2

>  <REMARK>
 VINA RESULT:      -6.1      3.955      8.749
  Name = 
  6 active torsions:
  status: ('A' for Active; 'I' for Inactive)
    1  A    between atoms: N_2  and  C_38
    2  A    between atoms: C_8  and  N_29
    3  A    between atoms: CA_13  and  C_17
    4  A    between atoms: CA_13  and  C_38
    5  A    between atoms: C_23  and  N_29
    6  A    between atoms: P_24  and  C_37
                            x       y       z     vdW  Elec       q    Type
                         _______ _______ _______ _____ _____    ______ ____

>  <TORSDO>
F 6

$$$$
=
 OpenBabel10222421033D

 38 43  0  0  1  0  0  0  0  0999 V2000
  187.5150  178.0020  137.3990 C   0  0  1  0  0  3  0  0  0  0  0  0
  188.1960  176.7230  137.2370 N   0  0  0  0  0  0  0  0  0  0  0  0
  187.9730  178.3950  140.8000 C   0  0  2  0  0  3  0  0  0  0  0  0
  185.4720  177.7010  138.8310 N   0  0  0  0  0  2  0  0  0  0  0  0
  189.9330  177.5390  139.5620 C   0  0  0  0  0  2  0  0  0  0  0  0
  184.6170  177.9200  141.7640 C   0  0  0  0  0  2  0  0  0  0  0  0
  189.2530  177.1700  142.4350 N   0  0  0  0  0  0  0  0  0  0  0  0
  181.9370  179.7380  139.8890 N   0  0  0  0  0  0  0  0  0  0  0  0
  186.0970  178.1490  141.7670 C   0  0  0  0  0  0  0  0  0  0  0  0
  181.4410  180.2380  137.5270 C   0  0  0  0  0  1  0  0  0  0  0  0
  186.7050  178.8170  140.7760 N   0  0  0  0  0  0  0  0  0  0  0  0
  182.2920  179.6300  138.5830 C   0  0  0  0  0  0  0  0  0  0  0  0
  187.2550  175.9090  136.4760 C   0  0  0  0  0  2  0  0  0  0  0  0
  185.8430  176.3840  136.7690 C   0  0  2  0  0  3  0  0  0  0  0  0
  186.9410  177.4080  142.5150 N   0  0  0  0  0  2  0  0  0  0  0  0
  188.7070  178.3860  139.6800 C   0  0  1  0  0  3  0  0  0  0  0  0
  186.0080  177.7330  137.4700 C   0  0  2  0  0  3  0  0  0  0  0  0
  184.2640  178.3790  139.2170 C   0  0  0  0  0  0  0  0  0  0  0  0
  190.5840  177.4540  141.9650 C   0  0  0  0  0  3  0  0  0  0  0  0
  183.4580  178.9550  138.2290 C   0  0  0  0  0  3  0  0  0  0  0  0
  182.6990  179.2020  140.8820 C   0  0  0  0  0  3  0  0  0  0  0  0
  188.1370  177.6060  141.9260 C   0  0  0  0  0  0  0  0  0  0  0  0
  190.8970  177.6890  140.6920 C   0  0  0  0  0  3  0  0  0  0  0  0
  183.8830  178.5210  140.5860 C   0  0  0  0  0  0  0  0  0  0  0  0
  188.0850  178.8470  138.4680 N   0  0  0  0  0  2  0  0  0  0  0  0
  185.1640  175.3840  137.5850 N   0  0  0  0  0  2  0  0  0  0  0  0
  184.4740  174.4720  136.6910 C   0  0  2  0  0  3  0  0  0  0  0  0
  183.1250  174.1260  137.2940 C   0  0  0  0  0  2  0  0  0  0  0  0
  184.2710  173.1380  137.3880 C   0  0  1  0  0  3  0  0  0  0  0  0
  185.5720  171.3510  135.5740 O   0  0  0  0  0  1  0  0  0  0  0  0
  183.2320  172.3550  134.9870 O   0  0  0  0  0  0  0  0  0  0  0  0
  183.2630  170.4820  136.8150 O   0  0  0  0  0  1  0  0  0  0  0  0
  184.0480  171.8270  136.1450 P   0  0  0  0  0  0  0  0  0  0  0  0
  189.3600  176.9510  136.3800 C   0  0  0  0  0  2  0  0  0  0  0  0
  191.5820  176.0270  136.0560 N   0  0  0  0  0  1  0  0  0  0  0  0
  190.1830  175.6730  136.1800 C   0  0  1  0  0  3  0  0  0  0  0  0
  191.2360  174.5480  138.0190 O   0  0  0  0  0  1  0  0  0  0  0  0
  190.0230  174.6920  137.3340 C   0  0  0  0  0  2  0  0  0  0  0  0
  1 17  1  0  0  0  0
  1 25  1  1  0  0  0
  2  1  1  0  0  0  0
  3 11  1  6  0  0  0
  3 22  1  0  0  0  0
  4 18  1  0  0  0  0
  5 23  1  0  0  0  0
  6  9  1  0  0  0  0
  8 21  1  0  0  0  0
  9 15  1  0  0  0  0
 10 12  1  0  0  0  0
 11  9  2  0  0  0  0
 12  8  2  0  0  0  0
 13 14  1  0  0  0  0
 13  2  1  0  0  0  0
 14 17  1  0  0  0  0
 14 26  1  1  0  0  0
 16  5  1  6  0  0  0
 16  3  1  0  0  0  0
 17  4  1  1  0  0  0
 18 24  1  0  0  0  0
 19  7  1  0  0  0  0
 20 12  1  0  0  0  0
 20 18  2  0  0  0  0
 22  7  2  0  0  0  0
 22 15  1  0  0  0  0
 23 19  2  0  0  0  0
 24 21  2  0  0  0  0
 24  6  1  0  0  0  0
 25 16  1  0  0  0  0
 27 28  1  0  0  0  0
 27 29  1  0  0  0  0
 27 26  1  1  0  0  0
 28 29  1  0  0  0  0
 29 33  1  6  0  0  0
 30 33  1  0  0  0  0
 31 33  2  0  0  0  0
 33 32  1  0  0  0  0
 34  2  1  0  0  0  0
 36 35  1  1  0  0  0
 36 34  1  0  0  0  0
 36 38  1  0  0  0  0
 38 37  1  0  0  0  0
M  END
>  <MODEL>
3

>  <REMARK>
 VINA RESULT:      -5.8      1.587      1.928
  Name = 
  6 active torsions:
  status: ('A' for Active; 'I' for Inactive)
    1  A    between atoms: N_2  and  C_38
    2  A    between atoms: C_8  and  N_29
    3  A    between atoms: CA_13  and  C_17
    4  A    between atoms: CA_13  and  C_38
    5  A    between atoms: C_23  and  N_29
    6  A    between atoms: P_24  and  C_37
                            x       y       z     vdW  Elec       q    Type
                         _______ _______ _______ _____ _____    ______ ____

>  <TORSDO>
F 6

$$$$
=
 OpenBabel10222421033D

 38 43  0  0  1  0  0  0  0  0999 V2000
  184.7950  178.9280  139.0950 C   0  0  1  0  0  3  0  0  0  0  0  0
  185.3650  177.6270  138.7620 N   0  0  0  0  0  0  0  0  0  0  0  0
  185.5320  178.9570  142.4690 C   0  0  2  0  0  3  0  0  0  0  0  0
  182.8470  178.6270  140.6540 N   0  0  0  0  0  2  0  0  0  0  0  0
  187.3260  178.0950  141.0030 C   0  0  0  0  0  2  0  0  0  0  0  0
  182.2320  178.6170  143.6550 C   0  0  0  0  0  2  0  0  0  0  0  0
  186.8360  177.4960  143.8760 N   0  0  0  0  0  0  0  0  0  0  0  0
  179.5620  180.7850  142.1770 N   0  0  0  0  0  0  0  0  0  0  0  0
  183.7200  178.7450  143.5590 C   0  0  0  0  0  0  0  0  0  0  0  0
  178.9310  181.5440  139.9190 C   0  0  0  0  0  1  0  0  0  0  0  0
  184.3010  179.4630  142.5870 N   0  0  0  0  0  0  0  0  0  0  0  0
  179.8110  180.7800  140.8430 C   0  0  0  0  0  0  0  0  0  0  0  0
  184.3120  176.9570  138.0090 C   0  0  0  0  0  2  0  0  0  0  0  0
  182.9650  177.4950  138.4570 C   0  0  2  0  0  3  0  0  0  0  0  0
  184.5600  177.8790  144.1650 N   0  0  0  0  0  2  0  0  0  0  0  0
  186.1790  179.0070  141.2980 C   0  0  1  0  0  3  0  0  0  0  0  0
  183.2810  178.7550  139.2630 C   0  0  2  0  0  3  0  0  0  0  0  0
  181.7250  179.3440  141.1980 C   0  0  0  0  0  0  0  0  0  0  0  0
  188.1450  177.7340  143.3280 C   0  0  0  0  0  3  0  0  0  0  0  0
  180.8940  180.0660  140.3340 C   0  0  0  0  0  3  0  0  0  0  0  0
  180.3540  180.1050  143.0520 C   0  0  0  0  0  3  0  0  0  0  0  0
  185.7200  178.0530  143.5010 C   0  0  0  0  0  0  0  0  0  0  0  0
  188.3800  178.0690  142.0610 C   0  0  0  0  0  3  0  0  0  0  0  0
  181.4580  179.3770  142.6000 C   0  0  0  0  0  0  0  0  0  0  0  0
  185.5040  179.6250  140.1870 N   0  0  0  0  0  2  0  0  0  0  0  0
  182.2760  176.4680  139.2300 N   0  0  0  0  0  2  0  0  0  0  0  0
  181.1740  175.9690  138.4280 C   0  0  2  0  0  3  0  0  0  0  0  0
  180.1320  175.3650  139.3520 C   0  0  0  0  0  2  0  0  0  0  0  0
  181.0770  174.4610  138.5840 C   0  0  1  0  0  3  0  0  0  0  0  0
  179.5950  172.2320  137.5770 O   0  0  0  0  0  1  0  0  0  0  0  0
  181.1790  173.5850  135.9990 O   0  0  0  0  0  0  0  0  0  0  0  0
  178.9310  174.7510  136.6590 O   0  0  0  0  0  1  0  0  0  0  0  0
  180.2100  173.7530  137.1490 P   0  0  0  0  0  0  0  0  0  0  0  0
  186.4760  177.8600  137.8380 C   0  0  0  0  0  2  0  0  0  0  0  0
  187.0280  177.2860  135.5450 N   0  0  0  0  0  1  0  0  0  0  0  0
  186.6150  176.7270  136.8150 C   0  0  1  0  0  3  0  0  0  0  0  0
  188.9250  176.0850  136.9030 O   0  0  0  0  0  1  0  0  0  0  0  0
  187.6300  175.6750  137.2450 C   0  0  0  0  0  2  0  0  0  0  0  0
  1 17  1  0  0  0  0
  1 25  1  1  0  0  0
  2  1  1  0  0  0  0
  3 11  1  6  0  0  0
  3 22  1  0  0  0  0
  4 18  1  0  0  0  0
  5 23  1  0  0  0  0
  8 21  1  0  0  0  0
  9  6  1  0  0  0  0
  9 15  1  0  0  0  0
 10 12  1  0  0  0  0
 11  9  2  0  0  0  0
 12  8  2  0  0  0  0
 13 14  1  0  0  0  0
 13  2  1  0  0  0  0
 14 26  1  1  0  0  0
 14 17  1  0  0  0  0
 16  5  1  6  0  0  0
 16  3  1  0  0  0  0
 17  4  1  1  0  0  0
 18 24  1  0  0  0  0
 19  7  1  0  0  0  0
 20 12  1  0  0  0  0
 20 18  2  0  0  0  0
 22  7  2  0  0  0  0
 22 15  1  0  0  0  0
 23 19  2  0  0  0  0
 24 21  2  0  0  0  0
 24  6  1  0  0  0  0
 25 16  1  0  0  0  0
 27 29  1  0  0  0  0
 27 26  1  1  0  0  0
 27 28  1  0  0  0  0
 29 33  1  6  0  0  0
 29 28  1  0  0  0  0
 31 33  2  0  0  0  0
 32 33  1  0  0  0  0
 33 30  1  0  0  0  0
 34  2  1  0  0  0  0
 36 35  1  6  0  0  0
 36 38  1  0  0  0  0
 36 34  1  0  0  0  0
 37 38  1  0  0  0  0
M  END
>  <MODEL>
4

>  <REMARK>
 VINA RESULT:      -5.7      1.827      2.704
  Name = 
  6 active torsions:
  status: ('A' for Active; 'I' for Inactive)
    1  A    between atoms: N_2  and  C_38
    2  A    between atoms: C_8  and  N_29
    3  A    between atoms: CA_13  and  C_17
    4  A    between atoms: CA_13  and  C_38
    5  A    between atoms: C_23  and  N_29
    6  A    between atoms: P_24  and  C_37
                            x       y       z     vdW  Elec       q    Type
                         _______ _______ _______ _____ _____    ______ ____

>  <TORSDO>
F 6

$$$$
=
 OpenBabel10222421033D

 38 43  0  0  1  0  0  0  0  0999 V2000
  182.2750  178.3340  136.8570 C   0  0  1  0  0  3  0  0  0  0  0  0
  181.2500  178.4280  137.8910 N   0  0  0  0  0  0  0  0  0  0  0  0
  181.9620  174.9700  136.1350 C   0  0  2  0  0  3  0  0  0  0  0  0
  184.1460  176.8550  137.6490 N   0  0  0  0  0  2  0  0  0  0  0  0
  179.8330  176.1840  136.4600 C   0  0  0  0  0  2  0  0  0  0  0  0
  185.0360  173.9270  137.5050 C   0  0  0  0  0  2  0  0  0  0  0  0
  180.3850  173.2840  136.8290 N   0  0  0  0  0  0  0  0  0  0  0  0
  188.1250  175.8690  136.6660 N   0  0  0  0  0  0  0  0  0  0  0  0
  183.6880  173.9610  136.8550 C   0  0  0  0  0  0  0  0  0  0  0  0
  188.7380  178.2490  136.4820 C   0  0  0  0  0  1  0  0  0  0  0  0
  183.2970  175.0010  136.1030 N   0  0  0  0  0  0  0  0  0  0  0  0
  187.7490  177.1710  136.7480 C   0  0  0  0  0  0  0  0  0  0  0  0
  181.9110  179.1230  138.9890 C   0  0  0  0  0  2  0  0  0  0  0  0
  183.4010  178.8380  138.9280 C   0  0  2  0  0  3  0  0  0  0  0  0
  182.6670  173.1820  137.2700 N   0  0  0  0  0  2  0  0  0  0  0  0
  181.2530  176.0990  136.0010 C   0  0  1  0  0  3  0  0  0  0  0  0
  183.6390  178.2230  137.5480 C   0  0  2  0  0  3  0  0  0  0  0  0
  185.5000  176.4920  137.3290 C   0  0  0  0  0  0  0  0  0  0  0  0
  179.1940  173.7910  136.2000 C   0  0  0  0  0  3  0  0  0  0  0  0
  186.4360  177.5010  137.0760 C   0  0  0  0  0  3  0  0  0  0  0  0
  187.2430  174.8570  136.8940 C   0  0  0  0  0  3  0  0  0  0  0  0
  181.5790  173.8010  136.7700 C   0  0  0  0  0  0  0  0  0  0  0  0
  178.9580  175.0800  135.9650 C   0  0  0  0  0  3  0  0  0  0  0  0
  185.9110  175.1290  137.2190 C   0  0  0  0  0  0  0  0  0  0  0  0
  181.9790  177.3270  135.8170 N   0  0  0  0  0  2  0  0  0  0  0  0
  183.7610  177.9520  140.0290 N   0  0  0  0  0  2  0  0  0  0  0  0
  184.0570  178.7770  141.1870 C   0  0  2  0  0  3  0  0  0  0  0  0
  185.5630  178.8500  141.3610 C   0  0  0  0  0  2  0  0  0  0  0  0
  184.7430  177.9320  142.2460 C   0  0  1  0  0  3  0  0  0  0  0  0
  182.8800  178.6160  144.3050 O   0  0  0  0  0  1  0  0  0  0  0  0
  184.9360  180.1550  143.8220 O   0  0  0  0  0  0  0  0  0  0  0  0
  185.4400  177.9040  145.0590 O   0  0  0  0  0  1  0  0  0  0  0  0
  184.5190  178.7030  143.8810 P   0  0  0  0  0  0  0  0  0  0  0  0
  180.2010  179.3150  137.3870 C   0  0  0  0  0  2  0  0  0  0  0  0
  180.3150  180.5560  135.3040 N   0  0  0  0  0  1  0  0  0  0  0  0
  180.7820  180.5410  136.6740 C   0  0  1  0  0  3  0  0  0  0  0  0
  181.4900  182.4230  137.9830 O   0  0  0  0  0  1  0  0  0  0  0  0
  180.3830  181.8480  137.3460 C   0  0  0  0  0  2  0  0  0  0  0  0
  1 25  1  1  0  0  0
  1 17  1  0  0  0  0
  1  2  1  0  0  0  0
  2 13  1  0  0  0  0
  3 11  1  1  0  0  0
  3 22  1  0  0  0  0
  8 12  2  0  0  0  0
  8 21  1  0  0  0  0
  9 15  1  0  0  0  0
  9  6  1  0  0  0  0
 10 12  1  0  0  0  0
 11  9  2  0  0  0  0
 12 20  1  0  0  0  0
 14 13  1  0  0  0  0
 14 26  1  1  0  0  0
 16  3  1  0  0  0  0
 16  5  1  1  0  0  0
 17  4  1  1  0  0  0
 17 14  1  0  0  0  0
 18  4  1  0  0  0  0
 19  7  1  0  0  0  0
 20 18  2  0  0  0  0
 21 24  2  0  0  0  0
 22  7  2  0  0  0  0
 22 15  1  0  0  0  0
 23 19  2  0  0  0  0
 23  5  1  0  0  0  0
 24 18  1  0  0  0  0
 24  6  1  0  0  0  0
 25 16  1  0  0  0  0
 27 26  1  6  0  0  0
 27 28  1  0  0  0  0
 27 29  1  0  0  0  0
 28 29  1  0  0  0  0
 29 33  1  1  0  0  0
 31 33  2  0  0  0  0
 33 30  1  0  0  0  0
 33 32  1  0  0  0  0
 34  2  1  0  0  0  0
 36 35  1  6  0  0  0
 36 38  1  0  0  0  0
 36 34  1  0  0  0  0
 38 37  1  0  0  0  0
M  END
>  <MODEL>
5

>  <REMARK>
 VINA RESULT:      -5.0      3.938      8.089
  Name = 
  6 active torsions:
  status: ('A' for Active; 'I' for Inactive)
    1  A    between atoms: N_2  and  C_38
    2  A    between atoms: C_8  and  N_29
    3  A    between atoms: CA_13  and  C_17
    4  A    between atoms: CA_13  and  C_38
    5  A    between atoms: C_23  and  N_29
    6  A    between atoms: P_24  and  C_37
                            x       y       z     vdW  Elec       q    Type
                         _______ _______ _______ _____ _____    ______ ____

>  <TORSDO>
F 6

$$$$
=
 OpenBabel10222421033D

 38 43  0  0  1  0  0  0  0  0999 V2000
  188.5320  177.2770  136.1240 C   0  0  1  0  0  3  0  0  0  0  0  0
  187.6390  177.3290  137.2760 N   0  0  0  0  0  0  0  0  0  0  0  0
  188.1470  173.9380  135.3310 C   0  0  2  0  0  3  0  0  0  0  0  0
  190.4910  175.7890  136.6340 N   0  0  0  0  0  2  0  0  0  0  0  0
  186.0680  175.1230  135.9510 C   0  0  0  0  0  2  0  0  0  0  0  0
  191.3690  172.8750  136.2840 C   0  0  0  0  0  2  0  0  0  0  0  0
  186.6730  172.2160  136.1520 N   0  0  0  0  0  0  0  0  0  0  0  0
  194.3260  174.8680  135.1460 N   0  0  0  0  0  0  0  0  0  0  0  0
  189.9520  172.9190  135.8030 C   0  0  0  0  0  0  0  0  0  0  0  0
  194.9020  177.2580  134.9690 C   0  0  0  0  0  1  0  0  0  0  0  0
  189.4690  173.9800  135.1390 N   0  0  0  0  0  0  0  0  0  0  0  0
  193.9570  176.1630  135.3170 C   0  0  0  0  0  0  0  0  0  0  0  0
  188.4250  177.9930  138.3090 C   0  0  0  0  0  2  0  0  0  0  0  0
  189.8970  177.7220  138.0600 C   0  0  2  0  0  3  0  0  0  0  0  0
  188.9910  172.1190  136.3120 N   0  0  0  0  0  2  0  0  0  0  0  0
  187.4230  175.0640  135.3210 C   0  0  1  0  0  3  0  0  0  0  0  0
  189.9690  177.1550  136.6410 C   0  0  2  0  0  3  0  0  0  0  0  0
  191.7980  175.4480  136.1410 C   0  0  0  0  0  0  0  0  0  0  0  0
  185.4120  172.7340  135.6900 C   0  0  0  0  0  3  0  0  0  0  0  0
  192.6920  176.4730  135.8110 C   0  0  0  0  0  3  0  0  0  0  0  0
  193.4820  173.8420  135.4440 C   0  0  0  0  0  3  0  0  0  0  0  0
  187.8490  172.7450  135.9670 C   0  0  0  0  0  0  0  0  0  0  0  0
  185.1450  174.0280  135.5280 C   0  0  0  0  0  3  0  0  0  0  0  0
  192.1970  174.0930  135.9360 C   0  0  0  0  0  0  0  0  0  0  0  0
  188.1160  176.3040  135.0940 N   0  0  0  0  0  2  0  0  0  0  0  0
  190.3910  176.8030  139.0780 N   0  0  0  0  0  2  0  0  0  0  0  0
  190.3770  177.5000  140.3520 C   0  0  2  0  0  3  0  0  0  0  0  0
  191.5730  177.0470  141.1690 C   0  0  0  0  0  2  0  0  0  0  0  0
  190.1960  176.4940  141.4760 C   0  0  1  0  0  3  0  0  0  0  0  0
  190.5340  178.6210  143.3570 O   0  0  0  0  0  1  0  0  0  0  0  0
  189.4520  176.3620  144.1010 O   0  0  0  0  0  1  0  0  0  0  0  0
  187.9610  177.9320  142.6300 O   0  0  0  0  0  0  0  0  0  0  0  0
  189.5150  177.3320  142.9420 P   0  0  0  0  0  0  0  0  0  0  0  0
  186.5320  178.2240  136.9330 C   0  0  0  0  0  2  0  0  0  0  0  0
  185.1830  179.3490  138.6080 N   0  0  0  0  0  1  0  0  0  0  0  0
  185.3640  178.0900  137.9160 C   0  0  1  0  0  3  0  0  0  0  0  0
  182.9660  178.1270  137.9950 O   0  0  0  0  0  1  0  0  0  0  0  0
  184.0600  177.7160  137.2230 C   0  0  0  0  0  2  0  0  0  0  0  0
  1 25  1  6  0  0  0
  1 17  1  0  0  0  0
  1  2  1  0  0  0  0
  2 13  1  0  0  0  0
  3 11  1  1  0  0  0
  3 22  1  0  0  0  0
  8 12  2  0  0  0  0
  8 21  1  0  0  0  0
  9  6  1  0  0  0  0
  9 15  1  0  0  0  0
 10 12  1  0  0  0  0
 11  9  2  0  0  0  0
 12 20  1  0  0  0  0
 14 13  1  0  0  0  0
 14 26  1  1  0  0  0
 16  3  1  0  0  0  0
 16  5  1  1  0  0  0
 17  4  1  1  0  0  0
 17 14  1  0  0  0  0
 18  4  1  0  0  0  0
 19  7  1  0  0  0  0
 20 18  2  0  0  0  0
 21 24  2  0  0  0  0
 22  7  2  0  0  0  0
 22 15  1  0  0  0  0
 23 19  2  0  0  0  0
 23  5  1  0  0  0  0
 24 18  1  0  0  0  0
 24  6  1  0  0  0  0
 25 16  1  0  0  0  0
 27 26  1  6  0  0  0
 27 28  1  0  0  0  0
 27 29  1  0  0  0  0
 28 29  1  0  0  0  0
 29 33  1  1  0  0  0
 32 33  2  0  0  0  0
 33 30  1  0  0  0  0
 33 31  1  0  0  0  0
 34  2  1  0  0  0  0
 34 36  1  0  0  0  0
 36 35  1  6  0  0  0
 38 36  1  0  0  0  0
 38 37  1  0  0  0  0
M  END
>  <MODEL>
6

>  <REMARK>
 VINA RESULT:      -5.0      3.800      9.098
  Name = 
  6 active torsions:
  status: ('A' for Active; 'I' for Inactive)
    1  A    between atoms: N_2  and  C_38
    2  A    between atoms: C_8  and  N_29
    3  A    between atoms: CA_13  and  C_17
    4  A    between atoms: CA_13  and  C_38
    5  A    between atoms: C_23  and  N_29
    6  A    between atoms: P_24  and  C_37
                            x       y       z     vdW  Elec       q    Type
                         _______ _______ _______ _____ _____    ______ ____

>  <TORSDO>
F 6

$$$$
=
 OpenBabel10222421033D

 38 43  0  0  1  0  0  0  0  0999 V2000
  182.8650  179.1490  138.8280 C   0  0  1  0  0  3  0  0  0  0  0  0
  182.1240  178.8680  140.0530 N   0  0  0  0  0  0  0  0  0  0  0  0
  182.2060  176.2040  137.1480 C   0  0  2  0  0  3  0  0  0  0  0  0
  184.7880  177.5460  138.6130 N   0  0  0  0  0  2  0  0  0  0  0  0
  180.2860  177.1820  138.3600 C   0  0  0  0  0  2  0  0  0  0  0  0
  185.4580  174.8570  137.3090 C   0  0  0  0  0  2  0  0  0  0  0  0
  180.7520  174.3380  137.6160 N   0  0  0  0  0  0  0  0  0  0  0  0
  188.3560  177.0530  136.4230 N   0  0  0  0  0  0  0  0  0  0  0  0
  183.9970  175.0640  137.0550 C   0  0  0  0  0  0  0  0  0  0  0  0
  189.0350  179.3780  136.8820 C   0  0  0  0  0  1  0  0  0  0  0  0
  183.4950  176.2820  136.8030 N   0  0  0  0  0  0  0  0  0  0  0  0
  188.0820  178.2440  137.0150 C   0  0  0  0  0  0  0  0  0  0  0  0
  183.0650  179.1810  141.1210 C   0  0  0  0  0  2  0  0  0  0  0  0
  184.4800  178.9750  140.6100 C   0  0  2  0  0  3  0  0  0  0  0  0
  183.0640  174.1630  137.4290 N   0  0  0  0  0  2  0  0  0  0  0  0
  181.5480  177.2930  137.5660 C   0  0  1  0  0  3  0  0  0  0  0  0
  184.3460  178.8560  139.0910 C   0  0  2  0  0  3  0  0  0  0  0  0
  186.0050  177.3480  137.8720 C   0  0  0  0  0  0  0  0  0  0  0  0
  179.4740  174.9900  137.4980 C   0  0  0  0  0  3  0  0  0  0  0  0
  186.9050  178.4110  137.7420 C   0  0  0  0  0  3  0  0  0  0  0  0
  187.5010  175.9980  136.5160 C   0  0  0  0  0  3  0  0  0  0  0  0
  181.9230  174.8810  137.4400 C   0  0  0  0  0  0  0  0  0  0  0  0
  179.2600  176.2770  137.7610 C   0  0  0  0  0  3  0  0  0  0  0  0
  186.3020  176.1100  137.2260 C   0  0  0  0  0  0  0  0  0  0  0  0
  182.2740  178.5340  137.6230 N   0  0  0  0  0  2  0  0  0  0  0  0
  185.0440  177.7870  141.2380 N   0  0  0  0  0  2  0  0  0  0  0  0
  186.0920  178.2170  142.1460 C   0  0  2  0  0  3  0  0  0  0  0  0
  187.1640  178.9370  141.3480 C   0  0  0  0  0  2  0  0  0  0  0  0
  187.3880  177.5070  141.7960 C   0  0  1  0  0  3  0  0  0  0  0  0
  187.5530  177.7340  144.6420 O   0  0  0  0  0  1  0  0  0  0  0  0
  189.5020  178.6030  143.1330 O   0  0  0  0  0  0  0  0  0  0  0  0
  189.2960  176.0050  143.3770 O   0  0  0  0  0  1  0  0  0  0  0  0
  188.4860  177.4890  143.2480 P   0  0  0  0  0  0  0  0  0  0  0  0
  181.0340  179.8410  140.1380 C   0  0  0  0  0  2  0  0  0  0  0  0
  179.6770  181.0640  141.7380 N   0  0  0  0  0  1  0  0  0  0  0  0
  180.3310  179.7940  141.5000 C   0  0  1  0  0  3  0  0  0  0  0  0
  179.6340  177.7750  142.5930 O   0  0  0  0  0  1  0  0  0  0  0  0
  179.2940  178.6820  141.5810 C   0  0  0  0  0  2  0  0  0  0  0  0
  1 25  1  6  0  0  0
  1 17  1  0  0  0  0
  1  2  1  0  0  0  0
  2 34  1  0  0  0  0
  2 13  1  0  0  0  0
  3 11  1  1  0  0  0
  3 22  1  0  0  0  0
  3 16  1  0  0  0  0
  8 21  2  0  0  0  0
  8 12  1  0  0  0  0
  9  6  1  0  0  0  0
  9 15  1  0  0  0  0
 10 12  1  0  0  0  0
 11  9  2  0  0  0  0
 12 20  2  0  0  0  0
 14 13  1  0  0  0  0
 14 26  1  1  0  0  0
 15 22  1  0  0  0  0
 16 25  1  0  0  0  0
 16  5  1  1  0  0  0
 17  4  1  1  0  0  0
 17 14  1  0  0  0  0
 18  4  1  0  0  0  0
 19  7  1  0  0  0  0
 19 23  2  0  0  0  0
 20 18  1  0  0  0  0
 21 24  1  0  0  0  0
 22  7  2  0  0  0  0
 23  5  1  0  0  0  0
 24  6  1  0  0  0  0
 24 18  2  0  0  0  0
 27 26  1  6  0  0  0
 28 29  1  0  0  0  0
 28 27  1  0  0  0  0
 29 27  1  0  0  0  0
 29 33  1  1  0  0  0
 31 33  2  0  0  0  0
 33 32  1  0  0  0  0
 33 30  1  0  0  0  0
 34 36  1  0  0  0  0
 36 38  1  0  0  0  0
 36 35  1  6  0  0  0
 38 37  1  0  0  0  0
M  END
>  <MODEL>
7

>  <REMARK>
 VINA RESULT:      -4.9      3.353      8.177
  Name = 
  6 active torsions:
  status: ('A' for Active; 'I' for Inactive)
    1  A    between atoms: N_2  and  C_38
    2  A    between atoms: C_8  and  N_29
    3  A    between atoms: CA_13  and  C_17
    4  A    between atoms: CA_13  and  C_38
    5  A    between atoms: C_23  and  N_29
    6  A    between atoms: P_24  and  C_37
                            x       y       z     vdW  Elec       q    Type
                         _______ _______ _______ _____ _____    ______ ____

>  <TORSDO>
F 6

$$$$
=
 OpenBabel10222421033D

 38 43  0  0  1  0  0  0  0  0999 V2000
  185.0160  175.1700  137.4910 C   0  0  1  0  0  3  0  0  0  0  0  0
  185.6020  175.5970  136.2260 N   0  0  0  0  0  0  0  0  0  0  0  0
  184.0880  171.9730  136.5690 C   0  0  2  0  0  3  0  0  0  0  0  0
  182.5510  174.7770  137.1960 N   0  0  0  0  0  2  0  0  0  0  0  0
  186.3090  172.7030  135.7640 C   0  0  0  0  0  2  0  0  0  0  0  0
  180.6040  172.4940  136.5800 C   0  0  0  0  0  2  0  0  0  0  0  0
  184.4980  170.6510  134.5950 N   0  0  0  0  0  0  0  0  0  0  0  0
  179.0610  174.2540  139.5010 N   0  0  0  0  0  0  0  0  0  0  0  0
  181.9680  171.8940  136.4450 C   0  0  0  0  0  0  0  0  0  0  0  0
  179.6040  176.2200  140.8860 C   0  0  0  0  0  1  0  0  0  0  0  0
  182.9760  172.2540  137.2540 N   0  0  0  0  0  0  0  0  0  0  0  0
  179.9050  175.2830  139.7710 C   0  0  0  0  0  0  0  0  0  0  0  0
  184.9880  176.8940  135.9660 C   0  0  0  0  0  2  0  0  0  0  0  0
  183.6200  176.9340  136.6230 C   0  0  2  0  0  3  0  0  0  0  0  0
  182.3770  171.2750  135.3180 N   0  0  0  0  0  2  0  0  0  0  0  0
  185.2100  172.6750  136.7770 C   0  0  1  0  0  3  0  0  0  0  0  0
  183.5920  175.7340  137.5700 C   0  0  2  0  0  3  0  0  0  0  0  0
  181.3470  174.5850  137.9580 C   0  0  0  0  0  0  0  0  0  0  0  0
  185.9230  170.4810  134.7080 C   0  0  0  0  0  3  0  0  0  0  0  0
  181.0580  175.4610  139.0100 C   0  0  0  0  0  3  0  0  0  0  0  0
  179.3120  173.3730  138.4950 C   0  0  0  0  0  3  0  0  0  0  0  0
  183.7210  171.2860  135.4250 C   0  0  0  0  0  0  0  0  0  0  0  0
  186.7410  171.3560  135.2880 C   0  0  0  0  0  3  0  0  0  0  0  0
  180.4580  173.4980  137.7030 C   0  0  0  0  0  0  0  0  0  0  0  0
  185.1690  173.7260  137.7590 N   0  0  0  0  0  2  0  0  0  0  0  0
  182.5940  176.8820  135.5890 N   0  0  0  0  0  2  0  0  0  0  0  0
  181.4850  177.7140  136.0190 C   0  0  2  0  0  3  0  0  0  0  0  0
  180.4340  177.7310  134.9230 C   0  0  0  0  0  2  0  0  0  0  0  0
  181.3660  178.9140  135.0950 C   0  0  1  0  0  3  0  0  0  0  0  0
  181.3080  180.6150  137.3940 O   0  0  0  0  0  1  0  0  0  0  0  0
  179.0800  179.8220  136.2830 O   0  0  0  0  0  1  0  0  0  0  0  0
  180.4300  181.6550  134.9910 O   0  0  0  0  0  0  0  0  0  0  0  0
  180.4890  180.2600  135.9530 P   0  0  0  0  0  0  0  0  0  0  0  0
  187.0270  175.8330  136.4610 C   0  0  0  0  0  2  0  0  0  0  0  0
  188.1950  176.7730  138.3700 N   0  0  0  0  0  1  0  0  0  0  0  0
  187.2670  177.0900  137.3040 C   0  0  1  0  0  3  0  0  0  0  0  0
  188.3260  179.2420  137.3310 O   0  0  0  0  0  1  0  0  0  0  0  0
  187.8330  178.2420  136.4840 C   0  0  0  0  0  2  0  0  0  0  0  0
  1 17  1  0  0  0  0
  1 25  1  6  0  0  0
  2 34  1  0  0  0  0
  2  1  1  0  0  0  0
  3 22  1  6  0  0  0
  3 16  1  0  0  0  0
  3 11  1  0  0  0  0
  4 18  1  0  0  0  0
  6 24  1  0  0  0  0
  7 19  1  0  0  0  0
  7 22  2  0  0  0  0
  8 12  1  0  0  0  0
  9  6  1  0  0  0  0
  9 11  2  0  0  0  0
 12 10  1  0  0  0  0
 13  2  1  0  0  0  0
 13 14  1  0  0  0  0
 14 26  1  6  0  0  0
 14 17  1  0  0  0  0
 15 22  1  0  0  0  0
 15  9  1  0  0  0  0
 16  5  1  6  0  0  0
 16 25  1  0  0  0  0
 17  4  1  6  0  0  0
 18 20  1  0  0  0  0
 19 23  2  0  0  0  0
 20 12  2  0  0  0  0
 21  8  2  0  0  0  0
 23  5  1  0  0  0  0
 24 18  2  0  0  0  0
 24 21  1  0  0  0  0
 27 26  1  6  0  0  0
 28 29  1  0  0  0  0
 28 27  1  0  0  0  0
 29 33  1  1  0  0  0
 29 27  1  0  0  0  0
 32 33  2  0  0  0  0
 33 31  1  0  0  0  0
 33 30  1  0  0  0  0
 34 36  1  0  0  0  0
 36 35  1  1  0  0  0
 38 36  1  0  0  0  0
 38 37  1  0  0  0  0
M  END
>  <MODEL>
8

>  <REMARK>
 VINA RESULT:      -4.2      3.990      6.505
  Name = 
  6 active torsions:
  status: ('A' for Active; 'I' for Inactive)
    1  A    between atoms: N_2  and  C_38
    2  A    between atoms: C_8  and  N_29
    3  A    between atoms: CA_13  and  C_17
    4  A    between atoms: CA_13  and  C_38
    5  A    between atoms: C_23  and  N_29
    6  A    between atoms: P_24  and  C_37
                            x       y       z     vdW  Elec       q    Type
                         _______ _______ _______ _____ _____    ______ ____

>  <TORSDO>
F 6

$$$$
=
 OpenBabel10222421033D

 38 43  0  0  1  0  0  0  0  0999 V2000
  187.5480  178.5070  138.3030 C   0  0  1  0  0  3  0  0  0  0  0  0
  186.3400  178.2930  139.0920 N   0  0  0  0  0  0  0  0  0  0  0  0
  187.2970  175.7540  136.2310 C   0  0  2  0  0  3  0  0  0  0  0  0
  189.1850  176.6500  138.7320 N   0  0  0  0  0  2  0  0  0  0  0  0
  185.1790  176.9560  136.6520 C   0  0  0  0  0  2  0  0  0  0  0  0
  190.0100  173.9410  137.5630 C   0  0  0  0  0  2  0  0  0  0  0  0
  185.5710  174.1050  135.8970 N   0  0  0  0  0  0  0  0  0  0  0  0
  193.2520  175.7220  138.1310 N   0  0  0  0  0  0  0  0  0  0  0  0
  188.8190  174.3690  136.7620 C   0  0  0  0  0  0  0  0  0  0  0  0
  193.9510  177.9040  139.0400 C   0  0  0  0  0  1  0  0  0  0  0  0
  188.6130  175.6550  136.4440 N   0  0  0  0  0  0  0  0  0  0  0  0
  192.9020  176.9170  138.6700 C   0  0  0  0  0  0  0  0  0  0  0  0
  186.7870  178.4250  140.4740 C   0  0  0  0  0  2  0  0  0  0  0  0
  188.2520  178.0330  140.5590 C   0  0  2  0  0  3  0  0  0  0  0  0
  187.7160  173.6010  136.6430 N   0  0  0  0  0  2  0  0  0  0  0  0
  186.6590  176.9110  136.4490 C   0  0  1  0  0  3  0  0  0  0  0  0
  188.7430  177.9910  139.1120 C   0  0  2  0  0  3  0  0  0  0  0  0
  190.5660  176.3030  138.5290 C   0  0  0  0  0  0  0  0  0  0  0  0
  184.5420  174.9400  135.3350 C   0  0  0  0  0  3  0  0  0  0  0  0
  191.5590  177.2270  138.8730 C   0  0  0  0  0  3  0  0  0  0  0  0
  192.3170  174.8000  137.7720 C   0  0  0  0  0  3  0  0  0  0  0  0
  186.7660  174.4760  136.2590 C   0  0  0  0  0  0  0  0  0  0  0  0
  184.3920  176.2340  135.6090 C   0  0  0  0  0  3  0  0  0  0  0  0
  190.9540  175.0600  137.9460 C   0  0  0  0  0  0  0  0  0  0  0  0
  187.4390  178.0300  136.9090 N   0  0  0  0  0  2  0  0  0  0  0  0
  188.3620  176.7530  141.2470 N   0  0  0  0  0  2  0  0  0  0  0  0
  189.4540  176.8510  142.2000 C   0  0  2  0  0  3  0  0  0  0  0  0
  189.4800  175.5890  143.0430 C   0  0  0  0  0  2  0  0  0  0  0  0
  188.8930  176.8650  143.6110 C   0  0  1  0  0  3  0  0  0  0  0  0
  189.3720  177.8320  146.2600 O   0  0  0  0  0  1  0  0  0  0  0  0
  190.4900  179.0000  144.2060 O   0  0  0  0  0  0  0  0  0  0  0  0
  191.4810  176.6790  144.9000 O   0  0  0  0  0  1  0  0  0  0  0  0
  190.0950  177.6400  144.7380 P   0  0  0  0  0  0  0  0  0  0  0  0
  185.4360  179.4100  138.8220 C   0  0  0  0  0  2  0  0  0  0  0  0
  183.2270  180.3340  139.2260 N   0  0  0  0  0  1  0  0  0  0  0  0
  184.1840  179.3600  139.7060 C   0  0  1  0  0  3  0  0  0  0  0  0
  182.7830  177.8020  138.5370 O   0  0  0  0  0  1  0  0  0  0  0  0
  183.5290  177.9850  139.7080 C   0  0  0  0  0  2  0  0  0  0  0  0
  1 25  1  6  0  0  0
  1  2  1  0  0  0  0
  1 17  1  0  0  0  0
  2 13  1  0  0  0  0
  3 22  1  1  0  0  0
  3 11  1  0  0  0  0
  3 16  1  0  0  0  0
  6 24  1  0  0  0  0
  7 22  2  0  0  0  0
  8 12  1  0  0  0  0
  9  6  1  0  0  0  0
 11  9  2  0  0  0  0
 12 20  2  0  0  0  0
 12 10  1  0  0  0  0
 13 14  1  0  0  0  0
 14 26  1  6  0  0  0
 15  9  1  0  0  0  0
 16  5  1  1  0  0  0
 16 25  1  0  0  0  0
 17  4  1  6  0  0  0
 17 14  1  0  0  0  0
 18  4  1  0  0  0  0
 18 20  1  0  0  0  0
 19 23  2  0  0  0  0
 19  7  1  0  0  0  0
 21 24  1  0  0  0  0
 21  8  2  0  0  0  0
 22 15  1  0  0  0  0
 23  5  1  0  0  0  0
 24 18  2  0  0  0  0
 27 26  1  6  0  0  0
 27 28  1  0  0  0  0
 27 29  1  0  0  0  0
 28 29  1  0  0  0  0
 29 33  1  1  0  0  0
 31 33  2  0  0  0  0
 33 32  1  0  0  0  0
 33 30  1  0  0  0  0
 34  2  1  0  0  0  0
 34 36  1  0  0  0  0
 36 35  1  6  0  0  0
 36 38  1  0  0  0  0
 37 38  1  0  0  0  0
M  END
>  <MODEL>
9

>  <REMARK>
 VINA RESULT:      -3.9      3.793      8.698
  Name = 
  6 active torsions:
  status: ('A' for Active; 'I' for Inactive)
    1  A    between atoms: N_2  and  C_38
    2  A    between atoms: C_8  and  N_29
    3  A    between atoms: CA_13  and  C_17
    4  A    between atoms: CA_13  and  C_38
    5  A    between atoms: C_23  and  N_29
    6  A    between atoms: P_24  and  C_37
                            x       y       z     vdW  Elec       q    Type
                         _______ _______ _______ _____ _____    ______ ____

>  <TORSDO>
F 6

$$$$
