=
 OpenBabel10222419083D

 48 52  0  0  1  0  0  0  0  0999 V2000
  190.4260  176.8880  142.9780 C   0  0  1  0  0  3  0  0  0  0  0  0
  188.8260  177.5440  141.0890 C   0  0  0  0  0  0  0  0  0  0  0  0
  186.1650  178.2350  141.3000 C   0  0  0  0  0  0  0  0  0  0  0  0
  186.8110  178.3880  140.1040 C   0  0  0  0  0  0  0  0  0  0  0  0
  186.7930  177.7300  142.4360 C   0  0  0  0  0  3  0  0  0  0  0  0
  188.1600  178.0310  139.9350 C   0  0  0  0  0  0  0  0  0  0  0  0
  184.9310  178.6380  141.1660 O   0  0  0  0  0  0  0  0  0  0  0  0
  184.8230  179.0390  139.9100 C   0  0  0  0  0  0  0  0  0  0  0  0
  188.1500  177.3900  142.3030 C   0  0  0  0  0  0  0  0  0  0  0  0
  185.9680  178.9040  139.1920 N   0  0  0  0  0  0  0  0  0  0  0  0
  188.9620  176.8750  143.4240 C   0  0  0  0  0  2  0  0  0  0  0  0
  190.5570  177.1240  141.1610 S   0  0  0  0  0  0  0  0  0  0  0  0
  191.1980  177.9360  143.7210 C   0  0  0  0  0  0  0  0  0  0  0  0
  191.7240  177.6530  145.0170 N   0  0  0  0  0  2  0  0  0  0  0  0
  191.2790  179.1390  143.2550 N   0  0  0  0  0  2  0  0  0  0  0  0
  191.6020  176.3800  145.5880 N   0  0  0  0  0  2  0  0  0  0  0  0
  192.5490  175.7240  147.7120 C   0  0  0  0  0  1  0  0  0  0  0  0
  191.4960  176.5650  147.0240 C   0  0  2  0  0  3  0  0  0  0  0  0
  190.1730  176.1460  147.4760 N   0  0  0  0  0  2  0  0  0  0  0  0
  188.6420  177.7390  148.4930 N   0  0  0  0  0  0  0  0  0  0  0  0
  187.7410  178.8530  148.2010 C   0  0  0  0  0  2  0  0  0  0  0  0
  186.5530  178.3780  147.3750 C   0  0  1  0  0  3  0  0  0  0  0  0
  185.6290  179.5460  147.1050 C   0  0  0  0  0  1  0  0  0  0  0  0
  188.0580  176.6980  146.3170 C   0  0  0  0  0  2  0  0  0  0  0  0
  187.0570  177.8160  146.0550 C   0  0  0  0  0  2  0  0  0  0  0  0
  189.6830  178.2750  149.1790 O   0  0  0  0  0  1  0  0  0  0  0  0
  189.1780  177.2030  147.2320 C   0  0  2  0  0  3  0  0  0  0  0  0
  187.9680  177.8790  137.4540 C   0  0  0  0  0  2  0  0  0  0  0  0
  188.8730  178.2310  138.6220 C   0  0  2  0  0  3  0  0  0  0  0  0
  189.0310  176.9050  137.8940 C   0  0  2  0  0  3  0  0  0  0  0  0
  190.2040  177.0040  136.9380 C   0  0  0  0  0  2  0  0  0  0  0  0
  190.9640  174.8380  138.3480 O   0  0  0  0  0  0  0  0  0  0  0  0
  192.5870  176.6670  138.1500 O   0  0  0  0  0  0  0  0  0  0  0  0
  191.5110  175.8990  137.4340 S   0  0  0  0  0  0  0  0  0  0  0  0
  192.2030  175.1320  135.9890 C   0  0  0  0  0  1  0  0  0  0  0  0
  183.5610  179.5770  139.3320 C   0  0  0  0  0  2  0  0  0  0  0  0
  183.1900  177.4890  138.3150 O   0  0  0  0  0  0  0  0  0  0  0  0
  182.6880  178.4660  138.8460 C   0  0  0  0  0  0  0  0  0  0  0  0
  181.2050  178.5450  139.0350 C   0  0  0  0  0  2  0  0  0  0  0  0
  180.7840  177.8730  140.3350 C   0  0  0  0  0  2  0  0  0  0  0  0
  179.2270  179.3270  141.4020 O   0  0  0  0  0  1  0  0  0  0  0  0
  180.5570  178.8990  141.4400 C   0  0  1  0  0  3  0  0  0  0  0  0
  179.6960  178.1310  143.5400 O   0  0  0  0  0  1  0  0  0  0  0  0
  180.8760  178.2930  142.8030 C   0  0  2  0  0  3  0  0  0  0  0  0
  182.7490  178.5600  144.0210 O   0  0  0  0  0  0  0  0  0  0  0  0
  181.8170  179.1850  143.5540 C   0  0  0  0  0  2  0  0  0  0  0  0
  183.1300  179.0000  144.3780 C   0  0  0  0  0  2  0  0  0  0  0  0
  184.2130  179.9470  143.9640 O   0  0  0  0  0  1  0  0  0  0  0  0
  1 11  1  0  0  0  0
  1 13  1  1  0  0  0
  2 12  1  0  0  0  0
  2  9  1  0  0  0  0
  3  5  1  0  0  0  0
  4  3  2  0  0  0  0
  6  4  1  0  0  0  0
  6  2  2  0  0  0  0
  7  3  1  0  0  0  0
  8  7  1  0  0  0  0
  9  5  2  0  0  0  0
  9 11  1  0  0  0  0
 10  8  2  0  0  0  0
 10  4  1  0  0  0  0
 12  1  1  0  0  0  0
 13 14  1  0  0  0  0
 14 16  1  0  0  0  0
 15 13  2  0  0  0  0
 16 18  1  0  0  0  0
 18 19  1  0  0  0  0
 18 17  1  1  0  0  0
 20 26  1  0  0  0  0
 21 20  1  0  0  0  0
 22 23  1  6  0  0  0
 22 21  1  0  0  0  0
 24 27  1  0  0  0  0
 25 24  1  0  0  0  0
 25 22  1  0  0  0  0
 27 19  1  1  0  0  0
 27 20  1  0  0  0  0
 28 30  1  0  0  0  0
 28 29  1  0  0  0  0
 29  6  1  1  0  0  0
 30 31  1  6  0  0  0
 30 29  1  0  0  0  0
 31 34  1  0  0  0  0
 34 33  2  0  0  0  0
 34 32  2  0  0  0  0
 35 34  1  0  0  0  0
 36  8  1  0  0  0  0
 37 38  2  0  0  0  0
 38 39  1  0  0  0  0
 38 36  1  0  0  0  0
 39 40  1  0  0  0  0
 40 42  1  0  0  0  0
 42 41  1  1  0  0  0
 42 44  1  0  0  0  0
 44 43  1  1  0  0  0
 44 46  1  0  0  0  0
 45 47  1  0  0  0  0
 46 45  1  0  0  0  0
 48 47  1  0  0  0  0
M  END
>  <MODEL>
1

>  <REMARK>
 VINA RESULT:      -8.2      0.000      0.000
  Name = 
  16 active torsions:
  status: ('A' for Active; 'I' for Inactive)
    1  A    between atoms: C_3  and  C_24
    2  A    between atoms: C_10  and  C_19
    3  A    between atoms: C_10  and  C_46
    4  A    between atoms: C_13  and  C_34
    5  A    between atoms: C_14  and  C_43
    6  A    between atoms: C_18  and  C_34
    7  A    between atoms: C_18  and  C_44
    8  A    between atoms: S_22  and  C_28
    9  A    between atoms: C_28  and  C_47
   10  A    between atoms: N_29  and  N_30
   11  A    between atoms: N_29  and  C_33
   12  A    between atoms: C_33  and  N_45
   13  A    between atoms: C_36  and  C_37
   14  A    between atoms: C_36  and  C_46
   15  A    between atoms: C_37  and  C_44
   16  A    between atoms: C_42  and  N_45
                            x       y       z     vdW  Elec       q    Type
                         _______ _______ _______ _____ _____    ______ ____

>  <TORSDO>
F 16

$$$$
=
 OpenBabel10222419083D

 48 52  0  0  1  0  0  0  0  0999 V2000
  186.0780  177.5930  136.5700 C   0  0  1  0  0  3  0  0  0  0  0  0
  188.4120  177.5300  137.6200 C   0  0  0  0  0  0  0  0  0  0  0  0
  189.0670  177.7720  140.2880 C   0  0  0  0  0  0  0  0  0  0  0  0
  190.0310  177.4220  139.3830 C   0  0  0  0  0  0  0  0  0  0  0  0
  187.7470  178.0250  139.9210 C   0  0  0  0  0  3  0  0  0  0  0  0
  189.7580  177.3070  138.0100 C   0  0  0  0  0  0  0  0  0  0  0  0
  189.5990  177.8070  141.4790 O   0  0  0  0  0  0  0  0  0  0  0  0
  190.8690  177.4770  141.3100 C   0  0  0  0  0  0  0  0  0  0  0  0
  187.4390  177.8910  138.5560 C   0  0  0  0  0  0  0  0  0  0  0  0
  191.2030  177.2270  140.0170 N   0  0  0  0  0  0  0  0  0  0  0  0
  186.0790  178.0930  138.0170 C   0  0  0  0  0  2  0  0  0  0  0  0
  187.7920  177.3440  135.9600 S   0  0  0  0  0  0  0  0  0  0  0  0
  185.2660  176.3400  136.4420 C   0  0  0  0  0  0  0  0  0  0  0  0
  183.8500  176.3840  136.6100 N   0  0  0  0  0  2  0  0  0  0  0  0
  185.8520  175.1950  136.3130 N   0  0  0  0  0  2  0  0  0  0  0  0
  183.1800  177.5960  136.8180 N   0  0  0  0  0  2  0  0  0  0  0  0
  180.9420  177.0670  137.5600 C   0  0  0  0  0  1  0  0  0  0  0  0
  182.3460  177.4280  137.9940 C   0  0  2  0  0  3  0  0  0  0  0  0
  182.3120  178.6750  138.7530 N   0  0  0  0  0  2  0  0  0  0  0  0
  181.4070  179.2040  140.9470 N   0  0  0  0  0  0  0  0  0  0  0  0
  181.4550  178.8290  142.3600 C   0  0  0  0  0  2  0  0  0  0  0  0
  182.8240  179.1400  142.9500 C   0  0  1  0  0  3  0  0  0  0  0  0
  182.8390  178.7610  144.4140 C   0  0  0  0  0  1  0  0  0  0  0  0
  183.8150  178.6470  140.7180 C   0  0  0  0  0  2  0  0  0  0  0  0
  183.8820  178.3380  142.2080 C   0  0  0  0  0  2  0  0  0  0  0  0
  180.1770  178.8370  140.5090 O   0  0  0  0  0  1  0  0  0  0  0  0
  182.3930  178.4100  140.1980 C   0  0  2  0  0  3  0  0  0  0  0  0
  190.8280  175.3850  136.8360 C   0  0  0  0  0  2  0  0  0  0  0  0
  190.8200  176.8920  137.0230 C   0  0  2  0  0  3  0  0  0  0  0  0
  191.8750  176.0340  137.7040 C   0  0  2  0  0  3  0  0  0  0  0  0
  193.1680  176.1250  136.9180 C   0  0  0  0  0  2  0  0  0  0  0  0
  193.6540  173.6070  137.7410 O   0  0  0  0  0  0  0  0  0  0  0  0
  194.9650  175.3970  138.7890 O   0  0  0  0  0  0  0  0  0  0  0  0
  194.3440  174.9220  137.5050 S   0  0  0  0  0  0  0  0  0  0  0  0
  195.6150  174.7090  136.2830 C   0  0  0  0  0  1  0  0  0  0  0  0
  191.8470  177.4000  142.4290 C   0  0  0  0  0  2  0  0  0  0  0  0
  190.8130  175.4570  143.2580 O   0  0  0  0  0  0  0  0  0  0  0  0
  191.3250  176.5310  143.5270 C   0  0  0  0  0  0  0  0  0  0  0  0
  191.4550  176.9700  144.9530 C   0  0  0  0  0  2  0  0  0  0  0  0
  190.1790  177.6500  145.4320 C   0  0  0  0  0  2  0  0  0  0  0  0
  190.7350  176.9640  147.6460 O   0  0  0  0  0  1  0  0  0  0  0  0
  189.6780  177.0300  146.7320 C   0  0  1  0  0  3  0  0  0  0  0  0
  188.3690  177.5590  148.6690 O   0  0  0  0  0  1  0  0  0  0  0  0
  188.5360  177.8590  147.3110 C   0  0  2  0  0  3  0  0  0  0  0  0
  186.6600  178.5850  146.3010 O   0  0  0  0  0  0  0  0  0  0  0  0
  187.2650  177.5660  146.5730 C   0  0  0  0  0  2  0  0  0  0  0  0
  186.0770  178.4000  145.9960 C   0  0  0  0  0  2  0  0  0  0  0  0
  185.4620  179.3100  147.0110 O   0  0  0  0  0  1  0  0  0  0  0  0
  1 13  1  1  0  0  0
  1 11  1  0  0  0  0
  2  6  2  0  0  0  0
  2  9  1  0  0  0  0
  3  7  1  0  0  0  0
  4 10  1  0  0  0  0
  4  3  2  0  0  0  0
  5  3  1  0  0  0  0
  6  4  1  0  0  0  0
  8  7  1  0  0  0  0
  8 36  1  0  0  0  0
  9  5  2  0  0  0  0
 10  8  2  0  0  0  0
 11  9  1  0  0  0  0
 12  1  1  0  0  0  0
 12  2  1  0  0  0  0
 13 14  1  0  0  0  0
 14 16  1  0  0  0  0
 15 13  2  0  0  0  0
 16 18  1  0  0  0  0
 18 17  1  6  0  0  0
 18 19  1  0  0  0  0
 20 21  1  0  0  0  0
 21 22  1  0  0  0  0
 22 23  1  1  0  0  0
 24 25  1  0  0  0  0
 25 22  1  0  0  0  0
 26 20  1  0  0  0  0
 27 19  1  6  0  0  0
 27 24  1  0  0  0  0
 27 20  1  0  0  0  0
 28 29  1  0  0  0  0
 28 30  1  0  0  0  0
 29 30  1  0  0  0  0
 29  6  1  1  0  0  0
 30 31  1  6  0  0  0
 31 34  1  0  0  0  0
 34 32  2  0  0  0  0
 34 33  2  0  0  0  0
 35 34  1  0  0  0  0
 36 38  1  0  0  0  0
 37 38  2  0  0  0  0
 38 39  1  0  0  0  0
 39 40  1  0  0  0  0
 40 42  1  0  0  0  0
 42 44  1  0  0  0  0
 42 41  1  1  0  0  0
 44 43  1  1  0  0  0
 45 46  1  0  0  0  0
 46 44  1  0  0  0  0
 47 45  1  0  0  0  0
 47 48  1  0  0  0  0
M  END
>  <MODEL>
2

>  <REMARK>
 VINA RESULT:      -8.1      3.007      7.969
  Name = 
  16 active torsions:
  status: ('A' for Active; 'I' for Inactive)
    1  A    between atoms: C_3  and  C_24
    2  A    between atoms: C_10  and  C_19
    3  A    between atoms: C_10  and  C_46
    4  A    between atoms: C_13  and  C_34
    5  A    between atoms: C_14  and  C_43
    6  A    between atoms: C_18  and  C_34
    7  A    between atoms: C_18  and  C_44
    8  A    between atoms: S_22  and  C_28
    9  A    between atoms: C_28  and  C_47
   10  A    between atoms: N_29  and  N_30
   11  A    between atoms: N_29  and  C_33
   12  A    between atoms: C_33  and  N_45
   13  A    between atoms: C_36  and  C_37
   14  A    between atoms: C_36  and  C_46
   15  A    between atoms: C_37  and  C_44
   16  A    between atoms: C_42  and  N_45
                            x       y       z     vdW  Elec       q    Type
                         _______ _______ _______ _____ _____    ______ ____

>  <TORSDO>
F 16

$$$$
=
 OpenBabel10222419083D

 48 52  0  0  1  0  0  0  0  0999 V2000
  190.5020  176.9130  143.0760 C   0  0  1  0  0  3  0  0  0  0  0  0
  188.8610  177.5750  141.2250 C   0  0  0  0  0  0  0  0  0  0  0  0
  186.1940  178.2230  141.4920 C   0  0  0  0  0  0  0  0  0  0  0  0
  186.8170  178.4040  140.2880 C   0  0  0  0  0  0  0  0  0  0  0  0
  186.8490  177.7100  142.6100 C   0  0  0  0  0  3  0  0  0  0  0  0
  188.1680  178.0700  140.0910 C   0  0  0  0  0  0  0  0  0  0  0  0
  184.9520  178.6110  141.3860 O   0  0  0  0  0  0  0  0  0  0  0  0
  184.8170  179.0300  140.1380 C   0  0  0  0  0  0  0  0  0  0  0  0
  188.2080  177.3920  142.4480 C   0  0  0  0  0  0  0  0  0  0  0  0
  185.9510  178.9230  139.3980 N   0  0  0  0  0  0  0  0  0  0  0  0
  189.0460  176.8720  143.5470 C   0  0  0  0  0  2  0  0  0  0  0  0
  190.5980  177.1790  141.2610 S   0  0  0  0  0  0  0  0  0  0  0  0
  191.2720  177.9600  143.8220 C   0  0  0  0  0  0  0  0  0  0  0  0
  191.7930  177.6770  145.1190 N   0  0  0  0  0  2  0  0  0  0  0  0
  191.3540  179.1640  143.3570 N   0  0  0  0  0  2  0  0  0  0  0  0
  191.6690  176.4040  145.6900 N   0  0  0  0  0  2  0  0  0  0  0  0
  192.5340  175.7860  147.8600 C   0  0  0  0  0  1  0  0  0  0  0  0
  191.4900  176.5910  147.1180 C   0  0  2  0  0  3  0  0  0  0  0  0
  190.1590  176.1340  147.5100 N   0  0  0  0  0  2  0  0  0  0  0  0
  188.6420  177.7560  148.4980 N   0  0  0  0  0  0  0  0  0  0  0  0
  187.7250  178.8520  148.1840 C   0  0  0  0  0  2  0  0  0  0  0  0
  186.5210  178.3350  147.4060 C   0  0  1  0  0  3  0  0  0  0  0  0
  185.5820  179.4840  147.1120 C   0  0  0  0  0  1  0  0  0  0  0  0
  188.0120  176.6230  146.3810 C   0  0  0  0  0  2  0  0  0  0  0  0
  186.9970  177.7220  146.0980 C   0  0  0  0  0  2  0  0  0  0  0  0
  189.6940  178.3270  149.1350 O   0  0  0  0  0  1  0  0  0  0  0  0
  189.1510  177.1730  147.2470 C   0  0  2  0  0  3  0  0  0  0  0  0
  187.9590  177.8920  137.6120 C   0  0  0  0  0  2  0  0  0  0  0  0
  188.8550  178.3000  138.7690 C   0  0  2  0  0  3  0  0  0  0  0  0
  189.0790  176.9810  138.0460 C   0  0  2  0  0  3  0  0  0  0  0  0
  190.2340  177.1380  137.0780 C   0  0  0  0  0  2  0  0  0  0  0  0
  191.5100  175.0360  135.9780 O   0  0  0  0  0  0  0  0  0  0  0  0
  190.9380  174.8740  138.3580 O   0  0  0  0  0  0  0  0  0  0  0  0
  191.3970  175.8010  137.2670 S   0  0  0  0  0  0  0  0  0  0  0  0
  192.9850  176.4690  137.6970 C   0  0  0  0  0  1  0  0  0  0  0  0
  183.5380  179.5580  139.5910 C   0  0  0  0  0  2  0  0  0  0  0  0
  181.5720  178.4550  140.2640 O   0  0  0  0  0  0  0  0  0  0  0  0
  182.5170  178.4710  139.4920 C   0  0  0  0  0  0  0  0  0  0  0  0
  182.6430  177.4220  138.4310 C   0  0  0  0  0  2  0  0  0  0  0  0
  182.8140  176.0400  139.0480 C   0  0  0  0  0  2  0  0  0  0  0  0
  181.5480  175.2970  137.1700 O   0  0  0  0  0  1  0  0  0  0  0  0
  182.6090  174.9430  138.0090 C   0  0  1  0  0  3  0  0  0  0  0  0
  183.5590  174.6190  135.8330 O   0  0  0  0  0  1  0  0  0  0  0  0
  183.8800  174.7410  137.1910 C   0  0  2  0  0  3  0  0  0  0  0  0
  185.7800  173.5490  137.3810 O   0  0  0  0  0  0  0  0  0  0  0  0
  184.5950  173.5060  137.6490 C   0  0  0  0  0  2  0  0  0  0  0  0
  186.0540  172.9550  137.5790 C   0  0  0  0  0  2  0  0  0  0  0  0
  186.3750  172.3330  136.2560 O   0  0  0  0  0  1  0  0  0  0  0  0
  1 11  1  0  0  0  0
  1 13  1  1  0  0  0
  2 12  1  0  0  0  0
  2  9  1  0  0  0  0
  3  5  1  0  0  0  0
  4  3  2  0  0  0  0
  6  4  1  0  0  0  0
  6  2  2  0  0  0  0
  7  3  1  0  0  0  0
  8  7  1  0  0  0  0
  9  5  2  0  0  0  0
  9 11  1  0  0  0  0
 10  8  2  0  0  0  0
 10  4  1  0  0  0  0
 12  1  1  0  0  0  0
 13 14  1  0  0  0  0
 14 16  1  0  0  0  0
 15 13  2  0  0  0  0
 16 18  1  0  0  0  0
 18 19  1  0  0  0  0
 18 17  1  1  0  0  0
 20 26  1  0  0  0  0
 21 20  1  0  0  0  0
 22 23  1  6  0  0  0
 22 21  1  0  0  0  0
 24 27  1  0  0  0  0
 25 24  1  0  0  0  0
 25 22  1  0  0  0  0
 27 19  1  1  0  0  0
 27 20  1  0  0  0  0
 28 30  1  0  0  0  0
 28 29  1  0  0  0  0
 29  6  1  1  0  0  0
 30 31  1  6  0  0  0
 30 29  1  0  0  0  0
 31 34  1  0  0  0  0
 32 34  2  0  0  0  0
 34 35  1  0  0  0  0
 34 33  2  0  0  0  0
 36  8  1  0  0  0  0
 38 36  1  0  0  0  0
 38 37  2  0  0  0  0
 39 40  1  0  0  0  0
 39 38  1  0  0  0  0
 42 41  1  6  0  0  0
 42 40  1  0  0  0  0
 44 43  1  6  0  0  0
 44 46  1  0  0  0  0
 44 42  1  0  0  0  0
 45 47  1  0  0  0  0
 45 46  1  0  0  0  0
 48 47  1  0  0  0  0
M  END
>  <MODEL>
3

>  <REMARK>
 VINA RESULT:      -7.8      1.993      3.583
  Name = 
  16 active torsions:
  status: ('A' for Active; 'I' for Inactive)
    1  A    between atoms: C_3  and  C_24
    2  A    between atoms: C_10  and  C_19
    3  A    between atoms: C_10  and  C_46
    4  A    between atoms: C_13  and  C_34
    5  A    between atoms: C_14  and  C_43
    6  A    between atoms: C_18  and  C_34
    7  A    between atoms: C_18  and  C_44
    8  A    between atoms: S_22  and  C_28
    9  A    between atoms: C_28  and  C_47
   10  A    between atoms: N_29  and  N_30
   11  A    between atoms: N_29  and  C_33
   12  A    between atoms: C_33  and  N_45
   13  A    between atoms: C_36  and  C_37
   14  A    between atoms: C_36  and  C_46
   15  A    between atoms: C_37  and  C_44
   16  A    between atoms: C_42  and  N_45
                            x       y       z     vdW  Elec       q    Type
                         _______ _______ _______ _____ _____    ______ ____

>  <TORSDO>
F 16

$$$$
=
 OpenBabel10222419083D

 48 52  0  0  1  0  0  0  0  0999 V2000
  190.6600  176.8870  143.5020 C   0  0  1  0  0  3  0  0  0  0  0  0
  190.4460  177.0800  140.9580 C   0  0  0  0  0  0  0  0  0  0  0  0
  188.2510  177.9130  139.5110 C   0  0  0  0  0  0  0  0  0  0  0  0
  189.4460  177.7120  138.8740 C   0  0  0  0  0  0  0  0  0  0  0  0
  188.0820  177.7050  140.8780 C   0  0  0  0  0  3  0  0  0  0  0  0
  190.5890  177.2660  139.5590 C   0  0  0  0  0  0  0  0  0  0  0  0
  187.3710  178.3170  138.6360 O   0  0  0  0  0  0  0  0  0  0  0  0
  188.0160  178.3710  137.4820 C   0  0  0  0  0  0  0  0  0  0  0  0
  189.2170  177.2850  141.5930 C   0  0  0  0  0  0  0  0  0  0  0  0
  189.3200  178.0000  137.5660 N   0  0  0  0  0  0  0  0  0  0  0  0
  189.2070  177.0560  143.0510 C   0  0  0  0  0  2  0  0  0  0  0  0
  191.7680  176.6220  142.0620 S   0  0  0  0  0  0  0  0  0  0  0  0
  191.1020  178.0620  144.3210 C   0  0  0  0  0  0  0  0  0  0  0  0
  190.6060  178.2380  145.6470 N   0  0  0  0  0  2  0  0  0  0  0  0
  191.8260  178.9910  143.7880 N   0  0  0  0  0  2  0  0  0  0  0  0
  189.7650  177.2880  146.2400 N   0  0  0  0  0  2  0  0  0  0  0  0
  188.9280  178.1530  148.3350 C   0  0  0  0  0  1  0  0  0  0  0  0
  188.6660  178.0120  146.8520 C   0  0  2  0  0  3  0  0  0  0  0  0
  187.4210  177.2760  146.6490 N   0  0  0  0  0  2  0  0  0  0  0  0
  185.1820  178.2040  146.4570 N   0  0  0  0  0  0  0  0  0  0  0  0
  184.3310  179.0600  145.6300 C   0  0  0  0  0  2  0  0  0  0  0  0
  184.0820  178.4160  144.2720 C   0  0  1  0  0  3  0  0  0  0  0  0
  183.1850  179.3120  143.4470 C   0  0  0  0  0  1  0  0  0  0  0  0
  186.3540  177.4030  144.4200 C   0  0  0  0  0  2  0  0  0  0  0  0
  185.4110  178.2310  143.5560 C   0  0  0  0  0  2  0  0  0  0  0  0
  185.3850  178.8890  147.6100 O   0  0  0  0  0  1  0  0  0  0  0  0
  186.4920  178.0440  145.8060 C   0  0  2  0  0  3  0  0  0  0  0  0
  191.6990  176.7030  137.3980 C   0  0  0  0  0  2  0  0  0  0  0  0
  191.9090  177.0760  138.8560 C   0  0  2  0  0  3  0  0  0  0  0  0
  192.0660  175.6350  138.3960 C   0  0  2  0  0  3  0  0  0  0  0  0
  193.5420  175.3220  138.2490 C   0  0  0  0  0  2  0  0  0  0  0  0
  192.4590  173.3690  136.7440 O   0  0  0  0  0  0  0  0  0  0  0  0
  194.6520  172.9190  137.7470 O   0  0  0  0  0  0  0  0  0  0  0  0
  193.7860  173.9720  137.1130 S   0  0  0  0  0  0  0  0  0  0  0  0
  194.5840  174.5810  135.6480 C   0  0  0  0  0  1  0  0  0  0  0  0
  187.3710  178.7870  136.2070 C   0  0  0  0  0  2  0  0  0  0  0  0
  187.5860  176.8540  134.8840 O   0  0  0  0  0  0  0  0  0  0  0  0
  186.8260  177.6000  135.4800 C   0  0  0  0  0  0  0  0  0  0  0  0
  185.3560  177.3180  135.5070 C   0  0  0  0  0  2  0  0  0  0  0  0
  184.9640  176.5870  136.7840 C   0  0  0  0  0  2  0  0  0  0  0  0
  182.6550  176.1060  136.4400 O   0  0  0  0  0  1  0  0  0  0  0  0
  183.5280  176.9060  137.1840 C   0  0  1  0  0  3  0  0  0  0  0  0
  182.1520  175.9160  138.8800 O   0  0  0  0  0  1  0  0  0  0  0  0
  183.3230  176.6570  138.6750 C   0  0  2  0  0  3  0  0  0  0  0  0
  184.3220  178.4180  139.6590 O   0  0  0  0  0  0  0  0  0  0  0  0
  183.2240  177.9630  139.4040 C   0  0  0  0  0  2  0  0  0  0  0  0
  184.2260  178.9920  140.0170 C   0  0  0  0  0  2  0  0  0  0  0  0
  184.4970  180.1480  139.1060 O   0  0  0  0  0  1  0  0  0  0  0  0
  1 13  1  6  0  0  0
  2  9  1  0  0  0  0
  2 12  1  0  0  0  0
  3  5  1  0  0  0  0
  4  3  2  0  0  0  0
  4  6  1  0  0  0  0
  5  9  2  0  0  0  0
  6  2  2  0  0  0  0
  7  3  1  0  0  0  0
  8 10  2  0  0  0  0
  8  7  1  0  0  0  0
  9 11  1  0  0  0  0
 10  4  1  0  0  0  0
 11  1  1  0  0  0  0
 12  1  1  0  0  0  0
 13 14  1  0  0  0  0
 14 16  1  0  0  0  0
 15 13  2  0  0  0  0
 16 18  1  0  0  0  0
 18 17  1  1  0  0  0
 19 18  1  0  0  0  0
 20 26  1  0  0  0  0
 21 20  1  0  0  0  0
 22 23  1  6  0  0  0
 22 21  1  0  0  0  0
 24 27  1  0  0  0  0
 25 22  1  0  0  0  0
 25 24  1  0  0  0  0
 27 20  1  0  0  0  0
 27 19  1  1  0  0  0
 28 30  1  0  0  0  0
 28 29  1  0  0  0  0
 29  6  1  1  0  0  0
 30 31  1  6  0  0  0
 30 29  1  0  0  0  0
 32 34  2  0  0  0  0
 34 33  2  0  0  0  0
 34 31  1  0  0  0  0
 35 34  1  0  0  0  0
 36  8  1  0  0  0  0
 37 38  2  0  0  0  0
 38 39  1  0  0  0  0
 38 36  1  0  0  0  0
 39 40  1  0  0  0  0
 40 42  1  0  0  0  0
 42 41  1  6  0  0  0
 42 44  1  0  0  0  0
 44 43  1  6  0  0  0
 44 46  1  0  0  0  0
 45 47  1  0  0  0  0
 46 45  1  0  0  0  0
 48 47  1  0  0  0  0
M  END
>  <MODEL>
4

>  <REMARK>
 VINA RESULT:      -7.8      2.429      3.836
  Name = 
  16 active torsions:
  status: ('A' for Active; 'I' for Inactive)
    1  A    between atoms: C_3  and  C_24
    2  A    between atoms: C_10  and  C_19
    3  A    between atoms: C_10  and  C_46
    4  A    between atoms: C_13  and  C_34
    5  A    between atoms: C_14  and  C_43
    6  A    between atoms: C_18  and  C_34
    7  A    between atoms: C_18  and  C_44
    8  A    between atoms: S_22  and  C_28
    9  A    between atoms: C_28  and  C_47
   10  A    between atoms: N_29  and  N_30
   11  A    between atoms: N_29  and  C_33
   12  A    between atoms: C_33  and  N_45
   13  A    between atoms: C_36  and  C_37
   14  A    between atoms: C_36  and  C_46
   15  A    between atoms: C_37  and  C_44
   16  A    between atoms: C_42  and  N_45
                            x       y       z     vdW  Elec       q    Type
                         _______ _______ _______ _____ _____    ______ ____

>  <TORSDO>
F 16

$$$$
=
 OpenBabel10222419083D

 48 52  0  0  1  0  0  0  0  0999 V2000
  185.7070  177.3930  136.7510 C   0  0  1  0  0  3  0  0  0  0  0  0
  185.8950  178.2540  139.1550 C   0  0  0  0  0  0  0  0  0  0  0  0
  183.9270  178.3000  141.0860 C   0  0  0  0  0  0  0  0  0  0  0  0
  185.2150  178.6120  141.4250 C   0  0  0  0  0  0  0  0  0  0  0  0
  183.5500  177.9610  139.7880 C   0  0  0  0  0  3  0  0  0  0  0  0
  186.2520  178.6260  140.4770 C   0  0  0  0  0  0  0  0  0  0  0  0
  183.1820  178.3710  142.1550 O   0  0  0  0  0  0  0  0  0  0  0  0
  184.0000  178.7150  143.1360 C   0  0  0  0  0  0  0  0  0  0  0  0
  184.5730  177.9420  138.8250 C   0  0  0  0  0  0  0  0  0  0  0  0
  185.2890  178.8840  142.7410 N   0  0  0  0  0  0  0  0  0  0  0  0
  184.3390  177.5700  137.4150 C   0  0  0  0  0  2  0  0  0  0  0  0
  187.0420  178.0940  137.8000 S   0  0  0  0  0  0  0  0  0  0  0  0
  185.9620  175.9500  136.4360 C   0  0  0  0  0  0  0  0  0  0  0  0
  186.9690  175.5900  135.4920 N   0  0  0  0  0  2  0  0  0  0  0  0
  185.1850  175.0330  136.9120 N   0  0  0  0  0  2  0  0  0  0  0  0
  187.7910  176.5590  134.9020 N   0  0  0  0  0  2  0  0  0  0  0  0
  189.0590  174.5100  135.0830 C   0  0  0  0  0  1  0  0  0  0  0  0
  189.1280  176.0010  134.8330 C   0  0  2  0  0  3  0  0  0  0  0  0
  189.9720  176.6220  135.8510 N   0  0  0  0  0  2  0  0  0  0  0  0
  191.4300  175.8560  137.6390 N   0  0  0  0  0  0  0  0  0  0  0  0
  192.4750  174.8870  137.9700 C   0  0  0  0  0  2  0  0  0  0  0  0
  193.7450  175.1790  137.1820 C   0  0  1  0  0  3  0  0  0  0  0  0
  194.8120  174.1740  137.5580 C   0  0  0  0  0  1  0  0  0  0  0  0
  192.3100  176.0120  135.3230 C   0  0  0  0  0  2  0  0  0  0  0  0
  193.4460  175.0680  135.6950 C   0  0  0  0  0  2  0  0  0  0  0  0
  190.3370  175.4770  138.3460 O   0  0  0  0  0  1  0  0  0  0  0  0
  191.0920  175.7400  136.2120 C   0  0  2  0  0  3  0  0  0  0  0  0
  188.6510  178.0430  140.1250 C   0  0  0  0  0  2  0  0  0  0  0  0
  187.6750  178.9420  140.8640 C   0  0  2  0  0  3  0  0  0  0  0  0
  188.3130  177.7540  141.5660 C   0  0  2  0  0  3  0  0  0  0  0  0
  189.4500  178.2490  142.4380 C   0  0  0  0  0  2  0  0  0  0  0  0
  191.6800  177.2320  141.3200 O   0  0  0  0  0  0  0  0  0  0  0  0
  190.1880  175.6580  142.4670 O   0  0  0  0  0  0  0  0  0  0  0  0
  190.7630  177.0460  142.4970 S   0  0  0  0  0  0  0  0  0  0  0  0
  191.6840  177.2650  144.0000 C   0  0  0  0  0  1  0  0  0  0  0  0
  183.5510  178.9110  144.5410 C   0  0  0  0  0  2  0  0  0  0  0  0
  185.2120  180.1730  145.6270 O   0  0  0  0  0  0  0  0  0  0  0  0
  184.7230  179.0690  145.4530 C   0  0  0  0  0  0  0  0  0  0  0  0
  185.2780  177.8760  146.1700 C   0  0  0  0  0  2  0  0  0  0  0  0
  186.4730  178.2640  147.0300 C   0  0  0  0  0  2  0  0  0  0  0  0
  188.5020  178.2030  145.7820 O   0  0  0  0  0  1  0  0  0  0  0  0
  187.7090  177.4530  146.6560 C   0  0  1  0  0  3  0  0  0  0  0  0
  188.0930  177.8840  148.9820 O   0  0  0  0  0  1  0  0  0  0  0  0
  188.5050  177.0890  147.9050 C   0  0  2  0  0  3  0  0  0  0  0  0
  190.5280  176.2550  147.3810 O   0  0  0  0  0  0  0  0  0  0  0  0
  189.9680  177.2970  147.6600 C   0  0  0  0  0  2  0  0  0  0  0  0
  191.1930  176.3940  147.3110 C   0  0  0  0  0  2  0  0  0  0  0  0
  192.4190  176.7530  148.0910 O   0  0  0  0  0  1  0  0  0  0  0  0
  1 13  1  1  0  0  0
  1 11  1  0  0  0  0
  1 12  1  0  0  0  0
  2  6  1  0  0  0  0
  3  4  1  0  0  0  0
  3  7  1  0  0  0  0
  4 10  1  0  0  0  0
  5  3  2  0  0  0  0
  6  4  2  0  0  0  0
  7  8  1  0  0  0  0
  8 36  1  0  0  0  0
  9  2  2  0  0  0  0
  9  5  1  0  0  0  0
 10  8  2  0  0  0  0
 11  9  1  0  0  0  0
 12  2  1  0  0  0  0
 13 15  2  0  0  0  0
 14 13  1  0  0  0  0
 16 14  1  0  0  0  0
 18 16  1  0  0  0  0
 18 17  1  1  0  0  0
 18 19  1  0  0  0  0
 20 21  1  0  0  0  0
 20 26  1  0  0  0  0
 22 23  1  1  0  0  0
 22 21  1  0  0  0  0
 24 25  1  0  0  0  0
 24 27  1  0  0  0  0
 25 22  1  0  0  0  0
 27 19  1  6  0  0  0
 27 20  1  0  0  0  0
 28 29  1  0  0  0  0
 28 30  1  0  0  0  0
 29  6  1  6  0  0  0
 29 30  1  0  0  0  0
 30 31  1  1  0  0  0
 31 34  1  0  0  0  0
 32 34  2  0  0  0  0
 33 34  2  0  0  0  0
 34 35  1  0  0  0  0
 36 38  1  0  0  0  0
 38 37  2  0  0  0  0
 38 39  1  0  0  0  0
 39 40  1  0  0  0  0
 42 41  1  6  0  0  0
 42 40  1  0  0  0  0
 42 44  1  0  0  0  0
 44 43  1  1  0  0  0
 45 46  1  0  0  0  0
 46 44  1  0  0  0  0
 47 45  1  0  0  0  0
 47 48  1  0  0  0  0
M  END
>  <MODEL>
5

>  <REMARK>
 VINA RESULT:      -7.8      3.014      8.559
  Name = 
  16 active torsions:
  status: ('A' for Active; 'I' for Inactive)
    1  A    between atoms: C_3  and  C_24
    2  A    between atoms: C_10  and  C_19
    3  A    between atoms: C_10  and  C_46
    4  A    between atoms: C_13  and  C_34
    5  A    between atoms: C_14  and  C_43
    6  A    between atoms: C_18  and  C_34
    7  A    between atoms: C_18  and  C_44
    8  A    between atoms: S_22  and  C_28
    9  A    between atoms: C_28  and  C_47
   10  A    between atoms: N_29  and  N_30
   11  A    between atoms: N_29  and  C_33
   12  A    between atoms: C_33  and  N_45
   13  A    between atoms: C_36  and  C_37
   14  A    between atoms: C_36  and  C_46
   15  A    between atoms: C_37  and  C_44
   16  A    between atoms: C_42  and  N_45
                            x       y       z     vdW  Elec       q    Type
                         _______ _______ _______ _____ _____    ______ ____

>  <TORSDO>
F 16

$$$$
=
 OpenBabel10222419083D

 48 52  0  0  1  0  0  0  0  0999 V2000
  190.5010  176.9450  143.0040 C   0  0  1  0  0  3  0  0  0  0  0  0
  188.9590  177.5570  141.0540 C   0  0  0  0  0  0  0  0  0  0  0  0
  186.2980  178.2700  141.1690 C   0  0  0  0  0  0  0  0  0  0  0  0
  186.9790  178.3840  139.9880 C   0  0  0  0  0  0  0  0  0  0  0  0
  186.8900  177.7940  142.3370 C   0  0  0  0  0  3  0  0  0  0  0  0
  188.3290  178.0140  139.8680 C   0  0  0  0  0  0  0  0  0  0  0  0
  185.0710  178.6770  140.9890 O   0  0  0  0  0  0  0  0  0  0  0  0
  185.0010  179.0430  139.7200 C   0  0  0  0  0  0  0  0  0  0  0  0
  188.2480  177.4410  142.2510 C   0  0  0  0  0  0  0  0  0  0  0  0
  186.1650  178.8800  139.0380 N   0  0  0  0  0  0  0  0  0  0  0  0
  189.0250  176.9540  143.4090 C   0  0  0  0  0  2  0  0  0  0  0  0
  190.6840  177.1280  141.1860 S   0  0  0  0  0  0  0  0  0  0  0  0
  191.2590  178.0080  143.7390 C   0  0  0  0  0  0  0  0  0  0  0  0
  191.7420  177.7610  145.0580 N   0  0  0  0  0  2  0  0  0  0  0  0
  191.3640  179.1960  143.2390 N   0  0  0  0  0  2  0  0  0  0  0  0
  191.5920  176.5080  145.6640 N   0  0  0  0  0  2  0  0  0  0  0  0
  192.4300  176.0050  147.8740 C   0  0  0  0  0  1  0  0  0  0  0  0
  191.3730  176.7400  147.0800 C   0  0  2  0  0  3  0  0  0  0  0  0
  190.0530  176.2450  147.4590 N   0  0  0  0  0  2  0  0  0  0  0  0
  188.3480  177.6920  148.4140 N   0  0  0  0  0  0  0  0  0  0  0  0
  187.4040  178.7640  148.0980 C   0  0  0  0  0  2  0  0  0  0  0  0
  186.3200  178.2610  147.1550 C   0  0  1  0  0  3  0  0  0  0  0  0
  185.3480  179.3830  146.8610 C   0  0  0  0  0  1  0  0  0  0  0  0
  188.0070  176.7260  146.1530 C   0  0  0  0  0  2  0  0  0  0  0  0
  186.9630  177.7950  145.8580 C   0  0  0  0  0  2  0  0  0  0  0  0
  189.2940  178.2540  149.2070 O   0  0  0  0  0  1  0  0  0  0  0  0
  189.0170  177.2510  147.1800 C   0  0  2  0  0  3  0  0  0  0  0  0
  188.1220  178.3670  137.4080 C   0  0  0  0  0  2  0  0  0  0  0  0
  189.0800  178.1720  138.5700 C   0  0  2  0  0  3  0  0  0  0  0  0
  188.7640  177.0210  137.6270 C   0  0  2  0  0  3  0  0  0  0  0  0
  189.9050  176.8630  136.6420 C   0  0  0  0  0  2  0  0  0  0  0  0
  189.8370  174.1920  136.3030 O   0  0  0  0  0  0  0  0  0  0  0  0
  190.9520  175.0330  138.3200 O   0  0  0  0  0  0  0  0  0  0  0  0
  190.7060  175.2860  136.8590 S   0  0  0  0  0  0  0  0  0  0  0  0
  192.2590  175.2990  135.9970 C   0  0  0  0  0  1  0  0  0  0  0  0
  183.7600  179.5720  139.0910 C   0  0  0  0  0  2  0  0  0  0  0  0
  183.2680  177.3150  138.6460 O   0  0  0  0  0  0  0  0  0  0  0  0
  182.8390  178.4550  138.7210 C   0  0  0  0  0  0  0  0  0  0  0  0
  181.3890  178.7350  138.4700 C   0  0  0  0  0  2  0  0  0  0  0  0
  181.2050  179.5600  137.2030 C   0  0  0  0  0  2  0  0  0  0  0  0
  179.0690  180.0450  138.1420 O   0  0  0  0  0  1  0  0  0  0  0  0
  180.1000  180.5970  137.3750 C   0  0  1  0  0  3  0  0  0  0  0  0
  180.0560  182.0050  139.3140 O   0  0  0  0  0  1  0  0  0  0  0  0
  180.6470  181.8490  138.0540 C   0  0  2  0  0  3  0  0  0  0  0  0
  181.3500  183.7420  137.0610 O   0  0  0  0  0  0  0  0  0  0  0  0
  180.3580  183.0550  137.2130 C   0  0  0  0  0  2  0  0  0  0  0  0
  181.1630  184.2920  136.7020 C   0  0  0  0  0  2  0  0  0  0  0  0
  182.3100  184.6460  137.5940 O   0  0  0  0  0  1  0  0  0  0  0  0
  1 11  1  0  0  0  0
  1 13  1  1  0  0  0
  2 12  1  0  0  0  0
  2  9  1  0  0  0  0
  3  5  1  0  0  0  0
  4  3  2  0  0  0  0
  6  4  1  0  0  0  0
  6  2  2  0  0  0  0
  7  3  1  0  0  0  0
  8  7  1  0  0  0  0
  9  5  2  0  0  0  0
  9 11  1  0  0  0  0
 10  8  2  0  0  0  0
 10  4  1  0  0  0  0
 12  1  1  0  0  0  0
 13 14  1  0  0  0  0
 14 16  1  0  0  0  0
 15 13  2  0  0  0  0
 16 18  1  0  0  0  0
 18 19  1  0  0  0  0
 18 17  1  1  0  0  0
 20 26  1  0  0  0  0
 21 20  1  0  0  0  0
 22 23  1  6  0  0  0
 22 21  1  0  0  0  0
 24 27  1  0  0  0  0
 25 24  1  0  0  0  0
 25 22  1  0  0  0  0
 27 19  1  1  0  0  0
 27 20  1  0  0  0  0
 28 30  1  0  0  0  0
 28 29  1  0  0  0  0
 29  6  1  1  0  0  0
 30 31  1  6  0  0  0
 30 29  1  0  0  0  0
 31 34  1  0  0  0  0
 32 34  2  0  0  0  0
 34 33  2  0  0  0  0
 35 34  1  0  0  0  0
 36  8  1  0  0  0  0
 37 38  2  0  0  0  0
 38 36  1  0  0  0  0
 39 38  1  0  0  0  0
 40 42  1  0  0  0  0
 40 39  1  0  0  0  0
 42 44  1  0  0  0  0
 42 41  1  1  0  0  0
 44 43  1  1  0  0  0
 45 46  1  0  0  0  0
 46 44  1  0  0  0  0
 47 45  1  0  0  0  0
 47 48  1  0  0  0  0
M  END
>  <MODEL>
6

>  <REMARK>
 VINA RESULT:      -7.5      2.105      2.954
  Name = 
  16 active torsions:
  status: ('A' for Active; 'I' for Inactive)
    1  A    between atoms: C_3  and  C_24
    2  A    between atoms: C_10  and  C_19
    3  A    between atoms: C_10  and  C_46
    4  A    between atoms: C_13  and  C_34
    5  A    between atoms: C_14  and  C_43
    6  A    between atoms: C_18  and  C_34
    7  A    between atoms: C_18  and  C_44
    8  A    between atoms: S_22  and  C_28
    9  A    between atoms: C_28  and  C_47
   10  A    between atoms: N_29  and  N_30
   11  A    between atoms: N_29  and  C_33
   12  A    between atoms: C_33  and  N_45
   13  A    between atoms: C_36  and  C_37
   14  A    between atoms: C_36  and  C_46
   15  A    between atoms: C_37  and  C_44
   16  A    between atoms: C_42  and  N_45
                            x       y       z     vdW  Elec       q    Type
                         _______ _______ _______ _____ _____    ______ ____

>  <TORSDO>
F 16

$$$$
=
 OpenBabel10222419083D

 48 52  0  0  1  0  0  0  0  0999 V2000
  184.0520  178.7400  139.2100 C   0  0  1  0  0  3  0  0  0  0  0  0
  186.5850  178.3770  139.2930 C   0  0  0  0  0  0  0  0  0  0  0  0
  188.1790  178.1320  141.5300 C   0  0  0  0  0  0  0  0  0  0  0  0
  188.7080  177.8880  140.2910 C   0  0  0  0  0  0  0  0  0  0  0  0
  186.8530  178.5130  141.7200 C   0  0  0  0  0  3  0  0  0  0  0  0
  187.9470  178.0200  139.1170 C   0  0  0  0  0  0  0  0  0  0  0  0
  189.1050  177.9380  142.4290 O   0  0  0  0  0  0  0  0  0  0  0  0
  190.1840  177.5740  141.7540 C   0  0  0  0  0  0  0  0  0  0  0  0
  186.0610  178.6270  140.5640 C   0  0  0  0  0  0  0  0  0  0  0  0
  189.9990  177.5270  140.4090 N   0  0  0  0  0  0  0  0  0  0  0  0
  184.6300  178.9890  140.6050 C   0  0  0  0  0  2  0  0  0  0  0  0
  185.3910  178.5060  137.9750 S   0  0  0  0  0  0  0  0  0  0  0  0
  183.1140  177.5710  139.2240 C   0  0  0  0  0  0  0  0  0  0  0  0
  182.1820  177.3880  138.1600 N   0  0  0  0  0  2  0  0  0  0  0  0
  183.0500  176.8000  140.2600 N   0  0  0  0  0  2  0  0  0  0  0  0
  182.1720  178.2390  137.0480 N   0  0  0  0  0  2  0  0  0  0  0  0
  181.5530  177.9810  134.7260 C   0  0  0  0  0  1  0  0  0  0  0  0
  182.3590  177.4090  135.8720 C   0  0  2  0  0  3  0  0  0  0  0  0
  181.9010  176.0510  136.1530 N   0  0  0  0  0  2  0  0  0  0  0  0
  183.1670  174.1640  137.0190 N   0  0  0  0  0  0  0  0  0  0  0  0
  184.1580  173.1500  136.6600 C   0  0  0  0  0  2  0  0  0  0  0  0
  185.5030  173.7980  136.3590 C   0  0  1  0  0  3  0  0  0  0  0  0
  186.5110  172.7250  136.0100 C   0  0  0  0  0  1  0  0  0  0  0  0
  184.2690  175.7800  135.4890 C   0  0  0  0  0  2  0  0  0  0  0  0
  185.3470  174.7490  135.1820 C   0  0  0  0  0  2  0  0  0  0  0  0
  182.0040  173.4940  137.2100 O   0  0  0  0  0  1  0  0  0  0  0  0
  182.9660  175.0740  135.8790 C   0  0  2  0  0  3  0  0  0  0  0  0
  187.4700  177.1590  136.8270 C   0  0  0  0  0  2  0  0  0  0  0  0
  188.5290  177.7200  137.7590 C   0  0  2  0  0  3  0  0  0  0  0  0
  188.4670  176.2290  137.4690 C   0  0  2  0  0  3  0  0  0  0  0  0
  189.5310  175.8800  136.4480 C   0  0  0  0  0  2  0  0  0  0  0  0
  189.8540  173.3790  137.3960 O   0  0  0  0  0  0  0  0  0  0  0  0
  191.2910  175.1270  138.3450 O   0  0  0  0  0  0  0  0  0  0  0  0
  190.6290  174.6310  137.0890 S   0  0  0  0  0  0  0  0  0  0  0  0
  191.8740  174.2720  135.8750 C   0  0  0  0  0  1  0  0  0  0  0  0
  191.4840  177.2580  142.4060 C   0  0  0  0  0  2  0  0  0  0  0  0
  190.9020  175.2400  143.4650 O   0  0  0  0  0  0  0  0  0  0  0  0
  191.2760  176.3930  143.6060 C   0  0  0  0  0  0  0  0  0  0  0  0
  191.5510  176.9360  144.9750 C   0  0  0  0  0  2  0  0  0  0  0  0
  190.4180  177.8400  145.4400 C   0  0  0  0  0  2  0  0  0  0  0  0
  189.9740  176.3960  147.2830 O   0  0  0  0  0  1  0  0  0  0  0  0
  189.3630  177.0530  146.2100 C   0  0  1  0  0  3  0  0  0  0  0  0
  188.2980  178.0340  148.1200 O   0  0  0  0  0  1  0  0  0  0  0  0
  188.2700  177.9860  146.7210 C   0  0  2  0  0  3  0  0  0  0  0  0
  186.2060  178.4250  145.9370 O   0  0  0  0  0  0  0  0  0  0  0  0
  186.9270  177.5020  146.2630 C   0  0  0  0  0  2  0  0  0  0  0  0
  185.6000  178.1590  145.7680 C   0  0  0  0  0  2  0  0  0  0  0  0
  184.9440  179.0000  146.8170 O   0  0  0  0  0  1  0  0  0  0  0  0
  1 13  1  1  0  0  0
  1 11  1  0  0  0  0
  2  9  1  0  0  0  0
  3  5  1  0  0  0  0
  3  7  1  0  0  0  0
  4 10  1  0  0  0  0
  4  3  2  0  0  0  0
  6  2  2  0  0  0  0
  6  4  1  0  0  0  0
  8 36  1  0  0  0  0
  8  7  1  0  0  0  0
  9 11  1  0  0  0  0
  9  5  2  0  0  0  0
 10  8  2  0  0  0  0
 12  1  1  0  0  0  0
 12  2  1  0  0  0  0
 13 15  2  0  0  0  0
 14 13  1  0  0  0  0
 16 14  1  0  0  0  0
 18 17  1  6  0  0  0
 18 19  1  0  0  0  0
 18 16  1  0  0  0  0
 20 26  1  0  0  0  0
 21 20  1  0  0  0  0
 22 23  1  6  0  0  0
 22 21  1  0  0  0  0
 24 27  1  0  0  0  0
 25 24  1  0  0  0  0
 25 22  1  0  0  0  0
 27 19  1  1  0  0  0
 27 20  1  0  0  0  0
 28 30  1  0  0  0  0
 28 29  1  0  0  0  0
 29  6  1  1  0  0  0
 30 31  1  6  0  0  0
 30 29  1  0  0  0  0
 31 34  1  0  0  0  0
 34 32  2  0  0  0  0
 34 33  2  0  0  0  0
 35 34  1  0  0  0  0
 36 38  1  0  0  0  0
 37 38  2  0  0  0  0
 38 39  1  0  0  0  0
 39 40  1  0  0  0  0
 40 42  1  0  0  0  0
 42 44  1  0  0  0  0
 42 41  1  1  0  0  0
 44 43  1  1  0  0  0
 45 46  1  0  0  0  0
 46 44  1  0  0  0  0
 47 45  1  0  0  0  0
 47 48  1  0  0  0  0
M  END
>  <MODEL>
7

>  <REMARK>
 VINA RESULT:      -7.5      3.253      8.868
  Name = 
  16 active torsions:
  status: ('A' for Active; 'I' for Inactive)
    1  A    between atoms: C_3  and  C_24
    2  A    between atoms: C_10  and  C_19
    3  A    between atoms: C_10  and  C_46
    4  A    between atoms: C_13  and  C_34
    5  A    between atoms: C_14  and  C_43
    6  A    between atoms: C_18  and  C_34
    7  A    between atoms: C_18  and  C_44
    8  A    between atoms: S_22  and  C_28
    9  A    between atoms: C_28  and  C_47
   10  A    between atoms: N_29  and  N_30
   11  A    between atoms: N_29  and  C_33
   12  A    between atoms: C_33  and  N_45
   13  A    between atoms: C_36  and  C_37
   14  A    between atoms: C_36  and  C_46
   15  A    between atoms: C_37  and  C_44
   16  A    between atoms: C_42  and  N_45
                            x       y       z     vdW  Elec       q    Type
                         _______ _______ _______ _____ _____    ______ ____

>  <TORSDO>
F 16

$$$$
=
 OpenBabel10222419083D

 48 52  0  0  1  0  0  0  0  0999 V2000
  183.8900  178.7370  139.1790 C   0  0  1  0  0  3  0  0  0  0  0  0
  186.4360  178.5060  139.3120 C   0  0  0  0  0  0  0  0  0  0  0  0
  187.9870  178.2350  141.5750 C   0  0  0  0  0  0  0  0  0  0  0  0
  188.5580  178.0830  140.3410 C   0  0  0  0  0  0  0  0  0  0  0  0
  186.6380  178.5350  141.7490 C   0  0  0  0  0  3  0  0  0  0  0  0
  187.8190  178.2320  139.1550 C   0  0  0  0  0  0  0  0  0  0  0  0
  188.9010  178.0460  142.4880 O   0  0  0  0  0  0  0  0  0  0  0  0
  190.0140  177.7760  141.8250 C   0  0  0  0  0  0  0  0  0  0  0  0
  185.8690  178.6640  140.5790 C   0  0  0  0  0  0  0  0  0  0  0  0
  189.8640  177.7860  140.4750 N   0  0  0  0  0  0  0  0  0  0  0  0
  184.4200  178.9450  140.5990 C   0  0  0  0  0  2  0  0  0  0  0  0
  185.2690  178.6370  137.9710 S   0  0  0  0  0  0  0  0  0  0  0  0
  183.0170  177.5200  139.1110 C   0  0  0  0  0  0  0  0  0  0  0  0
  182.0460  177.3920  138.0740 N   0  0  0  0  0  2  0  0  0  0  0  0
  183.0440  176.6450  140.0630 N   0  0  0  0  0  2  0  0  0  0  0  0
  181.9370  178.3500  137.0580 N   0  0  0  0  0  2  0  0  0  0  0  0
  180.8560  178.1340  134.9080 C   0  0  0  0  0  1  0  0  0  0  0  0
  180.6570  178.1400  136.4080 C   0  0  2  0  0  3  0  0  0  0  0  0
  179.7410  179.2190  136.7690 N   0  0  0  0  0  2  0  0  0  0  0  0
  180.1980  181.2850  137.9670 N   0  0  0  0  0  0  0  0  0  0  0  0
  180.9810  182.5200  137.9240 C   0  0  0  0  0  2  0  0  0  0  0  0
  180.5310  183.3980  136.7650 C   0  0  1  0  0  3  0  0  0  0  0  0
  181.3430  184.6750  136.7560 C   0  0  0  0  0  1  0  0  0  0  0  0
  180.0060  181.3220  135.4930 C   0  0  0  0  0  2  0  0  0  0  0  0
  180.7480  182.6510  135.4580 C   0  0  0  0  0  2  0  0  0  0  0  0
  180.7110  180.5580  138.9910 O   0  0  0  0  0  1  0  0  0  0  0  0
  180.4250  180.5210  136.7300 C   0  0  2  0  0  3  0  0  0  0  0  0
  187.6880  176.9940  136.9950 C   0  0  0  0  0  2  0  0  0  0  0  0
  188.4490  178.0330  137.8000 C   0  0  2  0  0  3  0  0  0  0  0  0
  188.9850  176.6170  137.6640 C   0  0  2  0  0  3  0  0  0  0  0  0
  190.0830  176.6030  136.6180 C   0  0  0  0  0  2  0  0  0  0  0  0
  191.7980  174.6210  135.9970 O   0  0  0  0  0  0  0  0  0  0  0  0
  190.9960  174.7190  138.3140 O   0  0  0  0  0  0  0  0  0  0  0  0
  191.4180  175.5380  137.1260 S   0  0  0  0  0  0  0  0  0  0  0  0
  192.8190  176.5360  137.5720 C   0  0  0  0  0  1  0  0  0  0  0  0
  191.3130  177.4970  142.4950 C   0  0  0  0  0  2  0  0  0  0  0  0
  191.1390  175.3730  143.4900 O   0  0  0  0  0  0  0  0  0  0  0  0
  191.1210  176.5810  143.6600 C   0  0  0  0  0  0  0  0  0  0  0  0
  190.9340  177.1490  145.0330 C   0  0  0  0  0  2  0  0  0  0  0  0
  189.5060  176.9400  145.5190 C   0  0  0  0  0  2  0  0  0  0  0  0
  190.7090  177.1710  147.5630 O   0  0  0  0  0  1  0  0  0  0  0  0
  189.4410  176.8970  147.0420 C   0  0  1  0  0  3  0  0  0  0  0  0
  188.3120  177.8040  148.9520 O   0  0  0  0  0  1  0  0  0  0  0  0
  188.4300  177.9140  147.5610 C   0  0  2  0  0  3  0  0  0  0  0  0
  186.3490  178.6270  147.0830 O   0  0  0  0  0  0  0  0  0  0  0  0
  187.0930  177.6780  146.9250 C   0  0  0  0  0  2  0  0  0  0  0  0
  185.7470  178.4600  146.8060 C   0  0  0  0  0  2  0  0  0  0  0  0
  185.8140  179.8260  147.4140 O   0  0  0  0  0  1  0  0  0  0  0  0
  1 13  1  1  0  0  0
  1 11  1  0  0  0  0
  2  9  1  0  0  0  0
  3  5  1  0  0  0  0
  3  7  1  0  0  0  0
  4 10  1  0  0  0  0
  4  3  2  0  0  0  0
  6  2  2  0  0  0  0
  6  4  1  0  0  0  0
  8  7  1  0  0  0  0
  8 36  1  0  0  0  0
  9 11  1  0  0  0  0
  9  5  2  0  0  0  0
 10  8  2  0  0  0  0
 12  1  1  0  0  0  0
 12  2  1  0  0  0  0
 13 15  2  0  0  0  0
 14 13  1  0  0  0  0
 16 14  1  0  0  0  0
 18 17  1  6  0  0  0
 18 19  1  0  0  0  0
 18 16  1  0  0  0  0
 20 26  1  0  0  0  0
 21 20  1  0  0  0  0
 22 23  1  6  0  0  0
 22 21  1  0  0  0  0
 24 27  1  0  0  0  0
 25 24  1  0  0  0  0
 25 22  1  0  0  0  0
 27 19  1  1  0  0  0
 27 20  1  0  0  0  0
 28 30  1  0  0  0  0
 28 29  1  0  0  0  0
 29  6  1  1  0  0  0
 30 31  1  6  0  0  0
 30 29  1  0  0  0  0
 31 34  1  0  0  0  0
 32 34  2  0  0  0  0
 34 35  1  0  0  0  0
 34 33  2  0  0  0  0
 36 38  1  0  0  0  0
 37 38  2  0  0  0  0
 38 39  1  0  0  0  0
 39 40  1  0  0  0  0
 40 42  1  0  0  0  0
 42 44  1  0  0  0  0
 42 41  1  1  0  0  0
 44 43  1  1  0  0  0
 46 45  1  0  0  0  0
 46 44  1  0  0  0  0
 47 45  1  0  0  0  0
 47 48  1  0  0  0  0
M  END
>  <MODEL>
8

>  <REMARK>
 VINA RESULT:      -7.5      3.181      9.157
  Name = 
  16 active torsions:
  status: ('A' for Active; 'I' for Inactive)
    1  A    between atoms: C_3  and  C_24
    2  A    between atoms: C_10  and  C_19
    3  A    between atoms: C_10  and  C_46
    4  A    between atoms: C_13  and  C_34
    5  A    between atoms: C_14  and  C_43
    6  A    between atoms: C_18  and  C_34
    7  A    between atoms: C_18  and  C_44
    8  A    between atoms: S_22  and  C_28
    9  A    between atoms: C_28  and  C_47
   10  A    between atoms: N_29  and  N_30
   11  A    between atoms: N_29  and  C_33
   12  A    between atoms: C_33  and  N_45
   13  A    between atoms: C_36  and  C_37
   14  A    between atoms: C_36  and  C_46
   15  A    between atoms: C_37  and  C_44
   16  A    between atoms: C_42  and  N_45
                            x       y       z     vdW  Elec       q    Type
                         _______ _______ _______ _____ _____    ______ ____

>  <TORSDO>
F 16

$$$$
=
 OpenBabel10222419083D

 48 52  0  0  1  0  0  0  0  0999 V2000
  190.6500  176.9420  143.4240 C   0  0  1  0  0  3  0  0  0  0  0  0
  190.4270  177.1280  140.8790 C   0  0  0  0  0  0  0  0  0  0  0  0
  188.1840  177.8140  139.4310 C   0  0  0  0  0  0  0  0  0  0  0  0
  189.3900  177.6970  138.7960 C   0  0  0  0  0  0  0  0  0  0  0  0
  188.0270  177.5920  140.7970 C   0  0  0  0  0  3  0  0  0  0  0  0
  190.5600  177.3290  139.4810 C   0  0  0  0  0  0  0  0  0  0  0  0
  187.2790  178.1610  138.5560 O   0  0  0  0  0  0  0  0  0  0  0  0
  187.9210  178.2620  137.4030 C   0  0  0  0  0  0  0  0  0  0  0  0
  189.1870  177.2470  141.5120 C   0  0  0  0  0  0  0  0  0  0  0  0
  189.2480  177.9810  137.4880 N   0  0  0  0  0  0  0  0  0  0  0  0
  189.1890  177.0130  142.9700 C   0  0  0  0  0  2  0  0  0  0  0  0
  191.7760  176.7570  141.9850 S   0  0  0  0  0  0  0  0  0  0  0  0
  191.0090  178.1420  144.2470 C   0  0  0  0  0  0  0  0  0  0  0  0
  190.4390  178.3180  145.5420 N   0  0  0  0  0  2  0  0  0  0  0  0
  191.7290  179.0880  143.7390 N   0  0  0  0  0  2  0  0  0  0  0  0
  189.6000  177.3470  146.1050 N   0  0  0  0  0  2  0  0  0  0  0  0
  188.9680  178.0620  148.3260 C   0  0  0  0  0  1  0  0  0  0  0  0
  188.5810  178.0500  146.8630 C   0  0  2  0  0  3  0  0  0  0  0  0
  187.2980  177.3690  146.7090 N   0  0  0  0  0  2  0  0  0  0  0  0
  185.0860  178.2400  146.2030 N   0  0  0  0  0  0  0  0  0  0  0  0
  184.3230  179.0140  145.2230 C   0  0  0  0  0  2  0  0  0  0  0  0
  184.2290  178.2620  143.9030 C   0  0  1  0  0  3  0  0  0  0  0  0
  183.4200  179.0750  142.9170 C   0  0  0  0  0  1  0  0  0  0  0  0
  186.4800  177.3030  144.3750 C   0  0  0  0  0  2  0  0  0  0  0  0
  185.6300  178.0440  143.3510 C   0  0  0  0  0  2  0  0  0  0  0  0
  185.1560  179.0160  147.3130 O   0  0  0  0  0  1  0  0  0  0  0  0
  186.4600  178.0520  145.7120 C   0  0  2  0  0  3  0  0  0  0  0  0
  191.7170  176.7540  137.3490 C   0  0  0  0  0  2  0  0  0  0  0  0
  191.8910  177.2310  138.7800 C   0  0  2  0  0  3  0  0  0  0  0  0
  192.1920  175.7890  138.4050 C   0  0  2  0  0  3  0  0  0  0  0  0
  193.6920  175.6180  138.2650 C   0  0  0  0  0  2  0  0  0  0  0  0
  192.8010  173.4900  136.8740 O   0  0  0  0  0  0  0  0  0  0  0  0
  194.8000  173.1620  138.2580 O   0  0  0  0  0  0  0  0  0  0  0  0
  194.0710  174.1270  137.3650 S   0  0  0  0  0  0  0  0  0  0  0  0
  195.1030  174.5330  135.9770 C   0  0  0  0  0  1  0  0  0  0  0  0
  187.2520  178.6370  136.1280 C   0  0  0  0  0  2  0  0  0  0  0  0
  188.3220  177.2100  134.5950 O   0  0  0  0  0  0  0  0  0  0  0  0
  187.2810  177.4980  135.1620 C   0  0  0  0  0  0  0  0  0  0  0  0
  186.0390  176.6990  134.9130 C   0  0  0  0  0  2  0  0  0  0  0  0
  184.9150  177.1340  135.8430 C   0  0  0  0  0  2  0  0  0  0  0  0
  184.1970  176.8050  138.0920 O   0  0  0  0  0  1  0  0  0  0  0  0
  184.7240  176.1370  136.9820 C   0  0  1  0  0  3  0  0  0  0  0  0
  182.4670  175.3330  136.8950 O   0  0  0  0  0  1  0  0  0  0  0  0
  183.7870  175.0120  136.5530 C   0  0  2  0  0  3  0  0  0  0  0  0
  185.3900  173.6270  137.3120 O   0  0  0  0  0  0  0  0  0  0  0  0
  184.1810  173.7320  137.2240 C   0  0  0  0  0  2  0  0  0  0  0  0
  185.5200  173.0180  137.5930 C   0  0  0  0  0  2  0  0  0  0  0  0
  186.0570  172.1800  136.4760 O   0  0  0  0  0  1  0  0  0  0  0  0
  1 13  1  6  0  0  0
  2  9  1  0  0  0  0
  2 12  1  0  0  0  0
  3  5  1  0  0  0  0
  4  3  2  0  0  0  0
  4  6  1  0  0  0  0
  5  9  2  0  0  0  0
  6  2  2  0  0  0  0
  7  3  1  0  0  0  0
  8 10  2  0  0  0  0
  8  7  1  0  0  0  0
  9 11  1  0  0  0  0
 10  4  1  0  0  0  0
 11  1  1  0  0  0  0
 12  1  1  0  0  0  0
 13 14  1  0  0  0  0
 14 16  1  0  0  0  0
 15 13  2  0  0  0  0
 16 18  1  0  0  0  0
 18 17  1  1  0  0  0
 19 18  1  0  0  0  0
 20 26  1  0  0  0  0
 21 20  1  0  0  0  0
 22 23  1  6  0  0  0
 22 21  1  0  0  0  0
 24 27  1  0  0  0  0
 25 22  1  0  0  0  0
 25 24  1  0  0  0  0
 27 20  1  0  0  0  0
 27 19  1  1  0  0  0
 28 30  1  0  0  0  0
 28 29  1  0  0  0  0
 29  6  1  1  0  0  0
 30 31  1  6  0  0  0
 30 29  1  0  0  0  0
 32 34  2  0  0  0  0
 34 33  2  0  0  0  0
 34 31  1  0  0  0  0
 35 34  1  0  0  0  0
 36  8  1  0  0  0  0
 37 38  2  0  0  0  0
 38 36  1  0  0  0  0
 39 38  1  0  0  0  0
 39 40  1  0  0  0  0
 40 42  1  0  0  0  0
 42 41  1  1  0  0  0
 44 43  1  1  0  0  0
 44 42  1  0  0  0  0
 44 46  1  0  0  0  0
 45 47  1  0  0  0  0
 46 45  1  0  0  0  0
 48 47  1  0  0  0  0
M  END
>  <MODEL>
9

>  <REMARK>
 VINA RESULT:      -7.2      2.804      4.783
  Name = 
  16 active torsions:
  status: ('A' for Active; 'I' for Inactive)
    1  A    between atoms: C_3  and  C_24
    2  A    between atoms: C_10  and  C_19
    3  A    between atoms: C_10  and  C_46
    4  A    between atoms: C_13  and  C_34
    5  A    between atoms: C_14  and  C_43
    6  A    between atoms: C_18  and  C_34
    7  A    between atoms: C_18  and  C_44
    8  A    between atoms: S_22  and  C_28
    9  A    between atoms: C_28  and  C_47
   10  A    between atoms: N_29  and  N_30
   11  A    between atoms: N_29  and  C_33
   12  A    between atoms: C_33  and  N_45
   13  A    between atoms: C_36  and  C_37
   14  A    between atoms: C_36  and  C_46
   15  A    between atoms: C_37  and  C_44
   16  A    between atoms: C_42  and  N_45
                            x       y       z     vdW  Elec       q    Type
                         _______ _______ _______ _____ _____    ______ ____

>  <TORSDO>
F 16

$$$$
