=
 OpenBabel10222416403D

 30 35  0  0  1  0  0  0  0  0999 V2000
  184.7690  178.3490  141.9110 C   0  0  0  0  0  0  0  0  0  0  0  0
  180.6610  179.9570  138.0380 C   0  0  1  0  0  3  0  0  0  0  0  0
  181.9230  179.4280  138.7570 C   0  0  2  0  0  3  0  0  0  0  0  0
  180.0020  177.5030  137.5700 C   0  0  0  0  0  2  0  0  0  0  0  0
  186.2860  178.9780  140.2060 C   0  0  0  0  0  2  0  0  0  0  0  0
  180.9540  180.4360  136.6200 C   0  0  0  0  0  1  0  0  0  0  0  0
  183.0520  180.4330  138.8500 C   0  0  0  0  0  0  0  0  0  0  0  0
  179.5500  178.9020  138.0240 C   0  0  0  0  0  2  0  0  0  0  0  0
  181.4960  177.4200  137.2400 C   0  0  0  0  0  2  0  0  0  0  0  0
  182.3560  178.0000  138.3670 C   0  0  2  0  0  3  0  0  0  0  0  0
  182.8130  181.6470  138.6110 O   0  0  0  0  0  0  0  0  0  0  0  0
  184.8990  178.7710  139.6170 C   0  0  1  0  0  3  0  0  0  0  0  0
  184.1620  178.1380  140.7470 C   0  0  0  0  0  0  0  0  0  0  0  0
  183.0210  177.2080  140.5910 C   0  0  0  0  0  3  0  0  0  0  0  0
  182.2590  177.1380  139.5410 N   0  0  0  0  0  0  0  0  0  0  0  0
  184.3590  180.0950  139.3250 N   0  0  0  0  0  2  0  0  0  0  0  0
  186.0770  179.0380  141.7160 C   0  0  0  0  0  2  0  0  0  0  0  0
  188.3820  176.9530  145.8160 N   0  0  0  0  0  0  0  0  0  0  0  0
  189.1480  177.1910  146.9150 C   0  0  0  0  0  3  0  0  0  0  0  0
  188.7150  178.0920  147.8970 C   0  0  0  0  0  3  0  0  0  0  0  0
  185.5450  179.1680  146.4140 N   0  0  0  0  0  0  0  0  0  0  0  0
  184.8040  178.9220  145.3020 C   0  0  0  0  0  0  0  0  0  0  0  0
  185.2030  178.0160  144.3540 C   0  0  0  0  0  0  0  0  0  0  0  0
  186.4020  177.3130  144.5050 C   0  0  0  0  0  3  0  0  0  0  0  0
  186.7310  178.5190  146.5960 C   0  0  0  0  0  0  0  0  0  0  0  0
  187.5010  178.7570  147.7320 C   0  0  0  0  0  3  0  0  0  0  0  0
  183.0800  178.8510  143.6870 C   0  0  0  0  0  3  0  0  0  0  0  0
  184.2150  177.9010  143.2480 C   0  0  1  0  0  3  0  0  0  0  0  0
  187.1870  177.5800  145.6350 C   0  0  0  0  0  0  0  0  0  0  0  0
  183.4920  179.5230  145.0050 C   0  0  0  0  0  3  0  0  0  0  0  0
  2  6  1  6  0  0  0
  2  3  1  0  0  0  0
  3  7  1  6  0  0  0
  4  8  1  0  0  0  0
  5 17  1  0  0  0  0
  7 16  1  0  0  0  0
  8  2  1  0  0  0  0
  9  4  1  0  0  0  0
 10  9  1  6  0  0  0
 10  3  1  0  0  0  0
 10 15  1  0  0  0  0
 11  7  2  0  0  0  0
 12  5  1  1  0  0  0
 12 13  1  0  0  0  0
 13  1  2  0  0  0  0
 14 13  1  0  0  0  0
 15 14  2  0  0  0  0
 16 12  1  0  0  0  0
 17  1  1  0  0  0  0
 18 19  1  0  0  0  0
 19 20  2  0  0  0  0
 21 25  1  0  0  0  0
 22 21  2  0  0  0  0
 23 24  2  0  0  0  0
 23 22  1  0  0  0  0
 24 29  1  0  0  0  0
 25 26  2  0  0  0  0
 26 20  1  0  0  0  0
 27 30  2  0  0  0  0
 28  1  1  6  0  0  0
 28 27  1  0  0  0  0
 28 23  1  0  0  0  0
 29 18  2  0  0  0  0
 29 25  1  0  0  0  0
 30 22  1  0  0  0  0
M  END
>  <MODEL>
1

>  <REMARK>
 VINA RESULT:      -8.8      0.000      0.000
  Name = 
  1 active torsions:
  status: ('A' for Active; 'I' for Inactive)
    1  A    between atoms: C_1  and  C_19
                            x       y       z     vdW  Elec       q    Type
                         _______ _______ _______ _____ _____    ______ ____

>  <TORSDO>
F 1

$$$$
=
 OpenBabel10222416403D

 30 35  0  0  1  0  0  0  0  0999 V2000
  183.2190  178.5230  139.9810 C   0  0  0  0  0  0  0  0  0  0  0  0
  180.5740  180.7340  135.2300 C   0  0  1  0  0  3  0  0  0  0  0  0
  180.9290  180.0520  136.5710 C   0  0  2  0  0  3  0  0  0  0  0  0
  179.5460  182.6780  136.5860 C   0  0  0  0  0  2  0  0  0  0  0  0
  181.5550  176.8460  139.8370 C   0  0  0  0  0  2  0  0  0  0  0  0
  179.3160  180.1500  134.5940 C   0  0  0  0  0  1  0  0  0  0  0  0
  181.1330  178.5550  136.4730 C   0  0  0  0  0  0  0  0  0  0  0  0
  180.4280  182.2490  135.4010 C   0  0  0  0  0  2  0  0  0  0  0  0
  178.9950  181.5000  137.3950 C   0  0  0  0  0  2  0  0  0  0  0  0
  180.1020  180.5160  137.7870 C   0  0  2  0  0  3  0  0  0  0  0  0
  181.2750  178.0290  135.3360 O   0  0  0  0  0  0  0  0  0  0  0  0
  181.1370  178.0640  139.0270 C   0  0  1  0  0  3  0  0  0  0  0  0
  182.1430  179.0830  139.4400 C   0  0  0  0  0  0  0  0  0  0  0  0
  181.9020  180.5440  139.4540 C   0  0  0  0  0  3  0  0  0  0  0  0
  180.9940  181.1540  138.7520 N   0  0  0  0  0  0  0  0  0  0  0  0
  181.3020  177.7150  137.6190 N   0  0  0  0  0  2  0  0  0  0  0  0
  183.0360  177.0510  140.1380 C   0  0  0  0  0  2  0  0  0  0  0  0
  184.1860  178.8930  145.3830 N   0  0  0  0  0  0  0  0  0  0  0  0
  184.7750  178.5100  146.5490 C   0  0  0  0  0  3  0  0  0  0  0  0
  186.0620  177.9570  146.5440 C   0  0  0  0  0  3  0  0  0  0  0  0
  186.7500  177.9920  142.9470 N   0  0  0  0  0  0  0  0  0  0  0  0
  186.1370  178.3700  141.7960 C   0  0  0  0  0  0  0  0  0  0  0  0
  184.8930  178.9440  141.7950 C   0  0  0  0  0  0  0  0  0  0  0  0
  184.2080  179.1570  142.9960 C   0  0  0  0  0  3  0  0  0  0  0  0
  186.1140  178.1620  144.1420 C   0  0  0  0  0  0  0  0  0  0  0  0
  186.7310  177.7830  145.3320 C   0  0  0  0  0  3  0  0  0  0  0  0
  185.6540  178.8990  139.5440 C   0  0  0  0  0  3  0  0  0  0  0  0
  184.4460  179.2960  140.4200 C   0  0  1  0  0  3  0  0  0  0  0  0
  184.8220  178.7450  144.1870 C   0  0  0  0  0  0  0  0  0  0  0  0
  186.7270  178.2770  140.4490 C   0  0  0  0  0  3  0  0  0  0  0  0
  1 17  1  0  0  0  0
  2  6  1  1  0  0  0
  2  8  1  0  0  0  0
  2  3  1  0  0  0  0
  3  7  1  6  0  0  0
  3 10  1  0  0  0  0
  4  9  1  0  0  0  0
  5 17  1  0  0  0  0
  7 16  1  0  0  0  0
  8  4  1  0  0  0  0
 10  9  1  6  0  0  0
 10 15  1  0  0  0  0
 11  7  2  0  0  0  0
 12 13  1  0  0  0  0
 12  5  1  1  0  0  0
 13 14  1  0  0  0  0
 13  1  2  0  0  0  0
 15 14  2  0  0  0  0
 16 12  1  0  0  0  0
 18 19  1  0  0  0  0
 20 19  2  0  0  0  0
 21 25  1  0  0  0  0
 22 21  2  0  0  0  0
 23 22  1  0  0  0  0
 23 24  2  0  0  0  0
 24 29  1  0  0  0  0
 25 29  1  0  0  0  0
 25 26  2  0  0  0  0
 26 20  1  0  0  0  0
 27 28  1  0  0  0  0
 27 30  2  0  0  0  0
 28  1  1  6  0  0  0
 28 23  1  0  0  0  0
 29 18  2  0  0  0  0
 30 22  1  0  0  0  0
M  END
>  <MODEL>
2

>  <REMARK>
 VINA RESULT:      -7.8      1.904      3.876
  Name = 
  1 active torsions:
  status: ('A' for Active; 'I' for Inactive)
    1  A    between atoms: C_1  and  C_19
                            x       y       z     vdW  Elec       q    Type
                         _______ _______ _______ _____ _____    ______ ____

>  <TORSDO>
F 1

$$$$
=
 OpenBabel10222416403D

 30 35  0  0  1  0  0  0  0  0999 V2000
  185.9100  178.3050  144.5770 C   0  0  0  0  0  0  0  0  0  0  0  0
  181.6930  177.6380  140.5490 C   0  0  1  0  0  3  0  0  0  0  0  0
  182.7870  178.1640  141.5050 C   0  0  2  0  0  3  0  0  0  0  0  0
  183.3670  177.9370  138.6040 C   0  0  0  0  0  2  0  0  0  0  0  0
  184.9060  180.4190  144.9350 C   0  0  0  0  0  2  0  0  0  0  0  0
  180.6660  178.7070  140.1910 C   0  0  0  0  0  1  0  0  0  0  0  0
  182.2560  178.7260  142.8070 C   0  0  0  0  0  0  0  0  0  0  0  0
  182.3080  177.0460  139.2760 C   0  0  0  0  0  2  0  0  0  0  0  0
  183.6280  179.2470  139.3520 C   0  0  0  0  0  2  0  0  0  0  0  0
  183.8960  179.0040  140.8410 C   0  0  2  0  0  3  0  0  0  0  0  0
  181.0630  178.4870  143.1370 O   0  0  0  0  0  0  0  0  0  0  0  0
  184.4630  179.8540  143.5940 C   0  0  1  0  0  3  0  0  0  0  0  0
  185.3730  178.6860  143.4220 C   0  0  0  0  0  0  0  0  0  0  0  0
  185.8080  178.1440  142.1150 C   0  0  0  0  0  3  0  0  0  0  0  0
  185.1720  178.3110  140.9940 N   0  0  0  0  0  0  0  0  0  0  0  0
  183.0810  179.4130  143.7540 N   0  0  0  0  0  2  0  0  0  0  0  0
  185.5460  179.2480  145.6740 C   0  0  0  0  0  2  0  0  0  0  0  0
  189.6790  177.4200  140.6710 N   0  0  0  0  0  0  0  0  0  0  0  0
  190.9280  177.5030  140.1340 C   0  0  0  0  0  3  0  0  0  0  0  0
  192.0560  177.5010  140.9640 C   0  0  0  0  0  3  0  0  0  0  0  0
  190.4300  177.3050  144.2400 N   0  0  0  0  0  0  0  0  0  0  0  0
  189.1740  177.2360  144.7510 C   0  0  0  0  0  0  0  0  0  0  0  0
  188.0670  177.2010  143.9450 C   0  0  0  0  0  0  0  0  0  0  0  0
  188.1990  177.2400  142.5540 C   0  0  0  0  0  3  0  0  0  0  0  0
  190.6100  177.3640  142.8880 C   0  0  0  0  0  0  0  0  0  0  0  0
  191.8920  177.4320  142.3470 C   0  0  0  0  0  3  0  0  0  0  0  0
  187.3140  177.0090  146.1920 C   0  0  0  0  0  3  0  0  0  0  0  0
  186.8100  177.0970  144.7350 C   0  0  1  0  0  3  0  0  0  0  0  0
  189.4910  177.3400  142.0170 C   0  0  0  0  0  0  0  0  0  0  0  0
  188.8450  177.1280  146.1840 C   0  0  0  0  0  3  0  0  0  0  0  0
  1 17  1  0  0  0  0
  2  6  1  6  0  0  0
  2  3  1  0  0  0  0
  3  7  1  1  0  0  0
  4  8  1  0  0  0  0
  4  9  1  0  0  0  0
  5 17  1  0  0  0  0
  7 11  2  0  0  0  0
  7 16  1  0  0  0  0
  8  2  1  0  0  0  0
 10  9  1  6  0  0  0
 10 15  1  0  0  0  0
 10  3  1  0  0  0  0
 12 16  1  0  0  0  0
 12  5  1  1  0  0  0
 13 12  1  0  0  0  0
 13  1  2  0  0  0  0
 14 13  1  0  0  0  0
 15 14  2  0  0  0  0
 18 29  1  0  0  0  0
 19 18  2  0  0  0  0
 19 20  1  0  0  0  0
 20 26  2  0  0  0  0
 21 22  1  0  0  0  0
 22 30  1  0  0  0  0
 23 28  1  0  0  0  0
 23 22  2  0  0  0  0
 24 23  1  0  0  0  0
 25 21  2  0  0  0  0
 26 25  1  0  0  0  0
 28  1  1  1  0  0  0
 28 27  1  0  0  0  0
 29 24  2  0  0  0  0
 29 25  1  0  0  0  0
 30 27  2  0  0  0  0
M  END
>  <MODEL>
3

>  <REMARK>
 VINA RESULT:      -7.7      2.888      4.615
  Name = 
  1 active torsions:
  status: ('A' for Active; 'I' for Inactive)
    1  A    between atoms: C_1  and  C_19
                            x       y       z     vdW  Elec       q    Type
                         _______ _______ _______ _____ _____    ______ ____

>  <TORSDO>
F 1

$$$$
=
 OpenBabel10222416403D

 30 35  0  0  1  0  0  0  0  0999 V2000
  185.6770  177.5510  137.4770 C   0  0  0  0  0  0  0  0  0  0  0  0
  180.5250  180.2930  136.8530 C   0  0  1  0  0  3  0  0  0  0  0  0
  181.6870  179.3470  137.2330 C   0  0  2  0  0  3  0  0  0  0  0  0
  180.6340  181.2530  139.2490 C   0  0  0  0  0  2  0  0  0  0  0  0
  184.3530  175.5920  137.5930 C   0  0  0  0  0  2  0  0  0  0  0  0
  179.1670  179.5990  136.8980 C   0  0  0  0  0  1  0  0  0  0  0  0
  181.7900  178.1110  136.3660 C   0  0  0  0  0  0  0  0  0  0  0  0
  180.5130  181.5400  137.7430 C   0  0  0  0  0  2  0  0  0  0  0  0
  180.7690  179.7630  139.5780 C   0  0  0  0  0  2  0  0  0  0  0  0
  181.8680  179.0980  138.7430 C   0  0  2  0  0  3  0  0  0  0  0  0
  181.1480  178.0670  135.2810 O   0  0  0  0  0  0  0  0  0  0  0  0
  183.4900  176.8190  137.8500 C   0  0  1  0  0  3  0  0  0  0  0  0
  184.5060  177.8980  138.0010 C   0  0  0  0  0  0  0  0  0  0  0  0
  184.3200  179.1200  138.8180 C   0  0  0  0  0  3  0  0  0  0  0  0
  183.1680  179.6170  139.1570 N   0  0  0  0  0  0  0  0  0  0  0  0
  182.6850  177.0300  136.6510 N   0  0  0  0  0  2  0  0  0  0  0  0
  185.6590  176.1310  137.0190 C   0  0  0  0  0  2  0  0  0  0  0  0
  188.8480  177.9430  141.9540 N   0  0  0  0  0  0  0  0  0  0  0  0
  189.9230  177.6190  142.7240 C   0  0  0  0  0  3  0  0  0  0  0  0
  191.1320  177.2400  142.1270 C   0  0  0  0  0  3  0  0  0  0  0  0
  190.1810  177.4340  138.5960 N   0  0  0  0  0  0  0  0  0  0  0  0
  189.0900  177.7490  137.8500 C   0  0  0  0  0  0  0  0  0  0  0  0
  187.9140  178.1550  138.4250 C   0  0  0  0  0  0  0  0  0  0  0  0
  187.8010  178.2530  139.8150 C   0  0  0  0  0  3  0  0  0  0  0  0
  190.1120  177.4960  139.9570 C   0  0  0  0  0  0  0  0  0  0  0  0
  191.2230  177.1790  140.7360 C   0  0  0  0  0  3  0  0  0  0  0  0
  187.6210  178.2530  136.0690 C   0  0  0  0  0  3  0  0  0  0  0  0
  186.8780  178.4700  137.4050 C   0  0  1  0  0  3  0  0  0  0  0  0
  188.9120  177.9020  140.5950 C   0  0  0  0  0  0  0  0  0  0  0  0
  189.0420  177.7600  136.3770 C   0  0  0  0  0  3  0  0  0  0  0  0
  1 13  2  0  0  0  0
  2  6  1  1  0  0  0
  2  3  1  0  0  0  0
  2  8  1  0  0  0  0
  3  7  1  6  0  0  0
  3 10  1  0  0  0  0
  4  9  1  0  0  0  0
  7 16  1  0  0  0  0
  8  4  1  0  0  0  0
 10 15  1  0  0  0  0
 10  9  1  1  0  0  0
 11  7  2  0  0  0  0
 12  5  1  6  0  0  0
 12 13  1  0  0  0  0
 13 14  1  0  0  0  0
 14 15  2  0  0  0  0
 16 12  1  0  0  0  0
 17  1  1  0  0  0  0
 17  5  1  0  0  0  0
 18 19  1  0  0  0  0
 20 19  2  0  0  0  0
 21 25  1  0  0  0  0
 22 23  1  0  0  0  0
 22 21  2  0  0  0  0
 23 24  2  0  0  0  0
 24 29  1  0  0  0  0
 25 29  1  0  0  0  0
 25 26  2  0  0  0  0
 26 20  1  0  0  0  0
 27 30  2  0  0  0  0
 27 28  1  0  0  0  0
 28  1  1  6  0  0  0
 28 23  1  0  0  0  0
 29 18  2  0  0  0  0
 30 22  1  0  0  0  0
M  END
>  <MODEL>
4

>  <REMARK>
 VINA RESULT:      -7.5      3.699      5.457
  Name = 
  1 active torsions:
  status: ('A' for Active; 'I' for Inactive)
    1  A    between atoms: C_1  and  C_19
                            x       y       z     vdW  Elec       q    Type
                         _______ _______ _______ _____ _____    ______ ____

>  <TORSDO>
F 1

$$$$
=
 OpenBabel10222416403D

 30 35  0  0  1  0  0  0  0  0999 V2000
  189.8940  177.3790  139.2320 C   0  0  0  0  0  0  0  0  0  0  0  0
  193.4620  173.2310  137.1070 C   0  0  1  0  0  3  0  0  0  0  0  0
  192.5340  174.4480  137.3220 C   0  0  2  0  0  3  0  0  0  0  0  0
  195.4470  174.8780  136.9550 C   0  0  0  0  0  2  0  0  0  0  0  0
  188.9120  177.3050  137.0800 C   0  0  0  0  0  2  0  0  0  0  0  0
  193.4260  172.7150  135.6720 C   0  0  0  0  0  1  0  0  0  0  0  0
  191.0820  174.1910  136.9790 C   0  0  0  0  0  0  0  0  0  0  0  0
  194.9020  173.5540  137.5190 C   0  0  0  0  0  2  0  0  0  0  0  0
  194.4310  175.6430  136.1020 C   0  0  0  0  0  2  0  0  0  0  0  0
  193.0890  175.7980  136.8250 C   0  0  2  0  0  3  0  0  0  0  0  0
  190.6910  173.0030  136.8220 O   0  0  0  0  0  0  0  0  0  0  0  0
  190.2930  176.6680  137.0430 C   0  0  1  0  0  3  0  0  0  0  0  0
  190.8500  177.0350  138.3760 C   0  0  0  0  0  0  0  0  0  0  0  0
  192.2920  177.2120  138.6650 C   0  0  0  0  0  3  0  0  0  0  0  0
  193.2580  176.6910  137.9680 N   0  0  0  0  0  0  0  0  0  0  0  0
  190.0930  175.2250  136.9460 N   0  0  0  0  0  2  0  0  0  0  0  0
  188.5640  177.4260  138.5600 C   0  0  0  0  0  2  0  0  0  0  0  0
  185.6920  179.4600  142.1070 N   0  0  0  0  0  0  0  0  0  0  0  0
  184.6290  179.3780  142.9540 C   0  0  0  0  0  3  0  0  0  0  0  0
  184.6110  178.4170  143.9740 C   0  0  0  0  0  3  0  0  0  0  0  0
  187.8070  176.7500  143.3310 N   0  0  0  0  0  0  0  0  0  0  0  0
  188.8490  176.8440  142.4660 C   0  0  0  0  0  0  0  0  0  0  0  0
  188.8920  177.8030  141.4880 C   0  0  0  0  0  0  0  0  0  0  0  0
  187.8480  178.7230  141.3480 C   0  0  0  0  0  3  0  0  0  0  0  0
  186.7560  177.6130  143.2230 C   0  0  0  0  0  0  0  0  0  0  0  0
  185.6800  177.5320  144.1050 C   0  0  0  0  0  3  0  0  0  0  0  0
  190.9240  176.5760  141.3660 C   0  0  0  0  0  3  0  0  0  0  0  0
  190.1440  177.7220  140.6860 C   0  0  1  0  0  3  0  0  0  0  0  0
  186.7550  178.6160  142.2200 C   0  0  0  0  0  0  0  0  0  0  0  0
  190.0590  176.0030  142.4970 C   0  0  0  0  0  3  0  0  0  0  0  0
  2  6  1  6  0  0  0
  2  3  1  0  0  0  0
  2  8  1  0  0  0  0
  3  7  1  6  0  0  0
  4  8  1  0  0  0  0
  5 17  1  0  0  0  0
  9  4  1  0  0  0  0
 10  9  1  1  0  0  0
 10  3  1  0  0  0  0
 10 15  1  0  0  0  0
 11  7  2  0  0  0  0
 12  5  1  1  0  0  0
 12 13  1  0  0  0  0
 13 14  1  0  0  0  0
 13  1  2  0  0  0  0
 15 14  2  0  0  0  0
 16  7  1  0  0  0  0
 16 12  1  0  0  0  0
 17  1  1  0  0  0  0
 18 29  2  0  0  0  0
 18 19  1  0  0  0  0
 19 20  2  0  0  0  0
 20 26  1  0  0  0  0
 22 30  1  0  0  0  0
 22 21  2  0  0  0  0
 23 22  1  0  0  0  0
 24 23  2  0  0  0  0
 24 29  1  0  0  0  0
 25 21  1  0  0  0  0
 25 26  2  0  0  0  0
 27 30  2  0  0  0  0
 28  1  1  6  0  0  0
 28 27  1  0  0  0  0
 28 23  1  0  0  0  0
 29 25  1  0  0  0  0
M  END
>  <MODEL>
5

>  <REMARK>
 VINA RESULT:      -7.4      6.477      9.058
  Name = 
  1 active torsions:
  status: ('A' for Active; 'I' for Inactive)
    1  A    between atoms: C_1  and  C_19
                            x       y       z     vdW  Elec       q    Type
                         _______ _______ _______ _____ _____    ______ ____

>  <TORSDO>
F 1

$$$$
=
 OpenBabel10222416403D

 30 35  0  0  1  0  0  0  0  0999 V2000
  187.7770  177.8780  138.8730 C   0  0  0  0  0  0  0  0  0  0  0  0
  190.3410  173.2860  136.2670 C   0  0  1  0  0  3  0  0  0  0  0  0
  189.5540  174.5710  136.6130 C   0  0  2  0  0  3  0  0  0  0  0  0
  192.1470  174.7840  135.1840 C   0  0  0  0  0  2  0  0  0  0  0  0
  186.0920  177.5640  137.2400 C   0  0  0  0  0  2  0  0  0  0  0  0
  189.7940  172.5800  135.0300 C   0  0  0  0  0  1  0  0  0  0  0  0
  188.0740  174.3500  136.8440 C   0  0  0  0  0  0  0  0  0  0  0  0
  191.8340  173.5820  136.0930 C   0  0  0  0  0  2  0  0  0  0  0  0
  190.8950  175.4800  134.6400 C   0  0  0  0  0  2  0  0  0  0  0  0
  189.9000  175.8070  135.7580 C   0  0  2  0  0  3  0  0  0  0  0  0
  187.6490  173.1750  137.0130 O   0  0  0  0  0  0  0  0  0  0  0  0
  187.3670  176.8520  136.8140 C   0  0  1  0  0  3  0  0  0  0  0  0
  188.3640  177.3680  137.7950 C   0  0  0  0  0  0  0  0  0  0  0  0
  189.8140  177.5020  137.5290 C   0  0  0  0  0  3  0  0  0  0  0  0
  190.4670  176.8380  136.6220 N   0  0  0  0  0  0  0  0  0  0  0  0
  187.1420  175.4230  137.0090 N   0  0  0  0  0  2  0  0  0  0  0  0
  186.2940  177.9070  138.7130 C   0  0  0  0  0  2  0  0  0  0  0  0
  184.8150  179.3790  143.2580 N   0  0  0  0  0  0  0  0  0  0  0  0
  184.2480  179.1760  144.4790 C   0  0  0  0  0  3  0  0  0  0  0  0
  184.8650  178.3340  145.4140 C   0  0  0  0  0  3  0  0  0  0  0  0
  187.7790  177.2620  143.4730 N   0  0  0  0  0  0  0  0  0  0  0  0
  188.3180  177.4700  142.2450 C   0  0  0  0  0  0  0  0  0  0  0  0
  187.7410  178.3190  141.3370 C   0  0  0  0  0  0  0  0  0  0  0  0
  186.5620  179.0010  141.6530 C   0  0  0  0  0  3  0  0  0  0  0  0
  186.6190  177.8910  143.8210 C   0  0  0  0  0  0  0  0  0  0  0  0
  186.0550  177.6900  145.0790 C   0  0  0  0  0  3  0  0  0  0  0  0
  189.7500  177.5020  140.3640 C   0  0  0  0  0  3  0  0  0  0  0  0
  188.5290  178.4040  140.0780 C   0  0  1  0  0  3  0  0  0  0  0  0
  185.9830  178.7710  142.9090 C   0  0  0  0  0  0  0  0  0  0  0  0
  189.5810  176.8860  141.7600 C   0  0  0  0  0  3  0  0  0  0  0  0
  2  6  1  6  0  0  0
  2  3  1  0  0  0  0
  3  7  1  6  0  0  0
  4  8  1  0  0  0  0
  5 17  1  0  0  0  0
  7 16  1  0  0  0  0
  7 11  2  0  0  0  0
  8  2  1  0  0  0  0
  9  4  1  0  0  0  0
 10  9  1  6  0  0  0
 10  3  1  0  0  0  0
 10 15  1  0  0  0  0
 12 16  1  0  0  0  0
 12  5  1  1  0  0  0
 12 13  1  0  0  0  0
 13  1  2  0  0  0  0
 14 13  1  0  0  0  0
 15 14  2  0  0  0  0
 17  1  1  0  0  0  0
 18 19  1  0  0  0  0
 19 20  2  0  0  0  0
 21 25  1  0  0  0  0
 22 21  2  0  0  0  0
 23 24  2  0  0  0  0
 23 22  1  0  0  0  0
 24 29  1  0  0  0  0
 25 26  2  0  0  0  0
 26 20  1  0  0  0  0
 27 30  2  0  0  0  0
 28  1  1  6  0  0  0
 28 27  1  0  0  0  0
 28 23  1  0  0  0  0
 29 18  2  0  0  0  0
 29 25  1  0  0  0  0
 30 22  1  0  0  0  0
M  END
>  <MODEL>
6

>  <REMARK>
 VINA RESULT:      -7.3      5.191      7.333
  Name = 
  1 active torsions:
  status: ('A' for Active; 'I' for Inactive)
    1  A    between atoms: C_1  and  C_19
                            x       y       z     vdW  Elec       q    Type
                         _______ _______ _______ _____ _____    ______ ____

>  <TORSDO>
F 1

$$$$
=
 OpenBabel10222416403D

 30 35  0  0  1  0  0  0  0  0999 V2000
  191.7490  176.0290  138.0290 C   0  0  0  0  0  0  0  0  0  0  0  0
  197.1120  173.8120  137.1480 C   0  0  1  0  0  3  0  0  0  0  0  0
  195.6340  174.2520  137.0500 C   0  0  2  0  0  3  0  0  0  0  0  0
  197.6800  175.6240  135.3960 C   0  0  0  0  0  2  0  0  0  0  0  0
  191.0210  174.1270  136.8220 C   0  0  0  0  0  2  0  0  0  0  0  0
  197.4020  172.5510  136.3400 C   0  0  0  0  0  1  0  0  0  0  0  0
  194.6410  173.1990  137.4960 C   0  0  0  0  0  0  0  0  0  0  0  0
  198.0550  174.9430  136.7240 C   0  0  0  0  0  2  0  0  0  0  0  0
  196.4100  175.0560  134.7550 C   0  0  0  0  0  2  0  0  0  0  0  0
  195.2510  174.9970  135.7550 C   0  0  2  0  0  3  0  0  0  0  0  0
  195.0560  172.2020  138.1470 O   0  0  0  0  0  0  0  0  0  0  0  0
  192.5050  174.3620  136.5770 C   0  0  1  0  0  3  0  0  0  0  0  0
  192.7180  175.7090  137.1780 C   0  0  0  0  0  0  0  0  0  0  0  0
  193.7520  176.6730  136.7360 C   0  0  0  0  0  3  0  0  0  0  0  0
  194.8370  176.3550  136.0940 N   0  0  0  0  0  0  0  0  0  0  0  0
  193.2270  173.3400  137.3280 N   0  0  0  0  0  2  0  0  0  0  0  0
  190.6680  175.0020  138.0210 C   0  0  0  0  0  2  0  0  0  0  0  0
  186.8710  178.3920  138.9640 N   0  0  0  0  0  0  0  0  0  0  0  0
  185.7510  178.6390  139.6990 C   0  0  0  0  0  3  0  0  0  0  0  0
  185.8090  178.6320  141.0980 C   0  0  0  0  0  3  0  0  0  0  0  0
  189.3420  177.7990  141.5820 N   0  0  0  0  0  0  0  0  0  0  0  0
  190.4410  177.5440  140.8270 C   0  0  0  0  0  0  0  0  0  0  0  0
  190.4030  177.5840  139.4570 C   0  0  0  0  0  0  0  0  0  0  0  0
  189.2130  177.8890  138.7900 C   0  0  0  0  0  3  0  0  0  0  0  0
  188.1540  178.0840  140.9750 C   0  0  0  0  0  0  0  0  0  0  0  0
  187.0180  178.3520  141.7360 C   0  0  0  0  0  3  0  0  0  0  0  0
  192.6480  177.1270  140.0900 C   0  0  0  0  0  3  0  0  0  0  0  0
  191.7340  177.2980  138.8570 C   0  0  1  0  0  3  0  0  0  0  0  0
  188.0660  178.1270  139.5600 C   0  0  0  0  0  0  0  0  0  0  0  0
  191.7890  177.2630  141.3540 C   0  0  0  0  0  3  0  0  0  0  0  0
  2  6  1  6  0  0  0
  3  2  1  0  0  0  0
  3  7  1  6  0  0  0
  4  8  1  0  0  0  0
  5 17  1  0  0  0  0
  7 11  2  0  0  0  0
  8  2  1  0  0  0  0
  9  4  1  0  0  0  0
 10  9  1  6  0  0  0
 10 15  1  0  0  0  0
 10  3  1  0  0  0  0
 12  5  1  1  0  0  0
 12 13  1  0  0  0  0
 12 16  1  0  0  0  0
 13  1  2  0  0  0  0
 14 13  1  0  0  0  0
 15 14  2  0  0  0  0
 16  7  1  0  0  0  0
 17  1  1  0  0  0  0
 18 29  2  0  0  0  0
 18 19  1  0  0  0  0
 19 20  2  0  0  0  0
 20 26  1  0  0  0  0
 22 30  1  0  0  0  0
 22 21  2  0  0  0  0
 23 22  1  0  0  0  0
 24 23  2  0  0  0  0
 24 29  1  0  0  0  0
 25 21  1  0  0  0  0
 25 26  2  0  0  0  0
 27 30  2  0  0  0  0
 28  1  1  1  0  0  0
 28 23  1  0  0  0  0
 28 27  1  0  0  0  0
 29 25  1  0  0  0  0
M  END
>  <MODEL>
7

>  <REMARK>
 VINA RESULT:      -7.0      8.549     11.411
  Name = 
  1 active torsions:
  status: ('A' for Active; 'I' for Inactive)
    1  A    between atoms: C_1  and  C_19
                            x       y       z     vdW  Elec       q    Type
                         _______ _______ _______ _____ _____    ______ ____

>  <TORSDO>
F 1

$$$$
=
 OpenBabel10222416403D

 30 35  0  0  1  0  0  0  0  0999 V2000
  186.2290  177.7650  138.0590 C   0  0  0  0  0  0  0  0  0  0  0  0
  190.1430  176.3000  142.1800 C   0  0  1  0  0  3  0  0  0  0  0  0
  189.3010  177.0000  141.0890 C   0  0  2  0  0  3  0  0  0  0  0  0
  189.0560  177.8780  143.9130 C   0  0  0  0  0  2  0  0  0  0  0  0
  188.0360  178.9570  137.1000 C   0  0  0  0  0  2  0  0  0  0  0  0
  191.5830  176.8020  142.2190 C   0  0  0  0  0  1  0  0  0  0  0  0
  189.8590  176.8610  139.6880 C   0  0  0  0  0  0  0  0  0  0  0  0
  189.4930  176.4460  143.5590 C   0  0  0  0  0  2  0  0  0  0  0  0
  189.3330  178.8930  142.8000 C   0  0  0  0  0  2  0  0  0  0  0  0
  188.7960  178.4110  141.4490 C   0  0  2  0  0  3  0  0  0  0  0  0
  190.7570  176.0030  139.4690 O   0  0  0  0  0  0  0  0  0  0  0  0
  188.3370  178.6400  138.5580 C   0  0  1  0  0  3  0  0  0  0  0  0
  187.0220  178.1440  139.0550 C   0  0  0  0  0  0  0  0  0  0  0  0
  186.5580  178.2540  140.4570 C   0  0  0  0  0  3  0  0  0  0  0  0
  187.3370  178.3970  141.4880 N   0  0  0  0  0  0  0  0  0  0  0  0
  189.3290  177.5690  138.5640 N   0  0  0  0  0  2  0  0  0  0  0  0
  186.8420  178.0800  136.7360 C   0  0  0  0  0  2  0  0  0  0  0  0
  181.9710  181.1610  138.8260 N   0  0  0  0  0  0  0  0  0  0  0  0
  180.8930  181.8850  138.4150 C   0  0  0  0  0  3  0  0  0  0  0  0
  180.1050  181.4350  137.3480 C   0  0  0  0  0  3  0  0  0  0  0  0
  181.9040  178.3650  136.4820 N   0  0  0  0  0  0  0  0  0  0  0  0
  182.9910  177.6680  136.9030 C   0  0  0  0  0  0  0  0  0  0  0  0
  183.7470  178.0820  137.9680 C   0  0  0  0  0  0  0  0  0  0  0  0
  183.4190  179.2520  138.6600 C   0  0  0  0  0  3  0  0  0  0  0  0
  181.5560  179.5230  137.1130 C   0  0  0  0  0  0  0  0  0  0  0  0
  180.4420  180.2490  136.6960 C   0  0  0  0  0  3  0  0  0  0  0  0
  184.6500  176.0150  137.2190 C   0  0  0  0  0  3  0  0  0  0  0  0
  184.8630  177.1400  138.2550 C   0  0  1  0  0  3  0  0  0  0  0  0
  182.3150  179.9930  138.2150 C   0  0  0  0  0  0  0  0  0  0  0  0
  183.4510  176.3880  136.3360 C   0  0  0  0  0  3  0  0  0  0  0  0
  1 13  2  0  0  0  0
  2  6  1  1  0  0  0
  2  8  1  0  0  0  0
  3  7  1  6  0  0  0
  3 10  1  0  0  0  0
  3  2  1  0  0  0  0
  8  4  1  0  0  0  0
  9  4  1  0  0  0  0
 10 15  1  0  0  0  0
 10  9  1  1  0  0  0
 11  7  2  0  0  0  0
 12  5  1  6  0  0  0
 12 16  1  0  0  0  0
 12 13  1  0  0  0  0
 13 14  1  0  0  0  0
 14 15  2  0  0  0  0
 16  7  1  0  0  0  0
 17  5  1  0  0  0  0
 17  1  1  0  0  0  0
 19 18  1  0  0  0  0
 20 19  2  0  0  0  0
 21 22  2  0  0  0  0
 21 25  1  0  0  0  0
 22 23  1  0  0  0  0
 23 28  1  0  0  0  0
 23 24  2  0  0  0  0
 25 29  1  0  0  0  0
 26 25  2  0  0  0  0
 26 20  1  0  0  0  0
 27 28  1  0  0  0  0
 28  1  1  6  0  0  0
 29 24  1  0  0  0  0
 29 18  2  0  0  0  0
 30 22  1  0  0  0  0
 30 27  2  0  0  0  0
M  END
>  <MODEL>
8

>  <REMARK>
 VINA RESULT:      -6.7      3.577      8.838
  Name = 
  1 active torsions:
  status: ('A' for Active; 'I' for Inactive)
    1  A    between atoms: C_1  and  C_19
                            x       y       z     vdW  Elec       q    Type
                         _______ _______ _______ _____ _____    ______ ____

>  <TORSDO>
F 1

$$$$
=
 OpenBabel10222416403D

 30 35  0  0  1  0  0  0  0  0999 V2000
  182.3990  178.9880  142.4590 C   0  0  0  0  0  0  0  0  0  0  0  0
  180.3390  176.0220  137.8320 C   0  0  1  0  0  3  0  0  0  0  0  0
  180.5310  176.9070  139.0850 C   0  0  2  0  0  3  0  0  0  0  0  0
  180.0430  178.1860  136.4520 C   0  0  0  0  0  2  0  0  0  0  0  0
  180.2880  178.5020  143.4130 C   0  0  0  0  0  2  0  0  0  0  0  0
  178.9310  175.4430  137.7360 C   0  0  0  0  0  1  0  0  0  0  0  0
  180.2510  176.2000  140.3940 C   0  0  0  0  0  0  0  0  0  0  0  0
  180.6840  176.7910  136.5530 C   0  0  0  0  0  2  0  0  0  0  0  0
  179.1930  178.5570  137.6710 C   0  0  0  0  0  2  0  0  0  0  0  0
  179.9550  178.3330  138.9810 C   0  0  2  0  0  3  0  0  0  0  0  0
  180.1620  174.9420  140.4050 O   0  0  0  0  0  0  0  0  0  0  0  0
  180.2310  178.3160  141.9040 C   0  0  1  0  0  3  0  0  0  0  0  0
  181.5250  178.9080  141.4610 C   0  0  0  0  0  0  0  0  0  0  0  0
  181.7550  179.5320  140.1380 C   0  0  0  0  0  3  0  0  0  0  0  0
  181.0490  179.2950  139.0730 N   0  0  0  0  0  0  0  0  0  0  0  0
  180.2070  176.8790  141.6530 N   0  0  0  0  0  2  0  0  0  0  0  0
  181.7720  178.5900  143.7530 C   0  0  0  0  0  2  0  0  0  0  0  0
  185.5510  179.1320  146.9640 N   0  0  0  0  0  0  0  0  0  0  0  0
  186.4750  178.6280  147.8280 C   0  0  0  0  0  3  0  0  0  0  0  0
  187.5050  177.8020  147.3580 C   0  0  0  0  0  3  0  0  0  0  0  0
  186.6470  177.6840  143.8000 N   0  0  0  0  0  0  0  0  0  0  0  0
  185.7070  178.1890  142.9610 C   0  0  0  0  0  0  0  0  0  0  0  0
  184.7170  179.0260  143.4060 C   0  0  0  0  0  0  0  0  0  0  0  0
  184.6440  179.3860  144.7550 C   0  0  0  0  0  3  0  0  0  0  0  0
  186.6070  177.9920  145.1280 C   0  0  0  0  0  0  0  0  0  0  0  0
  187.5670  177.4840  146.0010 C   0  0  0  0  0  3  0  0  0  0  0  0
  184.4600  178.8130  141.0520 C   0  0  0  0  0  3  0  0  0  0  0  0
  183.8260  179.4690  142.2990 C   0  0  1  0  0  3  0  0  0  0  0  0
  185.5950  178.8470  145.6330 C   0  0  0  0  0  0  0  0  0  0  0  0
  185.6590  177.9680  141.5050 C   0  0  0  0  0  3  0  0  0  0  0  0
  1 17  1  0  0  0  0
  2  6  1  6  0  0  0
  2  3  1  0  0  0  0
  3  7  1  1  0  0  0
  4  8  1  0  0  0  0
  4  9  1  0  0  0  0
  5 17  1  0  0  0  0
  7 11  2  0  0  0  0
  7 16  1  0  0  0  0
  8  2  1  0  0  0  0
 10  9  1  6  0  0  0
 10 15  1  0  0  0  0
 10  3  1  0  0  0  0
 12  5  1  1  0  0  0
 13 12  1  0  0  0  0
 13  1  2  0  0  0  0
 14 13  1  0  0  0  0
 15 14  2  0  0  0  0
 16 12  1  0  0  0  0
 18 19  1  0  0  0  0
 20 19  2  0  0  0  0
 21 25  1  0  0  0  0
 22 23  1  0  0  0  0
 22 21  2  0  0  0  0
 23 24  2  0  0  0  0
 24 29  1  0  0  0  0
 25 29  1  0  0  0  0
 25 26  2  0  0  0  0
 26 20  1  0  0  0  0
 27 30  2  0  0  0  0
 27 28  1  0  0  0  0
 28  1  1  1  0  0  0
 28 23  1  0  0  0  0
 29 18  2  0  0  0  0
 30 22  1  0  0  0  0
M  END
>  <MODEL>
9

>  <REMARK>
 VINA RESULT:      -6.7      2.199      3.712
  Name = 
  1 active torsions:
  status: ('A' for Active; 'I' for Inactive)
    1  A    between atoms: C_1  and  C_19
                            x       y       z     vdW  Elec       q    Type
                         _______ _______ _______ _____ _____    ______ ____

>  <TORSDO>
F 1

$$$$
