=
 OpenBabel10222418073D

 25 28  0  0  1  0  0  0  0  0999 V2000
  185.4670  178.4430  146.2910 C   0  0  1  0  0  0  0  0  0  0  0  0
  186.4370  179.4090  146.6360 O   0  0  0  0  0  0  0  0  0  0  0  0
  189.3200  177.8970  147.4270 N   0  0  0  0  0  1  0  0  0  0  0  0
  187.3640  176.9260  146.2010 C   0  0  1  0  0  3  0  0  0  0  0  0
  184.1540  178.6810  146.6980 O   0  0  0  0  0  1  0  0  0  0  0  0
  185.5430  178.0800  144.8510 N   0  0  0  0  0  0  0  0  0  0  0  0
  187.8880  177.6420  147.4720 C   0  0  2  0  0  3  0  0  0  0  0  0
  185.8430  177.1390  145.9910 C   0  0  2  0  0  3  0  0  0  0  0  0
  187.1130  178.9330  147.7750 C   0  0  0  0  0  2  0  0  0  0  0  0
  185.4420  178.3930  143.4660 C   0  0  0  0  0  0  0  0  0  0  0  0
  184.1800  178.3810  141.4000 C   0  0  0  0  0  3  0  0  0  0  0  0
  184.2900  178.0490  142.7540 C   0  0  0  0  0  3  0  0  0  0  0  0
  186.4840  179.0700  142.8250 C   0  0  0  0  0  3  0  0  0  0  0  0
  186.3740  179.4030  141.4710 C   0  0  0  0  0  3  0  0  0  0  0  0
  185.2230  179.0600  140.7550 C   0  0  0  0  0  0  0  0  0  0  0  0
  185.1250  179.4080  139.3750 N   0  0  0  0  0  2  0  0  0  0  0  0
  184.3170  180.4110  138.9560 O   0  0  0  0  0  1  0  0  0  0  0  0
  187.9460  176.2560  143.8570 C   0  0  0  0  0  3  0  0  0  0  0  0
  189.6560  177.4020  142.5820 C   0  0  0  0  0  3  0  0  0  0  0  0
  188.2000  177.0850  144.9550 C   0  0  0  0  0  0  0  0  0  0  0  0
  188.6740  176.4110  142.6740 C   0  0  0  0  0  3  0  0  0  0  0  0
  189.9060  178.2430  143.6710 C   0  0  0  0  0  0  0  0  0  0  0  0
  189.1850  178.0810  144.8560 C   0  0  0  0  0  3  0  0  0  0  0  0
  192.0500  178.9180  144.3460 F   0  0  0  0  0  0  0  0  0  0  0  0
  190.9610  179.2870  143.5780 C   0  0  0  0  0  2  0  0  0  0  0  0
  1  2  1  0  0  0  0
  1  5  1  1  0  0  0
  2  9  1  0  0  0  0
  4 20  1  6  0  0  0
  4  7  1  0  0  0  0
  6  1  1  0  0  0  0
  7  3  1  6  0  0  0
  7  9  1  0  0  0  0
  8  6  1  6  0  0  0
  8  4  1  0  0  0  0
  8  1  1  0  0  0  0
 10  6  1  0  0  0  0
 11 12  1  0  0  0  0
 12 10  2  0  0  0  0
 13 10  1  0  0  0  0
 14 13  2  0  0  0  0
 15 11  2  0  0  0  0
 15 14  1  0  0  0  0
 16 15  1  0  0  0  0
 17 16  1  0  0  0  0
 18 20  1  0  0  0  0
 19 21  1  0  0  0  0
 19 22  2  0  0  0  0
 21 18  2  0  0  0  0
 22 23  1  0  0  0  0
 23 20  2  0  0  0  0
 25 22  1  0  0  0  0
 25 24  1  0  0  0  0
M  END
>  <MODEL>
1

>  <REMARK>
 VINA RESULT:      -7.7      0.000      0.000
  Name = 
  4 active torsions:
  status: ('A' for Active; 'I' for Inactive)
    1  A    between atoms: C_2  and  N_18
    2  A    between atoms: N_3  and  C_21
    3  A    between atoms: C_8  and  C_10
    4  A    between atoms: C_16  and  C_24
                            x       y       z     vdW  Elec       q    Type
                         _______ _______ _______ _____ _____    ______ ____

>  <TORSDO>
F 4

$$$$
=
 OpenBabel10222418073D

 25 28  0  0  1  0  0  0  0  0999 V2000
  185.8920  178.0170  144.9480 C   0  0  1  0  0  0  0  0  0  0  0  0
  186.2870  179.2880  145.4170 O   0  0  0  0  0  0  0  0  0  0  0  0
  187.8940  178.9740  148.3410 N   0  0  0  0  0  1  0  0  0  0  0  0
  187.4070  177.1850  146.6580 C   0  0  1  0  0  3  0  0  0  0  0  0
  184.6550  177.9250  144.3110 O   0  0  0  0  0  1  0  0  0  0  0  0
  186.9710  177.3650  144.1580 N   0  0  0  0  0  0  0  0  0  0  0  0
  186.8540  178.3070  147.5730 C   0  0  2  0  0  3  0  0  0  0  0  0
  186.4520  176.8610  145.4820 C   0  0  2  0  0  3  0  0  0  0  0  0
  186.0090  179.3280  146.7970 C   0  0  0  0  0  2  0  0  0  0  0  0
  187.8430  177.2950  143.0350 C   0  0  0  0  0  0  0  0  0  0  0  0
  188.6530  178.2160  140.9480 C   0  0  0  0  0  3  0  0  0  0  0  0
  187.7770  178.2710  142.0370 C   0  0  0  0  0  3  0  0  0  0  0  0
  188.7850  176.2650  142.9460 C   0  0  0  0  0  3  0  0  0  0  0  0
  189.6610  176.2110  141.8570 C   0  0  0  0  0  3  0  0  0  0  0  0
  189.5980  177.1850  140.8560 C   0  0  0  0  0  0  0  0  0  0  0  0
  190.5000  177.1180  139.7530 N   0  0  0  0  0  2  0  0  0  0  0  0
  190.7850  175.9410  139.1450 O   0  0  0  0  0  1  0  0  0  0  0  0
  189.7710  176.3610  146.7850 C   0  0  0  0  0  3  0  0  0  0  0  0
  191.5590  177.3940  145.5200 C   0  0  0  0  0  3  0  0  0  0  0  0
  188.8620  177.2950  146.2750 C   0  0  0  0  0  0  0  0  0  0  0  0
  191.1170  176.4110  146.4120 C   0  0  0  0  0  3  0  0  0  0  0  0
  190.6540  178.3220  144.9960 C   0  0  0  0  0  0  0  0  0  0  0  0
  189.3110  178.2770  145.3780 C   0  0  0  0  0  3  0  0  0  0  0  0
  191.6510  178.7890  142.9240 F   0  0  0  0  0  0  0  0  0  0  0  0
  191.1270  179.3760  144.0600 C   0  0  0  0  0  2  0  0  0  0  0  0
  1  5  1  6  0  0  0
  1  2  1  0  0  0  0
  1  8  1  0  0  0  0
  2  9  1  0  0  0  0
  4 20  1  6  0  0  0
  4  7  1  0  0  0  0
  6  1  1  0  0  0  0
  7  3  1  6  0  0  0
  8  6  1  6  0  0  0
  8  4  1  0  0  0  0
  9  7  1  0  0  0  0
 10  6  1  0  0  0  0
 11 12  1  0  0  0  0
 12 10  2  0  0  0  0
 13 10  1  0  0  0  0
 14 13  2  0  0  0  0
 15 11  2  0  0  0  0
 15 14  1  0  0  0  0
 16 15  1  0  0  0  0
 17 16  1  0  0  0  0
 19 21  2  0  0  0  0
 20 18  2  0  0  0  0
 21 18  1  0  0  0  0
 22 23  2  0  0  0  0
 22 19  1  0  0  0  0
 23 20  1  0  0  0  0
 24 25  1  0  0  0  0
 25 22  1  0  0  0  0
M  END
>  <MODEL>
2

>  <REMARK>
 VINA RESULT:      -7.5      2.514      3.267
  Name = 
  4 active torsions:
  status: ('A' for Active; 'I' for Inactive)
    1  A    between atoms: C_2  and  N_18
    2  A    between atoms: N_3  and  C_21
    3  A    between atoms: C_8  and  C_10
    4  A    between atoms: C_16  and  C_24
                            x       y       z     vdW  Elec       q    Type
                         _______ _______ _______ _____ _____    ______ ____

>  <TORSDO>
F 4

$$$$
=
 OpenBabel10222418073D

 25 28  0  0  1  0  0  0  0  0999 V2000
  185.8620  178.0420  144.9540 C   0  0  1  0  0  0  0  0  0  0  0  0
  186.2700  179.3080  145.4280 O   0  0  0  0  0  0  0  0  0  0  0  0
  187.9550  178.9600  148.3030 N   0  0  0  0  0  1  0  0  0  0  0  0
  187.4220  177.1900  146.6130 C   0  0  1  0  0  3  0  0  0  0  0  0
  184.6080  177.9580  144.3500 O   0  0  0  0  0  1  0  0  0  0  0  0
  186.9190  177.4000  144.1280 N   0  0  0  0  0  0  0  0  0  0  0  0
  186.8940  178.3030  147.5550 C   0  0  2  0  0  3  0  0  0  0  0  0
  186.4350  176.8800  145.4590 C   0  0  2  0  0  3  0  0  0  0  0  0
  186.0290  179.3320  146.8140 C   0  0  0  0  0  2  0  0  0  0  0  0
  187.7610  177.3420  142.9810 C   0  0  0  0  0  0  0  0  0  0  0  0
  188.4800  178.2610  140.8600 C   0  0  0  0  0  3  0  0  0  0  0  0
  187.6340  178.3030  141.9730 C   0  0  0  0  0  3  0  0  0  0  0  0
  188.7320  176.3420  142.8770 C   0  0  0  0  0  3  0  0  0  0  0  0
  189.5780  176.3020  141.7650 C   0  0  0  0  0  3  0  0  0  0  0  0
  189.4550  177.2600  140.7540 C   0  0  0  0  0  0  0  0  0  0  0  0
  190.3260  177.2070  139.6250 N   0  0  0  0  0  2  0  0  0  0  0  0
  190.7510  176.0250  139.1170 O   0  0  0  0  0  1  0  0  0  0  0  0
  189.2510  178.3690  145.3690 C   0  0  0  0  0  3  0  0  0  0  0  0
  191.5530  177.6240  145.4610 C   0  0  0  0  0  3  0  0  0  0  0  0
  188.8660  177.3050  146.1920 C   0  0  0  0  0  0  0  0  0  0  0  0
  190.5900  178.5270  145.0000 C   0  0  0  0  0  3  0  0  0  0  0  0
  191.1780  176.5660  146.2950 C   0  0  0  0  0  0  0  0  0  0  0  0
  189.8380  176.4030  146.6540 C   0  0  0  0  0  3  0  0  0  0  0  0
  192.2420  175.6060  148.1530 F   0  0  0  0  0  0  0  0  0  0  0  0
  192.2000  175.5960  146.7710 C   0  0  0  0  0  2  0  0  0  0  0  0
  1  5  1  6  0  0  0
  1  2  1  0  0  0  0
  1  8  1  0  0  0  0
  2  9  1  0  0  0  0
  4 20  1  6  0  0  0
  4  7  1  0  0  0  0
  6  1  1  0  0  0  0
  7  3  1  6  0  0  0
  8  6  1  6  0  0  0
  8  4  1  0  0  0  0
  9  7  1  0  0  0  0
 10  6  1  0  0  0  0
 11 12  1  0  0  0  0
 12 10  2  0  0  0  0
 13 10  1  0  0  0  0
 14 13  2  0  0  0  0
 15 11  2  0  0  0  0
 15 14  1  0  0  0  0
 16 15  1  0  0  0  0
 17 16  1  0  0  0  0
 18 20  1  0  0  0  0
 19 22  2  0  0  0  0
 20 23  2  0  0  0  0
 21 18  2  0  0  0  0
 21 19  1  0  0  0  0
 22 23  1  0  0  0  0
 22 25  1  0  0  0  0
 25 24  1  0  0  0  0
M  END
>  <MODEL>
3

>  <REMARK>
 VINA RESULT:      -7.3      2.799      3.517
  Name = 
  4 active torsions:
  status: ('A' for Active; 'I' for Inactive)
    1  A    between atoms: C_2  and  N_18
    2  A    between atoms: N_3  and  C_21
    3  A    between atoms: C_8  and  C_10
    4  A    between atoms: C_16  and  C_24
                            x       y       z     vdW  Elec       q    Type
                         _______ _______ _______ _____ _____    ______ ____

>  <TORSDO>
F 4

$$$$
=
 OpenBabel10222418073D

 25 28  0  0  1  0  0  0  0  0999 V2000
  185.9120  178.0570  145.8380 C   0  0  1  0  0  0  0  0  0  0  0  0
  186.4710  179.2400  146.3690 O   0  0  0  0  0  0  0  0  0  0  0  0
  189.1230  178.4900  148.2760 N   0  0  0  0  0  1  0  0  0  0  0  0
  187.9840  177.0310  146.5890 C   0  0  1  0  0  3  0  0  0  0  0  0
  184.5220  177.9930  145.7420 O   0  0  0  0  0  1  0  0  0  0  0  0
  186.5740  177.6610  144.5670 N   0  0  0  0  0  0  0  0  0  0  0  0
  187.8560  177.9050  147.8620 C   0  0  2  0  0  3  0  0  0  0  0  0
  186.6320  176.8680  145.8490 C   0  0  2  0  0  3  0  0  0  0  0  0
  186.7760  178.9870  147.7200 C   0  0  0  0  0  2  0  0  0  0  0  0
  186.9160  177.8810  143.2030 C   0  0  0  0  0  0  0  0  0  0  0  0
  188.3440  177.4320  141.3010 C   0  0  0  0  0  3  0  0  0  0  0  0
  188.0250  177.2370  142.6480 C   0  0  0  0  0  3  0  0  0  0  0  0
  186.1250  178.7190  142.4110 C   0  0  0  0  0  3  0  0  0  0  0  0
  186.4440  178.9140  141.0630 C   0  0  0  0  0  3  0  0  0  0  0  0
  187.5530  178.2710  140.5040 C   0  0  0  0  0  0  0  0  0  0  0  0
  187.8650  178.4780  139.1280 N   0  0  0  0  0  2  0  0  0  0  0  0
  189.0530  179.0030  138.7450 O   0  0  0  0  0  1  0  0  0  0  0  0
  189.4330  178.6600  145.3510 C   0  0  0  0  0  3  0  0  0  0  0  0
  191.3890  177.9530  144.1100 C   0  0  0  0  0  3  0  0  0  0  0  0
  189.1600  177.3300  145.6920 C   0  0  0  0  0  0  0  0  0  0  0  0
  190.5420  178.9710  144.5590 C   0  0  0  0  0  3  0  0  0  0  0  0
  191.1290  176.6230  144.4580 C   0  0  0  0  0  0  0  0  0  0  0  0
  190.0150  176.3120  145.2410 C   0  0  0  0  0  3  0  0  0  0  0  0
  192.4300  174.7560  145.0300 F   0  0  0  0  0  0  0  0  0  0  0  0
  192.0210  175.5390  143.9670 C   0  0  0  0  0  2  0  0  0  0  0  0
  1  5  1  1  0  0  0
  1  8  1  0  0  0  0
  1  2  1  0  0  0  0
  2  9  1  0  0  0  0
  4 20  1  6  0  0  0
  4  7  1  0  0  0  0
  6  1  1  0  0  0  0
  7  3  1  6  0  0  0
  8  6  1  6  0  0  0
  8  4  1  0  0  0  0
  9  7  1  0  0  0  0
 10  6  1  0  0  0  0
 11 12  2  0  0  0  0
 12 10  1  0  0  0  0
 13 10  2  0  0  0  0
 14 13  1  0  0  0  0
 15 14  2  0  0  0  0
 15 11  1  0  0  0  0
 16 15  1  0  0  0  0
 17 16  1  0  0  0  0
 18 20  1  0  0  0  0
 19 22  2  0  0  0  0
 19 21  1  0  0  0  0
 21 18  2  0  0  0  0
 22 23  1  0  0  0  0
 23 20  2  0  0  0  0
 25 22  1  0  0  0  0
 25 24  1  0  0  0  0
M  END
>  <MODEL>
4

>  <REMARK>
 VINA RESULT:      -7.2      1.922      2.485
  Name = 
  4 active torsions:
  status: ('A' for Active; 'I' for Inactive)
    1  A    between atoms: C_2  and  N_18
    2  A    between atoms: N_3  and  C_21
    3  A    between atoms: C_8  and  C_10
    4  A    between atoms: C_16  and  C_24
                            x       y       z     vdW  Elec       q    Type
                         _______ _______ _______ _____ _____    ______ ____

>  <TORSDO>
F 4

$$$$
=
 OpenBabel10222418073D

 25 28  0  0  1  0  0  0  0  0999 V2000
  191.3230  177.5220  142.8210 C   0  0  1  0  0  0  0  0  0  0  0  0
  191.1700  176.1680  143.1890 O   0  0  0  0  0  0  0  0  0  0  0  0
  190.5000  175.9470  146.4650 N   0  0  0  0  0  1  0  0  0  0  0  0
  190.3430  177.9720  145.0000 C   0  0  1  0  0  3  0  0  0  0  0  0
  192.3020  177.8220  141.8750 O   0  0  0  0  0  1  0  0  0  0  0  0
  190.0170  178.1490  142.4830 N   0  0  0  0  0  0  0  0  0  0  0  0
  191.2160  176.8100  145.5370 C   0  0  2  0  0  3  0  0  0  0  0  0
  190.8770  178.5380  143.6600 C   0  0  2  0  0  3  0  0  0  0  0  0
  191.8520  175.9880  144.4070 C   0  0  0  0  0  2  0  0  0  0  0  0
  188.8450  178.2650  141.6840 C   0  0  0  0  0  0  0  0  0  0  0  0
  186.5710  179.0450  141.3990 C   0  0  0  0  0  3  0  0  0  0  0  0
  187.7120  178.9060  142.1950 C   0  0  0  0  0  3  0  0  0  0  0  0
  188.8370  177.7650  140.3790 C   0  0  0  0  0  3  0  0  0  0  0  0
  187.6950  177.9040  139.5830 C   0  0  0  0  0  3  0  0  0  0  0  0
  186.5600  178.5440  140.0900 C   0  0  0  0  0  0  0  0  0  0  0  0
  185.4030  178.6800  139.2660 N   0  0  0  0  0  2  0  0  0  0  0  0
  184.6750  179.8220  139.2540 O   0  0  0  0  0  1  0  0  0  0  0  0
  188.2930  176.7190  144.2880 C   0  0  0  0  0  3  0  0  0  0  0  0
  186.0960  177.2500  145.1590 C   0  0  0  0  0  3  0  0  0  0  0  0
  188.8500  177.7570  145.0420 C   0  0  0  0  0  0  0  0  0  0  0  0
  186.9190  176.4670  144.3420 C   0  0  0  0  0  3  0  0  0  0  0  0
  186.6490  178.2810  145.9250 C   0  0  0  0  0  0  0  0  0  0  0  0
  188.0200  178.5380  145.8620 C   0  0  0  0  0  3  0  0  0  0  0  0
  184.7760  178.3430  147.3380 F   0  0  0  0  0  0  0  0  0  0  0  0
  185.7720  179.1230  146.7810 C   0  0  0  0  0  2  0  0  0  0  0  0
  1  5  1  6  0  0  0
  1  2  1  0  0  0  0
  1  8  1  0  0  0  0
  2  9  1  0  0  0  0
  4 20  1  6  0  0  0
  4  7  1  0  0  0  0
  6  1  1  0  0  0  0
  7  3  1  6  0  0  0
  8  6  1  6  0  0  0
  8  4  1  0  0  0  0
  9  7  1  0  0  0  0
 10 12  1  0  0  0  0
 10  6  1  0  0  0  0
 11 12  2  0  0  0  0
 13 10  2  0  0  0  0
 14 15  2  0  0  0  0
 14 13  1  0  0  0  0
 15 11  1  0  0  0  0
 16 15  1  0  0  0  0
 17 16  1  0  0  0  0
 18 21  2  0  0  0  0
 18 20  1  0  0  0  0
 19 22  2  0  0  0  0
 20 23  2  0  0  0  0
 21 19  1  0  0  0  0
 22 25  1  0  0  0  0
 23 22  1  0  0  0  0
 25 24  1  0  0  0  0
M  END
>  <MODEL>
5

>  <REMARK>
 VINA RESULT:      -6.7      3.144      4.555
  Name = 
  4 active torsions:
  status: ('A' for Active; 'I' for Inactive)
    1  A    between atoms: C_2  and  N_18
    2  A    between atoms: N_3  and  C_21
    3  A    between atoms: C_8  and  C_10
    4  A    between atoms: C_16  and  C_24
                            x       y       z     vdW  Elec       q    Type
                         _______ _______ _______ _____ _____    ______ ____

>  <TORSDO>
F 4

$$$$
=
 OpenBabel10222418073D

 25 28  0  0  1  0  0  0  0  0999 V2000
  187.7380  177.9440  139.1050 C   0  0  1  0  0  0  0  0  0  0  0  0
  187.9150  176.5500  138.9800 O   0  0  0  0  0  0  0  0  0  0  0  0
  191.1780  175.7990  139.1070 N   0  0  0  0  0  1  0  0  0  0  0  0
  190.0650  177.9310  139.8070 C   0  0  1  0  0  3  0  0  0  0  0  0
  186.7320  178.5330  138.3390 O   0  0  0  0  0  1  0  0  0  0  0  0
  187.6640  178.3610  140.5300 N   0  0  0  0  0  0  0  0  0  0  0  0
  190.3080  176.8870  138.6870 C   0  0  2  0  0  3  0  0  0  0  0  0
  188.7690  178.7480  139.5790 C   0  0  2  0  0  3  0  0  0  0  0  0
  188.9970  176.3440  138.1030 C   0  0  0  0  0  2  0  0  0  0  0  0
  187.0440  178.3630  141.8120 C   0  0  0  0  0  0  0  0  0  0  0  0
  185.3510  179.2090  143.3210 C   0  0  0  0  0  3  0  0  0  0  0  0
  185.9770  179.2280  142.0710 C   0  0  0  0  0  3  0  0  0  0  0  0
  187.4850  177.4800  142.8020 C   0  0  0  0  0  3  0  0  0  0  0  0
  186.8590  177.4610  144.0520 C   0  0  0  0  0  3  0  0  0  0  0  0
  185.7910  178.3240  144.3150 C   0  0  0  0  0  0  0  0  0  0  0  0
  185.1600  178.2930  145.5950 N   0  0  0  0  0  2  0  0  0  0  0  0
  184.0290  178.9960  145.8420 O   0  0  0  0  0  1  0  0  0  0  0  0
  189.9580  176.1140  141.5310 C   0  0  0  0  0  3  0  0  0  0  0  0
  190.6980  176.4620  143.8110 C   0  0  0  0  0  3  0  0  0  0  0  0
  190.2610  177.4450  141.2230 C   0  0  0  0  0  0  0  0  0  0  0  0
  190.1730  175.6230  142.8230 C   0  0  0  0  0  3  0  0  0  0  0  0
  191.0150  177.7890  143.5060 C   0  0  0  0  0  0  0  0  0  0  0  0
  190.7920  178.2810  142.2180 C   0  0  0  0  0  3  0  0  0  0  0  0
  191.1890  179.9910  144.2990 F   0  0  0  0  0  0  0  0  0  0  0  0
  191.5600  178.6850  144.5610 C   0  0  0  0  0  2  0  0  0  0  0  0
  1  5  1  6  0  0  0
  1  8  1  0  0  0  0
  1  6  1  0  0  0  0
  2  1  1  0  0  0  0
  4 20  1  1  0  0  0
  6 10  1  0  0  0  0
  7  3  1  1  0  0  0
  7  4  1  0  0  0  0
  8  4  1  0  0  0  0
  8  6  1  1  0  0  0
  9  7  1  0  0  0  0
  9  2  1  0  0  0  0
 10 12  2  0  0  0  0
 10 13  1  0  0  0  0
 11 15  2  0  0  0  0
 12 11  1  0  0  0  0
 13 14  2  0  0  0  0
 14 15  1  0  0  0  0
 15 16  1  0  0  0  0
 16 17  1  0  0  0  0
 18 21  1  0  0  0  0
 20 18  2  0  0  0  0
 20 23  1  0  0  0  0
 21 19  2  0  0  0  0
 22 19  1  0  0  0  0
 22 25  1  0  0  0  0
 23 22  2  0  0  0  0
 24 25  1  0  0  0  0
M  END
>  <MODEL>
6

>  <REMARK>
 VINA RESULT:      -6.7      2.755      5.562
  Name = 
  4 active torsions:
  status: ('A' for Active; 'I' for Inactive)
    1  A    between atoms: C_2  and  N_18
    2  A    between atoms: N_3  and  C_21
    3  A    between atoms: C_8  and  C_10
    4  A    between atoms: C_16  and  C_24
                            x       y       z     vdW  Elec       q    Type
                         _______ _______ _______ _____ _____    ______ ____

>  <TORSDO>
F 4

$$$$
=
 OpenBabel10222418073D

 25 28  0  0  1  0  0  0  0  0999 V2000
  185.1630  178.9200  143.8120 C   0  0  1  0  0  0  0  0  0  0  0  0
  185.9350  179.7850  144.6160 O   0  0  0  0  0  0  0  0  0  0  0  0
  187.4780  178.0340  147.0210 N   0  0  0  0  0  1  0  0  0  0  0  0
  186.4200  177.1610  144.9250 C   0  0  1  0  0  3  0  0  0  0  0  0
  183.9340  179.3940  143.3580 O   0  0  0  0  0  1  0  0  0  0  0  0
  185.9700  178.3300  142.7110 N   0  0  0  0  0  0  0  0  0  0  0  0
  186.2600  177.9880  146.2260 C   0  0  2  0  0  3  0  0  0  0  0  0
  185.3710  177.5450  143.8510 C   0  0  2  0  0  3  0  0  0  0  0  0
  185.7300  179.4030  145.9560 C   0  0  0  0  0  2  0  0  0  0  0  0
  186.7420  178.4350  141.5180 C   0  0  0  0  0  0  0  0  0  0  0  0
  188.8680  178.8060  140.4240 C   0  0  0  0  0  3  0  0  0  0  0  0
  188.1060  178.7310  141.5930 C   0  0  0  0  0  3  0  0  0  0  0  0
  186.1410  178.2140  140.2760 C   0  0  0  0  0  3  0  0  0  0  0  0
  186.9040  178.2880  139.1060 C   0  0  0  0  0  3  0  0  0  0  0  0
  188.2690  178.5840  139.1760 C   0  0  0  0  0  0  0  0  0  0  0  0
  189.0340  178.6550  137.9750 N   0  0  0  0  0  2  0  0  0  0  0  0
  189.0520  179.7760  137.2150 O   0  0  0  0  0  1  0  0  0  0  0  0
  188.1150  175.9620  143.5200 C   0  0  0  0  0  3  0  0  0  0  0  0
  190.4020  176.7370  143.3270 C   0  0  0  0  0  3  0  0  0  0  0  0
  187.8280  177.0090  144.4030 C   0  0  0  0  0  0  0  0  0  0  0  0
  189.4000  175.8230  142.9850 C   0  0  0  0  0  3  0  0  0  0  0  0
  190.1180  177.7930  144.1980 C   0  0  0  0  0  0  0  0  0  0  0  0
  188.8380  177.9250  144.7400 C   0  0  0  0  0  3  0  0  0  0  0  0
  191.0170  179.9370  143.8770 F   0  0  0  0  0  0  0  0  0  0  0  0
  191.1880  178.7550  144.5740 C   0  0  0  0  0  2  0  0  0  0  0  0
  1  5  1  6  0  0  0
  1  8  1  0  0  0  0
  1  2  1  0  0  0  0
  2  9  1  0  0  0  0
  4 20  1  6  0  0  0
  4  7  1  0  0  0  0
  6  1  1  0  0  0  0
  7  3  1  6  0  0  0
  8  6  1  6  0  0  0
  8  4  1  0  0  0  0
  9  7  1  0  0  0  0
 10 12  1  0  0  0  0
 10  6  1  0  0  0  0
 11 12  2  0  0  0  0
 13 10  2  0  0  0  0
 14 15  2  0  0  0  0
 14 13  1  0  0  0  0
 15 11  1  0  0  0  0
 16 15  1  0  0  0  0
 17 16  1  0  0  0  0
 18 20  1  0  0  0  0
 19 22  2  0  0  0  0
 20 23  2  0  0  0  0
 21 19  1  0  0  0  0
 21 18  2  0  0  0  0
 22 25  1  0  0  0  0
 22 23  1  0  0  0  0
 24 25  1  0  0  0  0
M  END
>  <MODEL>
7

>  <REMARK>
 VINA RESULT:      -6.5      2.096      2.615
  Name = 
  4 active torsions:
  status: ('A' for Active; 'I' for Inactive)
    1  A    between atoms: C_2  and  N_18
    2  A    between atoms: N_3  and  C_21
    3  A    between atoms: C_8  and  C_10
    4  A    between atoms: C_16  and  C_24
                            x       y       z     vdW  Elec       q    Type
                         _______ _______ _______ _____ _____    ______ ____

>  <TORSDO>
F 4

$$$$
=
 OpenBabel10222418073D

 25 28  0  0  1  0  0  0  0  0999 V2000
  188.5850  178.3640  140.6340 C   0  0  1  0  0  0  0  0  0  0  0  0
  188.7260  176.9600  140.6530 O   0  0  0  0  0  0  0  0  0  0  0  0
  190.7870  176.0540  143.1350 N   0  0  0  0  0  1  0  0  0  0  0  0
  189.6300  178.2540  142.8260 C   0  0  1  0  0  3  0  0  0  0  0  0
  188.5050  178.9820  139.3870 O   0  0  0  0  0  1  0  0  0  0  0  0
  187.5040  178.8180  141.5480 N   0  0  0  0  0  0  0  0  0  0  0  0
  190.5680  177.1730  142.2300 C   0  0  2  0  0  3  0  0  0  0  0  0
  188.9690  179.1280  141.7300 C   0  0  2  0  0  3  0  0  0  0  0  0
  190.0910  176.6800  140.8570 C   0  0  0  0  0  2  0  0  0  0  0  0
  186.1400  178.8810  141.9530 C   0  0  0  0  0  0  0  0  0  0  0  0
  183.8190  178.2930  141.6010 C   0  0  0  0  0  3  0  0  0  0  0  0
  185.1540  178.2540  141.1860 C   0  0  0  0  0  3  0  0  0  0  0  0
  185.7930  179.5450  143.1330 C   0  0  0  0  0  3  0  0  0  0  0  0
  184.4580  179.5830  143.5480 C   0  0  0  0  0  3  0  0  0  0  0  0
  183.4680  178.9580  142.7840 C   0  0  0  0  0  0  0  0  0  0  0  0
  182.1100  179.0040  143.2200 N   0  0  0  0  0  2  0  0  0  0  0  0
  181.0880  179.0850  142.3350 O   0  0  0  0  0  1  0  0  0  0  0  0
  187.7030  176.8520  143.6050 C   0  0  0  0  0  3  0  0  0  0  0  0
  186.9850  176.8280  145.9180 C   0  0  0  0  0  3  0  0  0  0  0  0
  188.6910  177.7930  143.9140 C   0  0  0  0  0  0  0  0  0  0  0  0
  186.8480  176.3730  144.6020 C   0  0  0  0  0  3  0  0  0  0  0  0
  187.9790  177.7580  146.2370 C   0  0  0  0  0  0  0  0  0  0  0  0
  188.8260  178.2440  145.2380 C   0  0  0  0  0  3  0  0  0  0  0  0
  189.3830  177.9760  148.1050 F   0  0  0  0  0  0  0  0  0  0  0  0
  188.1140  178.2540  147.6320 C   0  0  0  0  0  2  0  0  0  0  0  0
  1  5  1  6  0  0  0
  1  2  1  0  0  0  0
  1  6  1  0  0  0  0
  1  8  1  0  0  0  0
  2  9  1  0  0  0  0
  4 20  1  6  0  0  0
  6 10  1  0  0  0  0
  7  4  1  0  0  0  0
  7  3  1  1  0  0  0
  8  6  1  1  0  0  0
  8  4  1  0  0  0  0
  9  7  1  0  0  0  0
 10 13  1  0  0  0  0
 11 15  2  0  0  0  0
 12 11  1  0  0  0  0
 12 10  2  0  0  0  0
 13 14  2  0  0  0  0
 15 16  1  0  0  0  0
 15 14  1  0  0  0  0
 17 16  1  0  0  0  0
 18 20  2  0  0  0  0
 18 21  1  0  0  0  0
 19 22  1  0  0  0  0
 20 23  1  0  0  0  0
 21 19  2  0  0  0  0
 22 25  1  0  0  0  0
 23 22  2  0  0  0  0
 25 24  1  0  0  0  0
M  END
>  <MODEL>
8

>  <REMARK>
 VINA RESULT:      -6.3      2.765      4.490
  Name = 
  4 active torsions:
  status: ('A' for Active; 'I' for Inactive)
    1  A    between atoms: C_2  and  N_18
    2  A    between atoms: N_3  and  C_21
    3  A    between atoms: C_8  and  C_10
    4  A    between atoms: C_16  and  C_24
                            x       y       z     vdW  Elec       q    Type
                         _______ _______ _______ _____ _____    ______ ____

>  <TORSDO>
F 4

$$$$
=
 OpenBabel10222418073D

 25 28  0  0  1  0  0  0  0  0999 V2000
  186.8120  177.9760  137.6690 C   0  0  1  0  0  0  0  0  0  0  0  0
  186.2280  176.6950  137.5680 O   0  0  0  0  0  0  0  0  0  0  0  0
  187.1860  175.2280  134.7120 N   0  0  0  0  0  1  0  0  0  0  0  0
  188.2180  177.2110  135.8390 C   0  0  1  0  0  3  0  0  0  0  0  0
  186.0340  178.9910  138.2240 O   0  0  0  0  0  1  0  0  0  0  0  0
  188.1640  177.9150  138.2830 N   0  0  0  0  0  0  0  0  0  0  0  0
  186.9430  176.5600  135.2450 C   0  0  2  0  0  3  0  0  0  0  0  0
  187.8860  178.3290  136.8590 C   0  0  2  0  0  3  0  0  0  0  0  0
  185.7770  176.5450  136.2430 C   0  0  0  0  0  2  0  0  0  0  0  0
  189.0440  177.6430  139.3690 C   0  0  0  0  0  0  0  0  0  0  0  0
  191.2890  177.3580  140.2270 C   0  0  0  0  0  3  0  0  0  0  0  0
  190.4250  177.5990  139.1550 C   0  0  0  0  0  3  0  0  0  0  0  0
  188.5290  177.4480  140.6540 C   0  0  0  0  0  3  0  0  0  0  0  0
  189.3940  177.2090  141.7260 C   0  0  0  0  0  3  0  0  0  0  0  0
  190.7750  177.1630  141.5160 C   0  0  0  0  0  0  0  0  0  0  0  0
  191.6460  176.9190  142.6200 N   0  0  0  0  0  2  0  0  0  0  0  0
  191.3620  175.9730  143.5460 O   0  0  0  0  0  1  0  0  0  0  0  0
  188.9520  175.0600  136.8950 C   0  0  0  0  0  3  0  0  0  0  0  0
  191.2850  174.4210  137.0200 C   0  0  0  0  0  3  0  0  0  0  0  0
  189.3080  176.2630  136.2760 C   0  0  0  0  0  0  0  0  0  0  0  0
  189.9380  174.1420  137.2700 C   0  0  0  0  0  3  0  0  0  0  0  0
  191.6460  175.6160  136.3900 C   0  0  0  0  0  0  0  0  0  0  0  0
  190.6620  176.5370  136.0250 C   0  0  0  0  0  3  0  0  0  0  0  0
  193.5620  176.7500  137.1330 F   0  0  0  0  0  0  0  0  0  0  0  0
  193.0800  175.9200  136.1380 C   0  0  0  0  0  2  0  0  0  0  0  0
  1  5  1  1  0  0  0
  1  6  1  0  0  0  0
  2  1  1  0  0  0  0
  4 20  1  1  0  0  0
  4  8  1  0  0  0  0
  6 10  1  0  0  0  0
  7  3  1  1  0  0  0
  7  4  1  0  0  0  0
  7  9  1  0  0  0  0
  8  1  1  0  0  0  0
  8  6  1  1  0  0  0
  9  2  1  0  0  0  0
 10 13  1  0  0  0  0
 11 15  2  0  0  0  0
 12 10  2  0  0  0  0
 12 11  1  0  0  0  0
 13 14  2  0  0  0  0
 15 14  1  0  0  0  0
 15 16  1  0  0  0  0
 16 17  1  0  0  0  0
 18 21  1  0  0  0  0
 19 21  2  0  0  0  0
 20 18  2  0  0  0  0
 22 19  1  0  0  0  0
 23 20  1  0  0  0  0
 23 22  2  0  0  0  0
 25 22  1  0  0  0  0
 25 24  1  0  0  0  0
M  END
>  <MODEL>
9

>  <REMARK>
 VINA RESULT:      -6.1      5.271      8.439
  Name = 
  4 active torsions:
  status: ('A' for Active; 'I' for Inactive)
    1  A    between atoms: C_2  and  N_18
    2  A    between atoms: N_3  and  C_21
    3  A    between atoms: C_8  and  C_10
    4  A    between atoms: C_16  and  C_24
                            x       y       z     vdW  Elec       q    Type
                         _______ _______ _______ _____ _____    ______ ____

>  <TORSDO>
F 4

$$$$
