=
 OpenBabel10222416563D

 28 33  0  0  1  0  0  0  0  0999 V2000
  190.3760  176.7870  144.1750 C   0  0  0  0  0  0  0  0  0  0  0  0
  187.9390  177.8090  142.6470 N   0  0  0  0  0  0  0  0  0  0  0  0
  191.4360  176.3820  144.9950 C   0  0  0  0  0  3  0  0  0  0  0  0
  188.8060  177.5180  141.5690 C   0  0  0  0  0  0  0  0  0  0  0  0
  191.3300  176.3520  146.3720 C   0  0  0  0  0  0  0  0  0  0  0  0
  190.0220  177.0260  141.6560 C   0  0  0  0  0  3  0  0  0  0  0  0
  192.6870  175.8370  147.3490 Cl  0  0  0  0  0  0  0  0  0  0  0  0
  184.6050  178.5410  145.0570 C   0  0  0  0  0  1  0  0  0  0  0  0
  190.7240  176.7160  142.8890 C   0  0  0  0  0  3  0  0  0  0  0  0
  189.1090  177.1600  144.7620 C   0  0  0  0  0  0  0  0  0  0  0  0
  188.3340  176.3160  138.0680 C   0  0  0  0  0  3  0  0  0  0  0  0
  187.9780  177.4550  144.0400 C   0  0  0  0  0  0  0  0  0  0  0  0
  188.0950  177.8750  140.3210 C   0  0  1  0  0  0  0  0  0  0  0  0
  189.0690  177.1770  146.2080 C   0  0  0  0  0  0  0  0  0  0  0  0
  185.8530  178.6210  144.3140 N   0  0  0  0  0  0  0  0  0  0  0  0
  189.0330  177.0100  137.0120 C   0  0  0  0  0  0  0  0  0  0  0  0
  189.2350  176.3260  135.7810 N   0  0  0  0  0  1  0  0  0  0  0  0
  188.7620  178.4870  139.2600 C   0  0  0  0  0  0  0  0  0  0  0  0
  189.4150  179.1330  138.2670 C   0  0  0  0  0  3  0  0  0  0  0  0
  187.7900  177.8750  147.2080 Cl  0  0  0  0  0  0  0  0  0  0  0  0
  189.5230  178.3250  137.1430 N   0  0  0  0  0  0  0  0  0  0  0  0
  185.5170  178.6120  142.8810 C   0  0  1  0  0  3  0  0  0  0  0  0
  184.9650  179.9050  142.5000 N   0  0  0  0  0  1  0  0  0  0  0  0
  186.6040  177.4140  144.6620 C   0  0  0  0  0  2  0  0  0  0  0  0
  188.2410  177.1230  139.1570 C   0  0  0  0  0  0  0  0  0  0  0  0
  186.7540  178.3640  140.7140 C   0  0  0  0  0  3  0  0  0  0  0  0
  186.7360  178.3210  142.0500 C   0  0  0  0  0  0  0  0  0  0  0  0
  190.1620  176.7700  146.9700 C   0  0  0  0  0  3  0  0  0  0  0  0
  1 10  1  0  0  0  0
  1  3  1  0  0  0  0
  2 12  1  0  0  0  0
  3  5  2  0  0  0  0
  4  6  2  0  0  0  0
  4  2  1  0  0  0  0
  5 28  1  0  0  0  0
  5  7  1  0  0  0  0
  6  9  1  0  0  0  0
  9  1  2  0  0  0  0
 10 14  1  0  0  0  0
 11 25  1  0  0  0  0
 12 24  1  0  0  0  0
 12 10  2  0  0  0  0
 13 26  1  1  0  0  0
 13  4  1  0  0  0  0
 14 28  2  0  0  0  0
 14 20  1  0  0  0  0
 15 24  1  0  0  0  0
 15  8  1  0  0  0  0
 16 21  1  0  0  0  0
 16 11  2  0  0  0  0
 17 16  1  0  0  0  0
 18 13  1  0  0  0  0
 19 18  1  0  0  0  0
 21 19  2  0  0  0  0
 22 23  1  6  0  0  0
 22 15  1  0  0  0  0
 25 18  2  0  0  0  0
 25 13  1  0  0  0  0
 26 27  2  0  0  0  0
 27  2  1  0  0  0  0
 27 22  1  0  0  0  0
M  END
>  <MODEL>
1

>  <REMARK>
 VINA RESULT:      -9.8      0.000      0.000
  Name = 
  0 active torsions:
  status: ('A' for Active; 'I' for Inactive)
                            x       y       z     vdW  Elec       q    Type
                         _______ _______ _______ _____ _____    ______ ____

>  <TORSDO>
F 0

$$$$
=
 OpenBabel10222416563D

 28 33  0  0  1  0  0  0  0  0999 V2000
  184.4980  178.5280  142.5790 C   0  0  0  0  0  0  0  0  0  0  0  0
  187.0600  178.3000  140.9340 N   0  0  0  0  0  0  0  0  0  0  0  0
  183.2650  178.6990  143.2170 C   0  0  0  0  0  3  0  0  0  0  0  0
  187.5750  178.0710  142.2300 C   0  0  0  0  0  0  0  0  0  0  0  0
  182.1030  178.9560  142.5150 C   0  0  0  0  0  0  0  0  0  0  0  0
  186.8860  178.0450  143.3500 C   0  0  0  0  0  3  0  0  0  0  0  0
  180.5870  179.1620  143.3640 Cl  0  0  0  0  0  0  0  0  0  0  0  0
  186.4440  178.4230  136.8030 C   0  0  0  0  0  1  0  0  0  0  0  0
  185.4580  178.2800  143.4730 C   0  0  0  0  0  3  0  0  0  0  0  0
  184.5810  178.5850  141.1370 C   0  0  0  0  0  0  0  0  0  0  0  0
  190.3480  176.0040  143.6300 C   0  0  0  0  0  3  0  0  0  0  0  0
  185.7190  178.3130  140.4160 C   0  0  0  0  0  0  0  0  0  0  0  0
  189.0350  177.8730  142.0980 C   0  0  1  0  0  0  0  0  0  0  0  0
  183.3530  178.9230  140.4520 C   0  0  0  0  0  0  0  0  0  0  0  0
  186.6610  178.7370  138.2060 N   0  0  0  0  0  0  0  0  0  0  0  0
  191.2490  176.6240  144.5710 C   0  0  0  0  0  0  0  0  0  0  0  0
  192.0000  175.7810  145.4360 N   0  0  0  0  0  1  0  0  0  0  0  0
  189.9250  178.4070  143.0300 C   0  0  0  0  0  0  0  0  0  0  0  0
  190.7720  178.9840  143.9130 C   0  0  0  0  0  3  0  0  0  0  0  0
  183.1980  179.3700  138.7490 Cl  0  0  0  0  0  0  0  0  0  0  0  0
  191.4200  178.0210  144.6740 N   0  0  0  0  0  0  0  0  0  0  0  0
  188.0170  178.2850  138.5570 C   0  0  1  0  0  3  0  0  0  0  0  0
  189.0000  179.1970  137.9850 N   0  0  0  0  0  1  0  0  0  0  0  0
  185.6650  177.9630  138.9490 C   0  0  0  0  0  2  0  0  0  0  0  0
  189.7240  176.9630  142.8980 C   0  0  0  0  0  0  0  0  0  0  0  0
  189.3530  177.9660  140.6550 C   0  0  0  0  0  3  0  0  0  0  0  0
  188.1910  178.2310  140.0500 C   0  0  0  0  0  0  0  0  0  0  0  0
  182.1570  179.0900  141.1450 C   0  0  0  0  0  3  0  0  0  0  0  0
  1  3  1  0  0  0  0
  1  9  2  0  0  0  0
  2  4  1  0  0  0  0
  4  6  2  0  0  0  0
  5  3  2  0  0  0  0
  5  7  1  0  0  0  0
  6  9  1  0  0  0  0
  8 15  1  0  0  0  0
 10  1  1  0  0  0  0
 11 16  1  0  0  0  0
 12  2  1  0  0  0  0
 12 10  2  0  0  0  0
 13 26  1  6  0  0  0
 13  4  1  0  0  0  0
 13 25  1  0  0  0  0
 13 18  1  0  0  0  0
 14 10  1  0  0  0  0
 14 28  2  0  0  0  0
 15 22  1  0  0  0  0
 15 24  1  0  0  0  0
 16 21  2  0  0  0  0
 16 17  1  0  0  0  0
 18 19  2  0  0  0  0
 19 21  1  0  0  0  0
 20 14  1  0  0  0  0
 22 23  1  6  0  0  0
 22 27  1  0  0  0  0
 24 12  1  0  0  0  0
 25 18  1  0  0  0  0
 25 11  2  0  0  0  0
 27 26  2  0  0  0  0
 27  2  1  0  0  0  0
 28  5  1  0  0  0  0
M  END
>  <MODEL>
2

>  <REMARK>
 VINA RESULT:      -9.4      3.454      6.853
  Name = 
  0 active torsions:
  status: ('A' for Active; 'I' for Inactive)
                            x       y       z     vdW  Elec       q    Type
                         _______ _______ _______ _____ _____    ______ ____

>  <TORSDO>
F 0

$$$$
=
 OpenBabel10222416563D

 28 33  0  0  1  0  0  0  0  0999 V2000
  186.0390  178.2870  143.5780 C   0  0  0  0  0  0  0  0  0  0  0  0
  186.2960  178.2530  140.5360 N   0  0  0  0  0  0  0  0  0  0  0  0
  186.0440  178.2200  144.9760 C   0  0  0  0  0  3  0  0  0  0  0  0
  184.9490  178.6590  140.6690 C   0  0  0  0  0  0  0  0  0  0  0  0
  187.1730  177.8780  145.6930 C   0  0  0  0  0  0  0  0  0  0  0  0
  184.2990  178.8510  141.7950 C   0  0  0  0  0  3  0  0  0  0  0  0
  187.1220  177.8100  147.4400 Cl  0  0  0  0  0  0  0  0  0  0  0  0
  190.1800  177.5490  139.1650 C   0  0  0  0  0  1  0  0  0  0  0  0
  184.8360  178.6500  143.1290 C   0  0  0  0  0  3  0  0  0  0  0  0
  187.2530  178.0240  142.8380 C   0  0  0  0  0  0  0  0  0  0  0  0
  182.6690  180.8780  138.7190 C   0  0  0  0  0  3  0  0  0  0  0  0
  187.3800  178.1800  141.4790 C   0  0  0  0  0  0  0  0  0  0  0  0
  184.4000  178.8220  139.3040 C   0  0  1  0  0  0  0  0  0  0  0  0
  188.3900  177.6040  143.6270 C   0  0  0  0  0  0  0  0  0  0  0  0
  188.8140  177.4350  139.6510 N   0  0  0  0  0  0  0  0  0  0  0  0
  181.3470  180.3880  138.4090 C   0  0  0  0  0  0  0  0  0  0  0  0
  180.3390  181.3390  138.0850 N   0  0  0  0  0  1  0  0  0  0  0  0
  183.1010  178.4170  138.9940 C   0  0  0  0  0  0  0  0  0  0  0  0
  181.8610  177.9640  138.7020 C   0  0  0  0  0  3  0  0  0  0  0  0
  189.8960  176.9210  143.0050 Cl  0  0  0  0  0  0  0  0  0  0  0  0
  181.0070  179.0190  138.4120 N   0  0  0  0  0  0  0  0  0  0  0  0
  187.9230  177.9200  138.5850 C   0  0  1  0  0  3  0  0  0  0  0  0
  187.8490  176.9260  137.5210 N   0  0  0  0  0  1  0  0  0  0  0  0
  188.7280  178.3170  140.8170 C   0  0  0  0  0  2  0  0  0  0  0  0
  183.4860  179.8300  139.0000 C   0  0  0  0  0  0  0  0  0  0  0  0
  185.4990  178.5210  138.3590 C   0  0  0  0  0  3  0  0  0  0  0  0
  186.5440  178.1840  139.1220 C   0  0  0  0  0  0  0  0  0  0  0  0
  188.3290  177.5500  145.0180 C   0  0  0  0  0  3  0  0  0  0  0  0
  1  3  1  0  0  0  0
  2  4  1  0  0  0  0
  2 12  1  0  0  0  0
  3  5  2  0  0  0  0
  4  6  2  0  0  0  0
  5  7  1  0  0  0  0
  6  9  1  0  0  0  0
  8 15  1  0  0  0  0
  9  1  2  0  0  0  0
 10  1  1  0  0  0  0
 10 14  1  0  0  0  0
 11 25  1  0  0  0  0
 12 10  2  0  0  0  0
 13 26  1  6  0  0  0
 13  4  1  0  0  0  0
 14 28  2  0  0  0  0
 15 24  1  0  0  0  0
 16 21  1  0  0  0  0
 16 11  2  0  0  0  0
 17 16  1  0  0  0  0
 18 25  2  0  0  0  0
 18 13  1  0  0  0  0
 19 18  1  0  0  0  0
 20 14  1  0  0  0  0
 21 19  2  0  0  0  0
 22 23  1  6  0  0  0
 22 27  1  0  0  0  0
 22 15  1  0  0  0  0
 24 12  1  0  0  0  0
 25 13  1  0  0  0  0
 26 27  2  0  0  0  0
 27  2  1  0  0  0  0
 28  5  1  0  0  0  0
M  END
>  <MODEL>
3

>  <REMARK>
 VINA RESULT:      -9.1      3.166      5.697
  Name = 
  0 active torsions:
  status: ('A' for Active; 'I' for Inactive)
                            x       y       z     vdW  Elec       q    Type
                         _______ _______ _______ _____ _____    ______ ____

>  <TORSDO>
F 0

$$$$
=
 OpenBabel10222416563D

 28 33  0  0  1  0  0  0  0  0999 V2000
  187.9520  177.7360  143.3840 C   0  0  0  0  0  0  0  0  0  0  0  0
  186.1760  178.3030  140.9650 N   0  0  0  0  0  0  0  0  0  0  0  0
  188.6660  177.5490  144.5720 C   0  0  0  0  0  3  0  0  0  0  0  0
  187.3840  177.9630  140.3140 C   0  0  0  0  0  0  0  0  0  0  0  0
  188.0770  177.6870  145.8140 C   0  0  0  0  0  0  0  0  0  0  0  0
  188.5110  177.6100  140.8930 C   0  0  0  0  0  3  0  0  0  0  0  0
  189.0170  177.4420  147.2680 Cl  0  0  0  0  0  0  0  0  0  0  0  0
  182.1700  179.0030  141.9230 C   0  0  0  0  0  1  0  0  0  0  0  0
  188.7400  177.5340  142.3260 C   0  0  0  0  0  3  0  0  0  0  0  0
  186.5420  178.0530  143.4290 C   0  0  0  0  0  0  0  0  0  0  0  0
  188.2530  176.2760  137.1010 C   0  0  0  0  0  3  0  0  0  0  0  0
  185.7310  178.1380  142.3220 C   0  0  0  0  0  0  0  0  0  0  0  0
  187.1500  178.0820  138.8580 C   0  0  1  0  0  0  0  0  0  0  0  0
  185.9870  178.2540  144.7490 C   0  0  0  0  0  0  0  0  0  0  0  0
  183.5950  179.1100  141.6560 N   0  0  0  0  0  0  0  0  0  0  0  0
  189.2490  176.8940  136.2580 C   0  0  0  0  0  0  0  0  0  0  0  0
  189.9110  176.0800  135.2960 N   0  0  0  0  0  1  0  0  0  0  0  0
  188.1220  178.6150  138.0110 C   0  0  0  0  0  0  0  0  0  0  0  0
  189.0560  179.1890  137.2180 C   0  0  0  0  0  3  0  0  0  0  0  0
  184.4030  178.9440  145.1210 Cl  0  0  0  0  0  0  0  0  0  0  0  0
  189.5980  178.2580  136.3430 N   0  0  0  0  0  0  0  0  0  0  0  0
  183.7950  178.8820  140.2160 C   0  0  1  0  0  3  0  0  0  0  0  0
  183.3550  180.0530  139.4700 N   0  0  0  0  0  1  0  0  0  0  0  0
  184.2300  178.0390  142.4280 C   0  0  0  0  0  2  0  0  0  0  0  0
  187.7380  177.2040  137.9490 C   0  0  0  0  0  0  0  0  0  0  0  0
  185.7350  178.4810  138.6800 C   0  0  0  0  0  3  0  0  0  0  0  0
  185.2430  178.6100  139.9160 C   0  0  0  0  0  0  0  0  0  0  0  0
  186.7530  178.0600  145.8970 C   0  0  0  0  0  3  0  0  0  0  0  0
  1 10  1  0  0  0  0
  1  3  1  0  0  0  0
  2 12  1  0  0  0  0
  3  5  2  0  0  0  0
  4  6  2  0  0  0  0
  4  2  1  0  0  0  0
  5 28  1  0  0  0  0
  5  7  1  0  0  0  0
  6  9  1  0  0  0  0
  9  1  2  0  0  0  0
 10 14  1  0  0  0  0
 11 25  1  0  0  0  0
 12 24  1  0  0  0  0
 12 10  2  0  0  0  0
 13 26  1  6  0  0  0
 13  4  1  0  0  0  0
 14 20  1  0  0  0  0
 14 28  2  0  0  0  0
 15  8  1  0  0  0  0
 15 24  1  0  0  0  0
 16 21  1  0  0  0  0
 16 11  2  0  0  0  0
 17 16  1  0  0  0  0
 18 13  1  0  0  0  0
 19 18  1  0  0  0  0
 21 19  2  0  0  0  0
 22 23  1  6  0  0  0
 22 15  1  0  0  0  0
 25 18  2  0  0  0  0
 25 13  1  0  0  0  0
 26 27  2  0  0  0  0
 27 22  1  0  0  0  0
 27  2  1  0  0  0  0
M  END
>  <MODEL>
4

>  <REMARK>
 VINA RESULT:      -8.8      1.831      2.736
  Name = 
  0 active torsions:
  status: ('A' for Active; 'I' for Inactive)
                            x       y       z     vdW  Elec       q    Type
                         _______ _______ _______ _____ _____    ______ ____

>  <TORSDO>
F 0

$$$$
=
 OpenBabel10222416563D

 28 33  0  0  1  0  0  0  0  0999 V2000
  189.0910  177.8210  140.6070 C   0  0  0  0  0  0  0  0  0  0  0  0
  186.4670  178.2170  142.1180 N   0  0  0  0  0  0  0  0  0  0  0  0
  190.3620  177.6750  140.0410 C   0  0  0  0  0  3  0  0  0  0  0  0
  186.0000  178.2780  140.7850 C   0  0  0  0  0  0  0  0  0  0  0  0
  191.4950  177.5030  140.8110 C   0  0  0  0  0  0  0  0  0  0  0  0
  186.7260  178.1520  139.6960 C   0  0  0  0  0  3  0  0  0  0  0  0
  193.0600  177.3240  140.0500 Cl  0  0  0  0  0  0  0  0  0  0  0  0
  186.8010  177.7560  146.2570 C   0  0  0  0  0  1  0  0  0  0  0  0
  188.1650  177.9590  139.6560 C   0  0  0  0  0  3  0  0  0  0  0  0
  188.9270  177.7630  142.0430 C   0  0  0  0  0  0  0  0  0  0  0  0
  182.8460  177.2800  139.0570 C   0  0  0  0  0  3  0  0  0  0  0  0
  187.7120  177.7770  142.6850 C   0  0  0  0  0  0  0  0  0  0  0  0
  184.5400  178.5140  140.8380 C   0  0  1  0  0  0  0  0  0  0  0  0
  190.1490  177.6500  142.8090 C   0  0  0  0  0  0  0  0  0  0  0  0
  186.7840  178.2530  144.8900 N   0  0  0  0  0  0  0  0  0  0  0  0
  182.2350  178.2300  138.1580 C   0  0  0  0  0  0  0  0  0  0  0  0
  181.3320  177.7360  137.1750 N   0  0  0  0  0  1  0  0  0  0  0  0
  183.9150  179.3780  139.9380 C   0  0  0  0  0  0  0  0  0  0  0  0
  183.3390  180.2630  139.0940 C   0  0  0  0  0  3  0  0  0  0  0  0
  190.3090  177.8650  144.5550 Cl  0  0  0  0  0  0  0  0  0  0  0  0
  182.4910  179.6160  138.2050 N   0  0  0  0  0  0  0  0  0  0  0  0
  185.3840  178.2640  144.4390 C   0  0  1  0  0  3  0  0  0  0  0  0
  184.6750  179.3690  145.0710 N   0  0  0  0  0  1  0  0  0  0  0  0
  187.5580  177.2900  144.1040 C   0  0  0  0  0  2  0  0  0  0  0  0
  183.6710  177.9340  139.9150 C   0  0  0  0  0  0  0  0  0  0  0  0
  184.1630  178.5610  142.2690 C   0  0  0  0  0  3  0  0  0  0  0  0
  185.3060  178.4060  142.9450 C   0  0  0  0  0  0  0  0  0  0  0  0
  191.3880  177.5150  142.1850 C   0  0  0  0  0  3  0  0  0  0  0  0
  1 10  1  0  0  0  0
  2 12  1  0  0  0  0
  2 27  1  0  0  0  0
  3  1  1  0  0  0  0
  3  5  2  0  0  0  0
  4 13  1  0  0  0  0
  4  2  1  0  0  0  0
  5 28  1  0  0  0  0
  6  4  2  0  0  0  0
  7  5  1  0  0  0  0
  9  6  1  0  0  0  0
  9  1  2  0  0  0  0
 10 12  2  0  0  0  0
 10 14  1  0  0  0  0
 11 25  1  0  0  0  0
 12 24  1  0  0  0  0
 13 26  1  1  0  0  0
 14 20  1  0  0  0  0
 15  8  1  0  0  0  0
 16 21  1  0  0  0  0
 16 11  2  0  0  0  0
 17 16  1  0  0  0  0
 18 13  1  0  0  0  0
 19 18  1  0  0  0  0
 21 19  2  0  0  0  0
 22 15  1  0  0  0  0
 22 23  1  1  0  0  0
 24 15  1  0  0  0  0
 25 18  2  0  0  0  0
 25 13  1  0  0  0  0
 26 27  2  0  0  0  0
 27 22  1  0  0  0  0
 28 14  2  0  0  0  0
M  END
>  <MODEL>
5

>  <REMARK>
 VINA RESULT:      -8.4      3.023      4.503
  Name = 
  0 active torsions:
  status: ('A' for Active; 'I' for Inactive)
                            x       y       z     vdW  Elec       q    Type
                         _______ _______ _______ _____ _____    ______ ____

>  <TORSDO>
F 0

$$$$
=
 OpenBabel10222416563D

 28 33  0  0  1  0  0  0  0  0999 V2000
  186.3890  178.5220  140.3740 C   0  0  0  0  0  0  0  0  0  0  0  0
  189.2360  177.4600  140.0740 N   0  0  0  0  0  0  0  0  0  0  0  0
  185.0840  179.0270  140.3650 C   0  0  0  0  0  3  0  0  0  0  0  0
  189.2190  177.7410  141.4590 C   0  0  0  0  0  0  0  0  0  0  0  0
  184.3150  179.0590  139.2190 C   0  0  0  0  0  0  0  0  0  0  0  0
  188.2060  178.2220  142.1450 C   0  0  0  0  0  3  0  0  0  0  0  0
  182.6890  179.7010  139.2650 Cl  0  0  0  0  0  0  0  0  0  0  0  0
  190.0910  175.9360  136.2780 C   0  0  0  0  0  1  0  0  0  0  0  0
  186.9110  178.5900  141.6000 C   0  0  0  0  0  3  0  0  0  0  0  0
  186.9630  177.9810  139.1620 C   0  0  0  0  0  0  0  0  0  0  0  0
  190.8230  176.2270  144.4680 C   0  0  0  0  0  3  0  0  0  0  0  0
  188.1860  177.3580  139.0960 C   0  0  0  0  0  0  0  0  0  0  0  0
  190.5550  177.4010  141.9950 C   0  0  1  0  0  0  0  0  0  0  0  0
  186.1460  178.0990  137.9750 C   0  0  0  0  0  0  0  0  0  0  0  0
  189.8870  176.7770  137.4470 N   0  0  0  0  0  0  0  0  0  0  0  0
  191.4700  177.1090  145.4090 C   0  0  0  0  0  0  0  0  0  0  0  0
  191.6770  176.6380  146.7360 N   0  0  0  0  0  1  0  0  0  0  0  0
  191.1750  178.2020  142.9550 C   0  0  0  0  0  0  0  0  0  0  0  0
  191.7810  179.0250  143.8400 C   0  0  0  0  0  3  0  0  0  0  0  0
  186.6770  177.8250  136.3120 Cl  0  0  0  0  0  0  0  0  0  0  0  0
  191.9030  178.4100  145.0790 N   0  0  0  0  0  0  0  0  0  0  0  0
  190.9080  176.4100  138.4410 C   0  0  1  0  0  3  0  0  0  0  0  0
  192.2030  176.9360  138.0290 N   0  0  0  0  0  1  0  0  0  0  0  0
  188.5530  176.4470  137.9510 C   0  0  0  0  0  2  0  0  0  0  0  0
  190.7130  176.8480  143.2650 C   0  0  0  0  0  0  0  0  0  0  0  0
  191.3530  176.8760  140.8640 C   0  0  0  0  0  3  0  0  0  0  0  0
  190.5530  176.9550  139.7960 C   0  0  0  0  0  0  0  0  0  0  0  0
  184.8550  178.6200  138.0300 C   0  0  0  0  0  3  0  0  0  0  0  0
  1  9  2  0  0  0  0
  2  4  1  0  0  0  0
  3  1  1  0  0  0  0
  4 13  1  0  0  0  0
  4  6  2  0  0  0  0
  5  7  1  0  0  0  0
  5  3  2  0  0  0  0
  8 15  1  0  0  0  0
  9  6  1  0  0  0  0
 10  1  1  0  0  0  0
 11 16  1  0  0  0  0
 12 10  2  0  0  0  0
 12  2  1  0  0  0  0
 13 26  1  6  0  0  0
 13 18  1  0  0  0  0
 13 25  1  0  0  0  0
 14 28  2  0  0  0  0
 14 10  1  0  0  0  0
 15 24  1  0  0  0  0
 15 22  1  0  0  0  0
 16 17  1  0  0  0  0
 18 25  1  0  0  0  0
 18 19  2  0  0  0  0
 19 21  1  0  0  0  0
 20 14  1  0  0  0  0
 21 16  2  0  0  0  0
 22 23  1  6  0  0  0
 22 27  1  0  0  0  0
 24 12  1  0  0  0  0
 25 11  2  0  0  0  0
 27  2  1  0  0  0  0
 27 26  2  0  0  0  0
 28  5  1  0  0  0  0
M  END
>  <MODEL>
6

>  <REMARK>
 VINA RESULT:      -8.3      3.749      7.583
  Name = 
  0 active torsions:
  status: ('A' for Active; 'I' for Inactive)
                            x       y       z     vdW  Elec       q    Type
                         _______ _______ _______ _____ _____    ______ ____

>  <TORSDO>
F 0

$$$$
=
 OpenBabel10222416563D

 28 33  0  0  1  0  0  0  0  0999 V2000
  185.9450  178.2140  143.1890 C   0  0  0  0  0  0  0  0  0  0  0  0
  188.8090  177.3910  142.5210 N   0  0  0  0  0  0  0  0  0  0  0  0
  184.6580  178.5390  143.6310 C   0  0  0  0  0  3  0  0  0  0  0  0
  188.2810  177.5390  141.2180 C   0  0  0  0  0  0  0  0  0  0  0  0
  184.3450  178.6420  144.9720 C   0  0  0  0  0  0  0  0  0  0  0  0
  187.0550  177.9020  140.9090 C   0  0  0  0  0  3  0  0  0  0  0  0
  182.7180  179.0510  145.4690 Cl  0  0  0  0  0  0  0  0  0  0  0  0
  191.3230  177.1280  145.8480 C   0  0  0  0  0  1  0  0  0  0  0  0
  185.9920  178.1900  141.8560 C   0  0  0  0  0  3  0  0  0  0  0  0
  187.0080  178.0050  144.1470 C   0  0  0  0  0  0  0  0  0  0  0  0
  189.6670  178.6280  137.9290 C   0  0  0  0  0  3  0  0  0  0  0  0
  188.3240  177.8000  143.8110 C   0  0  0  0  0  0  0  0  0  0  0  0
  189.3600  177.2050  140.2630 C   0  0  1  0  0  0  0  0  0  0  0  0
  186.6160  178.0570  145.5390 C   0  0  0  0  0  0  0  0  0  0  0  0
  190.3660  176.8820  144.7800 N   0  0  0  0  0  0  0  0  0  0  0  0
  189.3790  177.8170  136.7700 C   0  0  0  0  0  0  0  0  0  0  0  0
  189.4950  178.4200  135.4850 N   0  0  0  0  0  1  0  0  0  0  0  0
  189.0980  176.4780  139.1010 C   0  0  0  0  0  0  0  0  0  0  0  0
  188.8310  175.7230  138.0120 C   0  0  0  0  0  3  0  0  0  0  0  0
  187.5950  177.5440  146.9180 Cl  0  0  0  0  0  0  0  0  0  0  0  0
  188.9910  176.4640  136.8480 N   0  0  0  0  0  0  0  0  0  0  0  0
  191.1120  176.8640  143.5120 C   0  0  1  0  0  3  0  0  0  0  0  0
  191.8650  175.6210  143.4060 N   0  0  0  0  0  1  0  0  0  0  0  0
  189.4410  178.0170  144.8030 C   0  0  0  0  0  2  0  0  0  0  0  0
  189.5020  177.8850  139.0540 C   0  0  0  0  0  0  0  0  0  0  0  0
  190.5610  176.8810  141.0660 C   0  0  0  0  0  3  0  0  0  0  0  0
  190.1760  176.9850  142.3420 C   0  0  0  0  0  0  0  0  0  0  0  0
  185.3140  178.3780  145.9160 C   0  0  0  0  0  3  0  0  0  0  0  0
  1  3  1  0  0  0  0
  1 10  1  0  0  0  0
  2 12  1  0  0  0  0
  3  5  2  0  0  0  0
  4  2  1  0  0  0  0
  5  7  1  0  0  0  0
  5 28  1  0  0  0  0
  6  4  2  0  0  0  0
  6  9  1  0  0  0  0
  9  1  2  0  0  0  0
 10 14  1  0  0  0  0
 11 25  1  0  0  0  0
 12 10  2  0  0  0  0
 12 24  1  0  0  0  0
 13 26  1  1  0  0  0
 13  4  1  0  0  0  0
 14 28  2  0  0  0  0
 14 20  1  0  0  0  0
 15 24  1  0  0  0  0
 15  8  1  0  0  0  0
 16 21  1  0  0  0  0
 16 11  2  0  0  0  0
 17 16  1  0  0  0  0
 18 13  1  0  0  0  0
 19 18  1  0  0  0  0
 21 19  2  0  0  0  0
 22 23  1  6  0  0  0
 22 15  1  0  0  0  0
 25 18  2  0  0  0  0
 25 13  1  0  0  0  0
 26 27  2  0  0  0  0
 27  2  1  0  0  0  0
 27 22  1  0  0  0  0
M  END
>  <MODEL>
7

>  <REMARK>
 VINA RESULT:      -8.0      1.765      4.514
  Name = 
  0 active torsions:
  status: ('A' for Active; 'I' for Inactive)
                            x       y       z     vdW  Elec       q    Type
                         _______ _______ _______ _____ _____    ______ ____

>  <TORSDO>
F 0

$$$$
=
 OpenBabel10222416563D

 28 33  0  0  1  0  0  0  0  0999 V2000
  188.6110  178.1540  141.4960 C   0  0  0  0  0  0  0  0  0  0  0  0
  187.2300  177.7990  138.7960 N   0  0  0  0  0  0  0  0  0  0  0  0
  189.3510  178.2330  142.6800 C   0  0  0  0  0  3  0  0  0  0  0  0
  186.1410  178.2480  139.5760 C   0  0  0  0  0  0  0  0  0  0  0  0
  190.7000  177.9400  142.7250 C   0  0  0  0  0  0  0  0  0  0  0  0
  186.1740  178.5720  140.8500 C   0  0  0  0  0  3  0  0  0  0  0  0
  191.5780  178.0550  144.2340 Cl  0  0  0  0  0  0  0  0  0  0  0  0
  189.8350  176.8640  135.6650 C   0  0  0  0  0  1  0  0  0  0  0  0
  187.3400  178.4980  141.7130 C   0  0  0  0  0  3  0  0  0  0  0  0
  189.2620  177.7870  140.2580 C   0  0  0  0  0  0  0  0  0  0  0  0
  183.1010  180.3060  138.9060 C   0  0  0  0  0  3  0  0  0  0  0  0
  188.6490  177.7980  139.0280 C   0  0  0  0  0  0  0  0  0  0  0  0
  184.9520  178.2820  138.6970 C   0  0  1  0  0  0  0  0  0  0  0  0
  190.6580  177.4240  140.3680 C   0  0  0  0  0  0  0  0  0  0  0  0
  188.9330  176.8340  136.8050 N   0  0  0  0  0  0  0  0  0  0  0  0
  181.8310  179.8190  139.3900 C   0  0  0  0  0  0  0  0  0  0  0  0
  180.7720  180.7550  139.5520 N   0  0  0  0  0  1  0  0  0  0  0  0
  183.6990  177.8780  139.1590 C   0  0  0  0  0  0  0  0  0  0  0  0
  182.5070  177.4270  139.6110 C   0  0  0  0  0  3  0  0  0  0  0  0
  191.6340  176.6450  139.1190 Cl  0  0  0  0  0  0  0  0  0  0  0  0
  181.5920  178.4660  139.7090 N   0  0  0  0  0  0  0  0  0  0  0  0
  187.5980  177.2260  136.3260 C   0  0  1  0  0  3  0  0  0  0  0  0
  187.0100  176.1300  135.5670 N   0  0  0  0  0  1  0  0  0  0  0  0
  189.4430  177.8340  137.7460 C   0  0  0  0  0  2  0  0  0  0  0  0
  183.9800  179.2750  138.8200 C   0  0  0  0  0  0  0  0  0  0  0  0
  185.3990  177.8580  137.3500 C   0  0  0  0  0  3  0  0  0  0  0  0
  186.6990  177.5780  137.4780 C   0  0  0  0  0  0  0  0  0  0  0  0
  191.3390  177.5160  141.5800 C   0  0  0  0  0  3  0  0  0  0  0  0
  1  9  2  0  0  0  0
  1  3  1  0  0  0  0
  2 12  1  0  0  0  0
  2  4  1  0  0  0  0
  3  5  2  0  0  0  0
  4  6  2  0  0  0  0
  5  7  1  0  0  0  0
  6  9  1  0  0  0  0
  8 15  1  0  0  0  0
 10 14  1  0  0  0  0
 10  1  1  0  0  0  0
 11 16  1  0  0  0  0
 12 10  2  0  0  0  0
 13 26  1  6  0  0  0
 13 25  1  0  0  0  0
 13 18  1  0  0  0  0
 13  4  1  0  0  0  0
 14 28  2  0  0  0  0
 15 24  1  0  0  0  0
 16 17  1  0  0  0  0
 16 21  2  0  0  0  0
 18 19  2  0  0  0  0
 19 21  1  0  0  0  0
 20 14  1  0  0  0  0
 22 23  1  1  0  0  0
 22 15  1  0  0  0  0
 22 27  1  0  0  0  0
 24 12  1  0  0  0  0
 25 11  2  0  0  0  0
 25 18  1  0  0  0  0
 26 27  2  0  0  0  0
 27  2  1  0  0  0  0
 28  5  1  0  0  0  0
M  END
>  <MODEL>
8

>  <REMARK>
 VINA RESULT:      -7.8      3.178      6.286
  Name = 
  0 active torsions:
  status: ('A' for Active; 'I' for Inactive)
                            x       y       z     vdW  Elec       q    Type
                         _______ _______ _______ _____ _____    ______ ____

>  <TORSDO>
F 0

$$$$
=
 OpenBabel10222416563D

 28 33  0  0  1  0  0  0  0  0999 V2000
  185.7810  178.4680  142.9630 C   0  0  0  0  0  0  0  0  0  0  0  0
  184.7500  178.3990  140.0900 N   0  0  0  0  0  0  0  0  0  0  0  0
  186.1270  178.5650  144.3150 C   0  0  0  0  0  3  0  0  0  0  0  0
  186.1290  178.1860  139.8650 C   0  0  0  0  0  0  0  0  0  0  0  0
  185.1830  178.7640  145.3040 C   0  0  0  0  0  0  0  0  0  0  0  0
  187.0670  178.1100  140.7840 C   0  0  0  0  0  3  0  0  0  0  0  0
  185.6710  178.8770  146.9800 Cl  0  0  0  0  0  0  0  0  0  0  0  0
  180.5850  178.5300  139.7750 C   0  0  0  0  0  1  0  0  0  0  0  0
  186.8670  178.2640  142.2140 C   0  0  0  0  0  3  0  0  0  0  0  0
  184.3940  178.5440  142.5640 C   0  0  0  0  0  0  0  0  0  0  0  0
  188.1170  176.2600  137.3630 C   0  0  0  0  0  3  0  0  0  0  0  0
  183.9450  178.3430  141.2800 C   0  0  0  0  0  0  0  0  0  0  0  0
  186.3260  178.0700  138.4040 C   0  0  1  0  0  0  0  0  0  0  0  0
  183.4510  178.8210  143.6250 C   0  0  0  0  0  0  0  0  0  0  0  0
  182.0010  178.8420  139.8940 N   0  0  0  0  0  0  0  0  0  0  0  0
  189.2340  176.9210  136.7300 C   0  0  0  0  0  0  0  0  0  0  0  0
  190.2480  176.1110  136.1450 N   0  0  0  0  0  1  0  0  0  0  0  0
  187.4320  178.6430  137.7760 C   0  0  0  0  0  0  0  0  0  0  0  0
  188.4800  179.2570  137.1810 C   0  0  0  0  0  3  0  0  0  0  0  0
  181.7550  179.2760  143.4210 Cl  0  0  0  0  0  0  0  0  0  0  0  0
  189.3690  178.3230  136.6660 N   0  0  0  0  0  0  0  0  0  0  0  0
  182.6470  178.4610  138.6280 C   0  0  1  0  0  3  0  0  0  0  0  0
  182.3070  179.4310  137.5950 N   0  0  0  0  0  1  0  0  0  0  0  0
  182.5050  178.0060  140.9860 C   0  0  0  0  0  2  0  0  0  0  0  0
  187.2620  177.1910  137.8610 C   0  0  0  0  0  0  0  0  0  0  0  0
  184.9900  178.1950  137.7770 C   0  0  0  0  0  3  0  0  0  0  0  0
  184.1400  178.4010  138.7880 C   0  0  0  0  0  0  0  0  0  0  0  0
  183.8580  178.9140  144.9530 C   0  0  0  0  0  3  0  0  0  0  0  0
  1  3  1  0  0  0  0
  2 12  1  0  0  0  0
  3  5  2  0  0  0  0
  4  2  1  0  0  0  0
  4  6  2  0  0  0  0
  5  7  1  0  0  0  0
  6  9  1  0  0  0  0
  8 15  1  0  0  0  0
  9  1  2  0  0  0  0
 10  1  1  0  0  0  0
 10 14  1  0  0  0  0
 11 25  1  0  0  0  0
 12 10  2  0  0  0  0
 13 26  1  6  0  0  0
 13  4  1  0  0  0  0
 14 28  2  0  0  0  0
 15 24  1  0  0  0  0
 16 11  2  0  0  0  0
 17 16  1  0  0  0  0
 18 25  2  0  0  0  0
 18 13  1  0  0  0  0
 19 18  1  0  0  0  0
 20 14  1  0  0  0  0
 21 16  1  0  0  0  0
 21 19  2  0  0  0  0
 22 23  1  6  0  0  0
 22 27  1  0  0  0  0
 22 15  1  0  0  0  0
 24 12  1  0  0  0  0
 25 13  1  0  0  0  0
 26 27  2  0  0  0  0
 27  2  1  0  0  0  0
 28  5  1  0  0  0  0
M  END
>  <MODEL>
9

>  <REMARK>
 VINA RESULT:      -7.6      3.266      4.734
  Name = 
  0 active torsions:
  status: ('A' for Active; 'I' for Inactive)
                            x       y       z     vdW  Elec       q    Type
                         _______ _______ _______ _____ _____    ______ ____

>  <TORSDO>
F 0

$$$$
