=
 OpenBabel10222419033D

 50 56  0  0  1  0  0  0  0  0999 V2000
  179.0750  181.0070  137.9430 C   0  0  0  0  0  3  0  0  0  0  0  0
  186.7710  175.3240  137.0020 C   0  0  1  0  0  3  0  0  0  0  0  0
  183.3100  176.6660  139.0840 C   0  0  2  0  0  3  0  0  0  0  0  0
  182.4850  175.4120  138.8530 C   0  0  0  0  0  1  0  0  0  0  0  0
  185.4470  176.9990  135.3870 S   0  0  0  0  0  0  0  0  0  0  0  0
  186.0870  175.3700  135.6530 C   0  0  2  0  0  3  0  0  0  0  0  0
  182.4340  177.7310  139.5830 N   0  0  1  0  0  0  0  0  0  0  0  0
  182.7170  178.0370  140.9820 C   0  0  2  0  0  3  0  0  0  0  0  0
  179.9260  180.6420  136.9020 C   0  0  0  0  0  0  0  0  0  0  0  0
  179.4060  180.6940  139.2610 C   0  0  0  0  0  3  0  0  0  0  0  0
  184.6190  176.5640  136.9500 C   0  0  0  0  0  0  0  0  0  0  0  0
  180.5880  180.0050  139.5820 C   0  0  0  0  0  0  0  0  0  0  0  0
  181.6970  178.9150  141.5620 N   0  0  0  0  0  0  0  0  0  0  0  0
  180.8250  179.7520  141.0480 C   0  0  0  0  0  0  0  0  0  0  0  0
  182.7240  178.9220  138.7840 C   0  0  2  0  0  3  0  0  0  0  0  0
  183.8230  177.1990  137.8010 C   0  0  0  0  0  0  0  0  0  0  0  0
  181.4500  179.6380  138.5180 C   0  0  0  0  0  0  0  0  0  0  0  0
  183.3970  178.4900  137.6160 O   0  0  0  0  0  0  0  0  0  0  0  0
  181.1130  179.9650  137.1950 C   0  0  0  0  0  3  0  0  0  0  0  0
  185.2680  175.1960  136.8860 C   0  0  2  0  0  3  0  0  0  0  0  0
  179.8550  182.2510  134.9440 C   0  0  0  0  0  1  0  0  0  0  0  0
  179.5670  180.9630  135.5560 N   0  0  0  0  0  2  0  0  0  0  0  0
  180.0060  180.4620  141.9350 O   0  0  0  0  0  0  0  0  0  0  0  0
  179.4790  179.8870  143.1210 C   0  0  0  0  0  1  0  0  0  0  0  0
  184.1320  178.5880  141.2270 C   0  0  0  0  0  2  0  0  0  0  0  0
  184.9730  179.0900  143.5660 C   0  0  0  0  0  0  0  0  0  0  0  0
  184.6370  178.1660  142.5260 N   0  0  0  0  0  2  0  0  0  0  0  0
  184.9300  180.3660  143.3500 N   0  0  0  0  0  2  0  0  0  0  0  0
  185.4120  178.3270  147.1460 C   0  0  0  0  0  2  0  0  0  0  0  0
  187.8430  177.8380  146.9260 C   0  0  0  0  0  1  0  0  0  0  0  0
  186.3100  177.7160  145.0470 N   0  0  0  0  0  0  0  0  0  0  0  0
  186.4550  177.4360  146.4680 C   0  0  2  0  0  3  0  0  0  0  0  0
  185.3740  178.5830  144.8830 C   0  0  0  0  0  0  0  0  0  0  0  0
  184.7900  178.9950  146.0630 O   0  0  0  0  0  0  0  0  0  0  0  0
  187.3870  173.9530  137.2000 C   0  0  0  0  0  2  0  0  0  0  0  0
  188.6570  173.8290  136.3730 C   0  0  0  0  0  2  0  0  0  0  0  0
  189.8050  173.6560  137.2460 N   0  0  0  0  0  2  0  0  0  0  0  0
  190.9210  174.3740  136.6430 C   0  0  0  0  0  2  0  0  0  0  0  0
  191.5730  175.2800  137.6750 C   0  0  2  0  0  3  0  0  0  0  0  0
  188.0660  178.7080  141.6250 C   0  0  0  0  0  1  0  0  0  0  0  0
  190.1060  177.2390  137.1750 C   0  0  0  0  0  3  0  0  0  0  0  0
  189.3580  177.4870  139.8480 C   0  0  0  0  0  0  0  0  0  0  0  0
  190.2430  176.4680  139.4630 C   0  0  0  0  0  3  0  0  0  0  0  0
  188.8780  178.3430  138.9000 N   0  0  0  0  0  0  0  0  0  0  0  0
  190.6140  176.3400  138.1170 C   0  0  0  0  0  0  0  0  0  0  0  0
  188.9590  177.6330  141.2230 N   0  0  0  0  0  0  0  0  0  0  0  0
  189.2300  178.2430  137.5890 C   0  0  0  0  0  3  0  0  0  0  0  0
  189.4340  176.7210  142.2540 C   0  0  0  0  0  1  0  0  0  0  0  0
  192.7790  175.8830  137.1280 N   0  0  0  0  0  2  0  0  0  0  0  0
  193.7050  175.9640  138.1750 N   0  0  0  0  0  1  0  0  0  0  0  0
  1 10  1  0  0  0  0
  2 35  1  6  0  0  0
  3  4  1  6  0  0  0
  3  7  1  0  0  0  0
  5 11  1  0  0  0  0
  6  5  1  1  0  0  0
  6 20  1  0  0  0  0
  6  2  1  0  0  0  0
  7  8  1  0  0  0  0
  8 25  1  0  0  0  0
  8 13  1  0  0  0  0
  9 19  1  0  0  0  0
  9  1  2  0  0  0  0
 10 12  2  0  0  0  0
 11 16  2  0  0  0  0
 12 14  1  0  0  0  0
 14 13  2  0  0  0  0
 14 23  1  0  0  0  0
 15  7  1  0  0  0  0
 16  3  1  0  0  0  0
 17 15  1  0  0  0  0
 17 12  1  0  0  0  0
 18 16  1  0  0  0  0
 18 15  1  0  0  0  0
 19 17  2  0  0  0  0
 20 11  1  0  0  0  0
 20  2  1  0  0  0  0
 21 22  1  0  0  0  0
 22  9  1  0  0  0  0
 23 24  1  0  0  0  0
 25 27  1  0  0  0  0
 26 33  1  0  0  0  0
 27 26  1  0  0  0  0
 28 26  2  0  0  0  0
 31 32  1  0  0  0  0
 32 30  1  0  0  0  0
 32 29  1  0  0  0  0
 33 31  2  0  0  0  0
 33 34  1  0  0  0  0
 34 29  1  0  0  0  0
 36 35  1  0  0  0  0
 36 37  1  0  0  0  0
 38 37  1  0  0  0  0
 38 39  1  0  0  0  0
 39 45  1  0  0  0  0
 41 47  2  0  0  0  0
 41 45  1  0  0  0  0
 42 46  1  0  0  0  0
 43 42  1  0  0  0  0
 44 42  2  0  0  0  0
 45 43  2  0  0  0  0
 46 40  1  0  0  0  0
 46 48  1  0  0  0  0
 47 44  1  0  0  0  0
 49 39  1  0  0  0  0
 49 50  1  0  0  0  0
M  END
>  <MODEL>
1

>  <REMARK>
 VINA RESULT:      -7.5      0.000      0.000
  Name = 
  12 active torsions:
  status: ('A' for Active; 'I' for Inactive)
    1  A    between atoms: C_2  and  C_42
    2  A    between atoms: N_6  and  C_16
    3  A    between atoms: C_8  and  C_44
    4  A    between atoms: N_9  and  C_25
    5  A    between atoms: C_10  and  N_19
    6  A    between atoms: C_10  and  C_29
    7  A    between atoms: O_14  and  C_31
    8  A    between atoms: C_15  and  C_25
    9  A    between atoms: N_19  and  C_20
   10  A    between atoms: C_20  and  C_42
   11  A    between atoms: N_23  and  C_29
   12  A    between atoms: C_29  and  C_37
                            x       y       z     vdW  Elec       q    Type
                         _______ _______ _______ _____ _____    ______ ____

>  <TORSDO>
F 12

$$$$
=
 OpenBabel10222419033D

 50 56  0  0  1  0  0  0  0  0999 V2000
  180.6330  179.8710  136.9890 C   0  0  0  0  0  3  0  0  0  0  0  0
  189.0900  177.2770  140.7530 C   0  0  1  0  0  3  0  0  0  0  0  0
  186.3580  177.6240  137.5080 C   0  0  2  0  0  3  0  0  0  0  0  0
  187.1380  178.6870  136.7520 C   0  0  0  0  0  1  0  0  0  0  0  0
  187.0320  178.7780  141.5780 S   0  0  0  0  0  0  0  0  0  0  0  0
  188.7740  178.6590  141.2840 C   0  0  2  0  0  3  0  0  0  0  0  0
  185.0120  177.5190  136.9350 N   0  0  1  0  0  0  0  0  0  0  0  0
  184.8370  176.2560  136.2250 C   0  0  2  0  0  3  0  0  0  0  0  0
  181.3440  180.1700  138.1490 C   0  0  0  0  0  0  0  0  0  0  0  0
  181.0390  178.8160  136.1710 C   0  0  0  0  0  3  0  0  0  0  0  0
  187.0450  178.3290  139.8130 C   0  0  0  0  0  0  0  0  0  0  0  0
  182.1650  178.0330  136.4790 C   0  0  0  0  0  0  0  0  0  0  0  0
  183.5970  176.2400  135.4440 N   0  0  0  0  0  0  0  0  0  0  0  0
  182.4740  176.9170  135.5160 C   0  0  0  0  0  0  0  0  0  0  0  0
  184.0740  177.5490  138.0570 C   0  0  2  0  0  3  0  0  0  0  0  0
  186.1170  178.0490  138.9060 C   0  0  0  0  0  0  0  0  0  0  0  0
  182.8830  178.3430  137.6610 C   0  0  0  0  0  0  0  0  0  0  0  0
  184.7700  178.0730  139.1730 O   0  0  0  0  0  0  0  0  0  0  0  0
  182.4620  179.4010  138.4830 C   0  0  0  0  0  3  0  0  0  0  0  0
  188.5600  178.3610  139.8390 C   0  0  2  0  0  3  0  0  0  0  0  0
  179.9810  181.1050  140.0700 C   0  0  0  0  0  1  0  0  0  0  0  0
  180.9200  181.2600  138.9710 N   0  0  0  0  0  2  0  0  0  0  0  0
  181.4670  176.6030  134.5940 O   0  0  0  0  0  0  0  0  0  0  0  0
  180.6350  175.4600  134.7240 C   0  0  0  0  0  1  0  0  0  0  0  0
  184.9460  175.0130  137.1250 C   0  0  0  0  0  2  0  0  0  0  0  0
  183.7200  172.9990  136.1920 C   0  0  0  0  0  0  0  0  0  0  0  0
  183.7600  174.1770  137.0040 N   0  0  0  0  0  2  0  0  0  0  0  0
  184.7280  172.6820  135.4450 N   0  0  0  0  0  2  0  0  0  0  0  0
  181.0920  170.4750  135.6290 C   0  0  0  0  0  2  0  0  0  0  0  0
  179.2360  172.0070  136.2690 C   0  0  0  0  0  1  0  0  0  0  0  0
  181.5280  172.3550  136.9960 N   0  0  0  0  0  0  0  0  0  0  0  0
  180.5110  171.3420  136.7490 C   0  0  2  0  0  3  0  0  0  0  0  0
  182.5220  172.1510  136.2060 C   0  0  0  0  0  0  0  0  0  0  0  0
  182.3520  171.0660  135.3710 O   0  0  0  0  0  0  0  0  0  0  0  0
  190.5900  177.1460  140.5730 C   0  0  0  0  0  2  0  0  0  0  0  0
  191.2750  177.1070  141.9300 C   0  0  0  0  0  2  0  0  0  0  0  0
  190.8760  178.2600  142.7210 N   0  0  0  0  0  2  0  0  0  0  0  0
  191.4070  178.0680  144.0640 C   0  0  0  0  0  2  0  0  0  0  0  0
  190.8120  176.8130  144.6830 C   0  0  2  0  0  3  0  0  0  0  0  0
  185.1420  178.4100  146.9070 C   0  0  0  0  0  1  0  0  0  0  0  0
  190.1000  177.1740  147.0490 C   0  0  0  0  0  3  0  0  0  0  0  0
  187.4960  177.7930  146.2740 C   0  0  0  0  0  0  0  0  0  0  0  0
  188.4560  177.4800  145.3000 C   0  0  0  0  0  3  0  0  0  0  0  0
  187.8560  177.7890  147.5900 N   0  0  0  0  0  0  0  0  0  0  0  0
  189.7680  177.1740  145.6910 C   0  0  0  0  0  0  0  0  0  0  0  0
  186.1450  178.1150  145.8960 N   0  0  0  0  0  0  0  0  0  0  0  0
  189.1210  177.4880  147.9930 C   0  0  0  0  0  3  0  0  0  0  0  0
  185.7350  178.1520  144.4990 C   0  0  0  0  0  1  0  0  0  0  0  0
  191.8570  176.0090  145.3000 N   0  0  0  0  0  2  0  0  0  0  0  0
  192.1070  174.9340  144.4390 N   0  0  0  0  0  1  0  0  0  0  0  0
  1  9  1  0  0  0  0
  2 35  1  6  0  0  0
  2  6  1  0  0  0  0
  3  4  1  6  0  0  0
  3 16  1  0  0  0  0
  6  5  1  1  0  0  0
  7  3  1  0  0  0  0
  7 15  1  0  0  0  0
  8  7  1  0  0  0  0
  8 25  1  0  0  0  0
  9 19  2  0  0  0  0
  9 22  1  0  0  0  0
 10 12  1  0  0  0  0
 10  1  2  0  0  0  0
 11 20  1  0  0  0  0
 11  5  1  0  0  0  0
 12 17  2  0  0  0  0
 13 14  2  0  0  0  0
 13  8  1  0  0  0  0
 14 12  1  0  0  0  0
 15 18  1  0  0  0  0
 16 18  1  0  0  0  0
 16 11  2  0  0  0  0
 17 15  1  0  0  0  0
 17 19  1  0  0  0  0
 20  2  1  0  0  0  0
 20  6  1  0  0  0  0
 22 21  1  0  0  0  0
 23 24  1  0  0  0  0
 23 14  1  0  0  0  0
 26 33  1  0  0  0  0
 26 27  1  0  0  0  0
 27 25  1  0  0  0  0
 28 26  2  0  0  0  0
 29 32  1  0  0  0  0
 30 32  1  0  0  0  0
 32 31  1  0  0  0  0
 33 31  2  0  0  0  0
 34 29  1  0  0  0  0
 34 33  1  0  0  0  0
 35 36  1  0  0  0  0
 36 37  1  0  0  0  0
 37 38  1  0  0  0  0
 38 39  1  0  0  0  0
 39 49  1  0  0  0  0
 39 45  1  0  0  0  0
 41 47  1  0  0  0  0
 42 44  1  0  0  0  0
 43 45  1  0  0  0  0
 43 42  2  0  0  0  0
 44 47  2  0  0  0  0
 45 41  2  0  0  0  0
 46 42  1  0  0  0  0
 46 40  1  0  0  0  0
 48 46  1  0  0  0  0
 50 49  1  0  0  0  0
M  END
>  <MODEL>
2

>  <REMARK>
 VINA RESULT:      -6.6      3.324      7.496
  Name = 
  12 active torsions:
  status: ('A' for Active; 'I' for Inactive)
    1  A    between atoms: C_2  and  C_42
    2  A    between atoms: N_6  and  C_16
    3  A    between atoms: C_8  and  C_44
    4  A    between atoms: N_9  and  C_25
    5  A    between atoms: C_10  and  N_19
    6  A    between atoms: C_10  and  C_29
    7  A    between atoms: O_14  and  C_31
    8  A    between atoms: C_15  and  C_25
    9  A    between atoms: N_19  and  C_20
   10  A    between atoms: C_20  and  C_42
   11  A    between atoms: N_23  and  C_29
   12  A    between atoms: C_29  and  C_37
                            x       y       z     vdW  Elec       q    Type
                         _______ _______ _______ _____ _____    ______ ____

>  <TORSDO>
F 12

$$$$
=
 OpenBabel10222419033D

 50 56  0  0  1  0  0  0  0  0999 V2000
  189.9190  177.1400  147.0130 C   0  0  0  0  0  3  0  0  0  0  0  0
  188.6940  177.2840  137.4790 C   0  0  1  0  0  3  0  0  0  0  0  0
  187.8980  178.7290  141.4020 C   0  0  2  0  0  3  0  0  0  0  0  0
  188.5990  180.0660  141.2290 C   0  0  0  0  0  1  0  0  0  0  0  0
  190.4330  176.1150  139.1470 S   0  0  0  0  0  0  0  0  0  0  0  0
  190.1800  177.1510  137.7330 C   0  0  2  0  0  3  0  0  0  0  0  0
  187.6200  178.5160  142.8270 N   0  0  1  0  0  0  0  0  0  0  0  0
  186.1890  178.5980  143.1040 C   0  0  2  0  0  3  0  0  0  0  0  0
  190.6030  176.6330  145.9100 C   0  0  0  0  0  0  0  0  0  0  0  0
  188.6320  177.6560  146.8620 C   0  0  0  0  0  3  0  0  0  0  0  0
  189.3750  177.4120  139.8650 C   0  0  0  0  0  0  0  0  0  0  0  0
  187.9910  177.6900  145.6120 C   0  0  0  0  0  0  0  0  0  0  0  0
  185.9160  178.6340  144.5430 N   0  0  0  0  0  0  0  0  0  0  0  0
  186.5960  178.2570  145.6020 C   0  0  0  0  0  0  0  0  0  0  0  0
  188.0720  177.1620  143.1450 C   0  0  2  0  0  3  0  0  0  0  0  0
  188.8050  177.6130  141.0470 C   0  0  0  0  0  0  0  0  0  0  0  0
  188.6930  177.1720  144.4940 C   0  0  0  0  0  0  0  0  0  0  0  0
  188.9510  176.7580  142.1100 O   0  0  0  0  0  0  0  0  0  0  0  0
  189.9850  176.6470  144.6570 C   0  0  0  0  0  3  0  0  0  0  0  0
  189.3850  178.1280  138.5290 C   0  0  2  0  0  3  0  0  0  0  0  0
  192.4100  175.5830  147.3440 C   0  0  0  0  0  1  0  0  0  0  0  0
  191.9250  176.1160  146.0810 N   0  0  0  0  0  2  0  0  0  0  0  0
  185.9900  178.4230  146.8540 O   0  0  0  0  0  0  0  0  0  0  0  0
  184.5870  178.3290  147.0460 C   0  0  0  0  0  1  0  0  0  0  0  0
  185.3540  177.5120  142.4040 C   0  0  0  0  0  2  0  0  0  0  0  0
  184.0680  178.5670  140.4900 C   0  0  0  0  0  0  0  0  0  0  0  0
  184.1390  178.0760  141.8340 N   0  0  0  0  0  2  0  0  0  0  0  0
  185.1290  178.6150  139.7510 N   0  0  0  0  0  2  0  0  0  0  0  0
  180.5250  179.2620  139.7450 C   0  0  0  0  0  2  0  0  0  0  0  0
  180.9010  179.4890  137.2940 C   0  0  0  0  0  1  0  0  0  0  0  0
  182.6790  179.7840  138.9220 N   0  0  0  0  0  0  0  0  0  0  0  0
  181.2700  180.0390  138.6570 C   0  0  2  0  0  3  0  0  0  0  0  0
  182.7800  179.0220  139.9540 C   0  0  0  0  0  0  0  0  0  0  0  0
  181.5640  178.6700  140.5020 O   0  0  0  0  0  0  0  0  0  0  0  0
  188.4770  178.1070  136.2250 C   0  0  0  0  0  2  0  0  0  0  0  0
  187.3080  177.5450  135.4310 C   0  0  0  0  0  2  0  0  0  0  0  0
  187.1530  176.1270  135.7090 N   0  0  0  0  0  2  0  0  0  0  0  0
  185.7490  175.7960  135.5060 C   0  0  0  0  0  2  0  0  0  0  0  0
  185.4000  174.5280  136.2680 C   0  0  2  0  0  3  0  0  0  0  0  0
  179.4650  173.0070  137.7190 C   0  0  0  0  0  1  0  0  0  0  0  0
  183.7950  175.7220  137.7630 C   0  0  0  0  0  3  0  0  0  0  0  0
  181.7950  173.8410  137.2820 C   0  0  0  0  0  0  0  0  0  0  0  0
  183.0450  173.7040  136.6590 C   0  0  0  0  0  3  0  0  0  0  0  0
  181.5810  174.8990  138.1180 N   0  0  0  0  0  0  0  0  0  0  0  0
  184.0490  174.6540  136.8970 C   0  0  0  0  0  0  0  0  0  0  0  0
  180.7490  172.8810  137.0490 N   0  0  0  0  0  0  0  0  0  0  0  0
  182.5420  175.8290  138.3690 C   0  0  0  0  0  3  0  0  0  0  0  0
  180.9390  171.7550  136.1440 C   0  0  0  0  0  1  0  0  0  0  0  0
  186.4080  174.2540  137.2820 N   0  0  0  0  0  2  0  0  0  0  0  0
  186.1810  172.9500  137.7400 N   0  0  0  0  0  1  0  0  0  0  0  0
  2 35  1  6  0  0  0
  2  6  1  0  0  0  0
  2 20  1  0  0  0  0
  3  4  1  1  0  0  0
  3  7  1  0  0  0  0
  5 11  1  0  0  0  0
  6 20  1  0  0  0  0
  6  5  1  1  0  0  0
  7  8  1  0  0  0  0
  7 15  1  0  0  0  0
  8 13  1  0  0  0  0
  9 22  1  0  0  0  0
  9  1  2  0  0  0  0
 10  1  1  0  0  0  0
 11 16  2  0  0  0  0
 12 10  2  0  0  0  0
 13 14  2  0  0  0  0
 14 12  1  0  0  0  0
 14 23  1  0  0  0  0
 15 17  1  0  0  0  0
 16  3  1  0  0  0  0
 16 18  1  0  0  0  0
 17 19  2  0  0  0  0
 17 12  1  0  0  0  0
 18 15  1  0  0  0  0
 19  9  1  0  0  0  0
 20 11  1  0  0  0  0
 22 21  1  0  0  0  0
 23 24  1  0  0  0  0
 25  8  1  0  0  0  0
 26 27  1  0  0  0  0
 27 25  1  0  0  0  0
 28 26  2  0  0  0  0
 29 34  1  0  0  0  0
 30 32  1  0  0  0  0
 31 33  2  0  0  0  0
 32 31  1  0  0  0  0
 32 29  1  0  0  0  0
 33 26  1  0  0  0  0
 33 34  1  0  0  0  0
 36 37  1  0  0  0  0
 36 35  1  0  0  0  0
 38 37  1  0  0  0  0
 38 39  1  0  0  0  0
 39 45  1  0  0  0  0
 39 49  1  0  0  0  0
 41 47  1  0  0  0  0
 42 44  1  0  0  0  0
 43 45  1  0  0  0  0
 43 42  2  0  0  0  0
 44 47  2  0  0  0  0
 45 41  2  0  0  0  0
 46 42  1  0  0  0  0
 46 40  1  0  0  0  0
 48 46  1  0  0  0  0
 49 50  1  0  0  0  0
M  END
>  <MODEL>
3

>  <REMARK>
 VINA RESULT:      -6.2      2.717      8.478
  Name = 
  12 active torsions:
  status: ('A' for Active; 'I' for Inactive)
    1  A    between atoms: C_2  and  C_42
    2  A    between atoms: N_6  and  C_16
    3  A    between atoms: C_8  and  C_44
    4  A    between atoms: N_9  and  C_25
    5  A    between atoms: C_10  and  N_19
    6  A    between atoms: C_10  and  C_29
    7  A    between atoms: O_14  and  C_31
    8  A    between atoms: C_15  and  C_25
    9  A    between atoms: N_19  and  C_20
   10  A    between atoms: C_20  and  C_42
   11  A    between atoms: N_23  and  C_29
   12  A    between atoms: C_29  and  C_37
                            x       y       z     vdW  Elec       q    Type
                         _______ _______ _______ _____ _____    ______ ____

>  <TORSDO>
F 12

$$$$
=
 OpenBabel10222419033D

 50 56  0  0  1  0  0  0  0  0999 V2000
  189.9070  177.1760  146.9780 C   0  0  0  0  0  3  0  0  0  0  0  0
  188.7290  177.2890  137.4380 C   0  0  1  0  0  3  0  0  0  0  0  0
  187.9000  178.7350  141.3540 C   0  0  2  0  0  3  0  0  0  0  0  0
  188.5890  180.0780  141.1810 C   0  0  0  0  0  1  0  0  0  0  0  0
  190.4700  176.1400  139.1160 S   0  0  0  0  0  0  0  0  0  0  0  0
  190.2150  177.1700  137.6990 C   0  0  2  0  0  3  0  0  0  0  0  0
  187.6160  178.5220  142.7770 N   0  0  1  0  0  0  0  0  0  0  0  0
  186.1830  178.5920  143.0470 C   0  0  2  0  0  3  0  0  0  0  0  0
  190.6020  176.6740  145.8790 C   0  0  0  0  0  0  0  0  0  0  0  0
  188.6160  177.6800  146.8190 C   0  0  0  0  0  3  0  0  0  0  0  0
  189.3970  177.4290  139.8260 C   0  0  0  0  0  0  0  0  0  0  0  0
  187.9810  177.7060  145.5650 C   0  0  0  0  0  0  0  0  0  0  0  0
  185.9030  178.6280  144.4850 N   0  0  0  0  0  0  0  0  0  0  0  0
  186.5810  178.2600  145.5480 C   0  0  0  0  0  0  0  0  0  0  0  0
  188.0800  177.1730  143.1000 C   0  0  2  0  0  3  0  0  0  0  0  0
  188.8190  177.6270  141.0050 C   0  0  0  0  0  0  0  0  0  0  0  0
  188.6930  177.1920  144.4530 C   0  0  0  0  0  0  0  0  0  0  0  0
  188.9670  176.7760  142.0710 O   0  0  0  0  0  0  0  0  0  0  0  0
  189.9900  176.6790  144.6230 C   0  0  0  0  0  3  0  0  0  0  0  0
  189.4060  178.1410  138.4890 C   0  0  2  0  0  3  0  0  0  0  0  0
  192.4070  175.6310  147.3210 C   0  0  0  0  0  1  0  0  0  0  0  0
  191.9270  176.1700  146.0580 N   0  0  0  0  0  2  0  0  0  0  0  0
  185.9670  178.4230  146.7960 O   0  0  0  0  0  0  0  0  0  0  0  0
  184.5710  178.2560  146.9930 C   0  0  0  0  0  1  0  0  0  0  0  0
  185.3620  177.4960  142.3450 C   0  0  0  0  0  2  0  0  0  0  0  0
  183.5580  178.7490  141.0780 C   0  0  0  0  0  0  0  0  0  0  0  0
  183.9800  177.9170  142.1640 N   0  0  0  0  0  2  0  0  0  0  0  0
  184.4260  179.2450  140.2550 N   0  0  0  0  0  2  0  0  0  0  0  0
  180.1730  179.5490  139.8560 C   0  0  0  0  0  2  0  0  0  0  0  0
  179.5090  180.7380  141.9410 C   0  0  0  0  0  1  0  0  0  0  0  0
  181.3010  179.0990  141.8840 N   0  0  0  0  0  0  0  0  0  0  0  0
  179.9770  179.4150  141.3680 C   0  0  2  0  0  3  0  0  0  0  0  0
  182.1310  179.0430  140.9030 C   0  0  0  0  0  0  0  0  0  0  0  0
  181.5530  179.2910  139.6760 O   0  0  0  0  0  0  0  0  0  0  0  0
  188.5100  178.1080  136.1800 C   0  0  0  0  0  2  0  0  0  0  0  0
  187.1180  177.8470  135.6260 C   0  0  0  0  0  2  0  0  0  0  0  0
  186.1760  177.6590  136.7170 N   0  0  0  0  0  2  0  0  0  0  0  0
  185.1040  176.8050  136.2220 C   0  0  0  0  0  2  0  0  0  0  0  0
  184.8140  175.7020  137.2270 C   0  0  2  0  0  3  0  0  0  0  0  0
  189.0600  171.6280  134.9880 C   0  0  0  0  0  1  0  0  0  0  0  0
  184.5580  173.2600  136.7730 C   0  0  0  0  0  3  0  0  0  0  0  0
  187.1850  173.0520  135.8690 C   0  0  0  0  0  0  0  0  0  0  0  0
  186.6910  174.2940  136.2950 C   0  0  0  0  0  3  0  0  0  0  0  0
  186.3650  171.9610  135.9070 N   0  0  0  0  0  0  0  0  0  0  0  0
  185.3670  174.3990  136.7440 C   0  0  0  0  0  0  0  0  0  0  0  0
  188.5400  172.9220  135.3990 N   0  0  0  0  0  0  0  0  0  0  0  0
  185.0790  172.0390  136.3460 C   0  0  0  0  0  3  0  0  0  0  0  0
  189.4320  174.0700  135.3240 C   0  0  0  0  0  1  0  0  0  0  0  0
  183.3810  175.5910  137.4550 N   0  0  0  0  0  2  0  0  0  0  0  0
  183.1110  176.2300  138.6720 N   0  0  0  0  0  1  0  0  0  0  0  0
  2 35  1  6  0  0  0
  2  6  1  0  0  0  0
  2 20  1  0  0  0  0
  3  4  1  1  0  0  0
  3  7  1  0  0  0  0
  5 11  1  0  0  0  0
  6 20  1  0  0  0  0
  6  5  1  1  0  0  0
  7  8  1  0  0  0  0
  7 15  1  0  0  0  0
  8 13  1  0  0  0  0
  9 22  1  0  0  0  0
  9  1  2  0  0  0  0
 10  1  1  0  0  0  0
 11 16  2  0  0  0  0
 12 10  2  0  0  0  0
 13 14  2  0  0  0  0
 14 12  1  0  0  0  0
 14 23  1  0  0  0  0
 15 17  1  0  0  0  0
 16  3  1  0  0  0  0
 16 18  1  0  0  0  0
 17 19  2  0  0  0  0
 17 12  1  0  0  0  0
 18 15  1  0  0  0  0
 19  9  1  0  0  0  0
 20 11  1  0  0  0  0
 22 21  1  0  0  0  0
 23 24  1  0  0  0  0
 25  8  1  0  0  0  0
 26 27  1  0  0  0  0
 27 25  1  0  0  0  0
 28 26  2  0  0  0  0
 29 32  1  0  0  0  0
 32 31  1  0  0  0  0
 32 30  1  0  0  0  0
 33 26  1  0  0  0  0
 33 31  2  0  0  0  0
 34 29  1  0  0  0  0
 34 33  1  0  0  0  0
 36 35  1  0  0  0  0
 36 37  1  0  0  0  0
 38 37  1  0  0  0  0
 38 39  1  0  0  0  0
 39 49  1  0  0  0  0
 40 46  1  0  0  0  0
 42 44  2  0  0  0  0
 42 43  1  0  0  0  0
 43 45  2  0  0  0  0
 44 47  1  0  0  0  0
 45 41  1  0  0  0  0
 45 39  1  0  0  0  0
 46 42  1  0  0  0  0
 47 41  2  0  0  0  0
 48 46  1  0  0  0  0
 49 50  1  0  0  0  0
M  END
>  <MODEL>
4

>  <REMARK>
 VINA RESULT:      -6.1      2.582      8.219
  Name = 
  12 active torsions:
  status: ('A' for Active; 'I' for Inactive)
    1  A    between atoms: C_2  and  C_42
    2  A    between atoms: N_6  and  C_16
    3  A    between atoms: C_8  and  C_44
    4  A    between atoms: N_9  and  C_25
    5  A    between atoms: C_10  and  N_19
    6  A    between atoms: C_10  and  C_29
    7  A    between atoms: O_14  and  C_31
    8  A    between atoms: C_15  and  C_25
    9  A    between atoms: N_19  and  C_20
   10  A    between atoms: C_20  and  C_42
   11  A    between atoms: N_23  and  C_29
   12  A    between atoms: C_29  and  C_37
                            x       y       z     vdW  Elec       q    Type
                         _______ _______ _______ _____ _____    ______ ____

>  <TORSDO>
F 12

$$$$
=
 OpenBabel10222419033D

 50 56  0  0  1  0  0  0  0  0999 V2000
  189.9480  177.1780  147.0110 C   0  0  0  0  0  3  0  0  0  0  0  0
  188.8020  177.2150  137.4660 C   0  0  1  0  0  3  0  0  0  0  0  0
  187.9760  178.7060  141.3660 C   0  0  2  0  0  3  0  0  0  0  0  0
  188.6790  180.0400  141.1830 C   0  0  0  0  0  1  0  0  0  0  0  0
  190.5260  176.0640  139.1610 S   0  0  0  0  0  0  0  0  0  0  0  0
  190.2860  177.0830  137.7330 C   0  0  2  0  0  3  0  0  0  0  0  0
  187.6850  178.5090  142.7900 N   0  0  1  0  0  0  0  0  0  0  0  0
  186.2520  178.5950  143.0540 C   0  0  2  0  0  3  0  0  0  0  0  0
  190.6410  176.6590  145.9190 C   0  0  0  0  0  0  0  0  0  0  0  0
  188.6630  177.6940  146.8430 C   0  0  0  0  0  3  0  0  0  0  0  0
  189.4640  177.3700  139.8550 C   0  0  0  0  0  0  0  0  0  0  0  0
  188.0330  177.7140  145.5870 C   0  0  0  0  0  0  0  0  0  0  0  0
  185.9680  178.6470  144.4910 N   0  0  0  0  0  0  0  0  0  0  0  0
  186.6380  178.2830  145.5600 C   0  0  0  0  0  0  0  0  0  0  0  0
  188.1340  177.1580  143.1270 C   0  0  2  0  0  3  0  0  0  0  0  0
  188.8840  177.5850  141.0300 C   0  0  0  0  0  0  0  0  0  0  0  0
  188.7430  177.1830  144.4810 C   0  0  0  0  0  0  0  0  0  0  0  0
  189.0210  176.7420  142.1050 O   0  0  0  0  0  0  0  0  0  0  0  0
  190.0340  176.6590  144.6610 C   0  0  0  0  0  3  0  0  0  0  0  0
  189.4850  178.0700  138.5120 C   0  0  2  0  0  3  0  0  0  0  0  0
  192.4370  175.6280  147.3810 C   0  0  0  0  0  1  0  0  0  0  0  0
  191.9620  176.1430  146.1070 N   0  0  0  0  0  2  0  0  0  0  0  0
  186.0220  178.4630  146.8050 O   0  0  0  0  0  0  0  0  0  0  0  0
  184.6340  178.2520  147.0120 C   0  0  0  0  0  1  0  0  0  0  0  0
  185.4220  177.5020  142.3600 C   0  0  0  0  0  2  0  0  0  0  0  0
  183.3740  178.5300  141.2750 C   0  0  0  0  0  0  0  0  0  0  0  0
  184.0070  177.8430  142.3610 N   0  0  0  0  0  2  0  0  0  0  0  0
  184.0720  178.9650  140.2760 N   0  0  0  0  0  2  0  0  0  0  0  0
  179.7350  178.5960  140.6860 C   0  0  0  0  0  2  0  0  0  0  0  0
  179.4490  180.8930  141.6030 C   0  0  0  0  0  1  0  0  0  0  0  0
  181.3380  179.4800  142.1820 N   0  0  0  0  0  0  0  0  0  0  0  0
  179.9050  179.4830  141.9210 C   0  0  2  0  0  3  0  0  0  0  0  0
  181.9220  178.7440  141.3030 C   0  0  0  0  0  0  0  0  0  0  0  0
  181.0560  178.1830  140.3880 O   0  0  0  0  0  0  0  0  0  0  0  0
  188.5960  178.0240  136.2000 C   0  0  0  0  0  2  0  0  0  0  0  0
  187.1710  178.5510  136.1470 C   0  0  0  0  0  2  0  0  0  0  0  0
  186.2500  177.4660  135.8530 N   0  0  0  0  0  2  0  0  0  0  0  0
  185.2050  177.4960  136.8680 C   0  0  0  0  0  2  0  0  0  0  0  0
  184.1700  176.4210  136.5790 C   0  0  2  0  0  3  0  0  0  0  0  0
  179.6020  180.6570  137.4960 C   0  0  0  0  0  1  0  0  0  0  0  0
  181.7820  176.3360  135.8530 C   0  0  0  0  0  3  0  0  0  0  0  0
  181.2360  178.8070  137.0190 C   0  0  0  0  0  0  0  0  0  0  0  0
  182.5280  178.2650  137.1070 C   0  0  0  0  0  3  0  0  0  0  0  0
  180.2650  178.1100  136.3600 N   0  0  0  0  0  0  0  0  0  0  0  0
  182.8000  177.0190  136.5250 C   0  0  0  0  0  0  0  0  0  0  0  0
  180.9330  180.0820  137.6140 N   0  0  0  0  0  0  0  0  0  0  0  0
  180.5090  176.9020  135.7820 C   0  0  0  0  0  3  0  0  0  0  0  0
  181.9400  180.8390  138.3440 C   0  0  0  0  0  1  0  0  0  0  0  0
  184.2280  175.3780  137.5920 N   0  0  0  0  0  2  0  0  0  0  0  0
  184.6570  174.2100  136.9500 N   0  0  0  0  0  1  0  0  0  0  0  0
  2 35  1  6  0  0  0
  2  6  1  0  0  0  0
  2 20  1  0  0  0  0
  3  4  1  1  0  0  0
  3  7  1  0  0  0  0
  5 11  1  0  0  0  0
  6 20  1  0  0  0  0
  6  5  1  1  0  0  0
  7  8  1  0  0  0  0
  7 15  1  0  0  0  0
  8 13  1  0  0  0  0
  9 22  1  0  0  0  0
  9  1  2  0  0  0  0
 10  1  1  0  0  0  0
 11 16  2  0  0  0  0
 12 10  2  0  0  0  0
 13 14  2  0  0  0  0
 14 12  1  0  0  0  0
 14 23  1  0  0  0  0
 15 17  1  0  0  0  0
 16  3  1  0  0  0  0
 16 18  1  0  0  0  0
 17 19  2  0  0  0  0
 17 12  1  0  0  0  0
 18 15  1  0  0  0  0
 19  9  1  0  0  0  0
 20 11  1  0  0  0  0
 22 21  1  0  0  0  0
 23 24  1  0  0  0  0
 25 27  1  0  0  0  0
 25  8  1  0  0  0  0
 26 33  1  0  0  0  0
 26 27  1  0  0  0  0
 28 26  2  0  0  0  0
 29 32  1  0  0  0  0
 30 32  1  0  0  0  0
 32 31  1  0  0  0  0
 33 31  2  0  0  0  0
 34 29  1  0  0  0  0
 34 33  1  0  0  0  0
 36 35  1  0  0  0  0
 37 36  1  0  0  0  0
 37 38  1  0  0  0  0
 39 38  1  0  0  0  0
 39 49  1  0  0  0  0
 40 46  1  0  0  0  0
 41 45  1  0  0  0  0
 42 43  1  0  0  0  0
 42 46  1  0  0  0  0
 44 42  2  0  0  0  0
 45 39  1  0  0  0  0
 45 43  2  0  0  0  0
 46 48  1  0  0  0  0
 47 41  2  0  0  0  0
 47 44  1  0  0  0  0
 50 49  1  0  0  0  0
M  END
>  <MODEL>
5

>  <REMARK>
 VINA RESULT:      -5.7      2.674      8.490
  Name = 
  12 active torsions:
  status: ('A' for Active; 'I' for Inactive)
    1  A    between atoms: C_2  and  C_42
    2  A    between atoms: N_6  and  C_16
    3  A    between atoms: C_8  and  C_44
    4  A    between atoms: N_9  and  C_25
    5  A    between atoms: C_10  and  N_19
    6  A    between atoms: C_10  and  C_29
    7  A    between atoms: O_14  and  C_31
    8  A    between atoms: C_15  and  C_25
    9  A    between atoms: N_19  and  C_20
   10  A    between atoms: C_20  and  C_42
   11  A    between atoms: N_23  and  C_29
   12  A    between atoms: C_29  and  C_37
                            x       y       z     vdW  Elec       q    Type
                         _______ _______ _______ _____ _____    ______ ____

>  <TORSDO>
F 12

$$$$
=
 OpenBabel10222419033D

 50 56  0  0  1  0  0  0  0  0999 V2000
  178.9900  180.7760  138.1150 C   0  0  0  0  0  3  0  0  0  0  0  0
  187.3410  176.1450  137.0060 C   0  0  1  0  0  3  0  0  0  0  0  0
  183.6700  176.8600  139.0370 C   0  0  2  0  0  3  0  0  0  0  0  0
  183.0100  175.5490  138.6470 C   0  0  0  0  0  1  0  0  0  0  0  0
  185.8860  177.8110  135.4970 S   0  0  0  0  0  0  0  0  0  0  0  0
  186.7060  176.2480  135.6360 C   0  0  2  0  0  3  0  0  0  0  0  0
  182.6550  177.7610  139.5940 N   0  0  1  0  0  0  0  0  0  0  0  0
  182.8480  177.9540  141.0280 C   0  0  2  0  0  3  0  0  0  0  0  0
  179.9170  180.6200  137.0870 C   0  0  0  0  0  0  0  0  0  0  0  0
  179.3080  180.3720  139.4110 C   0  0  0  0  0  3  0  0  0  0  0  0
  185.0590  177.1270  136.9690 C   0  0  0  0  0  0  0  0  0  0  0  0
  180.5520  179.7950  139.7220 C   0  0  0  0  0  0  0  0  0  0  0  0
  181.7090  178.6460  141.6390 N   0  0  0  0  0  0  0  0  0  0  0  0
  180.7630  179.4240  141.1660 C   0  0  0  0  0  0  0  0  0  0  0  0
  182.8300  179.0520  138.9280 C   0  0  2  0  0  3  0  0  0  0  0  0
  184.1620  177.5760  137.8370 C   0  0  0  0  0  0  0  0  0  0  0  0
  181.4900  179.6400  138.6710 C   0  0  0  0  0  0  0  0  0  0  0  0
  183.5910  178.8220  137.7570 O   0  0  0  0  0  0  0  0  0  0  0  0
  181.1640  180.0580  137.3700 C   0  0  0  0  0  3  0  0  0  0  0  0
  185.8690  175.8560  136.8050 C   0  0  2  0  0  3  0  0  0  0  0  0
  180.2380  182.1250  135.0730 C   0  0  0  0  0  1  0  0  0  0  0  0
  179.5710  181.0320  135.7620 N   0  0  0  0  0  2  0  0  0  0  0  0
  179.8330  179.9410  142.0770 O   0  0  0  0  0  0  0  0  0  0  0  0
  179.6150  179.3710  143.3590 C   0  0  0  0  0  1  0  0  0  0  0  0
  184.1770  178.6370  141.3930 C   0  0  0  0  0  2  0  0  0  0  0  0
  185.8350  178.2370  143.2690 C   0  0  0  0  0  0  0  0  0  0  0  0
  184.4970  178.4350  142.7980 N   0  0  0  0  0  2  0  0  0  0  0  0
  186.8170  178.1330  142.4320 N   0  0  0  0  0  2  0  0  0  0  0  0
  185.9480  178.6290  146.9330 C   0  0  0  0  0  2  0  0  0  0  0  0
  188.3170  177.8840  147.1180 C   0  0  0  0  0  1  0  0  0  0  0  0
  186.9050  177.2990  145.2290 N   0  0  0  0  0  0  0  0  0  0  0  0
  186.9250  177.4800  146.6740 C   0  0  2  0  0  3  0  0  0  0  0  0
  186.0880  178.1470  144.7120 C   0  0  0  0  0  0  0  0  0  0  0  0
  185.4800  178.9660  145.6400 O   0  0  0  0  0  0  0  0  0  0  0  0
  188.1090  174.8410  137.1000 C   0  0  0  0  0  2  0  0  0  0  0  0
  189.5300  175.0370  136.5970 C   0  0  0  0  0  2  0  0  0  0  0  0
  190.3730  173.9420  137.0470 N   0  0  0  0  0  2  0  0  0  0  0  0
  191.3510  174.4980  137.9720 C   0  0  0  0  0  2  0  0  0  0  0  0
  191.9680  175.7560  137.3800 C   0  0  2  0  0  3  0  0  0  0  0  0
  197.1870  172.4610  136.1360 C   0  0  0  0  0  1  0  0  0  0  0  0
  193.9150  176.3830  135.9480 C   0  0  0  0  0  3  0  0  0  0  0  0
  195.2160  173.9790  136.4920 C   0  0  0  0  0  0  0  0  0  0  0  0
  193.9640  174.2410  137.0700 C   0  0  0  0  0  3  0  0  0  0  0  0
  195.7770  174.9120  135.6690 N   0  0  0  0  0  0  0  0  0  0  0  0
  193.3130  175.4530  136.8000 C   0  0  0  0  0  0  0  0  0  0  0  0
  195.9040  172.7440  136.7600 N   0  0  0  0  0  0  0  0  0  0  0  0
  195.1590  176.0930  135.3870 C   0  0  0  0  0  3  0  0  0  0  0  0
  195.3450  171.7390  137.6530 C   0  0  0  0  0  1  0  0  0  0  0  0
  192.0750  176.7920  138.3960 N   0  0  0  0  0  2  0  0  0  0  0  0
  190.8360  176.8580  139.0440 N   0  0  0  0  0  1  0  0  0  0  0  0
  1 10  1  0  0  0  0
  2 35  1  6  0  0  0
  3  4  1  6  0  0  0
  3  7  1  0  0  0  0
  5 11  1  0  0  0  0
  6  5  1  1  0  0  0
  6 20  1  0  0  0  0
  6  2  1  0  0  0  0
  7  8  1  0  0  0  0
  8 25  1  0  0  0  0
  8 13  1  0  0  0  0
  9 19  1  0  0  0  0
  9  1  2  0  0  0  0
 10 12  2  0  0  0  0
 11 16  2  0  0  0  0
 12 14  1  0  0  0  0
 14 13  2  0  0  0  0
 14 23  1  0  0  0  0
 15  7  1  0  0  0  0
 16  3  1  0  0  0  0
 17 15  1  0  0  0  0
 17 12  1  0  0  0  0
 18 16  1  0  0  0  0
 18 15  1  0  0  0  0
 19 17  2  0  0  0  0
 20 11  1  0  0  0  0
 20  2  1  0  0  0  0
 21 22  1  0  0  0  0
 22  9  1  0  0  0  0
 23 24  1  0  0  0  0
 25 27  1  0  0  0  0
 26 33  1  0  0  0  0
 27 26  1  0  0  0  0
 28 26  2  0  0  0  0
 31 32  1  0  0  0  0
 32 29  1  0  0  0  0
 32 30  1  0  0  0  0
 33 31  2  0  0  0  0
 33 34  1  0  0  0  0
 34 29  1  0  0  0  0
 36 37  1  0  0  0  0
 36 35  1  0  0  0  0
 37 38  1  0  0  0  0
 39 38  1  0  0  0  0
 39 49  1  0  0  0  0
 40 46  1  0  0  0  0
 41 45  1  0  0  0  0
 42 46  1  0  0  0  0
 42 43  1  0  0  0  0
 44 42  2  0  0  0  0
 45 43  2  0  0  0  0
 45 39  1  0  0  0  0
 46 48  1  0  0  0  0
 47 44  1  0  0  0  0
 47 41  2  0  0  0  0
 49 50  1  0  0  0  0
M  END
>  <MODEL>
6

>  <REMARK>
 VINA RESULT:      -5.7      1.917      3.432
  Name = 
  12 active torsions:
  status: ('A' for Active; 'I' for Inactive)
    1  A    between atoms: C_2  and  C_42
    2  A    between atoms: N_6  and  C_16
    3  A    between atoms: C_8  and  C_44
    4  A    between atoms: N_9  and  C_25
    5  A    between atoms: C_10  and  N_19
    6  A    between atoms: C_10  and  C_29
    7  A    between atoms: O_14  and  C_31
    8  A    between atoms: C_15  and  C_25
    9  A    between atoms: N_19  and  C_20
   10  A    between atoms: C_20  and  C_42
   11  A    between atoms: N_23  and  C_29
   12  A    between atoms: C_29  and  C_37
                            x       y       z     vdW  Elec       q    Type
                         _______ _______ _______ _____ _____    ______ ____

>  <TORSDO>
F 12

$$$$
=
 OpenBabel10222419033D

 50 56  0  0  1  0  0  0  0  0999 V2000
  179.8060  180.6240  136.5170 C   0  0  0  0  0  3  0  0  0  0  0  0
  185.1810  177.7910  143.9670 C   0  0  1  0  0  3  0  0  0  0  0  0
  184.4080  178.1430  139.7970 C   0  0  2  0  0  3  0  0  0  0  0  0
  185.5170  179.1410  139.5090 C   0  0  0  0  0  1  0  0  0  0  0  0
  183.0710  179.4120  143.6630 S   0  0  0  0  0  0  0  0  0  0  0  0
  184.7240  179.2030  144.2620 C   0  0  2  0  0  3  0  0  0  0  0  0
  183.5100  178.0780  138.6380 N   0  0  1  0  0  0  0  0  0  0  0  0
  183.6340  176.7990  137.9460 C   0  0  2  0  0  3  0  0  0  0  0  0
  179.8750  180.9330  137.8740 C   0  0  0  0  0  0  0  0  0  0  0  0
  180.4990  179.5240  136.0130 C   0  0  0  0  0  3  0  0  0  0  0  0
  183.9200  178.8990  142.1360 C   0  0  0  0  0  0  0  0  0  0  0  0
  181.2850  178.7030  136.8410 C   0  0  0  0  0  0  0  0  0  0  0  0
  182.9340  176.8110  136.6580 N   0  0  0  0  0  0  0  0  0  0  0  0
  181.9600  177.5390  136.1630 C   0  0  0  0  0  0  0  0  0  0  0  0
  182.1470  178.1900  139.1570 C   0  0  2  0  0  3  0  0  0  0  0  0
  183.5390  178.6290  140.8930 C   0  0  0  0  0  0  0  0  0  0  0  0
  181.3490  179.0220  138.2210 C   0  0  0  0  0  0  0  0  0  0  0  0
  182.2380  178.7230  140.4660 O   0  0  0  0  0  0  0  0  0  0  0  0
  180.6420  180.1280  138.7200 C   0  0  0  0  0  3  0  0  0  0  0  0
  185.2270  178.8640  142.9010 C   0  0  2  0  0  3  0  0  0  0  0  0
  179.3140  183.4040  137.8120 C   0  0  0  0  0  1  0  0  0  0  0  0
  179.1660  182.0700  138.3720 N   0  0  0  0  0  2  0  0  0  0  0  0
  181.5170  177.2390  134.8690 O   0  0  0  0  0  0  0  0  0  0  0  0
  180.4670  176.3180  134.6120 C   0  0  0  0  0  1  0  0  0  0  0  0
  183.2180  175.5850  138.7950 C   0  0  0  0  0  2  0  0  0  0  0  0
  184.2300  173.7000  137.4350 C   0  0  0  0  0  0  0  0  0  0  0  0
  183.0970  174.3910  137.9720 N   0  0  0  0  0  2  0  0  0  0  0  0
  185.4230  174.1800  137.5860 N   0  0  0  0  0  2  0  0  0  0  0  0
  183.1070  170.4490  136.1080 C   0  0  0  0  0  2  0  0  0  0  0  0
  185.3990  169.7200  135.4640 C   0  0  0  0  0  1  0  0  0  0  0  0
  184.8030  172.0570  135.7500 N   0  0  0  0  0  0  0  0  0  0  0  0
  184.3310  170.7740  135.2490 C   0  0  2  0  0  3  0  0  0  0  0  0
  184.0320  172.4430  136.7040 C   0  0  0  0  0  0  0  0  0  0  0  0
  183.0080  171.5610  136.9790 O   0  0  0  0  0  0  0  0  0  0  0  0
  186.5670  177.5860  144.5470 C   0  0  0  0  0  2  0  0  0  0  0  0
  187.3530  176.6130  143.6830 C   0  0  0  0  0  2  0  0  0  0  0  0
  188.6290  177.1990  143.3070 N   0  0  0  0  0  2  0  0  0  0  0  0
  188.4860  177.7190  141.9540 C   0  0  0  0  0  2  0  0  0  0  0  0
  189.8570  177.9790  141.3510 C   0  0  2  0  0  3  0  0  0  0  0  0
  190.9790  175.5760  135.6410 C   0  0  0  0  0  1  0  0  0  0  0  0
  189.0260  178.7600  139.1290 C   0  0  0  0  0  3  0  0  0  0  0  0
  190.3980  176.7350  137.7940 C   0  0  0  0  0  0  0  0  0  0  0  0
  190.4880  176.8340  139.1910 C   0  0  0  0  0  3  0  0  0  0  0  0
  189.6350  177.6370  137.1110 N   0  0  0  0  0  0  0  0  0  0  0  0
  189.8020  177.8570  139.8620 C   0  0  0  0  0  0  0  0  0  0  0  0
  191.0980  175.6960  137.0850 N   0  0  0  0  0  0  0  0  0  0  0  0
  188.9550  178.6330  137.7420 C   0  0  0  0  0  3  0  0  0  0  0  0
  191.9390  174.7330  137.7820 C   0  0  0  0  0  1  0  0  0  0  0  0
  190.8350  177.0530  141.9010 N   0  0  0  0  0  2  0  0  0  0  0  0
  191.7520  177.8150  142.6340 N   0  0  0  0  0  1  0  0  0  0  0  0
  1  9  1  0  0  0  0
  2  6  1  0  0  0  0
  2 35  1  1  0  0  0
  3  4  1  6  0  0  0
  3 16  1  0  0  0  0
  6  5  1  6  0  0  0
  7 15  1  0  0  0  0
  7  3  1  0  0  0  0
  8  7  1  0  0  0  0
  8 25  1  0  0  0  0
  9 22  1  0  0  0  0
  9 19  2  0  0  0  0
 10  1  2  0  0  0  0
 10 12  1  0  0  0  0
 11 20  1  0  0  0  0
 11  5  1  0  0  0  0
 12 17  2  0  0  0  0
 13  8  1  0  0  0  0
 14 13  2  0  0  0  0
 14 12  1  0  0  0  0
 15 18  1  0  0  0  0
 16 11  2  0  0  0  0
 17 19  1  0  0  0  0
 17 15  1  0  0  0  0
 18 16  1  0  0  0  0
 20  2  1  0  0  0  0
 20  6  1  0  0  0  0
 21 22  1  0  0  0  0
 23 14  1  0  0  0  0
 24 23  1  0  0  0  0
 26 28  2  0  0  0  0
 26 27  1  0  0  0  0
 27 25  1  0  0  0  0
 29 34  1  0  0  0  0
 31 33  2  0  0  0  0
 32 30  1  0  0  0  0
 32 31  1  0  0  0  0
 32 29  1  0  0  0  0
 33 34  1  0  0  0  0
 33 26  1  0  0  0  0
 36 35  1  0  0  0  0
 37 36  1  0  0  0  0
 38 37  1  0  0  0  0
 39 49  1  0  0  0  0
 39 38  1  0  0  0  0
 40 46  1  0  0  0  0
 41 45  1  0  0  0  0
 42 43  1  0  0  0  0
 43 45  2  0  0  0  0
 44 47  1  0  0  0  0
 44 42  2  0  0  0  0
 45 39  1  0  0  0  0
 46 48  1  0  0  0  0
 46 42  1  0  0  0  0
 47 41  2  0  0  0  0
 49 50  1  0  0  0  0
M  END
>  <MODEL>
7

>  <REMARK>
 VINA RESULT:      -5.6      2.900      6.630
  Name = 
  12 active torsions:
  status: ('A' for Active; 'I' for Inactive)
    1  A    between atoms: C_2  and  C_42
    2  A    between atoms: N_6  and  C_16
    3  A    between atoms: C_8  and  C_44
    4  A    between atoms: N_9  and  C_25
    5  A    between atoms: C_10  and  N_19
    6  A    between atoms: C_10  and  C_29
    7  A    between atoms: O_14  and  C_31
    8  A    between atoms: C_15  and  C_25
    9  A    between atoms: N_19  and  C_20
   10  A    between atoms: C_20  and  C_42
   11  A    between atoms: N_23  and  C_29
   12  A    between atoms: C_29  and  C_37
                            x       y       z     vdW  Elec       q    Type
                         _______ _______ _______ _____ _____    ______ ____

>  <TORSDO>
F 12

$$$$
=
 OpenBabel10222419033D

 50 56  0  0  1  0  0  0  0  0999 V2000
  185.6750  178.4360  147.3390 C   0  0  0  0  0  3  0  0  0  0  0  0
  190.0510  176.6970  138.9580 C   0  0  1  0  0  3  0  0  0  0  0  0
  187.2150  178.7570  141.3720 C   0  0  2  0  0  3  0  0  0  0  0  0
  187.9230  180.1010  141.3450 C   0  0  0  0  0  1  0  0  0  0  0  0
  190.5160  176.0320  141.5100 S   0  0  0  0  0  0  0  0  0  0  0  0
  191.1310  176.7590  140.0170 C   0  0  2  0  0  3  0  0  0  0  0  0
  186.1750  178.7840  142.4060 N   0  0  1  0  0  0  0  0  0  0  0  0
  184.8410  178.7760  141.8160 C   0  0  2  0  0  3  0  0  0  0  0  0
  186.8510  177.8040  146.9380 C   0  0  0  0  0  0  0  0  0  0  0  0
  184.7110  178.7870  146.3950 C   0  0  0  0  0  3  0  0  0  0  0  0
  189.2690  177.3300  141.2300 C   0  0  0  0  0  0  0  0  0  0  0  0
  184.8890  178.5270  145.0250 C   0  0  0  0  0  0  0  0  0  0  0  0
  183.8040  179.0500  142.8150 N   0  0  0  0  0  0  0  0  0  0  0  0
  183.7570  178.9440  144.1230 C   0  0  0  0  0  0  0  0  0  0  0  0
  186.3370  177.5630  143.1950 C   0  0  2  0  0  3  0  0  0  0  0  0
  188.1370  177.6890  141.8210 C   0  0  0  0  0  0  0  0  0  0  0  0
  186.0870  177.8830  144.6240 C   0  0  0  0  0  0  0  0  0  0  0  0
  187.6360  177.0630  142.9360 O   0  0  0  0  0  0  0  0  0  0  0  0
  187.0480  177.5260  145.5830 C   0  0  0  0  0  3  0  0  0  0  0  0
  190.0490  177.7840  140.0120 C   0  0  2  0  0  3  0  0  0  0  0  0
  189.2630  177.5510  147.6750 C   0  0  0  0  0  1  0  0  0  0  0  0
  187.8320  177.4590  147.9190 N   0  0  0  0  0  2  0  0  0  0  0  0
  182.5550  179.2780  144.7590 O   0  0  0  0  0  0  0  0  0  0  0  0
  181.3080  179.2970  144.0810 C   0  0  0  0  0  1  0  0  0  0  0  0
  184.5200  177.5030  141.0130 C   0  0  0  0  0  2  0  0  0  0  0  0
  182.4360  177.8960  139.6240 C   0  0  0  0  0  0  0  0  0  0  0  0
  183.8600  177.8320  139.7580 N   0  0  0  0  0  2  0  0  0  0  0  0
  181.6680  177.5630  140.6100 N   0  0  0  0  0  2  0  0  0  0  0  0
  180.3700  179.2940  136.9090 C   0  0  0  0  0  2  0  0  0  0  0  0
  181.0590  177.5660  135.2540 C   0  0  0  0  0  1  0  0  0  0  0  0
  182.3930  178.1080  137.2110 N   0  0  0  0  0  0  0  0  0  0  0  0
  181.5540  178.6730  136.1630 C   0  0  2  0  0  3  0  0  0  0  0  0
  181.8490  178.3380  138.3530 C   0  0  0  0  0  0  0  0  0  0  0  0
  180.6600  179.0320  138.2700 O   0  0  0  0  0  0  0  0  0  0  0  0
  190.6000  177.2490  137.6570 C   0  0  0  0  0  2  0  0  0  0  0  0
  189.6220  176.9800  136.5250 C   0  0  0  0  0  2  0  0  0  0  0  0
  189.0930  175.6310  136.6340 N   0  0  0  0  0  2  0  0  0  0  0  0
  187.7810  175.6270  136.0000 C   0  0  0  0  0  2  0  0  0  0  0  0
  186.6920  175.6530  137.0600 C   0  0  2  0  0  3  0  0  0  0  0  0
  181.4050  172.2350  137.0490 C   0  0  0  0  0  1  0  0  0  0  0  0
  186.4000  173.2170  136.5940 C   0  0  0  0  0  3  0  0  0  0  0  0
  183.6490  173.3670  137.0110 C   0  0  0  0  0  0  0  0  0  0  0  0
  184.4380  174.5190  137.1490 C   0  0  0  0  0  3  0  0  0  0  0  0
  184.2460  172.1880  136.6740 N   0  0  0  0  0  0  0  0  0  0  0  0
  185.8230  174.4420  136.9450 C   0  0  0  0  0  0  0  0  0  0  0  0
  182.2260  173.4230  137.2220 N   0  0  0  0  0  0  0  0  0  0  0  0
  185.5880  172.0910  136.4630 C   0  0  0  0  0  3  0  0  0  0  0  0
  181.5620  174.6600  137.6070 C   0  0  0  0  0  1  0  0  0  0  0  0
  185.8940  176.8640  136.9350 N   0  0  0  0  0  2  0  0  0  0  0  0
  186.5080  177.8400  137.7290 N   0  0  0  0  0  1  0  0  0  0  0  0
  2 35  1  6  0  0  0
  2 20  1  0  0  0  0
  2  6  1  0  0  0  0
  3  4  1  1  0  0  0
  3 16  1  0  0  0  0
  3  7  1  0  0  0  0
  6  5  1  1  0  0  0
  7 15  1  0  0  0  0
  8  7  1  0  0  0  0
  8 13  1  0  0  0  0
  9  1  1  0  0  0  0
  9 22  1  0  0  0  0
 10  1  2  0  0  0  0
 11  5  1  0  0  0  0
 11 16  2  0  0  0  0
 12 10  1  0  0  0  0
 13 14  2  0  0  0  0
 14 23  1  0  0  0  0
 14 12  1  0  0  0  0
 15 17  1  0  0  0  0
 16 18  1  0  0  0  0
 17 12  2  0  0  0  0
 17 19  1  0  0  0  0
 18 15  1  0  0  0  0
 19  9  2  0  0  0  0
 20  6  1  0  0  0  0
 20 11  1  0  0  0  0
 21 22  1  0  0  0  0
 24 23  1  0  0  0  0
 25  8  1  0  0  0  0
 26 27  1  0  0  0  0
 26 28  2  0  0  0  0
 27 25  1  0  0  0  0
 29 34  1  0  0  0  0
 30 32  1  0  0  0  0
 31 33  2  0  0  0  0
 32 29  1  0  0  0  0
 32 31  1  0  0  0  0
 33 26  1  0  0  0  0
 34 33  1  0  0  0  0
 36 37  1  0  0  0  0
 36 35  1  0  0  0  0
 38 37  1  0  0  0  0
 38 39  1  0  0  0  0
 40 46  1  0  0  0  0
 41 45  1  0  0  0  0
 42 43  1  0  0  0  0
 42 46  1  0  0  0  0
 44 42  2  0  0  0  0
 45 39  1  0  0  0  0
 45 43  2  0  0  0  0
 46 48  1  0  0  0  0
 47 41  2  0  0  0  0
 47 44  1  0  0  0  0
 49 39  1  0  0  0  0
 49 50  1  0  0  0  0
M  END
>  <MODEL>
8

>  <REMARK>
 VINA RESULT:      -5.3      2.430      7.784
  Name = 
  12 active torsions:
  status: ('A' for Active; 'I' for Inactive)
    1  A    between atoms: C_2  and  C_42
    2  A    between atoms: N_6  and  C_16
    3  A    between atoms: C_8  and  C_44
    4  A    between atoms: N_9  and  C_25
    5  A    between atoms: C_10  and  N_19
    6  A    between atoms: C_10  and  C_29
    7  A    between atoms: O_14  and  C_31
    8  A    between atoms: C_15  and  C_25
    9  A    between atoms: N_19  and  C_20
   10  A    between atoms: C_20  and  C_42
   11  A    between atoms: N_23  and  C_29
   12  A    between atoms: C_29  and  C_37
                            x       y       z     vdW  Elec       q    Type
                         _______ _______ _______ _____ _____    ______ ____

>  <TORSDO>
F 12

$$$$
=
 OpenBabel10222419033D

 50 56  0  0  1  0  0  0  0  0999 V2000
  189.3820  177.7730  147.4250 C   0  0  0  0  0  3  0  0  0  0  0  0
  188.7220  177.2740  137.8480 C   0  0  1  0  0  3  0  0  0  0  0  0
  187.5860  178.8740  141.6240 C   0  0  2  0  0  3  0  0  0  0  0  0
  188.1930  180.2500  141.4070 C   0  0  0  0  0  1  0  0  0  0  0  0
  190.4420  176.3430  139.6770 S   0  0  0  0  0  0  0  0  0  0  0  0
  190.1960  177.2730  138.1900 C   0  0  2  0  0  3  0  0  0  0  0  0
  187.2400  178.7210  143.0410 N   0  0  1  0  0  0  0  0  0  0  0  0
  185.7930  178.7050  143.2330 C   0  0  2  0  0  3  0  0  0  0  0  0
  190.1680  177.2600  146.3950 C   0  0  0  0  0  0  0  0  0  0  0  0
  188.0710  178.1760  147.1720 C   0  0  0  0  0  3  0  0  0  0  0  0
  189.2480  177.5920  140.2540 C   0  0  0  0  0  0  0  0  0  0  0  0
  187.5050  178.0880  145.8880 C   0  0  0  0  0  0  0  0  0  0  0  0
  185.4330  178.8010  144.6510 N   0  0  0  0  0  0  0  0  0  0  0  0
  186.0740  178.5410  145.7670 C   0  0  0  0  0  0  0  0  0  0  0  0
  187.7740  177.4270  143.4670 C   0  0  2  0  0  3  0  0  0  0  0  0
  188.5950  177.8140  141.3880 C   0  0  0  0  0  0  0  0  0  0  0  0
  188.3100  177.5640  144.8450 C   0  0  0  0  0  0  0  0  0  0  0  0
  188.7410  177.0360  142.5090 O   0  0  0  0  0  0  0  0  0  0  0  0
  189.6260  177.1530  145.1110 C   0  0  0  0  0  3  0  0  0  0  0  0
  189.2830  178.2280  138.8800 C   0  0  2  0  0  3  0  0  0  0  0  0
  191.8530  175.5650  147.2380 C   0  0  0  0  0  1  0  0  0  0  0  0
  191.5120  176.8600  146.6700 N   0  0  0  0  0  2  0  0  0  0  0  0
  185.3840  178.7300  146.9710 O   0  0  0  0  0  0  0  0  0  0  0  0
  184.4740  177.7730  147.4920 C   0  0  0  0  0  1  0  0  0  0  0  0
  185.0860  177.5180  142.5570 C   0  0  0  0  0  2  0  0  0  0  0  0
  183.0630  178.5240  141.4060 C   0  0  0  0  0  0  0  0  0  0  0  0
  184.3730  177.9490  141.3630 N   0  0  0  0  0  2  0  0  0  0  0  0
  182.4130  178.5950  142.5240 N   0  0  0  0  0  2  0  0  0  0  0  0
  182.2190  180.2270  138.2470 C   0  0  0  0  0  2  0  0  0  0  0  0
  179.7730  180.2560  138.7090 C   0  0  0  0  0  1  0  0  0  0  0  0
  181.2850  178.6770  139.7680 N   0  0  0  0  0  0  0  0  0  0  0  0
  180.9840  179.3650  138.5200 C   0  0  2  0  0  3  0  0  0  0  0  0
  182.4540  179.0310  140.1710 C   0  0  0  0  0  0  0  0  0  0  0  0
  183.0750  179.9370  139.3370 O   0  0  0  0  0  0  0  0  0  0  0  0
  188.5190  178.0040  136.5340 C   0  0  0  0  0  2  0  0  0  0  0  0
  188.0710  177.0260  135.4600 C   0  0  0  0  0  2  0  0  0  0  0  0
  186.8690  177.5180  134.8070 N   0  0  0  0  0  2  0  0  0  0  0  0
  185.9460  176.3960  134.6950 C   0  0  0  0  0  2  0  0  0  0  0  0
  185.7670  175.7350  136.0520 C   0  0  2  0  0  3  0  0  0  0  0  0
  183.4470  169.8810  136.1140 C   0  0  0  0  0  1  0  0  0  0  0  0
  186.8980  173.5920  135.4480 C   0  0  0  0  0  3  0  0  0  0  0  0
  184.6120  172.1070  136.0250 C   0  0  0  0  0  0  0  0  0  0  0  0
  184.5990  173.5010  136.1930 C   0  0  0  0  0  3  0  0  0  0  0  0
  185.7510  171.5010  135.5800 N   0  0  0  0  0  0  0  0  0  0  0  0
  185.7510  174.2460  135.9070 C   0  0  0  0  0  0  0  0  0  0  0  0
  183.4420  171.3210  136.3170 N   0  0  0  0  0  0  0  0  0  0  0  0
  186.8790  172.2060  135.2910 C   0  0  0  0  0  3  0  0  0  0  0  0
  182.2190  171.9350  136.8160 C   0  0  0  0  0  1  0  0  0  0  0  0
  184.5380  176.1960  136.6810 N   0  0  0  0  0  2  0  0  0  0  0  0
  184.9080  177.1020  137.6820 N   0  0  0  0  0  1  0  0  0  0  0  0
  2 35  1  6  0  0  0
  2  6  1  0  0  0  0
  2 20  1  0  0  0  0
  3  4  1  1  0  0  0
  3  7  1  0  0  0  0
  5 11  1  0  0  0  0
  6 20  1  0  0  0  0
  6  5  1  1  0  0  0
  7  8  1  0  0  0  0
  7 15  1  0  0  0  0
  8 13  1  0  0  0  0
  9 22  1  0  0  0  0
  9  1  2  0  0  0  0
 10  1  1  0  0  0  0
 11 16  2  0  0  0  0
 12 10  2  0  0  0  0
 13 14  2  0  0  0  0
 14 12  1  0  0  0  0
 14 23  1  0  0  0  0
 15 17  1  0  0  0  0
 16  3  1  0  0  0  0
 16 18  1  0  0  0  0
 17 19  2  0  0  0  0
 17 12  1  0  0  0  0
 18 15  1  0  0  0  0
 19  9  1  0  0  0  0
 20 11  1  0  0  0  0
 22 21  1  0  0  0  0
 23 24  1  0  0  0  0
 25  8  1  0  0  0  0
 26 28  2  0  0  0  0
 27 26  1  0  0  0  0
 27 25  1  0  0  0  0
 29 32  1  0  0  0  0
 29 34  1  0  0  0  0
 31 33  2  0  0  0  0
 32 30  1  0  0  0  0
 32 31  1  0  0  0  0
 33 26  1  0  0  0  0
 34 33  1  0  0  0  0
 36 35  1  0  0  0  0
 37 36  1  0  0  0  0
 38 37  1  0  0  0  0
 38 39  1  0  0  0  0
 39 49  1  0  0  0  0
 40 46  1  0  0  0  0
 41 45  1  0  0  0  0
 42 43  1  0  0  0  0
 42 46  1  0  0  0  0
 44 42  2  0  0  0  0
 45 39  1  0  0  0  0
 45 43  2  0  0  0  0
 46 48  1  0  0  0  0
 47 41  2  0  0  0  0
 47 44  1  0  0  0  0
 49 50  1  0  0  0  0
M  END
>  <MODEL>
9

>  <REMARK>
 VINA RESULT:      -4.7      2.814      8.359
  Name = 
  12 active torsions:
  status: ('A' for Active; 'I' for Inactive)
    1  A    between atoms: C_2  and  C_42
    2  A    between atoms: N_6  and  C_16
    3  A    between atoms: C_8  and  C_44
    4  A    between atoms: N_9  and  C_25
    5  A    between atoms: C_10  and  N_19
    6  A    between atoms: C_10  and  C_29
    7  A    between atoms: O_14  and  C_31
    8  A    between atoms: C_15  and  C_25
    9  A    between atoms: N_19  and  C_20
   10  A    between atoms: C_20  and  C_42
   11  A    between atoms: N_23  and  C_29
   12  A    between atoms: C_29  and  C_37
                            x       y       z     vdW  Elec       q    Type
                         _______ _______ _______ _____ _____    ______ ____

>  <TORSDO>
F 12

$$$$
