=
 OpenBabel10222417383D

 30 33  0  0  1  0  0  0  0  0999 V2000
  189.4930  176.6820  142.1590 C   0  0  0  0  0  0  0  0  0  0  0  0
  188.1650  178.3960  141.0690 C   0  0  0  0  0  3  0  0  0  0  0  0
  188.4480  177.6340  142.2110 C   0  0  0  0  0  0  0  0  0  0  0  0
  189.9260  177.2750  139.8360 C   0  0  0  0  0  0  0  0  0  0  0  0
  188.8950  178.2180  139.8930 C   0  0  0  0  0  3  0  0  0  0  0  0
  190.2200  176.5140  140.9740 C   0  0  0  0  0  3  0  0  0  0  0  0
  185.4700  178.3230  142.2000 C   0  0  0  0  0  3  0  0  0  0  0  0
  185.5920  178.3010  144.5590 C   0  0  0  0  0  0  0  0  0  0  0  0
  186.1410  178.2060  145.7810 C   0  0  0  0  0  0  0  0  0  0  0  0
  184.2910  178.6020  144.6770 C   0  0  0  0  0  0  0  0  0  0  0  0
  183.5120  178.7800  143.5800 N   0  0  0  0  0  0  0  0  0  0  0  0
  188.2440  177.7370  144.7190 C   0  0  0  0  0  3  0  0  0  0  0  0
  183.9310  178.7160  146.0540 N   0  0  0  0  0  0  0  0  0  0  0  0
  184.0880  178.6420  142.3370 C   0  0  0  0  0  3  0  0  0  0  0  0
  187.4990  177.9180  145.9130 C   0  0  0  0  0  3  0  0  0  0  0  0
  186.2500  178.1450  143.3630 C   0  0  0  0  0  0  0  0  0  0  0  0
  187.6360  177.8510  143.4310 C   0  0  0  0  0  0  0  0  0  0  0  0
  185.0360  178.4790  146.7210 C   0  0  0  0  0  3  0  0  0  0  0  0
  190.6970  177.0890  138.5950 C   0  0  0  0  0  0  0  0  0  0  0  0
  191.9980  176.4920  138.6430 N   0  0  0  0  0  2  0  0  0  0  0  0
  190.2140  177.4590  137.4890 O   0  0  0  0  0  0  0  0  0  0  0  0
  192.7980  176.2530  137.4500 C   0  0  0  0  0  2  0  0  0  0  0  0
  193.0630  174.7660  137.2900 C   0  0  0  0  0  2  0  0  0  0  0  0
  195.2170  175.7000  136.8700 O   0  0  0  0  0  1  0  0  0  0  0  0
  194.5520  174.5080  137.1650 C   0  0  1  0  0  3  0  0  0  0  0  0
  195.0760  173.9540  138.4720 C   0  0  0  0  0  1  0  0  0  0  0  0
  189.8800  175.8610  143.3470 C   0  0  0  0  0  2  0  0  0  0  0  0
  191.3690  175.9960  143.6210 C   0  0  0  0  0  2  0  0  0  0  0  0
  191.6170  176.5560  146.0380 C   0  0  0  0  0  1  0  0  0  0  0  0
  191.6240  177.1070  144.6240 C   0  0  0  0  0  2  0  0  0  0  0  0
  1  3  1  0  0  0  0
  1 27  1  0  0  0  0
  2  3  2  0  0  0  0
  3 17  1  0  0  0  0
  4  5  2  0  0  0  0
  4  6  1  0  0  0  0
  5  2  1  0  0  0  0
  6  1  2  0  0  0  0
  7 14  2  0  0  0  0
  7 16  1  0  0  0  0
  8 10  1  0  0  0  0
  8  9  1  0  0  0  0
  9 15  2  0  0  0  0
  9 18  1  0  0  0  0
 10 13  1  0  0  0  0
 11 10  2  0  0  0  0
 12 15  1  0  0  0  0
 13 18  2  0  0  0  0
 14 11  1  0  0  0  0
 16 17  1  0  0  0  0
 16  8  2  0  0  0  0
 17 12  2  0  0  0  0
 19 20  1  0  0  0  0
 19  4  1  0  0  0  0
 21 19  2  0  0  0  0
 22 20  1  0  0  0  0
 23 22  1  0  0  0  0
 24 25  1  0  0  0  0
 25 23  1  0  0  0  0
 25 26  1  1  0  0  0
 27 28  1  0  0  0  0
 28 30  1  0  0  0  0
 30 29  1  0  0  0  0
M  END
>  <MODEL>
1

>  <REMARK>
 VINA RESULT:      -9.1      0.000      0.000
  Name = 
  8 active torsions:
  status: ('A' for Active; 'I' for Inactive)
    1  A    between atoms: C_2  and  C_4
    2  A    between atoms: C_2  and  C_21
    3  A    between atoms: C_3  and  C_9
    4  A    between atoms: C_3  and  C_19
    5  A    between atoms: C_4  and  N_27
    6  A    between atoms: C_11  and  C_19
    7  A    between atoms: C_16  and  C_18
    8  A    between atoms: C_17  and  C_29
                            x       y       z     vdW  Elec       q    Type
                         _______ _______ _______ _____ _____    ______ ____

>  <TORSDO>
F 8

$$$$
=
 OpenBabel10222417383D

 30 33  0  0  1  0  0  0  0  0999 V2000
  187.5710  178.3140  141.7560 C   0  0  0  0  0  0  0  0  0  0  0  0
  186.1870  177.7420  143.6660 C   0  0  0  0  0  3  0  0  0  0  0  0
  187.4590  177.8430  143.0850 C   0  0  0  0  0  0  0  0  0  0  0  0
  185.1490  178.5590  141.6330 C   0  0  0  0  0  0  0  0  0  0  0  0
  185.0440  178.0960  142.9480 C   0  0  0  0  0  3  0  0  0  0  0  0
  186.4170  178.6680  141.0460 C   0  0  0  0  0  3  0  0  0  0  0  0
  187.6100  177.9970  146.1340 C   0  0  0  0  0  3  0  0  0  0  0  0
  189.7830  177.0920  145.9400 C   0  0  0  0  0  0  0  0  0  0  0  0
  190.8930  176.6260  145.3460 C   0  0  0  0  0  0  0  0  0  0  0  0
  189.9620  177.1120  147.2680 C   0  0  0  0  0  0  0  0  0  0  0  0
  188.9910  177.5700  148.0980 N   0  0  0  0  0  0  0  0  0  0  0  0
  189.8060  176.9430  143.2280 C   0  0  0  0  0  3  0  0  0  0  0  0
  191.2650  176.6300  147.6000 N   0  0  0  0  0  0  0  0  0  0  0  0
  187.8110  178.0130  147.5450 C   0  0  0  0  0  3  0  0  0  0  0  0
  190.9520  176.5300  143.9560 C   0  0  0  0  0  3  0  0  0  0  0  0
  188.6420  177.5140  145.3020 C   0  0  0  0  0  0  0  0  0  0  0  0
  188.6400  177.4430  143.8850 C   0  0  0  0  0  0  0  0  0  0  0  0
  191.8280  176.3360  146.4510 C   0  0  0  0  0  3  0  0  0  0  0  0
  183.9430  178.9340  140.8750 C   0  0  0  0  0  0  0  0  0  0  0  0
  182.6650  178.4150  141.2610 N   0  0  0  0  0  2  0  0  0  0  0  0
  184.0350  179.7080  139.8830 O   0  0  0  0  0  0  0  0  0  0  0  0
  181.4320  178.7700  140.5730 C   0  0  0  0  0  2  0  0  0  0  0  0
  180.2690  178.7600  141.5490 C   0  0  0  0  0  2  0  0  0  0  0  0
  180.1160  180.6990  142.9290 O   0  0  0  0  0  1  0  0  0  0  0  0
  180.6730  179.4210  142.8530 C   0  0  1  0  0  3  0  0  0  0  0  0
  180.1730  178.5870  144.0130 C   0  0  0  0  0  1  0  0  0  0  0  0
  188.8940  178.4850  141.0830 C   0  0  0  0  0  2  0  0  0  0  0  0
  188.7390  178.3750  139.5740 C   0  0  0  0  0  2  0  0  0  0  0  0
  190.8600  177.0770  139.7450 C   0  0  0  0  0  1  0  0  0  0  0  0
  189.5160  177.1820  139.0480 C   0  0  0  0  0  2  0  0  0  0  0  0
  1  3  1  0  0  0  0
  3  2  2  0  0  0  0
  3 17  1  0  0  0  0
  4  5  2  0  0  0  0
  5  2  1  0  0  0  0
  6  4  1  0  0  0  0
  6  1  2  0  0  0  0
  7 14  2  0  0  0  0
  8 10  1  0  0  0  0
  9  8  1  0  0  0  0
  9 18  1  0  0  0  0
 10 13  1  0  0  0  0
 10 11  2  0  0  0  0
 12 17  2  0  0  0  0
 12 15  1  0  0  0  0
 14 11  1  0  0  0  0
 15  9  2  0  0  0  0
 16  8  2  0  0  0  0
 16  7  1  0  0  0  0
 17 16  1  0  0  0  0
 18 13  2  0  0  0  0
 19 20  1  0  0  0  0
 19  4  1  0  0  0  0
 21 19  2  0  0  0  0
 22 20  1  0  0  0  0
 22 23  1  0  0  0  0
 23 25  1  0  0  0  0
 25 24  1  0  0  0  0
 25 26  1  1  0  0  0
 27  1  1  0  0  0  0
 28 27  1  0  0  0  0
 30 28  1  0  0  0  0
 30 29  1  0  0  0  0
M  END
>  <MODEL>
2

>  <REMARK>
 VINA RESULT:      -9.0      3.750      7.983
  Name = 
  8 active torsions:
  status: ('A' for Active; 'I' for Inactive)
    1  A    between atoms: C_2  and  C_4
    2  A    between atoms: C_2  and  C_21
    3  A    between atoms: C_3  and  C_9
    4  A    between atoms: C_3  and  C_19
    5  A    between atoms: C_4  and  N_27
    6  A    between atoms: C_11  and  C_19
    7  A    between atoms: C_16  and  C_18
    8  A    between atoms: C_17  and  C_29
                            x       y       z     vdW  Elec       q    Type
                         _______ _______ _______ _____ _____    ______ ____

>  <TORSDO>
F 8

$$$$
=
 OpenBabel10222417383D

 30 33  0  0  1  0  0  0  0  0999 V2000
  183.9380  178.7250  143.1500 C   0  0  0  0  0  0  0  0  0  0  0  0
  186.2050  178.6900  142.2860 C   0  0  0  0  0  3  0  0  0  0  0  0
  185.3290  178.6130  143.3780 C   0  0  0  0  0  0  0  0  0  0  0  0
  184.3430  178.9940  140.7630 C   0  0  0  0  0  0  0  0  0  0  0  0
  185.7180  178.8790  140.9910 C   0  0  0  0  0  3  0  0  0  0  0  0
  183.4610  178.9120  141.8470 C   0  0  0  0  0  3  0  0  0  0  0  0
  188.0720  177.3870  143.9440 C   0  0  0  0  0  3  0  0  0  0  0  0
  187.6220  177.7670  146.2320 C   0  0  0  0  0  0  0  0  0  0  0  0
  186.9350  178.1360  147.3250 C   0  0  0  0  0  0  0  0  0  0  0  0
  188.8020  177.2490  146.6000 C   0  0  0  0  0  0  0  0  0  0  0  0
  189.6750  176.7740  145.6760 N   0  0  0  0  0  0  0  0  0  0  0  0
  185.1480  178.8320  145.8800 C   0  0  0  0  0  3  0  0  0  0  0  0
  188.9300  177.2680  148.0220 N   0  0  0  0  0  0  0  0  0  0  0  0
  189.3240  176.8380  144.3470 C   0  0  0  0  0  3  0  0  0  0  0  0
  185.6610  178.6880  147.1950 C   0  0  0  0  0  3  0  0  0  0  0  0
  187.1870  177.8710  144.9320 C   0  0  0  0  0  0  0  0  0  0  0  0
  185.8970  178.4240  144.7340 C   0  0  0  0  0  0  0  0  0  0  0  0
  187.8140  177.7990  148.4630 C   0  0  0  0  0  3  0  0  0  0  0  0
  183.8300  179.1930  139.3970 C   0  0  0  0  0  0  0  0  0  0  0  0
  182.8060  178.3330  138.8850 N   0  0  0  0  0  2  0  0  0  0  0  0
  184.2940  180.1180  138.6750 O   0  0  0  0  0  0  0  0  0  0  0  0
  182.2350  178.4940  137.5550 C   0  0  0  0  0  2  0  0  0  0  0  0
  180.9110  179.2330  137.6420 C   0  0  0  0  0  2  0  0  0  0  0  0
  180.2310  181.1740  136.4350 O   0  0  0  0  0  1  0  0  0  0  0  0
  181.1210  180.7170  137.4080 C   0  0  1  0  0  3  0  0  0  0  0  0
  180.8790  181.4670  138.7000 C   0  0  0  0  0  1  0  0  0  0  0  0
  182.9400  178.6130  144.2580 C   0  0  0  0  0  2  0  0  0  0  0  0
  181.6150  179.2320  143.8410 C   0  0  0  0  0  2  0  0  0  0  0  0
  179.1660  179.0540  144.2740 C   0  0  0  0  0  1  0  0  0  0  0  0
  180.4690  178.2860  144.1480 C   0  0  0  0  0  2  0  0  0  0  0  0
  1  3  1  0  0  0  0
  1 27  1  0  0  0  0
  2  3  2  0  0  0  0
  3 17  1  0  0  0  0
  4  5  2  0  0  0  0
  4  6  1  0  0  0  0
  5  2  1  0  0  0  0
  6  1  2  0  0  0  0
  7 14  2  0  0  0  0
  7 16  1  0  0  0  0
  8 10  1  0  0  0  0
  8  9  1  0  0  0  0
  9 18  1  0  0  0  0
 10 13  1  0  0  0  0
 11 10  2  0  0  0  0
 12 15  1  0  0  0  0
 13 18  2  0  0  0  0
 14 11  1  0  0  0  0
 15  9  2  0  0  0  0
 16  8  2  0  0  0  0
 17 16  1  0  0  0  0
 17 12  2  0  0  0  0
 19  4  1  0  0  0  0
 20 19  1  0  0  0  0
 21 19  2  0  0  0  0
 22 23  1  0  0  0  0
 22 20  1  0  0  0  0
 24 25  1  0  0  0  0
 25 23  1  0  0  0  0
 25 26  1  1  0  0  0
 28 30  1  0  0  0  0
 28 27  1  0  0  0  0
 30 29  1  0  0  0  0
M  END
>  <MODEL>
3

>  <REMARK>
 VINA RESULT:      -8.6      4.842      8.167
  Name = 
  8 active torsions:
  status: ('A' for Active; 'I' for Inactive)
    1  A    between atoms: C_2  and  C_4
    2  A    between atoms: C_2  and  C_21
    3  A    between atoms: C_3  and  C_9
    4  A    between atoms: C_3  and  C_19
    5  A    between atoms: C_4  and  N_27
    6  A    between atoms: C_11  and  C_19
    7  A    between atoms: C_16  and  C_18
    8  A    between atoms: C_17  and  C_29
                            x       y       z     vdW  Elec       q    Type
                         _______ _______ _______ _____ _____    ______ ____

>  <TORSDO>
F 8

$$$$
=
 OpenBabel10222417383D

 30 33  0  0  1  0  0  0  0  0999 V2000
  186.6820  178.5240  141.5140 C   0  0  0  0  0  0  0  0  0  0  0  0
  184.9460  178.0970  143.1540 C   0  0  0  0  0  3  0  0  0  0  0  0
  186.3070  178.1430  142.8230 C   0  0  0  0  0  0  0  0  0  0  0  0
  184.3360  178.7890  140.9120 C   0  0  0  0  0  0  0  0  0  0  0  0
  183.9700  178.4170  142.2090 C   0  0  0  0  0  3  0  0  0  0  0  0
  185.6940  178.8440  140.5740 C   0  0  0  0  0  3  0  0  0  0  0  0
  185.9830  178.7290  145.8060 C   0  0  0  0  0  3  0  0  0  0  0  0
  188.0670  177.6580  146.1070 C   0  0  0  0  0  0  0  0  0  0  0  0
  189.2100  177.0340  145.7780 C   0  0  0  0  0  0  0  0  0  0  0  0
  188.0340  177.8580  147.4320 C   0  0  0  0  0  0  0  0  0  0  0  0
  186.9890  178.4980  148.0160 N   0  0  0  0  0  0  0  0  0  0  0  0
  188.5080  177.1140  143.4830 C   0  0  0  0  0  3  0  0  0  0  0  0
  189.2170  177.3410  148.0420 N   0  0  0  0  0  0  0  0  0  0  0  0
  185.9580  178.9360  147.2160 C   0  0  0  0  0  3  0  0  0  0  0  0
  189.4810  176.7330  144.4440 C   0  0  0  0  0  3  0  0  0  0  0  0
  187.0860  178.0600  145.2330 C   0  0  0  0  0  0  0  0  0  0  0  0
  187.3040  177.7830  143.8590 C   0  0  0  0  0  0  0  0  0  0  0  0
  189.9260  176.8440  147.0560 C   0  0  0  0  0  3  0  0  0  0  0  0
  183.3060  179.1270  139.9150 C   0  0  0  0  0  0  0  0  0  0  0  0
  181.9190  179.0300  140.2560 N   0  0  0  0  0  2  0  0  0  0  0  0
  183.6450  179.4980  138.7570 O   0  0  0  0  0  0  0  0  0  0  0  0
  180.8540  179.3780  139.3270 C   0  0  0  0  0  2  0  0  0  0  0  0
  180.4100  180.8120  139.5550 C   0  0  0  0  0  2  0  0  0  0  0  0
  181.8950  182.2930  138.4200 O   0  0  0  0  0  1  0  0  0  0  0  0
  180.6640  181.6440  138.3130 C   0  0  1  0  0  3  0  0  0  0  0  0
  180.6780  180.7410  137.0990 C   0  0  0  0  0  1  0  0  0  0  0  0
  188.1140  178.6340  141.0980 C   0  0  0  0  0  2  0  0  0  0  0  0
  188.2890  178.1440  139.6690 C   0  0  0  0  0  2  0  0  0  0  0  0
  190.3840  177.0260  140.4270 C   0  0  0  0  0  1  0  0  0  0  0  0
  189.7580  177.9110  139.3660 C   0  0  0  0  0  2  0  0  0  0  0  0
  1  3  1  0  0  0  0
  3  2  2  0  0  0  0
  3 17  1  0  0  0  0
  4  5  2  0  0  0  0
  5  2  1  0  0  0  0
  6  4  1  0  0  0  0
  6  1  2  0  0  0  0
  7 14  2  0  0  0  0
  8 10  1  0  0  0  0
  9  8  1  0  0  0  0
  9 18  1  0  0  0  0
 10 11  2  0  0  0  0
 10 13  1  0  0  0  0
 12 17  2  0  0  0  0
 12 15  1  0  0  0  0
 14 11  1  0  0  0  0
 15  9  2  0  0  0  0
 16  7  1  0  0  0  0
 16  8  2  0  0  0  0
 17 16  1  0  0  0  0
 18 13  2  0  0  0  0
 19 20  1  0  0  0  0
 19  4  1  0  0  0  0
 21 19  2  0  0  0  0
 22 23  1  0  0  0  0
 22 20  1  0  0  0  0
 25 26  1  6  0  0  0
 25 24  1  0  0  0  0
 25 23  1  0  0  0  0
 27  1  1  0  0  0  0
 28 27  1  0  0  0  0
 30 28  1  0  0  0  0
 30 29  1  0  0  0  0
M  END
>  <MODEL>
4

>  <REMARK>
 VINA RESULT:      -8.5      3.942      7.579
  Name = 
  8 active torsions:
  status: ('A' for Active; 'I' for Inactive)
    1  A    between atoms: C_2  and  C_4
    2  A    between atoms: C_2  and  C_21
    3  A    between atoms: C_3  and  C_9
    4  A    between atoms: C_3  and  C_19
    5  A    between atoms: C_4  and  N_27
    6  A    between atoms: C_11  and  C_19
    7  A    between atoms: C_16  and  C_18
    8  A    between atoms: C_17  and  C_29
                            x       y       z     vdW  Elec       q    Type
                         _______ _______ _______ _____ _____    ______ ____

>  <TORSDO>
F 8

$$$$
=
 OpenBabel10222417383D

 30 33  0  0  1  0  0  0  0  0999 V2000
  187.2210  177.5700  143.1760 C   0  0  0  0  0  0  0  0  0  0  0  0
  186.7380  178.6370  141.0500 C   0  0  0  0  0  3  0  0  0  0  0  0
  186.3110  178.2410  142.3250 C   0  0  0  0  0  0  0  0  0  0  0  0
  188.9400  177.7070  141.4540 C   0  0  0  0  0  0  0  0  0  0  0  0
  188.0380  178.3730  140.6180 C   0  0  0  0  0  3  0  0  0  0  0  0
  188.5240  177.3120  142.7320 C   0  0  0  0  0  3  0  0  0  0  0  0
  183.8750  177.8850  140.5130 C   0  0  0  0  0  3  0  0  0  0  0  0
  182.5720  178.6060  142.3460 C   0  0  0  0  0  0  0  0  0  0  0  0
  182.2930  179.0630  143.5780 C   0  0  0  0  0  0  0  0  0  0  0  0
  181.4350  178.4870  141.6470 C   0  0  0  0  0  0  0  0  0  0  0  0
  181.4480  178.0670  140.3570 N   0  0  0  0  0  0  0  0  0  0  0  0
  184.6470  179.0120  144.0510 C   0  0  0  0  0  3  0  0  0  0  0  0
  180.3170  178.8810  142.4450 N   0  0  0  0  0  0  0  0  0  0  0  0
  182.6600  177.7610  139.7790 C   0  0  0  0  0  3  0  0  0  0  0  0
  183.3250  179.2860  144.4890 C   0  0  0  0  0  3  0  0  0  0  0  0
  183.8230  178.3250  141.8530 C   0  0  0  0  0  0  0  0  0  0  0  0
  184.9160  178.5330  142.7320 C   0  0  0  0  0  0  0  0  0  0  0  0
  180.8260  179.2270  143.6050 C   0  0  0  0  0  3  0  0  0  0  0  0
  190.3130  177.4290  140.9980 C   0  0  0  0  0  0  0  0  0  0  0  0
  190.5530  177.0490  139.6390 N   0  0  0  0  0  2  0  0  0  0  0  0
  191.2780  177.5210  141.8070 O   0  0  0  0  0  0  0  0  0  0  0  0
  191.8880  176.7900  139.1190 C   0  0  0  0  0  2  0  0  0  0  0  0
  191.8270  175.7360  138.0280 C   0  0  0  0  0  2  0  0  0  0  0  0
  193.8240  176.9100  137.4620 O   0  0  0  0  0  1  0  0  0  0  0  0
  193.1180  175.7290  137.2310 C   0  0  1  0  0  3  0  0  0  0  0  0
  193.9630  174.5490  137.6590 C   0  0  0  0  0  1  0  0  0  0  0  0
  186.8520  177.1520  144.5630 C   0  0  0  0  0  2  0  0  0  0  0  0
  187.9710  177.4940  145.5340 C   0  0  0  0  0  2  0  0  0  0  0  0
  186.2930  178.5080  147.0740 C   0  0  0  0  0  1  0  0  0  0  0  0
  187.4450  177.5260  146.9570 C   0  0  0  0  0  2  0  0  0  0  0  0
  1 27  1  0  0  0  0
  2  3  1  0  0  0  0
  3 17  1  0  0  0  0
  3  1  2  0  0  0  0
  4  6  2  0  0  0  0
  5  2  2  0  0  0  0
  5  4  1  0  0  0  0
  6  1  1  0  0  0  0
  7 16  1  0  0  0  0
  8  9  1  0  0  0  0
  9 18  1  0  0  0  0
  9 15  2  0  0  0  0
 10  8  1  0  0  0  0
 10 13  1  0  0  0  0
 11 10  2  0  0  0  0
 12 15  1  0  0  0  0
 13 18  2  0  0  0  0
 14 11  1  0  0  0  0
 14  7  2  0  0  0  0
 16  8  2  0  0  0  0
 16 17  1  0  0  0  0
 17 12  2  0  0  0  0
 19  4  1  0  0  0  0
 19 21  2  0  0  0  0
 20 19  1  0  0  0  0
 22 20  1  0  0  0  0
 23 22  1  0  0  0  0
 25 24  1  0  0  0  0
 25 26  1  1  0  0  0
 25 23  1  0  0  0  0
 27 28  1  0  0  0  0
 28 30  1  0  0  0  0
 30 29  1  0  0  0  0
M  END
>  <MODEL>
5

>  <REMARK>
 VINA RESULT:      -8.5      2.014      3.398
  Name = 
  8 active torsions:
  status: ('A' for Active; 'I' for Inactive)
    1  A    between atoms: C_2  and  C_4
    2  A    between atoms: C_2  and  C_21
    3  A    between atoms: C_3  and  C_9
    4  A    between atoms: C_3  and  C_19
    5  A    between atoms: C_4  and  N_27
    6  A    between atoms: C_11  and  C_19
    7  A    between atoms: C_16  and  C_18
    8  A    between atoms: C_17  and  C_29
                            x       y       z     vdW  Elec       q    Type
                         _______ _______ _______ _____ _____    ______ ____

>  <TORSDO>
F 8

$$$$
=
 OpenBabel10222417383D

 30 33  0  0  1  0  0  0  0  0999 V2000
  187.5860  178.3550  141.3750 C   0  0  0  0  0  0  0  0  0  0  0  0
  189.5090  176.9300  141.7760 C   0  0  0  0  0  3  0  0  0  0  0  0
  188.4000  177.6280  142.2740 C   0  0  0  0  0  0  0  0  0  0  0  0
  189.0130  177.6720  139.5220 C   0  0  0  0  0  0  0  0  0  0  0  0
  189.8130  176.9510  140.4140 C   0  0  0  0  0  3  0  0  0  0  0  0
  187.9000  178.3680  140.0100 C   0  0  0  0  0  3  0  0  0  0  0  0
  190.5500  177.3060  144.4240 C   0  0  0  0  0  3  0  0  0  0  0  0
  188.8020  177.4540  146.0060 C   0  0  0  0  0  0  0  0  0  0  0  0
  187.5480  177.5550  146.4770 C   0  0  0  0  0  0  0  0  0  0  0  0
  189.6550  177.3210  147.0320 C   0  0  0  0  0  0  0  0  0  0  0  0
  190.9870  177.1730  146.8190 N   0  0  0  0  0  0  0  0  0  0  0  0
  186.7850  177.7010  144.2050 C   0  0  0  0  0  3  0  0  0  0  0  0
  188.9450  177.3340  148.2710 N   0  0  0  0  0  0  0  0  0  0  0  0
  191.4470  177.1660  145.5220 C   0  0  0  0  0  3  0  0  0  0  0  0
  186.4800  177.6840  145.5910 C   0  0  0  0  0  3  0  0  0  0  0  0
  189.1710  177.4570  144.6820 C   0  0  0  0  0  0  0  0  0  0  0  0
  188.1270  177.5850  143.7300 C   0  0  0  0  0  0  0  0  0  0  0  0
  187.6810  177.4750  147.9450 C   0  0  0  0  0  3  0  0  0  0  0  0
  189.3340  177.6940  138.0840 C   0  0  0  0  0  0  0  0  0  0  0  0
  189.7640  176.4960  137.4280 N   0  0  0  0  0  2  0  0  0  0  0  0
  189.2340  178.7690  137.4310 O   0  0  0  0  0  0  0  0  0  0  0  0
  190.0670  176.4440  136.0050 C   0  0  0  0  0  2  0  0  0  0  0  0
  191.4740  175.9140  135.7910 C   0  0  0  0  0  2  0  0  0  0  0  0
  192.2810  174.1330  137.1560 O   0  0  0  0  0  1  0  0  0  0  0  0
  192.0920  175.5160  137.1170 C   0  0  1  0  0  3  0  0  0  0  0  0
  193.4290  176.2070  137.2740 C   0  0  0  0  0  1  0  0  0  0  0  0
  186.3650  179.0920  141.8250 C   0  0  0  0  0  2  0  0  0  0  0  0
  185.2300  178.8900  140.8340 C   0  0  0  0  0  2  0  0  0  0  0  0
  183.7300  178.7770  142.8220 C   0  0  0  0  0  1  0  0  0  0  0  0
  184.0830  178.1430  141.4890 C   0  0  0  0  0  2  0  0  0  0  0  0
  1 27  1  0  0  0  0
  1  3  1  0  0  0  0
  2  3  2  0  0  0  0
  3 17  1  0  0  0  0
  4  6  1  0  0  0  0
  4  5  2  0  0  0  0
  5  2  1  0  0  0  0
  6  1  2  0  0  0  0
  7 16  1  0  0  0  0
  7 14  2  0  0  0  0
  8  9  1  0  0  0  0
  8 10  1  0  0  0  0
  9 18  1  0  0  0  0
 10 13  1  0  0  0  0
 11 10  2  0  0  0  0
 12 15  1  0  0  0  0
 14 11  1  0  0  0  0
 15  9  2  0  0  0  0
 16  8  2  0  0  0  0
 17 12  2  0  0  0  0
 17 16  1  0  0  0  0
 18 13  2  0  0  0  0
 19  4  1  0  0  0  0
 20 19  1  0  0  0  0
 21 19  2  0  0  0  0
 22 20  1  0  0  0  0
 23 22  1  0  0  0  0
 23 25  1  0  0  0  0
 25 24  1  0  0  0  0
 25 26  1  6  0  0  0
 28 30  1  0  0  0  0
 28 27  1  0  0  0  0
 30 29  1  0  0  0  0
M  END
>  <MODEL>
6

>  <REMARK>
 VINA RESULT:      -8.5      2.230      4.395
  Name = 
  8 active torsions:
  status: ('A' for Active; 'I' for Inactive)
    1  A    between atoms: C_2  and  C_4
    2  A    between atoms: C_2  and  C_21
    3  A    between atoms: C_3  and  C_9
    4  A    between atoms: C_3  and  C_19
    5  A    between atoms: C_4  and  N_27
    6  A    between atoms: C_11  and  C_19
    7  A    between atoms: C_16  and  C_18
    8  A    between atoms: C_17  and  C_29
                            x       y       z     vdW  Elec       q    Type
                         _______ _______ _______ _____ _____    ______ ____

>  <TORSDO>
F 8

$$$$
=
 OpenBabel10222417383D

 30 33  0  0  1  0  0  0  0  0999 V2000
  184.1470  178.6630  143.0720 C   0  0  0  0  0  0  0  0  0  0  0  0
  186.4260  178.5400  142.2460 C   0  0  0  0  0  3  0  0  0  0  0  0
  185.5330  178.5370  143.3270 C   0  0  0  0  0  0  0  0  0  0  0  0
  184.5920  178.7980  140.6800 C   0  0  0  0  0  0  0  0  0  0  0  0
  185.9610  178.6690  140.9360 C   0  0  0  0  0  3  0  0  0  0  0  0
  183.6920  178.7890  141.7540 C   0  0  0  0  0  3  0  0  0  0  0  0
  188.2620  177.3320  143.9950 C   0  0  0  0  0  3  0  0  0  0  0  0
  187.7750  177.8190  146.2550 C   0  0  0  0  0  0  0  0  0  0  0  0
  187.0720  178.2400  147.3180 C   0  0  0  0  0  0  0  0  0  0  0  0
  188.9480  177.3160  146.6660 C   0  0  0  0  0  0  0  0  0  0  0  0
  189.8350  176.7970  145.7800 N   0  0  0  0  0  0  0  0  0  0  0  0
  185.3110  178.8720  145.8130 C   0  0  0  0  0  3  0  0  0  0  0  0
  189.0530  177.4000  148.0880 N   0  0  0  0  0  0  0  0  0  0  0  0
  189.5060  176.8000  144.4430 C   0  0  0  0  0  3  0  0  0  0  0  0
  185.8020  178.7880  147.1410 C   0  0  0  0  0  3  0  0  0  0  0  0
  187.3630  177.8630  144.9450 C   0  0  0  0  0  0  0  0  0  0  0  0
  186.0780  178.4100  144.6990 C   0  0  0  0  0  0  0  0  0  0  0  0
  187.9310  177.9540  148.4850 C   0  0  0  0  0  3  0  0  0  0  0  0
  184.1020  178.9330  139.2980 C   0  0  0  0  0  0  0  0  0  0  0  0
  183.6310  177.7820  138.5890 N   0  0  0  0  0  2  0  0  0  0  0  0
  184.1000  180.0630  138.7360 O   0  0  0  0  0  0  0  0  0  0  0  0
  183.1060  177.8530  137.2330 C   0  0  0  0  0  2  0  0  0  0  0  0
  184.0430  177.1410  136.2740 C   0  0  0  0  0  2  0  0  0  0  0  0
  185.5410  175.3790  136.8580 O   0  0  0  0  0  1  0  0  0  0  0  0
  185.3260  176.7520  136.9830 C   0  0  1  0  0  3  0  0  0  0  0  0
  186.4870  177.4980  136.3630 C   0  0  0  0  0  1  0  0  0  0  0  0
  183.1320  178.6280  144.1690 C   0  0  0  0  0  2  0  0  0  0  0  0
  181.8120  179.2080  143.6860 C   0  0  0  0  0  2  0  0  0  0  0  0
  179.4130  179.0060  144.3350 C   0  0  0  0  0  1  0  0  0  0  0  0
  180.6740  178.2440  143.9730 C   0  0  0  0  0  2  0  0  0  0  0  0
  1  3  1  0  0  0  0
  1 27  1  0  0  0  0
  2  3  2  0  0  0  0
  3 17  1  0  0  0  0
  4  5  2  0  0  0  0
  4  6  1  0  0  0  0
  5  2  1  0  0  0  0
  6  1  2  0  0  0  0
  7 14  2  0  0  0  0
  7 16  1  0  0  0  0
  8 10  1  0  0  0  0
  8  9  1  0  0  0  0
  9 18  1  0  0  0  0
 10 13  1  0  0  0  0
 11 10  2  0  0  0  0
 12 15  1  0  0  0  0
 13 18  2  0  0  0  0
 14 11  1  0  0  0  0
 15  9  2  0  0  0  0
 16  8  2  0  0  0  0
 17 16  1  0  0  0  0
 17 12  2  0  0  0  0
 19  4  1  0  0  0  0
 20 19  1  0  0  0  0
 21 19  2  0  0  0  0
 22 20  1  0  0  0  0
 23 25  1  0  0  0  0
 23 22  1  0  0  0  0
 24 25  1  0  0  0  0
 25 26  1  6  0  0  0
 28 30  1  0  0  0  0
 28 27  1  0  0  0  0
 30 29  1  0  0  0  0
M  END
>  <MODEL>
7

>  <REMARK>
 VINA RESULT:      -8.4      4.402      6.836
  Name = 
  8 active torsions:
  status: ('A' for Active; 'I' for Inactive)
    1  A    between atoms: C_2  and  C_4
    2  A    between atoms: C_2  and  C_21
    3  A    between atoms: C_3  and  C_9
    4  A    between atoms: C_3  and  C_19
    5  A    between atoms: C_4  and  N_27
    6  A    between atoms: C_11  and  C_19
    7  A    between atoms: C_16  and  C_18
    8  A    between atoms: C_17  and  C_29
                            x       y       z     vdW  Elec       q    Type
                         _______ _______ _______ _____ _____    ______ ____

>  <TORSDO>
F 8

$$$$
=
 OpenBabel10222417383D

 30 33  0  0  1  0  0  0  0  0999 V2000
  187.3550  177.7490  144.1040 C   0  0  0  0  0  0  0  0  0  0  0  0
  186.7370  178.6840  141.9520 C   0  0  0  0  0  3  0  0  0  0  0  0
  187.7050  178.0980  142.7790 C   0  0  0  0  0  0  0  0  0  0  0  0
  185.0970  178.5860  143.7350 C   0  0  0  0  0  0  0  0  0  0  0  0
  185.4460  178.9260  142.4240 C   0  0  0  0  0  3  0  0  0  0  0  0
  186.0570  177.9950  144.5660 C   0  0  0  0  0  3  0  0  0  0  0  0
  188.3040  177.4330  139.8560 C   0  0  0  0  0  3  0  0  0  0  0  0
  190.5870  177.4260  140.4630 C   0  0  0  0  0  0  0  0  0  0  0  0
  191.6690  177.5030  141.2550 C   0  0  0  0  0  0  0  0  0  0  0  0
  190.9690  177.1350  139.2120 C   0  0  0  0  0  0  0  0  0  0  0  0
  190.0550  176.9750  138.2210 N   0  0  0  0  0  0  0  0  0  0  0  0
  190.2000  177.9680  143.0960 C   0  0  0  0  0  3  0  0  0  0  0  0
  192.3900  177.0080  139.1440 N   0  0  0  0  0  0  0  0  0  0  0  0
  188.7210  177.1230  138.5290 C   0  0  0  0  0  3  0  0  0  0  0  0
  191.5210  177.7790  142.6130 C   0  0  0  0  0  3  0  0  0  0  0  0
  189.2820  177.5910  140.8610 C   0  0  0  0  0  0  0  0  0  0  0  0
  189.0650  177.8730  142.2340 C   0  0  0  0  0  0  0  0  0  0  0  0
  192.8160  177.2280  140.3660 C   0  0  0  0  0  3  0  0  0  0  0  0
  183.7340  178.8410  144.2330 C   0  0  0  0  0  0  0  0  0  0  0  0
  182.6380  178.9110  143.3150 N   0  0  0  0  0  2  0  0  0  0  0  0
  183.5330  179.0030  145.4680 O   0  0  0  0  0  0  0  0  0  0  0  0
  181.2640  179.1300  143.7460 C   0  0  0  0  0  2  0  0  0  0  0  0
  180.3000  178.5470  142.7280 C   0  0  0  0  0  2  0  0  0  0  0  0
  179.8340  180.8780  142.5280 O   0  0  0  0  0  1  0  0  0  0  0  0
  179.7080  179.6510  141.8730 C   0  0  1  0  0  3  0  0  0  0  0  0
  180.4440  179.7110  140.5530 C   0  0  0  0  0  1  0  0  0  0  0  0
  188.3210  177.0860  145.0330 C   0  0  0  0  0  2  0  0  0  0  0  0
  188.3410  177.8010  146.3750 C   0  0  0  0  0  2  0  0  0  0  0  0
  190.5900  176.7700  146.6790 C   0  0  0  0  0  1  0  0  0  0  0  0
  189.2620  177.0820  147.3430 C   0  0  0  0  0  2  0  0  0  0  0  0
  1  6  1  0  0  0  0
  1 27  1  0  0  0  0
  2  5  2  0  0  0  0
  2  3  1  0  0  0  0
  3  1  2  0  0  0  0
  4 19  1  0  0  0  0
  4  6  2  0  0  0  0
  5  4  1  0  0  0  0
  7 16  1  0  0  0  0
  8 16  2  0  0  0  0
  8  9  1  0  0  0  0
  9 15  2  0  0  0  0
 10  8  1  0  0  0  0
 11 14  1  0  0  0  0
 11 10  2  0  0  0  0
 13 10  1  0  0  0  0
 13 18  2  0  0  0  0
 14  7  2  0  0  0  0
 15 12  1  0  0  0  0
 16 17  1  0  0  0  0
 17  3  1  0  0  0  0
 17 12  2  0  0  0  0
 18  9  1  0  0  0  0
 19 21  2  0  0  0  0
 20 22  1  0  0  0  0
 20 19  1  0  0  0  0
 23 22  1  0  0  0  0
 25 26  1  6  0  0  0
 25 24  1  0  0  0  0
 25 23  1  0  0  0  0
 27 28  1  0  0  0  0
 28 30  1  0  0  0  0
 29 30  1  0  0  0  0
M  END
>  <MODEL>
8

>  <REMARK>
 VINA RESULT:      -8.4      3.831      8.631
  Name = 
  8 active torsions:
  status: ('A' for Active; 'I' for Inactive)
    1  A    between atoms: C_2  and  C_4
    2  A    between atoms: C_2  and  C_21
    3  A    between atoms: C_3  and  C_9
    4  A    between atoms: C_3  and  C_19
    5  A    between atoms: C_4  and  N_27
    6  A    between atoms: C_11  and  C_19
    7  A    between atoms: C_16  and  C_18
    8  A    between atoms: C_17  and  C_29
                            x       y       z     vdW  Elec       q    Type
                         _______ _______ _______ _____ _____    ______ ____

>  <TORSDO>
F 8

$$$$
=
 OpenBabel10222417383D

 30 33  0  0  1  0  0  0  0  0999 V2000
  189.2380  176.9350  141.8810 C   0  0  0  0  0  0  0  0  0  0  0  0
  188.5200  178.2370  139.9630 C   0  0  0  0  0  3  0  0  0  0  0  0
  189.4650  177.3920  140.5620 C   0  0  0  0  0  0  0  0  0  0  0  0
  187.1460  178.1830  141.9600 C   0  0  0  0  0  0  0  0  0  0  0  0
  187.3720  178.6290  140.6540 C   0  0  0  0  0  3  0  0  0  0  0  0
  188.0820  177.3340  142.5640 C   0  0  0  0  0  3  0  0  0  0  0  0
  189.4340  175.6400  138.0570 C   0  0  0  0  0  3  0  0  0  0  0  0
  191.7740  175.9520  137.9720 C   0  0  0  0  0  0  0  0  0  0  0  0
  192.9930  176.3740  138.3470 C   0  0  0  0  0  0  0  0  0  0  0  0
  191.8830  175.2000  136.8680 C   0  0  0  0  0  0  0  0  0  0  0  0
  190.7900  174.6290  136.3000 N   0  0  0  0  0  0  0  0  0  0  0  0
  191.9560  177.4830  140.2080 C   0  0  0  0  0  3  0  0  0  0  0  0
  193.2500  175.1040  136.4650 N   0  0  0  0  0  0  0  0  0  0  0  0
  189.5610  174.8420  136.8830 C   0  0  0  0  0  3  0  0  0  0  0  0
  193.1370  177.1620  139.4880 C   0  0  0  0  0  3  0  0  0  0  0  0
  190.5920  176.2170  138.6200 C   0  0  0  0  0  0  0  0  0  0  0  0
  190.6730  177.0150  139.7910 C   0  0  0  0  0  0  0  0  0  0  0  0
  193.9210  175.8070  137.3480 C   0  0  0  0  0  3  0  0  0  0  0  0
  185.9350  178.5960  142.6890 C   0  0  0  0  0  0  0  0  0  0  0  0
  185.7770  178.2520  144.0700 N   0  0  0  0  0  2  0  0  0  0  0  0
  185.0320  179.2500  142.0960 O   0  0  0  0  0  0  0  0  0  0  0  0
  184.6190  178.6550  144.8540 C   0  0  0  0  0  2  0  0  0  0  0  0
  184.8790  178.4140  146.3300 C   0  0  0  0  0  2  0  0  0  0  0  0
  186.0550  179.9550  147.7210 O   0  0  0  0  0  1  0  0  0  0  0  0
  186.2260  178.9890  146.7270 C   0  0  1  0  0  3  0  0  0  0  0  0
  187.1090  177.8800  147.2540 C   0  0  0  0  0  1  0  0  0  0  0  0
  190.1790  176.0020  142.5720 C   0  0  0  0  0  2  0  0  0  0  0  0
  190.6730  176.6150  143.8730 C   0  0  0  0  0  2  0  0  0  0  0  0
  191.0870  179.0710  143.9690 C   0  0  0  0  0  1  0  0  0  0  0  0
  191.6710  177.7230  143.5900 C   0  0  0  0  0  2  0  0  0  0  0  0
  1  6  1  0  0  0  0
  1 27  1  0  0  0  0
  2  3  1  0  0  0  0
  2  5  2  0  0  0  0
  3  1  2  0  0  0  0
  4  6  2  0  0  0  0
  4 19  1  0  0  0  0
  5  4  1  0  0  0  0
  7 16  1  0  0  0  0
  8  9  2  0  0  0  0
  8 16  1  0  0  0  0
  9 15  1  0  0  0  0
 10  8  1  0  0  0  0
 11 10  2  0  0  0  0
 11 14  1  0  0  0  0
 13 10  1  0  0  0  0
 13 18  2  0  0  0  0
 14  7  2  0  0  0  0
 15 12  2  0  0  0  0
 16 17  2  0  0  0  0
 17 12  1  0  0  0  0
 17  3  1  0  0  0  0
 18  9  1  0  0  0  0
 19 20  1  0  0  0  0
 20 22  1  0  0  0  0
 21 19  2  0  0  0  0
 22 23  1  0  0  0  0
 23 25  1  0  0  0  0
 25 26  1  1  0  0  0
 25 24  1  0  0  0  0
 27 28  1  0  0  0  0
 30 28  1  0  0  0  0
 30 29  1  0  0  0  0
M  END
>  <MODEL>
9

>  <REMARK>
 VINA RESULT:      -8.3      2.922      8.477
  Name = 
  8 active torsions:
  status: ('A' for Active; 'I' for Inactive)
    1  A    between atoms: C_2  and  C_4
    2  A    between atoms: C_2  and  C_21
    3  A    between atoms: C_3  and  C_9
    4  A    between atoms: C_3  and  C_19
    5  A    between atoms: C_4  and  N_27
    6  A    between atoms: C_11  and  C_19
    7  A    between atoms: C_16  and  C_18
    8  A    between atoms: C_17  and  C_29
                            x       y       z     vdW  Elec       q    Type
                         _______ _______ _______ _____ _____    ______ ____

>  <TORSDO>
F 8

$$$$
