=
 OpenBabel10222420443D

 39 43  0  0  1  0  0  0  0  0999 V2000
  189.1730  178.0640  141.0890 C   0  0  1  0  0  3  0  0  0  0  0  0
  191.0970  177.4360  142.4800 N   0  0  0  0  0  2  0  0  0  0  0  0
  188.1770  177.1800  141.8290 C   0  0  0  0  0  2  0  0  0  0  0  0
  190.5710  177.4520  141.1210 C   0  0  0  0  0  2  0  0  0  0  0  0
  190.6340  176.2010  143.0990 C   0  0  0  0  0  2  0  0  0  0  0  0
  189.3840  176.4360  143.9560 C   0  0  2  0  0  3  0  0  0  0  0  0
  188.3330  177.3710  143.3350 C   0  0  2  0  0  3  0  0  0  0  0  0
  191.0620  177.2540  147.1400 N   0  0  0  0  0  0  0  0  0  0  0  0
  190.9800  176.6990  145.8380 C   0  0  0  0  0  3  0  0  0  0  0  0
  188.8420  177.5930  146.3100 C   0  0  1  0  0  3  0  0  0  0  0  0
  189.7830  177.7740  147.4470 C   0  0  0  0  0  0  0  0  0  0  0  0
  189.4950  178.3180  148.5460 O   0  0  0  0  0  0  0  0  0  0  0  0
  189.7600  176.8880  145.3360 C   0  0  0  0  0  0  0  0  0  0  0  0
  187.7060  176.6750  146.7320 C   0  0  0  0  0  1  0  0  0  0  0  0
  192.0500  177.0080  148.0350 O   0  0  0  0  0  0  0  0  0  0  0  0
  192.4380  175.6880  147.7960 C   0  0  0  0  0  1  0  0  0  0  0  0
  188.7110  178.2290  139.6510 C   0  0  0  0  0  2  0  0  0  0  0  0
  189.1600  177.4520  136.4200 C   0  0  0  0  0  0  0  0  0  0  0  0
  189.3380  177.8510  135.2400 O   0  0  0  0  0  0  0  0  0  0  0  0
  189.4770  177.2990  138.7220 C   0  0  1  0  0  3  0  0  0  0  0  0
  188.5870  176.1280  138.2750 C   0  0  0  0  0  2  0  0  0  0  0  0
  188.2680  176.3260  136.7920 C   0  0  1  0  0  3  0  0  0  0  0  0
  189.8450  178.0180  137.5160 N   0  0  0  0  0  2  0  0  0  0  0  0
  186.7740  176.6470  136.6340 C   0  0  1  0  0  3  0  0  0  0  0  0
  185.9470  175.6890  137.2310 O   0  0  0  0  0  1  0  0  0  0  0  0
  185.3740  178.0880  138.1820 C   0  0  0  0  0  1  0  0  0  0  0  0
  186.4100  178.0640  137.0710 C   0  0  0  0  0  2  0  0  0  0  0  0
  187.0500  177.1680  143.9910 N   0  0  0  0  0  2  0  0  0  0  0  0
  184.3870  179.5600  144.4830 C   0  0  0  0  0  3  0  0  0  0  0  0
  185.3460  178.7960  144.9850 C   0  0  0  0  0  3  0  0  0  0  0  0
  185.9770  178.1040  143.8750 C   0  0  0  0  0  0  0  0  0  0  0  0
  184.3330  179.4160  142.9910 C   0  0  1  0  0  3  0  0  0  0  0  0
  185.4220  178.4280  142.7230 C   0  0  0  0  0  3  0  0  0  0  0  0
  183.0080  178.8800  142.5490 C   0  0  0  0  0  0  0  0  0  0  0  0
  181.8570  179.1170  143.3590 N   0  0  0  0  0  2  0  0  0  0  0  0
  182.9050  178.2360  141.4680 O   0  0  0  0  0  0  0  0  0  0  0  0
  179.7180  178.4120  144.2420 C   0  0  0  0  0  2  0  0  0  0  0  0
  180.5410  178.6240  142.9890 C   0  0  0  0  0  3  0  0  0  0  0  0
  179.4960  179.6440  143.3930 C   0  0  0  0  0  2  0  0  0  0  0  0
  1 17  1  6  0  0  0
  1  4  1  0  0  0  0
  1  3  1  0  0  0  0
  2  5  1  0  0  0  0
  3  7  1  0  0  0  0
  4  2  1  0  0  0  0
  5  6  1  0  0  0  0
  6 13  1  1  0  0  0
  7  6  1  0  0  0  0
  7 28  1  1  0  0  0
  8 11  1  0  0  0  0
  8 15  1  0  0  0  0
  9  8  1  0  0  0  0
 10 14  1  1  0  0  0
 10 11  1  0  0  0  0
 11 12  2  0  0  0  0
 13  9  2  0  0  0  0
 13 10  1  0  0  0  0
 16 15  1  0  0  0  0
 18 22  1  0  0  0  0
 18 23  1  0  0  0  0
 19 18  2  0  0  0  0
 20 17  1  1  0  0  0
 21 20  1  0  0  0  0
 22 24  1  1  0  0  0
 22 21  1  0  0  0  0
 23 20  1  0  0  0  0
 24 27  1  0  0  0  0
 24 25  1  1  0  0  0
 27 26  1  0  0  0  0
 29 30  2  0  0  0  0
 31 28  1  0  0  0  0
 31 30  1  0  0  0  0
 32 34  1  1  0  0  0
 32 29  1  0  0  0  0
 33 32  1  0  0  0  0
 33 31  2  0  0  0  0
 34 35  1  0  0  0  0
 36 34  2  0  0  0  0
 38 35  1  0  0  0  0
 38 39  1  0  0  0  0
 38 37  1  0  0  0  0
 39 37  1  0  0  0  0
M  END
>  <MODEL>
1

>  <REMARK>
 VINA RESULT:      -8.7      0.000      0.000
  Name = 
  10 active torsions:
  status: ('A' for Active; 'I' for Inactive)
    1  A    between atoms: N_1  and  O_6
    2  A    between atoms: C_2  and  C_24
    3  A    between atoms: C_5  and  C_23
    4  A    between atoms: C_7  and  N_33
    5  A    between atoms: C_12  and  C_27
    6  A    between atoms: C_12  and  C_37
    7  A    between atoms: C_13  and  C_24
    8  A    between atoms: C_19  and  N_32
    9  A    between atoms: C_28  and  C_36
   10  A    between atoms: C_30  and  N_32
                            x       y       z     vdW  Elec       q    Type
                         _______ _______ _______ _____ _____    ______ ____

>  <TORSDO>
F 10

$$$$
=
 OpenBabel10222420443D

 39 43  0  0  1  0  0  0  0  0999 V2000
  188.9420  178.2100  140.8430 C   0  0  1  0  0  3  0  0  0  0  0  0
  189.3070  177.0270  142.9650 N   0  0  0  0  0  2  0  0  0  0  0  0
  187.4220  178.1370  140.9080 C   0  0  0  0  0  2  0  0  0  0  0  0
  189.5740  177.0030  141.5330 C   0  0  0  0  0  2  0  0  0  0  0  0
  188.0250  176.3670  143.1690 C   0  0  0  0  0  2  0  0  0  0  0  0
  186.8820  177.3830  143.2900 C   0  0  2  0  0  3  0  0  0  0  0  0
  186.9410  178.5530  142.2950 C   0  0  2  0  0  3  0  0  0  0  0  0
  187.2070  178.0810  146.8990 N   0  0  0  0  0  0  0  0  0  0  0  0
  187.5180  177.4130  145.6880 C   0  0  0  0  0  3  0  0  0  0  0  0
  185.7820  178.9350  145.1750 C   0  0  1  0  0  3  0  0  0  0  0  0
  186.1530  178.9810  146.6140 C   0  0  0  0  0  0  0  0  0  0  0  0
  185.6120  179.7190  147.4790 O   0  0  0  0  0  0  0  0  0  0  0  0
  186.7560  177.8790  144.7000 C   0  0  0  0  0  0  0  0  0  0  0  0
  184.3510  178.4440  145.0360 C   0  0  0  0  0  1  0  0  0  0  0  0
  187.5870  177.6770  148.1360 O   0  0  0  0  0  0  0  0  0  0  0  0
  188.9630  177.9100  148.1890 C   0  0  0  0  0  1  0  0  0  0  0  0
  189.3720  178.2590  139.3860 C   0  0  0  0  0  2  0  0  0  0  0  0
  190.2080  176.5800  136.6080 C   0  0  0  0  0  0  0  0  0  0  0  0
  190.9570  176.4850  135.6000 O   0  0  0  0  0  0  0  0  0  0  0  0
  189.6130  176.8580  138.8420 C   0  0  1  0  0  3  0  0  0  0  0  0
  188.3800  176.3610  138.0690 C   0  0  0  0  0  2  0  0  0  0  0  0
  188.7460  176.3240  136.5840 C   0  0  1  0  0  3  0  0  0  0  0  0
  190.7070  176.8940  137.8890 N   0  0  0  0  0  2  0  0  0  0  0  0
  187.9460  177.4030  135.8390 C   0  0  1  0  0  3  0  0  0  0  0  0
  187.4770  176.9680  134.5940 O   0  0  0  0  0  1  0  0  0  0  0  0
  185.5330  177.2380  136.6020 C   0  0  0  0  0  1  0  0  0  0  0  0
  186.8320  178.0200  136.6810 C   0  0  0  0  0  2  0  0  0  0  0  0
  185.6300  179.1750  142.1930 N   0  0  0  0  0  2  0  0  0  0  0  0
  183.5270  178.7250  139.2890 C   0  0  0  0  0  3  0  0  0  0  0  0
  184.5350  179.3430  139.8880 C   0  0  0  0  0  3  0  0  0  0  0  0
  184.6670  178.7720  141.2170 C   0  0  0  0  0  0  0  0  0  0  0  0
  182.9310  177.6950  140.2030 C   0  0  1  0  0  3  0  0  0  0  0  0
  183.7660  177.8340  141.4340 C   0  0  0  0  0  3  0  0  0  0  0  0
  181.4950  178.0000  140.4960 C   0  0  0  0  0  0  0  0  0  0  0  0
  181.1520  178.5860  141.7520 N   0  0  0  0  0  2  0  0  0  0  0  0
  180.6000  177.7540  139.6410 O   0  0  0  0  0  0  0  0  0  0  0  0
  179.7450  179.5160  143.4860 C   0  0  0  0  0  2  0  0  0  0  0  0
  179.7770  178.9060  142.1000 C   0  0  0  0  0  3  0  0  0  0  0  0
  179.6440  180.4060  142.2660 C   0  0  0  0  0  2  0  0  0  0  0  0
  1 17  1  6  0  0  0
  1  3  1  0  0  0  0
  1  4  1  0  0  0  0
  2  5  1  0  0  0  0
  3  7  1  0  0  0  0
  4  2  1  0  0  0  0
  5  6  1  0  0  0  0
  6 13  1  1  0  0  0
  7 28  1  6  0  0  0
  7  6  1  0  0  0  0
  8 15  1  0  0  0  0
  9  8  1  0  0  0  0
 10 14  1  1  0  0  0
 10 11  1  0  0  0  0
 11  8  1  0  0  0  0
 11 12  2  0  0  0  0
 13 10  1  0  0  0  0
 13  9  2  0  0  0  0
 15 16  1  0  0  0  0
 18 23  1  0  0  0  0
 19 18  2  0  0  0  0
 20 17  1  6  0  0  0
 21 20  1  0  0  0  0
 22 24  1  6  0  0  0
 22 18  1  0  0  0  0
 22 21  1  0  0  0  0
 23 20  1  0  0  0  0
 24 25  1  6  0  0  0
 24 27  1  0  0  0  0
 26 27  1  0  0  0  0
 29 30  2  0  0  0  0
 29 32  1  0  0  0  0
 30 31  1  0  0  0  0
 31 33  2  0  0  0  0
 31 28  1  0  0  0  0
 32 34  1  1  0  0  0
 32 33  1  0  0  0  0
 34 35  1  0  0  0  0
 35 38  1  0  0  0  0
 36 34  2  0  0  0  0
 38 39  1  0  0  0  0
 38 37  1  0  0  0  0
 39 37  1  0  0  0  0
M  END
>  <MODEL>
2

>  <REMARK>
 VINA RESULT:      -8.6      1.985      2.812
  Name = 
  10 active torsions:
  status: ('A' for Active; 'I' for Inactive)
    1  A    between atoms: N_1  and  O_6
    2  A    between atoms: C_2  and  C_24
    3  A    between atoms: C_5  and  C_23
    4  A    between atoms: C_7  and  N_33
    5  A    between atoms: C_12  and  C_27
    6  A    between atoms: C_12  and  C_37
    7  A    between atoms: C_13  and  C_24
    8  A    between atoms: C_19  and  N_32
    9  A    between atoms: C_28  and  C_36
   10  A    between atoms: C_30  and  N_32
                            x       y       z     vdW  Elec       q    Type
                         _______ _______ _______ _____ _____    ______ ____

>  <TORSDO>
F 10

$$$$
=
 OpenBabel10222420443D

 39 43  0  0  1  0  0  0  0  0999 V2000
  188.4300  177.6240  141.4710 C   0  0  1  0  0  3  0  0  0  0  0  0
  190.4800  176.4560  140.7870 N   0  0  0  0  0  2  0  0  0  0  0  0
  188.3130  178.4500  140.1970 C   0  0  0  0  0  2  0  0  0  0  0  0
  189.8930  177.3290  141.7950 C   0  0  0  0  0  2  0  0  0  0  0  0
  190.9760  177.3150  139.7210 C   0  0  0  0  0  2  0  0  0  0  0  0
  189.9770  177.4070  138.5610 C   0  0  2  0  0  3  0  0  0  0  0  0
  188.5050  177.5520  138.9780 C   0  0  2  0  0  3  0  0  0  0  0  0
  189.7830  174.2600  136.6430 N   0  0  0  0  0  0  0  0  0  0  0  0
  189.4220  175.1540  137.6820 C   0  0  0  0  0  3  0  0  0  0  0  0
  191.1630  176.2090  136.4790 C   0  0  1  0  0  3  0  0  0  0  0  0
  190.8410  174.8670  135.9260 C   0  0  0  0  0  0  0  0  0  0  0  0
  191.4220  174.3280  134.9480 O   0  0  0  0  0  0  0  0  0  0  0  0
  190.1580  176.2620  137.6090 C   0  0  0  0  0  0  0  0  0  0  0  0
  192.5820  176.2050  137.0270 C   0  0  0  0  0  1  0  0  0  0  0  0
  189.4380  172.9510  136.5810 O   0  0  0  0  0  0  0  0  0  0  0  0
  188.0620  172.9250  136.8210 C   0  0  0  0  0  1  0  0  0  0  0  0
  187.7890  178.3910  142.6160 C   0  0  0  0  0  2  0  0  0  0  0  0
  185.5320  178.4380  145.0950 C   0  0  0  0  0  0  0  0  0  0  0  0
  184.6860  179.0930  145.7580 O   0  0  0  0  0  0  0  0  0  0  0  0
  186.6360  177.6040  143.2220 C   0  0  1  0  0  3  0  0  0  0  0  0
  187.1090  176.8170  144.4550 C   0  0  0  0  0  2  0  0  0  0  0  0
  186.4880  177.4720  145.6900 C   0  0  1  0  0  3  0  0  0  0  0  0
  185.6180  178.5260  143.6900 N   0  0  0  0  0  2  0  0  0  0  0  0
  187.5960  178.1360  146.5210 C   0  0  1  0  0  3  0  0  0  0  0  0
  187.3470  178.0870  147.8980 O   0  0  0  0  0  1  0  0  0  0  0  0
  189.6070  176.7970  147.2920 C   0  0  0  0  0  1  0  0  0  0  0  0
  188.9960  177.6300  146.1790 C   0  0  0  0  0  2  0  0  0  0  0  0
  187.7290  178.0690  137.8600 N   0  0  0  0  0  2  0  0  0  0  0  0
  184.1390  177.6750  137.7580 C   0  0  0  0  0  3  0  0  0  0  0  0
  185.2060  178.3300  138.1900 C   0  0  0  0  0  3  0  0  0  0  0  0
  186.3750  177.6780  137.6260 C   0  0  0  0  0  0  0  0  0  0  0  0
  184.5490  176.5380  136.8700 C   0  0  1  0  0  3  0  0  0  0  0  0
  186.0400  176.6490  136.8730 C   0  0  0  0  0  3  0  0  0  0  0  0
  184.1120  175.2240  137.4380 C   0  0  0  0  0  0  0  0  0  0  0  0
  184.6430  174.0180  136.8880 N   0  0  0  0  0  2  0  0  0  0  0  0
  183.2940  175.1810  138.3980 O   0  0  0  0  0  0  0  0  0  0  0  0
  183.0550  172.2140  136.6200 C   0  0  0  0  0  2  0  0  0  0  0  0
  184.2590  172.7100  137.3920 C   0  0  0  0  0  3  0  0  0  0  0  0
  184.4330  171.6840  136.2910 C   0  0  0  0  0  2  0  0  0  0  0  0
  1  4  1  0  0  0  0
  1 17  1  1  0  0  0
  2  4  1  0  0  0  0
  3  1  1  0  0  0  0
  5  2  1  0  0  0  0
  6 13  1  1  0  0  0
  6  7  1  0  0  0  0
  6  5  1  0  0  0  0
  7 28  1  6  0  0  0
  7  3  1  0  0  0  0
  8  9  1  0  0  0  0
 10 14  1  1  0  0  0
 10 13  1  0  0  0  0
 11 10  1  0  0  0  0
 11  8  1  0  0  0  0
 12 11  2  0  0  0  0
 13  9  2  0  0  0  0
 15  8  1  0  0  0  0
 15 16  1  0  0  0  0
 18 22  1  0  0  0  0
 18 19  2  0  0  0  0
 20 17  1  1  0  0  0
 20 23  1  0  0  0  0
 20 21  1  0  0  0  0
 21 22  1  0  0  0  0
 22 24  1  6  0  0  0
 23 18  1  0  0  0  0
 24 25  1  1  0  0  0
 27 24  1  0  0  0  0
 27 26  1  0  0  0  0
 29 30  2  0  0  0  0
 31 28  1  0  0  0  0
 31 30  1  0  0  0  0
 32 33  1  0  0  0  0
 32 34  1  1  0  0  0
 32 29  1  0  0  0  0
 33 31  2  0  0  0  0
 34 36  2  0  0  0  0
 35 38  1  0  0  0  0
 35 34  1  0  0  0  0
 37 38  1  0  0  0  0
 39 37  1  0  0  0  0
 39 38  1  0  0  0  0
M  END
>  <MODEL>
3

>  <REMARK>
 VINA RESULT:      -8.6      2.845      8.428
  Name = 
  10 active torsions:
  status: ('A' for Active; 'I' for Inactive)
    1  A    between atoms: N_1  and  O_6
    2  A    between atoms: C_2  and  C_24
    3  A    between atoms: C_5  and  C_23
    4  A    between atoms: C_7  and  N_33
    5  A    between atoms: C_12  and  C_27
    6  A    between atoms: C_12  and  C_37
    7  A    between atoms: C_13  and  C_24
    8  A    between atoms: C_19  and  N_32
    9  A    between atoms: C_28  and  C_36
   10  A    between atoms: C_30  and  N_32
                            x       y       z     vdW  Elec       q    Type
                         _______ _______ _______ _____ _____    ______ ____

>  <TORSDO>
F 10

$$$$
=
 OpenBabel10222420443D

 39 43  0  0  1  0  0  0  0  0999 V2000
  188.6270  177.5960  139.1770 C   0  0  1  0  0  3  0  0  0  0  0  0
  187.0110  176.8040  137.5050 N   0  0  0  0  0  2  0  0  0  0  0  0
  187.8100  178.8150  139.5880 C   0  0  0  0  0  2  0  0  0  0  0  0
  188.3830  177.2480  137.7100 C   0  0  0  0  0  2  0  0  0  0  0  0
  186.2090  177.9970  137.2680 C   0  0  0  0  0  2  0  0  0  0  0  0
  185.5020  178.4630  138.5470 C   0  0  2  0  0  3  0  0  0  0  0  0
  186.3580  178.4100  139.8230 C   0  0  2  0  0  3  0  0  0  0  0  0
  182.6870  176.0760  138.5550 N   0  0  0  0  0  0  0  0  0  0  0  0
  183.9730  176.5430  138.1830 C   0  0  0  0  0  3  0  0  0  0  0  0
  183.0290  178.2280  139.5480 C   0  0  1  0  0  3  0  0  0  0  0  0
  182.0990  177.0830  139.3550 C   0  0  0  0  0  0  0  0  0  0  0  0
  180.9380  177.0040  139.8350 O   0  0  0  0  0  0  0  0  0  0  0  0
  184.2060  177.7320  138.7360 C   0  0  0  0  0  0  0  0  0  0  0  0
  182.4340  179.4770  138.9190 C   0  0  0  0  0  1  0  0  0  0  0  0
  182.0270  175.0490  137.9660 O   0  0  0  0  0  0  0  0  0  0  0  0
  183.0120  174.3140  137.3030 C   0  0  0  0  0  1  0  0  0  0  0  0
  190.1010  177.8930  139.4020 C   0  0  0  0  0  2  0  0  0  0  0  0
  190.0960  176.1960  142.2930 C   0  0  0  0  0  0  0  0  0  0  0  0
  189.4300  175.6300  143.2000 O   0  0  0  0  0  0  0  0  0  0  0  0
  190.7810  176.7470  140.1370 C   0  0  1  0  0  3  0  0  0  0  0  0
  191.8230  177.2860  141.1310 C   0  0  0  0  0  2  0  0  0  0  0  0
  191.2860  177.0460  142.5430 C   0  0  1  0  0  3  0  0  0  0  0  0
  189.7960  176.0290  140.9250 N   0  0  0  0  0  2  0  0  0  0  0  0
  190.9510  178.3970  143.1930 C   0  0  1  0  0  3  0  0  0  0  0  0
  189.6250  178.7910  142.9770 O   0  0  0  0  0  1  0  0  0  0  0  0
  191.7390  177.1190  145.2380 C   0  0  0  0  0  1  0  0  0  0  0  0
  191.3300  178.4680  144.6710 C   0  0  0  0  0  2  0  0  0  0  0  0
  185.7690  179.2650  140.8420 N   0  0  0  0  0  2  0  0  0  0  0  0
  184.2560  178.4530  144.0220 C   0  0  0  0  0  3  0  0  0  0  0  0
  184.1900  179.0570  142.8440 C   0  0  0  0  0  3  0  0  0  0  0  0
  185.4320  178.7800  142.1440 C   0  0  0  0  0  0  0  0  0  0  0  0
  185.5630  177.7310  144.1650 C   0  0  1  0  0  3  0  0  0  0  0  0
  186.2410  178.0330  142.8680 C   0  0  0  0  0  3  0  0  0  0  0  0
  186.3530  178.2690  145.3170 C   0  0  0  0  0  0  0  0  0  0  0  0
  187.5890  177.6450  145.6630 N   0  0  0  0  0  2  0  0  0  0  0  0
  185.9380  179.2680  145.9680 O   0  0  0  0  0  0  0  0  0  0  0  0
  187.7940  177.6420  148.0730 C   0  0  0  0  0  2  0  0  0  0  0  0
  188.4040  178.1160  146.7710 C   0  0  0  0  0  3  0  0  0  0  0  0
  188.9930  176.9240  147.4950 C   0  0  0  0  0  2  0  0  0  0  0  0
  1 17  1  6  0  0  0
  1  3  1  0  0  0  0
  2  4  1  0  0  0  0
  3  7  1  0  0  0  0
  4  1  1  0  0  0  0
  5  2  1  0  0  0  0
  5  6  1  0  0  0  0
  6 13  1  1  0  0  0
  6  7  1  0  0  0  0
  7 28  1  1  0  0  0
  8 11  1  0  0  0  0
  9  8  1  0  0  0  0
  9 13  2  0  0  0  0
 10 14  1  6  0  0  0
 11 10  1  0  0  0  0
 11 12  2  0  0  0  0
 13 10  1  0  0  0  0
 15  8  1  0  0  0  0
 16 15  1  0  0  0  0
 18 22  1  0  0  0  0
 18 19  2  0  0  0  0
 20 17  1  1  0  0  0
 20 23  1  0  0  0  0
 20 21  1  0  0  0  0
 21 22  1  0  0  0  0
 22 24  1  6  0  0  0
 23 18  1  0  0  0  0
 24 25  1  1  0  0  0
 24 27  1  0  0  0  0
 27 26  1  0  0  0  0
 28 31  1  0  0  0  0
 29 32  1  0  0  0  0
 30 29  2  0  0  0  0
 31 30  1  0  0  0  0
 31 33  2  0  0  0  0
 32 34  1  1  0  0  0
 33 32  1  0  0  0  0
 34 35  1  0  0  0  0
 34 36  2  0  0  0  0
 35 38  1  0  0  0  0
 38 39  1  0  0  0  0
 38 37  1  0  0  0  0
 39 37  1  0  0  0  0
M  END
>  <MODEL>
4

>  <REMARK>
 VINA RESULT:      -8.5      2.787      7.608
  Name = 
  10 active torsions:
  status: ('A' for Active; 'I' for Inactive)
    1  A    between atoms: N_1  and  O_6
    2  A    between atoms: C_2  and  C_24
    3  A    between atoms: C_5  and  C_23
    4  A    between atoms: C_7  and  N_33
    5  A    between atoms: C_12  and  C_27
    6  A    between atoms: C_12  and  C_37
    7  A    between atoms: C_13  and  C_24
    8  A    between atoms: C_19  and  N_32
    9  A    between atoms: C_28  and  C_36
   10  A    between atoms: C_30  and  N_32
                            x       y       z     vdW  Elec       q    Type
                         _______ _______ _______ _____ _____    ______ ____

>  <TORSDO>
F 10

$$$$
=
 OpenBabel10222420443D

 39 43  0  0  1  0  0  0  0  0999 V2000
  189.3310  177.6990  141.1210 C   0  0  1  0  0  3  0  0  0  0  0  0
  189.3330  176.5340  143.2830 N   0  0  0  0  0  2  0  0  0  0  0  0
  187.8220  177.9030  141.0790 C   0  0  0  0  0  2  0  0  0  0  0  0
  189.6860  176.4190  141.8740 C   0  0  0  0  0  2  0  0  0  0  0  0
  187.9420  176.1210  143.4070 C   0  0  0  0  0  2  0  0  0  0  0  0
  186.9970  177.3290  143.4290 C   0  0  2  0  0  3  0  0  0  0  0  0
  187.3340  178.4400  142.4210 C   0  0  2  0  0  3  0  0  0  0  0  0
  187.3610  178.2230  146.9910 N   0  0  0  0  0  0  0  0  0  0  0  0
  187.6920  177.5240  145.8040 C   0  0  0  0  0  3  0  0  0  0  0  0
  185.8280  178.8800  145.2730 C   0  0  1  0  0  3  0  0  0  0  0  0
  186.2330  179.0240  146.6970 C   0  0  0  0  0  0  0  0  0  0  0  0
  185.6580  179.7590  147.5430 O   0  0  0  0  0  0  0  0  0  0  0  0
  186.8690  177.8810  144.8180 C   0  0  0  0  0  0  0  0  0  0  0  0
  184.4370  178.2730  145.2000 C   0  0  0  0  0  1  0  0  0  0  0  0
  187.8050  177.9100  148.2330 O   0  0  0  0  0  0  0  0  0  0  0  0
  189.1510  177.5780  148.0660 C   0  0  0  0  0  1  0  0  0  0  0  0
  189.8590  177.6270  139.6980 C   0  0  0  0  0  2  0  0  0  0  0  0
  192.5120  176.5110  137.9790 C   0  0  0  0  0  0  0  0  0  0  0  0
  193.6720  176.7300  137.5420 O   0  0  0  0  0  0  0  0  0  0  0  0
  190.7610  176.4160  139.5110 C   0  0  1  0  0  3  0  0  0  0  0  0
  190.3530  175.6270  138.2560 C   0  0  0  0  0  2  0  0  0  0  0  0
  191.4490  175.8220  137.2080 C   0  0  1  0  0  3  0  0  0  0  0  0
  192.1240  176.8610  139.2900 N   0  0  0  0  0  2  0  0  0  0  0  0
  190.8930  176.6580  136.0450 C   0  0  1  0  0  3  0  0  0  0  0  0
  191.3770  176.2440  134.7980 O   0  0  0  0  0  1  0  0  0  0  0  0
  188.8890  178.1860  136.3300 C   0  0  0  0  0  1  0  0  0  0  0  0
  189.3710  176.7720  136.0540 C   0  0  0  0  0  2  0  0  0  0  0  0
  186.1660  179.2840  142.2170 N   0  0  0  0  0  2  0  0  0  0  0  0
  183.0970  177.9790  140.8250 C   0  0  0  0  0  3  0  0  0  0  0  0
  183.8740  178.2010  141.8750 C   0  0  0  0  0  3  0  0  0  0  0  0
  185.0660  178.8800  141.3990 C   0  0  0  0  0  0  0  0  0  0  0  0
  183.7410  178.5100  139.5790 C   0  0  1  0  0  3  0  0  0  0  0  0
  185.0280  179.0680  140.0940 C   0  0  0  0  0  3  0  0  0  0  0  0
  183.9930  177.4130  138.5930 C   0  0  0  0  0  0  0  0  0  0  0  0
  185.0380  177.5690  137.6320 N   0  0  0  0  0  2  0  0  0  0  0  0
  183.3000  176.3590  138.6160 O   0  0  0  0  0  0  0  0  0  0  0  0
  184.2750  176.5750  135.5630 C   0  0  0  0  0  2  0  0  0  0  0  0
  185.3340  176.5440  136.6450 C   0  0  0  0  0  3  0  0  0  0  0  0
  185.6270  177.2060  135.3140 C   0  0  0  0  0  2  0  0  0  0  0  0
  1 17  1  6  0  0  0
  1  4  1  0  0  0  0
  2  5  1  0  0  0  0
  3  1  1  0  0  0  0
  3  7  1  0  0  0  0
  4  2  1  0  0  0  0
  5  6  1  0  0  0  0
  6 13  1  1  0  0  0
  7 28  1  6  0  0  0
  7  6  1  0  0  0  0
  8 15  1  0  0  0  0
  9  8  1  0  0  0  0
 10 14  1  1  0  0  0
 10 11  1  0  0  0  0
 11  8  1  0  0  0  0
 11 12  2  0  0  0  0
 13 10  1  0  0  0  0
 13  9  2  0  0  0  0
 16 15  1  0  0  0  0
 18 23  1  0  0  0  0
 19 18  2  0  0  0  0
 20 17  1  6  0  0  0
 21 20  1  0  0  0  0
 22 24  1  6  0  0  0
 22 18  1  0  0  0  0
 22 21  1  0  0  0  0
 23 20  1  0  0  0  0
 24 25  1  6  0  0  0
 24 27  1  0  0  0  0
 27 26  1  0  0  0  0
 29 30  2  0  0  0  0
 31 30  1  0  0  0  0
 31 28  1  0  0  0  0
 32 34  1  6  0  0  0
 32 33  1  0  0  0  0
 32 29  1  0  0  0  0
 33 31  2  0  0  0  0
 34 36  2  0  0  0  0
 35 34  1  0  0  0  0
 37 38  1  0  0  0  0
 38 35  1  0  0  0  0
 39 37  1  0  0  0  0
 39 38  1  0  0  0  0
M  END
>  <MODEL>
5

>  <REMARK>
 VINA RESULT:      -8.5      2.439      4.299
  Name = 
  10 active torsions:
  status: ('A' for Active; 'I' for Inactive)
    1  A    between atoms: N_1  and  O_6
    2  A    between atoms: C_2  and  C_24
    3  A    between atoms: C_5  and  C_23
    4  A    between atoms: C_7  and  N_33
    5  A    between atoms: C_12  and  C_27
    6  A    between atoms: C_12  and  C_37
    7  A    between atoms: C_13  and  C_24
    8  A    between atoms: C_19  and  N_32
    9  A    between atoms: C_28  and  C_36
   10  A    between atoms: C_30  and  N_32
                            x       y       z     vdW  Elec       q    Type
                         _______ _______ _______ _____ _____    ______ ____

>  <TORSDO>
F 10

$$$$
=
 OpenBabel10222420443D

 39 43  0  0  1  0  0  0  0  0999 V2000
  188.4750  177.6970  141.4670 C   0  0  1  0  0  3  0  0  0  0  0  0
  190.4950  176.3630  141.0500 N   0  0  0  0  0  2  0  0  0  0  0  0
  188.6710  178.6170  140.2690 C   0  0  0  0  0  2  0  0  0  0  0  0
  189.8200  177.2220  142.0140 C   0  0  0  0  0  2  0  0  0  0  0  0
  191.2570  177.2340  140.1660 C   0  0  0  0  0  2  0  0  0  0  0  0
  190.5000  177.5150  138.8630 C   0  0  2  0  0  3  0  0  0  0  0  0
  188.9960  177.7910  139.0280 C   0  0  2  0  0  3  0  0  0  0  0  0
  190.4300  174.4840  136.7580 N   0  0  0  0  0  0  0  0  0  0  0  0
  190.0030  175.3180  137.8220 C   0  0  0  0  0  3  0  0  0  0  0  0
  191.8170  176.4350  136.7960 C   0  0  1  0  0  3  0  0  0  0  0  0
  191.5310  175.1280  136.1470 C   0  0  0  0  0  0  0  0  0  0  0  0
  192.1730  174.6440  135.1780 O   0  0  0  0  0  0  0  0  0  0  0  0
  190.7410  176.4260  137.8600 C   0  0  0  0  0  0  0  0  0  0  0  0
  193.1970  176.3950  137.4310 C   0  0  0  0  0  1  0  0  0  0  0  0
  190.0900  173.1820  136.6000 O   0  0  0  0  0  0  0  0  0  0  0  0
  188.8230  173.2040  136.0130 C   0  0  0  0  0  1  0  0  0  0  0  0
  187.7120  178.4480  142.5450 C   0  0  0  0  0  2  0  0  0  0  0  0
  184.8580  178.7690  144.2740 C   0  0  0  0  0  0  0  0  0  0  0  0
  183.8680  179.4840  144.5810 O   0  0  0  0  0  0  0  0  0  0  0  0
  186.4280  177.7190  142.9130 C   0  0  1  0  0  3  0  0  0  0  0  0
  186.5320  177.1210  144.3250 C   0  0  0  0  0  2  0  0  0  0  0  0
  185.6010  177.9210  145.2380 C   0  0  1  0  0  3  0  0  0  0  0  0
  185.3300  178.6670  142.9490 N   0  0  0  0  0  2  0  0  0  0  0  0
  186.4420  178.7230  146.2420 C   0  0  1  0  0  3  0  0  0  0  0  0
  185.6770  179.2680  147.2790 O   0  0  0  0  0  1  0  0  0  0  0  0
  187.8870  178.1790  148.2550 C   0  0  0  0  0  1  0  0  0  0  0  0
  187.6500  177.9520  146.7720 C   0  0  0  0  0  2  0  0  0  0  0  0
  188.4900  178.4660  137.8420 N   0  0  0  0  0  2  0  0  0  0  0  0
  186.1290  177.5960  135.2490 C   0  0  0  0  0  3  0  0  0  0  0  0
  187.1220  178.3580  135.6840 C   0  0  0  0  0  3  0  0  0  0  0  0
  187.4730  177.8960  137.0150 C   0  0  0  0  0  0  0  0  0  0  0  0
  185.7670  176.5720  136.2830 C   0  0  1  0  0  3  0  0  0  0  0  0
  186.7180  176.8840  137.3930 C   0  0  0  0  0  3  0  0  0  0  0  0
  184.3490  176.7400  136.7340 C   0  0  0  0  0  0  0  0  0  0  0  0
  184.0860  177.0080  138.1120 N   0  0  0  0  0  2  0  0  0  0  0  0
  183.3990  176.6570  135.9080 O   0  0  0  0  0  0  0  0  0  0  0  0
  182.3330  175.9440  139.3950 C   0  0  0  0  0  2  0  0  0  0  0  0
  182.7330  177.1790  138.6160 C   0  0  0  0  0  3  0  0  0  0  0  0
  182.7660  177.1930  140.1300 C   0  0  0  0  0  2  0  0  0  0  0  0
  1  4  1  0  0  0  0
  1 17  1  1  0  0  0
  2  4  1  0  0  0  0
  3  1  1  0  0  0  0
  5  2  1  0  0  0  0
  6 13  1  6  0  0  0
  6  7  1  0  0  0  0
  6  5  1  0  0  0  0
  7 28  1  6  0  0  0
  7  3  1  0  0  0  0
  8  9  1  0  0  0  0
  9 13  2  0  0  0  0
 10 14  1  1  0  0  0
 10 13  1  0  0  0  0
 11  8  1  0  0  0  0
 11 10  1  0  0  0  0
 12 11  2  0  0  0  0
 15  8  1  0  0  0  0
 16 15  1  0  0  0  0
 18 19  2  0  0  0  0
 18 22  1  0  0  0  0
 20 17  1  1  0  0  0
 20 23  1  0  0  0  0
 20 21  1  0  0  0  0
 21 22  1  0  0  0  0
 22 24  1  1  0  0  0
 23 18  1  0  0  0  0
 24 27  1  0  0  0  0
 24 25  1  1  0  0  0
 27 26  1  0  0  0  0
 29 30  2  0  0  0  0
 29 32  1  0  0  0  0
 30 31  1  0  0  0  0
 31 33  2  0  0  0  0
 31 28  1  0  0  0  0
 32 34  1  1  0  0  0
 32 33  1  0  0  0  0
 34 35  1  0  0  0  0
 35 38  1  0  0  0  0
 36 34  2  0  0  0  0
 37 39  1  0  0  0  0
 38 37  1  0  0  0  0
 38 39  1  0  0  0  0
M  END
>  <MODEL>
6

>  <REMARK>
 VINA RESULT:      -8.3      2.920      8.096
  Name = 
  10 active torsions:
  status: ('A' for Active; 'I' for Inactive)
    1  A    between atoms: N_1  and  O_6
    2  A    between atoms: C_2  and  C_24
    3  A    between atoms: C_5  and  C_23
    4  A    between atoms: C_7  and  N_33
    5  A    between atoms: C_12  and  C_27
    6  A    between atoms: C_12  and  C_37
    7  A    between atoms: C_13  and  C_24
    8  A    between atoms: C_19  and  N_32
    9  A    between atoms: C_28  and  C_36
   10  A    between atoms: C_30  and  N_32
                            x       y       z     vdW  Elec       q    Type
                         _______ _______ _______ _____ _____    ______ ____

>  <TORSDO>
F 10

$$$$
=
 OpenBabel10222420443D

 39 43  0  0  1  0  0  0  0  0999 V2000
  188.8400  176.6500  142.2310 C   0  0  1  0  0  3  0  0  0  0  0  0
  189.7960  176.4060  139.9810 N   0  0  0  0  0  2  0  0  0  0  0  0
  188.3670  178.0830  142.0230 C   0  0  0  0  0  2  0  0  0  0  0  0
  190.0940  176.3660  141.4070 C   0  0  0  0  0  2  0  0  0  0  0  0
  189.9330  177.7930  139.5580 C   0  0  0  0  0  2  0  0  0  0  0  0
  188.5750  178.5040  139.5100 C   0  0  2  0  0  3  0  0  0  0  0  0
  187.6360  178.1990  140.6880 C   0  0  2  0  0  3  0  0  0  0  0  0
  186.3490  177.4770  136.7510 N   0  0  0  0  0  0  0  0  0  0  0  0
  186.7960  177.5070  138.0960 C   0  0  0  0  0  3  0  0  0  0  0  0
  188.3340  178.8110  136.8600 C   0  0  1  0  0  3  0  0  0  0  0  0
  187.2720  178.2350  135.9930 C   0  0  0  0  0  0  0  0  0  0  0  0
  187.1890  178.3930  134.7470 O   0  0  0  0  0  0  0  0  0  0  0  0
  187.8910  178.2600  138.1970 C   0  0  0  0  0  0  0  0  0  0  0  0
  189.6820  178.2310  136.4630 C   0  0  0  0  0  1  0  0  0  0  0  0
  185.4410  176.6060  136.2470 O   0  0  0  0  0  0  0  0  0  0  0  0
  186.0780  175.3630  136.2690 C   0  0  0  0  0  1  0  0  0  0  0  0
  189.1300  176.4370  143.7080 C   0  0  0  0  0  2  0  0  0  0  0  0
  191.3840  176.7540  146.1690 C   0  0  0  0  0  0  0  0  0  0  0  0
  192.1830  176.1950  146.9660 O   0  0  0  0  0  0  0  0  0  0  0  0
  190.3390  177.2500  144.1490 C   0  0  1  0  0  3  0  0  0  0  0  0
  189.9270  178.3120  145.1820 C   0  0  0  0  0  2  0  0  0  0  0  0
  190.5020  177.8890  146.5350 C   0  0  1  0  0  3  0  0  0  0  0  0
  191.2890  176.3780  144.8130 N   0  0  0  0  0  2  0  0  0  0  0  0
  189.3520  177.4960  147.4740 C   0  0  1  0  0  3  0  0  0  0  0  0
  189.3390  178.2400  148.6590 O   0  0  0  0  0  1  0  0  0  0  0  0
  186.9430  178.2850  147.5580 C   0  0  0  0  0  1  0  0  0  0  0  0
  187.9860  177.4930  146.7900 C   0  0  0  0  0  2  0  0  0  0  0  0
  186.6130  179.2290  140.7770 N   0  0  0  0  0  2  0  0  0  0  0  0
  183.3390  178.2340  141.9390 C   0  0  0  0  0  3  0  0  0  0  0  0
  184.6290  178.4190  142.1750 C   0  0  0  0  0  3  0  0  0  0  0  0
  185.2290  178.9170  140.9490 C   0  0  0  0  0  0  0  0  0  0  0  0
  183.0090  178.6070  140.5240 C   0  0  1  0  0  3  0  0  0  0  0  0
  184.3370  179.0310  139.9850 C   0  0  0  0  0  3  0  0  0  0  0  0
  182.4770  177.4310  139.7660 C   0  0  0  0  0  0  0  0  0  0  0  0
  181.2800  176.7980  140.2170 N   0  0  0  0  0  2  0  0  0  0  0  0
  183.0710  177.0120  138.7350 O   0  0  0  0  0  0  0  0  0  0  0  0
  179.7220  174.9620  140.4450 C   0  0  0  0  0  2  0  0  0  0  0  0
  180.7110  175.6510  139.5290 C   0  0  0  0  0  3  0  0  0  0  0  0
  179.2240  175.8720  139.3440 C   0  0  0  0  0  2  0  0  0  0  0  0
  1 17  1  1  0  0  0
  2  4  1  0  0  0  0
  3  1  1  0  0  0  0
  4  1  1  0  0  0  0
  5  2  1  0  0  0  0
  6 13  1  6  0  0  0
  6  5  1  0  0  0  0
  6  7  1  0  0  0  0
  7 28  1  1  0  0  0
  7  3  1  0  0  0  0
  8  9  1  0  0  0  0
  9 13  2  0  0  0  0
 10 14  1  6  0  0  0
 10 13  1  0  0  0  0
 11  8  1  0  0  0  0
 11 10  1  0  0  0  0
 12 11  2  0  0  0  0
 15 16  1  0  0  0  0
 15  8  1  0  0  0  0
 18 22  1  0  0  0  0
 18 19  2  0  0  0  0
 20 17  1  1  0  0  0
 20 23  1  0  0  0  0
 20 21  1  0  0  0  0
 21 22  1  0  0  0  0
 22 24  1  1  0  0  0
 23 18  1  0  0  0  0
 24 25  1  1  0  0  0
 27 24  1  0  0  0  0
 27 26  1  0  0  0  0
 28 31  1  0  0  0  0
 29 30  2  0  0  0  0
 31 30  1  0  0  0  0
 32 34  1  6  0  0  0
 32 29  1  0  0  0  0
 33 32  1  0  0  0  0
 33 31  2  0  0  0  0
 34 35  1  0  0  0  0
 36 34  2  0  0  0  0
 38 35  1  0  0  0  0
 38 37  1  0  0  0  0
 39 38  1  0  0  0  0
 39 37  1  0  0  0  0
M  END
>  <MODEL>
7

>  <REMARK>
 VINA RESULT:      -8.2      2.232      7.791
  Name = 
  10 active torsions:
  status: ('A' for Active; 'I' for Inactive)
    1  A    between atoms: N_1  and  O_6
    2  A    between atoms: C_2  and  C_24
    3  A    between atoms: C_5  and  C_23
    4  A    between atoms: C_7  and  N_33
    5  A    between atoms: C_12  and  C_27
    6  A    between atoms: C_12  and  C_37
    7  A    between atoms: C_13  and  C_24
    8  A    between atoms: C_19  and  N_32
    9  A    between atoms: C_28  and  C_36
   10  A    between atoms: C_30  and  N_32
                            x       y       z     vdW  Elec       q    Type
                         _______ _______ _______ _____ _____    ______ ____

>  <TORSDO>
F 10

$$$$
=
 OpenBabel10222420443D

 39 43  0  0  1  0  0  0  0  0999 V2000
  189.5250  178.0640  140.6780 C   0  0  1  0  0  3  0  0  0  0  0  0
  191.2870  177.3160  142.2180 N   0  0  0  0  0  2  0  0  0  0  0  0
  188.4150  177.2570  141.3400 C   0  0  0  0  0  2  0  0  0  0  0  0
  190.8710  177.3570  140.8220 C   0  0  0  0  0  2  0  0  0  0  0  0
  190.6920  176.1210  142.8020 C   0  0  0  0  0  2  0  0  0  0  0  0
  189.3980  176.4490  143.5570 C   0  0  2  0  0  3  0  0  0  0  0  0
  188.4660  177.4480  142.8530 C   0  0  2  0  0  3  0  0  0  0  0  0
  190.8480  177.1170  146.8850 N   0  0  0  0  0  0  0  0  0  0  0  0
  190.8170  176.5390  145.5910 C   0  0  0  0  0  3  0  0  0  0  0  0
  188.7960  177.7440  145.8230 C   0  0  1  0  0  3  0  0  0  0  0  0
  189.6340  177.8240  147.0480 C   0  0  0  0  0  0  0  0  0  0  0  0
  189.3200  178.4380  148.1020 O   0  0  0  0  0  0  0  0  0  0  0  0
  189.6950  176.8850  144.9610 C   0  0  0  0  0  0  0  0  0  0  0  0
  187.5020  177.0130  146.1390 C   0  0  0  0  0  1  0  0  0  0  0  0
  191.6940  176.7590  147.8820 O   0  0  0  0  0  0  0  0  0  0  0  0
  192.4310  175.6900  147.3690 C   0  0  0  0  0  1  0  0  0  0  0  0
  189.1900  178.2480  139.2070 C   0  0  0  0  0  2  0  0  0  0  0  0
  189.3670  177.0230  136.0920 C   0  0  0  0  0  0  0  0  0  0  0  0
  189.7510  177.1770  134.9030 O   0  0  0  0  0  0  0  0  0  0  0  0
  189.4930  176.9840  138.4160 C   0  0  1  0  0  3  0  0  0  0  0  0
  188.1900  176.2900  137.9880 C   0  0  0  0  0  2  0  0  0  0  0  0
  188.0520  176.4540  136.4740 C   0  0  1  0  0  3  0  0  0  0  0  0
  190.1900  177.3370  137.1940 N   0  0  0  0  0  2  0  0  0  0  0  0
  186.8680  177.3850  136.1720 C   0  0  1  0  0  3  0  0  0  0  0  0
  187.1930  178.7390  136.3070 O   0  0  0  0  0  1  0  0  0  0  0  0
  185.9810  175.6080  134.5940 C   0  0  0  0  0  1  0  0  0  0  0  0
  186.1950  177.0930  134.8320 C   0  0  0  0  0  2  0  0  0  0  0  0
  187.1250  177.3400  143.4070 N   0  0  0  0  0  2  0  0  0  0  0  0
  183.9940  179.0480  142.8260 C   0  0  0  0  0  3  0  0  0  0  0  0
  184.7370  178.2430  143.5700 C   0  0  0  0  0  3  0  0  0  0  0  0
  186.0360  178.1320  142.9290 C   0  0  0  0  0  0  0  0  0  0  0  0
  184.7730  179.5230  141.6350 C   0  0  1  0  0  3  0  0  0  0  0  0
  186.0910  178.8430  141.8200 C   0  0  0  0  0  3  0  0  0  0  0  0
  184.1240  179.0880  140.3580 C   0  0  0  0  0  0  0  0  0  0  0  0
  183.4080  177.8540  140.3280 N   0  0  0  0  0  2  0  0  0  0  0  0
  184.1990  179.8080  139.3240 O   0  0  0  0  0  0  0  0  0  0  0  0
  183.7740  176.6550  138.2590 C   0  0  0  0  0  2  0  0  0  0  0  0
  182.7560  177.3730  139.1210 C   0  0  0  0  0  3  0  0  0  0  0  0
  182.8020  175.8590  139.1020 C   0  0  0  0  0  2  0  0  0  0  0  0
  1 17  1  6  0  0  0
  1  4  1  0  0  0  0
  1  3  1  0  0  0  0
  2  5  1  0  0  0  0
  3  7  1  0  0  0  0
  4  2  1  0  0  0  0
  5  6  1  0  0  0  0
  6 13  1  1  0  0  0
  7 28  1  1  0  0  0
  7  6  1  0  0  0  0
  8 11  1  0  0  0  0
  8 15  1  0  0  0  0
  9  8  1  0  0  0  0
 10 14  1  1  0  0  0
 10 11  1  0  0  0  0
 11 12  2  0  0  0  0
 13  9  2  0  0  0  0
 13 10  1  0  0  0  0
 16 15  1  0  0  0  0
 18 22  1  0  0  0  0
 18 23  1  0  0  0  0
 19 18  2  0  0  0  0
 20 17  1  6  0  0  0
 21 20  1  0  0  0  0
 22 24  1  1  0  0  0
 22 21  1  0  0  0  0
 23 20  1  0  0  0  0
 24 25  1  6  0  0  0
 26 27  1  0  0  0  0
 27 24  1  0  0  0  0
 29 30  2  0  0  0  0
 31 28  1  0  0  0  0
 31 30  1  0  0  0  0
 32 34  1  6  0  0  0
 32 33  1  0  0  0  0
 32 29  1  0  0  0  0
 33 31  2  0  0  0  0
 35 34  1  0  0  0  0
 36 34  2  0  0  0  0
 37 39  1  0  0  0  0
 37 38  1  0  0  0  0
 38 35  1  0  0  0  0
 39 38  1  0  0  0  0
M  END
>  <MODEL>
8

>  <REMARK>
 VINA RESULT:      -8.1      1.672      2.282
  Name = 
  10 active torsions:
  status: ('A' for Active; 'I' for Inactive)
    1  A    between atoms: N_1  and  O_6
    2  A    between atoms: C_2  and  C_24
    3  A    between atoms: C_5  and  C_23
    4  A    between atoms: C_7  and  N_33
    5  A    between atoms: C_12  and  C_27
    6  A    between atoms: C_12  and  C_37
    7  A    between atoms: C_13  and  C_24
    8  A    between atoms: C_19  and  N_32
    9  A    between atoms: C_28  and  C_36
   10  A    between atoms: C_30  and  N_32
                            x       y       z     vdW  Elec       q    Type
                         _______ _______ _______ _____ _____    ______ ____

>  <TORSDO>
F 10

$$$$
=
 OpenBabel10222420443D

 39 43  0  0  1  0  0  0  0  0999 V2000
  189.1700  178.0930  140.8500 C   0  0  1  0  0  3  0  0  0  0  0  0
  191.0660  177.3160  142.2050 N   0  0  0  0  0  2  0  0  0  0  0  0
  188.1440  177.1900  141.5230 C   0  0  0  0  0  2  0  0  0  0  0  0
  190.5510  177.4400  140.8480 C   0  0  0  0  0  2  0  0  0  0  0  0
  190.5640  176.0570  142.7360 C   0  0  0  0  0  2  0  0  0  0  0  0
  189.3150  176.2690  143.6010 C   0  0  2  0  0  3  0  0  0  0  0  0
  188.2950  177.2730  143.0390 C   0  0  2  0  0  3  0  0  0  0  0  0
  189.4240  177.0660  147.2020 N   0  0  0  0  0  0  0  0  0  0  0  0
  188.7840  176.7800  145.9700 C   0  0  0  0  0  3  0  0  0  0  0  0
  191.1050  176.8180  145.5150 C   0  0  1  0  0  3  0  0  0  0  0  0
  190.8140  177.1150  146.9430 C   0  0  0  0  0  0  0  0  0  0  0  0
  191.6790  177.3760  147.8200 O   0  0  0  0  0  0  0  0  0  0  0  0
  189.6930  176.6150  145.0100 C   0  0  0  0  0  0  0  0  0  0  0  0
  191.7360  178.0370  144.8620 C   0  0  0  0  0  1  0  0  0  0  0  0
  188.8100  177.5520  148.3090 O   0  0  0  0  0  0  0  0  0  0  0  0
  187.6100  178.0980  147.8490 C   0  0  0  0  0  1  0  0  0  0  0  0
  188.7240  178.3690  139.4240 C   0  0  0  0  0  2  0  0  0  0  0  0
  189.0100  177.5540  136.1840 C   0  0  0  0  0  0  0  0  0  0  0  0
  189.3570  177.8940  135.0230 O   0  0  0  0  0  0  0  0  0  0  0  0
  189.1700  177.2540  138.4880 C   0  0  1  0  0  3  0  0  0  0  0  0
  187.9570  176.4600  137.9780 C   0  0  0  0  0  2  0  0  0  0  0  0
  187.7800  176.7850  136.4930 C   0  0  1  0  0  3  0  0  0  0  0  0
  189.8020  177.8340  137.3180 N   0  0  0  0  0  2  0  0  0  0  0  0
  186.4870  177.5910  136.3020 C   0  0  1  0  0  3  0  0  0  0  0  0
  185.9210  177.4170  135.0340 O   0  0  0  0  0  1  0  0  0  0  0  0
  185.2330  178.6130  138.2560 C   0  0  0  0  0  1  0  0  0  0  0  0
  185.4650  177.3690  137.4160 C   0  0  0  0  0  2  0  0  0  0  0  0
  187.0020  177.0630  143.6730 N   0  0  0  0  0  2  0  0  0  0  0  0
  184.2660  179.3910  144.0650 C   0  0  0  0  0  3  0  0  0  0  0  0
  185.2120  178.6350  144.6040 C   0  0  0  0  0  3  0  0  0  0  0  0
  185.9170  177.9800  143.5160 C   0  0  0  0  0  0  0  0  0  0  0  0
  184.2970  179.2770  142.5690 C   0  0  1  0  0  3  0  0  0  0  0  0
  185.4200  178.3170  142.3420 C   0  0  0  0  0  3  0  0  0  0  0  0
  183.0090  178.7240  142.0440 C   0  0  0  0  0  0  0  0  0  0  0  0
  183.0370  177.8580  140.9090 N   0  0  0  0  0  2  0  0  0  0  0  0
  181.9140  179.0090  142.6020 O   0  0  0  0  0  0  0  0  0  0  0  0
  181.4800  178.0160  139.0650 C   0  0  0  0  0  2  0  0  0  0  0  0
  181.8230  177.2880  140.3480 C   0  0  0  0  0  3  0  0  0  0  0  0
  182.1440  176.6580  139.0080 C   0  0  0  0  0  2  0  0  0  0  0  0
  1 17  1  6  0  0  0
  1  3  1  0  0  0  0
  2  5  1  0  0  0  0
  3  7  1  0  0  0  0
  4  1  1  0  0  0  0
  4  2  1  0  0  0  0
  5  6  1  0  0  0  0
  6 13  1  1  0  0  0
  7  6  1  0  0  0  0
  7 28  1  1  0  0  0
  8 15  1  0  0  0  0
  9  8  1  0  0  0  0
 10 14  1  6  0  0  0
 10 11  1  0  0  0  0
 11  8  1  0  0  0  0
 11 12  2  0  0  0  0
 13 10  1  0  0  0  0
 13  9  2  0  0  0  0
 16 15  1  0  0  0  0
 18 22  1  0  0  0  0
 18 23  1  0  0  0  0
 19 18  2  0  0  0  0
 20 17  1  1  0  0  0
 21 20  1  0  0  0  0
 22 24  1  1  0  0  0
 22 21  1  0  0  0  0
 23 20  1  0  0  0  0
 24 25  1  6  0  0  0
 24 27  1  0  0  0  0
 27 26  1  0  0  0  0
 29 30  2  0  0  0  0
 31 28  1  0  0  0  0
 31 30  1  0  0  0  0
 32 34  1  1  0  0  0
 32 29  1  0  0  0  0
 33 32  1  0  0  0  0
 33 31  2  0  0  0  0
 34 36  2  0  0  0  0
 35 34  1  0  0  0  0
 37 38  1  0  0  0  0
 38 35  1  0  0  0  0
 39 37  1  0  0  0  0
 39 38  1  0  0  0  0
M  END
>  <MODEL>
9

>  <REMARK>
 VINA RESULT:      -8.0      1.408      2.180
  Name = 
  10 active torsions:
  status: ('A' for Active; 'I' for Inactive)
    1  A    between atoms: N_1  and  O_6
    2  A    between atoms: C_2  and  C_24
    3  A    between atoms: C_5  and  C_23
    4  A    between atoms: C_7  and  N_33
    5  A    between atoms: C_12  and  C_27
    6  A    between atoms: C_12  and  C_37
    7  A    between atoms: C_13  and  C_24
    8  A    between atoms: C_19  and  N_32
    9  A    between atoms: C_28  and  C_36
   10  A    between atoms: C_30  and  N_32
                            x       y       z     vdW  Elec       q    Type
                         _______ _______ _______ _____ _____    ______ ____

>  <TORSDO>
F 10

$$$$
