=
 OpenBabel10222415193D

 43 46  0  0  1  0  0  0  0  0999 V2000
  180.7250  182.6950  137.7060 C   0  0  0  0  0  3  0  0  0  0  0  0
  182.3090  178.9280  140.2480 C   0  0  0  0  0  0  0  0  0  0  0  0
  180.5690  176.1230  137.6580 C   0  0  0  0  0  2  0  0  0  0  0  0
  181.0380  181.9190  138.8200 C   0  0  0  0  0  3  0  0  0  0  0  0
  181.2480  175.8170  136.3230 C   0  0  0  0  0  2  0  0  0  0  0  0
  180.1680  180.6970  136.4830 C   0  0  0  0  0  3  0  0  0  0  0  0
  182.6400  178.4900  141.5330 C   0  0  0  0  0  3  0  0  0  0  0  0
  180.9370  180.5190  138.7890 C   0  0  0  0  0  0  0  0  0  0  0  0
  182.7720  175.8560  136.4620 C   0  0  1  0  0  3  0  0  0  0  0  0
  180.2860  182.0910  136.5280 C   0  0  0  0  0  0  0  0  0  0  0  0
  180.5000  180.2150  141.2040 C   0  0  0  0  0  3  0  0  0  0  0  0
  181.2190  179.8160  140.0680 C   0  0  0  0  0  0  0  0  0  0  0  0
  180.8320  179.7520  142.4390 N   0  0  0  0  0  0  0  0  0  0  0  0
  180.4920  179.8970  137.5840 C   0  0  0  0  0  0  0  0  0  0  0  0
  180.9640  177.5060  138.1760 C   0  0  2  0  0  3  0  0  0  0  0  0
  181.8800  178.9100  142.6260 C   0  0  0  0  0  0  0  0  0  0  0  0
  180.3410  178.5140  137.3980 O   0  0  0  0  0  0  0  0  0  0  0  0
  183.2470  177.2220  136.9660 C   0  0  0  0  0  2  0  0  0  0  0  0
  182.4580  177.6810  138.1540 C   0  0  0  0  0  0  0  0  0  0  0  0
  183.0650  178.3620  139.1220 C   0  0  0  0  0  3  0  0  0  0  0  0
  187.9250  175.5880  136.0140 N   0  0  0  0  0  2  0  0  0  0  0  0
  184.8840  173.3390  138.0900 O   0  0  0  0  0  0  0  0  0  0  0  0
  186.9610  174.6670  136.5420 C   0  0  0  0  0  0  0  0  0  0  0  0
  183.2290  174.7830  137.3350 N   0  0  0  0  0  2  0  0  0  0  0  0
  185.6170  175.1120  136.7420 N   0  0  0  0  0  2  0  0  0  0  0  0
  184.5920  174.3640  137.4120 C   0  0  0  0  0  0  0  0  0  0  0  0
  187.2860  173.4730  136.7880 O   0  0  0  0  0  0  0  0  0  0  0  0
  189.9210  176.3670  135.1070 O   0  0  0  0  0  1  0  0  0  0  0  0
  189.3070  175.2490  135.6730 C   0  0  0  0  0  0  0  0  0  0  0  0
  189.3370  174.1100  134.6710 C   0  0  0  0  0  1  0  0  0  0  0  0
  190.0770  174.8480  136.9210 C   0  0  0  0  0  1  0  0  0  0  0  0
  180.7270  184.1470  135.0270 C   0  0  0  0  0  1  0  0  0  0  0  0
  178.9990  182.5840  134.5940 O   0  0  0  0  0  0  0  0  0  0  0  0
  179.9510  182.9160  135.3500 C   0  0  0  0  0  0  0  0  0  0  0  0
  182.2510  178.4820  144.0030 C   0  0  0  0  0  2  0  0  0  0  0  0
  184.1270  178.6770  145.4200 C   0  0  0  0  0  3  0  0  0  0  0  0
  183.5410  179.0220  144.3370 N   0  0  0  0  0  0  0  0  0  0  0  0
  185.4700  179.2370  145.7720 C   0  0  0  0  0  2  0  0  0  0  0  0
  186.4830  178.1280  146.0310 C   0  0  0  0  0  2  0  0  0  0  0  0
  186.6050  177.2640  144.8630 N   0  0  0  0  0  2  0  0  0  0  0  0
  189.0260  177.5900  144.7140 O   0  0  0  0  0  1  0  0  0  0  0  0
  187.8650  176.9750  144.2580 C   0  0  0  0  0  0  0  0  0  0  0  0
  187.9260  176.1590  143.3010 O   0  0  0  0  0  0  0  0  0  0  0  0
  1  4  1  0  0  0  0
  2  7  1  0  0  0  0
  5  9  1  0  0  0  0
  5  3  1  0  0  0  0
  6 10  1  0  0  0  0
  6 14  2  0  0  0  0
  7 16  2  0  0  0  0
  8  4  2  0  0  0  0
  8 12  1  0  0  0  0
  9 18  1  0  0  0  0
  9 24  1  1  0  0  0
 10  1  2  0  0  0  0
 11 13  2  0  0  0  0
 12  2  2  0  0  0  0
 12 11  1  0  0  0  0
 13 16  1  0  0  0  0
 14  8  1  0  0  0  0
 15  3  1  6  0  0  0
 16 35  1  0  0  0  0
 17 14  1  0  0  0  0
 17 15  1  0  0  0  0
 18 19  1  0  0  0  0
 19 15  1  0  0  0  0
 19 20  2  0  0  0  0
 20  2  1  0  0  0  0
 21 23  1  0  0  0  0
 23 25  1  0  0  0  0
 23 27  2  0  0  0  0
 24 26  1  0  0  0  0
 25 26  1  0  0  0  0
 26 22  2  0  0  0  0
 28 29  1  0  0  0  0
 29 21  1  0  0  0  0
 29 31  1  0  0  0  0
 30 29  1  0  0  0  0
 32 34  1  0  0  0  0
 33 34  2  0  0  0  0
 34 10  1  0  0  0  0
 35 37  1  0  0  0  0
 36 38  1  0  0  0  0
 37 36  2  0  0  0  0
 38 39  1  0  0  0  0
 40 39  1  0  0  0  0
 42 41  1  0  0  0  0
 42 40  1  0  0  0  0
 43 42  2  0  0  0  0
M  END
>  <MODEL>
1

>  <REMARK>
 VINA RESULT:      -6.8      0.000      0.000
  Name = 
  8 active torsions:
  status: ('A' for Active; 'I' for Inactive)
    1  A    between atoms: N_1  and  C_13
    2  A    between atoms: N_5  and  C_31
    3  A    between atoms: C_6  and  C_29
    4  A    between atoms: C_6  and  C_31
    5  A    between atoms: C_17  and  N_23
    6  A    between atoms: C_18  and  C_35
    7  A    between atoms: C_33  and  C_40
    8  A    between atoms: C_40  and  N_43
                            x       y       z     vdW  Elec       q    Type
                         _______ _______ _______ _____ _____    ______ ____

>  <TORSDO>
F 8

$$$$
=
 OpenBabel10222415193D

 43 46  0  0  1  0  0  0  0  0999 V2000
  192.5870  174.1970  137.5680 C   0  0  0  0  0  3  0  0  0  0  0  0
  190.0480  177.1160  140.4300 C   0  0  0  0  0  0  0  0  0  0  0  0
  188.5440  179.3690  137.2260 C   0  0  0  0  0  2  0  0  0  0  0  0
  192.2870  175.0010  138.6650 C   0  0  0  0  0  3  0  0  0  0  0  0
  187.4000  178.8010  136.3840 C   0  0  0  0  0  2  0  0  0  0  0  0
  191.2720  175.6420  136.1620 C   0  0  0  0  0  3  0  0  0  0  0  0
  190.0090  177.7040  141.6970 C   0  0  0  0  0  3  0  0  0  0  0  0
  191.4640  176.1320  138.5410 C   0  0  0  0  0  0  0  0  0  0  0  0
  186.4270  178.0000  137.2520 C   0  0  1  0  0  3  0  0  0  0  0  0
  192.0830  174.5120  136.3060 C   0  0  0  0  0  0  0  0  0  0  0  0
  192.4470  177.4020  140.4210 C   0  0  0  0  0  3  0  0  0  0  0  0
  191.2910  176.9510  139.7700 C   0  0  0  0  0  0  0  0  0  0  0  0
  192.3750  177.9930  141.6440 N   0  0  0  0  0  0  0  0  0  0  0  0
  190.9430  176.4550  137.2520 C   0  0  0  0  0  0  0  0  0  0  0  0
  189.3290  178.2550  137.9170 C   0  0  2  0  0  3  0  0  0  0  0  0
  191.1920  178.1470  142.2920 C   0  0  0  0  0  0  0  0  0  0  0  0
  190.1110  177.5480  136.9690 O   0  0  0  0  0  0  0  0  0  0  0  0
  187.1410  176.8520  137.9710 C   0  0  0  0  0  2  0  0  0  0  0  0
  188.4030  177.3120  138.6350 C   0  0  0  0  0  0  0  0  0  0  0  0
  188.7640  176.7780  139.7990 C   0  0  0  0  0  3  0  0  0  0  0  0
  181.8720  175.8220  138.4090 N   0  0  0  0  0  2  0  0  0  0  0  0
  183.8690  179.5170  139.3970 O   0  0  0  0  0  0  0  0  0  0  0  0
  182.3710  177.1530  138.5940 C   0  0  0  0  0  0  0  0  0  0  0  0
  185.7530  178.8780  138.2010 N   0  0  0  0  0  2  0  0  0  0  0  0
  183.7620  177.4070  138.3790 N   0  0  0  0  0  2  0  0  0  0  0  0
  184.4310  178.6390  138.6850 C   0  0  0  0  0  0  0  0  0  0  0  0
  181.5860  178.0920  138.9020 O   0  0  0  0  0  0  0  0  0  0  0  0
  179.9780  175.7990  139.7600 O   0  0  0  0  0  1  0  0  0  0  0  0
  180.4650  175.4350  138.5030 C   0  0  0  0  0  0  0  0  0  0  0  0
  180.3190  173.9340  138.3360 C   0  0  0  0  0  1  0  0  0  0  0  0
  179.6460  176.1470  137.4380 C   0  0  0  0  0  1  0  0  0  0  0  0
  191.4080  172.6980  134.5940 C   0  0  0  0  0  1  0  0  0  0  0  0
  193.5370  173.7390  134.5940 O   0  0  0  0  0  0  0  0  0  0  0  0
  192.4050  173.6600  135.1430 C   0  0  0  0  0  0  0  0  0  0  0  0
  191.1660  178.7370  143.6580 C   0  0  0  0  0  2  0  0  0  0  0  0
  189.9030  177.9260  145.4800 C   0  0  0  0  0  3  0  0  0  0  0  0
  189.9190  178.4070  144.2940 N   0  0  0  0  0  0  0  0  0  0  0  0
  188.6080  177.5810  146.1450 C   0  0  0  0  0  2  0  0  0  0  0  0
  187.4190  177.9300  145.2580 C   0  0  0  0  0  2  0  0  0  0  0  0
  186.2310  178.1740  146.0660 N   0  0  0  0  0  2  0  0  0  0  0  0
  185.0750  179.3390  144.2500 O   0  0  0  0  0  0  0  0  0  0  0  0
  185.0740  178.8260  145.5430 C   0  0  0  0  0  0  0  0  0  0  0  0
  184.0440  178.9400  146.2580 O   0  0  0  0  0  1  0  0  0  0  0  0
  1  4  1  0  0  0  0
  2  7  1  0  0  0  0
  5  3  1  0  0  0  0
  5  9  1  0  0  0  0
  6 10  1  0  0  0  0
  6 14  2  0  0  0  0
  7 16  2  0  0  0  0
  8  4  2  0  0  0  0
  8 12  1  0  0  0  0
  9 18  1  0  0  0  0
  9 24  1  1  0  0  0
 10  1  2  0  0  0  0
 11 13  2  0  0  0  0
 12 11  1  0  0  0  0
 12  2  2  0  0  0  0
 13 16  1  0  0  0  0
 14  8  1  0  0  0  0
 15  3  1  6  0  0  0
 15 19  1  0  0  0  0
 16 35  1  0  0  0  0
 17 14  1  0  0  0  0
 17 15  1  0  0  0  0
 18 19  1  0  0  0  0
 19 20  2  0  0  0  0
 20  2  1  0  0  0  0
 21 29  1  0  0  0  0
 21 23  1  0  0  0  0
 23 27  2  0  0  0  0
 24 26  1  0  0  0  0
 25 23  1  0  0  0  0
 25 26  1  0  0  0  0
 26 22  2  0  0  0  0
 29 28  1  0  0  0  0
 30 29  1  0  0  0  0
 31 29  1  0  0  0  0
 32 34  1  0  0  0  0
 33 34  2  0  0  0  0
 34 10  1  0  0  0  0
 35 37  1  0  0  0  0
 36 38  1  0  0  0  0
 37 36  2  0  0  0  0
 39 40  1  0  0  0  0
 39 38  1  0  0  0  0
 41 42  2  0  0  0  0
 42 40  1  0  0  0  0
 42 43  1  0  0  0  0
M  END
>  <MODEL>
2

>  <REMARK>
 VINA RESULT:      -6.8      3.747      9.192
  Name = 
  8 active torsions:
  status: ('A' for Active; 'I' for Inactive)
    1  A    between atoms: N_1  and  C_13
    2  A    between atoms: N_5  and  C_31
    3  A    between atoms: C_6  and  C_29
    4  A    between atoms: C_6  and  C_31
    5  A    between atoms: C_17  and  N_23
    6  A    between atoms: C_18  and  C_35
    7  A    between atoms: C_33  and  C_40
    8  A    between atoms: C_40  and  N_43
                            x       y       z     vdW  Elec       q    Type
                         _______ _______ _______ _____ _____    ______ ____

>  <TORSDO>
F 8

$$$$
=
 OpenBabel10222415193D

 43 46  0  0  1  0  0  0  0  0999 V2000
  181.1240  181.8200  137.6020 C   0  0  0  0  0  3  0  0  0  0  0  0
  183.4690  178.3830  140.0210 C   0  0  0  0  0  0  0  0  0  0  0  0
  181.4650  175.2700  138.0480 C   0  0  0  0  0  2  0  0  0  0  0  0
  181.7130  181.1610  138.6790 C   0  0  0  0  0  3  0  0  0  0  0  0
  181.8850  174.8940  136.6250 C   0  0  0  0  0  2  0  0  0  0  0  0
  180.4880  179.6960  136.6630 C   0  0  0  0  0  3  0  0  0  0  0  0
  184.0840  178.0760  141.2380 C   0  0  0  0  0  3  0  0  0  0  0  0
  181.7150  179.7590  138.7670 C   0  0  0  0  0  0  0  0  0  0  0  0
  183.3980  175.0370  136.4450 C   0  0  1  0  0  3  0  0  0  0  0  0
  180.5050  181.0930  136.5840 C   0  0  0  0  0  0  0  0  0  0  0  0
  181.7950  179.6340  141.2360 C   0  0  0  0  0  3  0  0  0  0  0  0
  182.3010  179.1850  140.0070 C   0  0  0  0  0  0  0  0  0  0  0  0
  182.4020  179.2980  142.4050 N   0  0  0  0  0  0  0  0  0  0  0  0
  181.0870  179.0120  137.7260 C   0  0  0  0  0  0  0  0  0  0  0  0
  181.8490  176.7130  138.3740 C   0  0  2  0  0  3  0  0  0  0  0  0
  183.5290  178.5390  142.4320 C   0  0  0  0  0  0  0  0  0  0  0  0
  181.0070  177.6120  137.6730 O   0  0  0  0  0  0  0  0  0  0  0  0
  183.8590  176.4670  136.7440 C   0  0  0  0  0  2  0  0  0  0  0  0
  183.2900  176.9750  138.0340 C   0  0  0  0  0  0  0  0  0  0  0  0
  184.0250  177.7710  138.8060 C   0  0  0  0  0  3  0  0  0  0  0  0
  188.4670  175.9890  135.9710 N   0  0  0  0  0  2  0  0  0  0  0  0
  186.0540  173.0270  137.9770 O   0  0  0  0  0  0  0  0  0  0  0  0
  187.7490  174.8530  136.4700 C   0  0  0  0  0  0  0  0  0  0  0  0
  184.1020  174.0710  137.2790 N   0  0  0  0  0  2  0  0  0  0  0  0
  186.3400  174.9660  136.6900 N   0  0  0  0  0  2  0  0  0  0  0  0
  185.5260  173.9780  137.3370 C   0  0  0  0  0  0  0  0  0  0  0  0
  188.3450  173.7590  136.6720 O   0  0  0  0  0  0  0  0  0  0  0  0
  190.2140  174.7570  135.0530 O   0  0  0  0  0  1  0  0  0  0  0  0
  189.8850  175.9920  135.6150 C   0  0  0  0  0  0  0  0  0  0  0  0
  190.7380  176.2130  136.8500 C   0  0  0  0  0  1  0  0  0  0  0  0
  190.1740  177.0840  134.5970 C   0  0  0  0  0  1  0  0  0  0  0  0
  180.1490  183.2370  135.1880 C   0  0  0  0  0  1  0  0  0  0  0  0
  179.1050  181.1740  134.6680 O   0  0  0  0  0  0  0  0  0  0  0  0
  179.8790  181.7940  135.4450 C   0  0  0  0  0  0  0  0  0  0  0  0
  184.1990  178.2520  143.7290 C   0  0  0  0  0  2  0  0  0  0  0  0
  186.4100  177.5090  144.0880 C   0  0  0  0  0  3  0  0  0  0  0  0
  185.6220  178.3710  143.5640 N   0  0  0  0  0  0  0  0  0  0  0  0
  187.8920  177.6300  143.9200 C   0  0  0  0  0  2  0  0  0  0  0  0
  188.3760  176.8600  142.6960 C   0  0  0  0  0  2  0  0  0  0  0  0
  188.5010  177.7500  141.5490 N   0  0  0  0  0  2  0  0  0  0  0  0
  190.2800  176.4070  140.5380 O   0  0  0  0  0  1  0  0  0  0  0  0
  189.4070  177.4880  140.4780 C   0  0  0  0  0  0  0  0  0  0  0  0
  189.4200  178.2440  139.4710 O   0  0  0  0  0  0  0  0  0  0  0  0
  1  4  1  0  0  0  0
  2  7  1  0  0  0  0
  4  8  2  0  0  0  0
  5  3  1  0  0  0  0
  6 14  2  0  0  0  0
  7 16  2  0  0  0  0
  8 12  1  0  0  0  0
  9  5  1  0  0  0  0
  9 18  1  0  0  0  0
  9 24  1  1  0  0  0
 10  6  1  0  0  0  0
 10  1  2  0  0  0  0
 11 13  2  0  0  0  0
 12  2  2  0  0  0  0
 12 11  1  0  0  0  0
 13 16  1  0  0  0  0
 14  8  1  0  0  0  0
 15  3  1  6  0  0  0
 16 35  1  0  0  0  0
 17 14  1  0  0  0  0
 17 15  1  0  0  0  0
 18 19  1  0  0  0  0
 19 15  1  0  0  0  0
 19 20  2  0  0  0  0
 20  2  1  0  0  0  0
 21 23  1  0  0  0  0
 23 27  2  0  0  0  0
 23 25  1  0  0  0  0
 24 26  1  0  0  0  0
 25 26  1  0  0  0  0
 26 22  2  0  0  0  0
 28 29  1  0  0  0  0
 29 21  1  0  0  0  0
 29 30  1  0  0  0  0
 31 29  1  0  0  0  0
 32 34  1  0  0  0  0
 33 34  2  0  0  0  0
 34 10  1  0  0  0  0
 37 35  1  0  0  0  0
 37 36  2  0  0  0  0
 38 36  1  0  0  0  0
 39 38  1  0  0  0  0
 40 39  1  0  0  0  0
 42 41  1  0  0  0  0
 42 40  1  0  0  0  0
 43 42  2  0  0  0  0
M  END
>  <MODEL>
3

>  <REMARK>
 VINA RESULT:      -6.4      1.708      2.078
  Name = 
  8 active torsions:
  status: ('A' for Active; 'I' for Inactive)
    1  A    between atoms: N_1  and  C_13
    2  A    between atoms: N_5  and  C_31
    3  A    between atoms: C_6  and  C_29
    4  A    between atoms: C_6  and  C_31
    5  A    between atoms: C_17  and  N_23
    6  A    between atoms: C_18  and  C_35
    7  A    between atoms: C_33  and  C_40
    8  A    between atoms: C_40  and  N_43
                            x       y       z     vdW  Elec       q    Type
                         _______ _______ _______ _____ _____    ______ ____

>  <TORSDO>
F 8

$$$$
=
 OpenBabel10222415193D

 43 46  0  0  1  0  0  0  0  0999 V2000
  192.5150  175.8070  134.9160 C   0  0  0  0  0  3  0  0  0  0  0  0
  188.1440  175.7900  136.9300 C   0  0  0  0  0  0  0  0  0  0  0  0
  189.6560  176.1780  140.8240 C   0  0  0  0  0  2  0  0  0  0  0  0
  191.1920  175.4350  135.1450 C   0  0  0  0  0  3  0  0  0  0  0  0
  190.1380  177.5480  141.3060 C   0  0  0  0  0  2  0  0  0  0  0  0
  192.7880  176.2480  137.2670 C   0  0  0  0  0  3  0  0  0  0  0  0
  186.8400  175.3050  136.7970 C   0  0  0  0  0  3  0  0  0  0  0  0
  190.6320  175.4740  136.4330 C   0  0  0  0  0  0  0  0  0  0  0  0
  189.2700  178.6680  140.7290 C   0  0  1  0  0  3  0  0  0  0  0  0
  193.3250  176.2150  135.9760 C   0  0  0  0  0  0  0  0  0  0  0  0
  188.9630  173.6860  136.0680 C   0  0  0  0  0  3  0  0  0  0  0  0
  189.2380  174.9720  136.5540 C   0  0  0  0  0  0  0  0  0  0  0  0
  187.6840  173.2340  135.9730 N   0  0  0  0  0  0  0  0  0  0  0  0
  191.4570  175.8950  137.5190 C   0  0  0  0  0  0  0  0  0  0  0  0
  189.7020  176.0800  139.3000 C   0  0  2  0  0  3  0  0  0  0  0  0
  186.6260  174.0110  136.3200 C   0  0  0  0  0  0  0  0  0  0  0  0
  191.0450  175.9860  138.8570 O   0  0  0  0  0  0  0  0  0  0  0  0
  189.2760  178.6420  139.1980 C   0  0  0  0  0  2  0  0  0  0  0  0
  189.0260  177.2640  138.6650 C   0  0  0  0  0  0  0  0  0  0  0  0
  188.3170  177.1110  137.5500 C   0  0  0  0  0  3  0  0  0  0  0  0
  189.6330  177.8950  145.8380 N   0  0  0  0  0  2  0  0  0  0  0  0
  186.4200  178.0910  142.9640 O   0  0  0  0  0  0  0  0  0  0  0  0
  188.5460  177.7220  144.9190 C   0  0  0  0  0  0  0  0  0  0  0  0
  187.9120  178.5780  141.2530 N   0  0  0  0  0  2  0  0  0  0  0  0
  188.6750  178.2350  143.5900 N   0  0  0  0  0  2  0  0  0  0  0  0
  187.6190  178.2860  142.6200 C   0  0  0  0  0  0  0  0  0  0  0  0
  187.5100  177.0910  145.2660 O   0  0  0  0  0  0  0  0  0  0  0  0
  188.8350  176.2350  147.2600 O   0  0  0  0  0  1  0  0  0  0  0  0
  189.6770  177.3460  147.1930 C   0  0  0  0  0  0  0  0  0  0  0  0
  189.2060  178.3820  148.1960 C   0  0  0  0  0  1  0  0  0  0  0  0
  191.0910  176.9080  147.5410 C   0  0  0  0  0  1  0  0  0  0  0  0
  195.7830  175.5780  135.4980 C   0  0  0  0  0  1  0  0  0  0  0  0
  195.0540  177.8230  135.7140 O   0  0  0  0  0  0  0  0  0  0  0  0
  194.7280  176.6050  135.7310 C   0  0  0  0  0  0  0  0  0  0  0  0
  185.2400  173.5010  136.1360 C   0  0  0  0  0  2  0  0  0  0  0  0
  183.5450  174.7700  137.1780 C   0  0  0  0  0  3  0  0  0  0  0  0
  184.4450  173.8660  137.2760 N   0  0  0  0  0  0  0  0  0  0  0  0
  182.7160  175.1530  138.3630 C   0  0  0  0  0  2  0  0  0  0  0  0
  182.7370  176.6600  138.5910 C   0  0  0  0  0  2  0  0  0  0  0  0
  184.0490  177.2070  138.2720 N   0  0  0  0  0  2  0  0  0  0  0  0
  183.5430  179.3680  139.3040 O   0  0  0  0  0  1  0  0  0  0  0  0
  184.4440  178.5210  138.6680 C   0  0  0  0  0  0  0  0  0  0  0  0
  185.6170  178.9170  138.4380 O   0  0  0  0  0  0  0  0  0  0  0  0
  1  4  2  0  0  0  0
  1 10  1  0  0  0  0
  2 20  1  0  0  0  0
  3  5  1  0  0  0  0
  4  8  1  0  0  0  0
  6 14  1  0  0  0  0
  7  2  1  0  0  0  0
  8 12  1  0  0  0  0
  8 14  2  0  0  0  0
  9 24  1  1  0  0  0
  9  5  1  0  0  0  0
 10  6  2  0  0  0  0
 11 12  1  0  0  0  0
 12  2  2  0  0  0  0
 13 11  2  0  0  0  0
 13 16  1  0  0  0  0
 14 17  1  0  0  0  0
 15  3  1  1  0  0  0
 16  7  2  0  0  0  0
 17 15  1  0  0  0  0
 18  9  1  0  0  0  0
 19 18  1  0  0  0  0
 19 15  1  0  0  0  0
 20 19  2  0  0  0  0
 21 29  1  0  0  0  0
 23 27  2  0  0  0  0
 23 21  1  0  0  0  0
 24 26  1  0  0  0  0
 25 23  1  0  0  0  0
 26 22  2  0  0  0  0
 26 25  1  0  0  0  0
 29 28  1  0  0  0  0
 29 31  1  0  0  0  0
 29 30  1  0  0  0  0
 32 34  1  0  0  0  0
 33 34  2  0  0  0  0
 34 10  1  0  0  0  0
 35 16  1  0  0  0  0
 35 37  1  0  0  0  0
 36 37  2  0  0  0  0
 36 38  1  0  0  0  0
 38 39  1  0  0  0  0
 40 39  1  0  0  0  0
 40 42  1  0  0  0  0
 42 41  1  0  0  0  0
 43 42  2  0  0  0  0
M  END
>  <MODEL>
4

>  <REMARK>
 VINA RESULT:      -6.2      3.941     10.442
  Name = 
  8 active torsions:
  status: ('A' for Active; 'I' for Inactive)
    1  A    between atoms: N_1  and  C_13
    2  A    between atoms: N_5  and  C_31
    3  A    between atoms: C_6  and  C_29
    4  A    between atoms: C_6  and  C_31
    5  A    between atoms: C_17  and  N_23
    6  A    between atoms: C_18  and  C_35
    7  A    between atoms: C_33  and  C_40
    8  A    between atoms: C_40  and  N_43
                            x       y       z     vdW  Elec       q    Type
                         _______ _______ _______ _____ _____    ______ ____

>  <TORSDO>
F 8

$$$$
=
 OpenBabel10222415193D

 43 46  0  0  1  0  0  0  0  0999 V2000
  181.1870  172.7870  136.2850 C   0  0  0  0  0  3  0  0  0  0  0  0
  184.2620  176.3670  137.2250 C   0  0  0  0  0  0  0  0  0  0  0  0
  187.5760  173.8040  137.4530 C   0  0  0  0  0  2  0  0  0  0  0  0
  181.6790  173.9620  136.8490 C   0  0  0  0  0  3  0  0  0  0  0  0
  188.2040  173.2780  136.1620 C   0  0  0  0  0  2  0  0  0  0  0  0
  183.4090  171.8620  136.2980 C   0  0  0  0  0  3  0  0  0  0  0  0
  184.3850  177.6240  137.8240 C   0  0  0  0  0  3  0  0  0  0  0  0
  183.0440  174.1200  137.1370 C   0  0  0  0  0  0  0  0  0  0  0  0
  188.1580  174.3380  135.0590 C   0  0  1  0  0  3  0  0  0  0  0  0
  182.0480  171.7260  136.0060 C   0  0  0  0  0  0  0  0  0  0  0  0
  182.7540  175.7210  139.0000 C   0  0  0  0  0  3  0  0  0  0  0  0
  183.4250  175.3880  137.8150 C   0  0  0  0  0  0  0  0  0  0  0  0
  182.9130  176.9450  139.5720 N   0  0  0  0  0  0  0  0  0  0  0  0
  183.9290  173.0380  136.8490 C   0  0  0  0  0  0  0  0  0  0  0  0
  186.1160  174.2020  137.2360 C   0  0  2  0  0  3  0  0  0  0  0  0
  183.7040  177.8960  139.0110 C   0  0  0  0  0  0  0  0  0  0  0  0
  185.3130  173.0440  137.0790 O   0  0  0  0  0  0  0  0  0  0  0  0
  186.7200  174.7800  134.7750 C   0  0  0  0  0  2  0  0  0  0  0  0
  185.9770  175.0980  136.0370 C   0  0  0  0  0  0  0  0  0  0  0  0
  185.0940  176.0940  136.0450 C   0  0  0  0  0  3  0  0  0  0  0  0
  193.0770  172.7180  134.9460 N   0  0  0  0  0  2  0  0  0  0  0  0
  191.0540  176.3800  136.0040 O   0  0  0  0  0  0  0  0  0  0  0  0
  192.4640  173.8780  135.5250 C   0  0  0  0  0  0  0  0  0  0  0  0
  188.9990  175.4750  135.4130 N   0  0  0  0  0  2  0  0  0  0  0  0
  191.1040  174.1780  135.1990 N   0  0  0  0  0  2  0  0  0  0  0  0
  190.4160  175.3830  135.5630 C   0  0  0  0  0  0  0  0  0  0  0  0
  193.1030  174.5980  136.3400 O   0  0  0  0  0  0  0  0  0  0  0  0
  195.3540  173.1610  134.7780 O   0  0  0  0  0  1  0  0  0  0  0  0
  194.4230  172.2390  135.2580 C   0  0  0  0  0  0  0  0  0  0  0  0
  194.6710  170.8970  134.5940 C   0  0  0  0  0  1  0  0  0  0  0  0
  194.6020  172.1030  136.7610 C   0  0  0  0  0  1  0  0  0  0  0  0
  180.0890  170.1020  135.5570 C   0  0  0  0  0  1  0  0  0  0  0  0
  182.2890  169.7150  134.7640 O   0  0  0  0  0  0  0  0  0  0  0  0
  181.5240  170.4800  135.4110 C   0  0  0  0  0  0  0  0  0  0  0  0
  183.7960  179.2450  139.6340 C   0  0  0  0  0  2  0  0  0  0  0  0
  185.5290  178.6910  141.1360 C   0  0  0  0  0  3  0  0  0  0  0  0
  185.1140  179.4280  140.1770 N   0  0  0  0  0  0  0  0  0  0  0  0
  186.9010  178.8800  141.7050 C   0  0  0  0  0  2  0  0  0  0  0  0
  187.9480  178.1340  140.8860 C   0  0  0  0  0  2  0  0  0  0  0  0
  188.6210  177.1340  141.7050 N   0  0  0  0  0  2  0  0  0  0  0  0
  190.6990  177.2930  140.4210 O   0  0  0  0  0  0  0  0  0  0  0  0
  189.9840  176.7670  141.4920 C   0  0  0  0  0  0  0  0  0  0  0  0
  190.5430  175.9570  142.2770 O   0  0  0  0  0  1  0  0  0  0  0  0
  1  4  1  0  0  0  0
  2 12  2  0  0  0  0
  2  7  1  0  0  0  0
  4  8  2  0  0  0  0
  5  3  1  0  0  0  0
  6 14  2  0  0  0  0
  7 16  2  0  0  0  0
  8 12  1  0  0  0  0
  9 24  1  1  0  0  0
  9  5  1  0  0  0  0
 10  1  2  0  0  0  0
 10  6  1  0  0  0  0
 11 13  2  0  0  0  0
 12 11  1  0  0  0  0
 14 17  1  0  0  0  0
 14  8  1  0  0  0  0
 15  3  1  6  0  0  0
 16 13  1  0  0  0  0
 16 35  1  0  0  0  0
 17 15  1  0  0  0  0
 18  9  1  0  0  0  0
 18 19  1  0  0  0  0
 19 20  2  0  0  0  0
 19 15  1  0  0  0  0
 20  2  1  0  0  0  0
 21 29  1  0  0  0  0
 21 23  1  0  0  0  0
 23 27  2  0  0  0  0
 24 26  1  0  0  0  0
 25 23  1  0  0  0  0
 25 26  1  0  0  0  0
 26 22  2  0  0  0  0
 28 29  1  0  0  0  0
 29 31  1  0  0  0  0
 30 29  1  0  0  0  0
 33 34  2  0  0  0  0
 34 32  1  0  0  0  0
 34 10  1  0  0  0  0
 35 37  1  0  0  0  0
 36 38  1  0  0  0  0
 37 36  2  0  0  0  0
 39 38  1  0  0  0  0
 39 40  1  0  0  0  0
 41 42  2  0  0  0  0
 42 40  1  0  0  0  0
 42 43  1  0  0  0  0
M  END
>  <MODEL>
5

>  <REMARK>
 VINA RESULT:      -5.9      3.991      6.842
  Name = 
  8 active torsions:
  status: ('A' for Active; 'I' for Inactive)
    1  A    between atoms: N_1  and  C_13
    2  A    between atoms: N_5  and  C_31
    3  A    between atoms: C_6  and  C_29
    4  A    between atoms: C_6  and  C_31
    5  A    between atoms: C_17  and  N_23
    6  A    between atoms: C_18  and  C_35
    7  A    between atoms: C_33  and  C_40
    8  A    between atoms: C_40  and  N_43
                            x       y       z     vdW  Elec       q    Type
                         _______ _______ _______ _____ _____    ______ ____

>  <TORSDO>
F 8

$$$$
=
 OpenBabel10222415193D

 43 46  0  0  1  0  0  0  0  0999 V2000
  193.7020  175.0560  137.6050 C   0  0  0  0  0  3  0  0  0  0  0  0
  189.9850  176.5970  140.2450 C   0  0  0  0  0  0  0  0  0  0  0  0
  188.3570  178.8490  137.1020 C   0  0  0  0  0  2  0  0  0  0  0  0
  193.0070  175.5400  138.7110 C   0  0  0  0  0  3  0  0  0  0  0  0
  187.5850  178.1340  135.9910 C   0  0  0  0  0  2  0  0  0  0  0  0
  192.2310  176.2890  136.1520 C   0  0  0  0  0  3  0  0  0  0  0  0
  189.5770  176.9230  141.5410 C   0  0  0  0  0  3  0  0  0  0  0  0
  191.9030  176.3960  138.5650 C   0  0  0  0  0  0  0  0  0  0  0  0
  186.7890  176.9530  136.5510 C   0  0  1  0  0  3  0  0  0  0  0  0
  193.3210  175.4280  136.3160 C   0  0  0  0  0  0  0  0  0  0  0  0
  192.1510  177.5490  140.7380 C   0  0  0  0  0  3  0  0  0  0  0  0
  191.3020  176.9070  139.8250 C   0  0  0  0  0  0  0  0  0  0  0  0
  191.7170  177.8740  141.9850 N   0  0  0  0  0  0  0  0  0  0  0  0
  191.5070  176.7750  137.2470 C   0  0  0  0  0  0  0  0  0  0  0  0
  189.3350  177.9010  137.7940 C   0  0  2  0  0  3  0  0  0  0  0  0
  190.4600  177.5730  142.4040 C   0  0  0  0  0  0  0  0  0  0  0  0
  190.4300  177.6190  136.9390 O   0  0  0  0  0  0  0  0  0  0  0  0
  187.7070  175.9480  137.2530 C   0  0  0  0  0  2  0  0  0  0  0  0
  188.6500  176.6250  138.2010 C   0  0  0  0  0  0  0  0  0  0  0  0
  188.9790  176.0240  139.3400 C   0  0  0  0  0  3  0  0  0  0  0  0
  182.8870  173.5550  136.3040 N   0  0  0  0  0  2  0  0  0  0  0  0
  183.5740  177.3330  138.2740 O   0  0  0  0  0  0  0  0  0  0  0  0
  182.9560  174.8990  136.8000 C   0  0  0  0  0  0  0  0  0  0  0  0
  185.7420  177.4270  137.4480 N   0  0  0  0  0  2  0  0  0  0  0  0
  184.2370  175.5180  136.9450 N   0  0  0  0  0  2  0  0  0  0  0  0
  184.4740  176.7830  137.5800 C   0  0  0  0  0  0  0  0  0  0  0  0
  181.9010  175.5380  137.0650 O   0  0  0  0  0  0  0  0  0  0  0  0
  181.9340  171.7590  135.1730 O   0  0  0  0  0  1  0  0  0  0  0  0
  181.6480  172.8320  136.0200 C   0  0  0  0  0  0  0  0  0  0  0  0
  180.6500  173.7460  135.3350 C   0  0  0  0  0  1  0  0  0  0  0  0
  181.0430  172.2900  137.3050 C   0  0  0  0  0  1  0  0  0  0  0  0
  195.2340  175.6540  134.5940 C   0  0  0  0  0  1  0  0  0  0  0  0
  193.7110  173.8380  134.5940 O   0  0  0  0  0  0  0  0  0  0  0  0
  194.0620  174.9160  135.1450 C   0  0  0  0  0  0  0  0  0  0  0  0
  190.0490  177.8860  143.7990 C   0  0  0  0  0  2  0  0  0  0  0  0
  187.9000  178.1670  144.7330 C   0  0  0  0  0  3  0  0  0  0  0  0
  188.6840  177.4770  143.9950 N   0  0  0  0  0  0  0  0  0  0  0  0
  186.4790  177.7440  144.9410 C   0  0  0  0  0  2  0  0  0  0  0  0
  185.7620  178.6700  145.9160 C   0  0  0  0  0  2  0  0  0  0  0  0
  184.3220  178.6280  145.6970 N   0  0  0  0  0  2  0  0  0  0  0  0
  184.4910  179.7220  143.5140 O   0  0  0  0  0  0  0  0  0  0  0  0
  183.7200  179.1060  144.4940 C   0  0  0  0  0  0  0  0  0  0  0  0
  182.4800  178.9740  144.3210 O   0  0  0  0  0  1  0  0  0  0  0  0
  1  4  1  0  0  0  0
  2  7  1  0  0  0  0
  5  9  1  0  0  0  0
  5  3  1  0  0  0  0
  6 10  1  0  0  0  0
  6 14  2  0  0  0  0
  7 16  2  0  0  0  0
  8  4  2  0  0  0  0
  8 12  1  0  0  0  0
  9 18  1  0  0  0  0
  9 24  1  1  0  0  0
 10  1  2  0  0  0  0
 11 13  2  0  0  0  0
 12  2  2  0  0  0  0
 12 11  1  0  0  0  0
 13 16  1  0  0  0  0
 14  8  1  0  0  0  0
 15  3  1  6  0  0  0
 15 19  1  0  0  0  0
 16 35  1  0  0  0  0
 17 14  1  0  0  0  0
 17 15  1  0  0  0  0
 18 19  1  0  0  0  0
 19 20  2  0  0  0  0
 20  2  1  0  0  0  0
 21 23  1  0  0  0  0
 23 25  1  0  0  0  0
 23 27  2  0  0  0  0
 24 26  1  0  0  0  0
 25 26  1  0  0  0  0
 26 22  2  0  0  0  0
 28 29  1  0  0  0  0
 29 21  1  0  0  0  0
 29 31  1  0  0  0  0
 30 29  1  0  0  0  0
 32 34  1  0  0  0  0
 33 34  2  0  0  0  0
 34 10  1  0  0  0  0
 35 37  1  0  0  0  0
 36 38  1  0  0  0  0
 37 36  2  0  0  0  0
 38 39  1  0  0  0  0
 40 39  1  0  0  0  0
 41 42  2  0  0  0  0
 42 40  1  0  0  0  0
 43 42  1  0  0  0  0
M  END
>  <MODEL>
6

>  <REMARK>
 VINA RESULT:      -5.9      4.143      9.030
  Name = 
  8 active torsions:
  status: ('A' for Active; 'I' for Inactive)
    1  A    between atoms: N_1  and  C_13
    2  A    between atoms: N_5  and  C_31
    3  A    between atoms: C_6  and  C_29
    4  A    between atoms: C_6  and  C_31
    5  A    between atoms: C_17  and  N_23
    6  A    between atoms: C_18  and  C_35
    7  A    between atoms: C_33  and  C_40
    8  A    between atoms: C_40  and  N_43
                            x       y       z     vdW  Elec       q    Type
                         _______ _______ _______ _____ _____    ______ ____

>  <TORSDO>
F 8

$$$$
=
 OpenBabel10222415193D

 43 46  0  0  1  0  0  0  0  0999 V2000
  186.0640  179.3460  143.3920 C   0  0  0  0  0  3  0  0  0  0  0  0
  185.1550  178.9200  138.6850 C   0  0  0  0  0  0  0  0  0  0  0  0
  181.8280  176.4370  139.2910 C   0  0  0  0  0  2  0  0  0  0  0  0
  186.3120  179.1850  142.0300 C   0  0  0  0  0  3  0  0  0  0  0  0
  180.5030  177.0570  139.7380 C   0  0  0  0  0  2  0  0  0  0  0  0
  184.0020  178.1270  143.1490 C   0  0  0  0  0  3  0  0  0  0  0  0
  185.7420  178.9010  137.4170 C   0  0  0  0  0  3  0  0  0  0  0  0
  185.4090  178.5070  141.1960 C   0  0  0  0  0  0  0  0  0  0  0  0
  180.2990  178.4320  139.0980 C   0  0  1  0  0  3  0  0  0  0  0  0
  184.9070  178.8170  143.9630 C   0  0  0  0  0  0  0  0  0  0  0  0
  187.0780  177.7350  139.5430 C   0  0  0  0  0  3  0  0  0  0  0  0
  185.8320  178.3320  139.7810 C   0  0  0  0  0  0  0  0  0  0  0  0
  187.6130  177.7120  138.2930 N   0  0  0  0  0  0  0  0  0  0  0  0
  184.2220  177.9680  141.7770 C   0  0  0  0  0  0  0  0  0  0  0  0
  183.0120  177.3220  139.6770 C   0  0  2  0  0  3  0  0  0  0  0  0
  186.9790  178.2810  137.2350 C   0  0  0  0  0  0  0  0  0  0  0  0
  183.2280  177.2670  141.0770 O   0  0  0  0  0  0  0  0  0  0  0  0
  181.4450  179.3840  139.4510 C   0  0  0  0  0  2  0  0  0  0  0  0
  182.7840  178.7440  139.2410 C   0  0  0  0  0  0  0  0  0  0  0  0
  183.8000  179.4780  138.7960 C   0  0  0  0  0  3  0  0  0  0  0  0
  180.8020  183.1650  137.0540 N   0  0  0  0  0  2  0  0  0  0  0  0
  179.8750  179.2300  135.5440 O   0  0  0  0  0  0  0  0  0  0  0  0
  180.2700  181.9440  136.5220 C   0  0  0  0  0  0  0  0  0  0  0  0
  180.1480  178.3000  137.6540 N   0  0  0  0  0  2  0  0  0  0  0  0
  180.4710  180.7270  137.2470 N   0  0  0  0  0  2  0  0  0  0  0  0
  180.1470  179.4160  136.7620 C   0  0  0  0  0  0  0  0  0  0  0  0
  179.6020  181.9510  135.4520 O   0  0  0  0  0  0  0  0  0  0  0  0
  181.5180  185.3780  137.0290 O   0  0  0  0  0  1  0  0  0  0  0  0
  180.5970  184.4900  136.4710 C   0  0  0  0  0  0  0  0  0  0  0  0
  179.1940  184.9850  136.7690 C   0  0  0  0  0  1  0  0  0  0  0  0
  180.8120  184.4470  134.9670 C   0  0  0  0  0  1  0  0  0  0  0  0
  185.7690  179.1320  146.3790 C   0  0  0  0  0  1  0  0  0  0  0  0
  183.4640  179.0100  145.8400 O   0  0  0  0  0  0  0  0  0  0  0  0
  184.6470  178.9850  145.4070 C   0  0  0  0  0  0  0  0  0  0  0  0
  187.6320  178.2920  135.8980 C   0  0  0  0  0  2  0  0  0  0  0  0
  188.1630  175.9930  135.9060 C   0  0  0  0  0  3  0  0  0  0  0  0
  188.5670  177.2040  135.8160 N   0  0  0  0  0  0  0  0  0  0  0  0
  189.1340  174.8570  135.8230 C   0  0  0  0  0  2  0  0  0  0  0  0
  190.3970  175.1470  136.6250 C   0  0  0  0  0  2  0  0  0  0  0  0
  190.0790  175.3210  138.0360 N   0  0  0  0  0  2  0  0  0  0  0  0
  191.9980  176.7910  138.4210 O   0  0  0  0  0  0  0  0  0  0  0  0
  190.8480  176.1660  138.8920 C   0  0  0  0  0  0  0  0  0  0  0  0
  190.4840  176.3460  140.0840 O   0  0  0  0  0  1  0  0  0  0  0  0
  1 10  1  0  0  0  0
  2 20  1  0  0  0  0
  2 12  1  0  0  0  0
  3  5  1  0  0  0  0
  4  1  2  0  0  0  0
  6 10  2  0  0  0  0
  7  2  2  0  0  0  0
  8 14  2  0  0  0  0
  8  4  1  0  0  0  0
  9 24  1  6  0  0  0
  9 18  1  0  0  0  0
  9  5  1  0  0  0  0
 10 34  1  0  0  0  0
 11 12  2  0  0  0  0
 12  8  1  0  0  0  0
 13 11  1  0  0  0  0
 14  6  1  0  0  0  0
 15  3  1  1  0  0  0
 15 17  1  0  0  0  0
 16  7  1  0  0  0  0
 16 13  2  0  0  0  0
 17 14  1  0  0  0  0
 19 18  1  0  0  0  0
 19 15  1  0  0  0  0
 20 19  2  0  0  0  0
 22 26  2  0  0  0  0
 23 21  1  0  0  0  0
 23 25  1  0  0  0  0
 26 25  1  0  0  0  0
 26 24  1  0  0  0  0
 27 23  2  0  0  0  0
 29 30  1  0  0  0  0
 29 28  1  0  0  0  0
 29 21  1  0  0  0  0
 31 29  1  0  0  0  0
 34 33  2  0  0  0  0
 34 32  1  0  0  0  0
 35 16  1  0  0  0  0
 37 35  1  0  0  0  0
 37 36  2  0  0  0  0
 38 36  1  0  0  0  0
 38 39  1  0  0  0  0
 39 40  1  0  0  0  0
 40 42  1  0  0  0  0
 41 42  2  0  0  0  0
 42 43  1  0  0  0  0
M  END
>  <MODEL>
7

>  <REMARK>
 VINA RESULT:      -5.8      2.993      8.508
  Name = 
  8 active torsions:
  status: ('A' for Active; 'I' for Inactive)
    1  A    between atoms: N_1  and  C_13
    2  A    between atoms: N_5  and  C_31
    3  A    between atoms: C_6  and  C_29
    4  A    between atoms: C_6  and  C_31
    5  A    between atoms: C_17  and  N_23
    6  A    between atoms: C_18  and  C_35
    7  A    between atoms: C_33  and  C_40
    8  A    between atoms: C_40  and  N_43
                            x       y       z     vdW  Elec       q    Type
                         _______ _______ _______ _____ _____    ______ ____

>  <TORSDO>
F 8

$$$$
=
 OpenBabel10222415193D

 43 46  0  0  1  0  0  0  0  0999 V2000
  180.4370  172.3300  136.3050 C   0  0  0  0  0  3  0  0  0  0  0  0
  182.6300  176.4570  137.4520 C   0  0  0  0  0  0  0  0  0  0  0  0
  186.4660  174.7670  137.2660 C   0  0  0  0  0  2  0  0  0  0  0  0
  180.6730  173.5370  136.9600 C   0  0  0  0  0  3  0  0  0  0  0  0
  187.1100  174.5230  135.9000 C   0  0  0  0  0  2  0  0  0  0  0  0
  182.8110  171.9760  136.1200 C   0  0  0  0  0  3  0  0  0  0  0  0
  182.4930  177.6500  138.1680 C   0  0  0  0  0  3  0  0  0  0  0  0
  181.9790  173.9970  137.1980 C   0  0  0  0  0  0  0  0  0  0  0  0
  186.7360  175.6310  134.9130 C   0  0  1  0  0  3  0  0  0  0  0  0
  181.5030  171.5380  135.8800 C   0  0  0  0  0  0  0  0  0  0  0  0
  181.4470  175.3140  139.2230 C   0  0  0  0  0  3  0  0  0  0  0  0
  182.0930  175.2570  137.9800 C   0  0  0  0  0  0  0  0  0  0  0  0
  181.3500  176.4850  139.9060 N   0  0  0  0  0  0  0  0  0  0  0  0
  183.0720  173.1920  136.7610 C   0  0  0  0  0  0  0  0  0  0  0  0
  184.9420  174.8150  137.1590 C   0  0  2  0  0  3  0  0  0  0  0  0
  181.8510  177.6450  139.4070 C   0  0  0  0  0  0  0  0  0  0  0  0
  184.4280  173.5140  136.9250 O   0  0  0  0  0  0  0  0  0  0  0  0
  185.2170  175.7320  134.7420 C   0  0  0  0  0  2  0  0  0  0  0  0
  184.5100  175.7500  136.0630 C   0  0  0  0  0  0  0  0  0  0  0  0
  183.4190  176.4960  136.2130 C   0  0  0  0  0  3  0  0  0  0  0  0
  191.7870  174.8580  135.7620 N   0  0  0  0  0  2  0  0  0  0  0  0
  189.0460  178.1580  136.2240 O   0  0  0  0  0  0  0  0  0  0  0  0
  190.9010  175.9160  136.1520 C   0  0  0  0  0  0  0  0  0  0  0  0
  187.3050  176.9030  135.3390 N   0  0  0  0  0  2  0  0  0  0  0  0
  189.5940  175.9730  135.5750 N   0  0  0  0  0  2  0  0  0  0  0  0
  188.6670  177.0560  135.7400 C   0  0  0  0  0  0  0  0  0  0  0  0
  191.2570  176.7590  137.0210 O   0  0  0  0  0  0  0  0  0  0  0  0
  192.9700  174.2700  137.6760 O   0  0  0  0  0  1  0  0  0  0  0  0
  193.1120  174.6230  136.3330 C   0  0  0  0  0  0  0  0  0  0  0  0
  193.9560  175.8810  136.2410 C   0  0  0  0  0  1  0  0  0  0  0  0
  193.8110  173.4880  135.6020 C   0  0  0  0  0  1  0  0  0  0  0  0
  179.8910  169.6470  135.1760 C   0  0  0  0  0  1  0  0  0  0  0  0
  182.1880  169.6630  134.5940 O   0  0  0  0  0  0  0  0  0  0  0  0
  181.2500  170.2580  135.1890 C   0  0  0  0  0  0  0  0  0  0  0  0
  181.6630  178.9170  140.1570 C   0  0  0  0  0  2  0  0  0  0  0  0
  182.6710  178.9210  142.2900 C   0  0  0  0  0  3  0  0  0  0  0  0
  181.6540  178.6400  141.5670 N   0  0  0  0  0  0  0  0  0  0  0  0
  182.6660  178.6330  143.7590 C   0  0  0  0  0  2  0  0  0  0  0  0
  183.7350  179.4410  144.4850 C   0  0  0  0  0  2  0  0  0  0  0  0
  184.9870  178.6970  144.5460 N   0  0  0  0  0  2  0  0  0  0  0  0
  184.9750  178.6230  146.9930 O   0  0  0  0  0  1  0  0  0  0  0  0
  185.5570  178.2650  145.7810 C   0  0  0  0  0  0  0  0  0  0  0  0
  186.5970  177.5560  145.7750 O   0  0  0  0  0  0  0  0  0  0  0  0
  1  4  1  0  0  0  0
  2 12  2  0  0  0  0
  2  7  1  0  0  0  0
  4  8  2  0  0  0  0
  5  3  1  0  0  0  0
  6 14  2  0  0  0  0
  7 16  2  0  0  0  0
  8 12  1  0  0  0  0
  9 24  1  1  0  0  0
  9  5  1  0  0  0  0
 10  6  1  0  0  0  0
 10  1  2  0  0  0  0
 11 13  2  0  0  0  0
 12 11  1  0  0  0  0
 14 17  1  0  0  0  0
 14  8  1  0  0  0  0
 15  3  1  6  0  0  0
 16 13  1  0  0  0  0
 16 35  1  0  0  0  0
 17 15  1  0  0  0  0
 18  9  1  0  0  0  0
 18 19  1  0  0  0  0
 19 20  2  0  0  0  0
 19 15  1  0  0  0  0
 20  2  1  0  0  0  0
 21 23  1  0  0  0  0
 21 29  1  0  0  0  0
 23 27  2  0  0  0  0
 24 26  1  0  0  0  0
 25 26  1  0  0  0  0
 25 23  1  0  0  0  0
 26 22  2  0  0  0  0
 29 28  1  0  0  0  0
 30 29  1  0  0  0  0
 31 29  1  0  0  0  0
 32 34  1  0  0  0  0
 33 34  2  0  0  0  0
 34 10  1  0  0  0  0
 35 37  1  0  0  0  0
 36 38  1  0  0  0  0
 37 36  2  0  0  0  0
 38 39  1  0  0  0  0
 39 40  1  0  0  0  0
 40 42  1  0  0  0  0
 42 41  1  0  0  0  0
 43 42  2  0  0  0  0
M  END
>  <MODEL>
8

>  <REMARK>
 VINA RESULT:      -5.7      3.256      6.275
  Name = 
  8 active torsions:
  status: ('A' for Active; 'I' for Inactive)
    1  A    between atoms: N_1  and  C_13
    2  A    between atoms: N_5  and  C_31
    3  A    between atoms: C_6  and  C_29
    4  A    between atoms: C_6  and  C_31
    5  A    between atoms: C_17  and  N_23
    6  A    between atoms: C_18  and  C_35
    7  A    between atoms: C_33  and  C_40
    8  A    between atoms: C_40  and  N_43
                            x       y       z     vdW  Elec       q    Type
                         _______ _______ _______ _____ _____    ______ ____

>  <TORSDO>
F 8

$$$$
=
 OpenBabel10222415193D

 43 46  0  0  1  0  0  0  0  0999 V2000
  192.5280  175.5920  135.0550 C   0  0  0  0  0  3  0  0  0  0  0  0
  188.1280  175.5490  137.0030 C   0  0  0  0  0  0  0  0  0  0  0  0
  189.5600  176.2560  140.8830 C   0  0  0  0  0  2  0  0  0  0  0  0
  191.2160  175.1880  135.2900 C   0  0  0  0  0  3  0  0  0  0  0  0
  189.9850  177.6720  141.2760 C   0  0  0  0  0  2  0  0  0  0  0  0
  192.7460  176.2010  137.3740 C   0  0  0  0  0  3  0  0  0  0  0  0
  186.8450  175.0090  136.8860 C   0  0  0  0  0  3  0  0  0  0  0  0
  190.6340  175.2930  136.5640 C   0  0  0  0  0  0  0  0  0  0  0  0
  189.0860  178.7180  140.6130 C   0  0  1  0  0  3  0  0  0  0  0  0
  193.3060  176.1010  136.0960 C   0  0  0  0  0  0  0  0  0  0  0  0
  189.0370  173.4240  136.2980 C   0  0  0  0  0  3  0  0  0  0  0  0
  189.2570  174.7490  136.6990 C   0  0  0  0  0  0  0  0  0  0  0  0
  187.7770  172.9190  136.2170 N   0  0  0  0  0  0  0  0  0  0  0  0
  191.4250  175.8170  137.6300 C   0  0  0  0  0  0  0  0  0  0  0  0
  189.6350  176.0570  139.3700 C   0  0  2  0  0  3  0  0  0  0  0  0
  186.6860  173.6780  136.4950 C   0  0  0  0  0  0  0  0  0  0  0  0
  190.9880  175.9830  138.9530 O   0  0  0  0  0  0  0  0  0  0  0  0
  189.1180  178.5890  139.0870 C   0  0  0  0  0  2  0  0  0  0  0  0
  188.9280  177.1700  138.6450 C   0  0  0  0  0  0  0  0  0  0  0  0
  188.2430  176.9150  137.5340 C   0  0  0  0  0  3  0  0  0  0  0  0
  189.4040  177.9190  145.7200 N   0  0  0  0  0  2  0  0  0  0  0  0
  186.2190  178.1040  142.8150 O   0  0  0  0  0  0  0  0  0  0  0  0
  188.3280  177.7420  144.7890 C   0  0  0  0  0  0  0  0  0  0  0  0
  187.7240  178.6130  141.1220 N   0  0  0  0  0  2  0  0  0  0  0  0
  188.4670  178.2640  143.4650 N   0  0  0  0  0  2  0  0  0  0  0  0
  187.4200  178.3120  142.4840 C   0  0  0  0  0  0  0  0  0  0  0  0
  187.2940  177.1010  145.1220 O   0  0  0  0  0  0  0  0  0  0  0  0
  188.4710  176.3630  147.1770 O   0  0  0  0  0  1  0  0  0  0  0  0
  189.4400  177.3620  147.0720 C   0  0  0  0  0  0  0  0  0  0  0  0
  189.1440  178.4440  148.0950 C   0  0  0  0  0  1  0  0  0  0  0  0
  190.8030  176.7520  147.3590 C   0  0  0  0  0  1  0  0  0  0  0  0
  195.8070  175.5310  135.7910 C   0  0  0  0  0  1  0  0  0  0  0  0
  194.9670  177.7440  135.6690 O   0  0  0  0  0  0  0  0  0  0  0  0
  194.6980  176.5250  135.8450 C   0  0  0  0  0  0  0  0  0  0  0  0
  185.3220  173.1060  136.3260 C   0  0  0  0  0  2  0  0  0  0  0  0
  183.2640  174.0220  137.0290 C   0  0  0  0  0  3  0  0  0  0  0  0
  184.3530  174.1670  136.3730 N   0  0  0  0  0  0  0  0  0  0  0  0
  182.2520  175.1240  137.0800 C   0  0  0  0  0  2  0  0  0  0  0  0
  180.8840  174.6410  136.6120 C   0  0  0  0  0  2  0  0  0  0  0  0
  180.8540  173.1860  136.5330 N   0  0  0  0  0  2  0  0  0  0  0  0
  179.2350  172.9920  138.3580 O   0  0  0  0  0  1  0  0  0  0  0  0
  180.0060  172.3960  137.3660 C   0  0  0  0  0  0  0  0  0  0  0  0
  179.9570  171.1480  137.2030 O   0  0  0  0  0  0  0  0  0  0  0  0
  1  4  2  0  0  0  0
  1 10  1  0  0  0  0
  2 20  1  0  0  0  0
  3  5  1  0  0  0  0
  4  8  1  0  0  0  0
  6 14  1  0  0  0  0
  7  2  1  0  0  0  0
  8 12  1  0  0  0  0
  8 14  2  0  0  0  0
  9 24  1  1  0  0  0
  9  5  1  0  0  0  0
 10  6  2  0  0  0  0
 11 12  1  0  0  0  0
 12  2  2  0  0  0  0
 13 11  2  0  0  0  0
 13 16  1  0  0  0  0
 14 17  1  0  0  0  0
 15  3  1  1  0  0  0
 16  7  2  0  0  0  0
 17 15  1  0  0  0  0
 18  9  1  0  0  0  0
 19 18  1  0  0  0  0
 19 15  1  0  0  0  0
 20 19  2  0  0  0  0
 21 29  1  0  0  0  0
 23 27  2  0  0  0  0
 23 21  1  0  0  0  0
 24 26  1  0  0  0  0
 25 23  1  0  0  0  0
 26 22  2  0  0  0  0
 26 25  1  0  0  0  0
 29 28  1  0  0  0  0
 29 31  1  0  0  0  0
 29 30  1  0  0  0  0
 32 34  1  0  0  0  0
 33 34  2  0  0  0  0
 34 10  1  0  0  0  0
 35 37  1  0  0  0  0
 35 16  1  0  0  0  0
 36 38  1  0  0  0  0
 37 36  2  0  0  0  0
 39 38  1  0  0  0  0
 40 39  1  0  0  0  0
 40 42  1  0  0  0  0
 42 41  1  0  0  0  0
 43 42  2  0  0  0  0
M  END
>  <MODEL>
9

>  <REMARK>
 VINA RESULT:      -5.5      4.827     10.899
  Name = 
  8 active torsions:
  status: ('A' for Active; 'I' for Inactive)
    1  A    between atoms: N_1  and  C_13
    2  A    between atoms: N_5  and  C_31
    3  A    between atoms: C_6  and  C_29
    4  A    between atoms: C_6  and  C_31
    5  A    between atoms: C_17  and  N_23
    6  A    between atoms: C_18  and  C_35
    7  A    between atoms: C_33  and  C_40
    8  A    between atoms: C_40  and  N_43
                            x       y       z     vdW  Elec       q    Type
                         _______ _______ _______ _____ _____    ______ ____

>  <TORSDO>
F 8

$$$$
