=
 OpenBabel10222415143D

 34 40  0  0  1  0  0  0  0  0999 V2000
  187.8960  177.5230  141.7390 C   0  0  2  0  0  3  0  0  0  0  0  0
  187.6930  178.4990  136.6690 C   0  0  0  0  0  3  0  0  0  0  0  0
  189.0320  178.2130  136.9410 C   0  0  0  0  0  3  0  0  0  0  0  0
  187.1530  178.1690  138.9760 N   0  0  0  0  0  0  0  0  0  0  0  0
  188.8570  177.5850  140.5860 C   0  0  0  0  0  0  0  0  0  0  0  0
  188.4530  177.8900  139.2720 C   0  0  0  0  0  0  0  0  0  0  0  0
  186.7600  178.4740  137.7100 C   0  0  0  0  0  3  0  0  0  0  0  0
  189.4220  177.9070  138.2440 C   0  0  0  0  0  0  0  0  0  0  0  0
  191.1260  177.3320  139.7890 C   0  0  0  0  0  3  0  0  0  0  0  0
  190.7220  177.6290  138.5240 N   0  0  0  0  0  0  0  0  0  0  0  0
  190.2030  177.3060  140.8380 C   0  0  0  0  0  3  0  0  0  0  0  0
  186.7130  178.3340  141.4760 N   0  0  0  0  0  2  0  0  0  0  0  0
  185.4600  179.8410  142.9290 C   0  0  0  0  0  2  0  0  0  0  0  0
  185.9440  178.4100  142.7110 C   0  0  1  0  0  3  0  0  0  0  0  0
  184.4940  178.7810  142.4490 C   0  0  1  0  0  0  0  0  0  0  0  0
  183.6160  178.3360  143.4350 O   0  0  0  0  0  1  0  0  0  0  0  0
  183.9650  178.8810  141.0130 C   0  0  2  0  0  0  0  0  0  0  0  0
  183.7890  177.3320  138.9910 C   0  0  0  0  0  2  0  0  0  0  0  0
  182.5150  179.2500  138.1950 C   0  0  0  0  0  2  0  0  0  0  0  0
  181.9200  179.5640  139.5620 C   0  0  0  0  0  2  0  0  0  0  0  0
  182.4670  178.7560  140.7620 C   0  0  1  0  0  3  0  0  0  0  0  0
  183.4090  177.5670  140.4600 C   0  0  2  0  0  3  0  0  0  0  0  0
  184.6980  179.6650  140.1140 O   0  0  0  0  0  1  0  0  0  0  0  0
  182.6990  177.7640  138.0320 C   0  0  0  0  0  2  0  0  0  0  0  0
  188.5440  177.9700  142.9640 N   0  0  0  0  0  2  0  0  0  0  0  0
  190.9660  177.0460  145.3040 S   0  0  0  0  0  0  0  0  0  0  0  0
  187.0230  177.5460  145.7180 C   0  0  0  0  0  3  0  0  0  0  0  0
  190.0470  176.2950  143.9050 C   0  0  0  0  0  2  0  0  0  0  0  0
  189.4090  177.4210  146.0670 C   0  0  0  0  0  0  0  0  0  0  0  0
  189.2610  177.8240  147.3940 C   0  0  0  0  0  3  0  0  0  0  0  0
  188.3100  177.2810  145.2450 C   0  0  0  0  0  0  0  0  0  0  0  0
  187.9750  178.0970  147.8840 C   0  0  0  0  0  3  0  0  0  0  0  0
  186.8580  177.9580  147.0470 C   0  0  0  0  0  3  0  0  0  0  0  0
  188.6140  176.8330  143.8670 C   0  0  1  0  0  3  0  0  0  0  0  0
  1 12  1  6  0  0  0
  1 25  1  0  0  0  0
  2  3  2  0  0  0  0
  2  7  1  0  0  0  0
  3  8  1  0  0  0  0
  4  6  1  0  0  0  0
  5 11  1  0  0  0  0
  5  1  1  0  0  0  0
  6  5  2  0  0  0  0
  7  4  2  0  0  0  0
  8 10  2  0  0  0  0
  8  6  1  0  0  0  0
  9 11  2  0  0  0  0
 10  9  1  0  0  0  0
 14 12  1  6  0  0  0
 14 13  1  0  0  0  0
 15 14  1  0  0  0  0
 15 13  1  0  0  0  0
 15 16  1  1  0  0  0
 17 23  1  6  0  0  0
 17 15  1  0  0  0  0
 19 20  1  0  0  0  0
 21 20  1  6  0  0  0
 21 17  1  0  0  0  0
 22 18  1  6  0  0  0
 22 21  1  0  0  0  0
 22 17  1  0  0  0  0
 24 19  1  0  0  0  0
 24 18  1  0  0  0  0
 26 29  1  0  0  0  0
 27 33  1  0  0  0  0
 28 26  1  0  0  0  0
 29 30  2  0  0  0  0
 30 32  1  0  0  0  0
 31 27  2  0  0  0  0
 31 29  1  0  0  0  0
 33 32  2  0  0  0  0
 34 25  1  6  0  0  0
 34 28  1  0  0  0  0
 34 31  1  0  0  0  0
M  END
>  <MODEL>
1

>  <REMARK>
 VINA RESULT:      -9.2      0.000      0.000
  Name = 
  6 active torsions:
  status: ('A' for Active; 'I' for Inactive)
    1  A    between atoms: C_3  and  C_22
    2  A    between atoms: C_7  and  C_18
    3  A    between atoms: N_17  and  C_18
    4  A    between atoms: N_17  and  C_20
    5  A    between atoms: C_18  and  N_19
    6  A    between atoms: N_19  and  C_32
                            x       y       z     vdW  Elec       q    Type
                         _______ _______ _______ _____ _____    ______ ____

>  <TORSDO>
F 6

$$$$
=
 OpenBabel10222415143D

 34 40  0  0  1  0  0  0  0  0999 V2000
  186.0690  178.6460  142.2170 C   0  0  2  0  0  3  0  0  0  0  0  0
  187.5540  177.6780  147.0710 C   0  0  0  0  0  3  0  0  0  0  0  0
  186.2100  178.0430  147.1580 C   0  0  0  0  0  3  0  0  0  0  0  0
  187.4820  177.9710  144.6970 N   0  0  0  0  0  0  0  0  0  0  0  0
  185.4550  178.6790  143.5880 C   0  0  0  0  0  0  0  0  0  0  0  0
  186.1700  178.3360  144.7520 C   0  0  0  0  0  0  0  0  0  0  0  0
  188.1790  177.6480  145.8200 C   0  0  0  0  0  3  0  0  0  0  0  0
  185.5090  178.3760  146.0000 C   0  0  0  0  0  0  0  0  0  0  0  0
  183.4980  179.0690  144.9520 C   0  0  0  0  0  3  0  0  0  0  0  0
  184.2000  178.7370  146.0690 N   0  0  0  0  0  0  0  0  0  0  0  0
  184.1120  179.0460  143.6970 C   0  0  0  0  0  3  0  0  0  0  0  0
  185.0870  178.2360  141.2180 N   0  0  0  0  0  2  0  0  0  0  0  0
  184.8970  178.5850  138.8100 C   0  0  0  0  0  2  0  0  0  0  0  0
  185.0710  179.2510  140.1720 C   0  0  1  0  0  3  0  0  0  0  0  0
  183.7320  179.3000  139.4570 C   0  0  1  0  0  0  0  0  0  0  0  0
  183.4480  180.5380  138.8840 O   0  0  0  0  0  1  0  0  0  0  0  0
  182.5520  178.4570  139.9570 C   0  0  2  0  0  0  0  0  0  0  0  0
  181.0560  178.4070  142.0260 C   0  0  0  0  0  2  0  0  0  0  0  0
  179.9270  176.7680  140.6200 C   0  0  0  0  0  2  0  0  0  0  0  0
  180.2140  177.5160  139.3240 C   0  0  0  0  0  2  0  0  0  0  0  0
  181.1540  178.7400  139.4190 C   0  0  1  0  0  3  0  0  0  0  0  0
  181.5600  179.2290  140.8300 C   0  0  2  0  0  3  0  0  0  0  0  0
  182.8270  177.1430  140.3550 O   0  0  0  0  0  1  0  0  0  0  0  0
  179.7240  177.7410  141.7530 C   0  0  0  0  0  2  0  0  0  0  0  0
  187.2100  177.7420  142.1930 N   0  0  0  0  0  2  0  0  0  0  0  0
  190.6270  177.0260  142.1920 S   0  0  0  0  0  0  0  0  0  0  0  0
  188.1610  177.8850  139.1680 C   0  0  0  0  0  3  0  0  0  0  0  0
  189.5150  178.4210  142.6140 C   0  0  0  0  0  2  0  0  0  0  0  0
  189.9470  177.0370  140.5530 C   0  0  0  0  0  0  0  0  0  0  0  0
  190.4980  176.3550  139.4690 C   0  0  0  0  0  3  0  0  0  0  0  0
  188.8020  177.7910  140.4060 C   0  0  0  0  0  0  0  0  0  0  0  0
  189.8650  176.4380  138.2190 C   0  0  0  0  0  3  0  0  0  0  0  0
  188.6980  177.2010  138.0690 C   0  0  0  0  0  3  0  0  0  0  0  0
  188.3380  178.4710  141.6360 C   0  0  1  0  0  3  0  0  0  0  0  0
  1 12  1  6  0  0  0
  1  5  1  0  0  0  0
  2  3  1  0  0  0  0
  4  6  2  0  0  0  0
  4  7  1  0  0  0  0
  5 11  2  0  0  0  0
  5  6  1  0  0  0  0
  6  8  1  0  0  0  0
  7  2  2  0  0  0  0
  8 10  1  0  0  0  0
  8  3  2  0  0  0  0
  9 10  2  0  0  0  0
 11  9  1  0  0  0  0
 13 15  1  0  0  0  0
 13 14  1  0  0  0  0
 14 12  1  1  0  0  0
 15 16  1  6  0  0  0
 15 17  1  0  0  0  0
 15 14  1  0  0  0  0
 17 23  1  1  0  0  0
 17 22  1  0  0  0  0
 19 24  1  0  0  0  0
 20 19  1  0  0  0  0
 21 20  1  1  0  0  0
 21 17  1  0  0  0  0
 21 22  1  0  0  0  0
 22 18  1  1  0  0  0
 24 18  1  0  0  0  0
 25  1  1  0  0  0  0
 26 28  1  0  0  0  0
 27 31  1  0  0  0  0
 29 26  1  0  0  0  0
 30 29  1  0  0  0  0
 31 29  2  0  0  0  0
 31 34  1  0  0  0  0
 32 30  2  0  0  0  0
 33 32  1  0  0  0  0
 33 27  2  0  0  0  0
 34 25  1  1  0  0  0
 34 28  1  0  0  0  0
M  END
>  <MODEL>
2

>  <REMARK>
 VINA RESULT:      -8.9      1.944      6.010
  Name = 
  6 active torsions:
  status: ('A' for Active; 'I' for Inactive)
    1  A    between atoms: C_3  and  C_22
    2  A    between atoms: C_7  and  C_18
    3  A    between atoms: N_17  and  C_18
    4  A    between atoms: N_17  and  C_20
    5  A    between atoms: C_18  and  N_19
    6  A    between atoms: N_19  and  C_32
                            x       y       z     vdW  Elec       q    Type
                         _______ _______ _______ _____ _____    ______ ____

>  <TORSDO>
F 6

$$$$
=
 OpenBabel10222415143D

 34 40  0  0  1  0  0  0  0  0999 V2000
  188.6410  177.8530  141.5380 C   0  0  2  0  0  3  0  0  0  0  0  0
  186.2510  177.8220  146.1190 C   0  0  0  0  0  3  0  0  0  0  0  0
  185.2930  178.2530  145.2010 C   0  0  0  0  0  3  0  0  0  0  0  0
  187.8570  177.6330  144.3560 N   0  0  0  0  0  0  0  0  0  0  0  0
  187.2790  178.1880  142.0770 C   0  0  0  0  0  0  0  0  0  0  0  0
  186.9440  178.0570  143.4380 C   0  0  0  0  0  0  0  0  0  0  0  0
  187.5400  177.5140  145.6740 C   0  0  0  0  0  3  0  0  0  0  0  0
  185.6320  178.3760  143.8550 C   0  0  0  0  0  0  0  0  0  0  0  0
  185.0200  178.9270  141.6320 C   0  0  0  0  0  3  0  0  0  0  0  0
  184.7100  178.7980  142.9490 N   0  0  0  0  0  0  0  0  0  0  0  0
  186.3070  178.6260  141.1750 C   0  0  0  0  0  3  0  0  0  0  0  0
  188.5640  177.4640  140.1340 N   0  0  0  0  0  2  0  0  0  0  0  0
  190.1320  177.7650  138.2890 C   0  0  0  0  0  2  0  0  0  0  0  0
  189.2940  178.4590  139.3580 C   0  0  1  0  0  3  0  0  0  0  0  0
  188.8520  178.4730  137.9050 C   0  0  1  0  0  0  0  0  0  0  0  0
  189.0580  179.6960  137.2690 O   0  0  0  0  0  1  0  0  0  0  0  0
  187.6630  177.6210  137.4450 C   0  0  2  0  0  0  0  0  0  0  0  0
  185.1690  177.4790  137.9780 C   0  0  0  0  0  2  0  0  0  0  0  0
  185.3120  175.9350  136.0980 C   0  0  0  0  0  2  0  0  0  0  0  0
  186.3710  176.7480  135.3660 C   0  0  0  0  0  2  0  0  0  0  0  0
  186.9750  177.9530  136.1260 C   0  0  1  0  0  3  0  0  0  0  0  0
  186.3210  178.3580  137.4680 C   0  0  2  0  0  3  0  0  0  0  0  0
  187.6360  176.2830  137.8590 O   0  0  0  0  0  1  0  0  0  0  0  0
  184.3780  176.8470  136.8520 C   0  0  0  0  0  2  0  0  0  0  0  0
  189.2460  176.7840  142.3190 N   0  0  0  0  0  2  0  0  0  0  0  0
  190.8560  179.1290  144.3440 S   0  0  0  0  0  0  0  0  0  0  0  0
  191.4430  175.1940  143.9700 C   0  0  0  0  0  3  0  0  0  0  0  0
  190.8350  178.6160  142.5840 C   0  0  0  0  0  2  0  0  0  0  0  0
  191.2870  177.4640  144.7790 C   0  0  0  0  0  0  0  0  0  0  0  0
  191.7490  177.0750  146.0360 C   0  0  0  0  0  3  0  0  0  0  0  0
  191.1410  176.5430  143.7630 C   0  0  0  0  0  0  0  0  0  0  0  0
  192.0550  175.7240  146.2600 C   0  0  0  0  0  3  0  0  0  0  0  0
  191.9020  174.7850  145.2290 C   0  0  0  0  0  3  0  0  0  0  0  0
  190.6570  177.0990  142.4800 C   0  0  1  0  0  3  0  0  0  0  0  0
  1 12  1  6  0  0  0
  1  5  1  0  0  0  0
  1 25  1  0  0  0  0
  3  2  2  0  0  0  0
  4  7  2  0  0  0  0
  5  6  1  0  0  0  0
  6  8  2  0  0  0  0
  6  4  1  0  0  0  0
  7  2  1  0  0  0  0
  8  3  1  0  0  0  0
  9 10  2  0  0  0  0
 10  8  1  0  0  0  0
 11  9  1  0  0  0  0
 11  5  2  0  0  0  0
 13 14  1  0  0  0  0
 14 12  1  1  0  0  0
 15 16  1  6  0  0  0
 15 13  1  0  0  0  0
 15 14  1  0  0  0  0
 17 22  1  0  0  0  0
 17 23  1  1  0  0  0
 17 15  1  0  0  0  0
 19 24  1  0  0  0  0
 20 19  1  0  0  0  0
 21 20  1  1  0  0  0
 21 17  1  0  0  0  0
 21 22  1  0  0  0  0
 22 18  1  1  0  0  0
 24 18  1  0  0  0  0
 26 29  1  0  0  0  0
 27 33  1  0  0  0  0
 28 26  1  0  0  0  0
 29 30  2  0  0  0  0
 30 32  1  0  0  0  0
 31 27  2  0  0  0  0
 31 29  1  0  0  0  0
 33 32  2  0  0  0  0
 34 25  1  1  0  0  0
 34 28  1  0  0  0  0
 34 31  1  0  0  0  0
M  END
>  <MODEL>
3

>  <REMARK>
 VINA RESULT:      -8.7      2.356      5.344
  Name = 
  6 active torsions:
  status: ('A' for Active; 'I' for Inactive)
    1  A    between atoms: C_3  and  C_22
    2  A    between atoms: C_7  and  C_18
    3  A    between atoms: N_17  and  C_18
    4  A    between atoms: N_17  and  C_20
    5  A    between atoms: C_18  and  N_19
    6  A    between atoms: N_19  and  C_32
                            x       y       z     vdW  Elec       q    Type
                         _______ _______ _______ _____ _____    ______ ____

>  <TORSDO>
F 6

$$$$
=
 OpenBabel10222415143D

 34 40  0  0  1  0  0  0  0  0999 V2000
  187.5470  177.8260  139.8450 C   0  0  2  0  0  3  0  0  0  0  0  0
  186.0720  175.5340  135.4540 C   0  0  0  0  0  3  0  0  0  0  0  0
  187.1450  176.3550  135.1050 C   0  0  0  0  0  3  0  0  0  0  0  0
  186.2670  176.2460  137.7300 N   0  0  0  0  0  0  0  0  0  0  0  0
  187.9520  177.8440  138.3980 C   0  0  0  0  0  0  0  0  0  0  0  0
  187.3140  177.0600  137.4170 C   0  0  0  0  0  0  0  0  0  0  0  0
  185.6420  175.4940  136.7840 C   0  0  0  0  0  3  0  0  0  0  0  0
  187.7740  177.1240  136.0820 C   0  0  0  0  0  0  0  0  0  0  0  0
  189.4440  178.6920  136.6940 C   0  0  0  0  0  3  0  0  0  0  0  0
  188.8180  177.9300  135.7570 N   0  0  0  0  0  0  0  0  0  0  0  0
  189.0220  178.6620  138.0260 C   0  0  0  0  0  3  0  0  0  0  0  0
  186.4300  178.7320  140.0840 N   0  0  0  0  0  2  0  0  0  0  0  0
  185.3600  179.6920  142.0550 C   0  0  0  0  0  2  0  0  0  0  0  0
  185.8780  178.4180  141.3960 C   0  0  1  0  0  3  0  0  0  0  0  0
  184.3870  178.6990  141.4600 C   0  0  1  0  0  0  0  0  0  0  0  0
  183.7140  177.9360  142.4130 O   0  0  0  0  0  1  0  0  0  0  0  0
  183.6170  179.1070  140.1990 C   0  0  2  0  0  0  0  0  0  0  0  0
  183.1490  178.0900  137.9040 C   0  0  0  0  0  2  0  0  0  0  0  0
  181.6950  180.0440  137.8290 C   0  0  0  0  0  2  0  0  0  0  0  0
  181.3330  179.9690  139.3070 C   0  0  0  0  0  2  0  0  0  0  0  0
  182.1030  178.9350  140.1620 C   0  0  1  0  0  3  0  0  0  0  0  0
  183.0180  177.9300  139.4250 C   0  0  2  0  0  3  0  0  0  0  0  0
  184.1590  180.1390  139.4230 O   0  0  0  0  0  1  0  0  0  0  0  0
  181.8980  178.6600  137.2690 C   0  0  0  0  0  2  0  0  0  0  0  0
  188.6750  178.1920  140.6900 N   0  0  0  0  0  2  0  0  0  0  0  0
  191.6670  177.4930  142.3490 S   0  0  0  0  0  0  0  0  0  0  0  0
  187.8800  177.0810  143.5570 C   0  0  0  0  0  3  0  0  0  0  0  0
  190.6220  176.7620  141.0310 C   0  0  0  0  0  2  0  0  0  0  0  0
  190.2680  177.4200  143.4380 C   0  0  0  0  0  0  0  0  0  0  0  0
  190.3370  177.5970  144.8190 C   0  0  0  0  0  3  0  0  0  0  0  0
  189.0630  177.1630  142.8180 C   0  0  0  0  0  0  0  0  0  0  0  0
  189.1570  177.5200  145.5750 C   0  0  0  0  0  3  0  0  0  0  0  0
  187.9310  177.2620  144.9450 C   0  0  0  0  0  3  0  0  0  0  0  0
  189.1410  176.9830  141.3510 C   0  0  1  0  0  3  0  0  0  0  0  0
  1 12  1  6  0  0  0
  1 25  1  0  0  0  0
  2  7  1  0  0  0  0
  3  2  2  0  0  0  0
  3  8  1  0  0  0  0
  5  1  1  0  0  0  0
  6  4  1  0  0  0  0
  6  5  2  0  0  0  0
  7  4  2  0  0  0  0
  8  6  1  0  0  0  0
  9 11  2  0  0  0  0
 10  8  2  0  0  0  0
 10  9  1  0  0  0  0
 11  5  1  0  0  0  0
 14 12  1  6  0  0  0
 14 15  1  0  0  0  0
 14 13  1  0  0  0  0
 15 13  1  0  0  0  0
 15 16  1  1  0  0  0
 17 23  1  6  0  0  0
 17 15  1  0  0  0  0
 19 20  1  0  0  0  0
 21 20  1  6  0  0  0
 21 17  1  0  0  0  0
 22 18  1  6  0  0  0
 22 21  1  0  0  0  0
 22 17  1  0  0  0  0
 24 19  1  0  0  0  0
 24 18  1  0  0  0  0
 26 29  1  0  0  0  0
 27 33  1  0  0  0  0
 28 34  1  0  0  0  0
 28 26  1  0  0  0  0
 29 30  2  0  0  0  0
 30 32  1  0  0  0  0
 31 29  1  0  0  0  0
 31 27  2  0  0  0  0
 33 32  2  0  0  0  0
 34 25  1  6  0  0  0
 34 31  1  0  0  0  0
M  END
>  <MODEL>
4

>  <REMARK>
 VINA RESULT:      -8.7      1.649      2.349
  Name = 
  6 active torsions:
  status: ('A' for Active; 'I' for Inactive)
    1  A    between atoms: C_3  and  C_22
    2  A    between atoms: C_7  and  C_18
    3  A    between atoms: N_17  and  C_18
    4  A    between atoms: N_17  and  C_20
    5  A    between atoms: C_18  and  N_19
    6  A    between atoms: N_19  and  C_32
                            x       y       z     vdW  Elec       q    Type
                         _______ _______ _______ _____ _____    ______ ____

>  <TORSDO>
F 6

$$$$
=
 OpenBabel10222415143D

 34 40  0  0  1  0  0  0  0  0999 V2000
  188.8010  177.5850  141.8240 C   0  0  2  0  0  3  0  0  0  0  0  0
  183.9050  179.1950  141.4440 C   0  0  0  0  0  3  0  0  0  0  0  0
  184.0520  178.7540  142.7600 C   0  0  0  0  0  3  0  0  0  0  0  0
  186.1870  178.6300  140.9980 N   0  0  0  0  0  0  0  0  0  0  0  0
  187.5920  177.6680  142.7120 C   0  0  0  0  0  0  0  0  0  0  0  0
  186.3580  178.1870  142.2760 C   0  0  0  0  0  0  0  0  0  0  0  0
  184.9940  179.1230  140.5690 C   0  0  0  0  0  3  0  0  0  0  0  0
  185.2790  178.2460  143.1850 C   0  0  0  0  0  0  0  0  0  0  0  0
  186.6220  177.3070  144.8980 C   0  0  0  0  0  3  0  0  0  0  0  0
  185.4360  177.8090  144.4620 N   0  0  0  0  0  0  0  0  0  0  0  0
  187.7170  177.2270  144.0320 C   0  0  0  0  0  3  0  0  0  0  0  0
  188.4110  177.5050  140.4200 N   0  0  0  0  0  2  0  0  0  0  0  0
  190.1970  177.8510  138.7950 C   0  0  0  0  0  2  0  0  0  0  0  0
  189.1620  178.5210  139.6940 C   0  0  1  0  0  3  0  0  0  0  0  0
  188.9330  178.4240  138.1950 C   0  0  1  0  0  0  0  0  0  0  0  0
  189.1300  179.6280  137.5200 O   0  0  0  0  0  1  0  0  0  0  0  0
  187.8940  177.4490  137.6280 C   0  0  2  0  0  0  0  0  0  0  0  0
  185.3630  177.1480  137.7760 C   0  0  0  0  0  2  0  0  0  0  0  0
  185.9110  175.4890  136.0760 C   0  0  0  0  0  2  0  0  0  0  0  0
  187.0170  176.3310  135.4530 C   0  0  0  0  0  2  0  0  0  0  0  0
  187.4080  177.6300  136.1950 C   0  0  1  0  0  3  0  0  0  0  0  0
  186.5200  178.0770  137.3810 C   0  0  2  0  0  3  0  0  0  0  0  0
  187.8910  176.1460  138.1420 O   0  0  0  0  0  1  0  0  0  0  0  0
  184.8090  176.3760  136.5960 C   0  0  0  0  0  2  0  0  0  0  0  0
  189.6140  176.4310  142.1810 N   0  0  0  0  0  2  0  0  0  0  0  0
  190.7070  178.8650  144.4340 S   0  0  0  0  0  0  0  0  0  0  0  0
  191.8310  175.0560  143.9910 C   0  0  0  0  0  3  0  0  0  0  0  0
  190.9200  178.4340  142.6650 C   0  0  0  0  0  2  0  0  0  0  0  0
  191.3060  177.2490  144.8550 C   0  0  0  0  0  0  0  0  0  0  0  0
  191.6920  176.8630  146.1380 C   0  0  0  0  0  3  0  0  0  0  0  0
  191.3770  176.3640  143.7990 C   0  0  0  0  0  0  0  0  0  0  0  0
  192.1470  175.5530  146.3470 C   0  0  0  0  0  3  0  0  0  0  0  0
  192.2160  174.6510  145.2750 C   0  0  0  0  0  3  0  0  0  0  0  0
  190.9500  176.9130  142.4930 C   0  0  1  0  0  3  0  0  0  0  0  0
  1 12  1  6  0  0  0
  1 25  1  0  0  0  0
  1  5  1  0  0  0  0
  2  3  1  0  0  0  0
  3  8  2  0  0  0  0
  4  6  2  0  0  0  0
  5 11  2  0  0  0  0
  6  5  1  0  0  0  0
  6  8  1  0  0  0  0
  7  4  1  0  0  0  0
  7  2  2  0  0  0  0
  8 10  1  0  0  0  0
 10  9  2  0  0  0  0
 11  9  1  0  0  0  0
 13 14  1  0  0  0  0
 14 12  1  1  0  0  0
 15 16  1  6  0  0  0
 15 13  1  0  0  0  0
 15 14  1  0  0  0  0
 17 23  1  1  0  0  0
 17 15  1  0  0  0  0
 19 24  1  0  0  0  0
 20 19  1  0  0  0  0
 21 20  1  1  0  0  0
 21 22  1  0  0  0  0
 21 17  1  0  0  0  0
 22 17  1  0  0  0  0
 22 18  1  1  0  0  0
 24 18  1  0  0  0  0
 26 29  1  0  0  0  0
 27 33  1  0  0  0  0
 28 26  1  0  0  0  0
 29 30  2  0  0  0  0
 30 32  1  0  0  0  0
 31 27  2  0  0  0  0
 31 29  1  0  0  0  0
 33 32  2  0  0  0  0
 34 25  1  1  0  0  0
 34 28  1  0  0  0  0
 34 31  1  0  0  0  0
M  END
>  <MODEL>
5

>  <REMARK>
 VINA RESULT:      -8.3      2.352      4.974
  Name = 
  6 active torsions:
  status: ('A' for Active; 'I' for Inactive)
    1  A    between atoms: C_3  and  C_22
    2  A    between atoms: C_7  and  C_18
    3  A    between atoms: N_17  and  C_18
    4  A    between atoms: N_17  and  C_20
    5  A    between atoms: C_18  and  N_19
    6  A    between atoms: N_19  and  C_32
                            x       y       z     vdW  Elec       q    Type
                         _______ _______ _______ _____ _____    ______ ____

>  <TORSDO>
F 6

$$$$
=
 OpenBabel10222415143D

 34 40  0  0  1  0  0  0  0  0999 V2000
  186.9360  177.7500  143.3440 C   0  0  2  0  0  3  0  0  0  0  0  0
  189.6550  178.0460  138.9590 C   0  0  0  0  0  3  0  0  0  0  0  0
  190.3580  177.1590  139.7750 C   0  0  0  0  0  3  0  0  0  0  0  0
  188.0140  178.3290  140.6780 N   0  0  0  0  0  0  0  0  0  0  0  0
  188.2070  177.1710  142.7900 C   0  0  0  0  0  0  0  0  0  0  0  0
  188.6820  177.4700  141.4980 C   0  0  0  0  0  0  0  0  0  0  0  0
  188.4750  178.6270  139.4330 C   0  0  0  0  0  3  0  0  0  0  0  0
  189.8780  176.8650  141.0510 C   0  0  0  0  0  0  0  0  0  0  0  0
  190.1050  175.7070  143.1070 C   0  0  0  0  0  3  0  0  0  0  0  0
  190.5530  176.0050  141.8580 N   0  0  0  0  0  0  0  0  0  0  0  0
  188.9280  176.2840  143.5930 C   0  0  0  0  0  3  0  0  0  0  0  0
  186.6300  177.1790  144.6510 N   0  0  0  0  0  2  0  0  0  0  0  0
  185.5410  177.6270  146.7870 C   0  0  0  0  0  2  0  0  0  0  0  0
  185.8940  178.1820  145.4100 C   0  0  1  0  0  3  0  0  0  0  0  0
  186.6630  178.6300  146.6420 C   0  0  1  0  0  0  0  0  0  0  0  0
  186.3290  179.9110  147.0740 O   0  0  0  0  0  1  0  0  0  0  0  0
  188.1000  178.1480  146.8800 C   0  0  2  0  0  0  0  0  0  0  0  0
  189.9680  178.6460  148.5470 C   0  0  0  0  0  2  0  0  0  0  0  0
  190.9330  176.7570  147.3480 C   0  0  0  0  0  2  0  0  0  0  0  0
  189.5990  176.0450  147.1700 C   0  0  0  0  0  2  0  0  0  0  0  0
  188.3310  176.8220  147.5960 C   0  0  1  0  0  3  0  0  0  0  0  0
  188.5250  178.1590  148.3500 C   0  0  2  0  0  3  0  0  0  0  0  0
  189.0720  178.5510  145.9560 O   0  0  0  0  0  1  0  0  0  0  0  0
  190.9580  177.5050  148.6560 C   0  0  0  0  0  2  0  0  0  0  0  0
  185.8300  177.5140  142.4260 N   0  0  0  0  0  2  0  0  0  0  0  0
  183.5190  178.4510  139.9820 S   0  0  0  0  0  0  0  0  0  0  0  0
  183.4380  178.9460  143.9460 C   0  0  0  0  0  3  0  0  0  0  0  0
  185.1480  179.0030  140.6190 C   0  0  0  0  0  2  0  0  0  0  0  0
  182.8660  178.6310  141.6220 C   0  0  0  0  0  0  0  0  0  0  0  0
  181.5070  178.6220  141.9320 C   0  0  0  0  0  3  0  0  0  0  0  0
  183.8150  178.7950  142.6090 C   0  0  0  0  0  0  0  0  0  0  0  0
  181.1120  178.7700  143.2700 C   0  0  0  0  0  3  0  0  0  0  0  0
  182.0770  178.9320  144.2760 C   0  0  0  0  0  3  0  0  0  0  0  0
  185.2170  178.8000  142.1340 C   0  0  1  0  0  3  0  0  0  0  0  0
  1 25  1  6  0  0  0
  1 12  1  0  0  0  0
  2  7  2  0  0  0  0
  2  3  1  0  0  0  0
  3  8  2  0  0  0  0
  4  6  2  0  0  0  0
  5  1  1  0  0  0  0
  5 11  2  0  0  0  0
  6  5  1  0  0  0  0
  7  4  1  0  0  0  0
  8  6  1  0  0  0  0
  8 10  1  0  0  0  0
  9 11  1  0  0  0  0
 10  9  2  0  0  0  0
 14 12  1  6  0  0  0
 14 15  1  0  0  0  0
 14 13  1  0  0  0  0
 15 13  1  0  0  0  0
 15 17  1  0  0  0  0
 15 16  1  1  0  0  0
 17 23  1  6  0  0  0
 17 21  1  0  0  0  0
 17 22  1  0  0  0  0
 18 24  1  0  0  0  0
 19 24  1  0  0  0  0
 20 19  1  0  0  0  0
 21 20  1  6  0  0  0
 21 22  1  0  0  0  0
 22 18  1  6  0  0  0
 26 28  1  0  0  0  0
 26 29  1  0  0  0  0
 27 33  1  0  0  0  0
 28 34  1  0  0  0  0
 29 30  2  0  0  0  0
 29 31  1  0  0  0  0
 30 32  1  0  0  0  0
 31 27  2  0  0  0  0
 32 33  2  0  0  0  0
 34 25  1  6  0  0  0
 34 31  1  0  0  0  0
M  END
>  <MODEL>
6

>  <REMARK>
 VINA RESULT:      -8.2      2.800      6.675
  Name = 
  6 active torsions:
  status: ('A' for Active; 'I' for Inactive)
    1  A    between atoms: C_3  and  C_22
    2  A    between atoms: C_7  and  C_18
    3  A    between atoms: N_17  and  C_18
    4  A    between atoms: N_17  and  C_20
    5  A    between atoms: C_18  and  N_19
    6  A    between atoms: N_19  and  C_32
                            x       y       z     vdW  Elec       q    Type
                         _______ _______ _______ _____ _____    ______ ____

>  <TORSDO>
F 6

$$$$
=
 OpenBabel10222415143D

 34 40  0  0  1  0  0  0  0  0999 V2000
  189.8970  176.3810  140.1530 C   0  0  2  0  0  3  0  0  0  0  0  0
  192.5370  173.9800  136.4150 C   0  0  0  0  0  3  0  0  0  0  0  0
  193.4080  174.9420  136.9290 C   0  0  0  0  0  3  0  0  0  0  0  0
  190.8520  174.6770  137.9640 N   0  0  0  0  0  0  0  0  0  0  0  0
  191.2600  176.4750  139.5260 C   0  0  0  0  0  0  0  0  0  0  0  0
  191.6800  175.6280  138.4820 C   0  0  0  0  0  0  0  0  0  0  0  0
  191.2500  173.8630  136.9490 C   0  0  0  0  0  3  0  0  0  0  0  0
  192.9860  175.7730  137.9650 C   0  0  0  0  0  0  0  0  0  0  0  0
  193.4300  177.5400  139.4830 C   0  0  0  0  0  3  0  0  0  0  0  0
  193.8220  176.7160  138.4740 N   0  0  0  0  0  0  0  0  0  0  0  0
  192.1460  177.4340  140.0240 C   0  0  0  0  0  3  0  0  0  0  0  0
  188.8640  176.8200  139.2210 N   0  0  0  0  0  2  0  0  0  0  0  0
  189.7990  177.8560  137.2200 C   0  0  0  0  0  2  0  0  0  0  0  0
  189.3000  178.0850  138.6430 C   0  0  1  0  0  3  0  0  0  0  0  0
  188.4430  178.4830  137.4530 C   0  0  1  0  0  0  0  0  0  0  0  0
  188.4140  179.8560  137.2180 O   0  0  0  0  0  1  0  0  0  0  0  0
  187.1960  177.6690  137.0850 C   0  0  2  0  0  0  0  0  0  0  0  0
  185.6140  177.5060  135.0870 C   0  0  0  0  0  2  0  0  0  0  0  0
  184.8210  175.6390  136.4380 C   0  0  0  0  0  2  0  0  0  0  0  0
  186.2100  175.2690  136.9430 C   0  0  0  0  0  2  0  0  0  0  0  0
  187.3620  176.2380  136.5870 C   0  0  1  0  0  3  0  0  0  0  0  0
  187.0600  177.3790  135.5880 C   0  0  2  0  0  3  0  0  0  0  0  0
  186.0090  177.9750  137.7620 O   0  0  0  0  0  1  0  0  0  0  0  0
  184.9000  176.1710  135.0300 C   0  0  0  0  0  2  0  0  0  0  0  0
  189.8430  177.1790  141.3690 N   0  0  0  0  0  2  0  0  0  0  0  0
  191.3090  177.3680  144.5330 S   0  0  0  0  0  0  0  0  0  0  0  0
  187.5050  176.7510  143.4740 C   0  0  0  0  0  3  0  0  0  0  0  0
  191.1880  176.1800  143.1420 C   0  0  0  0  0  2  0  0  0  0  0  0
  189.5370  177.3840  144.6160 C   0  0  0  0  0  0  0  0  0  0  0  0
  188.8040  177.9210  145.6740 C   0  0  0  0  0  3  0  0  0  0  0  0
  188.9000  176.8050  143.5380 C   0  0  0  0  0  0  0  0  0  0  0  0
  187.4030  177.8770  145.6240 C   0  0  0  0  0  3  0  0  0  0  0  0
  186.7550  177.2930  144.5260 C   0  0  0  0  0  3  0  0  0  0  0  0
  189.8020  176.2630  142.4970 C   0  0  1  0  0  3  0  0  0  0  0  0
  1 12  1  6  0  0  0
  1 25  1  0  0  0  0
  2  3  2  0  0  0  0
  2  7  1  0  0  0  0
  3  8  1  0  0  0  0
  4  6  1  0  0  0  0
  5 11  1  0  0  0  0
  5  1  1  0  0  0  0
  6  5  2  0  0  0  0
  7  4  2  0  0  0  0
  8 10  2  0  0  0  0
  8  6  1  0  0  0  0
  9 11  2  0  0  0  0
 10  9  1  0  0  0  0
 13 15  1  0  0  0  0
 13 14  1  0  0  0  0
 14 12  1  6  0  0  0
 15 16  1  6  0  0  0
 15 14  1  0  0  0  0
 17 15  1  0  0  0  0
 17 23  1  1  0  0  0
 19 20  1  0  0  0  0
 21 20  1  1  0  0  0
 21 17  1  0  0  0  0
 22 18  1  1  0  0  0
 22 21  1  0  0  0  0
 22 17  1  0  0  0  0
 24 18  1  0  0  0  0
 24 19  1  0  0  0  0
 26 29  1  0  0  0  0
 27 31  2  0  0  0  0
 27 33  1  0  0  0  0
 28 26  1  0  0  0  0
 29 30  2  0  0  0  0
 31 29  1  0  0  0  0
 32 30  1  0  0  0  0
 33 32  2  0  0  0  0
 34 25  1  6  0  0  0
 34 28  1  0  0  0  0
 34 31  1  0  0  0  0
M  END
>  <MODEL>
7

>  <REMARK>
 VINA RESULT:      -8.2      2.897      4.449
  Name = 
  6 active torsions:
  status: ('A' for Active; 'I' for Inactive)
    1  A    between atoms: C_3  and  C_22
    2  A    between atoms: C_7  and  C_18
    3  A    between atoms: N_17  and  C_18
    4  A    between atoms: N_17  and  C_20
    5  A    between atoms: C_18  and  N_19
    6  A    between atoms: N_19  and  C_32
                            x       y       z     vdW  Elec       q    Type
                         _______ _______ _______ _____ _____    ______ ____

>  <TORSDO>
F 6

$$$$
=
 OpenBabel10222415143D

 34 40  0  0  1  0  0  0  0  0999 V2000
  184.2380  179.0210  139.7600 C   0  0  2  0  0  3  0  0  0  0  0  0
  180.1840  181.9400  138.4380 C   0  0  0  0  0  3  0  0  0  0  0  0
  179.6560  180.8830  139.1810 C   0  0  0  0  0  3  0  0  0  0  0  0
  182.3830  181.0400  138.7170 N   0  0  0  0  0  0  0  0  0  0  0  0
  182.7480  178.9960  139.9530 C   0  0  0  0  0  0  0  0  0  0  0  0
  181.8960  179.9940  139.4420 C   0  0  0  0  0  0  0  0  0  0  0  0
  181.5630  182.0010  138.2130 C   0  0  0  0  0  3  0  0  0  0  0  0
  180.5080  179.9020  139.6870 C   0  0  0  0  0  0  0  0  0  0  0  0
  180.8200  177.8950  140.9100 C   0  0  0  0  0  3  0  0  0  0  0  0
  180.0090  178.8650  140.4100 N   0  0  0  0  0  0  0  0  0  0  0  0
  182.2000  177.9440  140.6900 C   0  0  0  0  0  3  0  0  0  0  0  0
  184.5960  178.5940  138.4120 N   0  0  0  0  0  2  0  0  0  0  0  0
  183.6070  177.1480  136.7140 C   0  0  0  0  0  2  0  0  0  0  0  0
  183.9870  177.2890  138.1850 C   0  0  1  0  0  3  0  0  0  0  0  0
  184.8260  176.4330  137.2520 C   0  0  1  0  0  0  0  0  0  0  0  0
  184.6380  175.0630  137.4310 O   0  0  0  0  0  1  0  0  0  0  0  0
  186.2080  176.9100  136.7900 C   0  0  2  0  0  0  0  0  0  0  0  0
  188.0970  178.3300  137.7580 C   0  0  0  0  0  2  0  0  0  0  0  0
  189.1570  177.5030  135.7260 C   0  0  0  0  0  2  0  0  0  0  0  0
  188.4810  176.1390  135.7950 C   0  0  0  0  0  2  0  0  0  0  0  0
  187.3920  175.9540  136.8780 C   0  0  1  0  0  3  0  0  0  0  0  0
  187.2210  177.0790  137.9260 C   0  0  2  0  0  3  0  0  0  0  0  0
  186.2460  177.8810  135.7820 O   0  0  0  0  0  1  0  0  0  0  0  0
  189.4320  178.0220  137.1140 C   0  0  0  0  0  2  0  0  0  0  0  0
  184.8900  178.1670  140.7430 N   0  0  0  0  0  2  0  0  0  0  0  0
  185.2270  178.2520  144.2170 S   0  0  0  0  0  0  0  0  0  0  0  0
  188.0000  177.9770  141.3540 C   0  0  0  0  0  3  0  0  0  0  0  0
  184.8810  179.4130  142.8410 C   0  0  0  0  0  2  0  0  0  0  0  0
  186.7450  177.8160  143.4100 C   0  0  0  0  0  0  0  0  0  0  0  0
  187.7750  177.0930  144.0120 C   0  0  0  0  0  3  0  0  0  0  0  0
  186.8560  178.2530  142.1070 C   0  0  0  0  0  0  0  0  0  0  0  0
  188.9300  176.8060  143.2680 C   0  0  0  0  0  3  0  0  0  0  0  0
  189.0420  177.2470  141.9410 C   0  0  0  0  0  3  0  0  0  0  0  0
  185.6940  179.0200  141.6040 C   0  0  1  0  0  3  0  0  0  0  0  0
  1 12  1  6  0  0  0
  1  5  1  0  0  0  0
  1 25  1  0  0  0  0
  2  3  1  0  0  0  0
  3  8  2  0  0  0  0
  4  6  2  0  0  0  0
  5 11  2  0  0  0  0
  6  8  1  0  0  0  0
  6  5  1  0  0  0  0
  7  2  2  0  0  0  0
  7  4  1  0  0  0  0
  8 10  1  0  0  0  0
 10  9  2  0  0  0  0
 11  9  1  0  0  0  0
 13 15  1  0  0  0  0
 13 14  1  0  0  0  0
 14 12  1  6  0  0  0
 15 16  1  1  0  0  0
 15 14  1  0  0  0  0
 17 23  1  6  0  0  0
 17 21  1  0  0  0  0
 17 15  1  0  0  0  0
 17 22  1  0  0  0  0
 19 20  1  0  0  0  0
 19 24  1  0  0  0  0
 21 20  1  6  0  0  0
 21 22  1  0  0  0  0
 22 18  1  6  0  0  0
 24 18  1  0  0  0  0
 27 33  2  0  0  0  0
 27 31  1  0  0  0  0
 28 26  1  0  0  0  0
 29 30  1  0  0  0  0
 29 26  1  0  0  0  0
 31 29  2  0  0  0  0
 32 30  2  0  0  0  0
 33 32  1  0  0  0  0
 34 25  1  6  0  0  0
 34 31  1  0  0  0  0
 34 28  1  0  0  0  0
M  END
>  <MODEL>
8

>  <REMARK>
 VINA RESULT:      -8.1      2.786      6.489
  Name = 
  6 active torsions:
  status: ('A' for Active; 'I' for Inactive)
    1  A    between atoms: C_3  and  C_22
    2  A    between atoms: C_7  and  C_18
    3  A    between atoms: N_17  and  C_18
    4  A    between atoms: N_17  and  C_20
    5  A    between atoms: C_18  and  N_19
    6  A    between atoms: N_19  and  C_32
                            x       y       z     vdW  Elec       q    Type
                         _______ _______ _______ _____ _____    ______ ____

>  <TORSDO>
F 6

$$$$
=
 OpenBabel10222415143D

 34 40  0  0  1  0  0  0  0  0999 V2000
  183.1800  178.6130  139.2030 C   0  0  2  0  0  3  0  0  0  0  0  0
  182.3400  178.8510  144.2960 C   0  0  0  0  0  3  0  0  0  0  0  0
  183.7250  178.9250  144.1420 C   0  0  0  0  0  3  0  0  0  0  0  0
  182.0830  178.6990  141.9220 N   0  0  0  0  0  0  0  0  0  0  0  0
  184.0030  178.7150  140.4560 C   0  0  0  0  0  0  0  0  0  0  0  0
  183.4320  178.7640  141.7420 C   0  0  0  0  0  0  0  0  0  0  0  0
  181.5280  178.7360  143.1640 C   0  0  0  0  0  3  0  0  0  0  0  0
  184.2810  178.8810  142.8650 C   0  0  0  0  0  0  0  0  0  0  0  0
  186.1930  178.9040  141.4630 C   0  0  0  0  0  3  0  0  0  0  0  0
  185.6290  178.9480  142.6990 N   0  0  0  0  0  0  0  0  0  0  0  0
  185.3920  178.7860  140.3240 C   0  0  0  0  0  3  0  0  0  0  0  0
  183.9480  178.0020  138.1240 N   0  0  0  0  0  2  0  0  0  0  0  0
  183.1860  176.1900  136.6780 C   0  0  0  0  0  2  0  0  0  0  0  0
  183.6130  176.5840  138.0890 C   0  0  1  0  0  3  0  0  0  0  0  0
  184.5560  175.8050  137.1890 C   0  0  1  0  0  0  0  0  0  0  0  0
  184.6690  174.4580  137.5280 O   0  0  0  0  0  1  0  0  0  0  0  0
  185.7800  176.4890  136.5670 C   0  0  2  0  0  0  0  0  0  0  0  0
  187.5220  178.2020  137.3100 C   0  0  0  0  0  2  0  0  0  0  0  0
  188.4480  177.5290  135.1580 C   0  0  0  0  0  2  0  0  0  0  0  0
  188.0100  176.0770  135.2980 C   0  0  0  0  0  2  0  0  0  0  0  0
  187.1020  175.7350  136.5040 C   0  0  1  0  0  3  0  0  0  0  0  0
  186.8820  176.8310  137.5730 C   0  0  2  0  0  3  0  0  0  0  0  0
  185.5420  177.4420  135.5690 O   0  0  0  0  0  1  0  0  0  0  0  0
  188.8020  178.1020  136.5070 C   0  0  0  0  0  2  0  0  0  0  0  0
  182.7100  179.9290  138.7960 N   0  0  0  0  0  2  0  0  0  0  0  0
  180.2670  182.4020  138.4650 S   0  0  0  0  0  0  0  0  0  0  0  0
  181.2070  179.3530  136.0600 C   0  0  0  0  0  3  0  0  0  0  0  0
  180.5430  180.8600  139.4190 C   0  0  0  0  0  2  0  0  0  0  0  0
  180.4730  181.4640  136.9730 C   0  0  0  0  0  0  0  0  0  0  0  0
  180.1450  181.9300  135.7010 C   0  0  0  0  0  3  0  0  0  0  0  0
  180.9910  180.1980  137.1510 C   0  0  0  0  0  0  0  0  0  0  0  0
  180.3580  181.0940  134.5940 C   0  0  0  0  0  3  0  0  0  0  0  0
  180.8880  179.8070  134.7730 C   0  0  0  0  0  3  0  0  0  0  0  0
  181.2790  179.8320  138.5560 C   0  0  1  0  0  3  0  0  0  0  0  0
  1 12  1  6  0  0  0
  1  5  1  0  0  0  0
  3  2  1  0  0  0  0
  4  7  1  0  0  0  0
  5  6  1  0  0  0  0
  6  4  2  0  0  0  0
  6  8  1  0  0  0  0
  7  2  2  0  0  0  0
  8  3  2  0  0  0  0
  9 10  2  0  0  0  0
 10  8  1  0  0  0  0
 11  5  2  0  0  0  0
 11  9  1  0  0  0  0
 13 15  1  0  0  0  0
 13 14  1  0  0  0  0
 14 12  1  6  0  0  0
 15 16  1  1  0  0  0
 15 14  1  0  0  0  0
 17 23  1  6  0  0  0
 17 15  1  0  0  0  0
 17 22  1  0  0  0  0
 19 20  1  0  0  0  0
 19 24  1  0  0  0  0
 21 20  1  6  0  0  0
 21 17  1  0  0  0  0
 21 22  1  0  0  0  0
 22 18  1  6  0  0  0
 24 18  1  0  0  0  0
 25  1  1  0  0  0  0
 26 28  1  0  0  0  0
 27 31  1  0  0  0  0
 29 31  2  0  0  0  0
 29 26  1  0  0  0  0
 30 29  1  0  0  0  0
 31 34  1  0  0  0  0
 32 33  1  0  0  0  0
 32 30  2  0  0  0  0
 33 27  2  0  0  0  0
 34 25  1  6  0  0  0
 34 28  1  0  0  0  0
M  END
>  <MODEL>
9

>  <REMARK>
 VINA RESULT:      -8.0      4.269      8.678
  Name = 
  6 active torsions:
  status: ('A' for Active; 'I' for Inactive)
    1  A    between atoms: C_3  and  C_22
    2  A    between atoms: C_7  and  C_18
    3  A    between atoms: N_17  and  C_18
    4  A    between atoms: N_17  and  C_20
    5  A    between atoms: C_18  and  N_19
    6  A    between atoms: N_19  and  C_32
                            x       y       z     vdW  Elec       q    Type
                         _______ _______ _______ _____ _____    ______ ____

>  <TORSDO>
F 6

$$$$
