=
 OpenBabel10222420203D

 27 30  0  0  1  0  0  0  0  0999 V2000
  186.7090  177.1340  144.7020 C   0  0  2  0  0  3  0  0  0  0  0  0
  189.3950  176.9750  140.7400 C   0  0  0  0  0  3  0  0  0  0  0  0
  187.3190  177.7490  145.8160 O   0  0  0  0  0  0  0  0  0  0  0  0
  186.3410  177.9560  142.2880 C   0  0  1  0  0  3  0  0  0  0  0  0
  188.1920  177.1390  144.8980 C   0  0  2  0  0  3  0  0  0  0  0  0
  188.0550  177.1250  140.7380 N   0  0  0  0  0  0  0  0  0  0  0  0
  188.8660  177.7840  142.6180 C   0  0  0  0  0  0  0  0  0  0  0  0
  189.9380  177.3700  141.9130 N   0  0  0  0  0  0  0  0  0  0  0  0
  188.9100  178.1950  144.0610 C   0  0  2  0  0  3  0  0  0  0  0  0
  187.7260  177.6240  141.9160 N   0  0  0  0  0  0  0  0  0  0  0  0
  186.1430  178.2350  143.7940 C   0  0  1  0  0  3  0  0  0  0  0  0
  184.7000  178.4550  144.1300 C   0  0  0  0  0  0  0  0  0  0  0  0
  184.3520  179.0710  145.3630 N   0  0  0  0  0  1  0  0  0  0  0  0
  183.7940  178.0900  143.3340 O   0  0  0  0  0  0  0  0  0  0  0  0
  190.3040  178.4450  144.5620 C   0  0  0  0  0  0  0  0  0  0  0  0
  190.9220  179.4750  144.1790 O   0  0  0  0  0  0  0  0  0  0  0  0
  191.8570  176.0580  143.7170 N   0  0  0  0  0  1  0  0  0  0  0  0
  190.9230  177.4900  145.5110 C   0  0  0  0  0  0  0  0  0  0  0  0
  192.1960  175.5330  146.0330 N   0  0  0  0  0  0  0  0  0  0  0  0
  191.6600  176.3590  145.0960 C   0  0  0  0  0  0  0  0  0  0  0  0
  191.3160  176.8810  147.7780 C   0  0  0  0  0  3  0  0  0  0  0  0
  192.0420  175.7680  147.3610 C   0  0  0  0  0  3  0  0  0  0  0  0
  190.7770  177.7110  146.8480 N   0  0  0  0  0  0  0  0  0  0  0  0
  185.8790  179.1380  141.4900 C   0  0  0  0  0  3  0  0  0  0  0  0
  185.1360  178.9780  140.4050 C   0  0  0  0  0  3  0  0  0  0  0  0
  184.7200  180.0860  139.6800 O   0  0  0  0  0  0  0  0  0  0  0  0
  183.5220  180.0290  138.9260 C   0  0  0  0  0  1  0  0  0  0  0  0
  1  5  1  0  0  0  0
  1  3  1  1  0  0  0
  2  8  1  0  0  0  0
  4 24  1  6  0  0  0
  4 11  1  0  0  0  0
  5  3  1  1  0  0  0
  6  2  2  0  0  0  0
  6 10  1  0  0  0  0
  7  9  1  0  0  0  0
  8  7  2  0  0  0  0
  9 15  1  1  0  0  0
  9  5  1  0  0  0  0
 10  4  1  0  0  0  0
 10  7  1  0  0  0  0
 11 12  1  6  0  0  0
 11  1  1  0  0  0  0
 12 13  1  0  0  0  0
 14 12  2  0  0  0  0
 15 18  1  0  0  0  0
 16 15  2  0  0  0  0
 17 20  1  0  0  0  0
 18 23  1  0  0  0  0
 19 22  2  0  0  0  0
 20 18  2  0  0  0  0
 20 19  1  0  0  0  0
 22 21  1  0  0  0  0
 23 21  2  0  0  0  0
 25 24  2  0  0  0  0
 26 25  1  0  0  0  0
 27 26  1  0  0  0  0
M  END
>  <MODEL>
1

>  <REMARK>
 VINA RESULT:      -7.3      0.000      0.000
  Name = 
  5 active torsions:
  status: ('A' for Active; 'I' for Inactive)
    1  A    between atoms: C_2  and  C_27
    2  A    between atoms: C_6  and  C_7
    3  A    between atoms: C_7  and  C_25
    4  A    between atoms: C_11  and  C_16
    5  A    between atoms: C_13  and  O_14
                            x       y       z     vdW  Elec       q    Type
                         _______ _______ _______ _____ _____    ______ ____

>  <TORSDO>
F 5

$$$$
=
 OpenBabel10222420203D

 27 30  0  0  1  0  0  0  0  0999 V2000
  186.3820  179.2940  141.0060 C   0  0  2  0  0  3  0  0  0  0  0  0
  185.5940  178.9460  145.7170 C   0  0  0  0  0  3  0  0  0  0  0  0
  187.2370  178.3100  140.4660 O   0  0  0  0  0  0  0  0  0  0  0  0
  184.2410  179.1000  142.4260 C   0  0  1  0  0  3  0  0  0  0  0  0
  187.4530  178.6370  141.8170 C   0  0  2  0  0  3  0  0  0  0  0  0
  184.6750  179.3740  144.8280 N   0  0  0  0  0  0  0  0  0  0  0  0
  186.1380  178.1440  143.8410 C   0  0  0  0  0  0  0  0  0  0  0  0
  186.5360  178.1780  145.1280 N   0  0  0  0  0  0  0  0  0  0  0  0
  186.9310  177.5270  142.7250 C   0  0  2  0  0  3  0  0  0  0  0  0
  185.0210  178.8760  143.6540 N   0  0  0  0  0  0  0  0  0  0  0  0
  184.9750  178.6920  141.1310 C   0  0  1  0  0  3  0  0  0  0  0  0
  184.1800  179.0450  139.9110 C   0  0  0  0  0  0  0  0  0  0  0  0
  183.3160  178.0770  139.3290 N   0  0  0  0  0  1  0  0  0  0  0  0
  184.2780  180.1900  139.3920 O   0  0  0  0  0  0  0  0  0  0  0  0
  188.0410  176.6400  143.2110 C   0  0  0  0  0  0  0  0  0  0  0  0
  187.8030  175.4240  143.4450 O   0  0  0  0  0  0  0  0  0  0  0  0
  190.2290  176.3040  141.2300 N   0  0  0  0  0  1  0  0  0  0  0  0
  189.4020  177.2000  143.3880 C   0  0  0  0  0  0  0  0  0  0  0  0
  191.6540  177.5820  142.6760 N   0  0  0  0  0  0  0  0  0  0  0  0
  190.4330  177.0340  142.4370 C   0  0  0  0  0  0  0  0  0  0  0  0
  190.8960  178.4550  144.7490 C   0  0  0  0  0  3  0  0  0  0  0  0
  191.9080  178.2880  143.8080 C   0  0  0  0  0  3  0  0  0  0  0  0
  189.6740  177.9100  144.5190 N   0  0  0  0  0  0  0  0  0  0  0  0
  182.9380  178.3650  142.5220 C   0  0  0  0  0  3  0  0  0  0  0  0
  181.8090  179.0100  142.7790 C   0  0  0  0  0  3  0  0  0  0  0  0
  180.6140  178.3090  142.8640 O   0  0  0  0  0  0  0  0  0  0  0  0
  179.7390  178.5340  143.9550 C   0  0  0  0  0  1  0  0  0  0  0  0
  1  3  1  6  0  0  0
  1 11  1  0  0  0  0
  1  5  1  0  0  0  0
  4 24  1  1  0  0  0
  4 10  1  0  0  0  0
  5  3  1  6  0  0  0
  5  9  1  0  0  0  0
  6  2  2  0  0  0  0
  7  8  2  0  0  0  0
  8  2  1  0  0  0  0
  9 15  1  1  0  0  0
  9  7  1  0  0  0  0
 10  7  1  0  0  0  0
 10  6  1  0  0  0  0
 11 12  1  6  0  0  0
 11  4  1  0  0  0  0
 13 12  1  0  0  0  0
 14 12  2  0  0  0  0
 15 18  1  0  0  0  0
 15 16  2  0  0  0  0
 17 20  1  0  0  0  0
 18 23  1  0  0  0  0
 19 22  2  0  0  0  0
 20 19  1  0  0  0  0
 20 18  2  0  0  0  0
 22 21  1  0  0  0  0
 23 21  2  0  0  0  0
 24 25  2  0  0  0  0
 25 26  1  0  0  0  0
 26 27  1  0  0  0  0
M  END
>  <MODEL>
2

>  <REMARK>
 VINA RESULT:      -7.2      2.294      4.265
  Name = 
  5 active torsions:
  status: ('A' for Active; 'I' for Inactive)
    1  A    between atoms: C_2  and  C_27
    2  A    between atoms: C_6  and  C_7
    3  A    between atoms: C_7  and  C_25
    4  A    between atoms: C_11  and  C_16
    5  A    between atoms: C_13  and  O_14
                            x       y       z     vdW  Elec       q    Type
                         _______ _______ _______ _____ _____    ______ ____

>  <TORSDO>
F 5

$$$$
=
 OpenBabel10222420203D

 27 30  0  0  1  0  0  0  0  0999 V2000
  186.6110  179.2730  140.9330 C   0  0  2  0  0  3  0  0  0  0  0  0
  185.2200  178.8250  145.4940 C   0  0  0  0  0  3  0  0  0  0  0  0
  187.5480  178.3140  140.4950 O   0  0  0  0  0  0  0  0  0  0  0  0
  184.3060  179.0170  142.0570 C   0  0  1  0  0  3  0  0  0  0  0  0
  187.5790  178.6200  141.8670 C   0  0  2  0  0  3  0  0  0  0  0  0
  184.4170  179.2530  144.5000 N   0  0  0  0  0  0  0  0  0  0  0  0
  186.0200  178.0670  143.6930 C   0  0  0  0  0  0  0  0  0  0  0  0
  186.2460  178.0840  145.0210 N   0  0  0  0  0  0  0  0  0  0  0  0
  186.9640  177.4840  142.6810 C   0  0  2  0  0  3  0  0  0  0  0  0
  184.9240  178.7830  143.3730 N   0  0  0  0  0  0  0  0  0  0  0  0
  185.2120  178.6460  140.8630 C   0  0  1  0  0  3  0  0  0  0  0  0
  184.5770  179.0080  139.5550 C   0  0  0  0  0  0  0  0  0  0  0  0
  184.2150  177.9810  138.6400 N   0  0  0  0  0  1  0  0  0  0  0  0
  184.3690  180.2150  139.2570 O   0  0  0  0  0  0  0  0  0  0  0  0
  188.0180  176.6070  143.2940 C   0  0  0  0  0  0  0  0  0  0  0  0
  187.7670  175.3870  143.4940 O   0  0  0  0  0  0  0  0  0  0  0  0
  188.9490  177.0590  146.0780 N   0  0  0  0  0  1  0  0  0  0  0  0
  189.3420  177.1810  143.6330 C   0  0  0  0  0  0  0  0  0  0  0  0
  191.0030  177.9220  145.1880 N   0  0  0  0  0  0  0  0  0  0  0  0
  189.7720  177.3900  144.9620 C   0  0  0  0  0  0  0  0  0  0  0  0
  191.4130  178.0540  142.8530 C   0  0  0  0  0  3  0  0  0  0  0  0
  191.8310  178.2580  144.1650 C   0  0  0  0  0  3  0  0  0  0  0  0
  190.1850  177.5250  142.6190 N   0  0  0  0  0  0  0  0  0  0  0  0
  183.0160  178.2580  141.9690 C   0  0  0  0  0  3  0  0  0  0  0  0
  181.8530  178.8930  141.9490 C   0  0  0  0  0  3  0  0  0  0  0  0
  180.6710  178.1700  141.8680 O   0  0  0  0  0  0  0  0  0  0  0  0
  180.3270  177.5100  140.6640 C   0  0  0  0  0  1  0  0  0  0  0  0
  1  3  1  6  0  0  0
  1  5  1  0  0  0  0
  4 24  1  1  0  0  0
  4 10  1  0  0  0  0
  5  3  1  6  0  0  0
  5  9  1  0  0  0  0
  6  2  2  0  0  0  0
  7  8  2  0  0  0  0
  8  2  1  0  0  0  0
  9 15  1  1  0  0  0
  9  7  1  0  0  0  0
 10  7  1  0  0  0  0
 10  6  1  0  0  0  0
 11 12  1  6  0  0  0
 11  1  1  0  0  0  0
 11  4  1  0  0  0  0
 13 12  1  0  0  0  0
 14 12  2  0  0  0  0
 15 16  2  0  0  0  0
 15 18  1  0  0  0  0
 18 20  1  0  0  0  0
 20 19  2  0  0  0  0
 20 17  1  0  0  0  0
 21 22  2  0  0  0  0
 22 19  1  0  0  0  0
 23 21  1  0  0  0  0
 23 18  2  0  0  0  0
 25 24  2  0  0  0  0
 26 25  1  0  0  0  0
 27 26  1  0  0  0  0
M  END
>  <MODEL>
3

>  <REMARK>
 VINA RESULT:      -6.8      2.247      4.249
  Name = 
  5 active torsions:
  status: ('A' for Active; 'I' for Inactive)
    1  A    between atoms: C_2  and  C_27
    2  A    between atoms: C_6  and  C_7
    3  A    between atoms: C_7  and  C_25
    4  A    between atoms: C_11  and  C_16
    5  A    between atoms: C_13  and  O_14
                            x       y       z     vdW  Elec       q    Type
                         _______ _______ _______ _____ _____    ______ ____

>  <TORSDO>
F 5

$$$$
=
 OpenBabel10222420203D

 27 30  0  0  1  0  0  0  0  0999 V2000
  190.9290  175.1910  137.1180 C   0  0  2  0  0  3  0  0  0  0  0  0
  188.6220  179.3870  137.1490 C   0  0  0  0  0  3  0  0  0  0  0  0
  191.3150  174.7090  138.3870 O   0  0  0  0  0  0  0  0  0  0  0  0
  188.6430  175.9530  136.2050 C   0  0  1  0  0  3  0  0  0  0  0  0
  191.2200  176.1060  138.2640 C   0  0  2  0  0  3  0  0  0  0  0  0
  188.3660  178.3930  136.2760 N   0  0  0  0  0  0  0  0  0  0  0  0
  189.2670  177.5940  138.0580 C   0  0  0  0  0  0  0  0  0  0  0  0
  189.1990  178.9220  138.2780 N   0  0  0  0  0  0  0  0  0  0  0  0
  189.9650  176.6210  138.9640 C   0  0  2  0  0  3  0  0  0  0  0  0
  188.7780  177.2730  136.8440 N   0  0  0  0  0  0  0  0  0  0  0  0
  189.4520  174.8340  136.8970 C   0  0  1  0  0  3  0  0  0  0  0  0
  189.3670  173.5440  136.1410 C   0  0  0  0  0  0  0  0  0  0  0  0
  189.9810  173.4350  134.8630 N   0  0  0  0  0  1  0  0  0  0  0  0
  188.7480  172.5580  136.6250 O   0  0  0  0  0  0  0  0  0  0  0  0
  190.2790  177.1930  140.3160 C   0  0  0  0  0  0  0  0  0  0  0  0
  191.4260  177.6710  140.5340 O   0  0  0  0  0  0  0  0  0  0  0  0
  190.3460  175.4590  142.7270 N   0  0  0  0  0  1  0  0  0  0  0  0
  189.2330  177.2070  141.3660 C   0  0  0  0  0  0  0  0  0  0  0  0
  188.2770  176.4530  143.4260 N   0  0  0  0  0  0  0  0  0  0  0  0
  189.2780  176.3780  142.5090 C   0  0  0  0  0  0  0  0  0  0  0  0
  187.1840  178.1280  142.1490 C   0  0  0  0  0  3  0  0  0  0  0  0
  187.2340  177.3080  143.2720 C   0  0  0  0  0  3  0  0  0  0  0  0
  188.1790  178.0590  141.2270 N   0  0  0  0  0  0  0  0  0  0  0  0
  187.1950  175.5700  136.1510 C   0  0  0  0  0  3  0  0  0  0  0  0
  186.5240  175.2860  137.2580 C   0  0  0  0  0  3  0  0  0  0  0  0
  185.1840  174.9320  137.1840 O   0  0  0  0  0  0  0  0  0  0  0  0
  184.7680  173.6440  137.6000 C   0  0  0  0  0  1  0  0  0  0  0  0
  1  5  1  0  0  0  0
  1  3  1  1  0  0  0
  2  8  1  0  0  0  0
  4 24  1  1  0  0  0
  4 10  1  0  0  0  0
  4 11  1  0  0  0  0
  5  3  1  1  0  0  0
  5  9  1  0  0  0  0
  6 10  1  0  0  0  0
  6  2  2  0  0  0  0
  7  8  2  0  0  0  0
  7  9  1  0  0  0  0
  9 15  1  1  0  0  0
 10  7  1  0  0  0  0
 11 12  1  6  0  0  0
 11  1  1  0  0  0  0
 12 14  2  0  0  0  0
 13 12  1  0  0  0  0
 15 16  2  0  0  0  0
 15 18  1  0  0  0  0
 18 20  1  0  0  0  0
 20 17  1  0  0  0  0
 20 19  2  0  0  0  0
 21 22  2  0  0  0  0
 22 19  1  0  0  0  0
 23 18  2  0  0  0  0
 23 21  1  0  0  0  0
 24 25  2  0  0  0  0
 26 25  1  0  0  0  0
 26 27  1  0  0  0  0
M  END
>  <MODEL>
4

>  <REMARK>
 VINA RESULT:      -6.7      4.408      6.723
  Name = 
  5 active torsions:
  status: ('A' for Active; 'I' for Inactive)
    1  A    between atoms: C_2  and  C_27
    2  A    between atoms: C_6  and  C_7
    3  A    between atoms: C_7  and  C_25
    4  A    between atoms: C_11  and  C_16
    5  A    between atoms: C_13  and  O_14
                            x       y       z     vdW  Elec       q    Type
                         _______ _______ _______ _____ _____    ______ ____

>  <TORSDO>
F 5

$$$$
=
 OpenBabel10222420203D

 27 30  0  0  1  0  0  0  0  0999 V2000
  184.1090  179.4560  144.0370 C   0  0  2  0  0  3  0  0  0  0  0  0
  185.8030  178.8830  139.5940 C   0  0  0  0  0  3  0  0  0  0  0  0
  182.8020  178.9690  144.2480 O   0  0  0  0  0  0  0  0  0  0  0  0
  186.2190  178.3230  143.0870 C   0  0  1  0  0  3  0  0  0  0  0  0
  183.0970  179.3870  142.9380 C   0  0  2  0  0  3  0  0  0  0  0  0
  186.5630  178.8170  140.7050 N   0  0  0  0  0  0  0  0  0  0  0  0
  184.5130  178.3840  141.1890 C   0  0  0  0  0  0  0  0  0  0  0  0
  184.5040  178.6260  139.8640 N   0  0  0  0  0  0  0  0  0  0  0  0
  183.2790  178.1810  142.0200 C   0  0  2  0  0  3  0  0  0  0  0  0
  185.7530  178.5120  141.7030 N   0  0  0  0  0  0  0  0  0  0  0  0
  185.0840  178.2740  144.1320 C   0  0  1  0  0  3  0  0  0  0  0  0
  185.6220  178.1930  145.5280 C   0  0  0  0  0  0  0  0  0  0  0  0
  185.6370  179.3570  146.3450 N   0  0  0  0  0  1  0  0  0  0  0  0
  186.0700  177.1050  145.9800 O   0  0  0  0  0  0  0  0  0  0  0  0
  182.0500  177.9190  141.1980 C   0  0  0  0  0  0  0  0  0  0  0  0
  181.9480  176.8320  140.5670 O   0  0  0  0  0  0  0  0  0  0  0  0
  179.7530  177.9500  143.0820 N   0  0  0  0  0  1  0  0  0  0  0  0
  180.9680  178.9310  141.1570 C   0  0  0  0  0  0  0  0  0  0  0  0
  178.9310  179.9010  141.9540 N   0  0  0  0  0  0  0  0  0  0  0  0
  179.8820  178.9350  142.0600 C   0  0  0  0  0  0  0  0  0  0  0  0
  180.0670  180.8670  140.1070 C   0  0  0  0  0  3  0  0  0  0  0  0
  178.9990  180.8650  141.0000 C   0  0  0  0  0  3  0  0  0  0  0  0
  181.0200  179.9060  140.2050 N   0  0  0  0  0  0  0  0  0  0  0  0
  187.0380  177.0700  143.1700 C   0  0  0  0  0  3  0  0  0  0  0  0
  188.3600  177.1250  143.2560 C   0  0  0  0  0  3  0  0  0  0  0  0
  189.0980  175.9520  143.3320 O   0  0  0  0  0  0  0  0  0  0  0  0
  190.4350  175.9280  142.8660 C   0  0  0  0  0  1  0  0  0  0  0  0
  1 11  1  0  0  0  0
  1  3  1  1  0  0  0
  2  8  1  0  0  0  0
  2  6  2  0  0  0  0
  4 24  1  6  0  0  0
  4 11  1  0  0  0  0
  5  1  1  0  0  0  0
  5  3  1  1  0  0  0
  6 10  1  0  0  0  0
  7 10  1  0  0  0  0
  7  9  1  0  0  0  0
  8  7  2  0  0  0  0
  9 15  1  6  0  0  0
  9  5  1  0  0  0  0
 10  4  1  0  0  0  0
 11 12  1  1  0  0  0
 12 14  2  0  0  0  0
 12 13  1  0  0  0  0
 16 15  2  0  0  0  0
 18 15  1  0  0  0  0
 18 20  1  0  0  0  0
 19 20  2  0  0  0  0
 20 17  1  0  0  0  0
 21 23  1  0  0  0  0
 21 22  2  0  0  0  0
 22 19  1  0  0  0  0
 23 18  2  0  0  0  0
 24 25  2  0  0  0  0
 25 26  1  0  0  0  0
 27 26  1  0  0  0  0
M  END
>  <MODEL>
5

>  <REMARK>
 VINA RESULT:      -6.4      3.324      8.101
  Name = 
  5 active torsions:
  status: ('A' for Active; 'I' for Inactive)
    1  A    between atoms: C_2  and  C_27
    2  A    between atoms: C_6  and  C_7
    3  A    between atoms: C_7  and  C_25
    4  A    between atoms: C_11  and  C_16
    5  A    between atoms: C_13  and  O_14
                            x       y       z     vdW  Elec       q    Type
                         _______ _______ _______ _____ _____    ______ ____

>  <TORSDO>
F 5

$$$$
=
 OpenBabel10222420203D

 27 30  0  0  1  0  0  0  0  0999 V2000
  188.5240  178.6280  140.4260 C   0  0  2  0  0  3  0  0  0  0  0  0
  192.8400  177.0640  139.0620 C   0  0  0  0  0  3  0  0  0  0  0  0
  187.4410  178.1400  139.6650 O   0  0  0  0  0  0  0  0  0  0  0  0
  190.4290  177.4070  141.6600 C   0  0  1  0  0  3  0  0  0  0  0  0
  188.6710  178.2370  138.9910 C   0  0  2  0  0  3  0  0  0  0  0  0
  192.4990  177.3150  140.3420 N   0  0  0  0  0  0  0  0  0  0  0  0
  190.7380  176.9080  139.1760 C   0  0  0  0  0  0  0  0  0  0  0  0
  191.7550  176.8140  138.2970 N   0  0  0  0  0  0  0  0  0  0  0  0
  189.2850  176.8520  138.7990 C   0  0  2  0  0  3  0  0  0  0  0  0
  191.1820  177.2230  140.4090 N   0  0  0  0  0  0  0  0  0  0  0  0
  188.9050  177.5590  141.4600 C   0  0  1  0  0  3  0  0  0  0  0  0
  188.2050  177.8530  142.7520 C   0  0  0  0  0  0  0  0  0  0  0  0
  186.8360  177.5030  142.9060 N   0  0  0  0  0  1  0  0  0  0  0  0
  188.8180  178.4170  143.6980 O   0  0  0  0  0  0  0  0  0  0  0  0
  189.0560  176.3320  137.4090 C   0  0  0  0  0  0  0  0  0  0  0  0
  189.4510  177.0100  136.4220 O   0  0  0  0  0  0  0  0  0  0  0  0
  190.5180  173.7530  137.2180 N   0  0  0  0  0  1  0  0  0  0  0  0
  188.3880  175.0220  137.2190 C   0  0  0  0  0  0  0  0  0  0  0  0
  188.4070  172.6440  136.9570 N   0  0  0  0  0  0  0  0  0  0  0  0
  189.0960  173.8030  137.1310 C   0  0  0  0  0  0  0  0  0  0  0  0
  186.3480  173.8270  136.9520 C   0  0  0  0  0  3  0  0  0  0  0  0
  187.0520  172.6290  136.8660 C   0  0  0  0  0  3  0  0  0  0  0  0
  187.0290  174.9890  137.1250 N   0  0  0  0  0  0  0  0  0  0  0  0
  190.7060  176.2580  142.5830 C   0  0  0  0  0  3  0  0  0  0  0  0
  191.5560  176.3850  143.5920 C   0  0  0  0  0  3  0  0  0  0  0  0
  191.7980  175.3080  144.4330 O   0  0  0  0  0  0  0  0  0  0  0  0
  192.0550  175.5280  145.8080 C   0  0  0  0  0  1  0  0  0  0  0  0
  1  3  1  6  0  0  0
  1 11  1  0  0  0  0
  2  6  2  0  0  0  0
  4 24  1  1  0  0  0
  5  3  1  1  0  0  0
  5  1  1  0  0  0  0
  6 10  1  0  0  0  0
  7 10  1  0  0  0  0
  8  2  1  0  0  0  0
  8  7  2  0  0  0  0
  9 15  1  6  0  0  0
  9  5  1  0  0  0  0
  9  7  1  0  0  0  0
 10  4  1  0  0  0  0
 11  4  1  0  0  0  0
 11 12  1  1  0  0  0
 12 13  1  0  0  0  0
 12 14  2  0  0  0  0
 16 15  2  0  0  0  0
 18 15  1  0  0  0  0
 19 20  2  0  0  0  0
 20 17  1  0  0  0  0
 20 18  1  0  0  0  0
 21 23  1  0  0  0  0
 22 21  2  0  0  0  0
 22 19  1  0  0  0  0
 23 18  2  0  0  0  0
 24 25  2  0  0  0  0
 25 26  1  0  0  0  0
 26 27  1  0  0  0  0
M  END
>  <MODEL>
6

>  <REMARK>
 VINA RESULT:      -6.3      3.658      7.384
  Name = 
  5 active torsions:
  status: ('A' for Active; 'I' for Inactive)
    1  A    between atoms: C_2  and  C_27
    2  A    between atoms: C_6  and  C_7
    3  A    between atoms: C_7  and  C_25
    4  A    between atoms: C_11  and  C_16
    5  A    between atoms: C_13  and  O_14
                            x       y       z     vdW  Elec       q    Type
                         _______ _______ _______ _____ _____    ______ ____

>  <TORSDO>
F 5

$$$$
=
 OpenBabel10222420203D

 27 30  0  0  1  0  0  0  0  0999 V2000
  191.7090  177.7640  141.1410 C   0  0  2  0  0  3  0  0  0  0  0  0
  187.0640  178.6830  140.4250 C   0  0  0  0  0  3  0  0  0  0  0  0
  191.9880  176.8620  142.1890 O   0  0  0  0  0  0  0  0  0  0  0  0
  190.1690  177.5670  139.0850 C   0  0  1  0  0  3  0  0  0  0  0  0
  190.8070  177.6140  142.3240 C   0  0  2  0  0  3  0  0  0  0  0  0
  187.9820  178.6280  139.4400 N   0  0  0  0  0  0  0  0  0  0  0  0
  188.6520  177.4870  141.1360 C   0  0  0  0  0  0  0  0  0  0  0  0
  187.4580  177.9850  141.5130 N   0  0  0  0  0  0  0  0  0  0  0  0
  189.5850  176.7430  142.0480 C   0  0  2  0  0  3  0  0  0  0  0  0
  188.9780  177.8850  139.8900 N   0  0  0  0  0  0  0  0  0  0  0  0
  191.3310  176.9520  139.8950 C   0  0  1  0  0  3  0  0  0  0  0  0
  192.5510  176.7540  139.0480 C   0  0  0  0  0  0  0  0  0  0  0  0
  192.5770  175.7080  138.0860 N   0  0  0  0  0  1  0  0  0  0  0  0
  193.5550  177.5020  139.1890 O   0  0  0  0  0  0  0  0  0  0  0  0
  188.9280  176.2880  143.3200 C   0  0  0  0  0  0  0  0  0  0  0  0
  187.9310  175.5190  143.2610 O   0  0  0  0  0  0  0  0  0  0  0  0
  187.3980  177.9260  145.2700 N   0  0  0  0  0  1  0  0  0  0  0  0
  189.4740  176.7340  144.6240 C   0  0  0  0  0  0  0  0  0  0  0  0
  189.3090  177.8780  146.7190 N   0  0  0  0  0  0  0  0  0  0  0  0
  188.7340  177.5110  145.5430 C   0  0  0  0  0  0  0  0  0  0  0  0
  191.3130  176.7470  146.1340 C   0  0  0  0  0  3  0  0  0  0  0  0
  190.5790  177.5140  147.0350 C   0  0  0  0  0  3  0  0  0  0  0  0
  190.7460  176.3780  144.9560 N   0  0  0  0  0  0  0  0  0  0  0  0
  189.7850  176.6430  137.9690 C   0  0  0  0  0  3  0  0  0  0  0  0
  189.5810  177.1030  136.7430 C   0  0  0  0  0  3  0  0  0  0  0  0
  189.2250  176.2300  135.7250 O   0  0  0  0  0  0  0  0  0  0  0  0
  189.3640  174.8330  135.9110 C   0  0  0  0  0  1  0  0  0  0  0  0
  1  3  1  1  0  0  0
  1  5  1  0  0  0  0
  2  8  1  0  0  0  0
  4 24  1  6  0  0  0
  4 10  1  0  0  0  0
  4 11  1  0  0  0  0
  5  3  1  1  0  0  0
  6 10  1  0  0  0  0
  6  2  2  0  0  0  0
  7  8  2  0  0  0  0
  7  9  1  0  0  0  0
  9  5  1  0  0  0  0
  9 15  1  1  0  0  0
 10  7  1  0  0  0  0
 11 12  1  6  0  0  0
 11  1  1  0  0  0  0
 12 14  2  0  0  0  0
 13 12  1  0  0  0  0
 15 18  1  0  0  0  0
 16 15  2  0  0  0  0
 17 20  1  0  0  0  0
 18 23  2  0  0  0  0
 18 20  1  0  0  0  0
 19 22  1  0  0  0  0
 20 19  2  0  0  0  0
 21 22  2  0  0  0  0
 23 21  1  0  0  0  0
 25 24  2  0  0  0  0
 26 27  1  0  0  0  0
 26 25  1  0  0  0  0
M  END
>  <MODEL>
7

>  <REMARK>
 VINA RESULT:      -6.1      3.063      5.502
  Name = 
  5 active torsions:
  status: ('A' for Active; 'I' for Inactive)
    1  A    between atoms: C_2  and  C_27
    2  A    between atoms: C_6  and  C_7
    3  A    between atoms: C_7  and  C_25
    4  A    between atoms: C_11  and  C_16
    5  A    between atoms: C_13  and  O_14
                            x       y       z     vdW  Elec       q    Type
                         _______ _______ _______ _____ _____    ______ ____

>  <TORSDO>
F 5

$$$$
=
 OpenBabel10222420203D

 27 30  0  0  1  0  0  0  0  0999 V2000
  188.4530  178.4270  141.5100 C   0  0  2  0  0  3  0  0  0  0  0  0
  192.9100  177.4210  140.0760 C   0  0  0  0  0  3  0  0  0  0  0  0
  187.4280  177.8190  140.7550 O   0  0  0  0  0  0  0  0  0  0  0  0
  190.5080  177.4360  142.7060 C   0  0  1  0  0  3  0  0  0  0  0  0
  188.6280  178.0730  140.0670 C   0  0  2  0  0  3  0  0  0  0  0  0
  192.5570  177.6130  141.3630 N   0  0  0  0  0  0  0  0  0  0  0  0
  190.8440  177.0060  140.2120 C   0  0  0  0  0  0  0  0  0  0  0  0
  191.8540  177.0480  139.3210 N   0  0  0  0  0  0  0  0  0  0  0  0
  189.4050  176.7770  139.8510 C   0  0  2  0  0  3  0  0  0  0  0  0
  191.2630  177.3600  141.4440 N   0  0  0  0  0  0  0  0  0  0  0  0
  188.9750  177.4020  142.5260 C   0  0  1  0  0  3  0  0  0  0  0  0
  188.2610  177.5940  143.8290 C   0  0  0  0  0  0  0  0  0  0  0  0
  187.0560  176.8840  144.0820 N   0  0  0  0  0  1  0  0  0  0  0  0
  188.7160  178.3860  144.6970 O   0  0  0  0  0  0  0  0  0  0  0  0
  189.2230  176.2470  138.4580 C   0  0  0  0  0  0  0  0  0  0  0  0
  190.0120  175.3640  138.0240 O   0  0  0  0  0  0  0  0  0  0  0  0
  189.4140  178.6810  136.7650 N   0  0  0  0  0  1  0  0  0  0  0  0
  188.1100  176.7550  137.6210 C   0  0  0  0  0  0  0  0  0  0  0  0
  187.1450  178.3110  136.0810 N   0  0  0  0  0  0  0  0  0  0  0  0
  188.2150  177.9130  136.8200 C   0  0  0  0  0  0  0  0  0  0  0  0
  185.8660  176.4780  136.8800 C   0  0  0  0  0  3  0  0  0  0  0  0
  185.9760  177.6210  136.0930 C   0  0  0  0  0  3  0  0  0  0  0  0
  186.9290  176.0750  137.6220 N   0  0  0  0  0  0  0  0  0  0  0  0
  190.9360  176.3200  143.6110 C   0  0  0  0  0  3  0  0  0  0  0  0
  191.6540  176.5620  144.6980 C   0  0  0  0  0  3  0  0  0  0  0  0
  192.0400  175.5130  145.5220 O   0  0  0  0  0  0  0  0  0  0  0  0
  192.1390  175.7120  146.9200 C   0  0  0  0  0  1  0  0  0  0  0  0
  1  3  1  1  0  0  0
  1 11  1  0  0  0  0
  2  6  2  0  0  0  0
  4 24  1  1  0  0  0
  5  3  1  1  0  0  0
  5  1  1  0  0  0  0
  6 10  1  0  0  0  0
  7 10  1  0  0  0  0
  8  2  1  0  0  0  0
  8  7  2  0  0  0  0
  9 15  1  6  0  0  0
  9  5  1  0  0  0  0
  9  7  1  0  0  0  0
 10  4  1  0  0  0  0
 11  4  1  0  0  0  0
 11 12  1  1  0  0  0
 12 13  1  0  0  0  0
 12 14  2  0  0  0  0
 16 15  2  0  0  0  0
 17 20  1  0  0  0  0
 18 23  1  0  0  0  0
 18 15  1  0  0  0  0
 19 22  2  0  0  0  0
 19 20  1  0  0  0  0
 20 18  2  0  0  0  0
 21 23  2  0  0  0  0
 22 21  1  0  0  0  0
 24 25  2  0  0  0  0
 25 26  1  0  0  0  0
 26 27  1  0  0  0  0
M  END
>  <MODEL>
8

>  <REMARK>
 VINA RESULT:      -6.1      3.171      7.375
  Name = 
  5 active torsions:
  status: ('A' for Active; 'I' for Inactive)
    1  A    between atoms: C_2  and  C_27
    2  A    between atoms: C_6  and  C_7
    3  A    between atoms: C_7  and  C_25
    4  A    between atoms: C_11  and  C_16
    5  A    between atoms: C_13  and  O_14
                            x       y       z     vdW  Elec       q    Type
                         _______ _______ _______ _____ _____    ______ ____

>  <TORSDO>
F 5

$$$$
=
 OpenBabel10222420203D

 27 30  0  0  1  0  0  0  0  0999 V2000
  188.9740  176.2780  136.0220 C   0  0  2  0  0  3  0  0  0  0  0  0
  184.9460  178.0730  137.8890 C   0  0  0  0  0  3  0  0  0  0  0  0
  190.1290  176.4430  136.8150 O   0  0  0  0  0  0  0  0  0  0  0  0
  186.6700  175.2560  136.5550 C   0  0  1  0  0  3  0  0  0  0  0  0
  189.1290  177.4190  136.9760 C   0  0  2  0  0  3  0  0  0  0  0  0
  184.9950  176.9580  137.1340 N   0  0  0  0  0  0  0  0  0  0  0  0
  186.9110  177.3160  138.0440 C   0  0  0  0  0  0  0  0  0  0  0  0
  186.1380  178.3350  138.4690 N   0  0  0  0  0  0  0  0  0  0  0  0
  188.3880  177.2120  138.2940 C   0  0  2  0  0  3  0  0  0  0  0  0
  186.2280  176.4900  137.2260 N   0  0  0  0  0  0  0  0  0  0  0  0
  188.2010  175.0590  136.5460 C   0  0  1  0  0  3  0  0  0  0  0  0
  188.5970  173.8500  135.7550 C   0  0  0  0  0  0  0  0  0  0  0  0
  189.5000  172.9060  136.3190 N   0  0  0  0  0  1  0  0  0  0  0  0
  188.1440  173.6670  134.5940 O   0  0  0  0  0  0  0  0  0  0  0  0
  188.8740  178.1550  139.3570 C   0  0  0  0  0  0  0  0  0  0  0  0
  189.0360  179.3740  139.0760 O   0  0  0  0  0  0  0  0  0  0  0  0
  187.0710  178.6390  141.6680 N   0  0  0  0  0  1  0  0  0  0  0  0
  189.1360  177.6450  140.7240 C   0  0  0  0  0  0  0  0  0  0  0  0
  188.5830  177.3770  143.0360 N   0  0  0  0  0  0  0  0  0  0  0  0
  188.2690  177.8810  141.8140 C   0  0  0  0  0  0  0  0  0  0  0  0
  190.5700  176.4110  142.1670 C   0  0  0  0  0  3  0  0  0  0  0  0
  189.7110  176.6480  143.2370 C   0  0  0  0  0  3  0  0  0  0  0  0
  190.2640  176.9130  140.9430 N   0  0  0  0  0  0  0  0  0  0  0  0
  186.0120  174.0740  137.2010 C   0  0  0  0  0  3  0  0  0  0  0  0
  185.0660  173.3930  136.5710 C   0  0  0  0  0  3  0  0  0  0  0  0
  184.4690  172.3020  137.1880 O   0  0  0  0  0  0  0  0  0  0  0  0
  183.6750  171.4080  136.4300 C   0  0  0  0  0  1  0  0  0  0  0  0
  1 11  1  0  0  0  0
  1  3  1  1  0  0  0
  1  5  1  0  0  0  0
  2  8  1  0  0  0  0
  4 24  1  1  0  0  0
  4 10  1  0  0  0  0
  5  3  1  1  0  0  0
  5  9  1  0  0  0  0
  6 10  1  0  0  0  0
  6  2  2  0  0  0  0
  7  9  1  0  0  0  0
  7  8  2  0  0  0  0
  9 15  1  1  0  0  0
 10  7  1  0  0  0  0
 11 12  1  6  0  0  0
 11  4  1  0  0  0  0
 12 13  1  0  0  0  0
 14 12  2  0  0  0  0
 15 18  1  0  0  0  0
 16 15  2  0  0  0  0
 17 20  1  0  0  0  0
 18 23  2  0  0  0  0
 18 20  1  0  0  0  0
 19 22  1  0  0  0  0
 20 19  2  0  0  0  0
 21 22  2  0  0  0  0
 23 21  1  0  0  0  0
 25 26  1  0  0  0  0
 25 24  2  0  0  0  0
 27 26  1  0  0  0  0
M  END
>  <MODEL>
9

>  <REMARK>
 VINA RESULT:      -6.1      4.801      7.127
  Name = 
  5 active torsions:
  status: ('A' for Active; 'I' for Inactive)
    1  A    between atoms: C_2  and  C_27
    2  A    between atoms: C_6  and  C_7
    3  A    between atoms: C_7  and  C_25
    4  A    between atoms: C_11  and  C_16
    5  A    between atoms: C_13  and  O_14
                            x       y       z     vdW  Elec       q    Type
                         _______ _______ _______ _____ _____    ______ ____

>  <TORSDO>
F 5

$$$$
