=
 OpenBabel10222418043D

 35 39  0  0  0  0  0  0  0  0999 V2000
  186.1150  177.9980  144.1080 C   0  0  0  0  0  3  0  0  0  0  0  0
  191.2610  176.6040  146.5410 C   0  0  0  0  0  0  0  0  0  0  0  0
  184.9220  178.4170  143.4860 C   0  0  0  0  0  0  0  0  0  0  0  0
  189.3480  177.3090  144.7120 C   0  0  0  0  0  0  0  0  0  0  0  0
  184.9240  178.8320  142.1340 C   0  0  0  0  0  3  0  0  0  0  0  0
  186.1100  178.8300  141.3770 C   0  0  0  0  0  3  0  0  0  0  0  0
  190.9480  177.6770  142.7210 S   0  0  0  0  0  0  0  0  0  0  0  0
  187.2700  177.9990  143.3360 C   0  0  0  0  0  0  0  0  0  0  0  0
  188.5300  178.3510  141.4790 N   0  0  0  0  0  0  0  0  0  0  0  0
  191.6400  176.8990  145.2600 N   0  0  0  0  0  0  0  0  0  0  0  0
  187.2790  178.4020  142.0050 C   0  0  0  0  0  0  0  0  0  0  0  0
  188.5760  177.6970  143.6330 C   0  0  0  0  0  0  0  0  0  0  0  0
  188.9670  177.0150  146.0140 C   0  0  0  0  0  3  0  0  0  0  0  0
  189.9400  176.6650  146.9020 N   0  0  0  0  0  0  0  0  0  0  0  0
  190.6910  177.2460  144.3580 C   0  0  0  0  0  0  0  0  0  0  0  0
  189.2910  177.9220  142.5050 C   0  0  0  0  0  0  0  0  0  0  0  0
  192.2730  176.2210  147.5340 C   0  0  0  0  0  0  0  0  0  0  0  0
  192.4860  177.0390  148.6870 N   0  0  0  0  0  2  0  0  0  0  0  0
  193.4710  176.6980  149.7000 C   0  0  0  0  0  1  0  0  0  0  0  0
  192.9520  175.1710  147.3680 O   0  0  0  0  0  0  0  0  0  0  0  0
  188.9750  178.7850  140.1620 C   0  0  0  0  0  2  0  0  0  0  0  0
  187.6290  177.4650  138.4780 C   0  0  0  0  0  3  0  0  0  0  0  0
  189.8430  176.7620  138.9100 C   0  0  0  0  0  3  0  0  0  0  0  0
  187.8780  176.1130  137.5100 S   0  0  0  0  0  0  0  0  0  0  0  0
  188.8170  177.6800  139.1740 C   0  0  0  0  0  0  0  0  0  0  0  0
  189.4640  175.8110  137.9790 C   0  0  0  0  0  0  0  0  0  0  0  0
  191.5270  174.5980  137.9210 N   0  0  0  0  0  2  0  0  0  0  0  0
  190.3060  174.7110  137.5170 C   0  0  0  0  0  3  0  0  0  0  0  0
  183.6530  178.4490  144.2630 C   0  0  0  0  0  2  0  0  0  0  0  0
  182.6330  179.3310  143.5610 C   0  0  0  0  0  2  0  0  0  0  0  0
  181.2280  178.7870  143.7580 C   0  0  0  0  0  2  0  0  0  0  0  0
  179.7230  180.7890  142.3400 O   0  0  0  0  0  0  0  0  0  0  0  0
  181.0670  178.7970  140.7830 C   0  0  0  0  0  1  0  0  0  0  0  0
  180.1730  179.1580  142.3220 P   0  0  1  0  0  0  0  0  0  0  0  0
  178.9310  178.2980  142.3850 O   0  0  0  0  0  1  0  0  0  0  0  0
  2 14  1  0  0  0  0
  2 17  1  0  0  0  0
  3  1  1  0  0  0  0
  3 29  1  0  0  0  0
  4 13  1  0  0  0  0
  5  3  2  0  0  0  0
  6 11  2  0  0  0  0
  6  5  1  0  0  0  0
  7 15  1  0  0  0  0
  8 12  1  0  0  0  0
  8  1  2  0  0  0  0
  9 11  1  0  0  0  0
  9 16  1  0  0  0  0
 10  2  2  0  0  0  0
 11  8  1  0  0  0  0
 12  4  1  0  0  0  0
 13 14  2  0  0  0  0
 15  4  2  0  0  0  0
 15 10  1  0  0  0  0
 16  7  1  0  0  0  0
 16 12  2  0  0  0  0
 17 18  1  0  0  0  0
 18 19  1  0  0  0  0
 20 17  2  0  0  0  0
 21  9  1  0  0  0  0
 22 25  2  0  0  0  0
 23 25  1  0  0  0  0
 24 26  1  0  0  0  0
 24 22  1  0  0  0  0
 25 21  1  0  0  0  0
 26 23  2  0  0  0  0
 28 27  2  0  0  0  0
 28 26  1  0  0  0  0
 30 31  1  0  0  0  0
 30 29  1  0  0  0  0
 34 33  1  6  0  0  0
 34 32  2  0  0  0  0
 34 35  1  0  0  0  0
 34 31  1  0  0  0  0
M  END
>  <MODEL>
1

>  <REMARK>
 VINA RESULT:      -8.8      0.000      0.000
  Name = 
  8 active torsions:
  status: ('A' for Active; 'I' for Inactive)
    1  A    between atoms: C_2  and  C_30
    2  A    between atoms: C_2  and  C_32
    3  A    between atoms: C_5  and  C_7
    4  A    between atoms: C_8  and  C_30
    5  A    between atoms: C_14  and  C_19
    6  A    between atoms: C_17  and  C_22
    7  A    between atoms: N_20  and  C_22
    8  A    between atoms: P_23  and  C_32
                            x       y       z     vdW  Elec       q    Type
                         _______ _______ _______ _____ _____    ______ ____

>  <TORSDO>
F 8

$$$$
=
 OpenBabel10222418043D

 35 39  0  0  0  0  0  0  0  0999 V2000
  187.7330  177.6010  144.1080 C   0  0  0  0  0  3  0  0  0  0  0  0
  191.4670  177.0740  139.6220 C   0  0  0  0  0  0  0  0  0  0  0  0
  186.8140  177.8220  145.1520 C   0  0  0  0  0  0  0  0  0  0  0  0
  189.1950  177.5260  141.0830 C   0  0  0  0  0  0  0  0  0  0  0  0
  185.5240  178.3340  144.8790 C   0  0  0  0  0  3  0  0  0  0  0  0
  185.1250  178.6280  143.5620 C   0  0  0  0  0  3  0  0  0  0  0  0
  187.7330  178.3600  139.1260 S   0  0  0  0  0  0  0  0  0  0  0  0
  187.3110  177.8940  142.8160 C   0  0  0  0  0  0  0  0  0  0  0  0
  185.8840  178.6340  141.2120 N   0  0  0  0  0  0  0  0  0  0  0  0
  190.3480  177.5390  138.9870 N   0  0  0  0  0  0  0  0  0  0  0  0
  186.0440  178.3940  142.5390 C   0  0  0  0  0  0  0  0  0  0  0  0
  187.9530  177.8360  141.6040 C   0  0  0  0  0  0  0  0  0  0  0  0
  190.3340  177.0610  141.7250 C   0  0  0  0  0  3  0  0  0  0  0  0
  191.4500  176.8430  140.9730 N   0  0  0  0  0  0  0  0  0  0  0  0
  189.2260  177.7600  139.7120 C   0  0  0  0  0  0  0  0  0  0  0  0
  187.0720  178.2870  140.6790 C   0  0  0  0  0  0  0  0  0  0  0  0
  192.6940  176.8240  138.8540 C   0  0  0  0  0  0  0  0  0  0  0  0
  192.6100  176.2950  137.5280 N   0  0  0  0  0  2  0  0  0  0  0  0
  193.7950  176.0370  136.7270 C   0  0  0  0  0  1  0  0  0  0  0  0
  193.8190  177.0780  139.3640 O   0  0  0  0  0  0  0  0  0  0  0  0
  184.7510  179.2500  140.5350 C   0  0  0  0  0  2  0  0  0  0  0  0
  184.1810  178.0800  138.3690 C   0  0  0  0  0  3  0  0  0  0  0  0
  183.0560  177.3810  140.3250 C   0  0  0  0  0  3  0  0  0  0  0  0
  183.1350  176.8550  137.8840 S   0  0  0  0  0  0  0  0  0  0  0  0
  184.0070  178.2300  139.7430 C   0  0  0  0  0  0  0  0  0  0  0  0
  182.4760  176.5350  139.3960 C   0  0  0  0  0  0  0  0  0  0  0  0
  180.2260  175.9280  139.9460 N   0  0  0  0  0  2  0  0  0  0  0  0
  181.4360  175.5530  139.6940 C   0  0  0  0  0  3  0  0  0  0  0  0
  187.2090  177.5390  146.5590 C   0  0  0  0  0  2  0  0  0  0  0  0
  188.6960  177.7950  146.7460 C   0  0  0  0  0  2  0  0  0  0  0  0
  189.3450  176.6480  147.5020 C   0  0  0  0  0  2  0  0  0  0  0  0
  191.7200  175.0230  147.4320 O   0  0  0  0  0  0  0  0  0  0  0  0
  191.5020  177.1290  145.5030 C   0  0  0  0  0  1  0  0  0  0  0  0
  191.1390  176.5960  147.2010 P   0  0  1  0  0  0  0  0  0  0  0  0
  191.8310  177.5290  148.1690 O   0  0  0  0  0  1  0  0  0  0  0  0
  1  3  1  0  0  0  0
  2 14  1  0  0  0  0
  3 29  1  0  0  0  0
  4 12  1  0  0  0  0
  4 13  1  0  0  0  0
  5  3  2  0  0  0  0
  6  5  1  0  0  0  0
  7 15  1  0  0  0  0
  7 16  1  0  0  0  0
  8  1  2  0  0  0  0
  9 11  1  0  0  0  0
 10  2  2  0  0  0  0
 10 15  1  0  0  0  0
 11  8  1  0  0  0  0
 11  6  2  0  0  0  0
 12  8  1  0  0  0  0
 14 13  2  0  0  0  0
 15  4  2  0  0  0  0
 16  9  1  0  0  0  0
 16 12  2  0  0  0  0
 17 20  2  0  0  0  0
 17  2  1  0  0  0  0
 18 17  1  0  0  0  0
 19 18  1  0  0  0  0
 21  9  1  0  0  0  0
 22 25  2  0  0  0  0
 24 22  1  0  0  0  0
 24 26  1  0  0  0  0
 25 23  1  0  0  0  0
 25 21  1  0  0  0  0
 26 28  1  0  0  0  0
 26 23  2  0  0  0  0
 28 27  2  0  0  0  0
 29 30  1  0  0  0  0
 30 31  1  0  0  0  0
 34 33  1  6  0  0  0
 34 32  2  0  0  0  0
 34 31  1  0  0  0  0
 34 35  1  0  0  0  0
M  END
>  <MODEL>
2

>  <REMARK>
 VINA RESULT:      -8.8      4.790      7.421
  Name = 
  8 active torsions:
  status: ('A' for Active; 'I' for Inactive)
    1  A    between atoms: C_2  and  C_30
    2  A    between atoms: C_2  and  C_32
    3  A    between atoms: C_5  and  C_7
    4  A    between atoms: C_8  and  C_30
    5  A    between atoms: C_14  and  C_19
    6  A    between atoms: C_17  and  C_22
    7  A    between atoms: N_20  and  C_22
    8  A    between atoms: P_23  and  C_32
                            x       y       z     vdW  Elec       q    Type
                         _______ _______ _______ _____ _____    ______ ____

>  <TORSDO>
F 8

$$$$
=
 OpenBabel10222418043D

 35 39  0  0  0  0  0  0  0  0999 V2000
  185.4030  178.6230  143.6360 C   0  0  0  0  0  3  0  0  0  0  0  0
  187.4000  178.3890  138.1320 C   0  0  0  0  0  0  0  0  0  0  0  0
  184.8710  178.7630  144.9330 C   0  0  0  0  0  0  0  0  0  0  0  0
  185.7240  178.5350  140.2920 C   0  0  0  0  0  0  0  0  0  0  0  0
  183.4880  178.9890  145.1230 C   0  0  0  0  0  3  0  0  0  0  0  0
  182.6100  179.0690  144.0270 C   0  0  0  0  0  3  0  0  0  0  0  0
  183.5380  178.8770  138.9620 S   0  0  0  0  0  0  0  0  0  0  0  0
  184.5130  178.7010  142.5720 C   0  0  0  0  0  0  0  0  0  0  0  0
  182.5000  178.9920  141.5600 N   0  0  0  0  0  0  0  0  0  0  0  0
  186.0600  178.5650  137.9250 N   0  0  0  0  0  0  0  0  0  0  0  0
  183.1510  178.9180  142.7500 C   0  0  0  0  0  0  0  0  0  0  0  0
  184.6980  178.6490  141.2120 C   0  0  0  0  0  0  0  0  0  0  0  0
  187.0850  178.3630  140.5000 C   0  0  0  0  0  3  0  0  0  0  0  0
  187.8950  178.2920  139.4060 N   0  0  0  0  0  0  0  0  0  0  0  0
  185.2330  178.6360  138.9950 C   0  0  0  0  0  0  0  0  0  0  0  0
  183.4790  178.8300  140.6500 C   0  0  0  0  0  0  0  0  0  0  0  0
  188.3130  178.3060  136.9840 C   0  0  0  0  0  0  0  0  0  0  0  0
  187.9440  177.5450  135.8320 N   0  0  0  0  0  2  0  0  0  0  0  0
  188.8120  177.4390  134.6700 C   0  0  0  0  0  1  0  0  0  0  0  0
  189.4220  178.9080  137.0180 O   0  0  0  0  0  0  0  0  0  0  0  0
  181.1000  179.3090  141.3150 C   0  0  0  0  0  2  0  0  0  0  0  0
  179.9180  178.2770  139.3340 C   0  0  0  0  0  3  0  0  0  0  0  0
  180.2290  176.9320  141.2510 C   0  0  0  0  0  3  0  0  0  0  0  0
  179.2230  176.7890  138.9680 S   0  0  0  0  0  0  0  0  0  0  0  0
  180.4270  178.1720  140.6270 C   0  0  0  0  0  0  0  0  0  0  0  0
  179.5630  176.0370  140.4330 C   0  0  0  0  0  0  0  0  0  0  0  0
  178.9630  174.3700  142.0430 N   0  0  0  0  0  2  0  0  0  0  0  0
  179.1920  174.6760  140.8100 C   0  0  0  0  0  3  0  0  0  0  0  0
  185.7740  178.7010  146.1150 C   0  0  0  0  0  2  0  0  0  0  0  0
  186.7500  177.5450  145.9670 C   0  0  0  0  0  2  0  0  0  0  0  0
  188.1100  177.9160  146.5340 C   0  0  0  0  0  2  0  0  0  0  0  0
  189.9700  178.9040  144.5710 O   0  0  0  0  0  1  0  0  0  0  0  0
  190.8380  176.7500  146.2470 C   0  0  0  0  0  1  0  0  0  0  0  0
  189.4420  177.5050  145.3630 P   0  0  1  0  0  0  0  0  0  0  0  0
  188.9160  176.5230  144.3400 O   0  0  0  0  0  0  0  0  0  0  0  0
  1  3  1  0  0  0  0
  2 14  1  0  0  0  0
  3  5  2  0  0  0  0
  3 29  1  0  0  0  0
  4 13  1  0  0  0  0
  4 12  1  0  0  0  0
  6  5  1  0  0  0  0
  7 15  1  0  0  0  0
  7 16  1  0  0  0  0
  8 11  1  0  0  0  0
  8  1  2  0  0  0  0
  9 11  1  0  0  0  0
 10  2  2  0  0  0  0
 10 15  1  0  0  0  0
 11  6  2  0  0  0  0
 12  8  1  0  0  0  0
 14 13  2  0  0  0  0
 15  4  2  0  0  0  0
 16 12  2  0  0  0  0
 16  9  1  0  0  0  0
 17 20  2  0  0  0  0
 17  2  1  0  0  0  0
 18 17  1  0  0  0  0
 19 18  1  0  0  0  0
 21  9  1  0  0  0  0
 22 25  2  0  0  0  0
 24 22  1  0  0  0  0
 24 26  1  0  0  0  0
 25 23  1  0  0  0  0
 25 21  1  0  0  0  0
 26 28  1  0  0  0  0
 26 23  2  0  0  0  0
 28 27  2  0  0  0  0
 30 29  1  0  0  0  0
 30 31  1  0  0  0  0
 32 34  1  0  0  0  0
 34 33  1  1  0  0  0
 34 31  1  0  0  0  0
 35 34  2  0  0  0  0
M  END
>  <MODEL>
3

>  <REMARK>
 VINA RESULT:      -8.4      4.774      8.652
  Name = 
  8 active torsions:
  status: ('A' for Active; 'I' for Inactive)
    1  A    between atoms: C_2  and  C_30
    2  A    between atoms: C_2  and  C_32
    3  A    between atoms: C_5  and  C_7
    4  A    between atoms: C_8  and  C_30
    5  A    between atoms: C_14  and  C_19
    6  A    between atoms: C_17  and  C_22
    7  A    between atoms: N_20  and  C_22
    8  A    between atoms: P_23  and  C_32
                            x       y       z     vdW  Elec       q    Type
                         _______ _______ _______ _____ _____    ______ ____

>  <TORSDO>
F 8

$$$$
=
 OpenBabel10222418043D

 35 39  0  0  0  0  0  0  0  0999 V2000
  186.4200  178.1400  144.6030 C   0  0  0  0  0  3  0  0  0  0  0  0
  187.7680  178.4120  138.9070 C   0  0  0  0  0  0  0  0  0  0  0  0
  186.0490  178.1650  145.9620 C   0  0  0  0  0  0  0  0  0  0  0  0
  186.3600  178.4240  141.2550 C   0  0  0  0  0  0  0  0  0  0  0  0
  184.7190  178.4660  146.3390 C   0  0  0  0  0  3  0  0  0  0  0  0
  183.7360  178.7400  145.3710 C   0  0  0  0  0  3  0  0  0  0  0  0
  184.0780  179.0790  140.2410 S   0  0  0  0  0  0  0  0  0  0  0  0
  185.4270  178.4080  143.6680 C   0  0  0  0  0  0  0  0  0  0  0  0
  183.3480  178.9620  142.9420 N   0  0  0  0  0  0  0  0  0  0  0  0
  186.4330  178.7090  138.8820 N   0  0  0  0  0  0  0  0  0  0  0  0
  184.1180  178.7010  144.0300 C   0  0  0  0  0  0  0  0  0  0  0  0
  185.4560  178.5030  142.2980 C   0  0  0  0  0  0  0  0  0  0  0  0
  187.7160  178.1300  141.2790 C   0  0  0  0  0  3  0  0  0  0  0  0
  188.3910  178.1290  140.0940 N   0  0  0  0  0  0  0  0  0  0  0  0
  185.7390  178.7130  140.0440 C   0  0  0  0  0  0  0  0  0  0  0  0
  184.2030  178.8370  141.9080 C   0  0  0  0  0  0  0  0  0  0  0  0
  188.5390  178.3990  137.6560 C   0  0  0  0  0  0  0  0  0  0  0  0
  188.7840  177.1620  136.9830 N   0  0  0  0  0  2  0  0  0  0  0  0
  189.5350  177.0990  135.7400 C   0  0  0  0  0  1  0  0  0  0  0  0
  188.9820  179.4790  137.1780 O   0  0  0  0  0  0  0  0  0  0  0  0
  181.9610  179.4080  142.9020 C   0  0  0  0  0  2  0  0  0  0  0  0
  180.6700  179.5480  140.7340 C   0  0  0  0  0  3  0  0  0  0  0  0
  181.0990  177.4010  141.6210 C   0  0  0  0  0  3  0  0  0  0  0  0
  179.9620  178.4600  139.6640 S   0  0  0  0  0  0  0  0  0  0  0  0
  181.2540  178.7890  141.7460 C   0  0  0  0  0  0  0  0  0  0  0  0
  180.3910  177.0560  140.4830 C   0  0  0  0  0  0  0  0  0  0  0  0
  179.1760  175.0120  140.7580 N   0  0  0  0  0  2  0  0  0  0  0  0
  180.0490  175.6910  140.0930 C   0  0  0  0  0  3  0  0  0  0  0  0
  187.0680  177.8970  147.0130 C   0  0  0  0  0  2  0  0  0  0  0  0
  188.2220  177.0970  146.4320 C   0  0  0  0  0  2  0  0  0  0  0  0
  189.4790  177.9470  146.3560 C   0  0  0  0  0  2  0  0  0  0  0  0
  189.6590  176.4510  143.9030 O   0  0  0  0  0  0  0  0  0  0  0  0
  191.1570  178.8860  144.0790 C   0  0  0  0  0  1  0  0  0  0  0  0
  190.5380  177.4290  144.9690 P   0  0  1  0  0  0  0  0  0  0  0  0
  191.7130  176.6450  145.5100 O   0  0  0  0  0  1  0  0  0  0  0  0
  1  3  1  0  0  0  0
  2 14  1  0  0  0  0
  3  5  2  0  0  0  0
  3 29  1  0  0  0  0
  4 13  1  0  0  0  0
  4 12  1  0  0  0  0
  6  5  1  0  0  0  0
  7 16  1  0  0  0  0
  8 11  1  0  0  0  0
  8  1  2  0  0  0  0
  9 11  1  0  0  0  0
 10  2  2  0  0  0  0
 10 15  1  0  0  0  0
 11  6  2  0  0  0  0
 12  8  1  0  0  0  0
 14 13  2  0  0  0  0
 15  7  1  0  0  0  0
 15  4  2  0  0  0  0
 16 12  2  0  0  0  0
 16  9  1  0  0  0  0
 17  2  1  0  0  0  0
 18 17  1  0  0  0  0
 19 18  1  0  0  0  0
 20 17  2  0  0  0  0
 21  9  1  0  0  0  0
 22 25  2  0  0  0  0
 23 25  1  0  0  0  0
 24 26  1  0  0  0  0
 24 22  1  0  0  0  0
 25 21  1  0  0  0  0
 26 23  2  0  0  0  0
 28 26  1  0  0  0  0
 28 27  2  0  0  0  0
 30 29  1  0  0  0  0
 31 30  1  0  0  0  0
 32 34  2  0  0  0  0
 34 33  1  6  0  0  0
 34 35  1  0  0  0  0
 34 31  1  0  0  0  0
M  END
>  <MODEL>
4

>  <REMARK>
 VINA RESULT:      -8.2      4.606      8.383
  Name = 
  8 active torsions:
  status: ('A' for Active; 'I' for Inactive)
    1  A    between atoms: C_2  and  C_30
    2  A    between atoms: C_2  and  C_32
    3  A    between atoms: C_5  and  C_7
    4  A    between atoms: C_8  and  C_30
    5  A    between atoms: C_14  and  C_19
    6  A    between atoms: C_17  and  C_22
    7  A    between atoms: N_20  and  C_22
    8  A    between atoms: P_23  and  C_32
                            x       y       z     vdW  Elec       q    Type
                         _______ _______ _______ _____ _____    ______ ____

>  <TORSDO>
F 8

$$$$
=
 OpenBabel10222418043D

 35 39  0  0  0  0  0  0  0  0999 V2000
  185.2300  178.2390  142.7040 C   0  0  0  0  0  3  0  0  0  0  0  0
  189.9810  177.1280  145.9490 C   0  0  0  0  0  0  0  0  0  0  0  0
  184.1380  178.5860  141.8840 C   0  0  0  0  0  0  0  0  0  0  0  0
  188.3420  177.6250  143.8130 C   0  0  0  0  0  0  0  0  0  0  0  0
  184.3270  178.8500  140.5080 C   0  0  0  0  0  3  0  0  0  0  0  0
  185.6040  178.7650  139.9230 C   0  0  0  0  0  3  0  0  0  0  0  0
  190.2010  177.7720  142.0280 S   0  0  0  0  0  0  0  0  0  0  0  0
  186.4780  178.1570  142.1000 C   0  0  0  0  0  0  0  0  0  0  0  0
  187.9820  178.3020  140.4040 N   0  0  0  0  0  0  0  0  0  0  0  0
  190.5330  177.2810  144.7080 N   0  0  0  0  0  0  0  0  0  0  0  0
  186.6720  178.4100  140.7470 C   0  0  0  0  0  0  0  0  0  0  0  0
  187.7280  177.8910  142.6030 C   0  0  0  0  0  0  0  0  0  0  0  0
  187.7850  177.4760  145.0750 C   0  0  0  0  0  3  0  0  0  0  0  0
  188.6240  177.2270  146.1200 N   0  0  0  0  0  0  0  0  0  0  0  0
  189.7200  177.5250  143.6530 C   0  0  0  0  0  0  0  0  0  0  0  0
  188.5910  177.9910  141.5640 C   0  0  0  0  0  0  0  0  0  0  0  0
  190.8450  176.8580  147.1060 C   0  0  0  0  0  0  0  0  0  0  0  0
  191.9190  175.9220  146.9920 N   0  0  0  0  0  2  0  0  0  0  0  0
  192.8040  175.6270  148.1070 C   0  0  0  0  0  1  0  0  0  0  0  0
  190.6380  177.4550  148.1990 O   0  0  0  0  0  0  0  0  0  0  0  0
  188.6070  178.5890  139.1190 C   0  0  0  0  0  2  0  0  0  0  0  0
  187.6710  176.8430  137.5500 C   0  0  0  0  0  3  0  0  0  0  0  0
  189.8930  176.5670  138.3030 C   0  0  0  0  0  3  0  0  0  0  0  0
  188.2210  175.4200  136.8430 S   0  0  0  0  0  0  0  0  0  0  0  0
  188.7250  177.3410  138.3140 C   0  0  0  0  0  0  0  0  0  0  0  0
  189.7660  175.4430  137.5060 C   0  0  0  0  0  0  0  0  0  0  0  0
  191.9640  174.5630  137.8630 N   0  0  0  0  0  2  0  0  0  0  0  0
  190.8030  174.4330  137.3130 C   0  0  0  0  0  3  0  0  0  0  0  0
  182.7760  178.7020  142.4740 C   0  0  0  0  0  2  0  0  0  0  0  0
  181.7240  178.6270  141.3780 C   0  0  0  0  0  2  0  0  0  0  0  0
  180.6750  179.7100  141.5690 C   0  0  0  0  0  2  0  0  0  0  0  0
  179.2540  181.7910  140.1780 O   0  0  0  0  0  1  0  0  0  0  0  0
  181.4540  180.5590  138.8200 C   0  0  0  0  0  1  0  0  0  0  0  0
  180.0660  180.3210  139.9660 P   0  0  1  0  0  0  0  0  0  0  0  0
  179.1100  179.3060  139.3800 O   0  0  0  0  0  0  0  0  0  0  0  0
  2 14  1  0  0  0  0
  2 17  1  0  0  0  0
  3 29  1  0  0  0  0
  3  1  2  0  0  0  0
  4 13  1  0  0  0  0
  5  3  1  0  0  0  0
  6  5  2  0  0  0  0
  6 11  1  0  0  0  0
  7 15  1  0  0  0  0
  8 12  1  0  0  0  0
  8  1  1  0  0  0  0
  9 11  1  0  0  0  0
  9 16  1  0  0  0  0
 10  2  2  0  0  0  0
 11  8  2  0  0  0  0
 12  4  1  0  0  0  0
 13 14  2  0  0  0  0
 15  4  2  0  0  0  0
 15 10  1  0  0  0  0
 16  7  1  0  0  0  0
 16 12  2  0  0  0  0
 17 20  2  0  0  0  0
 18 17  1  0  0  0  0
 18 19  1  0  0  0  0
 21  9  1  0  0  0  0
 22 25  2  0  0  0  0
 23 25  1  0  0  0  0
 24 26  1  0  0  0  0
 24 22  1  0  0  0  0
 25 21  1  0  0  0  0
 26 23  2  0  0  0  0
 28 26  1  0  0  0  0
 28 27  2  0  0  0  0
 30 31  1  0  0  0  0
 30 29  1  0  0  0  0
 34 33  1  6  0  0  0
 34 32  1  0  0  0  0
 34 31  1  0  0  0  0
 35 34  2  0  0  0  0
M  END
>  <MODEL>
5

>  <REMARK>
 VINA RESULT:      -8.1      1.506      1.758
  Name = 
  8 active torsions:
  status: ('A' for Active; 'I' for Inactive)
    1  A    between atoms: C_2  and  C_30
    2  A    between atoms: C_2  and  C_32
    3  A    between atoms: C_5  and  C_7
    4  A    between atoms: C_8  and  C_30
    5  A    between atoms: C_14  and  C_19
    6  A    between atoms: C_17  and  C_22
    7  A    between atoms: N_20  and  C_22
    8  A    between atoms: P_23  and  C_32
                            x       y       z     vdW  Elec       q    Type
                         _______ _______ _______ _____ _____    ______ ____

>  <TORSDO>
F 8

$$$$
=
 OpenBabel10222418043D

 35 39  0  0  0  0  0  0  0  0999 V2000
  188.5320  177.8770  142.9390 C   0  0  0  0  0  3  0  0  0  0  0  0
  182.7590  178.8820  142.8780 C   0  0  0  0  0  0  0  0  0  0  0  0
  189.9040  177.5660  142.8800 C   0  0  0  0  0  0  0  0  0  0  0  0
  185.3560  178.5590  142.0750 C   0  0  0  0  0  0  0  0  0  0  0  0
  190.5750  177.5030  141.6360 C   0  0  0  0  0  3  0  0  0  0  0  0
  189.8930  177.7560  140.4320 C   0  0  0  0  0  3  0  0  0  0  0  0
  184.9240  178.7860  139.5400 S   0  0  0  0  0  0  0  0  0  0  0  0
  187.8840  178.1290  141.7350 C   0  0  0  0  0  0  0  0  0  0  0  0
  187.6850  178.3200  139.4810 N   0  0  0  0  0  0  0  0  0  0  0  0
  183.0550  178.9370  141.5440 N   0  0  0  0  0  0  0  0  0  0  0  0
  188.5370  178.0730  140.5090 C   0  0  0  0  0  0  0  0  0  0  0  0
  186.5750  178.4140  141.4370 C   0  0  0  0  0  0  0  0  0  0  0  0
  185.0520  178.4980  143.4270 C   0  0  0  0  0  3  0  0  0  0  0  0
  183.7510  178.6640  143.7990 N   0  0  0  0  0  0  0  0  0  0  0  0
  184.3410  178.7790  141.1500 C   0  0  0  0  0  0  0  0  0  0  0  0
  186.4990  178.5160  140.0890 C   0  0  0  0  0  0  0  0  0  0  0  0
  181.3710  179.0560  143.3280 C   0  0  0  0  0  0  0  0  0  0  0  0
  180.4930  179.9290  142.6120 N   0  0  0  0  0  2  0  0  0  0  0  0
  179.1100  180.1280  143.0140 C   0  0  0  0  0  1  0  0  0  0  0  0
  180.9560  178.4340  144.3430 O   0  0  0  0  0  0  0  0  0  0  0  0
  187.9510  178.2530  138.0500 C   0  0  0  0  0  2  0  0  0  0  0  0
  186.6290  176.2670  137.2170 C   0  0  0  0  0  3  0  0  0  0  0  0
  188.9620  176.0010  137.4840 C   0  0  0  0  0  3  0  0  0  0  0  0
  186.9640  174.6780  136.7750 S   0  0  0  0  0  0  0  0  0  0  0  0
  187.8460  176.8450  137.5720 C   0  0  0  0  0  0  0  0  0  0  0  0
  188.6230  174.7360  137.0390 C   0  0  0  0  0  0  0  0  0  0  0  0
  190.7990  173.7530  137.2180 N   0  0  0  0  0  2  0  0  0  0  0  0
  189.5630  173.6300  136.8680 C   0  0  0  0  0  3  0  0  0  0  0  0
  190.6520  177.2740  144.1330 C   0  0  0  0  0  2  0  0  0  0  0  0
  189.9380  177.8920  145.3240 C   0  0  0  0  0  2  0  0  0  0  0  0
  189.5010  176.8160  146.3040 C   0  0  0  0  0  2  0  0  0  0  0  0
  189.1630  178.6840  148.4690 O   0  0  0  0  0  0  0  0  0  0  0  0
  186.9110  178.2170  146.7620 C   0  0  0  0  0  1  0  0  0  0  0  0
  188.3720  177.4940  147.5610 P   0  0  1  0  0  0  0  0  0  0  0  0
  187.9300  176.3780  148.4820 O   0  0  0  0  0  1  0  0  0  0  0  0
  2 17  1  0  0  0  0
  2 14  1  0  0  0  0
  3  1  1  0  0  0  0
  3 29  1  0  0  0  0
  4 13  1  0  0  0  0
  5  3  2  0  0  0  0
  6 11  2  0  0  0  0
  6  5  1  0  0  0  0
  7 16  1  0  0  0  0
  7 15  1  0  0  0  0
  8  1  2  0  0  0  0
  9 16  1  0  0  0  0
  9 11  1  0  0  0  0
 10  2  2  0  0  0  0
 11  8  1  0  0  0  0
 12  8  1  0  0  0  0
 12  4  1  0  0  0  0
 13 14  2  0  0  0  0
 15 10  1  0  0  0  0
 15  4  2  0  0  0  0
 16 12  2  0  0  0  0
 17 20  2  0  0  0  0
 18 19  1  0  0  0  0
 18 17  1  0  0  0  0
 21  9  1  0  0  0  0
 22 25  2  0  0  0  0
 23 25  1  0  0  0  0
 24 26  1  0  0  0  0
 24 22  1  0  0  0  0
 25 21  1  0  0  0  0
 26 23  2  0  0  0  0
 28 26  1  0  0  0  0
 28 27  2  0  0  0  0
 29 30  1  0  0  0  0
 30 31  1  0  0  0  0
 31 34  1  0  0  0  0
 34 33  1  6  0  0  0
 34 32  2  0  0  0  0
 34 35  1  0  0  0  0
M  END
>  <MODEL>
6

>  <REMARK>
 VINA RESULT:      -7.9      3.685      7.364
  Name = 
  8 active torsions:
  status: ('A' for Active; 'I' for Inactive)
    1  A    between atoms: C_2  and  C_30
    2  A    between atoms: C_2  and  C_32
    3  A    between atoms: C_5  and  C_7
    4  A    between atoms: C_8  and  C_30
    5  A    between atoms: C_14  and  C_19
    6  A    between atoms: C_17  and  C_22
    7  A    between atoms: N_20  and  C_22
    8  A    between atoms: P_23  and  C_32
                            x       y       z     vdW  Elec       q    Type
                         _______ _______ _______ _____ _____    ______ ____

>  <TORSDO>
F 8

$$$$
=
 OpenBabel10222418043D

 35 39  0  0  0  0  0  0  0  0999 V2000
  185.8370  178.4550  140.8280 C   0  0  0  0  0  3  0  0  0  0  0  0
  189.7570  177.2190  145.0050 C   0  0  0  0  0  0  0  0  0  0  0  0
  184.9640  178.8150  139.7830 C   0  0  0  0  0  0  0  0  0  0  0  0
  188.5850  177.5890  142.5580 C   0  0  0  0  0  0  0  0  0  0  0  0
  185.4110  178.8190  138.4410 C   0  0  0  0  0  3  0  0  0  0  0  0
  186.7300  178.4570  138.1160 C   0  0  0  0  0  3  0  0  0  0  0  0
  190.7000  177.1720  141.1380 S   0  0  0  0  0  0  0  0  0  0  0  0
  187.1330  178.0950  140.4780 C   0  0  0  0  0  0  0  0  0  0  0  0
  188.8890  177.7420  139.0800 N   0  0  0  0  0  0  0  0  0  0  0  0
  190.5160  177.0840  143.8750 N   0  0  0  0  0  0  0  0  0  0  0  0
  187.5790  178.0920  139.1610 C   0  0  0  0  0  0  0  0  0  0  0  0
  188.2240  177.7380  141.2320 C   0  0  0  0  0  0  0  0  0  0  0  0
  187.8190  177.7310  143.7060 C   0  0  0  0  0  3  0  0  0  0  0  0
  188.4280  177.5390  144.9100 N   0  0  0  0  0  0  0  0  0  0  0  0
  189.9340  177.2670  142.6670 C   0  0  0  0  0  0  0  0  0  0  0  0
  189.2450  177.5410  140.3640 C   0  0  0  0  0  0  0  0  0  0  0  0
  190.3690  177.0220  146.3260 C   0  0  0  0  0  0  0  0  0  0  0  0
  191.5890  176.2850  146.4440 N   0  0  0  0  0  2  0  0  0  0  0  0
  192.2350  176.0700  147.7290 C   0  0  0  0  0  1  0  0  0  0  0  0
  189.8170  177.5030  147.3530 O   0  0  0  0  0  0  0  0  0  0  0  0
  189.7480  177.7210  137.9040 C   0  0  0  0  0  2  0  0  0  0  0  0
  189.1560  175.3350  137.3200 C   0  0  0  0  0  3  0  0  0  0  0  0
  191.4460  175.8890  137.4870 C   0  0  0  0  0  3  0  0  0  0  0  0
  189.9960  173.9120  137.0040 S   0  0  0  0  0  0  0  0  0  0  0  0
  190.1130  176.3180  137.5580 C   0  0  0  0  0  0  0  0  0  0  0  0
  191.5440  174.5450  137.1740 C   0  0  0  0  0  0  0  0  0  0  0  0
  193.8110  174.0930  137.7980 N   0  0  0  0  0  2  0  0  0  0  0  0
  192.7980  173.8050  137.0520 C   0  0  0  0  0  3  0  0  0  0  0  0
  183.5660  179.2220  140.0930 C   0  0  0  0  0  2  0  0  0  0  0  0
  182.9390  178.2380  141.0680 C   0  0  0  0  0  2  0  0  0  0  0  0
  181.4430  178.4780  141.1830 C   0  0  0  0  0  2  0  0  0  0  0  0
  179.8130  177.9150  143.4880 O   0  0  0  0  0  1  0  0  0  0  0  0
  182.4500  178.9330  143.9510 C   0  0  0  0  0  1  0  0  0  0  0  0
  180.9870  178.9700  142.8760 P   0  0  1  0  0  0  0  0  0  0  0  0
  180.4280  180.3750  142.8490 O   0  0  0  0  0  0  0  0  0  0  0  0
  2 17  1  0  0  0  0
  3 29  1  0  0  0  0
  3  1  2  0  0  0  0
  4 15  2  0  0  0  0
  4 13  1  0  0  0  0
  5  3  1  0  0  0  0
  6  5  2  0  0  0  0
  6 11  1  0  0  0  0
  7 15  1  0  0  0  0
  8  1  1  0  0  0  0
  8 12  1  0  0  0  0
  9 11  1  0  0  0  0
  9 16  1  0  0  0  0
 10  2  2  0  0  0  0
 11  8  2  0  0  0  0
 12  4  1  0  0  0  0
 13 14  2  0  0  0  0
 14  2  1  0  0  0  0
 15 10  1  0  0  0  0
 16  7  1  0  0  0  0
 16 12  2  0  0  0  0
 17 18  1  0  0  0  0
 17 20  2  0  0  0  0
 18 19  1  0  0  0  0
 21  9  1  0  0  0  0
 22 25  2  0  0  0  0
 23 25  1  0  0  0  0
 24 26  1  0  0  0  0
 24 22  1  0  0  0  0
 25 21  1  0  0  0  0
 26 23  2  0  0  0  0
 28 26  1  0  0  0  0
 28 27  2  0  0  0  0
 29 30  1  0  0  0  0
 30 31  1  0  0  0  0
 31 34  1  0  0  0  0
 34 32  1  0  0  0  0
 34 33  1  1  0  0  0
 35 34  2  0  0  0  0
M  END
>  <MODEL>
7

>  <REMARK>
 VINA RESULT:      -7.6      1.729      2.765
  Name = 
  8 active torsions:
  status: ('A' for Active; 'I' for Inactive)
    1  A    between atoms: C_2  and  C_30
    2  A    between atoms: C_2  and  C_32
    3  A    between atoms: C_5  and  C_7
    4  A    between atoms: C_8  and  C_30
    5  A    between atoms: C_14  and  C_19
    6  A    between atoms: C_17  and  C_22
    7  A    between atoms: N_20  and  C_22
    8  A    between atoms: P_23  and  C_32
                            x       y       z     vdW  Elec       q    Type
                         _______ _______ _______ _____ _____    ______ ____

>  <TORSDO>
F 8

$$$$
=
 OpenBabel10222418043D

 35 39  0  0  0  0  0  0  0  0999 V2000
  187.3960  177.9090  143.1440 C   0  0  0  0  0  3  0  0  0  0  0  0
  190.6160  176.7760  138.3820 C   0  0  0  0  0  0  0  0  0  0  0  0
  186.6010  178.2730  144.2490 C   0  0  0  0  0  0  0  0  0  0  0  0
  188.5320  177.4820  140.0100 C   0  0  0  0  0  0  0  0  0  0  0  0
  185.3160  178.8310  144.0570 C   0  0  0  0  0  3  0  0  0  0  0  0
  184.7970  179.0290  142.7640 C   0  0  0  0  0  3  0  0  0  0  0  0
  186.9160  178.2210  138.1380 S   0  0  0  0  0  0  0  0  0  0  0  0
  186.8570  178.1090  141.8790 C   0  0  0  0  0  0  0  0  0  0  0  0
  185.3080  178.7830  140.3600 N   0  0  0  0  0  0  0  0  0  0  0  0
  189.4610  177.2440  137.8200 N   0  0  0  0  0  0  0  0  0  0  0  0
  185.5930  178.6530  141.6820 C   0  0  0  0  0  0  0  0  0  0  0  0
  187.3660  177.9070  140.6200 C   0  0  0  0  0  0  0  0  0  0  0  0
  189.7080  177.0130  140.5780 C   0  0  0  0  0  3  0  0  0  0  0  0
  190.7280  176.6660  139.7440 N   0  0  0  0  0  0  0  0  0  0  0  0
  188.4320  177.5920  138.6280 C   0  0  0  0  0  0  0  0  0  0  0  0
  186.4160  178.3230  139.7480 C   0  0  0  0  0  0  0  0  0  0  0  0
  191.7440  176.3890  137.5230 C   0  0  0  0  0  0  0  0  0  0  0  0
  192.9670  175.9400  138.1110 N   0  0  0  0  0  2  0  0  0  0  0  0
  194.1080  175.5400  137.3030 C   0  0  0  0  0  1  0  0  0  0  0  0
  191.6310  176.4550  136.2680 O   0  0  0  0  0  0  0  0  0  0  0  0
  184.1410  179.4000  139.7440 C   0  0  0  0  0  2  0  0  0  0  0  0
  182.8360  177.2760  139.3320 C   0  0  0  0  0  3  0  0  0  0  0  0
  181.8310  178.9400  140.6730 C   0  0  0  0  0  3  0  0  0  0  0  0
  181.3290  176.6670  139.7660 S   0  0  0  0  0  0  0  0  0  0  0  0
  182.9440  178.5320  139.9250 C   0  0  0  0  0  0  0  0  0  0  0  0
  180.8310  177.9840  140.6840 C   0  0  0  0  0  0  0  0  0  0  0  0
  179.4470  177.9910  142.6380 N   0  0  0  0  0  2  0  0  0  0  0  0
  179.5430  178.1290  141.3580 C   0  0  0  0  0  3  0  0  0  0  0  0
  187.1260  178.0950  145.6310 C   0  0  0  0  0  2  0  0  0  0  0  0
  188.2510  177.0730  145.6340 C   0  0  0  0  0  2  0  0  0  0  0  0
  189.5150  177.6700  146.2300 C   0  0  0  0  0  2  0  0  0  0  0  0
  191.8790  178.4710  144.7970 O   0  0  0  0  0  1  0  0  0  0  0  0
  192.0360  176.0880  146.3780 C   0  0  0  0  0  1  0  0  0  0  0  0
  190.9910  177.1260  145.3150 P   0  0  1  0  0  0  0  0  0  0  0  0
  190.5580  176.3210  144.1110 O   0  0  0  0  0  0  0  0  0  0  0  0
  1  3  1  0  0  0  0
  2 14  1  0  0  0  0
  3 29  1  0  0  0  0
  4 13  1  0  0  0  0
  4 12  1  0  0  0  0
  5  3  2  0  0  0  0
  6  5  1  0  0  0  0
  7 15  1  0  0  0  0
  7 16  1  0  0  0  0
  8  1  2  0  0  0  0
  9 11  1  0  0  0  0
 10  2  2  0  0  0  0
 10 15  1  0  0  0  0
 11  8  1  0  0  0  0
 11  6  2  0  0  0  0
 12  8  1  0  0  0  0
 14 13  2  0  0  0  0
 15  4  2  0  0  0  0
 16  9  1  0  0  0  0
 16 12  2  0  0  0  0
 17 18  1  0  0  0  0
 17  2  1  0  0  0  0
 19 18  1  0  0  0  0
 20 17  2  0  0  0  0
 21 25  1  0  0  0  0
 21  9  1  0  0  0  0
 22 24  1  0  0  0  0
 22 25  2  0  0  0  0
 23 26  2  0  0  0  0
 24 26  1  0  0  0  0
 25 23  1  0  0  0  0
 26 28  1  0  0  0  0
 28 27  2  0  0  0  0
 29 30  1  0  0  0  0
 30 31  1  0  0  0  0
 32 34  1  0  0  0  0
 34 31  1  0  0  0  0
 34 33  1  1  0  0  0
 35 34  2  0  0  0  0
M  END
>  <MODEL>
8

>  <REMARK>
 VINA RESULT:      -7.5      4.521      7.918
  Name = 
  8 active torsions:
  status: ('A' for Active; 'I' for Inactive)
    1  A    between atoms: C_2  and  C_30
    2  A    between atoms: C_2  and  C_32
    3  A    between atoms: C_5  and  C_7
    4  A    between atoms: C_8  and  C_30
    5  A    between atoms: C_14  and  C_19
    6  A    between atoms: C_17  and  C_22
    7  A    between atoms: N_20  and  C_22
    8  A    between atoms: P_23  and  C_32
                            x       y       z     vdW  Elec       q    Type
                         _______ _______ _______ _____ _____    ______ ____

>  <TORSDO>
F 8

$$$$
=
 OpenBabel10222418043D

 35 39  0  0  0  0  0  0  0  0999 V2000
  191.2570  175.9380  138.7320 C   0  0  0  0  0  3  0  0  0  0  0  0
  189.4290  177.1960  144.1560 C   0  0  0  0  0  0  0  0  0  0  0  0
  191.6000  175.6120  137.4060 C   0  0  0  0  0  0  0  0  0  0  0  0
  189.6520  177.1450  141.4280 C   0  0  0  0  0  0  0  0  0  0  0  0
  190.8440  176.1170  136.3220 C   0  0  0  0  0  3  0  0  0  0  0  0
  189.7410  176.9620  136.5400 C   0  0  0  0  0  3  0  0  0  0  0  0
  187.5770  178.5940  140.9220 S   0  0  0  0  0  0  0  0  0  0  0  0
  190.1670  176.7800  138.9190 C   0  0  0  0  0  0  0  0  0  0  0  0
  188.3880  178.0490  138.2980 N   0  0  0  0  0  0  0  0  0  0  0  0
  188.5110  177.8710  143.4000 N   0  0  0  0  0  0  0  0  0  0  0  0
  189.4210  177.2840  137.8590 C   0  0  0  0  0  0  0  0  0  0  0  0
  189.5530  177.2520  140.0530 C   0  0  0  0  0  0  0  0  0  0  0  0
  190.5780  176.4550  142.1970 C   0  0  0  0  0  3  0  0  0  0  0  0
  190.4440  176.5000  143.5530 N   0  0  0  0  0  0  0  0  0  0  0  0
  188.6250  177.8450  142.0510 C   0  0  0  0  0  0  0  0  0  0  0  0
  188.5000  177.9980  139.6400 C   0  0  0  0  0  0  0  0  0  0  0  0
  189.3260  177.2150  145.6220 C   0  0  0  0  0  0  0  0  0  0  0  0
  188.0670  177.4810  146.2450 N   0  0  0  0  0  2  0  0  0  0  0  0
  187.9140  177.5030  147.6900 C   0  0  0  0  0  1  0  0  0  0  0  0
  190.3480  176.9950  146.3270 O   0  0  0  0  0  0  0  0  0  0  0  0
  187.3250  178.6660  137.5160 C   0  0  0  0  0  2  0  0  0  0  0  0
  184.9370  178.2520  138.2350 C   0  0  0  0  0  3  0  0  0  0  0  0
  186.0250  176.5540  137.0040 C   0  0  0  0  0  3  0  0  0  0  0  0
  183.8180  177.0050  138.0840 S   0  0  0  0  0  0  0  0  0  0  0  0
  186.0910  177.8320  137.5760 C   0  0  0  0  0  0  0  0  0  0  0  0
  184.7930  175.9570  137.2030 C   0  0  0  0  0  0  0  0  0  0  0  0
  184.2120  173.6670  137.5910 N   0  0  0  0  0  2  0  0  0  0  0  0
  184.4280  174.6180  136.7460 C   0  0  0  0  0  3  0  0  0  0  0  0
  192.7500  174.7060  137.1390 C   0  0  0  0  0  2  0  0  0  0  0  0
  194.0030  175.5200  136.8600 C   0  0  0  0  0  2  0  0  0  0  0  0
  195.2070  174.6090  136.6870 C   0  0  0  0  0  2  0  0  0  0  0  0
  195.4250  172.5840  138.7210 O   0  0  0  0  0  0  0  0  0  0  0  0
  197.7300  174.2100  138.2230 C   0  0  0  0  0  1  0  0  0  0  0  0
  195.9160  174.1480  138.2990 P   0  0  1  0  0  0  0  0  0  0  0  0
  195.4320  175.1220  139.3500 O   0  0  0  0  0  1  0  0  0  0  0  0
  1  8  1  0  0  0  0
  2 17  1  0  0  0  0
  3  1  2  0  0  0  0
  4 15  2  0  0  0  0
  4 13  1  0  0  0  0
  5  6  2  0  0  0  0
  5  3  1  0  0  0  0
  6 11  1  0  0  0  0
  7 15  1  0  0  0  0
  8 12  1  0  0  0  0
  9 16  1  0  0  0  0
 10  2  2  0  0  0  0
 11  9  1  0  0  0  0
 11  8  2  0  0  0  0
 12  4  1  0  0  0  0
 13 14  2  0  0  0  0
 14  2  1  0  0  0  0
 15 10  1  0  0  0  0
 16 12  2  0  0  0  0
 16  7  1  0  0  0  0
 17 18  1  0  0  0  0
 17 20  2  0  0  0  0
 18 19  1  0  0  0  0
 21 25  1  0  0  0  0
 21  9  1  0  0  0  0
 23 26  2  0  0  0  0
 23 25  1  0  0  0  0
 24 22  1  0  0  0  0
 25 22  2  0  0  0  0
 26 24  1  0  0  0  0
 28 26  1  0  0  0  0
 28 27  2  0  0  0  0
 29  3  1  0  0  0  0
 30 29  1  0  0  0  0
 31 30  1  0  0  0  0
 31 34  1  0  0  0  0
 34 33  1  6  0  0  0
 34 32  2  0  0  0  0
 34 35  1  0  0  0  0
M  END
>  <MODEL>
9

>  <REMARK>
 VINA RESULT:      -7.5      5.171      8.473
  Name = 
  8 active torsions:
  status: ('A' for Active; 'I' for Inactive)
    1  A    between atoms: C_2  and  C_30
    2  A    between atoms: C_2  and  C_32
    3  A    between atoms: C_5  and  C_7
    4  A    between atoms: C_8  and  C_30
    5  A    between atoms: C_14  and  C_19
    6  A    between atoms: C_17  and  C_22
    7  A    between atoms: N_20  and  C_22
    8  A    between atoms: P_23  and  C_32
                            x       y       z     vdW  Elec       q    Type
                         _______ _______ _______ _____ _____    ______ ____

>  <TORSDO>
F 8

$$$$
