=
 OpenBabel10222417583D

 33 36  0  0  1  0  0  0  0  0999 V2000
  181.9970  181.0500  138.7250 C   0  0  0  0  0  3  0  0  0  0  0  0
  181.7950  178.7630  137.9270 C   0  0  0  0  0  0  0  0  0  0  0  0
  180.2220  177.1230  139.8370 C   0  0  2  0  0  3  0  0  0  0  0  0
  181.6410  176.7120  139.4090 C   0  0  1  0  0  3  0  0  0  0  0  0
  181.0470  182.9900  137.5380 C   0  0  0  0  0  1  0  0  0  0  0  0
  185.1170  179.3970  138.6910 C   0  0  0  0  0  1  0  0  0  0  0  0
  181.2810  181.5190  137.6240 C   0  0  0  0  0  0  0  0  0  0  0  0
  181.0800  179.2440  136.8210 C   0  0  0  0  0  3  0  0  0  0  0  0
  184.3750  179.1320  139.9640 C   0  0  0  0  0  0  0  0  0  0  0  0
  186.4810  178.1470  142.7220 C   0  0  0  0  0  0  0  0  0  0  0  0
  184.3480  178.5020  142.3100 C   0  0  0  0  0  0  0  0  0  0  0  0
  181.9690  175.2330  139.5530 C   0  0  0  0  0  1  0  0  0  0  0  0
  180.8320  179.0770  141.3150 C   0  0  0  0  0  2  0  0  0  0  0  0
  182.3320  179.0120  141.2400 C   0  0  0  0  0  0  0  0  0  0  0  0
  186.3890  178.5200  141.3880 C   0  0  0  0  0  0  0  0  0  0  0  0
  185.0650  178.7470  141.1040 C   0  0  0  0  0  0  0  0  0  0  0  0
  185.2130  178.1280  143.3200 C   0  0  0  0  0  3  0  0  0  0  0  0
  181.4140  176.5680  137.0330 F   0  0  0  0  0  0  0  0  0  0  0  0
  182.0480  177.2740  138.0460 C   0  0  1  0  0  3  0  0  0  0  0  0
  183.0030  179.2600  140.0490 N   0  0  0  0  0  0  0  0  0  0  0  0
  187.4540  178.6390  140.5020 O   0  0  0  0  0  1  0  0  0  0  0  0
  183.0070  178.6290  142.3650 N   0  0  0  0  0  0  0  0  0  0  0  0
  180.2110  177.6820  141.2600 C   0  0  0  0  0  2  0  0  0  0  0  0
  180.8120  180.6080  136.6490 C   0  0  0  0  0  0  0  0  0  0  0  0
  182.2630  179.6860  138.8880 C   0  0  0  0  0  0  0  0  0  0  0  0
  179.1420  176.0670  139.5830 C   0  0  2  0  0  3  0  0  0  0  0  0
  179.1820  175.0010  140.6600 C   0  0  0  0  0  1  0  0  0  0  0  0
  179.3020  175.4750  138.3290 O   0  0  0  0  0  1  0  0  0  0  0  0
  180.5590  181.9850  134.5940 O   0  0  0  0  0  0  0  0  0  0  0  0
  180.0460  181.0130  135.4460 C   0  0  0  0  0  0  0  0  0  0  0  0
  178.9310  180.4960  135.1720 O   0  0  0  0  0  1  0  0  0  0  0  0
  187.6820  177.8370  143.3600 O   0  0  0  0  0  0  0  0  0  0  0  0
  188.2640  176.5450  143.2800 C   0  0  0  0  0  1  0  0  0  0  0  0
  1 25  1  0  0  0  0
  2 19  1  0  0  0  0
  2 25  2  0  0  0  0
  3 26  1  1  0  0  0
  3 23  1  0  0  0  0
  4 12  1  6  0  0  0
  4  3  1  0  0  0  0
  5  7  1  0  0  0  0
  6  9  1  0  0  0  0
  7  1  2  0  0  0  0
  8  2  1  0  0  0  0
  9 20  1  0  0  0  0
  9 16  2  0  0  0  0
 10 17  1  0  0  0  0
 10 32  1  0  0  0  0
 11 22  1  0  0  0  0
 11 17  2  0  0  0  0
 14 13  1  0  0  0  0
 14 22  2  0  0  0  0
 15 10  2  0  0  0  0
 16 15  1  0  0  0  0
 16 11  1  0  0  0  0
 19 18  1  6  0  0  0
 19  4  1  0  0  0  0
 20 14  1  0  0  0  0
 21 15  1  0  0  0  0
 23 13  1  0  0  0  0
 24  8  2  0  0  0  0
 24  7  1  0  0  0  0
 25 20  1  0  0  0  0
 26 27  1  1  0  0  0
 28 26  1  0  0  0  0
 29 30  2  0  0  0  0
 30 24  1  0  0  0  0
 31 30  1  0  0  0  0
 33 32  1  0  0  0  0
M  END
>  <MODEL>
1

>  <REMARK>
 VINA RESULT:      -6.8      0.000      0.000
  Name = 
  3 active torsions:
  status: ('A' for Active; 'I' for Inactive)
    1  A    between atoms: C_3  and  C_6
    2  A    between atoms: O_5  and  C_16
    3  A    between atoms: C_14  and  C_31
                            x       y       z     vdW  Elec       q    Type
                         _______ _______ _______ _____ _____    ______ ____

>  <TORSDO>
F 3

$$$$
=
 OpenBabel10222417583D

 33 36  0  0  1  0  0  0  0  0999 V2000
  184.9410  178.3070  137.7900 C   0  0  0  0  0  3  0  0  0  0  0  0
  183.7940  176.1680  137.9160 C   0  0  0  0  0  0  0  0  0  0  0  0
  181.2340  176.2650  136.4150 C   0  0  2  0  0  3  0  0  0  0  0  0
  181.2760  175.8640  137.8990 C   0  0  1  0  0  3  0  0  0  0  0  0
  187.1340  178.6070  136.7050 C   0  0  0  0  0  1  0  0  0  0  0  0
  183.8710  177.5880  141.0780 C   0  0  0  0  0  1  0  0  0  0  0  0
  186.0040  177.7190  137.1030 C   0  0  0  0  0  0  0  0  0  0  0  0
  184.8670  175.5850  137.2290 C   0  0  0  0  0  3  0  0  0  0  0  0
  182.7850  178.2470  140.2830 C   0  0  0  0  0  0  0  0  0  0  0  0
  180.2770  179.8860  142.2900 C   0  0  0  0  0  0  0  0  0  0  0  0
  180.7330  179.5410  140.1650 C   0  0  0  0  0  0  0  0  0  0  0  0
  180.1040  175.0250  138.3880 C   0  0  0  0  0  1  0  0  0  0  0  0
  181.6930  178.7330  136.6850 C   0  0  0  0  0  2  0  0  0  0  0  0
  181.7540  178.8320  138.1830 C   0  0  0  0  0  0  0  0  0  0  0  0
  181.4500  179.1460  142.2500 C   0  0  0  0  0  0  0  0  0  0  0  0
  181.7580  178.9150  140.9320 C   0  0  0  0  0  0  0  0  0  0  0  0
  179.8090  180.1450  140.9940 C   0  0  0  0  0  3  0  0  0  0  0  0
  182.7710  173.9970  137.8600 F   0  0  0  0  0  0  0  0  0  0  0  0
  182.6280  175.2940  138.3320 C   0  0  1  0  0  3  0  0  0  0  0  0
  182.7690  178.2130  138.9030 N   0  0  0  0  0  0  0  0  0  0  0  0
  182.1790  178.7170  143.3530 O   0  0  0  0  0  1  0  0  0  0  0  0
  180.7380  179.4900  138.8180 N   0  0  0  0  0  0  0  0  0  0  0  0
  180.6810  177.6800  136.2370 C   0  0  0  0  0  2  0  0  0  0  0  0
  185.9760  176.3340  136.8160 C   0  0  0  0  0  0  0  0  0  0  0  0
  183.8390  177.5510  138.2030 C   0  0  0  0  0  0  0  0  0  0  0  0
  180.5880  175.2320  135.4870 C   0  0  2  0  0  3  0  0  0  0  0  0
  181.6440  174.5550  134.6350 C   0  0  0  0  0  1  0  0  0  0  0  0
  179.6290  175.8240  134.6630 O   0  0  0  0  0  1  0  0  0  0  0  0
  188.1890  175.2010  136.7850 O   0  0  0  0  0  1  0  0  0  0  0  0
  187.0580  175.6230  136.0940 C   0  0  0  0  0  0  0  0  0  0  0  0
  186.9810  175.3880  134.8590 O   0  0  0  0  0  0  0  0  0  0  0  0
  179.6630  180.3050  143.4710 O   0  0  0  0  0  0  0  0  0  0  0  0
  178.9310  179.4120  144.2950 C   0  0  0  0  0  1  0  0  0  0  0  0
  1 25  1  0  0  0  0
  2 25  2  0  0  0  0
  2 19  1  0  0  0  0
  3 26  1  6  0  0  0
  3  4  1  0  0  0  0
  4 19  1  0  0  0  0
  4 12  1  6  0  0  0
  5  7  1  0  0  0  0
  7  1  2  0  0  0  0
  8  2  1  0  0  0  0
  9 16  2  0  0  0  0
  9  6  1  0  0  0  0
 10 32  1  0  0  0  0
 11 16  1  0  0  0  0
 11 17  2  0  0  0  0
 13 14  1  0  0  0  0
 14 22  2  0  0  0  0
 14 20  1  0  0  0  0
 15 10  2  0  0  0  0
 15 21  1  0  0  0  0
 16 15  1  0  0  0  0
 17 10  1  0  0  0  0
 19 18  1  6  0  0  0
 20  9  1  0  0  0  0
 22 11  1  0  0  0  0
 23  3  1  0  0  0  0
 23 13  1  0  0  0  0
 24  7  1  0  0  0  0
 24  8  2  0  0  0  0
 25 20  1  0  0  0  0
 26 27  1  6  0  0  0
 28 26  1  0  0  0  0
 30 29  1  0  0  0  0
 30 24  1  0  0  0  0
 31 30  2  0  0  0  0
 32 33  1  0  0  0  0
M  END
>  <MODEL>
2

>  <REMARK>
 VINA RESULT:      -6.5      3.154      5.566
  Name = 
  3 active torsions:
  status: ('A' for Active; 'I' for Inactive)
    1  A    between atoms: C_3  and  C_6
    2  A    between atoms: O_5  and  C_16
    3  A    between atoms: C_14  and  C_31
                            x       y       z     vdW  Elec       q    Type
                         _______ _______ _______ _____ _____    ______ ____

>  <TORSDO>
F 3

$$$$
=
 OpenBabel10222417583D

 33 36  0  0  1  0  0  0  0  0999 V2000
  190.4540  175.9330  140.1700 C   0  0  0  0  0  3  0  0  0  0  0  0
  189.7870  177.5370  138.4690 C   0  0  0  0  0  0  0  0  0  0  0  0
  188.0860  176.2350  136.4130 C   0  0  2  0  0  3  0  0  0  0  0  0
  189.3740  176.9820  136.0290 C   0  0  1  0  0  3  0  0  0  0  0  0
  189.7840  176.1100  142.5360 C   0  0  0  0  0  1  0  0  0  0  0  0
  193.2150  177.0530  138.2750 C   0  0  0  0  0  1  0  0  0  0  0  0
  189.7560  176.6470  141.1440 C   0  0  0  0  0  0  0  0  0  0  0  0
  189.0930  178.2500  139.4550 C   0  0  0  0  0  3  0  0  0  0  0  0
  192.5310  175.8990  137.6100 C   0  0  0  0  0  0  0  0  0  0  0  0
  194.6170  174.0790  135.2990 C   0  0  0  0  0  0  0  0  0  0  0  0
  192.5600  174.0160  136.0760 C   0  0  0  0  0  0  0  0  0  0  0  0
  189.4410  177.4840  134.5940 C   0  0  0  0  0  1  0  0  0  0  0  0
  189.1420  174.2030  137.4780 C   0  0  0  0  0  2  0  0  0  0  0  0
  190.5960  174.5050  137.2490 C   0  0  0  0  0  0  0  0  0  0  0  0
  194.4990  175.1290  136.1990 C   0  0  0  0  0  0  0  0  0  0  0  0
  193.2200  175.1130  136.6990 C   0  0  0  0  0  0  0  0  0  0  0  0
  193.4130  173.3680  135.2050 C   0  0  0  0  0  3  0  0  0  0  0  0
  188.9560  179.1650  136.9140 F   0  0  0  0  0  0  0  0  0  0  0  0
  189.7760  178.0540  137.0450 C   0  0  1  0  0  3  0  0  0  0  0  0
  191.2140  175.5810  137.8750 N   0  0  0  0  0  0  0  0  0  0  0  0
  195.5010  176.0340  136.5290 O   0  0  0  0  0  1  0  0  0  0  0  0
  191.2710  173.7300  136.3480 N   0  0  0  0  0  0  0  0  0  0  0  0
  188.2780  174.7200  136.3300 C   0  0  0  0  0  2  0  0  0  0  0  0
  189.0630  177.8280  140.7900 C   0  0  0  0  0  0  0  0  0  0  0  0
  190.4810  176.3630  138.8390 C   0  0  0  0  0  0  0  0  0  0  0  0
  186.8180  176.7340  135.7140 C   0  0  2  0  0  3  0  0  0  0  0  0
  185.9410  177.4930  136.6900 C   0  0  0  0  0  1  0  0  0  0  0  0
  186.0970  175.6740  135.1610 O   0  0  0  0  0  1  0  0  0  0  0  0
  186.9900  179.0260  141.4630 O   0  0  0  0  0  0  0  0  0  0  0  0
  188.2970  178.6530  141.7560 C   0  0  0  0  0  0  0  0  0  0  0  0
  188.8040  179.0300  142.8450 O   0  0  0  0  0  1  0  0  0  0  0  0
  195.7860  173.7900  134.5940 O   0  0  0  0  0  0  0  0  0  0  0  0
  196.8580  173.0670  135.1790 C   0  0  0  0  0  1  0  0  0  0  0  0
  1  7  1  0  0  0  0
  2 25  1  0  0  0  0
  2  8  2  0  0  0  0
  3 26  1  6  0  0  0
  4 12  1  6  0  0  0
  4  3  1  0  0  0  0
  4 19  1  0  0  0  0
  7  5  1  0  0  0  0
  8 24  1  0  0  0  0
  9 20  1  0  0  0  0
  9  6  1  0  0  0  0
 10 15  2  0  0  0  0
 11 22  1  0  0  0  0
 11 16  1  0  0  0  0
 14 13  1  0  0  0  0
 14 20  1  0  0  0  0
 15 21  1  0  0  0  0
 15 16  1  0  0  0  0
 16  9  2  0  0  0  0
 17 10  1  0  0  0  0
 17 11  2  0  0  0  0
 19 18  1  1  0  0  0
 19  2  1  0  0  0  0
 20 25  1  0  0  0  0
 22 14  2  0  0  0  0
 23  3  1  0  0  0  0
 23 13  1  0  0  0  0
 24  7  2  0  0  0  0
 24 30  1  0  0  0  0
 25  1  2  0  0  0  0
 26 27  1  1  0  0  0
 28 26  1  0  0  0  0
 29 30  2  0  0  0  0
 30 31  1  0  0  0  0
 32 33  1  0  0  0  0
 32 10  1  0  0  0  0
M  END
>  <MODEL>
3

>  <REMARK>
 VINA RESULT:      -6.0      6.934      9.983
  Name = 
  3 active torsions:
  status: ('A' for Active; 'I' for Inactive)
    1  A    between atoms: C_3  and  C_6
    2  A    between atoms: O_5  and  C_16
    3  A    between atoms: C_14  and  C_31
                            x       y       z     vdW  Elec       q    Type
                         _______ _______ _______ _____ _____    ______ ____

>  <TORSDO>
F 3

$$$$
=
 OpenBabel10222417583D

 33 36  0  0  1  0  0  0  0  0999 V2000
  191.8370  177.5760  139.9270 C   0  0  0  0  0  3  0  0  0  0  0  0
  190.5560  175.9040  138.7150 C   0  0  0  0  0  0  0  0  0  0  0  0
  188.7380  177.1970  136.7550 C   0  0  2  0  0  3  0  0  0  0  0  0
  188.2030  176.2340  137.8290 C   0  0  1  0  0  3  0  0  0  0  0  0
  194.2920  177.7630  139.7920 C   0  0  0  0  0  1  0  0  0  0  0  0
  189.5850  175.8670  142.0430 C   0  0  0  0  0  1  0  0  0  0  0  0
  193.0270  177.0830  139.3890 C   0  0  0  0  0  0  0  0  0  0  0  0
  191.7550  175.4120  138.1830 C   0  0  0  0  0  3  0  0  0  0  0  0
  188.9220  177.0250  141.3640 C   0  0  0  0  0  0  0  0  0  0  0  0
  185.9940  178.2560  143.0710 C   0  0  0  0  0  0  0  0  0  0  0  0
  187.1660  178.7000  141.2630 C   0  0  0  0  0  0  0  0  0  0  0  0
  186.8700  175.5700  137.5120 C   0  0  0  0  0  1  0  0  0  0  0  0
  189.2630  179.1630  138.2510 C   0  0  0  0  0  2  0  0  0  0  0  0
  188.7800  178.6320  139.5710 C   0  0  0  0  0  0  0  0  0  0  0  0
  187.0370  177.3410  143.0390 C   0  0  0  0  0  0  0  0  0  0  0  0
  187.7860  177.5970  141.9160 C   0  0  0  0  0  0  0  0  0  0  0  0
  186.0540  179.1170  141.9670 C   0  0  0  0  0  3  0  0  0  0  0  0
  189.4540  174.2470  137.3720 F   0  0  0  0  0  0  0  0  0  0  0  0
  189.2530  175.2370  138.3230 C   0  0  1  0  0  3  0  0  0  0  0  0
  189.4080  177.5550  140.1860 N   0  0  0  0  0  0  0  0  0  0  0  0
  187.2750  176.3460  143.9790 O   0  0  0  0  0  1  0  0  0  0  0  0
  187.6580  179.1960  140.1100 N   0  0  0  0  0  0  0  0  0  0  0  0
  188.4040  178.6490  137.0960 C   0  0  0  0  0  2  0  0  0  0  0  0
  192.9950  175.9810  138.5030 C   0  0  0  0  0  0  0  0  0  0  0  0
  190.6040  177.0000  139.6040 C   0  0  0  0  0  0  0  0  0  0  0  0
  188.3960  176.8090  135.3140 C   0  0  2  0  0  3  0  0  0  0  0  0
  189.6320  176.3050  134.5950 C   0  0  0  0  0  1  0  0  0  0  0  0
  187.8550  177.8900  134.6160 O   0  0  0  0  0  1  0  0  0  0  0  0
  194.8220  174.2940  138.4840 O   0  0  0  0  0  1  0  0  0  0  0  0
  194.2050  175.3880  137.8850 C   0  0  0  0  0  0  0  0  0  0  0  0
  194.6960  175.8530  136.8220 O   0  0  0  0  0  0  0  0  0  0  0  0
  185.0260  178.2940  144.0760 O   0  0  0  0  0  0  0  0  0  0  0  0
  183.7030  178.7410  143.8300 C   0  0  0  0  0  1  0  0  0  0  0  0
  2 25  2  0  0  0  0
  3 26  1  6  0  0  0
  3 23  1  0  0  0  0
  3  4  1  0  0  0  0
  4 12  1  6  0  0  0
  4 19  1  0  0  0  0
  7  5  1  0  0  0  0
  7  1  2  0  0  0  0
  8 24  2  0  0  0  0
  8  2  1  0  0  0  0
  9 16  2  0  0  0  0
  9  6  1  0  0  0  0
 10 32  1  0  0  0  0
 11 16  1  0  0  0  0
 11 17  2  0  0  0  0
 13 14  1  0  0  0  0
 14 22  2  0  0  0  0
 14 20  1  0  0  0  0
 15 10  2  0  0  0  0
 15 21  1  0  0  0  0
 16 15  1  0  0  0  0
 17 10  1  0  0  0  0
 19 18  1  6  0  0  0
 19  2  1  0  0  0  0
 20  9  1  0  0  0  0
 22 11  1  0  0  0  0
 23 13  1  0  0  0  0
 24  7  1  0  0  0  0
 25  1  1  0  0  0  0
 25 20  1  0  0  0  0
 26 27  1  6  0  0  0
 28 26  1  0  0  0  0
 30 29  1  0  0  0  0
 30 24  1  0  0  0  0
 31 30  2  0  0  0  0
 33 32  1  0  0  0  0
M  END
>  <MODEL>
4

>  <REMARK>
 VINA RESULT:      -5.9      5.569      9.197
  Name = 
  3 active torsions:
  status: ('A' for Active; 'I' for Inactive)
    1  A    between atoms: C_3  and  C_6
    2  A    between atoms: O_5  and  C_16
    3  A    between atoms: C_14  and  C_31
                            x       y       z     vdW  Elec       q    Type
                         _______ _______ _______ _____ _____    ______ ____

>  <TORSDO>
F 3

$$$$
=
 OpenBabel10222417583D

 33 36  0  0  1  0  0  0  0  0999 V2000
  180.2990  175.9260  138.8490 C   0  0  0  0  0  3  0  0  0  0  0  0
  181.4220  175.8120  136.6970 C   0  0  0  0  0  0  0  0  0  0  0  0
  184.3140  176.4150  136.9940 C   0  0  2  0  0  3  0  0  0  0  0  0
  183.4260  177.2140  136.0260 C   0  0  1  0  0  3  0  0  0  0  0  0
  179.2260  173.9830  139.9220 C   0  0  0  0  0  1  0  0  0  0  0  0
  179.2080  178.4800  136.6680 C   0  0  0  0  0  1  0  0  0  0  0  0
  179.9850  174.5680  138.7790 C   0  0  0  0  0  0  0  0  0  0  0  0
  181.0990  174.4500  136.6330 C   0  0  0  0  0  3  0  0  0  0  0  0
  180.4410  178.8890  137.4130 C   0  0  0  0  0  0  0  0  0  0  0  0
  180.9080  182.4580  137.6440 C   0  0  0  0  0  0  0  0  0  0  0  0
  181.9140  180.6110  138.2900 C   0  0  0  0  0  0  0  0  0  0  0  0
  184.1550  177.9060  134.8830 C   0  0  0  0  0  1  0  0  0  0  0  0
  183.4320  177.3540  139.1660 C   0  0  0  0  0  2  0  0  0  0  0  0
  182.4470  178.3610  138.6430 C   0  0  0  0  0  0  0  0  0  0  0  0
  180.1320  181.4020  137.1860 C   0  0  0  0  0  0  0  0  0  0  0  0
  180.7400  180.2340  137.5770 C   0  0  0  0  0  0  0  0  0  0  0  0
  182.0300  181.9860  138.3370 C   0  0  0  0  0  3  0  0  0  0  0  0
  182.5660  175.4880  134.6110 F   0  0  0  0  0  0  0  0  0  0  0  0
  182.1960  176.4370  135.5530 C   0  0  1  0  0  3  0  0  0  0  0  0
  181.3090  177.9620  137.9530 N   0  0  0  0  0  0  0  0  0  0  0  0
  178.9520  181.5140  136.4620 O   0  0  0  0  0  1  0  0  0  0  0  0
  182.7470  179.6840  138.8040 N   0  0  0  0  0  0  0  0  0  0  0  0
  184.6450  177.2300  138.2450 C   0  0  0  0  0  2  0  0  0  0  0  0
  180.3860  173.8100  137.6540 C   0  0  0  0  0  0  0  0  0  0  0  0
  181.0090  176.5580  137.8230 C   0  0  0  0  0  0  0  0  0  0  0  0
  185.5370  175.7540  136.3500 C   0  0  2  0  0  3  0  0  0  0  0  0
  185.4520  174.2460  136.4810 C   0  0  0  0  0  1  0  0  0  0  0  0
  186.7210  176.2100  136.9320 O   0  0  0  0  0  1  0  0  0  0  0  0
  178.9350  171.9610  136.8420 O   0  0  0  0  0  0  0  0  0  0  0  0
  180.0970  172.3650  137.4910 C   0  0  0  0  0  0  0  0  0  0  0  0
  180.8820  171.4840  137.9300 O   0  0  0  0  0  1  0  0  0  0  0  0
  180.5940  183.8010  137.4290 O   0  0  0  0  0  0  0  0  0  0  0  0
  181.0790  184.5160  136.3030 C   0  0  0  0  0  1  0  0  0  0  0  0
  2 25  1  0  0  0  0
  3 26  1  6  0  0  0
  3 23  1  0  0  0  0
  4 12  1  6  0  0  0
  4  3  1  0  0  0  0
  6  9  1  0  0  0  0
  7  1  1  0  0  0  0
  7  5  1  0  0  0  0
  8  2  2  0  0  0  0
  8 24  1  0  0  0  0
  9 16  2  0  0  0  0
  9 20  1  0  0  0  0
 10 17  1  0  0  0  0
 11 17  2  0  0  0  0
 11 22  1  0  0  0  0
 14 22  2  0  0  0  0
 14 13  1  0  0  0  0
 15 16  1  0  0  0  0
 15 10  2  0  0  0  0
 16 11  1  0  0  0  0
 19 18  1  6  0  0  0
 19  4  1  0  0  0  0
 19  2  1  0  0  0  0
 20 14  1  0  0  0  0
 21 15  1  0  0  0  0
 23 13  1  0  0  0  0
 24  7  2  0  0  0  0
 25 20  1  0  0  0  0
 25  1  2  0  0  0  0
 26 27  1  1  0  0  0
 26 28  1  0  0  0  0
 29 30  2  0  0  0  0
 30 24  1  0  0  0  0
 30 31  1  0  0  0  0
 32 10  1  0  0  0  0
 33 32  1  0  0  0  0
M  END
>  <MODEL>
5

>  <REMARK>
 VINA RESULT:      -5.7      2.958      6.890
  Name = 
  3 active torsions:
  status: ('A' for Active; 'I' for Inactive)
    1  A    between atoms: C_3  and  C_6
    2  A    between atoms: O_5  and  C_16
    3  A    between atoms: C_14  and  C_31
                            x       y       z     vdW  Elec       q    Type
                         _______ _______ _______ _____ _____    ______ ____

>  <TORSDO>
F 3

$$$$
=
 OpenBabel10222417583D

 33 36  0  0  1  0  0  0  0  0999 V2000
  182.8190  178.0470  141.0690 C   0  0  0  0  0  3  0  0  0  0  0  0
  181.5550  178.8830  139.1690 C   0  0  0  0  0  0  0  0  0  0  0  0
  180.4740  176.6340  137.5600 C   0  0  2  0  0  3  0  0  0  0  0  0
  181.3600  177.7190  136.9250 C   0  0  1  0  0  3  0  0  0  0  0  0
  182.1650  178.4430  143.4130 C   0  0  0  0  0  1  0  0  0  0  0  0
  184.8950  179.7150  138.7500 C   0  0  0  0  0  1  0  0  0  0  0  0
  181.9100  178.6260  141.9540 C   0  0  0  0  0  0  0  0  0  0  0  0
  180.6490  179.4660  140.0650 C   0  0  0  0  0  3  0  0  0  0  0  0
  184.7090  178.2760  138.3780 C   0  0  0  0  0  0  0  0  0  0  0  0
  187.3130  176.9520  136.2620 C   0  0  0  0  0  0  0  0  0  0  0  0
  185.4550  176.2720  137.2250 C   0  0  0  0  0  0  0  0  0  0  0  0
  181.2060  177.8970  135.4210 C   0  0  0  0  0  1  0  0  0  0  0  0
  182.2570  175.4290  138.8810 C   0  0  0  0  0  2  0  0  0  0  0  0
  183.4720  176.2070  138.4650 C   0  0  0  0  0  0  0  0  0  0  0  0
  186.8030  178.0400  136.9570 C   0  0  0  0  0  0  0  0  0  0  0  0
  185.6400  177.6420  137.5690 C   0  0  0  0  0  0  0  0  0  0  0  0
  186.4830  175.8330  136.4150 C   0  0  0  0  0  3  0  0  0  0  0  0
  180.1300  179.7090  137.4220 F   0  0  0  0  0  0  0  0  0  0  0  0
  181.3230  179.0490  137.6800 C   0  0  1  0  0  3  0  0  0  0  0  0
  183.6260  177.5430  138.8190 N   0  0  0  0  0  0  0  0  0  0  0  0
  187.3740  179.3060  137.0190 O   0  0  0  0  0  1  0  0  0  0  0  0
  184.3860  175.5800  137.6660 N   0  0  0  0  0  0  0  0  0  0  0  0
  181.2440  175.3250  137.7420 C   0  0  0  0  0  2  0  0  0  0  0  0
  180.8040  179.3520  141.4520 C   0  0  0  0  0  0  0  0  0  0  0  0
  182.6580  178.1670  139.6850 C   0  0  0  0  0  0  0  0  0  0  0  0
  179.1040  176.4540  136.9010 C   0  0  2  0  0  3  0  0  0  0  0  0
  178.9430  175.0340  136.3950 C   0  0  0  0  0  1  0  0  0  0  0  0
  178.9310  177.3510  135.8440 O   0  0  0  0  0  1  0  0  0  0  0  0
  178.9340  179.2240  143.0870 O   0  0  0  0  0  1  0  0  0  0  0  0
  179.7890  180.0040  142.3150 C   0  0  0  0  0  0  0  0  0  0  0  0
  179.6770  181.2570  142.3670 O   0  0  0  0  0  0  0  0  0  0  0  0
  188.4920  176.9910  135.5170 O   0  0  0  0  0  0  0  0  0  0  0  0
  189.7670  176.8280  136.1180 C   0  0  0  0  0  1  0  0  0  0  0  0
  1  7  1  0  0  0  0
  2 25  1  0  0  0  0
  2  8  2  0  0  0  0
  3 26  1  6  0  0  0
  3 23  1  0  0  0  0
  4 12  1  6  0  0  0
  4  3  1  0  0  0  0
  4 19  1  0  0  0  0
  7  5  1  0  0  0  0
  8 24  1  0  0  0  0
  9  6  1  0  0  0  0
  9 20  1  0  0  0  0
 10 17  1  0  0  0  0
 10 15  2  0  0  0  0
 11 16  1  0  0  0  0
 11 22  1  0  0  0  0
 14 20  1  0  0  0  0
 14 13  1  0  0  0  0
 15 21  1  0  0  0  0
 15 16  1  0  0  0  0
 16  9  2  0  0  0  0
 17 11  2  0  0  0  0
 19 18  1  1  0  0  0
 19  2  1  0  0  0  0
 20 25  1  0  0  0  0
 22 14  2  0  0  0  0
 23 13  1  0  0  0  0
 24  7  2  0  0  0  0
 24 30  1  0  0  0  0
 25  1  2  0  0  0  0
 26 27  1  6  0  0  0
 28 26  1  0  0  0  0
 30 31  2  0  0  0  0
 30 29  1  0  0  0  0
 32 33  1  0  0  0  0
 32 10  1  0  0  0  0
M  END
>  <MODEL>
6

>  <REMARK>
 VINA RESULT:      -5.0      3.136      4.935
  Name = 
  3 active torsions:
  status: ('A' for Active; 'I' for Inactive)
    1  A    between atoms: C_3  and  C_6
    2  A    between atoms: O_5  and  C_16
    3  A    between atoms: C_14  and  C_31
                            x       y       z     vdW  Elec       q    Type
                         _______ _______ _______ _____ _____    ______ ____

>  <TORSDO>
F 3

$$$$
=
 OpenBabel10222417583D

 33 36  0  0  1  0  0  0  0  0999 V2000
  181.1790  179.4980  136.2010 C   0  0  0  0  0  3  0  0  0  0  0  0
  181.4090  179.4880  138.6210 C   0  0  0  0  0  0  0  0  0  0  0  0
  184.1880  178.7950  139.4040 C   0  0  2  0  0  3  0  0  0  0  0  0
  182.9860  177.9910  139.9260 C   0  0  1  0  0  3  0  0  0  0  0  0
  180.6250  181.5180  134.9000 C   0  0  0  0  0  1  0  0  0  0  0  0
  179.3000  176.9000  137.6820 C   0  0  0  0  0  1  0  0  0  0  0  0
  180.8870  180.8620  136.2150 C   0  0  0  0  0  0  0  0  0  0  0  0
  181.1100  180.8560  138.6260 C   0  0  0  0  0  3  0  0  0  0  0  0
  180.7160  176.4770  137.4370 C   0  0  0  0  0  0  0  0  0  0  0  0
  181.1710  172.9060  137.2230 C   0  0  0  0  0  0  0  0  0  0  0  0
  182.3790  174.7410  137.0940 C   0  0  0  0  0  0  0  0  0  0  0  0
  183.2160  177.2300  141.2240 C   0  0  0  0  0  1  0  0  0  0  0  0
  184.1740  177.9740  137.0160 C   0  0  0  0  0  2  0  0  0  0  0  0
  183.0470  176.9830  137.0800 C   0  0  0  0  0  0  0  0  0  0  0  0
  180.2990  173.9710  137.4060 C   0  0  0  0  0  0  0  0  0  0  0  0
  181.0300  175.1300  137.3310 C   0  0  0  0  0  0  0  0  0  0  0  0
  182.4810  173.3650  137.0260 C   0  0  0  0  0  3  0  0  0  0  0  0
  181.6860  179.6900  140.9970 F   0  0  0  0  0  0  0  0  0  0  0  0
  181.6820  178.7920  139.9390 C   0  0  1  0  0  3  0  0  0  0  0  0
  181.7390  177.3940  137.3090 N   0  0  0  0  0  0  0  0  0  0  0  0
  178.9310  173.8720  137.6270 O   0  0  0  0  0  1  0  0  0  0  0  0
  183.3610  175.6570  136.9780 N   0  0  0  0  0  0  0  0  0  0  0  0
  184.9520  178.0190  138.3300 C   0  0  0  0  0  2  0  0  0  0  0  0
  180.8470  181.5610  137.4440 C   0  0  0  0  0  0  0  0  0  0  0  0
  181.4380  178.8010  137.3860 C   0  0  0  0  0  0  0  0  0  0  0  0
  185.0880  179.3870  140.4920 C   0  0  2  0  0  3  0  0  0  0  0  0
  186.4320  178.6850  140.5050 C   0  0  0  0  0  1  0  0  0  0  0  0
  184.4920  179.2830  141.7510 O   0  0  0  0  0  1  0  0  0  0  0  0
  181.5120  183.9470  137.2160 O   0  0  0  0  0  0  0  0  0  0  0  0
  180.5440  183.0080  137.5570 C   0  0  0  0  0  0  0  0  0  0  0  0
  179.4220  183.4150  137.9590 O   0  0  0  0  0  1  0  0  0  0  0  0
  180.7750  171.5680  137.2370 O   0  0  0  0  0  0  0  0  0  0  0  0
  180.0370  170.9900  136.1720 C   0  0  0  0  0  1  0  0  0  0  0  0
  1  7  2  0  0  0  0
  1 25  1  0  0  0  0
  2  8  1  0  0  0  0
  2 19  1  0  0  0  0
  3  4  1  0  0  0  0
  3 26  1  1  0  0  0
  4 19  1  0  0  0  0
  4 12  1  1  0  0  0
  5  7  1  0  0  0  0
  7 24  1  0  0  0  0
  9  6  1  0  0  0  0
 10 32  1  0  0  0  0
 10 15  2  0  0  0  0
 11 16  1  0  0  0  0
 13 14  1  0  0  0  0
 13 23  1  0  0  0  0
 14 20  1  0  0  0  0
 15 21  1  0  0  0  0
 16 15  1  0  0  0  0
 16  9  2  0  0  0  0
 17 11  2  0  0  0  0
 17 10  1  0  0  0  0
 19 18  1  1  0  0  0
 20 25  1  0  0  0  0
 20  9  1  0  0  0  0
 22 14  2  0  0  0  0
 22 11  1  0  0  0  0
 23  3  1  0  0  0  0
 24 30  1  0  0  0  0
 24  8  2  0  0  0  0
 25  2  2  0  0  0  0
 26 27  1  1  0  0  0
 26 28  1  0  0  0  0
 29 30  2  0  0  0  0
 30 31  1  0  0  0  0
 33 32  1  0  0  0  0
M  END
>  <MODEL>
7

>  <REMARK>
 VINA RESULT:      -4.9      2.629      6.023
  Name = 
  3 active torsions:
  status: ('A' for Active; 'I' for Inactive)
    1  A    between atoms: C_3  and  C_6
    2  A    between atoms: O_5  and  C_16
    3  A    between atoms: C_14  and  C_31
                            x       y       z     vdW  Elec       q    Type
                         _______ _______ _______ _____ _____    ______ ____

>  <TORSDO>
F 3

$$$$
=
 OpenBabel10222417583D

 33 36  0  0  1  0  0  0  0  0999 V2000
  190.6520  176.1890  135.7560 C   0  0  0  0  0  3  0  0  0  0  0  0
  189.6840  174.1390  136.6340 C   0  0  0  0  0  0  0  0  0  0  0  0
  187.1420  173.5020  135.2390 C   0  0  2  0  0  3  0  0  0  0  0  0
  187.2010  173.6440  136.7690 C   0  0  1  0  0  3  0  0  0  0  0  0
  192.8240  176.2730  134.5940 C   0  0  0  0  0  1  0  0  0  0  0  0
  189.6080  176.5660  139.1080 C   0  0  0  0  0  1  0  0  0  0  0  0
  191.7670  175.4890  135.2950 C   0  0  0  0  0  0  0  0  0  0  0  0
  190.8100  173.4440  136.1710 C   0  0  0  0  0  3  0  0  0  0  0  0
  188.4810  176.8190  138.1550 C   0  0  0  0  0  0  0  0  0  0  0  0
  185.8230  178.8400  139.5170 C   0  0  0  0  0  0  0  0  0  0  0  0
  186.3300  177.8200  137.6350 C   0  0  0  0  0  0  0  0  0  0  0  0
  186.0970  172.9330  137.5390 C   0  0  0  0  0  1  0  0  0  0  0  0
  187.3920  175.9410  134.6310 C   0  0  0  0  0  2  0  0  0  0  0  0
  187.4280  176.5560  136.0020 C   0  0  0  0  0  0  0  0  0  0  0  0
  187.0540  178.2300  139.7140 C   0  0  0  0  0  0  0  0  0  0  0  0
  187.3940  177.5840  138.5520 C   0  0  0  0  0  0  0  0  0  0  0  0
  185.3500  178.5960  138.2210 C   0  0  0  0  0  3  0  0  0  0  0  0
  188.8450  172.0070  137.3500 F   0  0  0  0  0  0  0  0  0  0  0  0
  188.5910  173.3710  137.3480 C   0  0  1  0  0  3  0  0  0  0  0  0
  188.4820  176.3090  136.8730 N   0  0  0  0  0  0  0  0  0  0  0  0
  187.8030  178.2700  140.8840 O   0  0  0  0  0  1  0  0  0  0  0  0
  186.3540  177.3070  136.3890 N   0  0  0  0  0  0  0  0  0  0  0  0
  186.4760  174.7180  134.5940 C   0  0  0  0  0  2  0  0  0  0  0  0
  191.8570  174.0930  135.5040 C   0  0  0  0  0  0  0  0  0  0  0  0
  189.6120  175.5340  136.4240 C   0  0  0  0  0  0  0  0  0  0  0  0
  186.5940  172.1630  134.7370 C   0  0  2  0  0  3  0  0  0  0  0  0
  185.1010  172.0770  134.9840 C   0  0  0  0  0  1  0  0  0  0  0  0
  187.2360  171.0910  135.3610 O   0  0  0  0  0  1  0  0  0  0  0  0
  194.2710  173.8310  134.9630 O   0  0  0  0  0  1  0  0  0  0  0  0
  193.0030  173.2660  135.0530 C   0  0  0  0  0  0  0  0  0  0  0  0
  192.8580  172.0540  134.7450 O   0  0  0  0  0  0  0  0  0  0  0  0
  185.1640  179.5900  140.4930 O   0  0  0  0  0  0  0  0  0  0  0  0
  184.4870  178.9800  141.5810 C   0  0  0  0  0  1  0  0  0  0  0  0
  1 25  1  0  0  0  0
  2 19  1  0  0  0  0
  3 26  1  1  0  0  0
  3  4  1  0  0  0  0
  4 19  1  0  0  0  0
  4 12  1  1  0  0  0
  5  7  1  0  0  0  0
  7 24  1  0  0  0  0
  7  1  2  0  0  0  0
  8  2  1  0  0  0  0
  9 16  2  0  0  0  0
  9  6  1  0  0  0  0
 10 15  2  0  0  0  0
 10 32  1  0  0  0  0
 11 17  2  0  0  0  0
 11 16  1  0  0  0  0
 13 14  1  0  0  0  0
 14 22  2  0  0  0  0
 14 20  1  0  0  0  0
 15 21  1  0  0  0  0
 16 15  1  0  0  0  0
 17 10  1  0  0  0  0
 19 18  1  6  0  0  0
 20  9  1  0  0  0  0
 22 11  1  0  0  0  0
 23 13  1  0  0  0  0
 23  3  1  0  0  0  0
 24  8  2  0  0  0  0
 25  2  2  0  0  0  0
 25 20  1  0  0  0  0
 26 27  1  1  0  0  0
 26 28  1  0  0  0  0
 29 30  1  0  0  0  0
 30 24  1  0  0  0  0
 31 30  2  0  0  0  0
 32 33  1  0  0  0  0
M  END
>  <MODEL>
8

>  <REMARK>
 VINA RESULT:      -4.6      6.505      9.096
  Name = 
  3 active torsions:
  status: ('A' for Active; 'I' for Inactive)
    1  A    between atoms: C_3  and  C_6
    2  A    between atoms: O_5  and  C_16
    3  A    between atoms: C_14  and  C_31
                            x       y       z     vdW  Elec       q    Type
                         _______ _______ _______ _____ _____    ______ ____

>  <TORSDO>
F 3

$$$$
=
 OpenBabel10222417583D

 33 36  0  0  1  0  0  0  0  0999 V2000
  186.0000  177.8600  136.8880 C   0  0  0  0  0  3  0  0  0  0  0  0
  185.1590  175.6310  137.3680 C   0  0  0  0  0  0  0  0  0  0  0  0
  183.1690  174.8020  135.3260 C   0  0  2  0  0  3  0  0  0  0  0  0
  182.8220  174.8100  136.8240 C   0  0  1  0  0  3  0  0  0  0  0  0
  188.3570  178.3300  136.3380 C   0  0  0  0  0  1  0  0  0  0  0  0
  184.1070  177.7920  139.8680 C   0  0  0  0  0  1  0  0  0  0  0  0
  187.2860  177.3550  136.6950 C   0  0  0  0  0  0  0  0  0  0  0  0
  186.4540  175.1330  137.1780 C   0  0  0  0  0  3  0  0  0  0  0  0
  183.2300  177.9830  138.6690 C   0  0  0  0  0  0  0  0  0  0  0  0
  180.0460  179.5120  139.4010 C   0  0  0  0  0  0  0  0  0  0  0  0
  181.1530  178.7420  137.6620 C   0  0  0  0  0  0  0  0  0  0  0  0
  181.6790  173.8950  137.2400 C   0  0  0  0  0  1  0  0  0  0  0  0
  183.1990  177.2970  134.9400 C   0  0  0  0  0  2  0  0  0  0  0  0
  182.8000  177.7850  136.3050 C   0  0  0  0  0  0  0  0  0  0  0  0
  181.2650  179.0500  139.8780 C   0  0  0  0  0  0  0  0  0  0  0  0
  181.9770  178.5630  138.8100 C   0  0  0  0  0  0  0  0  0  0  0  0
  179.9530  179.3280  138.0150 C   0  0  0  0  0  3  0  0  0  0  0  0
  184.4930  173.3530  137.7230 F   0  0  0  0  0  0  0  0  0  0  0  0
  184.0470  174.6670  137.7290 C   0  0  1  0  0  3  0  0  0  0  0  0
  183.6270  177.5970  137.4050 N   0  0  0  0  0  0  0  0  0  0  0  0
  181.6840  179.0790  141.2030 O   0  0  0  0  0  1  0  0  0  0  0  0
  181.5640  178.3520  136.4390 N   0  0  0  0  0  0  0  0  0  0  0  0
  182.5130  175.9760  134.5980 C   0  0  0  0  0  2  0  0  0  0  0  0
  187.5270  175.9690  136.8430 C   0  0  0  0  0  0  0  0  0  0  0  0
  184.9350  177.0190  137.2250 C   0  0  0  0  0  0  0  0  0  0  0  0
  182.9700  173.4550  134.6260 C   0  0  2  0  0  3  0  0  0  0  0  0
  181.5120  173.0420  134.6820 C   0  0  0  0  0  1  0  0  0  0  0  0
  183.7610  172.4620  135.2070 O   0  0  0  0  0  1  0  0  0  0  0  0
  189.6220  175.0040  137.7740 O   0  0  0  0  0  1  0  0  0  0  0  0
  188.8590  175.3420  136.6610 C   0  0  0  0  0  0  0  0  0  0  0  0
  189.3220  175.1050  135.5150 O   0  0  0  0  0  0  0  0  0  0  0  0
  179.0600  180.0780  140.2110 O   0  0  0  0  0  0  0  0  0  0  0  0
  179.1170  181.4330  140.6300 C   0  0  0  0  0  1  0  0  0  0  0  0
  1 25  1  0  0  0  0
  2 19  1  0  0  0  0
  3 26  1  6  0  0  0
  3  4  1  0  0  0  0
  4 12  1  6  0  0  0
  4 19  1  0  0  0  0
  5  7  1  0  0  0  0
  7 24  1  0  0  0  0
  7  1  2  0  0  0  0
  8  2  1  0  0  0  0
  9 16  2  0  0  0  0
  9  6  1  0  0  0  0
 10 15  2  0  0  0  0
 10 32  1  0  0  0  0
 11 17  2  0  0  0  0
 11 16  1  0  0  0  0
 13 14  1  0  0  0  0
 14 22  2  0  0  0  0
 14 20  1  0  0  0  0
 15 21  1  0  0  0  0
 16 15  1  0  0  0  0
 17 10  1  0  0  0  0
 19 18  1  6  0  0  0
 20  9  1  0  0  0  0
 22 11  1  0  0  0  0
 23 13  1  0  0  0  0
 23  3  1  0  0  0  0
 24  8  2  0  0  0  0
 25  2  2  0  0  0  0
 25 20  1  0  0  0  0
 26 27  1  1  0  0  0
 26 28  1  0  0  0  0
 30 24  1  0  0  0  0
 30 29  1  0  0  0  0
 31 30  2  0  0  0  0
 32 33  1  0  0  0  0
M  END
>  <MODEL>
9

>  <REMARK>
 VINA RESULT:      -4.5      3.831      6.798
  Name = 
  3 active torsions:
  status: ('A' for Active; 'I' for Inactive)
    1  A    between atoms: C_3  and  C_6
    2  A    between atoms: O_5  and  C_16
    3  A    between atoms: C_14  and  C_31
                            x       y       z     vdW  Elec       q    Type
                         _______ _______ _______ _____ _____    ______ ____

>  <TORSDO>
F 3

$$$$
