=
 OpenBabel10222417413D

 30 31  0  0  1  0  0  0  0  0999 V2000
  190.5870  177.1690  146.4520 C   0  0  0  0  0  0  0  0  0  0  0  0
  188.0360  177.6780  145.3470 C   0  0  0  0  0  0  0  0  0  0  0  0
  189.4750  177.3630  147.2850 C   0  0  0  0  0  3  0  0  0  0  0  0
  189.1530  177.4840  144.5190 C   0  0  0  0  0  3  0  0  0  0  0  0
  188.2150  177.6170  146.7380 C   0  0  0  0  0  3  0  0  0  0  0  0
  190.4230  177.2320  145.0580 C   0  0  0  0  0  0  0  0  0  0  0  0
  184.8580  179.3460  142.8200 C   0  0  0  0  0  2  0  0  0  0  0  0
  185.6440  178.1310  142.4810 C   0  0  0  0  0  3  0  0  0  0  0  0
  186.4680  177.5460  143.3470 C   0  0  0  0  0  3  0  0  0  0  0  0
  183.8930  179.0290  143.8650 N   0  0  0  0  0  0  0  0  0  0  0  0
  184.3420  178.8080  145.2110 C   0  0  0  0  0  0  0  0  0  0  0  0
  186.7020  177.9600  144.7540 C   0  0  0  0  0  0  0  0  0  0  0  0
  185.7450  178.4840  145.5450 C   0  0  0  0  0  3  0  0  0  0  0  0
  183.5260  178.9210  146.1650 O   0  0  0  0  0  0  0  0  0  0  0  0
  182.0130  178.9180  142.3410 C   0  0  0  0  0  2  0  0  0  0  0  0
  182.4860  179.0080  143.5790 C   0  0  0  0  0  3  0  0  0  0  0  0
  191.8550  176.9160  146.9890 O   0  0  0  0  0  0  0  0  0  0  0  0
  192.1100  175.8510  147.8940 C   0  0  0  0  0  1  0  0  0  0  0  0
  191.6080  177.0320  144.1540 C   0  0  1  0  0  3  0  0  0  0  0  0
  191.6760  175.6040  143.5980 C   0  0  0  0  0  3  0  0  0  0  0  0
  190.2990  175.1360  143.1650 C   0  0  0  0  0  1  0  0  0  0  0  0
  192.2740  174.6100  144.5850 C   0  0  0  0  0  1  0  0  0  0  0  0
  191.7120  178.1120  143.0740 C   0  0  0  0  0  2  0  0  0  0  0  0
  191.8170  177.4950  141.7610 N   0  0  0  0  0  2  0  0  0  0  0  0
  190.6280  177.8740  141.0140 C   0  0  0  0  0  2  0  0  0  0  0  0
  189.6880  177.2800  138.7590 C   0  0  0  0  0  3  0  0  0  0  0  0
  190.4990  177.0260  139.7900 C   0  0  0  0  0  3  0  0  0  0  0  0
  188.7460  178.4080  138.6320 C   0  0  0  0  0  0  0  0  0  0  0  0
  189.0610  179.3830  137.9020 O   0  0  0  0  0  0  0  0  0  0  0  0
  187.4820  178.4150  139.2900 N   0  0  0  0  0  1  0  0  0  0  0  0
  1 17  1  0  0  0  0
  1  3  1  0  0  0  0
  2  5  1  0  0  0  0
  4  6  1  0  0  0  0
  4  2  2  0  0  0  0
  5  3  2  0  0  0  0
  6  1  2  0  0  0  0
  7 10  1  0  0  0  0
  8  7  1  0  0  0  0
  8  9  2  0  0  0  0
  9 12  1  0  0  0  0
 10 11  1  0  0  0  0
 11 13  1  0  0  0  0
 11 14  2  0  0  0  0
 12  2  1  0  0  0  0
 12 13  2  0  0  0  0
 15 16  2  0  0  0  0
 16 10  1  0  0  0  0
 17 18  1  0  0  0  0
 19 23  1  6  0  0  0
 19  6  1  0  0  0  0
 20 19  1  0  0  0  0
 20 22  1  0  0  0  0
 21 20  1  0  0  0  0
 24 23  1  0  0  0  0
 25 24  1  0  0  0  0
 26 27  2  0  0  0  0
 27 25  1  0  0  0  0
 28 26  1  0  0  0  0
 28 30  1  0  0  0  0
 29 28  2  0  0  0  0
M  END
>  <MODEL>
1

>  <REMARK>
 VINA RESULT:      -8.6      0.000      0.000
  Name = 
  10 active torsions:
  status: ('A' for Active; 'I' for Inactive)
    1  A    between atoms: N_4  and  C_12
    2  A    between atoms: N_4  and  C_21
    3  A    between atoms: C_5  and  C_28
    4  A    between atoms: C_6  and  C_18
    5  A    between atoms: O_7  and  C_8
    6  A    between atoms: C_9  and  C_16
    7  A    between atoms: C_12  and  C_28
    8  A    between atoms: N_13  and  C_17
    9  A    between atoms: C_21  and  C_24
   10  A    between atoms: C_28  and  C_30
                            x       y       z     vdW  Elec       q    Type
                         _______ _______ _______ _____ _____    ______ ____

>  <TORSDO>
F 10

$$$$
=
 OpenBabel10222417413D

 30 31  0  0  1  0  0  0  0  0999 V2000
  187.5730  177.5620  145.3970 C   0  0  0  0  0  0  0  0  0  0  0  0
  185.5600  178.2970  143.5540 C   0  0  0  0  0  0  0  0  0  0  0  0
  186.2570  177.7860  145.8290 C   0  0  0  0  0  3  0  0  0  0  0  0
  186.8780  178.0720  143.1270 C   0  0  0  0  0  3  0  0  0  0  0  0
  185.2630  178.1510  144.9180 C   0  0  0  0  0  3  0  0  0  0  0  0
  187.8840  177.7090  144.0340 C   0  0  0  0  0  0  0  0  0  0  0  0
  181.9840  178.2400  141.0080 C   0  0  0  0  0  2  0  0  0  0  0  0
  182.0050  178.7380  142.4080 C   0  0  0  0  0  3  0  0  0  0  0  0
  183.1350  178.9150  143.0890 C   0  0  0  0  0  3  0  0  0  0  0  0
  182.6210  179.2140  140.1320 N   0  0  0  0  0  0  0  0  0  0  0  0
  184.0460  179.3860  140.1680 C   0  0  0  0  0  0  0  0  0  0  0  0
  184.5120  178.6980  142.5770 C   0  0  0  0  0  0  0  0  0  0  0  0
  184.8790  178.9370  141.3030 C   0  0  0  0  0  3  0  0  0  0  0  0
  184.6340  179.9110  139.1850 O   0  0  0  0  0  0  0  0  0  0  0  0
  180.6360  180.4290  139.4570 C   0  0  0  0  0  2  0  0  0  0  0  0
  181.8460  179.9560  139.1770 C   0  0  0  0  0  3  0  0  0  0  0  0
  188.5780  177.1980  146.3010 O   0  0  0  0  0  0  0  0  0  0  0  0
  188.4000  177.2450  147.7100 C   0  0  0  0  0  1  0  0  0  0  0  0
  189.2920  177.4780  143.5570 C   0  0  1  0  0  3  0  0  0  0  0  0
  190.3330  178.0250  144.5430 C   0  0  0  0  0  3  0  0  0  0  0  0
  190.9960  179.2680  143.9810 C   0  0  0  0  0  1  0  0  0  0  0  0
  191.3930  176.9980  144.9180 C   0  0  0  0  0  1  0  0  0  0  0  0
  189.5430  176.0230  143.1510 C   0  0  0  0  0  2  0  0  0  0  0  0
  190.3820  175.9750  141.9650 N   0  0  0  0  0  2  0  0  0  0  0  0
  189.9580  177.0610  141.0960 C   0  0  0  0  0  2  0  0  0  0  0  0
  189.9060  177.4080  138.6060 C   0  0  0  0  0  3  0  0  0  0  0  0
  190.3870  176.7910  139.6900 C   0  0  0  0  0  3  0  0  0  0  0  0
  188.8500  178.4370  138.5700 C   0  0  0  0  0  0  0  0  0  0  0  0
  189.0820  179.5250  137.9820 O   0  0  0  0  0  0  0  0  0  0  0  0
  187.5690  178.2260  139.1580 N   0  0  0  0  0  1  0  0  0  0  0  0
  1  3  1  0  0  0  0
  1 17  1  0  0  0  0
  2  5  1  0  0  0  0
  4  2  2  0  0  0  0
  4  6  1  0  0  0  0
  5  3  2  0  0  0  0
  6  1  2  0  0  0  0
  7  8  1  0  0  0  0
  8  9  2  0  0  0  0
 10 11  1  0  0  0  0
 10  7  1  0  0  0  0
 11 13  1  0  0  0  0
 12  9  1  0  0  0  0
 12  2  1  0  0  0  0
 13 12  2  0  0  0  0
 14 11  2  0  0  0  0
 16 15  2  0  0  0  0
 16 10  1  0  0  0  0
 17 18  1  0  0  0  0
 19 23  1  1  0  0  0
 19  6  1  0  0  0  0
 19 20  1  0  0  0  0
 20 22  1  0  0  0  0
 21 20  1  0  0  0  0
 24 23  1  0  0  0  0
 25 24  1  0  0  0  0
 26 27  2  0  0  0  0
 27 25  1  0  0  0  0
 28 26  1  0  0  0  0
 28 30  1  0  0  0  0
 29 28  2  0  0  0  0
M  END
>  <MODEL>
2

>  <REMARK>
 VINA RESULT:      -8.4      1.865      3.344
  Name = 
  10 active torsions:
  status: ('A' for Active; 'I' for Inactive)
    1  A    between atoms: N_4  and  C_12
    2  A    between atoms: N_4  and  C_21
    3  A    between atoms: C_5  and  C_28
    4  A    between atoms: C_6  and  C_18
    5  A    between atoms: O_7  and  C_8
    6  A    between atoms: C_9  and  C_16
    7  A    between atoms: C_12  and  C_28
    8  A    between atoms: N_13  and  C_17
    9  A    between atoms: C_21  and  C_24
   10  A    between atoms: C_28  and  C_30
                            x       y       z     vdW  Elec       q    Type
                         _______ _______ _______ _____ _____    ______ ____

>  <TORSDO>
F 10

$$$$
=
 OpenBabel10222417413D

 30 31  0  0  1  0  0  0  0  0999 V2000
  182.9900  178.8130  142.8340 C   0  0  0  0  0  0  0  0  0  0  0  0
  185.5840  178.0840  143.6890 C   0  0  0  0  0  0  0  0  0  0  0  0
  183.3590  178.9400  144.1820 C   0  0  0  0  0  3  0  0  0  0  0  0
  185.2090  177.9590  142.3420 C   0  0  0  0  0  3  0  0  0  0  0  0
  184.6410  178.5770  144.6040 C   0  0  0  0  0  3  0  0  0  0  0  0
  183.9240  178.3170  141.9080 C   0  0  0  0  0  0  0  0  0  0  0  0
  189.5520  178.1450  145.5640 C   0  0  0  0  0  2  0  0  0  0  0  0
  188.3190  177.6570  146.2350 C   0  0  0  0  0  3  0  0  0  0  0  0
  187.1720  177.4780  145.5830 C   0  0  0  0  0  3  0  0  0  0  0  0
  190.0020  177.1610  144.5890 N   0  0  0  0  0  0  0  0  0  0  0  0
  189.2740  176.9810  143.3640 C   0  0  0  0  0  0  0  0  0  0  0  0
  186.9470  177.6830  144.1290 C   0  0  0  0  0  0  0  0  0  0  0  0
  187.8780  177.4330  143.1890 C   0  0  0  0  0  3  0  0  0  0  0  0
  189.8430  176.4450  142.3770 O   0  0  0  0  0  0  0  0  0  0  0  0
  191.7950  176.3390  145.9970 C   0  0  0  0  0  2  0  0  0  0  0  0
  191.2120  176.4180  144.8060 C   0  0  0  0  0  3  0  0  0  0  0  0
  181.7090  179.1720  142.4000 O   0  0  0  0  0  0  0  0  0  0  0  0
  180.5510  179.0210  143.2090 C   0  0  0  0  0  1  0  0  0  0  0  0
  183.5400  178.1700  140.4610 C   0  0  1  0  0  3  0  0  0  0  0  0
  182.2220  177.4030  140.2880 C   0  0  0  0  0  3  0  0  0  0  0  0
  182.4860  176.0030  139.7650 C   0  0  0  0  0  1  0  0  0  0  0  0
  181.2340  178.1180  139.3770 C   0  0  0  0  0  1  0  0  0  0  0  0
  183.5730  179.5010  139.7070 C   0  0  0  0  0  2  0  0  0  0  0  0
  184.8410  179.6490  139.0110 N   0  0  0  0  0  2  0  0  0  0  0  0
  185.2630  178.3180  138.6030 C   0  0  0  0  0  2  0  0  0  0  0  0
  187.5790  178.2350  137.6290 C   0  0  0  0  0  3  0  0  0  0  0  0
  186.2610  178.4130  137.4960 C   0  0  0  0  0  3  0  0  0  0  0  0
  188.3100  177.9480  138.8780 C   0  0  0  0  0  0  0  0  0  0  0  0
  188.1640  178.7220  139.8590 O   0  0  0  0  0  0  0  0  0  0  0  0
  189.1550  176.8080  139.0130 N   0  0  0  0  0  1  0  0  0  0  0  0
  1  3  1  0  0  0  0
  2 12  1  0  0  0  0
  2  5  1  0  0  0  0
  3  5  2  0  0  0  0
  4  2  2  0  0  0  0
  6  4  1  0  0  0  0
  6  1  2  0  0  0  0
  7  8  1  0  0  0  0
  9  8  2  0  0  0  0
 10 16  1  0  0  0  0
 10  7  1  0  0  0  0
 11 10  1  0  0  0  0
 12  9  1  0  0  0  0
 13 11  1  0  0  0  0
 13 12  2  0  0  0  0
 14 11  2  0  0  0  0
 16 15  2  0  0  0  0
 17  1  1  0  0  0  0
 17 18  1  0  0  0  0
 19 23  1  1  0  0  0
 19  6  1  0  0  0  0
 20 19  1  0  0  0  0
 21 20  1  0  0  0  0
 22 20  1  0  0  0  0
 24 23  1  0  0  0  0
 25 24  1  0  0  0  0
 26 28  1  0  0  0  0
 27 26  2  0  0  0  0
 27 25  1  0  0  0  0
 28 30  1  0  0  0  0
 28 29  2  0  0  0  0
M  END
>  <MODEL>
3

>  <REMARK>
 VINA RESULT:      -8.0      2.338      7.205
  Name = 
  10 active torsions:
  status: ('A' for Active; 'I' for Inactive)
    1  A    between atoms: N_4  and  C_12
    2  A    between atoms: N_4  and  C_21
    3  A    between atoms: C_5  and  C_28
    4  A    between atoms: C_6  and  C_18
    5  A    between atoms: O_7  and  C_8
    6  A    between atoms: C_9  and  C_16
    7  A    between atoms: C_12  and  C_28
    8  A    between atoms: N_13  and  C_17
    9  A    between atoms: C_21  and  C_24
   10  A    between atoms: C_28  and  C_30
                            x       y       z     vdW  Elec       q    Type
                         _______ _______ _______ _____ _____    ______ ____

>  <TORSDO>
F 10

$$$$
=
 OpenBabel10222417413D

 30 31  0  0  1  0  0  0  0  0999 V2000
  182.7100  179.0020  143.1460 C   0  0  0  0  0  0  0  0  0  0  0  0
  185.3320  178.2170  143.8520 C   0  0  0  0  0  0  0  0  0  0  0  0
  183.1390  179.0680  144.4810 C   0  0  0  0  0  3  0  0  0  0  0  0
  184.8970  178.1530  142.5190 C   0  0  0  0  0  3  0  0  0  0  0  0
  184.4350  178.6780  144.8290 C   0  0  0  0  0  3  0  0  0  0  0  0
  183.5970  178.5390  142.1590 C   0  0  0  0  0  0  0  0  0  0  0  0
  189.3840  178.1730  145.5400 C   0  0  0  0  0  2  0  0  0  0  0  0
  188.1780  177.6740  146.2510 C   0  0  0  0  0  3  0  0  0  0  0  0
  187.0000  177.5300  145.6480 C   0  0  0  0  0  3  0  0  0  0  0  0
  189.7770  177.2200  144.5120 N   0  0  0  0  0  0  0  0  0  0  0  0
  188.9900  177.0900  143.3170 C   0  0  0  0  0  0  0  0  0  0  0  0
  186.7090  177.7880  144.2140 C   0  0  0  0  0  0  0  0  0  0  0  0
  187.5930  177.5610  143.2230 C   0  0  0  0  0  3  0  0  0  0  0  0
  189.5060  176.5830  142.2850 O   0  0  0  0  0  0  0  0  0  0  0  0
  191.6770  176.4110  145.7790 C   0  0  0  0  0  2  0  0  0  0  0  0
  190.9860  176.4570  144.6450 C   0  0  0  0  0  3  0  0  0  0  0  0
  181.4140  179.3890  142.7850 O   0  0  0  0  0  0  0  0  0  0  0  0
  180.2620  178.6270  143.1190 C   0  0  0  0  0  1  0  0  0  0  0  0
  183.1480  178.4580  140.7260 C   0  0  1  0  0  3  0  0  0  0  0  0
  183.9670  179.3770  139.8110 C   0  0  0  0  0  3  0  0  0  0  0  0
  183.0580  180.1220  138.8520 C   0  0  0  0  0  1  0  0  0  0  0  0
  185.0430  178.6330  139.0310 C   0  0  0  0  0  1  0  0  0  0  0  0
  183.0590  177.0160  140.2190 C   0  0  0  0  0  2  0  0  0  0  0  0
  181.7400  176.7640  139.6600 N   0  0  0  0  0  2  0  0  0  0  0  0
  181.9250  175.9170  138.4930 C   0  0  0  0  0  2  0  0  0  0  0  0
  183.3070  176.5090  136.4790 C   0  0  0  0  0  3  0  0  0  0  0  0
  182.2850  176.7500  137.3060 C   0  0  0  0  0  3  0  0  0  0  0  0
  184.2900  175.4150  136.5830 C   0  0  0  0  0  0  0  0  0  0  0  0
  185.3610  175.6180  137.2120 O   0  0  0  0  0  0  0  0  0  0  0  0
  184.0530  174.1290  136.0160 N   0  0  0  0  0  1  0  0  0  0  0  0
  1  3  1  0  0  0  0
  2 12  1  0  0  0  0
  2  5  1  0  0  0  0
  3  5  2  0  0  0  0
  4  2  2  0  0  0  0
  6  4  1  0  0  0  0
  6  1  2  0  0  0  0
  7  8  1  0  0  0  0
  9  8  2  0  0  0  0
 10 16  1  0  0  0  0
 10  7  1  0  0  0  0
 11 10  1  0  0  0  0
 12  9  1  0  0  0  0
 13 11  1  0  0  0  0
 13 12  2  0  0  0  0
 14 11  2  0  0  0  0
 16 15  2  0  0  0  0
 17 18  1  0  0  0  0
 17  1  1  0  0  0  0
 19 23  1  6  0  0  0
 19  6  1  0  0  0  0
 20 19  1  0  0  0  0
 21 20  1  0  0  0  0
 22 20  1  0  0  0  0
 24 23  1  0  0  0  0
 25 24  1  0  0  0  0
 26 28  1  0  0  0  0
 26 27  2  0  0  0  0
 27 25  1  0  0  0  0
 28 29  2  0  0  0  0
 30 28  1  0  0  0  0
M  END
>  <MODEL>
4

>  <REMARK>
 VINA RESULT:      -7.7      3.401      7.717
  Name = 
  10 active torsions:
  status: ('A' for Active; 'I' for Inactive)
    1  A    between atoms: N_4  and  C_12
    2  A    between atoms: N_4  and  C_21
    3  A    between atoms: C_5  and  C_28
    4  A    between atoms: C_6  and  C_18
    5  A    between atoms: O_7  and  C_8
    6  A    between atoms: C_9  and  C_16
    7  A    between atoms: C_12  and  C_28
    8  A    between atoms: N_13  and  C_17
    9  A    between atoms: C_21  and  C_24
   10  A    between atoms: C_28  and  C_30
                            x       y       z     vdW  Elec       q    Type
                         _______ _______ _______ _____ _____    ______ ____

>  <TORSDO>
F 10

$$$$
=
 OpenBabel10222417413D

 30 31  0  0  1  0  0  0  0  0999 V2000
  182.6970  179.0030  143.1120 C   0  0  0  0  0  0  0  0  0  0  0  0
  185.3340  178.2290  143.7700 C   0  0  0  0  0  0  0  0  0  0  0  0
  183.1420  179.0460  144.4420 C   0  0  0  0  0  3  0  0  0  0  0  0
  184.8840  178.1880  142.4410 C   0  0  0  0  0  3  0  0  0  0  0  0
  184.4450  178.6610  144.7670 C   0  0  0  0  0  3  0  0  0  0  0  0
  183.5760  178.5690  142.1050 C   0  0  0  0  0  0  0  0  0  0  0  0
  189.3970  178.1760  145.4320 C   0  0  0  0  0  2  0  0  0  0  0  0
  188.2030  177.6310  146.1280 C   0  0  0  0  0  3  0  0  0  0  0  0
  187.0230  177.4940  145.5270 C   0  0  0  0  0  3  0  0  0  0  0  0
  189.7970  177.2700  144.3640 N   0  0  0  0  0  0  0  0  0  0  0  0
  189.0050  177.1760  143.1690 C   0  0  0  0  0  0  0  0  0  0  0  0
  186.7200  177.8050  144.1060 C   0  0  0  0  0  0  0  0  0  0  0  0
  187.6000  177.6310  143.1020 C   0  0  0  0  0  3  0  0  0  0  0  0
  189.5220  176.7190  142.1150 O   0  0  0  0  0  0  0  0  0  0  0  0
  191.6820  176.3850  145.6020 C   0  0  0  0  0  2  0  0  0  0  0  0
  191.0180  176.5200  144.4590 C   0  0  0  0  0  3  0  0  0  0  0  0
  181.3930  179.3850  142.7740 O   0  0  0  0  0  0  0  0  0  0  0  0
  180.2430  178.6990  143.2490 C   0  0  0  0  0  1  0  0  0  0  0  0
  183.1100  178.5120  140.6760 C   0  0  1  0  0  3  0  0  0  0  0  0
  183.9650  179.3930  139.7550 C   0  0  0  0  0  3  0  0  0  0  0  0
  183.0810  180.2510  138.8690 C   0  0  0  0  0  1  0  0  0  0  0  0
  184.9340  178.5910  138.8970 C   0  0  0  0  0  1  0  0  0  0  0  0
  182.9470  177.0780  140.1670 C   0  0  0  0  0  2  0  0  0  0  0  0
  181.5500  176.8110  139.8670 N   0  0  0  0  0  2  0  0  0  0  0  0
  181.4190  176.7930  138.4190 C   0  0  0  0  0  2  0  0  0  0  0  0
  181.5270  174.4180  137.6000 C   0  0  0  0  0  3  0  0  0  0  0  0
  182.1100  175.5930  137.8570 C   0  0  0  0  0  3  0  0  0  0  0  0
  180.1180  174.0590  137.8440 C   0  0  0  0  0  0  0  0  0  0  0  0
  179.7850  173.6490  138.9860 O   0  0  0  0  0  0  0  0  0  0  0  0
  179.1200  174.1860  136.8350 N   0  0  0  0  0  1  0  0  0  0  0  0
  1  3  1  0  0  0  0
  2 12  1  0  0  0  0
  2  5  1  0  0  0  0
  3  5  2  0  0  0  0
  4  2  2  0  0  0  0
  6  4  1  0  0  0  0
  6  1  2  0  0  0  0
  7  8  1  0  0  0  0
  9  8  2  0  0  0  0
 10 16  1  0  0  0  0
 10  7  1  0  0  0  0
 11 10  1  0  0  0  0
 12  9  1  0  0  0  0
 13 11  1  0  0  0  0
 13 12  2  0  0  0  0
 14 11  2  0  0  0  0
 16 15  2  0  0  0  0
 17  1  1  0  0  0  0
 17 18  1  0  0  0  0
 19 23  1  6  0  0  0
 19  6  1  0  0  0  0
 20 19  1  0  0  0  0
 21 20  1  0  0  0  0
 22 20  1  0  0  0  0
 24 23  1  0  0  0  0
 25 24  1  0  0  0  0
 26 28  1  0  0  0  0
 26 27  2  0  0  0  0
 27 25  1  0  0  0  0
 28 29  2  0  0  0  0
 30 28  1  0  0  0  0
M  END
>  <MODEL>
5

>  <REMARK>
 VINA RESULT:      -7.7      3.999      8.252
  Name = 
  10 active torsions:
  status: ('A' for Active; 'I' for Inactive)
    1  A    between atoms: N_4  and  C_12
    2  A    between atoms: N_4  and  C_21
    3  A    between atoms: C_5  and  C_28
    4  A    between atoms: C_6  and  C_18
    5  A    between atoms: O_7  and  C_8
    6  A    between atoms: C_9  and  C_16
    7  A    between atoms: C_12  and  C_28
    8  A    between atoms: N_13  and  C_17
    9  A    between atoms: C_21  and  C_24
   10  A    between atoms: C_28  and  C_30
                            x       y       z     vdW  Elec       q    Type
                         _______ _______ _______ _____ _____    ______ ____

>  <TORSDO>
F 10

$$$$
=
 OpenBabel10222417413D

 30 31  0  0  1  0  0  0  0  0999 V2000
  182.3770  178.9330  143.0920 C   0  0  0  0  0  0  0  0  0  0  0  0
  185.1030  178.2870  143.4600 C   0  0  0  0  0  0  0  0  0  0  0  0
  182.9540  178.9750  144.3710 C   0  0  0  0  0  3  0  0  0  0  0  0
  184.5210  178.2460  142.1840 C   0  0  0  0  0  3  0  0  0  0  0  0
  184.3010  178.6540  144.5520 C   0  0  0  0  0  3  0  0  0  0  0  0
  183.1680  178.5630  141.9920 C   0  0  0  0  0  0  0  0  0  0  0  0
  188.9440  176.1740  143.2250 C   0  0  0  0  0  2  0  0  0  0  0  0
  188.4930  177.1980  142.2470 C   0  0  0  0  0  3  0  0  0  0  0  0
  187.4130  177.9510  142.4450 C   0  0  0  0  0  3  0  0  0  0  0  0
  189.3510  176.8240  144.4630 N   0  0  0  0  0  0  0  0  0  0  0  0
  188.3590  177.3840  145.3380 C   0  0  0  0  0  0  0  0  0  0  0  0
  186.5360  177.9310  143.6440 C   0  0  0  0  0  0  0  0  0  0  0  0
  186.9870  177.7050  144.8930 C   0  0  0  0  0  3  0  0  0  0  0  0
  188.6430  177.5880  146.5490 O   0  0  0  0  0  0  0  0  0  0  0  0
  191.5810  177.7710  144.4170 C   0  0  0  0  0  2  0  0  0  0  0  0
  190.7320  176.8480  144.8570 C   0  0  0  0  0  3  0  0  0  0  0  0
  181.0270  179.2500  142.8990 O   0  0  0  0  0  0  0  0  0  0  0  0
  179.9680  178.4960  143.4720 C   0  0  0  0  0  1  0  0  0  0  0  0
  182.5610  178.5070  140.6160 C   0  0  1  0  0  3  0  0  0  0  0  0
  183.4360  179.2090  139.5700 C   0  0  0  0  0  3  0  0  0  0  0  0
  182.6220  180.2260  138.7910 C   0  0  0  0  0  1  0  0  0  0  0  0
  184.1070  178.2380  138.6080 C   0  0  0  0  0  1  0  0  0  0  0  0
  182.1490  177.0890  140.2130 C   0  0  0  0  0  2  0  0  0  0  0  0
  180.7310  177.0550  139.8900 N   0  0  0  0  0  2  0  0  0  0  0  0
  180.5390  175.9860  138.9230 C   0  0  0  0  0  2  0  0  0  0  0  0
  181.8520  175.8110  136.7860 C   0  0  0  0  0  3  0  0  0  0  0  0
  180.9660  176.4400  137.5650 C   0  0  0  0  0  3  0  0  0  0  0  0
  182.6010  174.5830  137.1120 C   0  0  0  0  0  0  0  0  0  0  0  0
  182.1900  173.4830  136.6590 O   0  0  0  0  0  0  0  0  0  0  0  0
  183.7870  174.6080  137.9020 N   0  0  0  0  0  1  0  0  0  0  0  0
  1  3  1  0  0  0  0
  2 12  1  0  0  0  0
  2  5  1  0  0  0  0
  3  5  2  0  0  0  0
  4  2  2  0  0  0  0
  6  4  1  0  0  0  0
  6  1  2  0  0  0  0
  7 10  1  0  0  0  0
  8  9  2  0  0  0  0
  8  7  1  0  0  0  0
  9 12  1  0  0  0  0
 10 16  1  0  0  0  0
 10 11  1  0  0  0  0
 11 14  2  0  0  0  0
 12 13  2  0  0  0  0
 13 11  1  0  0  0  0
 15 16  2  0  0  0  0
 17  1  1  0  0  0  0
 17 18  1  0  0  0  0
 19 23  1  6  0  0  0
 19  6  1  0  0  0  0
 20 19  1  0  0  0  0
 21 20  1  0  0  0  0
 22 20  1  0  0  0  0
 24 23  1  0  0  0  0
 25 24  1  0  0  0  0
 26 28  1  0  0  0  0
 26 27  2  0  0  0  0
 27 25  1  0  0  0  0
 28 30  1  0  0  0  0
 29 28  2  0  0  0  0
M  END
>  <MODEL>
6

>  <REMARK>
 VINA RESULT:      -7.6      3.656      8.063
  Name = 
  10 active torsions:
  status: ('A' for Active; 'I' for Inactive)
    1  A    between atoms: N_4  and  C_12
    2  A    between atoms: N_4  and  C_21
    3  A    between atoms: C_5  and  C_28
    4  A    between atoms: C_6  and  C_18
    5  A    between atoms: O_7  and  C_8
    6  A    between atoms: C_9  and  C_16
    7  A    between atoms: C_12  and  C_28
    8  A    between atoms: N_13  and  C_17
    9  A    between atoms: C_21  and  C_24
   10  A    between atoms: C_28  and  C_30
                            x       y       z     vdW  Elec       q    Type
                         _______ _______ _______ _____ _____    ______ ____

>  <TORSDO>
F 10

$$$$
=
 OpenBabel10222417413D

 30 31  0  0  1  0  0  0  0  0999 V2000
  182.7340  179.0000  143.2740 C   0  0  0  0  0  0  0  0  0  0  0  0
  185.3990  178.2490  143.8420 C   0  0  0  0  0  0  0  0  0  0  0  0
  183.2090  179.0010  144.5940 C   0  0  0  0  0  3  0  0  0  0  0  0
  184.9180  178.2500  142.5230 C   0  0  0  0  0  3  0  0  0  0  0  0
  184.5260  178.6280  144.8740 C   0  0  0  0  0  3  0  0  0  0  0  0
  183.5960  178.6190  142.2310 C   0  0  0  0  0  0  0  0  0  0  0  0
  189.5300  178.2530  145.3280 C   0  0  0  0  0  2  0  0  0  0  0  0
  188.3680  177.7250  146.0900 C   0  0  0  0  0  3  0  0  0  0  0  0
  187.1640  177.5680  145.5440 C   0  0  0  0  0  3  0  0  0  0  0  0
  189.8860  177.3180  144.2700 N   0  0  0  0  0  0  0  0  0  0  0  0
  189.0440  177.1900  143.1130 C   0  0  0  0  0  0  0  0  0  0  0  0
  186.7990  177.8390  144.1300 C   0  0  0  0  0  0  0  0  0  0  0  0
  187.6370  177.6390  143.0940 C   0  0  0  0  0  3  0  0  0  0  0  0
  189.5170  176.7040  142.0510 O   0  0  0  0  0  0  0  0  0  0  0  0
  191.6720  176.2210  145.4860 C   0  0  0  0  0  2  0  0  0  0  0  0
  191.1130  176.5750  144.3330 C   0  0  0  0  0  3  0  0  0  0  0  0
  181.4160  179.3700  142.9810 O   0  0  0  0  0  0  0  0  0  0  0  0
  180.2900  178.7540  143.5890 C   0  0  0  0  0  1  0  0  0  0  0  0
  183.0980  178.6080  140.8120 C   0  0  1  0  0  3  0  0  0  0  0  0
  184.0900  179.2700  139.8470 C   0  0  0  0  0  3  0  0  0  0  0  0
  183.4120  180.3810  139.0660 C   0  0  0  0  0  1  0  0  0  0  0  0
  184.7330  178.2800  138.8840 C   0  0  0  0  0  1  0  0  0  0  0  0
  182.6440  177.2180  140.3600 C   0  0  0  0  0  2  0  0  0  0  0  0
  181.1910  177.1480  140.3490 N   0  0  0  0  0  2  0  0  0  0  0  0
  180.7200  178.1670  139.4250 C   0  0  0  0  0  2  0  0  0  0  0  0
  179.0500  180.0380  139.6080 C   0  0  0  0  0  3  0  0  0  0  0  0
  179.5000  178.8330  139.9740 C   0  0  0  0  0  3  0  0  0  0  0  0
  179.6700  180.9540  138.6330 C   0  0  0  0  0  0  0  0  0  0  0  0
  180.3270  181.9390  139.0590 O   0  0  0  0  0  0  0  0  0  0  0  0
  179.5670  180.7440  137.2270 N   0  0  0  0  0  1  0  0  0  0  0  0
  1  3  1  0  0  0  0
  2 12  1  0  0  0  0
  2  5  1  0  0  0  0
  3  5  2  0  0  0  0
  4  2  2  0  0  0  0
  6  4  1  0  0  0  0
  6  1  2  0  0  0  0
  7  8  1  0  0  0  0
  9  8  2  0  0  0  0
 10 16  1  0  0  0  0
 10  7  1  0  0  0  0
 11 10  1  0  0  0  0
 12  9  1  0  0  0  0
 13 11  1  0  0  0  0
 13 12  2  0  0  0  0
 14 11  2  0  0  0  0
 16 15  2  0  0  0  0
 17  1  1  0  0  0  0
 17 18  1  0  0  0  0
 19 23  1  6  0  0  0
 19  6  1  0  0  0  0
 20 19  1  0  0  0  0
 21 20  1  0  0  0  0
 22 20  1  0  0  0  0
 24 23  1  0  0  0  0
 25 27  1  0  0  0  0
 25 24  1  0  0  0  0
 26 27  2  0  0  0  0
 28 29  2  0  0  0  0
 28 26  1  0  0  0  0
 30 28  1  0  0  0  0
M  END
>  <MODEL>
7

>  <REMARK>
 VINA RESULT:      -7.5      3.374      8.316
  Name = 
  10 active torsions:
  status: ('A' for Active; 'I' for Inactive)
    1  A    between atoms: N_4  and  C_12
    2  A    between atoms: N_4  and  C_21
    3  A    between atoms: C_5  and  C_28
    4  A    between atoms: C_6  and  C_18
    5  A    between atoms: O_7  and  C_8
    6  A    between atoms: C_9  and  C_16
    7  A    between atoms: C_12  and  C_28
    8  A    between atoms: N_13  and  C_17
    9  A    between atoms: C_21  and  C_24
   10  A    between atoms: C_28  and  C_30
                            x       y       z     vdW  Elec       q    Type
                         _______ _______ _______ _____ _____    ______ ____

>  <TORSDO>
F 10

$$$$
=
 OpenBabel10222417413D

 30 31  0  0  1  0  0  0  0  0999 V2000
  185.3010  178.3730  145.3000 C   0  0  0  0  0  0  0  0  0  0  0  0
  184.0780  178.5740  142.7600 C   0  0  0  0  0  0  0  0  0  0  0  0
  184.0360  178.9640  145.1620 C   0  0  0  0  0  3  0  0  0  0  0  0
  185.3440  177.9840  142.9040 C   0  0  0  0  0  3  0  0  0  0  0  0
  183.4330  179.0650  143.9060 C   0  0  0  0  0  3  0  0  0  0  0  0
  185.9600  177.8810  144.1600 C   0  0  0  0  0  0  0  0  0  0  0  0
  182.7440  180.1750  138.8960 C   0  0  0  0  0  2  0  0  0  0  0  0
  184.0510  179.5030  139.1150 C   0  0  0  0  0  3  0  0  0  0  0  0
  184.3490  178.8670  140.2460 C   0  0  0  0  0  3  0  0  0  0  0  0
  181.6790  179.1820  138.8790 N   0  0  0  0  0  0  0  0  0  0  0  0
  181.2730  178.5450  140.1010 C   0  0  0  0  0  0  0  0  0  0  0  0
  183.4510  178.6870  141.4160 C   0  0  0  0  0  0  0  0  0  0  0  0
  182.1180  178.5260  141.3130 C   0  0  0  0  0  3  0  0  0  0  0  0
  180.1380  178.0010  140.1710 O   0  0  0  0  0  0  0  0  0  0  0  0
  181.1210  179.6120  136.5610 C   0  0  0  0  0  2  0  0  0  0  0  0
  180.9770  178.8830  137.6630 C   0  0  0  0  0  3  0  0  0  0  0  0
  185.9160  178.2680  146.5540 O   0  0  0  0  0  0  0  0  0  0  0  0
  185.9520  179.3390  147.4860 C   0  0  0  0  0  1  0  0  0  0  0  0
  187.3190  177.2510  144.2930 C   0  0  1  0  0  3  0  0  0  0  0  0
  188.0090  177.0760  142.9340 C   0  0  0  0  0  3  0  0  0  0  0  0
  188.7910  175.7760  142.8980 C   0  0  0  0  0  1  0  0  0  0  0  0
  188.9250  178.2400  142.5780 C   0  0  0  0  0  1  0  0  0  0  0  0
  188.1930  177.9530  145.3340 C   0  0  0  0  0  2  0  0  0  0  0  0
  188.6600  176.9940  146.3220 N   0  0  0  0  0  2  0  0  0  0  0  0
  189.6520  177.6720  147.1420 C   0  0  0  0  0  2  0  0  0  0  0  0
  191.7120  176.3860  146.4900 C   0  0  0  0  0  3  0  0  0  0  0  0
  190.8100  176.7640  147.4020 C   0  0  0  0  0  3  0  0  0  0  0  0
  191.7310  176.7520  145.0620 C   0  0  0  0  0  0  0  0  0  0  0  0
  191.7370  177.9700  144.7470 O   0  0  0  0  0  0  0  0  0  0  0  0
  191.7700  175.7690  144.0310 N   0  0  0  0  0  1  0  0  0  0  0  0
  1 17  1  0  0  0  0
  2  4  2  0  0  0  0
  2  5  1  0  0  0  0
  3  1  1  0  0  0  0
  4  6  1  0  0  0  0
  5  3  2  0  0  0  0
  6 19  1  0  0  0  0
  6  1  2  0  0  0  0
  7  8  1  0  0  0  0
  8  9  2  0  0  0  0
  9 12  1  0  0  0  0
 10  7  1  0  0  0  0
 10 11  1  0  0  0  0
 11 14  2  0  0  0  0
 11 13  1  0  0  0  0
 12  2  1  0  0  0  0
 13 12  2  0  0  0  0
 15 16  2  0  0  0  0
 16 10  1  0  0  0  0
 17 18  1  0  0  0  0
 19 23  1  1  0  0  0
 20 19  1  0  0  0  0
 21 20  1  0  0  0  0
 22 20  1  0  0  0  0
 23 24  1  0  0  0  0
 24 25  1  0  0  0  0
 25 27  1  0  0  0  0
 26 27  2  0  0  0  0
 28 26  1  0  0  0  0
 29 28  2  0  0  0  0
 30 28  1  0  0  0  0
M  END
>  <MODEL>
8

>  <REMARK>
 VINA RESULT:      -7.2      2.922      5.695
  Name = 
  10 active torsions:
  status: ('A' for Active; 'I' for Inactive)
    1  A    between atoms: N_4  and  C_12
    2  A    between atoms: N_4  and  C_21
    3  A    between atoms: C_5  and  C_28
    4  A    between atoms: C_6  and  C_18
    5  A    between atoms: O_7  and  C_8
    6  A    between atoms: C_9  and  C_16
    7  A    between atoms: C_12  and  C_28
    8  A    between atoms: N_13  and  C_17
    9  A    between atoms: C_21  and  C_24
   10  A    between atoms: C_28  and  C_30
                            x       y       z     vdW  Elec       q    Type
                         _______ _______ _______ _____ _____    ______ ____

>  <TORSDO>
F 10

$$$$
=
 OpenBabel10222417413D

 30 31  0  0  1  0  0  0  0  0999 V2000
  189.8250  177.5320  139.0100 C   0  0  0  0  0  0  0  0  0  0  0  0
  189.2530  177.3210  141.7700 C   0  0  0  0  0  0  0  0  0  0  0  0
  190.8370  177.2040  139.9260 C   0  0  0  0  0  3  0  0  0  0  0  0
  188.2450  177.6490  140.8500 C   0  0  0  0  0  3  0  0  0  0  0  0
  190.5540  177.1020  141.2900 C   0  0  0  0  0  3  0  0  0  0  0  0
  188.5200  177.7580  139.4780 C   0  0  0  0  0  0  0  0  0  0  0  0
  187.5010  178.0800  145.7230 C   0  0  0  0  0  2  0  0  0  0  0  0
  186.9260  177.1460  144.7200 C   0  0  0  0  0  3  0  0  0  0  0  0
  187.5750  176.7980  143.6110 C   0  0  0  0  0  3  0  0  0  0  0  0
  188.6780  177.4790  146.3340 N   0  0  0  0  0  0  0  0  0  0  0  0
  189.8960  177.3620  145.5810 C   0  0  0  0  0  0  0  0  0  0  0  0
  188.9430  177.2270  143.2210 C   0  0  0  0  0  0  0  0  0  0  0  0
  189.9360  177.4400  144.1060 C   0  0  0  0  0  3  0  0  0  0  0  0
  190.9910  177.2160  146.1880 O   0  0  0  0  0  0  0  0  0  0  0  0
  188.2740  177.8780  148.6900 C   0  0  0  0  0  2  0  0  0  0  0  0
  188.6590  177.0670  147.7090 C   0  0  0  0  0  3  0  0  0  0  0  0
  190.0980  177.6390  137.6410 O   0  0  0  0  0  0  0  0  0  0  0  0
  190.9380  176.7250  136.9490 C   0  0  0  0  0  1  0  0  0  0  0  0
  187.4270  178.1150  138.5090 C   0  0  1  0  0  3  0  0  0  0  0  0
  187.5030  177.2860  137.2200 C   0  0  0  0  0  3  0  0  0  0  0  0
  187.2310  178.1580  136.0090 C   0  0  0  0  0  1  0  0  0  0  0  0
  186.5550  176.0940  137.2230 C   0  0  0  0  0  1  0  0  0  0  0  0
  186.0400  178.1060  139.1570 C   0  0  0  0  0  2  0  0  0  0  0  0
  185.2550  179.2290  138.6710 N   0  0  0  0  0  2  0  0  0  0  0  0
  184.1350  179.3950  139.5840 C   0  0  0  0  0  2  0  0  0  0  0  0
  183.8390  177.8820  141.5700 C   0  0  0  0  0  3  0  0  0  0  0  0
  183.8190  178.0960  140.2500 C   0  0  0  0  0  3  0  0  0  0  0  0
  184.2010  178.8550  142.6180 C   0  0  0  0  0  0  0  0  0  0  0  0
  185.3400  179.3890  142.5820 O   0  0  0  0  0  0  0  0  0  0  0  0
  183.2930  179.2250  143.6520 N   0  0  0  0  0  1  0  0  0  0  0  0
  1  6  2  0  0  0  0
  1  3  1  0  0  0  0
  2 12  1  0  0  0  0
  3  5  2  0  0  0  0
  4  2  2  0  0  0  0
  5  2  1  0  0  0  0
  6  4  1  0  0  0  0
  7 10  1  0  0  0  0
  8  7  1  0  0  0  0
  9  8  2  0  0  0  0
 10 16  1  0  0  0  0
 11 14  2  0  0  0  0
 11 10  1  0  0  0  0
 12  9  1  0  0  0  0
 12 13  2  0  0  0  0
 13 11  1  0  0  0  0
 16 15  2  0  0  0  0
 17  1  1  0  0  0  0
 18 17  1  0  0  0  0
 19 23  1  1  0  0  0
 19  6  1  0  0  0  0
 20 22  1  0  0  0  0
 20 19  1  0  0  0  0
 21 20  1  0  0  0  0
 24 23  1  0  0  0  0
 24 25  1  0  0  0  0
 25 27  1  0  0  0  0
 26 28  1  0  0  0  0
 27 26  2  0  0  0  0
 28 30  1  0  0  0  0
 29 28  2  0  0  0  0
M  END
>  <MODEL>
9

>  <REMARK>
 VINA RESULT:      -7.2      2.205      6.733
  Name = 
  10 active torsions:
  status: ('A' for Active; 'I' for Inactive)
    1  A    between atoms: N_4  and  C_12
    2  A    between atoms: N_4  and  C_21
    3  A    between atoms: C_5  and  C_28
    4  A    between atoms: C_6  and  C_18
    5  A    between atoms: O_7  and  C_8
    6  A    between atoms: C_9  and  C_16
    7  A    between atoms: C_12  and  C_28
    8  A    between atoms: N_13  and  C_17
    9  A    between atoms: C_21  and  C_24
   10  A    between atoms: C_28  and  C_30
                            x       y       z     vdW  Elec       q    Type
                         _______ _______ _______ _____ _____    ______ ____

>  <TORSDO>
F 10

$$$$
