=
 OpenBabel10222415463D

 44 46  0  0  1  0  0  0  0  0999 V2000
  186.7950  178.6310  143.0320 C   0  0  0  0  0  2  0  0  0  0  0  0
  187.0820  177.1600  143.2770 C   0  0  0  0  0  2  0  0  0  0  0  0
  189.7860  177.2840  141.5300 C   0  0  1  0  0  3  0  0  0  0  0  0
  189.8230  175.9630  142.2570 C   0  0  0  0  0  3  0  0  0  0  0  0
  189.8630  178.4950  142.4770 C   0  0  0  0  0  2  0  0  0  0  0  0
  189.2420  178.2690  143.8690 C   0  0  2  0  0  3  0  0  0  0  0  0
  190.2570  178.2600  144.8180 O   0  0  0  0  0  1  0  0  0  0  0  0
  188.4100  176.9830  143.9890 C   0  0  2  0  0  3  0  0  0  0  0  0
  189.1700  175.8170  143.4140 C   0  0  0  0  0  3  0  0  0  0  0  0
  190.8240  177.3760  140.4010 C   0  0  2  0  0  3  0  0  0  0  0  0
  189.8450  176.6940  138.1600 C   0  0  0  0  0  0  0  0  0  0  0  0
  189.4770  177.8730  137.9150 O   0  0  0  0  0  0  0  0  0  0  0  0
  190.5330  176.3820  139.3720 N   0  0  0  0  0  2  0  0  0  0  0  0
  189.5800  175.6630  137.2130 N   0  0  0  0  0  0  0  0  0  0  0  0
  188.4280  174.8060  137.4080 C   0  0  0  0  0  2  0  0  0  0  0  0
  187.1640  175.5590  137.0670 C   0  0  0  0  0  1  0  0  0  0  0  0
  190.3440  175.5530  135.9640 C   0  0  0  0  0  3  0  0  0  0  0  0
  192.6210  175.7970  135.9930 C   0  0  0  0  0  1  0  0  0  0  0  0
  191.5770  174.8700  136.1380 O   0  0  0  0  0  0  0  0  0  0  0  0
  190.4940  176.7990  135.3320 O   0  0  0  0  0  0  0  0  0  0  0  0
  189.3200  176.9810  134.5980 C   0  0  0  0  0  1  0  0  0  0  0  0
  192.2580  177.2260  140.9080 C   0  0  0  0  0  2  0  0  0  0  0  0
  193.2260  177.2130  139.7420 C   0  0  0  0  0  1  0  0  0  0  0  0
  185.2840  178.8740  143.0410 C   0  0  1  0  0  3  0  0  0  0  0  0
  184.5070  178.6050  140.6170 C   0  0  0  0  0  0  0  0  0  0  0  0
  184.9370  179.7460  140.3040 O   0  0  0  0  0  0  0  0  0  0  0  0
  184.6390  178.1300  141.9630 N   0  0  0  0  0  2  0  0  0  0  0  0
  182.9230  176.8020  139.9740 C   0  0  0  0  0  3  0  0  0  0  0  0
  182.6380  176.1280  137.6680 C   0  0  0  0  0  0  0  0  0  0  0  0
  182.3100  175.9910  139.0190 C   0  0  0  0  0  3  0  0  0  0  0  0
  184.2000  177.9000  138.2430 C   0  0  0  0  0  3  0  0  0  0  0  0
  183.5860  177.0900  137.2800 C   0  0  0  0  0  3  0  0  0  0  0  0
  183.8680  177.7630  139.6030 C   0  0  0  0  0  0  0  0  0  0  0  0
  180.8720  174.5160  137.0370 C   0  0  0  0  0  1  0  0  0  0  0  0
  182.0120  175.2950  136.7300 O   0  0  0  0  0  0  0  0  0  0  0  0
  184.5510  178.6280  144.3750 C   0  0  1  0  0  3  0  0  0  0  0  0
  184.6190  178.8250  146.7880 O   0  0  0  0  0  0  0  0  0  0  0  0
  185.2730  179.2010  145.5990 C   0  0  1  0  0  3  0  0  0  0  0  0
  185.7600  178.0850  146.4380 C   0  0  1  0  0  3  0  0  0  0  0  0
  186.9360  178.5410  147.2820 C   0  0  0  0  0  2  0  0  0  0  0  0
  187.7880  177.3490  147.6470 C   0  0  0  0  0  2  0  0  0  0  0  0
  189.1810  177.8230  148.0060 C   0  0  0  0  0  1  0  0  0  0  0  0
  183.1690  179.2030  144.2770 C   0  0  0  0  0  3  0  0  0  0  0  0
  182.1950  178.4660  144.2950 O   0  0  0  0  0  0  0  0  0  0  0  0
  1  2  1  0  0  0  0
  3 10  1  6  0  0  0
  3  4  1  0  0  0  0
  3  5  1  0  0  0  0
  4  9  2  0  0  0  0
  5  6  1  0  0  0  0
  6  8  1  0  0  0  0
  6  7  1  1  0  0  0
  8  2  1  6  0  0  0
  9  8  1  0  0  0  0
 10 22  1  1  0  0  0
 11 13  1  0  0  0  0
 12 11  2  0  0  0  0
 13 10  1  0  0  0  0
 14 15  1  0  0  0  0
 14 11  1  0  0  0  0
 16 15  1  0  0  0  0
 17 19  1  0  0  0  0
 17 14  1  0  0  0  0
 18 19  1  0  0  0  0
 20 17  1  0  0  0  0
 21 20  1  0  0  0  0
 23 22  1  0  0  0  0
 24  1  1  1  0  0  0
 24 36  1  0  0  0  0
 25 27  1  0  0  0  0
 26 25  2  0  0  0  0
 27 24  1  0  0  0  0
 29 30  1  0  0  0  0
 30 28  2  0  0  0  0
 31 33  2  0  0  0  0
 32 29  2  0  0  0  0
 32 31  1  0  0  0  0
 33 28  1  0  0  0  0
 33 25  1  0  0  0  0
 35 34  1  0  0  0  0
 35 29  1  0  0  0  0
 36 43  1  6  0  0  0
 38 36  1  6  0  0  0
 38 39  1  0  0  0  0
 38 37  1  0  0  0  0
 39 37  1  0  0  0  0
 39 40  1  1  0  0  0
 40 41  1  0  0  0  0
 41 42  1  0  0  0  0
 43 44  2  0  0  0  0
M  END
>  <MODEL>
1

>  <REMARK>
 VINA RESULT:      -6.8      0.000      0.000
  Name = 
  18 active torsions:
  status: ('A' for Active; 'I' for Inactive)
    1  A    between atoms: C_1  and  C_28
    2  A    between atoms: C_6  and  C_26
    3  A    between atoms: C_6  and  C_37
    4  A    between atoms: C_8  and  C_27
    5  A    between atoms: C_8  and  C_31
    6  A    between atoms: C_9  and  C_43
    7  A    between atoms: C_11  and  O_20
    8  A    between atoms: C_11  and  N_35
    9  A    between atoms: C_11  and  O_41
   10  A    between atoms: C_14  and  C_29
   11  A    between atoms: C_16  and  N_35
   12  A    between atoms: O_17  and  C_25
   13  A    between atoms: N_18  and  C_31
   14  A    between atoms: C_21  and  C_29
   15  A    between atoms: N_22  and  C_28
   16  A    between atoms: C_27  and  C_34
   17  A    between atoms: C_28  and  C_30
   18  A    between atoms: C_29  and  C_31
                            x       y       z     vdW  Elec       q    Type
                         _______ _______ _______ _____ _____    ______ ____

>  <TORSDO>
F 18

$$$$
=
 OpenBabel10222415463D

 44 46  0  0  1  0  0  0  0  0999 V2000
  189.3640  176.3530  142.5500 C   0  0  0  0  0  2  0  0  0  0  0  0
  190.4070  176.1430  141.4670 C   0  0  0  0  0  2  0  0  0  0  0  0
  191.6880  175.7810  138.5340 C   0  0  1  0  0  3  0  0  0  0  0  0
  192.4840  176.8760  139.2000 C   0  0  0  0  0  3  0  0  0  0  0  0
  190.2190  176.1690  138.2860 C   0  0  0  0  0  2  0  0  0  0  0  0
  189.6260  177.1490  139.3170 C   0  0  2  0  0  3  0  0  0  0  0  0
  189.3960  178.3700  138.6960 O   0  0  0  0  0  1  0  0  0  0  0  0
  190.4970  177.3580  140.5640 C   0  0  2  0  0  3  0  0  0  0  0  0
  191.9260  177.6170  140.1630 C   0  0  0  0  0  3  0  0  0  0  0  0
  192.3580  175.2450  137.2600 C   0  0  2  0  0  3  0  0  0  0  0  0
  194.6180  174.1750  136.8160 C   0  0  0  0  0  0  0  0  0  0  0  0
  194.1110  173.3360  136.0260 O   0  0  0  0  0  0  0  0  0  0  0  0
  193.8030  175.1610  137.4520 N   0  0  0  0  0  2  0  0  0  0  0  0
  196.0190  174.1460  137.0710 N   0  0  0  0  0  0  0  0  0  0  0  0
  196.5050  173.4840  138.2660 C   0  0  0  0  0  2  0  0  0  0  0  0
  196.6980  174.4960  139.3700 C   0  0  0  0  0  1  0  0  0  0  0  0
  196.9910  174.6200  136.0780 C   0  0  0  0  0  3  0  0  0  0  0  0
  197.9370  172.7560  135.1430 C   0  0  0  0  0  1  0  0  0  0  0  0
  198.1610  173.8160  136.0350 O   0  0  0  0  0  0  0  0  0  0  0  0
  197.2740  175.9870  136.2350 O   0  0  0  0  0  0  0  0  0  0  0  0
  196.7630  176.6010  135.0900 C   0  0  0  0  0  1  0  0  0  0  0  0
  192.0250  176.0800  136.0240 C   0  0  0  0  0  2  0  0  0  0  0  0
  191.3280  175.2230  134.9860 C   0  0  0  0  0  1  0  0  0  0  0  0
  189.2210  177.8470  142.8510 C   0  0  1  0  0  3  0  0  0  0  0  0
  186.7820  177.6310  143.5980 C   0  0  0  0  0  0  0  0  0  0  0  0
  187.0520  176.6640  144.3560 O   0  0  0  0  0  0  0  0  0  0  0  0
  187.8160  178.2440  142.8180 N   0  0  0  0  0  2  0  0  0  0  0  0
  184.7400  178.5710  144.6580 C   0  0  0  0  0  3  0  0  0  0  0  0
  182.7610  179.0790  143.3640 C   0  0  0  0  0  0  0  0  0  0  0  0
  183.4310  179.0440  144.5900 C   0  0  0  0  0  3  0  0  0  0  0  0
  184.7330  178.1620  142.2780 C   0  0  0  0  0  3  0  0  0  0  0  0
  183.4180  178.6380  142.2030 C   0  0  0  0  0  3  0  0  0  0  0  0
  185.4070  178.1290  143.5120 C   0  0  0  0  0  0  0  0  0  0  0  0
  180.3410  178.7260  142.9960 C   0  0  0  0  0  1  0  0  0  0  0  0
  181.4420  179.5520  143.3250 O   0  0  0  0  0  0  0  0  0  0  0  0
  189.8920  178.3600  144.1410 C   0  0  1  0  0  3  0  0  0  0  0  0
  190.8370  177.7570  146.2880 O   0  0  0  0  0  0  0  0  0  0  0  0
  189.9920  177.3120  145.2530 C   0  0  1  0  0  3  0  0  0  0  0  0
  189.4570  177.8850  146.5070 C   0  0  1  0  0  3  0  0  0  0  0  0
  188.9860  176.7770  147.4300 C   0  0  0  0  0  2  0  0  0  0  0  0
  187.9830  177.3300  148.4140 C   0  0  0  0  0  2  0  0  0  0  0  0
  187.0580  178.2910  147.6960 C   0  0  0  0  0  1  0  0  0  0  0  0
  191.2580  178.8770  143.7980 C   0  0  0  0  0  3  0  0  0  0  0  0
  192.1680  178.0970  143.5610 O   0  0  0  0  0  0  0  0  0  0  0  0
  2  1  1  0  0  0  0
  3 10  1  6  0  0  0
  3  4  1  0  0  0  0
  4  9  2  0  0  0  0
  5  3  1  0  0  0  0
  5  6  1  0  0  0  0
  6  7  1  6  0  0  0
  6  8  1  0  0  0  0
  8  2  1  1  0  0  0
  9  8  1  0  0  0  0
 10 22  1  6  0  0  0
 10 13  1  0  0  0  0
 11 14  1  0  0  0  0
 11 13  1  0  0  0  0
 12 11  2  0  0  0  0
 14 15  1  0  0  0  0
 15 16  1  0  0  0  0
 17 20  1  0  0  0  0
 17 14  1  0  0  0  0
 18 19  1  0  0  0  0
 19 17  1  0  0  0  0
 21 20  1  0  0  0  0
 23 22  1  0  0  0  0
 24  1  1  1  0  0  0
 24 36  1  0  0  0  0
 25 26  2  0  0  0  0
 27 24  1  0  0  0  0
 27 25  1  0  0  0  0
 29 30  2  0  0  0  0
 30 28  1  0  0  0  0
 31 33  1  0  0  0  0
 32 31  2  0  0  0  0
 32 29  1  0  0  0  0
 33 25  1  0  0  0  0
 33 28  2  0  0  0  0
 34 35  1  0  0  0  0
 35 29  1  0  0  0  0
 36 43  1  6  0  0  0
 37 39  1  0  0  0  0
 38 36  1  6  0  0  0
 38 37  1  0  0  0  0
 38 39  1  0  0  0  0
 39 40  1  1  0  0  0
 40 41  1  0  0  0  0
 42 41  1  0  0  0  0
 44 43  2  0  0  0  0
M  END
>  <MODEL>
2

>  <REMARK>
 VINA RESULT:      -6.7      2.937      5.706
  Name = 
  18 active torsions:
  status: ('A' for Active; 'I' for Inactive)
    1  A    between atoms: C_1  and  C_28
    2  A    between atoms: C_6  and  C_26
    3  A    between atoms: C_6  and  C_37
    4  A    between atoms: C_8  and  C_27
    5  A    between atoms: C_8  and  C_31
    6  A    between atoms: C_9  and  C_43
    7  A    between atoms: C_11  and  O_20
    8  A    between atoms: C_11  and  N_35
    9  A    between atoms: C_11  and  O_41
   10  A    between atoms: C_14  and  C_29
   11  A    between atoms: C_16  and  N_35
   12  A    between atoms: O_17  and  C_25
   13  A    between atoms: N_18  and  C_31
   14  A    between atoms: C_21  and  C_29
   15  A    between atoms: N_22  and  C_28
   16  A    between atoms: C_27  and  C_34
   17  A    between atoms: C_28  and  C_30
   18  A    between atoms: C_29  and  C_31
                            x       y       z     vdW  Elec       q    Type
                         _______ _______ _______ _____ _____    ______ ____

>  <TORSDO>
F 18

$$$$
=
 OpenBabel10222415463D

 44 46  0  0  1  0  0  0  0  0999 V2000
  187.2890  177.4660  144.4790 C   0  0  0  0  0  2  0  0  0  0  0  0
  186.3070  177.5380  143.3240 C   0  0  0  0  0  2  0  0  0  0  0  0
  183.7630  177.9580  141.3930 C   0  0  1  0  0  3  0  0  0  0  0  0
  184.8040  178.9460  140.9270 C   0  0  0  0  0  3  0  0  0  0  0  0
  183.2450  178.2540  142.8120 C   0  0  0  0  0  2  0  0  0  0  0  0
  184.2700  178.9200  143.7500 C   0  0  2  0  0  3  0  0  0  0  0  0
  183.8610  180.2220  144.0110 O   0  0  0  0  0  1  0  0  0  0  0  0
  185.7090  178.9270  143.2120 C   0  0  2  0  0  3  0  0  0  0  0  0
  185.7260  179.4000  141.7820 C   0  0  0  0  0  3  0  0  0  0  0  0
  182.6130  177.7830  140.3910 C   0  0  2  0  0  3  0  0  0  0  0  0
  183.3970  176.6550  138.2560 C   0  0  0  0  0  0  0  0  0  0  0  0
  183.1710  175.5110  138.7290 O   0  0  0  0  0  0  0  0  0  0  0  0
  183.1270  177.8280  139.0250 N   0  0  0  0  0  2  0  0  0  0  0  0
  183.9190  176.7810  136.9370 N   0  0  0  0  0  0  0  0  0  0  0  0
  185.3440  176.9800  136.7580 C   0  0  0  0  0  2  0  0  0  0  0  0
  186.0730  175.6720  136.9580 C   0  0  0  0  0  1  0  0  0  0  0  0
  183.0810  176.5490  135.7540 C   0  0  0  0  0  3  0  0  0  0  0  0
  182.4490  174.3680  135.4600 C   0  0  0  0  0  1  0  0  0  0  0  0
  183.3990  175.3330  135.0920 O   0  0  0  0  0  0  0  0  0  0  0  0
  183.0810  177.6570  134.8890 O   0  0  0  0  0  0  0  0  0  0  0  0
  181.7350  177.8910  134.5960 C   0  0  0  0  0  1  0  0  0  0  0  0
  181.5030  178.8170  140.5840 C   0  0  0  0  0  2  0  0  0  0  0  0
  180.1540  178.1300  140.6510 C   0  0  0  0  0  1  0  0  0  0  0  0
  188.6960  177.1750  143.9500 C   0  0  1  0  0  3  0  0  0  0  0  0
  189.5640  176.7280  141.5850 C   0  0  0  0  0  0  0  0  0  0  0  0
  190.2650  175.7600  141.9760 O   0  0  0  0  0  0  0  0  0  0  0  0
  188.7790  177.4740  142.5240 N   0  0  0  0  0  2  0  0  0  0  0  0
  190.5430  176.6180  139.3030 C   0  0  0  0  0  3  0  0  0  0  0  0
  189.5500  177.8000  137.4410 C   0  0  0  0  0  0  0  0  0  0  0  0
  190.5450  176.9630  137.9520 C   0  0  0  0  0  3  0  0  0  0  0  0
  188.5510  177.9390  139.6530 C   0  0  0  0  0  3  0  0  0  0  0  0
  188.5470  178.2870  138.2960 C   0  0  0  0  0  3  0  0  0  0  0  0
  189.5520  177.0950  140.1670 C   0  0  0  0  0  0  0  0  0  0  0  0
  188.7080  177.5580  135.1280 C   0  0  0  0  0  1  0  0  0  0  0  0
  189.5800  178.1370  136.0800 O   0  0  0  0  0  0  0  0  0  0  0  0
  189.8680  177.8330  144.7060 C   0  0  1  0  0  3  0  0  0  0  0  0
  191.8610  177.4990  146.0410 O   0  0  0  0  0  0  0  0  0  0  0  0
  190.8800  176.8350  145.2780 C   0  0  1  0  0  3  0  0  0  0  0  0
  190.8220  176.8810  146.7550 C   0  0  1  0  0  3  0  0  0  0  0  0
  191.3180  175.5720  147.3390 C   0  0  0  0  0  2  0  0  0  0  0  0
  192.7990  175.6700  147.6170 C   0  0  0  0  0  2  0  0  0  0  0  0
  193.0080  176.1450  149.0400 C   0  0  0  0  0  1  0  0  0  0  0  0
  190.5570  178.7920  143.7820 C   0  0  0  0  0  3  0  0  0  0  0  0
  191.1100  179.7860  144.2280 O   0  0  0  0  0  0  0  0  0  0  0  0
  2  1  1  0  0  0  0
  3 10  1  6  0  0  0
  3  5  1  0  0  0  0
  4  3  1  0  0  0  0
  4  9  2  0  0  0  0
  5  6  1  0  0  0  0
  6  7  1  6  0  0  0
  8  2  1  6  0  0  0
  8  6  1  0  0  0  0
  9  8  1  0  0  0  0
 10 22  1  6  0  0  0
 11 12  2  0  0  0  0
 11 13  1  0  0  0  0
 13 10  1  0  0  0  0
 14 11  1  0  0  0  0
 15 14  1  0  0  0  0
 15 16  1  0  0  0  0
 17 14  1  0  0  0  0
 19 18  1  0  0  0  0
 19 17  1  0  0  0  0
 20 17  1  0  0  0  0
 21 20  1  0  0  0  0
 22 23  1  0  0  0  0
 24  1  1  1  0  0  0
 24 36  1  0  0  0  0
 25 26  2  0  0  0  0
 25 27  1  0  0  0  0
 27 24  1  0  0  0  0
 28 33  1  0  0  0  0
 29 30  1  0  0  0  0
 29 32  2  0  0  0  0
 30 28  2  0  0  0  0
 31 33  2  0  0  0  0
 32 31  1  0  0  0  0
 33 25  1  0  0  0  0
 34 35  1  0  0  0  0
 35 29  1  0  0  0  0
 36 43  1  6  0  0  0
 37 39  1  0  0  0  0
 38 36  1  6  0  0  0
 38 37  1  0  0  0  0
 38 39  1  0  0  0  0
 39 40  1  1  0  0  0
 40 41  1  0  0  0  0
 41 42  1  0  0  0  0
 43 44  2  0  0  0  0
M  END
>  <MODEL>
3

>  <REMARK>
 VINA RESULT:      -6.4      2.315      6.732
  Name = 
  18 active torsions:
  status: ('A' for Active; 'I' for Inactive)
    1  A    between atoms: C_1  and  C_28
    2  A    between atoms: C_6  and  C_26
    3  A    between atoms: C_6  and  C_37
    4  A    between atoms: C_8  and  C_27
    5  A    between atoms: C_8  and  C_31
    6  A    between atoms: C_9  and  C_43
    7  A    between atoms: C_11  and  O_20
    8  A    between atoms: C_11  and  N_35
    9  A    between atoms: C_11  and  O_41
   10  A    between atoms: C_14  and  C_29
   11  A    between atoms: C_16  and  N_35
   12  A    between atoms: O_17  and  C_25
   13  A    between atoms: N_18  and  C_31
   14  A    between atoms: C_21  and  C_29
   15  A    between atoms: N_22  and  C_28
   16  A    between atoms: C_27  and  C_34
   17  A    between atoms: C_28  and  C_30
   18  A    between atoms: C_29  and  C_31
                            x       y       z     vdW  Elec       q    Type
                         _______ _______ _______ _____ _____    ______ ____

>  <TORSDO>
F 18

$$$$
=
 OpenBabel10222415463D

 44 46  0  0  1  0  0  0  0  0999 V2000
  187.6360  177.3280  144.2210 C   0  0  0  0  0  2  0  0  0  0  0  0
  186.5860  177.4290  143.1300 C   0  0  0  0  0  2  0  0  0  0  0  0
  183.9710  177.9300  141.3170 C   0  0  1  0  0  3  0  0  0  0  0  0
  185.0100  178.9070  140.8230 C   0  0  0  0  0  3  0  0  0  0  0  0
  183.5190  178.2110  142.7620 C   0  0  0  0  0  2  0  0  0  0  0  0
  184.5950  178.8420  143.6660 C   0  0  2  0  0  3  0  0  0  0  0  0
  184.2230  180.1460  143.9650 O   0  0  0  0  0  1  0  0  0  0  0  0
  186.0100  178.8310  143.0670 C   0  0  2  0  0  3  0  0  0  0  0  0
  185.9760  179.3280  141.6450 C   0  0  0  0  0  3  0  0  0  0  0  0
  182.7760  177.7940  140.3620 C   0  0  2  0  0  3  0  0  0  0  0  0
  183.2180  176.2000  138.4360 C   0  0  0  0  0  0  0  0  0  0  0  0
  182.7510  175.2260  139.0810 O   0  0  0  0  0  0  0  0  0  0  0  0
  183.2460  177.5080  139.0090 N   0  0  0  0  0  2  0  0  0  0  0  0
  183.7150  175.9980  137.1160 N   0  0  0  0  0  0  0  0  0  0  0  0
  185.1410  175.8330  136.9170 C   0  0  0  0  0  2  0  0  0  0  0  0
  185.7560  177.1490  136.5020 C   0  0  0  0  0  1  0  0  0  0  0  0
  182.8110  175.7860  135.9790 C   0  0  0  0  0  3  0  0  0  0  0  0
  182.1140  177.8570  135.2920 C   0  0  0  0  0  1  0  0  0  0  0  0
  181.7190  176.6960  135.9750 O   0  0  0  0  0  0  0  0  0  0  0  0
  182.4040  174.4450  135.8780 O   0  0  0  0  0  0  0  0  0  0  0  0
  182.7800  174.0450  134.5940 C   0  0  0  0  0  1  0  0  0  0  0  0
  181.8730  179.0280  140.3700 C   0  0  0  0  0  2  0  0  0  0  0  0
  181.8270  179.6510  138.9900 C   0  0  0  0  0  1  0  0  0  0  0  0
  188.8430  176.5360  143.7110 C   0  0  1  0  0  3  0  0  0  0  0  0
  189.2650  177.7420  141.4930 C   0  0  0  0  0  0  0  0  0  0  0  0
  189.5240  178.8250  142.0790 O   0  0  0  0  0  0  0  0  0  0  0  0
  188.9060  176.5810  142.2530 N   0  0  0  0  0  2  0  0  0  0  0  0
  188.8860  178.7410  139.2500 C   0  0  0  0  0  3  0  0  0  0  0  0
  189.4320  177.5430  137.2210 C   0  0  0  0  0  0  0  0  0  0  0  0
  188.9380  178.6830  137.8580 C   0  0  0  0  0  3  0  0  0  0  0  0
  189.8250  176.5210  139.3910 C   0  0  0  0  0  3  0  0  0  0  0  0
  189.8810  176.4580  137.9930 C   0  0  0  0  0  3  0  0  0  0  0  0
  189.3280  177.6700  140.0320 C   0  0  0  0  0  0  0  0  0  0  0  0
  190.1690  176.5170  135.0940 C   0  0  0  0  0  1  0  0  0  0  0  0
  189.4660  177.5080  135.8200 O   0  0  0  0  0  0  0  0  0  0  0  0
  190.2130  176.8950  144.3190 C   0  0  1  0  0  3  0  0  0  0  0  0
  191.2370  177.4560  146.4410 O   0  0  0  0  0  0  0  0  0  0  0  0
  190.3390  176.5730  145.8110 C   0  0  1  0  0  3  0  0  0  0  0  0
  189.8700  177.7330  146.5970 C   0  0  1  0  0  3  0  0  0  0  0  0
  189.4160  177.2840  147.9740 C   0  0  0  0  0  2  0  0  0  0  0  0
  188.3640  178.2330  148.4950 C   0  0  0  0  0  2  0  0  0  0  0  0
  187.1740  178.2190  147.5580 C   0  0  0  0  0  1  0  0  0  0  0  0
  191.2830  176.1820  143.5460 C   0  0  0  0  0  3  0  0  0  0  0  0
  191.8810  175.2430  144.0490 O   0  0  0  0  0  0  0  0  0  0  0  0
  2  1  1  0  0  0  0
  3 10  1  6  0  0  0
  3  5  1  0  0  0  0
  4  3  1  0  0  0  0
  4  9  2  0  0  0  0
  5  6  1  0  0  0  0
  6  7  1  6  0  0  0
  8  2  1  6  0  0  0
  8  6  1  0  0  0  0
  9  8  1  0  0  0  0
 10 22  1  6  0  0  0
 11 13  1  0  0  0  0
 11 12  2  0  0  0  0
 13 10  1  0  0  0  0
 14 11  1  0  0  0  0
 15 14  1  0  0  0  0
 16 15  1  0  0  0  0
 17 14  1  0  0  0  0
 18 19  1  0  0  0  0
 19 17  1  0  0  0  0
 20 17  1  0  0  0  0
 21 20  1  0  0  0  0
 23 22  1  0  0  0  0
 24  1  1  1  0  0  0
 24 36  1  0  0  0  0
 25 26  2  0  0  0  0
 25 27  1  0  0  0  0
 27 24  1  0  0  0  0
 28 33  1  0  0  0  0
 29 30  1  0  0  0  0
 29 32  2  0  0  0  0
 30 28  2  0  0  0  0
 31 33  2  0  0  0  0
 32 31  1  0  0  0  0
 33 25  1  0  0  0  0
 34 35  1  0  0  0  0
 35 29  1  0  0  0  0
 36 43  1  6  0  0  0
 37 39  1  0  0  0  0
 38 36  1  6  0  0  0
 38 37  1  0  0  0  0
 38 39  1  0  0  0  0
 39 40  1  1  0  0  0
 40 41  1  0  0  0  0
 42 41  1  0  0  0  0
 43 44  2  0  0  0  0
M  END
>  <MODEL>
4

>  <REMARK>
 VINA RESULT:      -6.3      2.070      6.636
  Name = 
  18 active torsions:
  status: ('A' for Active; 'I' for Inactive)
    1  A    between atoms: C_1  and  C_28
    2  A    between atoms: C_6  and  C_26
    3  A    between atoms: C_6  and  C_37
    4  A    between atoms: C_8  and  C_27
    5  A    between atoms: C_8  and  C_31
    6  A    between atoms: C_9  and  C_43
    7  A    between atoms: C_11  and  O_20
    8  A    between atoms: C_11  and  N_35
    9  A    between atoms: C_11  and  O_41
   10  A    between atoms: C_14  and  C_29
   11  A    between atoms: C_16  and  N_35
   12  A    between atoms: O_17  and  C_25
   13  A    between atoms: N_18  and  C_31
   14  A    between atoms: C_21  and  C_29
   15  A    between atoms: N_22  and  C_28
   16  A    between atoms: C_27  and  C_34
   17  A    between atoms: C_28  and  C_30
   18  A    between atoms: C_29  and  C_31
                            x       y       z     vdW  Elec       q    Type
                         _______ _______ _______ _____ _____    ______ ____

>  <TORSDO>
F 18

$$$$
=
 OpenBabel10222415463D

 44 46  0  0  1  0  0  0  0  0999 V2000
  185.1170  178.5280  143.3330 C   0  0  0  0  0  2  0  0  0  0  0  0
  184.6350  177.9230  142.0270 C   0  0  0  0  0  2  0  0  0  0  0  0
  183.6160  177.0980  139.0840 C   0  0  1  0  0  3  0  0  0  0  0  0
  184.3620  178.3980  138.9150 C   0  0  0  0  0  3  0  0  0  0  0  0
  182.3360  177.2440  139.9280 C   0  0  0  0  0  2  0  0  0  0  0  0
  182.3930  178.3430  141.0070 C   0  0  2  0  0  3  0  0  0  0  0  0
  181.5230  179.3660  140.6530 O   0  0  0  0  0  1  0  0  0  0  0  0
  183.7970  178.9190  141.2490 C   0  0  2  0  0  3  0  0  0  0  0  0
  184.4540  179.2560  139.9360 C   0  0  0  0  0  3  0  0  0  0  0  0
  183.3420  176.3870  137.7510 C   0  0  2  0  0  3  0  0  0  0  0  0
  185.3120  176.3260  136.1510 C   0  0  0  0  0  0  0  0  0  0  0  0
  184.9390  177.3870  135.5860 O   0  0  0  0  0  0  0  0  0  0  0  0
  184.5710  175.7830  137.2440 N   0  0  0  0  0  2  0  0  0  0  0  0
  186.4910  175.6660  135.7000 N   0  0  0  0  0  0  0  0  0  0  0  0
  186.3680  174.5420  134.7940 C   0  0  0  0  0  2  0  0  0  0  0  0
  186.4010  173.2480  135.5730 C   0  0  0  0  0  1  0  0  0  0  0  0
  187.8290  176.1940  135.9960 C   0  0  0  0  0  3  0  0  0  0  0  0
  189.3080  174.8820  137.1530 C   0  0  0  0  0  1  0  0  0  0  0  0
  188.2830  175.8310  137.2930 O   0  0  0  0  0  0  0  0  0  0  0  0
  187.9090  177.5770  135.7580 O   0  0  0  0  0  0  0  0  0  0  0  0
  188.1900  178.1460  137.0020 C   0  0  0  0  0  1  0  0  0  0  0  0
  182.7250  177.3150  136.7050 C   0  0  0  0  0  2  0  0  0  0  0  0
  181.4350  176.7220  136.1750 C   0  0  0  0  0  1  0  0  0  0  0  0
  186.2200  177.6550  143.9370 C   0  0  1  0  0  3  0  0  0  0  0  0
  188.3030  176.6750  142.8180 C   0  0  0  0  0  0  0  0  0  0  0  0
  188.0230  175.5130  143.2120 O   0  0  0  0  0  0  0  0  0  0  0  0
  187.4510  177.7750  143.1630 N   0  0  0  0  0  2  0  0  0  0  0  0
  190.7560  177.0170  142.6170 C   0  0  0  0  0  3  0  0  0  0  0  0
  191.8160  177.3520  140.4690 C   0  0  0  0  0  0  0  0  0  0  0  0
  191.9040  177.2370  141.8590 C   0  0  0  0  0  3  0  0  0  0  0  0
  189.4120  177.0200  140.6100 C   0  0  0  0  0  3  0  0  0  0  0  0
  190.5630  177.2400  139.8430 C   0  0  0  0  0  3  0  0  0  0  0  0
  189.5020  176.9030  142.0090 C   0  0  0  0  0  0  0  0  0  0  0  0
  193.3970  176.7450  138.6660 C   0  0  0  0  0  1  0  0  0  0  0  0
  192.9860  177.5810  139.7320 O   0  0  0  0  0  0  0  0  0  0  0  0
  186.5090  177.8470  145.4390 C   0  0  1  0  0  3  0  0  0  0  0  0
  188.2040  178.1580  147.1400 O   0  0  0  0  0  0  0  0  0  0  0  0
  187.9650  178.2060  145.7540 C   0  0  1  0  0  3  0  0  0  0  0  0
  188.6210  177.0460  146.3920 C   0  0  1  0  0  3  0  0  0  0  0  0
  190.1230  177.1120  146.1810 C   0  0  0  0  0  2  0  0  0  0  0  0
  190.8290  176.9190  147.5020 C   0  0  0  0  0  2  0  0  0  0  0  0
  191.8690  175.8280  147.3560 C   0  0  0  0  0  1  0  0  0  0  0  0
  185.5910  178.9060  145.9730 C   0  0  0  0  0  3  0  0  0  0  0  0
  185.0250  178.7450  147.0440 O   0  0  0  0  0  0  0  0  0  0  0  0
  2  1  1  0  0  0  0
  3 10  1  6  0  0  0
  3  5  1  0  0  0  0
  4  3  1  0  0  0  0
  4  9  2  0  0  0  0
  5  6  1  0  0  0  0
  6  7  1  6  0  0  0
  6  8  1  0  0  0  0
  8  2  1  6  0  0  0
  9  8  1  0  0  0  0
 10 22  1  6  0  0  0
 11 13  1  0  0  0  0
 12 11  2  0  0  0  0
 13 10  1  0  0  0  0
 14 17  1  0  0  0  0
 14 11  1  0  0  0  0
 15 16  1  0  0  0  0
 15 14  1  0  0  0  0
 17 19  1  0  0  0  0
 18 19  1  0  0  0  0
 20 17  1  0  0  0  0
 20 21  1  0  0  0  0
 23 22  1  0  0  0  0
 24  1  1  6  0  0  0
 24 36  1  0  0  0  0
 25 27  1  0  0  0  0
 25 26  2  0  0  0  0
 27 24  1  0  0  0  0
 29 30  1  0  0  0  0
 30 28  2  0  0  0  0
 31 33  2  0  0  0  0
 32 29  2  0  0  0  0
 32 31  1  0  0  0  0
 33 28  1  0  0  0  0
 33 25  1  0  0  0  0
 34 35  1  0  0  0  0
 35 29  1  0  0  0  0
 36 43  1  6  0  0  0
 38 36  1  1  0  0  0
 38 39  1  0  0  0  0
 38 37  1  0  0  0  0
 39 40  1  6  0  0  0
 39 37  1  0  0  0  0
 40 41  1  0  0  0  0
 42 41  1  0  0  0  0
 43 44  2  0  0  0  0
M  END
>  <MODEL>
5

>  <REMARK>
 VINA RESULT:      -6.2      2.179      6.303
  Name = 
  18 active torsions:
  status: ('A' for Active; 'I' for Inactive)
    1  A    between atoms: C_1  and  C_28
    2  A    between atoms: C_6  and  C_26
    3  A    between atoms: C_6  and  C_37
    4  A    between atoms: C_8  and  C_27
    5  A    between atoms: C_8  and  C_31
    6  A    between atoms: C_9  and  C_43
    7  A    between atoms: C_11  and  O_20
    8  A    between atoms: C_11  and  N_35
    9  A    between atoms: C_11  and  O_41
   10  A    between atoms: C_14  and  C_29
   11  A    between atoms: C_16  and  N_35
   12  A    between atoms: O_17  and  C_25
   13  A    between atoms: N_18  and  C_31
   14  A    between atoms: C_21  and  C_29
   15  A    between atoms: N_22  and  C_28
   16  A    between atoms: C_27  and  C_34
   17  A    between atoms: C_28  and  C_30
   18  A    between atoms: C_29  and  C_31
                            x       y       z     vdW  Elec       q    Type
                         _______ _______ _______ _____ _____    ______ ____

>  <TORSDO>
F 18

$$$$
=
 OpenBabel10222415463D

 44 46  0  0  1  0  0  0  0  0999 V2000
  188.5130  177.1540  140.5200 C   0  0  0  0  0  2  0  0  0  0  0  0
  189.3390  177.8050  139.4250 C   0  0  0  0  0  2  0  0  0  0  0  0
  188.9330  176.0240  136.7720 C   0  0  1  0  0  3  0  0  0  0  0  0
  189.4300  177.3660  136.2970 C   0  0  0  0  0  3  0  0  0  0  0  0
  187.5410  176.0940  137.4270 C   0  0  0  0  0  2  0  0  0  0  0  0
  187.2290  177.4220  138.1430 C   0  0  2  0  0  3  0  0  0  0  0  0
  186.2370  178.0910  137.4370 O   0  0  0  0  0  1  0  0  0  0  0  0
  188.4450  178.3440  138.3250 C   0  0  2  0  0  3  0  0  0  0  0  0
  189.2060  178.4610  137.0300 C   0  0  0  0  0  3  0  0  0  0  0  0
  188.9960  174.9420  135.6840 C   0  0  2  0  0  3  0  0  0  0  0  0
  187.2180  173.2040  136.2010 C   0  0  0  0  0  0  0  0  0  0  0  0
  187.9460  172.6580  137.0700 O   0  0  0  0  0  0  0  0  0  0  0  0
  187.6740  174.3530  135.4860 N   0  0  0  0  0  2  0  0  0  0  0  0
  185.9220  172.6760  135.9350 N   0  0  0  0  0  0  0  0  0  0  0  0
  185.7400  171.7920  134.8020 C   0  0  0  0  0  2  0  0  0  0  0  0
  186.5070  170.5090  135.0230 C   0  0  0  0  0  1  0  0  0  0  0  0
  184.8060  172.8700  136.8700 C   0  0  0  0  0  3  0  0  0  0  0  0
  182.7970  171.8460  136.4720 C   0  0  0  0  0  1  0  0  0  0  0  0
  184.0540  171.6820  137.0730 O   0  0  0  0  0  0  0  0  0  0  0  0
  184.0060  173.9670  136.5090 O   0  0  0  0  0  0  0  0  0  0  0  0
  184.0530  174.8310  137.6050 C   0  0  0  0  0  1  0  0  0  0  0  0
  190.0290  173.8580  135.9920 C   0  0  0  0  0  2  0  0  0  0  0  0
  190.9510  174.3140  137.1040 C   0  0  0  0  0  1  0  0  0  0  0  0
  188.5540  178.0150  141.7840 C   0  0  1  0  0  3  0  0  0  0  0  0
  186.1140  178.7900  141.7660 C   0  0  0  0  0  0  0  0  0  0  0  0
  186.2580  179.3660  140.6570 O   0  0  0  0  0  0  0  0  0  0  0  0
  187.2240  178.1190  142.3770 N   0  0  0  0  0  2  0  0  0  0  0  0
  184.7280  178.9910  143.8180 C   0  0  0  0  0  3  0  0  0  0  0  0
  182.3160  178.8330  143.7380 C   0  0  0  0  0  0  0  0  0  0  0  0
  183.4940  179.0060  144.4680 C   0  0  0  0  0  3  0  0  0  0  0  0
  183.6250  178.6320  141.7000 C   0  0  0  0  0  3  0  0  0  0  0  0
  182.3830  178.6480  142.3460 C   0  0  0  0  0  3  0  0  0  0  0  0
  184.8110  178.8070  142.4350 C   0  0  0  0  0  0  0  0  0  0  0  0
  179.9440  178.1600  143.9440 C   0  0  0  0  0  1  0  0  0  0  0  0
  181.0890  178.8450  144.4170 O   0  0  0  0  0  0  0  0  0  0  0  0
  189.5900  177.6210  142.8570 C   0  0  1  0  0  3  0  0  0  0  0  0
  189.9730  176.7790  145.0940 O   0  0  0  0  0  0  0  0  0  0  0  0
  188.9760  177.0490  144.1380 C   0  0  1  0  0  3  0  0  0  0  0  0
  189.2530  177.9720  145.2600 C   0  0  1  0  0  3  0  0  0  0  0  0
  188.2170  177.7900  146.3540 C   0  0  0  0  0  2  0  0  0  0  0  0
  188.9100  177.6650  147.6900 C   0  0  0  0  0  2  0  0  0  0  0  0
  187.9420  178.0440  148.7910 C   0  0  0  0  0  1  0  0  0  0  0  0
  190.5460  176.6330  142.2590 C   0  0  0  0  0  3  0  0  0  0  0  0
  190.5060  175.4590  142.5950 O   0  0  0  0  0  0  0  0  0  0  0  0
  2  1  1  0  0  0  0
  3 10  1  6  0  0  0
  3  5  1  0  0  0  0
  4  3  1  0  0  0  0
  4  9  2  0  0  0  0
  5  6  1  0  0  0  0
  6  7  1  6  0  0  0
  6  8  1  0  0  0  0
  8  2  1  1  0  0  0
  9  8  1  0  0  0  0
 10 22  1  1  0  0  0
 11 12  2  0  0  0  0
 13 10  1  0  0  0  0
 13 11  1  0  0  0  0
 14 11  1  0  0  0  0
 14 17  1  0  0  0  0
 15 16  1  0  0  0  0
 15 14  1  0  0  0  0
 17 19  1  0  0  0  0
 18 19  1  0  0  0  0
 20 17  1  0  0  0  0
 20 21  1  0  0  0  0
 22 23  1  0  0  0  0
 24  1  1  6  0  0  0
 24 27  1  0  0  0  0
 24 36  1  0  0  0  0
 25 27  1  0  0  0  0
 25 33  1  0  0  0  0
 26 25  2  0  0  0  0
 28 30  1  0  0  0  0
 29 35  1  0  0  0  0
 29 30  2  0  0  0  0
 31 32  2  0  0  0  0
 31 33  1  0  0  0  0
 32 29  1  0  0  0  0
 33 28  2  0  0  0  0
 34 35  1  0  0  0  0
 36 43  1  6  0  0  0
 37 39  1  0  0  0  0
 38 36  1  6  0  0  0
 38 37  1  0  0  0  0
 38 39  1  0  0  0  0
 39 40  1  1  0  0  0
 40 41  1  0  0  0  0
 41 42  1  0  0  0  0
 43 44  2  0  0  0  0
M  END
>  <MODEL>
6

>  <REMARK>
 VINA RESULT:      -5.9      2.432      5.748
  Name = 
  18 active torsions:
  status: ('A' for Active; 'I' for Inactive)
    1  A    between atoms: C_1  and  C_28
    2  A    between atoms: C_6  and  C_26
    3  A    between atoms: C_6  and  C_37
    4  A    between atoms: C_8  and  C_27
    5  A    between atoms: C_8  and  C_31
    6  A    between atoms: C_9  and  C_43
    7  A    between atoms: C_11  and  O_20
    8  A    between atoms: C_11  and  N_35
    9  A    between atoms: C_11  and  O_41
   10  A    between atoms: C_14  and  C_29
   11  A    between atoms: C_16  and  N_35
   12  A    between atoms: O_17  and  C_25
   13  A    between atoms: N_18  and  C_31
   14  A    between atoms: C_21  and  C_29
   15  A    between atoms: N_22  and  C_28
   16  A    between atoms: C_27  and  C_34
   17  A    between atoms: C_28  and  C_30
   18  A    between atoms: C_29  and  C_31
                            x       y       z     vdW  Elec       q    Type
                         _______ _______ _______ _____ _____    ______ ____

>  <TORSDO>
F 18

$$$$
=
 OpenBabel10222415463D

 44 46  0  0  1  0  0  0  0  0999 V2000
  187.1140  177.1240  144.6850 C   0  0  0  0  0  2  0  0  0  0  0  0
  186.2090  177.3390  143.4860 C   0  0  0  0  0  2  0  0  0  0  0  0
  184.1090  178.1370  141.1780 C   0  0  1  0  0  3  0  0  0  0  0  0
  185.1900  179.1890  141.1350 C   0  0  0  0  0  3  0  0  0  0  0  0
  183.2970  178.1610  142.4860 C   0  0  0  0  0  2  0  0  0  0  0  0
  184.0820  178.6290  143.7260 C   0  0  2  0  0  3  0  0  0  0  0  0
  183.5860  179.8600  144.1350 O   0  0  0  0  0  1  0  0  0  0  0  0
  185.6000  178.7280  143.5140 C   0  0  2  0  0  3  0  0  0  0  0  0
  185.8990  179.4650  142.2340 C   0  0  0  0  0  3  0  0  0  0  0  0
  183.1980  178.1650  139.9420 C   0  0  2  0  0  3  0  0  0  0  0  0
  181.2610  176.6940  139.2100 C   0  0  0  0  0  0  0  0  0  0  0  0
  180.5890  177.6920  138.8410 O   0  0  0  0  0  0  0  0  0  0  0  0
  182.5730  176.8590  139.7510 N   0  0  0  0  0  2  0  0  0  0  0  0
  180.7120  175.3870  139.0750 N   0  0  0  0  0  0  0  0  0  0  0  0
  180.0950  174.7590  140.2270 C   0  0  0  0  0  2  0  0  0  0  0  0
  179.2710  175.7740  140.9840 C   0  0  0  0  0  1  0  0  0  0  0  0
  180.6070  174.7280  137.7670 C   0  0  0  0  0  3  0  0  0  0  0  0
  178.9470  175.5930  136.4480 C   0  0  0  0  0  1  0  0  0  0  0  0
  180.3230  175.6440  136.7180 O   0  0  0  0  0  0  0  0  0  0  0  0
  179.7170  173.6420  137.7990 O   0  0  0  0  0  0  0  0  0  0  0  0
  180.4970  172.5210  137.5040 C   0  0  0  0  0  1  0  0  0  0  0  0
  183.9360  178.5990  138.6760 C   0  0  0  0  0  2  0  0  0  0  0  0
  184.5420  177.3950  137.9840 C   0  0  0  0  0  1  0  0  0  0  0  0
  188.5760  177.3070  144.2740 C   0  0  1  0  0  3  0  0  0  0  0  0
  189.4560  176.8030  141.9240 C   0  0  0  0  0  0  0  0  0  0  0  0
  190.1390  175.8310  142.3380 O   0  0  0  0  0  0  0  0  0  0  0  0
  188.6760  177.5790  142.8430 N   0  0  0  0  0  2  0  0  0  0  0  0
  188.4080  177.8750  139.9420 C   0  0  0  0  0  3  0  0  0  0  0  0
  189.4510  177.8010  137.7610 C   0  0  0  0  0  0  0  0  0  0  0  0
  188.3990  178.2040  138.5870 C   0  0  0  0  0  3  0  0  0  0  0  0
  190.5200  176.7370  139.6680 C   0  0  0  0  0  3  0  0  0  0  0  0
  190.5180  177.0660  138.3070 C   0  0  0  0  0  3  0  0  0  0  0  0
  189.4620  177.1450  140.4990 C   0  0  0  0  0  0  0  0  0  0  0  0
  188.8640  177.2850  135.4140 C   0  0  0  0  0  1  0  0  0  0  0  0
  189.4130  178.1380  136.4010 O   0  0  0  0  0  0  0  0  0  0  0  0
  189.3960  178.3400  145.0740 C   0  0  1  0  0  3  0  0  0  0  0  0
  189.2440  176.6050  146.7570 O   0  0  0  0  0  0  0  0  0  0  0  0
  189.7010  177.9150  146.5140 C   0  0  1  0  0  3  0  0  0  0  0  0
  190.6150  176.7530  146.4910 C   0  0  1  0  0  3  0  0  0  0  0  0
  191.3930  176.6750  147.7910 C   0  0  0  0  0  2  0  0  0  0  0  0
  192.4720  175.6250  147.6720 C   0  0  0  0  0  2  0  0  0  0  0  0
  192.4310  175.0230  146.2820 C   0  0  0  0  0  1  0  0  0  0  0  0
  190.6730  178.6150  144.3370 C   0  0  0  0  0  3  0  0  0  0  0  0
  190.9370  179.7490  143.9690 O   0  0  0  0  0  0  0  0  0  0  0  0
  2  1  1  0  0  0  0
  3 10  1  6  0  0  0
  3  5  1  0  0  0  0
  4  3  1  0  0  0  0
  4  9  2  0  0  0  0
  5  6  1  0  0  0  0
  6  7  1  6  0  0  0
  8  2  1  6  0  0  0
  8  6  1  0  0  0  0
  9  8  1  0  0  0  0
 10 22  1  6  0  0  0
 11 13  1  0  0  0  0
 12 11  2  0  0  0  0
 13 10  1  0  0  0  0
 14 11  1  0  0  0  0
 14 15  1  0  0  0  0
 15 16  1  0  0  0  0
 17 20  1  0  0  0  0
 17 14  1  0  0  0  0
 18 19  1  0  0  0  0
 19 17  1  0  0  0  0
 21 20  1  0  0  0  0
 23 22  1  0  0  0  0
 24  1  1  1  0  0  0
 24 36  1  0  0  0  0
 25 26  2  0  0  0  0
 25 27  1  0  0  0  0
 27 24  1  0  0  0  0
 28 33  1  0  0  0  0
 29 32  2  0  0  0  0
 29 30  1  0  0  0  0
 30 28  2  0  0  0  0
 31 33  2  0  0  0  0
 32 31  1  0  0  0  0
 33 25  1  0  0  0  0
 34 35  1  0  0  0  0
 35 29  1  0  0  0  0
 36 43  1  6  0  0  0
 38 36  1  6  0  0  0
 38 37  1  0  0  0  0
 39 38  1  0  0  0  0
 39 37  1  0  0  0  0
 39 40  1  1  0  0  0
 41 40  1  0  0  0  0
 42 41  1  0  0  0  0
 44 43  2  0  0  0  0
M  END
>  <MODEL>
7

>  <REMARK>
 VINA RESULT:      -5.9      2.273      7.297
  Name = 
  18 active torsions:
  status: ('A' for Active; 'I' for Inactive)
    1  A    between atoms: C_1  and  C_28
    2  A    between atoms: C_6  and  C_26
    3  A    between atoms: C_6  and  C_37
    4  A    between atoms: C_8  and  C_27
    5  A    between atoms: C_8  and  C_31
    6  A    between atoms: C_9  and  C_43
    7  A    between atoms: C_11  and  O_20
    8  A    between atoms: C_11  and  N_35
    9  A    between atoms: C_11  and  O_41
   10  A    between atoms: C_14  and  C_29
   11  A    between atoms: C_16  and  N_35
   12  A    between atoms: O_17  and  C_25
   13  A    between atoms: N_18  and  C_31
   14  A    between atoms: C_21  and  C_29
   15  A    between atoms: N_22  and  C_28
   16  A    between atoms: C_27  and  C_34
   17  A    between atoms: C_28  and  C_30
   18  A    between atoms: C_29  and  C_31
                            x       y       z     vdW  Elec       q    Type
                         _______ _______ _______ _____ _____    ______ ____

>  <TORSDO>
F 18

$$$$
=
 OpenBabel10222415463D

 44 46  0  0  1  0  0  0  0  0999 V2000
  189.4030  176.2640  142.7940 C   0  0  0  0  0  2  0  0  0  0  0  0
  189.6640  176.1240  141.3050 C   0  0  0  0  0  2  0  0  0  0  0  0
  190.5480  176.2260  138.2090 C   0  0  1  0  0  3  0  0  0  0  0  0
  191.6310  176.9480  138.9720 C   0  0  0  0  0  3  0  0  0  0  0  0
  189.1890  176.9480  138.2640 C   0  0  0  0  0  2  0  0  0  0  0  0
  188.9340  177.7510  139.5540 C   0  0  2  0  0  3  0  0  0  0  0  0
  188.9300  179.1050  139.2470 O   0  0  0  0  0  1  0  0  0  0  0  0
  189.9430  177.4770  140.6790 C   0  0  2  0  0  3  0  0  0  0  0  0
  191.3490  177.5330  140.1410 C   0  0  0  0  0  3  0  0  0  0  0  0
  190.9560  175.8870  136.7680 C   0  0  2  0  0  3  0  0  0  0  0  0
  189.4200  173.8800  136.5210 C   0  0  0  0  0  0  0  0  0  0  0  0
  189.9250  173.3180  137.5270 O   0  0  0  0  0  0  0  0  0  0  0  0
  189.8760  175.1660  136.0990 N   0  0  0  0  0  2  0  0  0  0  0  0
  188.3760  173.2310  135.8020 N   0  0  0  0  0  0  0  0  0  0  0  0
  188.7010  172.4940  134.5970 C   0  0  0  0  0  2  0  0  0  0  0  0
  189.1500  171.0970  134.9550 C   0  0  0  0  0  1  0  0  0  0  0  0
  187.0110  173.1490  136.3370 C   0  0  0  0  0  3  0  0  0  0  0  0
  185.1200  171.9700  135.8080 C   0  0  0  0  0  1  0  0  0  0  0  0
  186.0430  172.9090  135.3250 O   0  0  0  0  0  0  0  0  0  0  0  0
  186.6960  174.2580  137.1410 O   0  0  0  0  0  0  0  0  0  0  0  0
  186.3150  175.2600  136.2460 C   0  0  0  0  0  1  0  0  0  0  0  0
  192.2600  175.0940  136.6960 C   0  0  0  0  0  2  0  0  0  0  0  0
  193.3870  175.9820  136.2090 C   0  0  0  0  0  1  0  0  0  0  0  0
  189.2670  177.7430  143.1620 C   0  0  1  0  0  3  0  0  0  0  0  0
  186.7980  177.6040  143.8240 C   0  0  0  0  0  0  0  0  0  0  0  0
  187.0180  176.6540  144.6190 O   0  0  0  0  0  0  0  0  0  0  0  0
  187.8750  178.1700  143.0640 N   0  0  0  0  0  2  0  0  0  0  0  0
  184.7230  178.5760  144.7850 C   0  0  0  0  0  3  0  0  0  0  0  0
  182.8230  179.1320  143.3960 C   0  0  0  0  0  0  0  0  0  0  0  0
  183.4280  179.0740  144.6540 C   0  0  0  0  0  3  0  0  0  0  0  0
  184.8300  178.1860  142.4040 C   0  0  0  0  0  3  0  0  0  0  0  0
  183.5300  178.6880  142.2660 C   0  0  0  0  0  3  0  0  0  0  0  0
  185.4390  178.1290  143.6710 C   0  0  0  0  0  0  0  0  0  0  0  0
  180.3820  178.9030  143.7240 C   0  0  0  0  0  1  0  0  0  0  0  0
  181.5170  179.6310  143.2940 O   0  0  0  0  0  0  0  0  0  0  0  0
  189.8670  178.1770  144.5150 C   0  0  1  0  0  3  0  0  0  0  0  0
  190.9040  177.1150  146.4280 O   0  0  0  0  0  0  0  0  0  0  0  0
  189.7540  177.1190  145.6170 C   0  0  1  0  0  3  0  0  0  0  0  0
  189.7810  177.7880  146.9340 C   0  0  1  0  0  3  0  0  0  0  0  0
  189.0980  176.9210  147.9760 C   0  0  0  0  0  2  0  0  0  0  0  0
  187.9650  177.6920  148.6110 C   0  0  0  0  0  2  0  0  0  0  0  0
  187.1680  178.3890  147.5280 C   0  0  0  0  0  1  0  0  0  0  0  0
  191.3050  178.5490  144.3050 C   0  0  0  0  0  3  0  0  0  0  0  0
  191.6370  179.7240  144.2770 O   0  0  0  0  0  0  0  0  0  0  0  0
  2  1  1  0  0  0  0
  3 10  1  6  0  0  0
  3  5  1  0  0  0  0
  3  4  1  0  0  0  0
  4  9  2  0  0  0  0
  5  6  1  0  0  0  0
  6  7  1  6  0  0  0
  6  8  1  0  0  0  0
  8  2  1  6  0  0  0
  9  8  1  0  0  0  0
 10 22  1  1  0  0  0
 11 12  2  0  0  0  0
 13 11  1  0  0  0  0
 13 10  1  0  0  0  0
 14 17  1  0  0  0  0
 14 11  1  0  0  0  0
 15 16  1  0  0  0  0
 15 14  1  0  0  0  0
 17 20  1  0  0  0  0
 19 18  1  0  0  0  0
 19 17  1  0  0  0  0
 21 20  1  0  0  0  0
 23 22  1  0  0  0  0
 24  1  1  1  0  0  0
 24 36  1  0  0  0  0
 25 26  2  0  0  0  0
 27 24  1  0  0  0  0
 27 25  1  0  0  0  0
 29 30  2  0  0  0  0
 30 28  1  0  0  0  0
 31 33  1  0  0  0  0
 32 31  2  0  0  0  0
 32 29  1  0  0  0  0
 33 25  1  0  0  0  0
 33 28  2  0  0  0  0
 35 29  1  0  0  0  0
 35 34  1  0  0  0  0
 36 43  1  6  0  0  0
 37 39  1  0  0  0  0
 38 36  1  6  0  0  0
 38 37  1  0  0  0  0
 38 39  1  0  0  0  0
 39 40  1  1  0  0  0
 40 41  1  0  0  0  0
 42 41  1  0  0  0  0
 44 43  2  0  0  0  0
M  END
>  <MODEL>
8

>  <REMARK>
 VINA RESULT:      -5.8      2.445      5.071
  Name = 
  18 active torsions:
  status: ('A' for Active; 'I' for Inactive)
    1  A    between atoms: C_1  and  C_28
    2  A    between atoms: C_6  and  C_26
    3  A    between atoms: C_6  and  C_37
    4  A    between atoms: C_8  and  C_27
    5  A    between atoms: C_8  and  C_31
    6  A    between atoms: C_9  and  C_43
    7  A    between atoms: C_11  and  O_20
    8  A    between atoms: C_11  and  N_35
    9  A    between atoms: C_11  and  O_41
   10  A    between atoms: C_14  and  C_29
   11  A    between atoms: C_16  and  N_35
   12  A    between atoms: O_17  and  C_25
   13  A    between atoms: N_18  and  C_31
   14  A    between atoms: C_21  and  C_29
   15  A    between atoms: N_22  and  C_28
   16  A    between atoms: C_27  and  C_34
   17  A    between atoms: C_28  and  C_30
   18  A    between atoms: C_29  and  C_31
                            x       y       z     vdW  Elec       q    Type
                         _______ _______ _______ _____ _____    ______ ____

>  <TORSDO>
F 18

$$$$
=
 OpenBabel10222415463D

 44 46  0  0  1  0  0  0  0  0999 V2000
  185.0380  177.2430  136.6580 C   0  0  0  0  0  2  0  0  0  0  0  0
  186.1300  177.9440  137.4460 C   0  0  0  0  0  2  0  0  0  0  0  0
  188.9450  177.0960  138.7630 C   0  0  1  0  0  3  0  0  0  0  0  0
  189.1170  178.5220  138.3030 C   0  0  0  0  0  3  0  0  0  0  0  0
  188.7300  176.1090  137.6010 C   0  0  0  0  0  2  0  0  0  0  0  0
  188.0140  176.7010  136.3720 C   0  0  2  0  0  3  0  0  0  0  0  0
  188.9140  176.7710  135.3170 O   0  0  0  0  0  1  0  0  0  0  0  0
  187.3890  178.0840  136.6110 C   0  0  2  0  0  3  0  0  0  0  0  0
  188.3800  178.9920  137.2910 C   0  0  0  0  0  3  0  0  0  0  0  0
  190.0650  176.6310  139.7060 C   0  0  2  0  0  3  0  0  0  0  0  0
  189.9740  176.6710  142.2430 C   0  0  0  0  0  0  0  0  0  0  0  0
  190.0850  175.4200  142.3080 O   0  0  0  0  0  0  0  0  0  0  0  0
  189.9720  177.3380  140.9800 N   0  0  0  0  0  2  0  0  0  0  0  0
  189.8580  177.4310  143.4420 N   0  0  0  0  0  0  0  0  0  0  0  0
  188.5440  177.8440  143.8910 C   0  0  0  0  0  2  0  0  0  0  0  0
  187.8990  176.7320  144.6840 C   0  0  0  0  0  1  0  0  0  0  0  0
  191.0130  177.6630  144.3190 C   0  0  0  0  0  3  0  0  0  0  0  0
  191.5810  179.8820  144.3200 C   0  0  0  0  0  1  0  0  0  0  0  0
  191.9130  178.6260  143.7900 O   0  0  0  0  0  0  0  0  0  0  0  0
  191.6470  176.4620  144.6770 O   0  0  0  0  0  0  0  0  0  0  0  0
  191.7130  176.4840  146.0710 C   0  0  0  0  0  1  0  0  0  0  0  0
  191.4560  176.8000  139.0950 C   0  0  0  0  0  2  0  0  0  0  0  0
  192.3750  177.5030  140.0730 C   0  0  0  0  0  1  0  0  0  0  0  0
  183.8250  176.9960  137.5580 C   0  0  1  0  0  3  0  0  0  0  0  0
  183.2390  177.2980  140.0320 C   0  0  0  0  0  0  0  0  0  0  0  0
  182.2690  176.5010  139.9470 O   0  0  0  0  0  0  0  0  0  0  0  0
  184.0330  177.5910  138.8750 N   0  0  0  0  0  2  0  0  0  0  0  0
  184.8820  178.1710  141.6780 C   0  0  0  0  0  3  0  0  0  0  0  0
  184.1780  179.1330  143.7830 C   0  0  0  0  0  0  0  0  0  0  0  0
  185.1960  178.7680  142.8990 C   0  0  0  0  0  3  0  0  0  0  0  0
  182.5290  178.2950  142.2060 C   0  0  0  0  0  3  0  0  0  0  0  0
  182.8380  178.8970  143.4320 C   0  0  0  0  0  3  0  0  0  0  0  0
  183.5540  177.9300  141.3150 C   0  0  0  0  0  0  0  0  0  0  0  0
  185.1580  179.0120  146.0510 C   0  0  0  0  0  1  0  0  0  0  0  0
  184.5220  179.7250  145.0060 O   0  0  0  0  0  0  0  0  0  0  0  0
  182.4500  177.4090  136.9950 C   0  0  1  0  0  3  0  0  0  0  0  0
  181.0390  179.2500  136.3000 O   0  0  0  0  0  0  0  0  0  0  0  0
  182.1720  178.9140  137.0650 C   0  0  1  0  0  3  0  0  0  0  0  0
  180.8480  179.1330  137.6850 C   0  0  1  0  0  3  0  0  0  0  0  0
  180.7840  180.5160  138.3070 C   0  0  0  0  0  2  0  0  0  0  0  0
  179.7100  181.3280  137.6230 C   0  0  0  0  0  2  0  0  0  0  0  0
  179.2730  182.4500  138.5420 C   0  0  0  0  0  1  0  0  0  0  0  0
  182.3500  176.9330  135.5760 C   0  0  0  0  0  3  0  0  0  0  0  0
  181.5710  176.0400  135.2810 O   0  0  0  0  0  0  0  0  0  0  0  0
  1  2  1  0  0  0  0
  3 10  1  6  0  0  0
  4  3  1  0  0  0  0
  5  3  1  0  0  0  0
  6  7  1  6  0  0  0
  6  8  1  0  0  0  0
  6  5  1  0  0  0  0
  8  9  1  0  0  0  0
  8  2  1  1  0  0  0
  9  4  2  0  0  0  0
 10 22  1  6  0  0  0
 10 13  1  0  0  0  0
 11 12  2  0  0  0  0
 11 14  1  0  0  0  0
 13 11  1  0  0  0  0
 14 15  1  0  0  0  0
 14 17  1  0  0  0  0
 15 16  1  0  0  0  0
 17 20  1  0  0  0  0
 19 17  1  0  0  0  0
 19 18  1  0  0  0  0
 20 21  1  0  0  0  0
 22 23  1  0  0  0  0
 24  1  1  6  0  0  0
 24 27  1  0  0  0  0
 25 33  1  0  0  0  0
 26 25  2  0  0  0  0
 27 25  1  0  0  0  0
 28 30  1  0  0  0  0
 29 35  1  0  0  0  0
 30 29  2  0  0  0  0
 31 32  2  0  0  0  0
 32 29  1  0  0  0  0
 33 28  2  0  0  0  0
 33 31  1  0  0  0  0
 35 34  1  0  0  0  0
 36 43  1  6  0  0  0
 36 24  1  0  0  0  0
 37 38  1  0  0  0  0
 37 39  1  0  0  0  0
 38 36  1  6  0  0  0
 38 39  1  0  0  0  0
 39 40  1  1  0  0  0
 41 40  1  0  0  0  0
 41 42  1  0  0  0  0
 44 43  2  0  0  0  0
M  END
>  <MODEL>
9

>  <REMARK>
 VINA RESULT:      -5.8      2.545      7.617
  Name = 
  18 active torsions:
  status: ('A' for Active; 'I' for Inactive)
    1  A    between atoms: C_1  and  C_28
    2  A    between atoms: C_6  and  C_26
    3  A    between atoms: C_6  and  C_37
    4  A    between atoms: C_8  and  C_27
    5  A    between atoms: C_8  and  C_31
    6  A    between atoms: C_9  and  C_43
    7  A    between atoms: C_11  and  O_20
    8  A    between atoms: C_11  and  N_35
    9  A    between atoms: C_11  and  O_41
   10  A    between atoms: C_14  and  C_29
   11  A    between atoms: C_16  and  N_35
   12  A    between atoms: O_17  and  C_25
   13  A    between atoms: N_18  and  C_31
   14  A    between atoms: C_21  and  C_29
   15  A    between atoms: N_22  and  C_28
   16  A    between atoms: C_27  and  C_34
   17  A    between atoms: C_28  and  C_30
   18  A    between atoms: C_29  and  C_31
                            x       y       z     vdW  Elec       q    Type
                         _______ _______ _______ _____ _____    ______ ____

>  <TORSDO>
F 18

$$$$
