=
 OpenBabel10222417033D

 55 59  0  0  1  0  0  0  0  0999 V2000
  192.3970  177.2700  139.4670 C   0  0  2  0  0  3  0  0  0  0  0  0
  191.3380  176.4290  140.0740 N   0  0  2  0  0  0  0  0  0  0  0  0
  190.3360  175.9320  139.1040 C   0  0  0  0  0  2  0  0  0  0  0  0
  192.4760  175.7900  137.3240 C   0  0  2  0  0  3  0  0  0  0  0  0
  191.2390  176.5200  136.7680 C   0  0  0  0  0  2  0  0  0  0  0  0
  193.2620  176.5100  138.4430 C   0  0  0  0  0  2  0  0  0  0  0  0
  193.2410  177.7700  140.4500 F   0  0  0  0  0  0  0  0  0  0  0  0
  190.2130  176.8420  137.8650 C   0  0  1  0  0  3  0  0  0  0  0  0
  184.1730  174.9610  136.1580 C   0  0  0  0  0  0  0  0  0  0  0  0
  187.1930  178.5610  136.4200 C   0  0  0  0  0  3  0  0  0  0  0  0
  186.0440  178.0060  137.1970 C   0  0  0  0  0  2  0  0  0  0  0  0
  188.8150  176.9180  137.3570 C   0  0  0  0  0  0  0  0  0  0  0  0
  184.5350  176.2490  136.3990 N   0  0  0  0  0  0  0  0  0  0  0  0
  186.7550  175.5820  137.0120 C   0  0  0  0  0  0  0  0  0  0  0  0
  186.3940  174.2520  136.7770 C   0  0  0  0  0  3  0  0  0  0  0  0
  185.7850  176.5870  136.8200 C   0  0  0  0  0  0  0  0  0  0  0  0
  188.0860  175.8410  137.4860 N   0  0  0  0  0  0  0  0  0  0  0  0
  188.4290  178.0800  136.5340 C   0  0  0  0  0  3  0  0  0  0  0  0
  185.1070  173.9330  136.3430 C   0  0  0  0  0  3  0  0  0  0  0  0
  182.8730  174.6770  135.7430 O   0  0  0  0  0  0  0  0  0  0  0  0
  182.0490  175.6490  135.3340 O   0  0  0  0  0  1  0  0  0  0  0  0
  190.6740  177.1920  141.1480 C   0  0  1  0  0  3  0  0  0  0  0  0
  187.3450  178.5810  140.7430 O   0  0  0  0  0  0  0  0  0  0  0  0
  189.5530  177.9620  140.6710 O   0  0  0  0  0  0  0  0  0  0  0  0
  188.3000  177.9860  141.3020 C   0  0  0  0  0  0  0  0  0  0  0  0
  187.1840  177.9370  143.3930 F   0  0  0  0  0  0  0  0  0  0  0  0
  188.0600  177.2410  142.5780 C   0  0  2  0  0  3  0  0  0  0  0  0
  189.3770  176.9490  143.2990 C   0  0  1  0  0  3  0  0  0  0  0  0
  190.3250  176.2630  142.3140 C   0  0  0  0  0  2  0  0  0  0  0  0
  190.0240  178.2120  143.8830 C   0  0  0  0  0  2  0  0  0  0  0  0
  189.7910  178.3460  145.3840 C   0  0  0  0  0  2  0  0  0  0  0  0
  189.8990  177.0140  146.1160 C   0  0  2  0  0  3  0  0  0  0  0  0
  188.5880  176.7560  146.8410 C   0  0  0  0  0  2  0  0  0  0  0  0
  187.6080  177.8920  146.6110 C   0  0  0  0  0  2  0  0  0  0  0  0
  186.2560  177.3150  146.2310 C   0  0  0  0  0  2  0  0  0  0  0  0
  185.2060  178.2700  146.5560 N   0  0  0  0  0  0  0  0  0  0  0  0
  185.8540  179.4210  147.1620 C   0  0  0  0  0  1  0  0  0  0  0  0
  184.6280  178.7210  145.2980 C   0  0  0  0  0  2  0  0  0  0  0  0
  183.3630  179.2600  145.5270 O   0  0  0  0  0  1  0  0  0  0  0  0
  191.0520  177.0300  147.1120 C   0  0  0  0  0  2  0  0  0  0  0  0
  192.0580  175.5190  145.5650 O   0  0  0  0  0  0  0  0  0  0  0  0
  193.0670  175.6460  147.6230 O   0  0  0  0  0  1  0  0  0  0  0  0
  192.0760  176.0170  146.7220 C   0  0  0  0  0  0  0  0  0  0  0  0
  193.3450  175.2920  136.2560 N   0  0  0  0  0  2  0  0  0  0  0  0
  193.9870  174.0380  136.6510 C   0  0  0  0  0  2  0  0  0  0  0  0
  196.3830  174.7280  138.4060 O   0  0  0  0  0  0  0  0  0  0  0  0
  195.5020  174.1250  136.4650 C   0  0  1  0  0  3  0  0  0  0  0  0
  195.6230  171.6500  135.8640 C   0  0  0  0  0  1  0  0  0  0  0  0
  197.7930  174.6720  138.4450 C   0  0  0  0  0  2  0  0  0  0  0  0
  197.7530  172.8130  136.6210 C   0  0  1  0  0  3  0  0  0  0  0  0
  198.5780  175.0640  136.2050 O   0  0  0  0  0  1  0  0  0  0  0  0
  196.0400  175.2030  137.2150 O   0  0  0  0  0  0  0  0  0  0  0  0
  196.2080  172.7690  136.7200 C   0  0  1  0  0  3  0  0  0  0  0  0
  198.1830  172.5660  135.3120 O   0  0  0  0  0  1  0  0  0  0  0  0
  198.4450  174.0730  137.1850 C   0  0  1  0  0  3  0  0  0  0  0  0
  1  2  1  0  0  0  0
  1  7  1  1  0  0  0
  2  3  1  6  0  0  0
  2 22  1  0  0  0  0
  4 44  1  6  0  0  0
  4  6  1  0  0  0  0
  5  4  1  0  0  0  0
  5  8  1  0  0  0  0
  6  1  1  0  0  0  0
  8 12  1  6  0  0  0
  8  3  1  0  0  0  0
  9 19  1  0  0  0  0
  9 13  2  0  0  0  0
 10 18  2  0  0  0  0
 10 11  1  0  0  0  0
 12 17  2  0  0  0  0
 13 16  1  0  0  0  0
 14 17  1  0  0  0  0
 15 14  1  0  0  0  0
 16 14  2  0  0  0  0
 16 11  1  0  0  0  0
 18 12  1  0  0  0  0
 19 15  2  0  0  0  0
 20  9  1  0  0  0  0
 21 20  1  0  0  0  0
 22 29  1  1  0  0  0
 23 25  2  0  0  0  0
 24 22  1  0  0  0  0
 24 25  1  0  0  0  0
 25 27  1  0  0  0  0
 27 28  1  0  0  0  0
 27 26  1  1  0  0  0
 28 30  1  6  0  0  0
 29 28  1  0  0  0  0
 30 31  1  0  0  0  0
 32 31  1  1  0  0  0
 32 33  1  0  0  0  0
 32 40  1  0  0  0  0
 34 33  1  0  0  0  0
 35 36  1  0  0  0  0
 35 34  1  0  0  0  0
 36 37  1  0  0  0  0
 38 39  1  0  0  0  0
 38 36  1  0  0  0  0
 41 43  2  0  0  0  0
 43 40  1  0  0  0  0
 43 42  1  0  0  0  0
 44 45  1  0  0  0  0
 46 49  1  0  0  0  0
 47 45  1  1  0  0  0
 47 53  1  0  0  0  0
 47 52  1  0  0  0  0
 50 54  1  6  0  0  0
 50 53  1  0  0  0  0
 50 55  1  0  0  0  0
 52 46  1  0  0  0  0
 53 48  1  6  0  0  0
 55 51  1  6  0  0  0
 55 49  1  0  0  0  0
M  END
>  <MODEL>
1

>  <REMARK>
 VINA RESULT:      -8.4      0.000      0.000
  Name = 
  16 active torsions:
  status: ('A' for Active; 'I' for Inactive)
    1  A    between atoms: C_1  and  O_4
    2  A    between atoms: C_2  and  C_26
    3  A    between atoms: C_2  and  C_34
    4  A    between atoms: C_3  and  C_25
    5  A    between atoms: C_3  and  C_37
    6  A    between atoms: C_6  and  C_30
    7  A    between atoms: C_7  and  C_25
    8  A    between atoms: C_7  and  C_39
    9  A    between atoms: C_8  and  N_28
   10  A    between atoms: N_12  and  C_15
   11  A    between atoms: C_23  and  C_53
   12  A    between atoms: C_24  and  N_32
   13  A    between atoms: C_25  and  C_34
   14  A    between atoms: C_26  and  N_28
   15  A    between atoms: C_30  and  N_32
   16  A    between atoms: C_39  and  C_49
                            x       y       z     vdW  Elec       q    Type
                         _______ _______ _______ _____ _____    ______ ____

>  <TORSDO>
F 16

$$$$
=
 OpenBabel10222417033D

 55 59  0  0  1  0  0  0  0  0999 V2000
  188.2980  176.3670  137.6290 C   0  0  2  0  0  3  0  0  0  0  0  0
  187.9450  177.6660  138.2500 N   0  0  2  0  0  0  0  0  0  0  0  0
  188.8530  178.0740  139.3470 C   0  0  0  0  0  2  0  0  0  0  0  0
  190.8490  176.8570  137.8290 C   0  0  2  0  0  3  0  0  0  0  0  0
  190.8230  176.4200  139.3060 C   0  0  0  0  0  2  0  0  0  0  0  0
  189.6770  176.3780  136.9430 C   0  0  0  0  0  2  0  0  0  0  0  0
  187.3500  176.0120  136.6780 F   0  0  0  0  0  0  0  0  0  0  0  0
  189.5400  176.8700  140.0210 C   0  0  1  0  0  3  0  0  0  0  0  0
  188.0830  177.5650  146.3720 C   0  0  0  0  0  0  0  0  0  0  0  0
  191.5260  177.4500  143.1650 C   0  0  0  0  0  3  0  0  0  0  0  0
  190.9030  176.5380  144.1700 C   0  0  0  0  0  2  0  0  0  0  0  0
  189.7250  177.0740  141.4850 C   0  0  0  0  0  0  0  0  0  0  0  0
  189.3150  177.2380  145.9000 N   0  0  0  0  0  0  0  0  0  0  0  0
  188.5080  177.1710  143.6430 C   0  0  0  0  0  0  0  0  0  0  0  0
  187.2330  177.4980  144.1160 C   0  0  0  0  0  3  0  0  0  0  0  0
  189.5570  177.0350  144.5760 C   0  0  0  0  0  0  0  0  0  0  0  0
  188.6610  176.9430  142.2340 N   0  0  0  0  0  0  0  0  0  0  0  0
  190.9990  177.6490  141.9590 C   0  0  0  0  0  3  0  0  0  0  0  0
  187.0130  177.7040  145.4780 C   0  0  0  0  0  3  0  0  0  0  0  0
  187.8970  177.7460  147.7410 O   0  0  0  0  0  0  0  0  0  0  0  0
  188.9350  177.9480  148.5610 O   0  0  0  0  0  1  0  0  0  0  0  0
  186.5530  177.6050  138.7360 C   0  0  1  0  0  3  0  0  0  0  0  0
  185.4040  179.6140  141.5320 O   0  0  0  0  0  0  0  0  0  0  0  0
  186.3990  178.1700  140.0530 O   0  0  0  0  0  0  0  0  0  0  0  0
  185.3820  179.0720  140.3980 C   0  0  0  0  0  0  0  0  0  0  0  0
  183.1130  179.6610  140.0450 F   0  0  0  0  0  0  0  0  0  0  0  0
  184.3290  179.4700  139.4110 C   0  0  2  0  0  3  0  0  0  0  0  0
  184.2140  178.4380  138.2870 C   0  0  1  0  0  3  0  0  0  0  0  0
  185.6060  178.2110  137.6970 C   0  0  0  0  0  2  0  0  0  0  0  0
  183.6030  177.1120  138.7620 C   0  0  0  0  0  2  0  0  0  0  0  0
  182.1260  176.9890  138.4040 C   0  0  0  0  0  2  0  0  0  0  0  0
  181.2450  176.7560  139.6260 C   0  0  2  0  0  3  0  0  0  0  0  0
  180.2220  175.6860  139.2840 C   0  0  0  0  0  2  0  0  0  0  0  0
  180.8320  174.6140  138.3990 C   0  0  0  0  0  2  0  0  0  0  0  0
  179.7220  173.7850  137.7800 C   0  0  0  0  0  2  0  0  0  0  0  0
  180.2690  172.9370  136.7310 N   0  0  0  0  0  0  0  0  0  0  0  0
  181.6570  173.3270  136.5530 C   0  0  0  0  0  1  0  0  0  0  0  0
  180.2720  171.5710  137.2360 C   0  0  0  0  0  2  0  0  0  0  0  0
  179.2560  170.8400  136.6210 O   0  0  0  0  0  1  0  0  0  0  0  0
  180.5370  178.0410  140.0410 C   0  0  0  0  0  2  0  0  0  0  0  0
  181.1700  178.7350  142.2330 O   0  0  0  0  0  1  0  0  0  0  0  0
  179.3060  177.4000  142.1170 O   0  0  0  0  0  0  0  0  0  0  0  0
  180.3670  178.0730  141.5220 C   0  0  0  0  0  0  0  0  0  0  0  0
  192.1560  176.6220  137.2110 N   0  0  0  0  0  2  0  0  0  0  0  0
  192.7250  175.3560  137.6710 C   0  0  0  0  0  2  0  0  0  0  0  0
  195.2330  174.1210  138.8890 O   0  0  0  0  0  0  0  0  0  0  0  0
  194.2040  175.2580  137.2900 C   0  0  1  0  0  3  0  0  0  0  0  0
  193.6270  173.9850  135.1590 C   0  0  0  0  0  1  0  0  0  0  0  0
  196.5720  173.7870  138.5920 C   0  0  0  0  0  2  0  0  0  0  0  0
  196.0020  173.8300  136.0510 C   0  0  1  0  0  3  0  0  0  0  0  0
  197.4170  175.4940  137.1230 O   0  0  0  0  0  1  0  0  0  0  0  0
  195.0260  175.3540  138.4430 O   0  0  0  0  0  0  0  0  0  0  0  0
  194.5070  174.0230  136.4040 C   0  0  1  0  0  3  0  0  0  0  0  0
  196.3360  174.5100  134.8740 O   0  0  0  0  0  1  0  0  0  0  0  0
  197.0220  174.1520  137.1650 C   0  0  1  0  0  3  0  0  0  0  0  0
  1  7  1  6  0  0  0
  1  2  1  0  0  0  0
  2 22  1  0  0  0  0
  2  3  1  1  0  0  0
  3  8  1  0  0  0  0
  4 44  1  6  0  0  0
  4  5  1  0  0  0  0
  5  8  1  0  0  0  0
  6  1  1  0  0  0  0
  6  4  1  0  0  0  0
  8 12  1  1  0  0  0
  9 20  1  0  0  0  0
 10 11  1  0  0  0  0
 11 16  1  0  0  0  0
 12 18  1  0  0  0  0
 12 17  2  0  0  0  0
 13  9  2  0  0  0  0
 14 15  1  0  0  0  0
 14 16  2  0  0  0  0
 15 19  2  0  0  0  0
 16 13  1  0  0  0  0
 17 14  1  0  0  0  0
 18 10  2  0  0  0  0
 19  9  1  0  0  0  0
 20 21  1  0  0  0  0
 22 29  1  6  0  0  0
 22 24  1  0  0  0  0
 24 25  1  0  0  0  0
 25 23  2  0  0  0  0
 27 26  1  1  0  0  0
 27 25  1  0  0  0  0
 28 30  1  1  0  0  0
 28 27  1  0  0  0  0
 29 28  1  0  0  0  0
 31 30  1  0  0  0  0
 32 31  1  6  0  0  0
 32 40  1  0  0  0  0
 33 32  1  0  0  0  0
 34 33  1  0  0  0  0
 35 34  1  0  0  0  0
 36 38  1  0  0  0  0
 36 35  1  0  0  0  0
 37 36  1  0  0  0  0
 39 38  1  0  0  0  0
 40 43  1  0  0  0  0
 43 42  2  0  0  0  0
 43 41  1  0  0  0  0
 44 45  1  0  0  0  0
 47 45  1  1  0  0  0
 47 52  1  0  0  0  0
 49 46  1  0  0  0  0
 50 54  1  6  0  0  0
 50 53  1  0  0  0  0
 50 55  1  0  0  0  0
 52 46  1  0  0  0  0
 53 48  1  6  0  0  0
 53 47  1  0  0  0  0
 55 51  1  1  0  0  0
 55 49  1  0  0  0  0
M  END
>  <MODEL>
2

>  <REMARK>
 VINA RESULT:      -8.1      3.237      8.009
  Name = 
  16 active torsions:
  status: ('A' for Active; 'I' for Inactive)
    1  A    between atoms: C_1  and  O_4
    2  A    between atoms: C_2  and  C_26
    3  A    between atoms: C_2  and  C_34
    4  A    between atoms: C_3  and  C_25
    5  A    between atoms: C_3  and  C_37
    6  A    between atoms: C_6  and  C_30
    7  A    between atoms: C_7  and  C_25
    8  A    between atoms: C_7  and  C_39
    9  A    between atoms: C_8  and  N_28
   10  A    between atoms: N_12  and  C_15
   11  A    between atoms: C_23  and  C_53
   12  A    between atoms: C_24  and  N_32
   13  A    between atoms: C_25  and  C_34
   14  A    between atoms: C_26  and  N_28
   15  A    between atoms: C_30  and  N_32
   16  A    between atoms: C_39  and  C_49
                            x       y       z     vdW  Elec       q    Type
                         _______ _______ _______ _____ _____    ______ ____

>  <TORSDO>
F 16

$$$$
=
 OpenBabel10222417033D

 55 59  0  0  1  0  0  0  0  0999 V2000
  191.2530  177.6490  140.1880 C   0  0  2  0  0  3  0  0  0  0  0  0
  190.2830  176.6730  140.7400 N   0  0  2  0  0  0  0  0  0  0  0  0
  189.4210  176.0380  139.7160 C   0  0  0  0  0  2  0  0  0  0  0  0
  191.6690  176.1820  138.0750 C   0  0  2  0  0  3  0  0  0  0  0  0
  190.3810  176.7320  137.4330 C   0  0  0  0  0  2  0  0  0  0  0  0
  192.2770  177.0100  139.2300 C   0  0  0  0  0  2  0  0  0  0  0  0
  191.9560  178.2660  141.2140 F   0  0  0  0  0  0  0  0  0  0  0  0
  189.2540  176.9160  138.4600 C   0  0  1  0  0  3  0  0  0  0  0  0
  182.8950  178.0520  137.3630 C   0  0  0  0  0  0  0  0  0  0  0  0
  186.6510  175.4900  136.1460 C   0  0  0  0  0  3  0  0  0  0  0  0
  185.9030  176.6830  135.6500 C   0  0  0  0  0  2  0  0  0  0  0  0
  187.8930  176.7960  137.8660 C   0  0  0  0  0  0  0  0  0  0  0  0
  183.7210  177.4160  136.4900 N   0  0  0  0  0  0  0  0  0  0  0  0
  185.6140  177.7690  137.9200 C   0  0  0  0  0  0  0  0  0  0  0  0
  184.7770  178.4330  138.8210 C   0  0  0  0  0  3  0  0  0  0  0  0
  185.0530  177.2640  136.7290 C   0  0  0  0  0  0  0  0  0  0  0  0
  187.0110  177.6850  138.2400 N   0  0  0  0  0  0  0  0  0  0  0  0
  187.5600  175.5700  137.1150 C   0  0  0  0  0  3  0  0  0  0  0  0
  183.4150  178.5730  138.5550 C   0  0  0  0  0  3  0  0  0  0  0  0
  181.5420  178.1890  137.0540 O   0  0  0  0  0  0  0  0  0  0  0  0
  180.6300  178.3880  138.0130 O   0  0  0  0  0  1  0  0  0  0  0  0
  189.4540  177.3430  141.7590 C   0  0  1  0  0  3  0  0  0  0  0  0
  186.7870  179.6370  140.8650 O   0  0  0  0  0  0  0  0  0  0  0  0
  188.7290  178.4720  141.2330 O   0  0  0  0  0  0  0  0  0  0  0  0
  187.3650  178.7010  141.4720 C   0  0  0  0  0  0  0  0  0  0  0  0
  185.6210  178.5160  143.0670 F   0  0  0  0  0  0  0  0  0  0  0  0
  186.5700  177.7960  142.3620 C   0  0  2  0  0  3  0  0  0  0  0  0
  187.4860  177.0120  143.3040 C   0  0  1  0  0  3  0  0  0  0  0  0
  188.5610  176.3190  142.4660 C   0  0  0  0  0  2  0  0  0  0  0  0
  188.1260  177.8990  144.3810 C   0  0  0  0  0  2  0  0  0  0  0  0
  188.3720  177.1470  145.6850 C   0  0  0  0  0  2  0  0  0  0  0  0
  187.7650  177.8530  146.8920 C   0  0  2  0  0  3  0  0  0  0  0  0
  188.4930  177.3820  148.1400 C   0  0  0  0  0  2  0  0  0  0  0  0
  189.7120  176.5540  147.7790 C   0  0  0  0  0  2  0  0  0  0  0  0
  190.9100  177.4720  147.6210 C   0  0  0  0  0  2  0  0  0  0  0  0
  192.0120  176.7400  147.0120 N   0  0  0  0  0  0  0  0  0  0  0  0
  192.0400  175.4260  147.6300 C   0  0  0  0  0  1  0  0  0  0  0  0
  191.6780  176.5440  145.6090 C   0  0  0  0  0  2  0  0  0  0  0  0
  191.6820  177.7710  144.9470 O   0  0  0  0  0  1  0  0  0  0  0  0
  186.2760  177.5490  147.0090 C   0  0  0  0  0  2  0  0  0  0  0  0
  185.9380  179.8640  147.4740 O   0  0  0  0  0  1  0  0  0  0  0  0
  184.2820  178.8480  146.2520 O   0  0  0  0  0  0  0  0  0  0  0  0
  185.4910  178.8150  146.9370 C   0  0  0  0  0  0  0  0  0  0  0  0
  192.6640  175.8030  137.0690 N   0  0  0  0  0  2  0  0  0  0  0  0
  193.2080  174.4760  137.3530 C   0  0  0  0  0  2  0  0  0  0  0  0
  195.4620  174.8190  139.3770 O   0  0  0  0  0  0  0  0  0  0  0  0
  194.7360  174.4960  137.3080 C   0  0  1  0  0  3  0  0  0  0  0  0
  194.7970  172.1050  136.4260 C   0  0  0  0  0  1  0  0  0  0  0  0
  196.8590  174.6790  139.5290 C   0  0  0  0  0  2  0  0  0  0  0  0
  196.9000  173.0490  137.4970 C   0  0  1  0  0  3  0  0  0  0  0  0
  197.8630  175.2830  137.4280 O   0  0  0  0  0  1  0  0  0  0  0  0
  195.2520  175.4480  138.2270 O   0  0  0  0  0  0  0  0  0  0  0  0
  195.3520  173.0820  137.4580 C   0  0  1  0  0  3  0  0  0  0  0  0
  197.4360  172.9320  136.2110 O   0  0  0  0  0  1  0  0  0  0  0  0
  197.5950  174.1940  138.2670 C   0  0  1  0  0  3  0  0  0  0  0  0
  1  2  1  0  0  0  0
  1  7  1  1  0  0  0
  2  3  1  6  0  0  0
  2 22  1  0  0  0  0
  4 44  1  6  0  0  0
  4  6  1  0  0  0  0
  5  4  1  0  0  0  0
  5  8  1  0  0  0  0
  6  1  1  0  0  0  0
  8 12  1  6  0  0  0
  8  3  1  0  0  0  0
  9 19  1  0  0  0  0
 10 18  2  0  0  0  0
 11 10  1  0  0  0  0
 11 16  1  0  0  0  0
 12 17  2  0  0  0  0
 13 16  1  0  0  0  0
 13  9  2  0  0  0  0
 14 17  1  0  0  0  0
 14 15  1  0  0  0  0
 16 14  2  0  0  0  0
 18 12  1  0  0  0  0
 19 15  2  0  0  0  0
 20  9  1  0  0  0  0
 20 21  1  0  0  0  0
 22 29  1  6  0  0  0
 23 25  2  0  0  0  0
 24 25  1  0  0  0  0
 24 22  1  0  0  0  0
 25 27  1  0  0  0  0
 27 26  1  1  0  0  0
 27 28  1  0  0  0  0
 28 30  1  1  0  0  0
 29 28  1  0  0  0  0
 30 31  1  0  0  0  0
 32 31  1  6  0  0  0
 32 40  1  0  0  0  0
 32 33  1  0  0  0  0
 34 33  1  0  0  0  0
 35 34  1  0  0  0  0
 36 35  1  0  0  0  0
 36 37  1  0  0  0  0
 38 36  1  0  0  0  0
 39 38  1  0  0  0  0
 42 43  2  0  0  0  0
 43 40  1  0  0  0  0
 43 41  1  0  0  0  0
 44 45  1  0  0  0  0
 46 49  1  0  0  0  0
 47 45  1  1  0  0  0
 47 53  1  0  0  0  0
 47 52  1  0  0  0  0
 50 54  1  6  0  0  0
 50 55  1  0  0  0  0
 52 46  1  0  0  0  0
 53 48  1  6  0  0  0
 53 50  1  0  0  0  0
 55 51  1  6  0  0  0
 55 49  1  0  0  0  0
M  END
>  <MODEL>
3

>  <REMARK>
 VINA RESULT:      -8.1      1.842      3.533
  Name = 
  16 active torsions:
  status: ('A' for Active; 'I' for Inactive)
    1  A    between atoms: C_1  and  O_4
    2  A    between atoms: C_2  and  C_26
    3  A    between atoms: C_2  and  C_34
    4  A    between atoms: C_3  and  C_25
    5  A    between atoms: C_3  and  C_37
    6  A    between atoms: C_6  and  C_30
    7  A    between atoms: C_7  and  C_25
    8  A    between atoms: C_7  and  C_39
    9  A    between atoms: C_8  and  N_28
   10  A    between atoms: N_12  and  C_15
   11  A    between atoms: C_23  and  C_53
   12  A    between atoms: C_24  and  N_32
   13  A    between atoms: C_25  and  C_34
   14  A    between atoms: C_26  and  N_28
   15  A    between atoms: C_30  and  N_32
   16  A    between atoms: C_39  and  C_49
                            x       y       z     vdW  Elec       q    Type
                         _______ _______ _______ _____ _____    ______ ____

>  <TORSDO>
F 16

$$$$
=
 OpenBabel10222417033D

 55 59  0  0  1  0  0  0  0  0999 V2000
  188.5300  176.3890  137.6150 C   0  0  2  0  0  3  0  0  0  0  0  0
  188.1320  177.6760  138.2330 N   0  0  2  0  0  0  0  0  0  0  0  0
  188.9920  178.0900  139.3660 C   0  0  0  0  0  2  0  0  0  0  0  0
  191.0630  176.9230  137.9120 C   0  0  2  0  0  3  0  0  0  0  0  0
  190.9910  176.4720  139.3840 C   0  0  0  0  0  2  0  0  0  0  0  0
  189.9330  176.4310  136.9800 C   0  0  0  0  0  2  0  0  0  0  0  0
  187.6250  176.0270  136.6260 F   0  0  0  0  0  0  0  0  0  0  0  0
  189.6750  176.8920  140.0550 C   0  0  1  0  0  3  0  0  0  0  0  0
  187.9740  177.5090  146.3530 C   0  0  0  0  0  0  0  0  0  0  0  0
  191.5350  177.4720  143.2750 C   0  0  0  0  0  3  0  0  0  0  0  0
  190.8880  176.5420  144.2490 C   0  0  0  0  0  2  0  0  0  0  0  0
  189.8020  177.0860  141.5270 C   0  0  0  0  0  0  0  0  0  0  0  0
  189.2270  177.2040  145.9240 N   0  0  0  0  0  0  0  0  0  0  0  0
  188.5050  177.1450  143.6380 C   0  0  0  0  0  0  0  0  0  0  0  0
  187.2090  177.4500  144.0670 C   0  0  0  0  0  3  0  0  0  0  0  0
  189.5210  177.0160  144.6080 C   0  0  0  0  0  0  0  0  0  0  0  0
  188.7140  176.9320  142.2340 N   0  0  0  0  0  0  0  0  0  0  0  0
  191.0490  177.6740  142.0520 C   0  0  0  0  0  3  0  0  0  0  0  0
  186.9360  177.6410  145.4210 C   0  0  0  0  0  3  0  0  0  0  0  0
  187.7340  177.6750  147.7160 O   0  0  0  0  0  0  0  0  0  0  0  0
  188.7220  177.9980  148.5590 O   0  0  0  0  0  1  0  0  0  0  0  0
  186.7250  177.5870  138.6680 C   0  0  1  0  0  3  0  0  0  0  0  0
  185.4470  179.5210  141.4600 O   0  0  0  0  0  0  0  0  0  0  0  0
  186.5160  178.1220  139.9890 O   0  0  0  0  0  0  0  0  0  0  0  0
  185.4740  179.0030  140.3160 C   0  0  0  0  0  0  0  0  0  0  0  0
  183.2110  179.5690  139.8920 F   0  0  0  0  0  0  0  0  0  0  0  0
  184.4520  179.4070  139.2990 C   0  0  2  0  0  3  0  0  0  0  0  0
  184.3910  178.3970  138.1510 C   0  0  1  0  0  3  0  0  0  0  0  0
  185.8070  178.2010  137.6070 C   0  0  0  0  0  2  0  0  0  0  0  0
  183.7830  177.0540  138.5760 C   0  0  0  0  0  2  0  0  0  0  0  0
  182.3010  176.9490  138.2320 C   0  0  0  0  0  2  0  0  0  0  0  0
  181.9200  177.7920  137.0200 C   0  0  2  0  0  3  0  0  0  0  0  0
  180.8270  178.7630  137.4350 C   0  0  0  0  0  2  0  0  0  0  0  0
  180.9570  180.0780  136.6890 C   0  0  0  0  0  2  0  0  0  0  0  0
  179.9710  181.0780  137.2630 C   0  0  0  0  0  2  0  0  0  0  0  0
  180.5680  182.4060  137.2750 N   0  0  0  0  0  0  0  0  0  0  0  0
  180.5920  182.8710  135.8990 C   0  0  0  0  0  1  0  0  0  0  0  0
  179.6620  183.2810  138.0050 C   0  0  0  0  0  2  0  0  0  0  0  0
  179.5080  184.4820  137.3130 O   0  0  0  0  0  1  0  0  0  0  0  0
  181.4310  176.9120  135.8760 C   0  0  0  0  0  2  0  0  0  0  0  0
  182.5800  175.2620  134.5940 O   0  0  0  0  0  0  0  0  0  0  0  0
  183.6700  177.2690  134.8300 O   0  0  0  0  0  1  0  0  0  0  0  0
  182.5910  176.4270  135.0740 C   0  0  0  0  0  0  0  0  0  0  0  0
  192.3960  176.7160  137.3410 N   0  0  0  0  0  2  0  0  0  0  0  0
  192.8390  175.3380  137.5460 C   0  0  0  0  0  2  0  0  0  0  0  0
  194.9080  173.1760  138.1360 O   0  0  0  0  0  0  0  0  0  0  0  0
  194.3630  175.2720  137.6660 C   0  0  1  0  0  3  0  0  0  0  0  0
  194.6400  176.0200  135.2450 C   0  0  0  0  0  1  0  0  0  0  0  0
  196.2940  172.9160  138.0960 C   0  0  0  0  0  2  0  0  0  0  0  0
  196.5930  174.8500  136.3770 C   0  0  1  0  0  3  0  0  0  0  0  0
  197.4160  174.9670  138.6640 O   0  0  0  0  0  1  0  0  0  0  0  0
  194.7470  174.3700  138.6930 O   0  0  0  0  0  0  0  0  0  0  0  0
  195.0530  175.0040  136.3050 C   0  0  1  0  0  3  0  0  0  0  0  0
  197.2310  176.0860  136.2340 O   0  0  0  0  0  1  0  0  0  0  0  0
  197.1540  174.0940  137.6010 C   0  0  1  0  0  3  0  0  0  0  0  0
  1  7  1  6  0  0  0
  1  2  1  0  0  0  0
  2 22  1  0  0  0  0
  2  3  1  1  0  0  0
  3  8  1  0  0  0  0
  4 44  1  6  0  0  0
  4  5  1  0  0  0  0
  5  8  1  0  0  0  0
  6  1  1  0  0  0  0
  6  4  1  0  0  0  0
  8 12  1  1  0  0  0
  9 20  1  0  0  0  0
 10 11  1  0  0  0  0
 11 16  1  0  0  0  0
 12 18  1  0  0  0  0
 12 17  2  0  0  0  0
 13  9  2  0  0  0  0
 14 15  1  0  0  0  0
 14 16  2  0  0  0  0
 15 19  2  0  0  0  0
 16 13  1  0  0  0  0
 17 14  1  0  0  0  0
 18 10  2  0  0  0  0
 19  9  1  0  0  0  0
 20 21  1  0  0  0  0
 22 29  1  6  0  0  0
 22 24  1  0  0  0  0
 24 25  1  0  0  0  0
 25 23  2  0  0  0  0
 27 26  1  1  0  0  0
 27 25  1  0  0  0  0
 28 30  1  1  0  0  0
 28 27  1  0  0  0  0
 29 28  1  0  0  0  0
 31 30  1  0  0  0  0
 32 40  1  6  0  0  0
 32 33  1  0  0  0  0
 32 31  1  0  0  0  0
 34 35  1  0  0  0  0
 34 33  1  0  0  0  0
 35 36  1  0  0  0  0
 36 38  1  0  0  0  0
 37 36  1  0  0  0  0
 39 38  1  0  0  0  0
 41 43  2  0  0  0  0
 42 43  1  0  0  0  0
 43 40  1  0  0  0  0
 44 45  1  0  0  0  0
 46 52  1  0  0  0  0
 47 45  1  6  0  0  0
 47 52  1  0  0  0  0
 49 46  1  0  0  0  0
 50 54  1  1  0  0  0
 50 55  1  0  0  0  0
 53 48  1  6  0  0  0
 53 50  1  0  0  0  0
 53 47  1  0  0  0  0
 55 49  1  0  0  0  0
 55 51  1  1  0  0  0
M  END
>  <MODEL>
4

>  <REMARK>
 VINA RESULT:      -7.9      3.519      8.229
  Name = 
  16 active torsions:
  status: ('A' for Active; 'I' for Inactive)
    1  A    between atoms: C_1  and  O_4
    2  A    between atoms: C_2  and  C_26
    3  A    between atoms: C_2  and  C_34
    4  A    between atoms: C_3  and  C_25
    5  A    between atoms: C_3  and  C_37
    6  A    between atoms: C_6  and  C_30
    7  A    between atoms: C_7  and  C_25
    8  A    between atoms: C_7  and  C_39
    9  A    between atoms: C_8  and  N_28
   10  A    between atoms: N_12  and  C_15
   11  A    between atoms: C_23  and  C_53
   12  A    between atoms: C_24  and  N_32
   13  A    between atoms: C_25  and  C_34
   14  A    between atoms: C_26  and  N_28
   15  A    between atoms: C_30  and  N_32
   16  A    between atoms: C_39  and  C_49
                            x       y       z     vdW  Elec       q    Type
                         _______ _______ _______ _____ _____    ______ ____

>  <TORSDO>
F 16

$$$$
=
 OpenBabel10222417033D

 55 59  0  0  1  0  0  0  0  0999 V2000
  186.0880  179.2230  142.0980 C   0  0  2  0  0  3  0  0  0  0  0  0
  186.7640  177.9040  142.1350 N   0  0  2  0  0  0  0  0  0  0  0  0
  186.8560  177.3140  143.4910 C   0  0  0  0  0  2  0  0  0  0  0  0
  184.3690  178.4990  143.9170 C   0  0  2  0  0  3  0  0  0  0  0  0
  185.4050  178.7900  145.0190 C   0  0  0  0  0  2  0  0  0  0  0  0
  184.6140  179.1620  142.5430 C   0  0  0  0  0  2  0  0  0  0  0  0
  186.1250  179.7490  140.8130 F   0  0  0  0  0  0  0  0  0  0  0  0
  186.8260  178.3830  144.6010 C   0  0  1  0  0  3  0  0  0  0  0  0
  192.0700  176.3250  147.9480 C   0  0  0  0  0  0  0  0  0  0  0  0
  187.6600  177.9430  148.2450 C   0  0  0  0  0  3  0  0  0  0  0  0
  189.0540  178.4650  148.3720 C   0  0  0  0  0  2  0  0  0  0  0  0
  187.6970  178.0210  145.7550 C   0  0  0  0  0  0  0  0  0  0  0  0
  191.0660  177.0700  148.4810 N   0  0  0  0  0  0  0  0  0  0  0  0
  189.9720  177.2400  146.3540 C   0  0  0  0  0  0  0  0  0  0  0  0
  191.0040  176.4820  145.7910 C   0  0  0  0  0  3  0  0  0  0  0  0
  190.0290  177.5360  147.7310 C   0  0  0  0  0  0  0  0  0  0  0  0
  188.9370  177.7160  145.4790 N   0  0  0  0  0  0  0  0  0  0  0  0
  187.0620  177.7850  147.0660 C   0  0  0  0  0  3  0  0  0  0  0  0
  192.0520  176.0140  146.5830 C   0  0  0  0  0  3  0  0  0  0  0  0
  193.1110  175.8900  148.7660 O   0  0  0  0  0  0  0  0  0  0  0  0
  193.8080  176.7500  149.5180 O   0  0  0  0  0  1  0  0  0  0  0  0
  188.1090  178.0360  141.5450 C   0  0  1  0  0  3  0  0  0  0  0  0
  190.9450  179.2290  143.4700 O   0  0  0  0  0  0  0  0  0  0  0  0
  188.9850  178.8630  142.3360 O   0  0  0  0  0  0  0  0  0  0  0  0
  190.3010  178.5080  142.6680 C   0  0  0  0  0  0  0  0  0  0  0  0
  192.2650  177.4200  141.9050 F   0  0  0  0  0  0  0  0  0  0  0  0
  190.9160  177.2420  142.1580 C   0  0  2  0  0  3  0  0  0  0  0  0
  190.1790  176.7370  140.9150 C   0  0  1  0  0  3  0  0  0  0  0  0
  188.6870  176.6510  141.2400 C   0  0  0  0  0  2  0  0  0  0  0  0
  190.4160  177.6250  139.6860 C   0  0  0  0  0  2  0  0  0  0  0  0
  190.6040  176.8140  138.4080 C   0  0  0  0  0  2  0  0  0  0  0  0
  189.4250  176.9450  137.4520 C   0  0  2  0  0  3  0  0  0  0  0  0
  189.8000  176.2900  136.1330 C   0  0  0  0  0  2  0  0  0  0  0  0
  189.4570  174.8110  136.1430 C   0  0  0  0  0  2  0  0  0  0  0  0
  188.1970  174.5970  136.9610 C   0  0  0  0  0  2  0  0  0  0  0  0
  187.2420  173.8090  136.1940 N   0  0  0  0  0  0  0  0  0  0  0  0
  186.4480  173.0580  137.1510 C   0  0  0  0  0  1  0  0  0  0  0  0
  186.3420  174.7440  135.5340 C   0  0  0  0  0  2  0  0  0  0  0  0
  185.8020  175.6210  136.4740 O   0  0  0  0  0  1  0  0  0  0  0  0
  189.0670  178.4090  137.2250 C   0  0  0  0  0  2  0  0  0  0  0  0
  186.8320  178.6360  138.0260 O   0  0  0  0  0  1  0  0  0  0  0  0
  187.0670  178.6140  135.7430 O   0  0  0  0  0  0  0  0  0  0  0  0
  187.5950  178.5490  137.0270 C   0  0  0  0  0  0  0  0  0  0  0  0
  182.9960  178.6810  144.3940 N   0  0  0  0  0  2  0  0  0  0  0  0
  182.0530  177.9510  143.5480 C   0  0  0  0  0  2  0  0  0  0  0  0
  180.9570  177.7540  140.7090 O   0  0  0  0  0  0  0  0  0  0  0  0
  181.3650  178.8970  142.5630 C   0  0  1  0  0  3  0  0  0  0  0  0
  179.4100  179.2300  144.1650 C   0  0  0  0  0  1  0  0  0  0  0  0
  180.1580  178.4410  139.7700 C   0  0  0  0  0  2  0  0  0  0  0  0
  179.0660  179.7930  141.7100 C   0  0  1  0  0  3  0  0  0  0  0  0
  180.5670  180.7910  140.0760 O   0  0  0  0  0  1  0  0  0  0  0  0
  181.7950  178.6390  141.2350 O   0  0  0  0  0  0  0  0  0  0  0  0
  179.8240  178.9100  142.7320 C   0  0  1  0  0  3  0  0  0  0  0  0
  178.9310  181.1050  142.1780 O   0  0  0  0  0  1  0  0  0  0  0  0
  179.6060  179.7910  140.2630 C   0  0  1  0  0  3  0  0  0  0  0  0
  1  7  1  6  0  0  0
  1  2  1  0  0  0  0
  1  6  1  0  0  0  0
  2  3  1  1  0  0  0
  3  8  1  0  0  0  0
  4 44  1  1  0  0  0
  4  5  1  0  0  0  0
  6  4  1  0  0  0  0
  8  5  1  0  0  0  0
  8 12  1  1  0  0  0
  9 13  2  0  0  0  0
  9 20  1  0  0  0  0
 10 11  1  0  0  0  0
 12 18  1  0  0  0  0
 14 16  2  0  0  0  0
 15 14  1  0  0  0  0
 15 19  2  0  0  0  0
 16 11  1  0  0  0  0
 16 13  1  0  0  0  0
 17 12  2  0  0  0  0
 17 14  1  0  0  0  0
 18 10  2  0  0  0  0
 19  9  1  0  0  0  0
 20 21  1  0  0  0  0
 22 29  1  1  0  0  0
 22  2  1  0  0  0  0
 22 24  1  0  0  0  0
 24 25  1  0  0  0  0
 25 23  2  0  0  0  0
 27 26  1  6  0  0  0
 27 25  1  0  0  0  0
 28 30  1  6  0  0  0
 28 29  1  0  0  0  0
 28 27  1  0  0  0  0
 31 30  1  0  0  0  0
 32 33  1  6  0  0  0
 32 31  1  0  0  0  0
 33 34  1  0  0  0  0
 34 35  1  0  0  0  0
 36 35  1  0  0  0  0
 36 37  1  0  0  0  0
 38 36  1  0  0  0  0
 38 39  1  0  0  0  0
 40 32  1  0  0  0  0
 42 43  2  0  0  0  0
 43 40  1  0  0  0  0
 43 41  1  0  0  0  0
 45 44  1  0  0  0  0
 46 52  1  0  0  0  0
 47 53  1  0  0  0  0
 47 45  1  1  0  0  0
 49 55  1  0  0  0  0
 49 46  1  0  0  0  0
 50 54  1  1  0  0  0
 50 53  1  0  0  0  0
 52 47  1  0  0  0  0
 53 48  1  1  0  0  0
 55 51  1  1  0  0  0
 55 50  1  0  0  0  0
M  END
>  <MODEL>
5

>  <REMARK>
 VINA RESULT:      -7.9      4.354     12.077
  Name = 
  16 active torsions:
  status: ('A' for Active; 'I' for Inactive)
    1  A    between atoms: C_1  and  O_4
    2  A    between atoms: C_2  and  C_26
    3  A    between atoms: C_2  and  C_34
    4  A    between atoms: C_3  and  C_25
    5  A    between atoms: C_3  and  C_37
    6  A    between atoms: C_6  and  C_30
    7  A    between atoms: C_7  and  C_25
    8  A    between atoms: C_7  and  C_39
    9  A    between atoms: C_8  and  N_28
   10  A    between atoms: N_12  and  C_15
   11  A    between atoms: C_23  and  C_53
   12  A    between atoms: C_24  and  N_32
   13  A    between atoms: C_25  and  C_34
   14  A    between atoms: C_26  and  N_28
   15  A    between atoms: C_30  and  N_32
   16  A    between atoms: C_39  and  C_49
                            x       y       z     vdW  Elec       q    Type
                         _______ _______ _______ _____ _____    ______ ____

>  <TORSDO>
F 16

$$$$
=
 OpenBabel10222417033D

 55 59  0  0  1  0  0  0  0  0999 V2000
  188.5830  176.3700  137.6540 C   0  0  2  0  0  3  0  0  0  0  0  0
  188.2080  177.6710  138.2580 N   0  0  2  0  0  0  0  0  0  0  0  0
  189.0650  178.0730  139.3970 C   0  0  0  0  0  2  0  0  0  0  0  0
  191.1240  176.8470  137.9740 C   0  0  2  0  0  3  0  0  0  0  0  0
  191.0260  176.4090  139.4480 C   0  0  0  0  0  2  0  0  0  0  0  0
  189.9930  176.3740  137.0340 C   0  0  0  0  0  2  0  0  0  0  0  0
  187.6790  176.0210  136.6590 F   0  0  0  0  0  0  0  0  0  0  0  0
  189.7140  176.8650  140.1030 C   0  0  1  0  0  3  0  0  0  0  0  0
  187.9710  177.4870  146.3880 C   0  0  0  0  0  0  0  0  0  0  0  0
  191.5480  177.4870  143.3290 C   0  0  0  0  0  3  0  0  0  0  0  0
  190.9100  176.5530  144.3040 C   0  0  0  0  0  2  0  0  0  0  0  0
  189.8310  177.0680  141.5740 C   0  0  0  0  0  0  0  0  0  0  0  0
  189.2300  177.1980  145.9680 N   0  0  0  0  0  0  0  0  0  0  0  0
  188.5220  177.1190  143.6780 C   0  0  0  0  0  0  0  0  0  0  0  0
  187.2190  177.4060  144.0980 C   0  0  0  0  0  3  0  0  0  0  0  0
  189.5330  177.0080  144.6540 C   0  0  0  0  0  0  0  0  0  0  0  0
  188.7410  176.9020  142.2760 N   0  0  0  0  0  0  0  0  0  0  0  0
  191.0660  177.6760  142.1030 C   0  0  0  0  0  3  0  0  0  0  0  0
  186.9360  177.6000  145.4500 C   0  0  0  0  0  3  0  0  0  0  0  0
  187.7210  177.6560  147.7490 O   0  0  0  0  0  0  0  0  0  0  0  0
  188.4970  178.4430  148.5030 O   0  0  0  0  0  1  0  0  0  0  0  0
  186.7950  177.6170  138.6790 C   0  0  1  0  0  3  0  0  0  0  0  0
  185.5540  179.5310  141.5020 O   0  0  0  0  0  0  0  0  0  0  0  0
  186.5910  178.1300  140.0100 O   0  0  0  0  0  0  0  0  0  0  0  0
  185.5750  179.0370  140.3470 C   0  0  0  0  0  0  0  0  0  0  0  0
  183.3350  179.6840  139.9170 F   0  0  0  0  0  0  0  0  0  0  0  0
  184.5750  179.4950  139.3310 C   0  0  2  0  0  3  0  0  0  0  0  0
  184.4930  178.5130  138.1610 C   0  0  1  0  0  3  0  0  0  0  0  0
  185.9070  178.2830  137.6240 C   0  0  0  0  0  2  0  0  0  0  0  0
  183.8390  177.1810  138.5510 C   0  0  0  0  0  2  0  0  0  0  0  0
  182.7880  176.7300  137.5420 C   0  0  0  0  0  2  0  0  0  0  0  0
  183.1190  175.3800  136.9160 C   0  0  2  0  0  3  0  0  0  0  0  0
  182.1330  174.3510  137.4420 C   0  0  0  0  0  2  0  0  0  0  0  0
  180.8890  174.2960  136.5730 C   0  0  0  0  0  2  0  0  0  0  0  0
  179.6710  174.0960  137.4550 C   0  0  0  0  0  2  0  0  0  0  0  0
  179.9140  174.6810  138.7660 N   0  0  0  0  0  0  0  0  0  0  0  0
  179.1730  175.9300  138.8160 C   0  0  0  0  0  1  0  0  0  0  0  0
  179.3160  173.7930  139.7530 C   0  0  0  0  0  2  0  0  0  0  0  0
  179.6820  174.2000  141.0360 O   0  0  0  0  0  1  0  0  0  0  0  0
  184.5440  174.9580  137.2520 C   0  0  0  0  0  2  0  0  0  0  0  0
  184.6410  173.1020  135.7580 O   0  0  0  0  0  0  0  0  0  0  0  0
  185.0370  172.6160  137.9660 O   0  0  0  0  0  1  0  0  0  0  0  0
  184.7320  173.5100  136.9460 C   0  0  0  0  0  0  0  0  0  0  0  0
  192.4580  176.6050  137.4180 N   0  0  0  0  0  2  0  0  0  0  0  0
  192.7530  175.1730  137.3850 C   0  0  0  0  0  2  0  0  0  0  0  0
  195.1290  174.8990  139.2770 O   0  0  0  0  0  0  0  0  0  0  0  0
  194.2570  174.9350  137.2410 C   0  0  1  0  0  3  0  0  0  0  0  0
  193.8460  172.6810  136.1220 C   0  0  0  0  0  1  0  0  0  0  0  0
  196.4830  174.5040  139.3200 C   0  0  0  0  0  2  0  0  0  0  0  0
  196.1340  173.1240  137.1380 C   0  0  1  0  0  3  0  0  0  0  0  0
  197.4760  175.1520  137.2270 O   0  0  0  0  0  1  0  0  0  0  0  0
  194.9790  175.6760  138.2120 O   0  0  0  0  0  0  0  0  0  0  0  0
  194.6170  173.4280  137.2070 C   0  0  1  0  0  3  0  0  0  0  0  0
  196.5770  173.0580  135.8130 O   0  0  0  0  0  1  0  0  0  0  0  0
  197.0590  174.0400  137.9700 C   0  0  1  0  0  3  0  0  0  0  0  0
  1  7  1  6  0  0  0
  1  2  1  0  0  0  0
  2 22  1  0  0  0  0
  2  3  1  1  0  0  0
  3  8  1  0  0  0  0
  4 44  1  6  0  0  0
  4  5  1  0  0  0  0
  5  8  1  0  0  0  0
  6  1  1  0  0  0  0
  6  4  1  0  0  0  0
  8 12  1  1  0  0  0
  9 20  1  0  0  0  0
 10 11  1  0  0  0  0
 11 16  1  0  0  0  0
 12 18  1  0  0  0  0
 12 17  2  0  0  0  0
 13  9  2  0  0  0  0
 14 15  1  0  0  0  0
 14 16  2  0  0  0  0
 15 19  2  0  0  0  0
 16 13  1  0  0  0  0
 17 14  1  0  0  0  0
 18 10  2  0  0  0  0
 19  9  1  0  0  0  0
 20 21  1  0  0  0  0
 22 29  1  6  0  0  0
 22 24  1  0  0  0  0
 24 25  1  0  0  0  0
 25 23  2  0  0  0  0
 27 26  1  1  0  0  0
 27 25  1  0  0  0  0
 28 30  1  1  0  0  0
 28 27  1  0  0  0  0
 29 28  1  0  0  0  0
 31 30  1  0  0  0  0
 32 40  1  1  0  0  0
 32 33  1  0  0  0  0
 32 31  1  0  0  0  0
 34 33  1  0  0  0  0
 34 35  1  0  0  0  0
 35 36  1  0  0  0  0
 36 37  1  0  0  0  0
 36 38  1  0  0  0  0
 38 39  1  0  0  0  0
 41 43  2  0  0  0  0
 43 40  1  0  0  0  0
 43 42  1  0  0  0  0
 45 44  1  0  0  0  0
 46 49  1  0  0  0  0
 47 45  1  1  0  0  0
 47 52  1  0  0  0  0
 50 54  1  6  0  0  0
 50 53  1  0  0  0  0
 50 55  1  0  0  0  0
 52 46  1  0  0  0  0
 53 48  1  6  0  0  0
 53 47  1  0  0  0  0
 55 51  1  6  0  0  0
 55 49  1  0  0  0  0
M  END
>  <MODEL>
6

>  <REMARK>
 VINA RESULT:      -7.8      2.903      7.676
  Name = 
  16 active torsions:
  status: ('A' for Active; 'I' for Inactive)
    1  A    between atoms: C_1  and  O_4
    2  A    between atoms: C_2  and  C_26
    3  A    between atoms: C_2  and  C_34
    4  A    between atoms: C_3  and  C_25
    5  A    between atoms: C_3  and  C_37
    6  A    between atoms: C_6  and  C_30
    7  A    between atoms: C_7  and  C_25
    8  A    between atoms: C_7  and  C_39
    9  A    between atoms: C_8  and  N_28
   10  A    between atoms: N_12  and  C_15
   11  A    between atoms: C_23  and  C_53
   12  A    between atoms: C_24  and  N_32
   13  A    between atoms: C_25  and  C_34
   14  A    between atoms: C_26  and  N_28
   15  A    between atoms: C_30  and  N_32
   16  A    between atoms: C_39  and  C_49
                            x       y       z     vdW  Elec       q    Type
                         _______ _______ _______ _____ _____    ______ ____

>  <TORSDO>
F 16

$$$$
=
 OpenBabel10222417033D

 55 59  0  0  1  0  0  0  0  0999 V2000
  186.0010  179.2630  142.2800 C   0  0  2  0  0  3  0  0  0  0  0  0
  186.6390  177.9260  142.3230 N   0  0  2  0  0  0  0  0  0  0  0  0
  186.7620  177.3630  143.6880 C   0  0  0  0  0  2  0  0  0  0  0  0
  184.3280  178.6300  144.1740 C   0  0  2  0  0  3  0  0  0  0  0  0
  185.4100  178.9140  145.2320 C   0  0  0  0  0  2  0  0  0  0  0  0
  184.5430  179.2550  142.7770 C   0  0  0  0  0  2  0  0  0  0  0  0
  186.0070  179.7590  140.9830 F   0  0  0  0  0  0  0  0  0  0  0  0
  186.8030  178.4560  144.7740 C   0  0  1  0  0  3  0  0  0  0  0  0
  192.1190  176.3630  147.9820 C   0  0  0  0  0  0  0  0  0  0  0  0
  187.7410  178.0390  148.3950 C   0  0  0  0  0  3  0  0  0  0  0  0
  189.1440  178.5440  148.4750 C   0  0  0  0  0  2  0  0  0  0  0  0
  187.7030  178.0940  145.9050 C   0  0  0  0  0  0  0  0  0  0  0  0
  191.1410  177.1250  148.5370 N   0  0  0  0  0  0  0  0  0  0  0  0
  189.9860  177.2900  146.4420 C   0  0  0  0  0  0  0  0  0  0  0  0
  190.9910  176.5140  145.8560 C   0  0  0  0  0  3  0  0  0  0  0  0
  190.0880  177.5970  147.8140 C   0  0  0  0  0  0  0  0  0  0  0  0
  188.9310  177.7710  145.5950 N   0  0  0  0  0  0  0  0  0  0  0  0
  187.1060  177.8770  147.2360 C   0  0  0  0  0  3  0  0  0  0  0  0
  192.0570  176.0390  146.6200 C   0  0  0  0  0  3  0  0  0  0  0  0
  193.1790  175.9220  148.7720 O   0  0  0  0  0  0  0  0  0  0  0  0
  193.8260  176.7570  149.5930 O   0  0  0  0  0  1  0  0  0  0  0  0
  187.9660  178.0050  141.6830 C   0  0  1  0  0  3  0  0  0  0  0  0
  190.8410  179.4210  143.3870 O   0  0  0  0  0  0  0  0  0  0  0  0
  188.8540  178.9190  142.3560 O   0  0  0  0  0  0  0  0  0  0  0  0
  190.1830  178.6130  142.6850 C   0  0  0  0  0  0  0  0  0  0  0  0
  192.1370  177.4660  141.9860 F   0  0  0  0  0  0  0  0  0  0  0  0
  190.7970  177.3040  142.2960 C   0  0  2  0  0  3  0  0  0  0  0  0
  190.0320  176.6630  141.1360 C   0  0  1  0  0  3  0  0  0  0  0  0
  188.5510  176.6000  141.5120 C   0  0  0  0  0  2  0  0  0  0  0  0
  190.2240  177.4160  139.8130 C   0  0  0  0  0  2  0  0  0  0  0  0
  189.7090  176.6280  138.6130 C   0  0  0  0  0  2  0  0  0  0  0  0
  190.1540  177.2270  137.2840 C   0  0  2  0  0  3  0  0  0  0  0  0
  188.9210  177.7130  136.5390 C   0  0  0  0  0  2  0  0  0  0  0  0
  187.7320  176.8090  136.8090 C   0  0  0  0  0  2  0  0  0  0  0  0
  186.4510  177.5650  136.5060 C   0  0  0  0  0  2  0  0  0  0  0  0
  185.4060  177.1490  137.4300 N   0  0  0  0  0  0  0  0  0  0  0  0
  185.1900  178.2530  138.3480 C   0  0  0  0  0  1  0  0  0  0  0  0
  184.1820  176.9940  136.6560 C   0  0  0  0  0  2  0  0  0  0  0  0
  183.1550  177.7280  137.2470 O   0  0  0  0  0  1  0  0  0  0  0  0
  190.8990  176.1970  136.4440 C   0  0  0  0  0  2  0  0  0  0  0  0
  192.0780  174.3600  137.4040 O   0  0  0  0  0  0  0  0  0  0  0  0
  193.0090  176.4280  137.7600 O   0  0  0  0  0  1  0  0  0  0  0  0
  192.0170  175.6070  137.2350 C   0  0  0  0  0  0  0  0  0  0  0  0
  182.9780  178.8630  144.6940 N   0  0  0  0  0  2  0  0  0  0  0  0
  181.9900  178.1050  143.9280 C   0  0  0  0  0  2  0  0  0  0  0  0
  181.0940  177.7220  141.0390 O   0  0  0  0  0  0  0  0  0  0  0  0
  181.3590  178.9790  142.8440 C   0  0  1  0  0  3  0  0  0  0  0  0
  179.2940  179.3740  144.2860 C   0  0  0  0  0  1  0  0  0  0  0  0
  180.3530  178.3370  140.0080 C   0  0  0  0  0  2  0  0  0  0  0  0
  179.1140  179.7850  141.7840 C   0  0  1  0  0  3  0  0  0  0  0  0
  180.7110  180.7080  140.1980 O   0  0  0  0  0  1  0  0  0  0  0  0
  181.8830  178.6500  141.5660 O   0  0  0  0  0  0  0  0  0  0  0  0
  179.8100  178.9760  142.9070 C   0  0  1  0  0  3  0  0  0  0  0  0
  178.9310  181.1190  142.1610 O   0  0  0  0  0  1  0  0  0  0  0  0
  179.7520  179.7050  140.3800 C   0  0  1  0  0  3  0  0  0  0  0  0
  1  7  1  6  0  0  0
  1  2  1  0  0  0  0
  1  6  1  0  0  0  0
  2  3  1  1  0  0  0
  3  8  1  0  0  0  0
  4 44  1  1  0  0  0
  4  5  1  0  0  0  0
  6  4  1  0  0  0  0
  8  5  1  0  0  0  0
  8 12  1  1  0  0  0
  9 13  2  0  0  0  0
  9 20  1  0  0  0  0
 10 11  1  0  0  0  0
 12 18  1  0  0  0  0
 14 16  2  0  0  0  0
 15 14  1  0  0  0  0
 15 19  2  0  0  0  0
 16 11  1  0  0  0  0
 16 13  1  0  0  0  0
 17 12  2  0  0  0  0
 17 14  1  0  0  0  0
 18 10  2  0  0  0  0
 19  9  1  0  0  0  0
 20 21  1  0  0  0  0
 22 29  1  1  0  0  0
 22  2  1  0  0  0  0
 22 24  1  0  0  0  0
 24 25  1  0  0  0  0
 25 23  2  0  0  0  0
 27 26  1  6  0  0  0
 27 25  1  0  0  0  0
 28 30  1  6  0  0  0
 28 29  1  0  0  0  0
 28 27  1  0  0  0  0
 31 30  1  0  0  0  0
 32 40  1  6  0  0  0
 32 31  1  0  0  0  0
 33 34  1  0  0  0  0
 33 32  1  0  0  0  0
 35 34  1  0  0  0  0
 35 36  1  0  0  0  0
 36 37  1  0  0  0  0
 38 39  1  0  0  0  0
 38 36  1  0  0  0  0
 40 43  1  0  0  0  0
 43 41  2  0  0  0  0
 43 42  1  0  0  0  0
 45 44  1  0  0  0  0
 46 52  1  0  0  0  0
 47 53  1  0  0  0  0
 47 45  1  1  0  0  0
 49 55  1  0  0  0  0
 49 46  1  0  0  0  0
 50 54  1  1  0  0  0
 50 53  1  0  0  0  0
 52 47  1  0  0  0  0
 53 48  1  1  0  0  0
 55 51  1  1  0  0  0
 55 50  1  0  0  0  0
M  END
>  <MODEL>
7

>  <REMARK>
 VINA RESULT:      -7.7      3.196     11.859
  Name = 
  16 active torsions:
  status: ('A' for Active; 'I' for Inactive)
    1  A    between atoms: C_1  and  O_4
    2  A    between atoms: C_2  and  C_26
    3  A    between atoms: C_2  and  C_34
    4  A    between atoms: C_3  and  C_25
    5  A    between atoms: C_3  and  C_37
    6  A    between atoms: C_6  and  C_30
    7  A    between atoms: C_7  and  C_25
    8  A    between atoms: C_7  and  C_39
    9  A    between atoms: C_8  and  N_28
   10  A    between atoms: N_12  and  C_15
   11  A    between atoms: C_23  and  C_53
   12  A    between atoms: C_24  and  N_32
   13  A    between atoms: C_25  and  C_34
   14  A    between atoms: C_26  and  N_28
   15  A    between atoms: C_30  and  N_32
   16  A    between atoms: C_39  and  C_49
                            x       y       z     vdW  Elec       q    Type
                         _______ _______ _______ _____ _____    ______ ____

>  <TORSDO>
F 16

$$$$
=
 OpenBabel10222417033D

 55 59  0  0  1  0  0  0  0  0999 V2000
  186.0070  179.3710  142.2720 C   0  0  2  0  0  3  0  0  0  0  0  0
  186.6460  178.0330  142.2540 N   0  0  2  0  0  0  0  0  0  0  0  0
  186.7640  177.4060  143.5910 C   0  0  0  0  0  2  0  0  0  0  0  0
  184.3270  178.6470  144.1280 C   0  0  2  0  0  3  0  0  0  0  0  0
  185.4060  178.8810  145.2030 C   0  0  0  0  0  2  0  0  0  0  0  0
  184.5470  179.3380  142.7630 C   0  0  0  0  0  2  0  0  0  0  0  0
  186.0170  179.9280  141.0000 F   0  0  0  0  0  0  0  0  0  0  0  0
  186.8010  178.4460  144.7280 C   0  0  1  0  0  3  0  0  0  0  0  0
  192.1220  176.2450  147.8550 C   0  0  0  0  0  0  0  0  0  0  0  0
  187.7140  177.8290  148.3260 C   0  0  0  0  0  3  0  0  0  0  0  0
  189.1090  178.3490  148.4490 C   0  0  0  0  0  2  0  0  0  0  0  0
  187.6970  178.0310  145.8440 C   0  0  0  0  0  0  0  0  0  0  0  0
  191.1270  176.9590  148.4460 N   0  0  0  0  0  0  0  0  0  0  0  0
  189.9870  177.2300  146.3530 C   0  0  0  0  0  0  0  0  0  0  0  0
  191.0090  176.5060  145.7320 C   0  0  0  0  0  3  0  0  0  0  0  0
  190.0730  177.4570  147.7420 C   0  0  0  0  0  0  0  0  0  0  0  0
  188.9320  177.7450  145.5260 N   0  0  0  0  0  0  0  0  0  0  0  0
  187.0920  177.7260  147.1540 C   0  0  0  0  0  3  0  0  0  0  0  0
  192.0760  176.0030  146.4760 C   0  0  0  0  0  3  0  0  0  0  0  0
  193.1820  175.7740  148.6280 O   0  0  0  0  0  0  0  0  0  0  0  0
  193.8230  176.5750  149.4870 O   0  0  0  0  0  1  0  0  0  0  0  0
  187.9750  178.1430  141.6240 C   0  0  1  0  0  3  0  0  0  0  0  0
  190.8860  179.2920  143.4620 O   0  0  0  0  0  0  0  0  0  0  0  0
  188.8870  178.9570  142.3870 O   0  0  0  0  0  0  0  0  0  0  0  0
  190.2070  178.5810  142.6800 C   0  0  0  0  0  0  0  0  0  0  0  0
  192.1290  177.4610  141.8600 F   0  0  0  0  0  0  0  0  0  0  0  0
  190.7850  177.3040  142.1540 C   0  0  2  0  0  3  0  0  0  0  0  0
  190.0040  176.8100  140.9340 C   0  0  1  0  0  3  0  0  0  0  0  0
  188.5210  176.7490  141.3040 C   0  0  0  0  0  2  0  0  0  0  0  0
  190.2180  177.6930  139.6970 C   0  0  0  0  0  2  0  0  0  0  0  0
  190.7830  176.9140  138.5140 C   0  0  0  0  0  2  0  0  0  0  0  0
  189.6980  176.2290  137.6920 C   0  0  2  0  0  3  0  0  0  0  0  0
  190.2480  174.9110  137.1730 C   0  0  0  0  0  2  0  0  0  0  0  0
  191.7270  174.7780  137.4890 C   0  0  0  0  0  2  0  0  0  0  0  0
  192.4740  174.3850  136.2280 C   0  0  0  0  0  2  0  0  0  0  0  0
  193.6640  173.6240  136.5790 N   0  0  0  0  0  0  0  0  0  0  0  0
  194.3730  173.3510  135.3400 C   0  0  0  0  0  1  0  0  0  0  0  0
  194.5170  174.4970  137.3730 C   0  0  0  0  0  2  0  0  0  0  0  0
  195.8540  174.2760  137.0440 O   0  0  0  0  0  1  0  0  0  0  0  0
  189.2620  177.1080  136.5250 C   0  0  0  0  0  2  0  0  0  0  0  0
  186.9720  177.5280  137.0410 O   0  0  0  0  0  0  0  0  0  0  0  0
  188.3820  179.3250  137.2660 O   0  0  0  0  0  1  0  0  0  0  0  0
  188.1380  177.9940  136.9470 C   0  0  0  0  0  0  0  0  0  0  0  0
  182.9760  178.8550  144.6540 N   0  0  0  0  0  2  0  0  0  0  0  0
  181.9970  178.0920  143.8800 C   0  0  0  0  0  2  0  0  0  0  0  0
  181.0650  177.7100  141.0020 O   0  0  0  0  0  0  0  0  0  0  0  0
  181.3570  178.9680  142.8030 C   0  0  1  0  0  3  0  0  0  0  0  0
  179.3120  179.3740  144.2690 C   0  0  0  0  0  1  0  0  0  0  0  0
  180.3140  178.3290  139.9790 C   0  0  0  0  0  2  0  0  0  0  0  0
  179.1030  179.7830  141.7690 C   0  0  1  0  0  3  0  0  0  0  0  0
  180.6860  180.6980  140.1630 O   0  0  0  0  0  1  0  0  0  0  0  0
  181.8640  178.6360  141.5190 O   0  0  0  0  0  0  0  0  0  0  0  0
  179.8090  178.9730  142.8840 C   0  0  1  0  0  3  0  0  0  0  0  0
  178.9310  181.1190  142.1470 O   0  0  0  0  0  1  0  0  0  0  0  0
  179.7240  179.6990  140.3570 C   0  0  1  0  0  3  0  0  0  0  0  0
  1  7  1  6  0  0  0
  1  6  1  0  0  0  0
  2  1  1  0  0  0  0
  2  3  1  1  0  0  0
  3  8  1  0  0  0  0
  4 44  1  1  0  0  0
  4  5  1  0  0  0  0
  6  4  1  0  0  0  0
  8  5  1  0  0  0  0
  8 12  1  1  0  0  0
  9 13  2  0  0  0  0
  9 20  1  0  0  0  0
 10 11  1  0  0  0  0
 12 18  1  0  0  0  0
 14 16  2  0  0  0  0
 15 14  1  0  0  0  0
 15 19  2  0  0  0  0
 16 13  1  0  0  0  0
 16 11  1  0  0  0  0
 17 12  2  0  0  0  0
 17 14  1  0  0  0  0
 18 10  2  0  0  0  0
 19  9  1  0  0  0  0
 20 21  1  0  0  0  0
 22 29  1  1  0  0  0
 22  2  1  0  0  0  0
 22 24  1  0  0  0  0
 24 25  1  0  0  0  0
 25 23  2  0  0  0  0
 27 26  1  6  0  0  0
 27 25  1  0  0  0  0
 28 30  1  6  0  0  0
 28 29  1  0  0  0  0
 28 27  1  0  0  0  0
 31 30  1  0  0  0  0
 32 40  1  6  0  0  0
 32 31  1  0  0  0  0
 33 34  1  0  0  0  0
 33 32  1  0  0  0  0
 35 36  1  0  0  0  0
 35 34  1  0  0  0  0
 36 38  1  0  0  0  0
 37 36  1  0  0  0  0
 39 38  1  0  0  0  0
 40 43  1  0  0  0  0
 43 41  2  0  0  0  0
 43 42  1  0  0  0  0
 45 44  1  0  0  0  0
 46 52  1  0  0  0  0
 47 53  1  0  0  0  0
 47 45  1  1  0  0  0
 49 55  1  0  0  0  0
 49 46  1  0  0  0  0
 50 54  1  1  0  0  0
 50 53  1  0  0  0  0
 52 47  1  0  0  0  0
 53 48  1  1  0  0  0
 55 51  1  1  0  0  0
 55 50  1  0  0  0  0
M  END
>  <MODEL>
8

>  <REMARK>
 VINA RESULT:      -7.6      3.168     12.377
  Name = 
  16 active torsions:
  status: ('A' for Active; 'I' for Inactive)
    1  A    between atoms: C_1  and  O_4
    2  A    between atoms: C_2  and  C_26
    3  A    between atoms: C_2  and  C_34
    4  A    between atoms: C_3  and  C_25
    5  A    between atoms: C_3  and  C_37
    6  A    between atoms: C_6  and  C_30
    7  A    between atoms: C_7  and  C_25
    8  A    between atoms: C_7  and  C_39
    9  A    between atoms: C_8  and  N_28
   10  A    between atoms: N_12  and  C_15
   11  A    between atoms: C_23  and  C_53
   12  A    between atoms: C_24  and  N_32
   13  A    between atoms: C_25  and  C_34
   14  A    between atoms: C_26  and  N_28
   15  A    between atoms: C_30  and  N_32
   16  A    between atoms: C_39  and  C_49
                            x       y       z     vdW  Elec       q    Type
                         _______ _______ _______ _____ _____    ______ ____

>  <TORSDO>
F 16

$$$$
=
 OpenBabel10222417033D

 55 59  0  0  1  0  0  0  0  0999 V2000
  191.9810  177.1340  139.2650 C   0  0  2  0  0  3  0  0  0  0  0  0
  191.0950  176.0080  139.6400 N   0  0  2  0  0  0  0  0  0  0  0  0
  190.2190  175.5400  138.5410 C   0  0  0  0  0  2  0  0  0  0  0  0
  192.3710  176.1570  136.8810 C   0  0  2  0  0  3  0  0  0  0  0  0
  191.0250  176.7430  136.4150 C   0  0  0  0  0  2  0  0  0  0  0  0
  192.9890  176.7690  138.1580 C   0  0  0  0  0  2  0  0  0  0  0  0
  192.7000  177.5730  140.3690 F   0  0  0  0  0  0  0  0  0  0  0  0
  189.9420  176.6430  137.4990 C   0  0  1  0  0  3  0  0  0  0  0  0
  183.4860  177.5850  136.8920 C   0  0  0  0  0  0  0  0  0  0  0  0
  187.3060  175.5470  135.0470 C   0  0  0  0  0  3  0  0  0  0  0  0
  186.4730  176.7670  134.8280 C   0  0  0  0  0  2  0  0  0  0  0  0
  188.5610  176.5610  136.9450 C   0  0  0  0  0  0  0  0  0  0  0  0
  184.3000  177.1860  135.8800 N   0  0  0  0  0  0  0  0  0  0  0  0
  186.2400  177.3630  137.2780 C   0  0  0  0  0  0  0  0  0  0  0  0
  185.4140  177.7830  138.3260 C   0  0  0  0  0  3  0  0  0  0  0  0
  185.6480  177.0710  136.0320 C   0  0  0  0  0  0  0  0  0  0  0  0
  187.6530  177.3020  137.5220 N   0  0  0  0  0  0  0  0  0  0  0  0
  188.2560  175.4900  135.9770 C   0  0  0  0  0  3  0  0  0  0  0  0
  184.0360  177.8900  138.1440 C   0  0  0  0  0  3  0  0  0  0  0  0
  182.1150  177.6970  136.6690 O   0  0  0  0  0  0  0  0  0  0  0  0
  181.2270  177.2750  137.5770 O   0  0  0  0  0  1  0  0  0  0  0  0
  190.2820  176.4030  140.8060 C   0  0  1  0  0  3  0  0  0  0  0  0
  191.7100  176.7160  144.1280 O   0  0  0  0  0  0  0  0  0  0  0  0
  190.9270  176.1050  142.0600 O   0  0  0  0  0  0  0  0  0  0  0  0
  191.0160  177.0150  143.1250 C   0  0  0  0  0  0  0  0  0  0  0  0
  189.8980  178.7530  144.2850 F   0  0  0  0  0  0  0  0  0  0  0  0
  190.3780  178.3670  143.0460 C   0  0  2  0  0  3  0  0  0  0  0  0
  189.2710  178.3890  141.9890 C   0  0  1  0  0  3  0  0  0  0  0  0
  189.8490  177.8650  140.6740 C   0  0  0  0  0  2  0  0  0  0  0  0
  188.0400  177.5720  142.4040 C   0  0  0  0  0  2  0  0  0  0  0  0
  186.7310  178.2950  142.1040 C   0  0  0  0  0  2  0  0  0  0  0  0
  185.8980  178.5400  143.3560 C   0  0  2  0  0  3  0  0  0  0  0  0
  186.4190  177.6420  144.4650 C   0  0  0  0  0  2  0  0  0  0  0  0
  186.5580  178.4100  145.7670 C   0  0  0  0  0  2  0  0  0  0  0  0
  187.1670  177.5030  146.8200 C   0  0  0  0  0  2  0  0  0  0  0  0
  188.3180  178.1570  147.4250 N   0  0  0  0  0  0  0  0  0  0  0  0
  188.0430  178.2650  148.8480 C   0  0  0  0  0  1  0  0  0  0  0  0
  189.4540  177.2570  147.2790 C   0  0  0  0  0  2  0  0  0  0  0  0
  189.3050  176.4960  146.1210 O   0  0  0  0  0  1  0  0  0  0  0  0
  184.4240  178.2480  143.0960 C   0  0  0  0  0  2  0  0  0  0  0  0
  183.7750  180.3770  143.9520 O   0  0  0  0  0  0  0  0  0  0  0  0
  182.5360  178.5930  144.6940 O   0  0  0  0  0  1  0  0  0  0  0  0
  183.5730  179.1340  143.9420 C   0  0  0  0  0  0  0  0  0  0  0  0
  193.3340  176.0540  135.7820 N   0  0  0  0  0  2  0  0  0  0  0  0
  193.7000  174.6580  135.5430 C   0  0  0  0  0  2  0  0  0  0  0  0
  195.7710  174.8610  137.7720 O   0  0  0  0  0  0  0  0  0  0  0  0
  195.2120  174.4670  135.6640 C   0  0  1  0  0  3  0  0  0  0  0  0
  195.0150  172.0240  134.9610 C   0  0  0  0  0  1  0  0  0  0  0  0
  197.1110  174.5460  138.0850 C   0  0  0  0  0  2  0  0  0  0  0  0
  197.1170  172.7610  136.1870 C   0  0  1  0  0  3  0  0  0  0  0  0
  198.3920  174.8300  136.0690 O   0  0  0  0  0  1  0  0  0  0  0  0
  195.7670  175.4130  136.5650 O   0  0  0  0  0  0  0  0  0  0  0  0
  195.6010  173.0000  135.9770 C   0  0  1  0  0  3  0  0  0  0  0  0
  197.7540  172.4640  134.9780 O   0  0  0  0  0  1  0  0  0  0  0  0
  197.8900  173.8610  136.9470 C   0  0  1  0  0  3  0  0  0  0  0  0
  1  2  1  0  0  0  0
  1  7  1  1  0  0  0
  2  3  1  6  0  0  0
  2 22  1  0  0  0  0
  4 44  1  6  0  0  0
  4  6  1  0  0  0  0
  5  4  1  0  0  0  0
  5  8  1  0  0  0  0
  6  1  1  0  0  0  0
  8 12  1  6  0  0  0
  8  3  1  0  0  0  0
  9 19  1  0  0  0  0
 10 18  2  0  0  0  0
 11 10  1  0  0  0  0
 11 16  1  0  0  0  0
 12 17  2  0  0  0  0
 13 16  1  0  0  0  0
 13  9  2  0  0  0  0
 14 17  1  0  0  0  0
 14 15  1  0  0  0  0
 16 14  2  0  0  0  0
 18 12  1  0  0  0  0
 19 15  2  0  0  0  0
 20  9  1  0  0  0  0
 20 21  1  0  0  0  0
 22 29  1  6  0  0  0
 22 24  1  0  0  0  0
 24 25  1  0  0  0  0
 25 23  2  0  0  0  0
 27 25  1  0  0  0  0
 27 26  1  1  0  0  0
 28 30  1  1  0  0  0
 28 27  1  0  0  0  0
 29 28  1  0  0  0  0
 31 30  1  0  0  0  0
 32 31  1  6  0  0  0
 32 33  1  0  0  0  0
 33 34  1  0  0  0  0
 34 35  1  0  0  0  0
 35 36  1  0  0  0  0
 36 37  1  0  0  0  0
 38 36  1  0  0  0  0
 39 38  1  0  0  0  0
 40 32  1  0  0  0  0
 40 43  1  0  0  0  0
 43 41  2  0  0  0  0
 43 42  1  0  0  0  0
 45 44  1  0  0  0  0
 46 49  1  0  0  0  0
 47 45  1  1  0  0  0
 47 53  1  0  0  0  0
 47 52  1  0  0  0  0
 50 54  1  6  0  0  0
 50 55  1  0  0  0  0
 52 46  1  0  0  0  0
 53 48  1  6  0  0  0
 53 50  1  0  0  0  0
 55 51  1  6  0  0  0
 55 49  1  0  0  0  0
M  END
>  <MODEL>
9

>  <REMARK>
 VINA RESULT:      -7.4      1.739      3.618
  Name = 
  16 active torsions:
  status: ('A' for Active; 'I' for Inactive)
    1  A    between atoms: C_1  and  O_4
    2  A    between atoms: C_2  and  C_26
    3  A    between atoms: C_2  and  C_34
    4  A    between atoms: C_3  and  C_25
    5  A    between atoms: C_3  and  C_37
    6  A    between atoms: C_6  and  C_30
    7  A    between atoms: C_7  and  C_25
    8  A    between atoms: C_7  and  C_39
    9  A    between atoms: C_8  and  N_28
   10  A    between atoms: N_12  and  C_15
   11  A    between atoms: C_23  and  C_53
   12  A    between atoms: C_24  and  N_32
   13  A    between atoms: C_25  and  C_34
   14  A    between atoms: C_26  and  N_28
   15  A    between atoms: C_30  and  N_32
   16  A    between atoms: C_39  and  C_49
                            x       y       z     vdW  Elec       q    Type
                         _______ _______ _______ _____ _____    ______ ____

>  <TORSDO>
F 16

$$$$
