=
 OpenBabel10222420483D

 39 41  0  0  1  0  0  0  0  0999 V2000
  190.4650  177.1830  137.7640 N   0  0  0  0  0  0  0  0  0  0  0  0
  190.0380  177.6250  138.9140 C   0  0  0  0  0  0  0  0  0  0  0  0
  192.4440  175.9170  138.1270 N   0  0  0  0  0  0  0  0  0  0  0  0
  194.3440  174.1460  138.0680 C   0  0  1  0  0  3  0  0  0  0  0  0
  192.3330  174.2110  136.6370 C   0  0  0  0  0  0  0  0  0  0  0  0
  191.3300  176.0690  137.4860 C   0  0  0  0  0  0  0  0  0  0  0  0
  194.9170  173.2770  137.0330 N   0  0  0  0  0  2  0  0  0  0  0  0
  191.1240  175.0390  136.4120 C   0  0  0  0  0  2  0  0  0  0  0  0
  195.3030  175.1790  138.4160 N   0  0  0  0  0  1  0  0  0  0  0  0
  192.7430  172.9740  135.8960 C   0  0  2  0  0  3  0  0  0  0  0  0
  191.6750  172.0990  135.8280 F   0  0  0  0  0  0  0  0  0  0  0  0
  193.0720  174.7710  137.5740 C   0  0  0  0  0  0  0  0  0  0  0  0
  193.9170  172.2900  136.6140 C   0  0  1  0  0  3  0  0  0  0  0  0
  194.5040  171.3730  135.7640 F   0  0  0  0  0  0  0  0  0  0  0  0
  191.4890  177.7950  140.9640 N   0  0  0  0  0  2  0  0  0  0  0  0
  189.8710  176.0910  140.7510 N   0  0  0  0  0  2  0  0  0  0  0  0
  190.5010  177.0840  140.2110 C   0  0  0  0  0  0  0  0  0  0  0  0
  191.9480  177.3540  142.2760 C   0  0  0  0  0  2  0  0  0  0  0  0
  191.6730  178.4150  143.3290 C   0  0  0  0  0  2  0  0  0  0  0  0
  189.4740  176.6380  147.4830 C   0  0  0  0  0  1  0  0  0  0  0  0
  189.4260  177.6210  144.8550 O   0  0  0  0  0  0  0  0  0  0  0  0
  190.6660  177.0470  146.7550 N   0  0  0  0  0  0  0  0  0  0  0  0
  191.7380  177.8360  144.6610 N   0  0  0  0  0  2  0  0  0  0  0  0
  190.5590  177.5050  145.3980 C   0  0  0  0  0  0  0  0  0  0  0  0
  191.9210  176.8310  147.3460 N   0  0  0  0  0  2  0  0  0  0  0  0
  192.2100  175.4060  147.2650 C   0  0  0  0  0  1  0  0  0  0  0  0
  189.1030  178.8040  138.8900 C   0  0  1  0  0  3  0  0  0  0  0  0
  188.9150  179.2860  137.5950 O   0  0  0  0  0  1  0  0  0  0  0  0
  187.5720  178.9220  140.8940 N   0  0  0  0  0  2  0  0  0  0  0  0
  187.7840  178.5120  139.5370 C   0  0  0  0  0  0  0  0  0  0  0  0
  186.8510  177.9790  138.8770 O   0  0  0  0  0  0  0  0  0  0  0  0
  186.3390  178.0280  144.1270 C   0  0  0  0  0  3  0  0  0  0  0  0
  185.1240  178.4510  144.4800 C   0  0  0  0  0  0  0  0  0  0  0  0
  185.2320  179.0300  141.4550 C   0  0  0  0  0  3  0  0  0  0  0  0
  184.0160  178.7520  142.2440 C   0  0  0  0  0  3  0  0  0  0  0  0
  186.6700  177.5160  142.7640 C   0  0  0  0  0  2  0  0  0  0  0  0
  184.8520  178.8770  146.1570 Cl  0  0  0  0  0  0  0  0  0  0  0  0
  186.4580  178.5610  141.7180 C   0  0  0  0  0  0  0  0  0  0  0  0
  183.9700  178.5000  143.5580 C   0  0  0  0  0  3  0  0  0  0  0  0
  1  2  2  0  0  0  0
  2 17  1  0  0  0  0
  4  9  1  6  0  0  0
  5 12  2  0  0  0  0
  6  1  1  0  0  0  0
  6  3  2  0  0  0  0
  7  4  1  0  0  0  0
  8  5  1  0  0  0  0
  8  6  1  0  0  0  0
 10 11  1  1  0  0  0
 10 13  1  0  0  0  0
 10  5  1  0  0  0  0
 12  4  1  0  0  0  0
 12  3  1  0  0  0  0
 13 14  1  6  0  0  0
 13  7  1  0  0  0  0
 15 18  1  0  0  0  0
 17 16  2  0  0  0  0
 17 15  1  0  0  0  0
 18 19  1  0  0  0  0
 19 23  1  0  0  0  0
 21 24  2  0  0  0  0
 22 25  1  0  0  0  0
 22 20  1  0  0  0  0
 23 24  1  0  0  0  0
 24 22  1  0  0  0  0
 26 25  1  0  0  0  0
 27 28  1  6  0  0  0
 27  2  1  0  0  0  0
 27 30  1  0  0  0  0
 29 38  1  0  0  0  0
 30 29  1  0  0  0  0
 31 30  2  0  0  0  0
 32 33  2  0  0  0  0
 33 37  1  0  0  0  0
 34 38  2  0  0  0  0
 34 35  1  0  0  0  0
 35 39  2  0  0  0  0
 36 32  1  0  0  0  0
 38 36  1  0  0  0  0
 39 33  1  0  0  0  0
M  END
>  <MODEL>
1

>  <REMARK>
 VINA RESULT:      -8.6      0.000      0.000
  Name = 
  9 active torsions:
  status: ('A' for Active; 'I' for Inactive)
    1  A    between atoms: N_5  and  N_26
    2  A    between atoms: C_8  and  N_14
    3  A    between atoms: N_10  and  C_29
    4  A    between atoms: C_16  and  C_17
    5  A    between atoms: C_16  and  C_32
    6  A    between atoms: C_28  and  N_30
    7  A    between atoms: C_28  and  C_35
    8  A    between atoms: C_32  and  C_39
    9  A    between atoms: C_35  and  N_36
                            x       y       z     vdW  Elec       q    Type
                         _______ _______ _______ _____ _____    ______ ____

>  <TORSDO>
F 9

$$$$
=
 OpenBabel10222420483D

 39 41  0  0  1  0  0  0  0  0999 V2000
  186.1130  178.8510  142.5840 N   0  0  0  0  0  0  0  0  0  0  0  0
  184.8340  179.0310  142.4070 C   0  0  0  0  0  0  0  0  0  0  0  0
  187.0550  178.8460  140.4020 N   0  0  0  0  0  0  0  0  0  0  0  0
  188.5390  178.4680  138.3030 C   0  0  1  0  0  3  0  0  0  0  0  0
  188.8710  177.4950  140.5480 C   0  0  0  0  0  0  0  0  0  0  0  0
  187.1120  178.4490  141.6320 C   0  0  0  0  0  0  0  0  0  0  0  0
  189.3970  177.3780  137.8240 N   0  0  0  0  0  2  0  0  0  0  0  0
  188.2420  177.4930  141.8900 C   0  0  0  0  0  2  0  0  0  0  0  0
  187.3570  178.5570  137.4640 N   0  0  0  0  0  1  0  0  0  0  0  0
  190.0920  176.7440  140.1110 C   0  0  2  0  0  3  0  0  0  0  0  0
  191.1110  176.9450  141.0220 F   0  0  0  0  0  0  0  0  0  0  0  0
  188.1400  178.2270  139.7300 C   0  0  0  0  0  0  0  0  0  0  0  0
  190.5450  177.2270  138.7250 C   0  0  1  0  0  3  0  0  0  0  0  0
  191.4340  176.3160  138.1870 F   0  0  0  0  0  0  0  0  0  0  0  0
  184.0580  179.7100  140.1100 N   0  0  0  0  0  2  0  0  0  0  0  0
  183.7970  177.4960  140.8830 N   0  0  0  0  0  2  0  0  0  0  0  0
  184.1410  178.7170  141.1380 C   0  0  0  0  0  0  0  0  0  0  0  0
  183.4440  179.4510  138.8130 C   0  0  0  0  0  2  0  0  0  0  0  0
  181.9680  179.8120  138.8320 C   0  0  0  0  0  2  0  0  0  0  0  0
  179.2980  184.0200  138.1910 C   0  0  0  0  0  1  0  0  0  0  0  0
  179.8480  181.5790  139.4610 O   0  0  0  0  0  0  0  0  0  0  0  0
  180.3960  183.1450  137.8100 N   0  0  0  0  0  0  0  0  0  0  0  0
  181.7550  181.1090  138.2080 N   0  0  0  0  0  2  0  0  0  0  0  0
  180.6330  181.9290  138.5360 C   0  0  0  0  0  0  0  0  0  0  0  0
  181.3050  183.5930  136.8380 N   0  0  0  0  0  2  0  0  0  0  0  0
  180.9460  184.9610  136.4910 C   0  0  0  0  0  1  0  0  0  0  0  0
  184.0360  179.4920  143.5970 C   0  0  1  0  0  3  0  0  0  0  0  0
  182.6950  179.1240  143.4920 O   0  0  0  0  0  1  0  0  0  0  0  0
  186.0330  178.9560  145.0460 N   0  0  0  0  0  2  0  0  0  0  0  0
  184.6090  179.0200  144.8990 C   0  0  0  0  0  0  0  0  0  0  0  0
  183.8510  178.7520  145.8710 O   0  0  0  0  0  0  0  0  0  0  0  0
  188.8050  177.0010  146.1720 C   0  0  0  0  0  3  0  0  0  0  0  0
  189.3560  177.3050  147.3490 C   0  0  0  0  0  0  0  0  0  0  0  0
  186.7330  178.9230  147.3500 C   0  0  0  0  0  3  0  0  0  0  0  0
  187.4420  178.4170  148.5410 C   0  0  0  0  0  3  0  0  0  0  0  0
  187.3310  177.0010  145.9290 C   0  0  0  0  0  2  0  0  0  0  0  0
  191.0880  177.1120  147.5240 Cl  0  0  0  0  0  0  0  0  0  0  0  0
  186.7390  178.3560  146.1380 C   0  0  0  0  0  0  0  0  0  0  0  0
  188.5820  177.7130  148.5400 C   0  0  0  0  0  3  0  0  0  0  0  0
  2  1  2  0  0  0  0
  2 27  1  0  0  0  0
  3  6  2  0  0  0  0
  4  9  1  6  0  0  0
  4 12  1  0  0  0  0
  5  8  1  0  0  0  0
  6  8  1  0  0  0  0
  6  1  1  0  0  0  0
  7  4  1  0  0  0  0
  7 13  1  0  0  0  0
 10  5  1  0  0  0  0
 10 11  1  1  0  0  0
 12  3  1  0  0  0  0
 12  5  2  0  0  0  0
 13 14  1  6  0  0  0
 13 10  1  0  0  0  0
 15 17  1  0  0  0  0
 16 17  2  0  0  0  0
 17  2  1  0  0  0  0
 18 19  1  0  0  0  0
 18 15  1  0  0  0  0
 22 20  1  0  0  0  0
 22 24  1  0  0  0  0
 23 24  1  0  0  0  0
 23 19  1  0  0  0  0
 24 21  2  0  0  0  0
 25 22  1  0  0  0  0
 26 25  1  0  0  0  0
 27 28  1  6  0  0  0
 27 30  1  0  0  0  0
 29 38  1  0  0  0  0
 30 29  1  0  0  0  0
 30 31  2  0  0  0  0
 32 33  2  0  0  0  0
 33 37  1  0  0  0  0
 33 39  1  0  0  0  0
 34 35  1  0  0  0  0
 36 38  1  0  0  0  0
 36 32  1  0  0  0  0
 38 34  2  0  0  0  0
 39 35  2  0  0  0  0
M  END
>  <MODEL>
2

>  <REMARK>
 VINA RESULT:      -8.3      4.466      8.766
  Name = 
  9 active torsions:
  status: ('A' for Active; 'I' for Inactive)
    1  A    between atoms: N_5  and  N_26
    2  A    between atoms: C_8  and  N_14
    3  A    between atoms: N_10  and  C_29
    4  A    between atoms: C_16  and  C_17
    5  A    between atoms: C_16  and  C_32
    6  A    between atoms: C_28  and  N_30
    7  A    between atoms: C_28  and  C_35
    8  A    between atoms: C_32  and  C_39
    9  A    between atoms: C_35  and  N_36
                            x       y       z     vdW  Elec       q    Type
                         _______ _______ _______ _____ _____    ______ ____

>  <TORSDO>
F 9

$$$$
=
 OpenBabel10222420483D

 39 41  0  0  1  0  0  0  0  0999 V2000
  186.0190  178.5920  141.6580 N   0  0  0  0  0  0  0  0  0  0  0  0
  184.8650  178.9650  141.1800 C   0  0  0  0  0  0  0  0  0  0  0  0
  187.4050  178.6260  139.7270 N   0  0  0  0  0  0  0  0  0  0  0  0
  189.3280  178.3320  138.0050 C   0  0  1  0  0  3  0  0  0  0  0  0
  189.2410  177.4250  140.3000 C   0  0  0  0  0  0  0  0  0  0  0  0
  187.2260  178.2550  140.9530 C   0  0  0  0  0  0  0  0  0  0  0  0
  190.3470  177.3050  137.7550 N   0  0  0  0  0  2  0  0  0  0  0  0
  188.3410  177.3950  141.4770 C   0  0  0  0  0  2  0  0  0  0  0  0
  188.3510  178.3140  136.9320 N   0  0  0  0  0  1  0  0  0  0  0  0
  190.5790  176.7640  140.1570 C   0  0  2  0  0  3  0  0  0  0  0  0
  191.3620  177.0600  141.2570 F   0  0  0  0  0  0  0  0  0  0  0  0
  188.6520  178.0830  139.3220 C   0  0  0  0  0  0  0  0  0  0  0  0
  191.2830  177.2600  138.8840 C   0  0  1  0  0  3  0  0  0  0  0  0
  192.3310  176.4130  138.5780 F   0  0  0  0  0  0  0  0  0  0  0  0
  184.1970  177.7770  139.0620 N   0  0  0  0  0  2  0  0  0  0  0  0
  184.4230  180.1260  139.1260 N   0  0  0  0  0  2  0  0  0  0  0  0
  184.5600  178.9900  139.7310 C   0  0  0  0  0  0  0  0  0  0  0  0
  183.8250  177.7370  137.6530 C   0  0  0  0  0  2  0  0  0  0  0  0
  184.9050  177.0530  136.8290 C   0  0  0  0  0  2  0  0  0  0  0  0
  187.3130  172.6460  136.6810 C   0  0  0  0  0  1  0  0  0  0  0  0
  187.0040  175.3490  135.9940 O   0  0  0  0  0  0  0  0  0  0  0  0
  186.1990  173.4680  137.1300 N   0  0  0  0  0  0  0  0  0  0  0  0
  185.0800  175.6770  137.2660 N   0  0  0  0  0  2  0  0  0  0  0  0
  186.1340  174.8550  136.7640 C   0  0  0  0  0  0  0  0  0  0  0  0
  185.2910  172.9220  138.0510 N   0  0  0  0  0  2  0  0  0  0  0  0
  184.2570  172.2280  137.2980 C   0  0  0  0  0  1  0  0  0  0  0  0
  183.7830  179.2890  142.1740 C   0  0  1  0  0  3  0  0  0  0  0  0
  182.5500  178.7700  141.7820 O   0  0  0  0  0  1  0  0  0  0  0  0
  185.4520  179.0510  144.0540 N   0  0  0  0  0  2  0  0  0  0  0  0
  184.1210  178.8430  143.5650 C   0  0  0  0  0  0  0  0  0  0  0  0
  183.2300  178.3590  144.3150 O   0  0  0  0  0  0  0  0  0  0  0  0
  188.0540  177.2290  145.6920 C   0  0  0  0  0  3  0  0  0  0  0  0
  188.4090  177.6030  146.9230 C   0  0  0  0  0  0  0  0  0  0  0  0
  185.7860  179.1450  146.4380 C   0  0  0  0  0  3  0  0  0  0  0  0
  186.3110  178.7150  147.7480 C   0  0  0  0  0  3  0  0  0  0  0  0
  186.6370  177.1770  145.2250 C   0  0  0  0  0  2  0  0  0  0  0  0
  190.0970  177.4670  147.3730 Cl  0  0  0  0  0  0  0  0  0  0  0  0
  185.9920  178.5230  145.2710 C   0  0  0  0  0  0  0  0  0  0  0  0
  187.4510  178.0440  147.9580 C   0  0  0  0  0  3  0  0  0  0  0  0
  2  1  2  0  0  0  0
  2 27  1  0  0  0  0
  3  6  2  0  0  0  0
  4  9  1  6  0  0  0
  4 12  1  0  0  0  0
  5  8  1  0  0  0  0
  6  8  1  0  0  0  0
  6  1  1  0  0  0  0
  7  4  1  0  0  0  0
  7 13  1  0  0  0  0
 10  5  1  0  0  0  0
 10 11  1  1  0  0  0
 12  3  1  0  0  0  0
 12  5  2  0  0  0  0
 13 14  1  6  0  0  0
 13 10  1  0  0  0  0
 15 17  1  0  0  0  0
 16 17  2  0  0  0  0
 17  2  1  0  0  0  0
 18 15  1  0  0  0  0
 19 23  1  0  0  0  0
 19 18  1  0  0  0  0
 20 22  1  0  0  0  0
 21 24  2  0  0  0  0
 22 25  1  0  0  0  0
 24 22  1  0  0  0  0
 24 23  1  0  0  0  0
 26 25  1  0  0  0  0
 27 28  1  6  0  0  0
 27 30  1  0  0  0  0
 29 38  1  0  0  0  0
 30 29  1  0  0  0  0
 30 31  2  0  0  0  0
 32 33  2  0  0  0  0
 33 37  1  0  0  0  0
 33 39  1  0  0  0  0
 34 35  1  0  0  0  0
 35 39  2  0  0  0  0
 36 38  1  0  0  0  0
 36 32  1  0  0  0  0
 38 34  2  0  0  0  0
M  END
>  <MODEL>
3

>  <REMARK>
 VINA RESULT:      -8.2      3.908      7.338
  Name = 
  9 active torsions:
  status: ('A' for Active; 'I' for Inactive)
    1  A    between atoms: N_5  and  N_26
    2  A    between atoms: C_8  and  N_14
    3  A    between atoms: N_10  and  C_29
    4  A    between atoms: C_16  and  C_17
    5  A    between atoms: C_16  and  C_32
    6  A    between atoms: C_28  and  N_30
    7  A    between atoms: C_28  and  C_35
    8  A    between atoms: C_32  and  C_39
    9  A    between atoms: C_35  and  N_36
                            x       y       z     vdW  Elec       q    Type
                         _______ _______ _______ _____ _____    ______ ____

>  <TORSDO>
F 9

$$$$
=
 OpenBabel10222420483D

 39 41  0  0  1  0  0  0  0  0999 V2000
  186.4770  178.7590  142.1790 N   0  0  0  0  0  0  0  0  0  0  0  0
  185.2050  179.0140  142.0470 C   0  0  0  0  0  0  0  0  0  0  0  0
  187.2450  178.6190  139.9340 N   0  0  0  0  0  0  0  0  0  0  0  0
  188.5850  178.1530  137.7580 C   0  0  1  0  0  3  0  0  0  0  0  0
  189.1610  177.4110  140.0420 C   0  0  0  0  0  0  0  0  0  0  0  0
  187.4250  178.3400  141.1850 C   0  0  0  0  0  0  0  0  0  0  0  0
  189.4810  177.0830  137.3030 N   0  0  0  0  0  2  0  0  0  0  0  0
  188.6400  177.4890  141.4280 C   0  0  0  0  0  2  0  0  0  0  0  0
  187.3380  178.0860  137.0170 N   0  0  0  0  0  1  0  0  0  0  0  0
  190.3960  176.7060  139.5700 C   0  0  2  0  0  3  0  0  0  0  0  0
  191.4660  177.0560  140.3720 F   0  0  0  0  0  0  0  0  0  0  0  0
  188.3170  178.0150  139.2290 C   0  0  0  0  0  0  0  0  0  0  0  0
  190.7040  177.0910  138.1140 C   0  0  1  0  0  3  0  0  0  0  0  0
  191.6130  176.1960  137.5830 F   0  0  0  0  0  0  0  0  0  0  0  0
  183.6760  177.5980  140.6340 N   0  0  0  0  0  2  0  0  0  0  0  0
  184.3590  179.7420  139.9230 N   0  0  0  0  0  2  0  0  0  0  0  0
  184.4610  178.7850  140.7870 C   0  0  0  0  0  0  0  0  0  0  0  0
  182.8710  177.3360  139.4460 C   0  0  0  0  0  2  0  0  0  0  0  0
  181.4120  177.1280  139.8200 C   0  0  0  0  0  2  0  0  0  0  0  0
  179.1430  181.5710  140.4170 C   0  0  0  0  0  1  0  0  0  0  0  0
  179.9470  179.3610  138.8850 O   0  0  0  0  0  0  0  0  0  0  0  0
  179.9120  180.4580  140.9520 N   0  0  0  0  0  0  0  0  0  0  0  0
  180.9420  178.2210  140.6560 N   0  0  0  0  0  2  0  0  0  0  0  0
  180.2510  179.3460  140.1100 C   0  0  0  0  0  0  0  0  0  0  0  0
  180.1670  180.4210  142.3320 N   0  0  0  0  0  2  0  0  0  0  0  0
  178.9320  180.0370  143.0020 C   0  0  0  0  0  1  0  0  0  0  0  0
  184.4660  179.4720  143.2750 C   0  0  1  0  0  3  0  0  0  0  0  0
  183.0920  179.2690  143.1550 O   0  0  0  0  0  1  0  0  0  0  0  0
  186.3860  178.8990  144.8110 N   0  0  0  0  0  2  0  0  0  0  0  0
  184.9820  178.8400  144.5320 C   0  0  0  0  0  0  0  0  0  0  0  0
  184.1840  178.3290  145.3650 O   0  0  0  0  0  0  0  0  0  0  0  0
  189.2070  176.9590  145.8380 C   0  0  0  0  0  3  0  0  0  0  0  0
  189.6720  177.1270  147.0770 C   0  0  0  0  0  0  0  0  0  0  0  0
  186.9580  178.5870  147.1300 C   0  0  0  0  0  3  0  0  0  0  0  0
  187.6300  177.9600  148.2840 C   0  0  0  0  0  3  0  0  0  0  0  0
  187.7520  176.9140  145.5040 C   0  0  0  0  0  2  0  0  0  0  0  0
  191.4000  177.0050  147.3340 Cl  0  0  0  0  0  0  0  0  0  0  0  0
  187.0670  178.1930  145.8550 C   0  0  0  0  0  0  0  0  0  0  0  0
  188.8090  177.3250  148.2610 C   0  0  0  0  0  3  0  0  0  0  0  0
  2  1  2  0  0  0  0
  2 27  1  0  0  0  0
  3  6  2  0  0  0  0
  4  9  1  6  0  0  0
  4 12  1  0  0  0  0
  5  8  1  0  0  0  0
  6  8  1  0  0  0  0
  6  1  1  0  0  0  0
  7  4  1  0  0  0  0
  7 13  1  0  0  0  0
 10  5  1  0  0  0  0
 10 11  1  1  0  0  0
 12  3  1  0  0  0  0
 12  5  2  0  0  0  0
 13 14  1  6  0  0  0
 13 10  1  0  0  0  0
 15 17  1  0  0  0  0
 16 17  2  0  0  0  0
 17  2  1  0  0  0  0
 18 19  1  0  0  0  0
 18 15  1  0  0  0  0
 19 23  1  0  0  0  0
 20 22  1  0  0  0  0
 21 24  2  0  0  0  0
 22 25  1  0  0  0  0
 24 23  1  0  0  0  0
 24 22  1  0  0  0  0
 25 26  1  0  0  0  0
 27 28  1  6  0  0  0
 27 30  1  0  0  0  0
 29 38  1  0  0  0  0
 30 29  1  0  0  0  0
 30 31  2  0  0  0  0
 32 33  2  0  0  0  0
 33 37  1  0  0  0  0
 33 39  1  0  0  0  0
 34 35  1  0  0  0  0
 36 32  1  0  0  0  0
 36 38  1  0  0  0  0
 38 34  2  0  0  0  0
 39 35  2  0  0  0  0
M  END
>  <MODEL>
4

>  <REMARK>
 VINA RESULT:      -8.1      3.992      8.018
  Name = 
  9 active torsions:
  status: ('A' for Active; 'I' for Inactive)
    1  A    between atoms: N_5  and  N_26
    2  A    between atoms: C_8  and  N_14
    3  A    between atoms: N_10  and  C_29
    4  A    between atoms: C_16  and  C_17
    5  A    between atoms: C_16  and  C_32
    6  A    between atoms: C_28  and  N_30
    7  A    between atoms: C_28  and  C_35
    8  A    between atoms: C_32  and  C_39
    9  A    between atoms: C_35  and  N_36
                            x       y       z     vdW  Elec       q    Type
                         _______ _______ _______ _____ _____    ______ ____

>  <TORSDO>
F 9

$$$$
=
 OpenBabel10222420483D

 39 41  0  0  1  0  0  0  0  0999 V2000
  187.9590  178.3840  140.4510 N   0  0  0  0  0  0  0  0  0  0  0  0
  188.6700  178.0500  139.4090 C   0  0  0  0  0  0  0  0  0  0  0  0
  189.3760  178.4050  142.3590 N   0  0  0  0  0  0  0  0  0  0  0  0
  190.3920  178.1950  144.7410 C   0  0  1  0  0  3  0  0  0  0  0  0
  188.1250  177.5190  144.0300 C   0  0  0  0  0  0  0  0  0  0  0  0
  188.2200  178.1380  141.8420 C   0  0  0  0  0  0  0  0  0  0  0  0
  190.1850  177.2910  145.8780 N   0  0  0  0  0  2  0  0  0  0  0  0
  187.2760  177.4900  142.8150 C   0  0  0  0  0  2  0  0  0  0  0  0
  191.6940  177.9400  144.1520 N   0  0  0  0  0  1  0  0  0  0  0  0
  187.7730  177.0290  145.4020 C   0  0  2  0  0  3  0  0  0  0  0  0
  186.5410  177.5340  145.7730 F   0  0  0  0  0  0  0  0  0  0  0  0
  189.3150  177.9920  143.7150 C   0  0  0  0  0  0  0  0  0  0  0  0
  188.8340  177.4820  146.4170 C   0  0  1  0  0  3  0  0  0  0  0  0
  188.6970  176.7540  147.5830 F   0  0  0  0  0  0  0  0  0  0  0  0
  191.1750  177.8230  139.5100 N   0  0  0  0  0  2  0  0  0  0  0  0
  189.7670  175.9450  139.7600 N   0  0  0  0  0  2  0  0  0  0  0  0
  189.8830  177.2060  139.4950 C   0  0  0  0  0  0  0  0  0  0  0  0
  192.4100  177.0600  139.6540 C   0  0  0  0  0  2  0  0  0  0  0  0
  192.9110  176.5850  138.3000 C   0  0  0  0  0  2  0  0  0  0  0  0
  195.9520  172.5980  137.9740 C   0  0  0  0  0  1  0  0  0  0  0  0
  193.4970  173.9060  137.6000 O   0  0  0  0  0  0  0  0  0  0  0  0
  195.7060  173.9760  138.3710 N   0  0  0  0  0  0  0  0  0  0  0  0
  194.2170  175.9590  138.4350 N   0  0  0  0  0  2  0  0  0  0  0  0
  194.4320  174.5850  138.1100 C   0  0  0  0  0  0  0  0  0  0  0  0
  196.7820  174.7360  138.8590 N   0  0  0  0  0  2  0  0  0  0  0  0
  197.9050  174.5490  137.9520 C   0  0  0  0  0  1  0  0  0  0  0  0
  188.1540  178.4780  138.0620 C   0  0  1  0  0  3  0  0  0  0  0  0
  189.0090  179.3960  137.4510 O   0  0  0  0  0  1  0  0  0  0  0  0
  186.6260  176.6470  137.2340 N   0  0  0  0  0  2  0  0  0  0  0  0
  187.8880  177.3210  137.1480 C   0  0  0  0  0  0  0  0  0  0  0  0
  188.7310  176.9920  136.2690 O   0  0  0  0  0  0  0  0  0  0  0  0
  185.6150  173.2290  137.5040 C   0  0  0  0  0  3  0  0  0  0  0  0
  184.7880  172.7400  136.5780 C   0  0  0  0  0  0  0  0  0  0  0  0
  185.6920  175.4300  135.3770 C   0  0  0  0  0  3  0  0  0  0  0  0
  185.2670  174.2380  134.6170 C   0  0  0  0  0  3  0  0  0  0  0  0
  186.7540  174.1430  137.1900 C   0  0  0  0  0  2  0  0  0  0  0  0
  183.5950  171.5590  137.0780 Cl  0  0  0  0  0  0  0  0  0  0  0  0
  186.2820  175.4210  136.5780 C   0  0  0  0  0  0  0  0  0  0  0  0
  184.8750  173.0690  135.1400 C   0  0  0  0  0  3  0  0  0  0  0  0
  1  6  1  0  0  0  0
  2 17  1  0  0  0  0
  2  1  2  0  0  0  0
  3 12  1  0  0  0  0
  4  9  1  6  0  0  0
  4  7  1  0  0  0  0
  5 10  1  0  0  0  0
  6  3  2  0  0  0  0
  6  8  1  0  0  0  0
  7 13  1  0  0  0  0
  8  5  1  0  0  0  0
 10 11  1  1  0  0  0
 10 13  1  0  0  0  0
 12  5  2  0  0  0  0
 12  4  1  0  0  0  0
 13 14  1  1  0  0  0
 15 18  1  0  0  0  0
 17 15  1  0  0  0  0
 17 16  2  0  0  0  0
 19 23  1  0  0  0  0
 19 18  1  0  0  0  0
 20 22  1  0  0  0  0
 21 24  2  0  0  0  0
 22 25  1  0  0  0  0
 24 22  1  0  0  0  0
 24 23  1  0  0  0  0
 26 25  1  0  0  0  0
 27 28  1  6  0  0  0
 27  2  1  0  0  0  0
 30 29  1  0  0  0  0
 30 27  1  0  0  0  0
 31 30  2  0  0  0  0
 33 37  1  0  0  0  0
 33 32  2  0  0  0  0
 34 38  2  0  0  0  0
 35 39  2  0  0  0  0
 35 34  1  0  0  0  0
 36 32  1  0  0  0  0
 38 36  1  0  0  0  0
 38 29  1  0  0  0  0
 39 33  1  0  0  0  0
M  END
>  <MODEL>
5

>  <REMARK>
 VINA RESULT:      -7.9      4.641      8.084
  Name = 
  9 active torsions:
  status: ('A' for Active; 'I' for Inactive)
    1  A    between atoms: N_5  and  N_26
    2  A    between atoms: C_8  and  N_14
    3  A    between atoms: N_10  and  C_29
    4  A    between atoms: C_16  and  C_17
    5  A    between atoms: C_16  and  C_32
    6  A    between atoms: C_28  and  N_30
    7  A    between atoms: C_28  and  C_35
    8  A    between atoms: C_32  and  C_39
    9  A    between atoms: C_35  and  N_36
                            x       y       z     vdW  Elec       q    Type
                         _______ _______ _______ _____ _____    ______ ____

>  <TORSDO>
F 9

$$$$
=
 OpenBabel10222420483D

 39 41  0  0  1  0  0  0  0  0999 V2000
  186.2720  178.6220  139.8780 N   0  0  0  0  0  0  0  0  0  0  0  0
  186.9250  178.6250  141.0080 C   0  0  0  0  0  0  0  0  0  0  0  0
  184.4150  179.8860  139.1030 N   0  0  0  0  0  0  0  0  0  0  0  0
  182.0520  180.7380  138.4410 C   0  0  1  0  0  3  0  0  0  0  0  0
  182.6010  178.6030  139.5520 C   0  0  0  0  0  0  0  0  0  0  0  0
  184.8660  178.8010  139.6440 C   0  0  0  0  0  0  0  0  0  0  0  0
  180.6950  180.5330  138.9590 N   0  0  0  0  0  2  0  0  0  0  0  0
  183.7760  177.8520  140.0550 C   0  0  0  0  0  2  0  0  0  0  0  0
  182.4750  182.0990  138.7220 N   0  0  0  0  0  1  0  0  0  0  0  0
  181.1600  178.1960  139.6220 C   0  0  2  0  0  3  0  0  0  0  0  0
  181.0210  176.8990  139.1660 F   0  0  0  0  0  0  0  0  0  0  0  0
  183.0020  179.7630  139.0730 C   0  0  0  0  0  0  0  0  0  0  0  0
  180.3010  179.1330  138.7590 C   0  0  1  0  0  3  0  0  0  0  0  0
  178.9700  178.9780  139.0950 F   0  0  0  0  0  0  0  0  0  0  0  0
  186.5730  177.7410  143.3390 N   0  0  0  0  0  2  0  0  0  0  0  0
  185.5550  179.7470  142.6260 N   0  0  0  0  0  2  0  0  0  0  0  0
  186.2570  178.7030  142.3270 C   0  0  0  0  0  0  0  0  0  0  0  0
  186.0010  177.7930  144.6800 C   0  0  0  0  0  2  0  0  0  0  0  0
  187.0590  178.1690  145.7040 C   0  0  0  0  0  2  0  0  0  0  0  0
  191.6500  176.3520  146.6380 C   0  0  0  0  0  1  0  0  0  0  0  0
  189.0510  177.0890  147.3990 O   0  0  0  0  0  0  0  0  0  0  0  0
  190.6730  176.9190  145.7200 N   0  0  0  0  0  0  0  0  0  0  0  0
  188.3720  177.7240  145.2630 N   0  0  0  0  0  2  0  0  0  0  0  0
  189.3510  177.2350  146.1820 C   0  0  0  0  0  0  0  0  0  0  0  0
  190.9980  176.9950  144.3570 N   0  0  0  0  0  2  0  0  0  0  0  0
  191.6710  178.2670  144.1300 C   0  0  0  0  0  1  0  0  0  0  0  0
  188.4170  178.4440  140.9380 C   0  0  1  0  0  3  0  0  0  0  0  0
  188.8560  177.4450  141.8060 O   0  0  0  0  0  1  0  0  0  0  0  0
  189.1410  176.8260  139.1390 N   0  0  0  0  0  2  0  0  0  0  0  0
  188.9050  178.1800  139.5460 C   0  0  0  0  0  0  0  0  0  0  0  0
  189.0360  179.1280  138.7240 O   0  0  0  0  0  0  0  0  0  0  0  0
  191.7410  174.9560  137.5530 C   0  0  0  0  0  3  0  0  0  0  0  0
  191.4760  174.3720  136.3830 C   0  0  0  0  0  0  0  0  0  0  0  0
  189.0750  176.2580  136.7990 C   0  0  0  0  0  3  0  0  0  0  0  0
  189.6140  175.8110  135.5000 C   0  0  0  0  0  3  0  0  0  0  0  0
  191.2710  176.3260  137.9140 C   0  0  0  0  0  2  0  0  0  0  0  0
  192.2240  172.8250  136.0430 Cl  0  0  0  0  0  0  0  0  0  0  0  0
  189.7800  176.4120  137.9260 C   0  0  0  0  0  0  0  0  0  0  0  0
  190.6570  174.9920  135.3200 C   0  0  0  0  0  3  0  0  0  0  0  0
  1  2  2  0  0  0  0
  2 17  1  0  0  0  0
  3  6  2  0  0  0  0
  4  9  1  1  0  0  0
  4  7  1  0  0  0  0
  4 12  1  0  0  0  0
  5 10  1  0  0  0  0
  5  8  1  0  0  0  0
  6  1  1  0  0  0  0
  6  8  1  0  0  0  0
 10 11  1  6  0  0  0
 12  3  1  0  0  0  0
 12  5  2  0  0  0  0
 13  7  1  0  0  0  0
 13 14  1  1  0  0  0
 13 10  1  0  0  0  0
 15 18  1  0  0  0  0
 17 16  2  0  0  0  0
 17 15  1  0  0  0  0
 18 19  1  0  0  0  0
 22 24  1  0  0  0  0
 22 20  1  0  0  0  0
 23 19  1  0  0  0  0
 23 24  1  0  0  0  0
 24 21  2  0  0  0  0
 25 22  1  0  0  0  0
 26 25  1  0  0  0  0
 27  2  1  0  0  0  0
 27 28  1  1  0  0  0
 29 30  1  0  0  0  0
 30 27  1  0  0  0  0
 31 30  2  0  0  0  0
 32 36  1  0  0  0  0
 33 32  2  0  0  0  0
 34 38  2  0  0  0  0
 35 34  1  0  0  0  0
 36 38  1  0  0  0  0
 37 33  1  0  0  0  0
 38 29  1  0  0  0  0
 39 35  2  0  0  0  0
 39 33  1  0  0  0  0
M  END
>  <MODEL>
6

>  <REMARK>
 VINA RESULT:      -7.8      4.642      8.803
  Name = 
  9 active torsions:
  status: ('A' for Active; 'I' for Inactive)
    1  A    between atoms: N_5  and  N_26
    2  A    between atoms: C_8  and  N_14
    3  A    between atoms: N_10  and  C_29
    4  A    between atoms: C_16  and  C_17
    5  A    between atoms: C_16  and  C_32
    6  A    between atoms: C_28  and  N_30
    7  A    between atoms: C_28  and  C_35
    8  A    between atoms: C_32  and  C_39
    9  A    between atoms: C_35  and  N_36
                            x       y       z     vdW  Elec       q    Type
                         _______ _______ _______ _____ _____    ______ ____

>  <TORSDO>
F 9

$$$$
=
 OpenBabel10222420483D

 39 41  0  0  1  0  0  0  0  0999 V2000
  186.0580  178.5840  141.6220 N   0  0  0  0  0  0  0  0  0  0  0  0
  184.8920  178.9520  141.1670 C   0  0  0  0  0  0  0  0  0  0  0  0
  187.3770  178.5780  139.6440 N   0  0  0  0  0  0  0  0  0  0  0  0
  189.2550  178.2830  137.8730 C   0  0  1  0  0  3  0  0  0  0  0  0
  189.2860  177.4960  140.2140 C   0  0  0  0  0  0  0  0  0  0  0  0
  187.2550  178.2660  140.8940 C   0  0  0  0  0  0  0  0  0  0  0  0
  190.3120  177.2920  137.6420 N   0  0  0  0  0  2  0  0  0  0  0  0
  188.4270  177.4880  141.4220 C   0  0  0  0  0  2  0  0  0  0  0  0
  188.2440  178.1620  136.8380 N   0  0  0  0  0  1  0  0  0  0  0  0
  190.6490  176.8920  140.0590 C   0  0  2  0  0  3  0  0  0  0  0  0
  191.4530  177.2820  141.1140 F   0  0  0  0  0  0  0  0  0  0  0  0
  188.6340  178.0730  139.2240 C   0  0  0  0  0  0  0  0  0  0  0  0
  191.2860  177.3510  138.7380 C   0  0  1  0  0  3  0  0  0  0  0  0
  192.3630  176.5380  138.4390 F   0  0  0  0  0  0  0  0  0  0  0  0
  184.0920  177.8070  139.0720 N   0  0  0  0  0  2  0  0  0  0  0  0
  184.5070  180.1300  139.1120 N   0  0  0  0  0  2  0  0  0  0  0  0
  184.5630  178.9910  139.7240 C   0  0  0  0  0  0  0  0  0  0  0  0
  183.6920  177.7860  137.6700 C   0  0  0  0  0  2  0  0  0  0  0  0
  182.1780  177.8210  137.5410 C   0  0  0  0  0  2  0  0  0  0  0  0
  179.8440  173.4520  138.3820 C   0  0  0  0  0  1  0  0  0  0  0  0
  181.1590  175.3060  136.7360 O   0  0  0  0  0  0  0  0  0  0  0  0
  180.3320  174.7400  138.8510 N   0  0  0  0  0  0  0  0  0  0  0  0
  181.5700  176.8480  138.4350 N   0  0  0  0  0  2  0  0  0  0  0  0
  181.0290  175.6170  137.9530 C   0  0  0  0  0  0  0  0  0  0  0  0
  180.2510  175.0280  140.2230 N   0  0  0  0  0  2  0  0  0  0  0  0
  179.2400  174.1540  140.8020 C   0  0  0  0  0  1  0  0  0  0  0  0
  183.8240  179.2550  142.1830 C   0  0  1  0  0  3  0  0  0  0  0  0
  182.5890  178.7320  141.8030 O   0  0  0  0  0  1  0  0  0  0  0  0
  185.5240  179.0040  144.0330 N   0  0  0  0  0  2  0  0  0  0  0  0
  184.1870  178.7930  143.5610 C   0  0  0  0  0  0  0  0  0  0  0  0
  183.3120  178.2930  144.3200 O   0  0  0  0  0  0  0  0  0  0  0  0
  188.1650  177.1800  145.6050 C   0  0  0  0  0  3  0  0  0  0  0  0
  188.5380  177.5400  146.8340 C   0  0  0  0  0  0  0  0  0  0  0  0
  185.8960  179.0700  146.4120 C   0  0  0  0  0  3  0  0  0  0  0  0
  186.4450  178.6260  147.7080 C   0  0  0  0  0  3  0  0  0  0  0  0
  186.7410  177.1230  145.1590 C   0  0  0  0  0  2  0  0  0  0  0  0
  190.2330  177.4110  147.2560 Cl  0  0  0  0  0  0  0  0  0  0  0  0
  186.0880  178.4640  145.2340 C   0  0  0  0  0  0  0  0  0  0  0  0
  187.5930  177.9610  147.8910 C   0  0  0  0  0  3  0  0  0  0  0  0
  2  1  2  0  0  0  0
  2 27  1  0  0  0  0
  3  6  2  0  0  0  0
  4  9  1  6  0  0  0
  4 12  1  0  0  0  0
  5  8  1  0  0  0  0
  6  8  1  0  0  0  0
  6  1  1  0  0  0  0
  7  4  1  0  0  0  0
  7 13  1  0  0  0  0
 10  5  1  0  0  0  0
 10 11  1  1  0  0  0
 12  3  1  0  0  0  0
 12  5  2  0  0  0  0
 13 14  1  6  0  0  0
 13 10  1  0  0  0  0
 15 17  1  0  0  0  0
 16 17  2  0  0  0  0
 17  2  1  0  0  0  0
 18 15  1  0  0  0  0
 19 18  1  0  0  0  0
 19 23  1  0  0  0  0
 20 22  1  0  0  0  0
 21 24  2  0  0  0  0
 22 25  1  0  0  0  0
 24 23  1  0  0  0  0
 24 22  1  0  0  0  0
 25 26  1  0  0  0  0
 27 28  1  6  0  0  0
 27 30  1  0  0  0  0
 29 38  1  0  0  0  0
 30 29  1  0  0  0  0
 30 31  2  0  0  0  0
 32 33  2  0  0  0  0
 33 37  1  0  0  0  0
 33 39  1  0  0  0  0
 34 35  1  0  0  0  0
 35 39  2  0  0  0  0
 36 38  1  0  0  0  0
 36 32  1  0  0  0  0
 38 34  2  0  0  0  0
M  END
>  <MODEL>
7

>  <REMARK>
 VINA RESULT:      -7.8      4.258      7.935
  Name = 
  9 active torsions:
  status: ('A' for Active; 'I' for Inactive)
    1  A    between atoms: N_5  and  N_26
    2  A    between atoms: C_8  and  N_14
    3  A    between atoms: N_10  and  C_29
    4  A    between atoms: C_16  and  C_17
    5  A    between atoms: C_16  and  C_32
    6  A    between atoms: C_28  and  N_30
    7  A    between atoms: C_28  and  C_35
    8  A    between atoms: C_32  and  C_39
    9  A    between atoms: C_35  and  N_36
                            x       y       z     vdW  Elec       q    Type
                         _______ _______ _______ _____ _____    ______ ____

>  <TORSDO>
F 9

$$$$
=
 OpenBabel10222420483D

 39 41  0  0  1  0  0  0  0  0999 V2000
  186.8260  178.1860  141.2530 N   0  0  0  0  0  0  0  0  0  0  0  0
  185.6080  178.6440  141.1700 C   0  0  0  0  0  0  0  0  0  0  0  0
  188.8990  178.2500  142.4150 N   0  0  0  0  0  0  0  0  0  0  0  0
  190.8010  178.0930  144.1770 C   0  0  1  0  0  3  0  0  0  0  0  0
  188.4500  177.3950  144.4660 C   0  0  0  0  0  0  0  0  0  0  0  0
  187.6360  177.9700  142.4200 C   0  0  0  0  0  0  0  0  0  0  0  0
  191.0870  177.2120  145.3150 N   0  0  0  0  0  2  0  0  0  0  0  0
  187.1790  177.3380  143.7050 C   0  0  0  0  0  2  0  0  0  0  0  0
  191.7520  177.8310  143.1120 N   0  0  0  0  0  1  0  0  0  0  0  0
  188.6940  176.9330  145.8710 C   0  0  2  0  0  3  0  0  0  0  0  0
  187.7150  177.4410  146.7040 F   0  0  0  0  0  0  0  0  0  0  0  0
  189.4010  177.8660  143.6850 C   0  0  0  0  0  0  0  0  0  0  0  0
  190.0720  177.4100  146.3560 C   0  0  1  0  0  3  0  0  0  0  0  0
  190.4310  176.7050  147.4890 F   0  0  0  0  0  0  0  0  0  0  0  0
  183.7730  178.3920  142.8750 N   0  0  0  0  0  2  0  0  0  0  0  0
  185.3050  180.1830  142.9850 N   0  0  0  0  0  2  0  0  0  0  0  0
  184.8560  179.1580  142.3370 C   0  0  0  0  0  0  0  0  0  0  0  0
  183.0280  178.8060  144.0590 C   0  0  0  0  0  2  0  0  0  0  0  0
  181.5330  178.6350  143.8430 C   0  0  0  0  0  2  0  0  0  0  0  0
  179.2470  181.2100  140.1830 C   0  0  0  0  0  1  0  0  0  0  0  0
  180.0550  180.8320  142.8440 O   0  0  0  0  0  0  0  0  0  0  0  0
  179.9930  180.0470  140.6400 N   0  0  0  0  0  0  0  0  0  0  0  0
  181.1970  178.8410  142.4430 N   0  0  0  0  0  2  0  0  0  0  0  0
  180.4020  179.9480  142.0130 C   0  0  0  0  0  0  0  0  0  0  0  0
  180.4400  179.1190  139.6860 N   0  0  0  0  0  2  0  0  0  0  0  0
  179.2670  178.4950  139.0910 C   0  0  0  0  0  1  0  0  0  0  0  0
  185.0000  178.7280  139.7960 C   0  0  1  0  0  3  0  0  0  0  0  0
  184.5550  180.0180  139.5080 O   0  0  0  0  0  1  0  0  0  0  0  0
  185.4000  177.3900  137.6930 N   0  0  0  0  0  2  0  0  0  0  0  0
  185.9230  178.2400  138.7220 C   0  0  0  0  0  0  0  0  0  0  0  0
  187.1220  178.6280  138.6830 O   0  0  0  0  0  0  0  0  0  0  0  0
  188.0710  177.4290  135.3190 C   0  0  0  0  0  3  0  0  0  0  0  0
  188.7920  176.3170  135.1600 C   0  0  0  0  0  0  0  0  0  0  0  0
  186.3720  175.3680  136.8160 C   0  0  0  0  0  3  0  0  0  0  0  0
  187.1670  174.5420  135.8860 C   0  0  0  0  0  3  0  0  0  0  0  0
  186.5870  177.4310  135.4850 C   0  0  0  0  0  2  0  0  0  0  0  0
  190.5030  176.4840  134.8230 Cl  0  0  0  0  0  0  0  0  0  0  0  0
  186.1690  176.6870  136.7110 C   0  0  0  0  0  0  0  0  0  0  0  0
  188.2180  174.9550  135.1670 C   0  0  0  0  0  3  0  0  0  0  0  0
  1  6  1  0  0  0  0
  2  1  2  0  0  0  0
  2 17  1  0  0  0  0
  3  6  2  0  0  0  0
  3 12  1  0  0  0  0
  4  9  1  6  0  0  0
  4  7  1  0  0  0  0
  5 10  1  0  0  0  0
  6  8  1  0  0  0  0
  7 13  1  0  0  0  0
  8  5  1  0  0  0  0
 10 13  1  0  0  0  0
 10 11  1  1  0  0  0
 12  4  1  0  0  0  0
 12  5  2  0  0  0  0
 13 14  1  1  0  0  0
 15 18  1  0  0  0  0
 17 15  1  0  0  0  0
 17 16  2  0  0  0  0
 19 18  1  0  0  0  0
 20 22  1  0  0  0  0
 22 24  1  0  0  0  0
 23 19  1  0  0  0  0
 24 23  1  0  0  0  0
 24 21  2  0  0  0  0
 25 22  1  0  0  0  0
 26 25  1  0  0  0  0
 27 28  1  6  0  0  0
 27  2  1  0  0  0  0
 29 30  1  0  0  0  0
 30 27  1  0  0  0  0
 31 30  2  0  0  0  0
 32 36  1  0  0  0  0
 33 39  1  0  0  0  0
 33 32  2  0  0  0  0
 35 34  1  0  0  0  0
 36 38  1  0  0  0  0
 37 33  1  0  0  0  0
 38 34  2  0  0  0  0
 38 29  1  0  0  0  0
 39 35  2  0  0  0  0
M  END
>  <MODEL>
8

>  <REMARK>
 VINA RESULT:      -7.7      5.054      9.233
  Name = 
  9 active torsions:
  status: ('A' for Active; 'I' for Inactive)
    1  A    between atoms: N_5  and  N_26
    2  A    between atoms: C_8  and  N_14
    3  A    between atoms: N_10  and  C_29
    4  A    between atoms: C_16  and  C_17
    5  A    between atoms: C_16  and  C_32
    6  A    between atoms: C_28  and  N_30
    7  A    between atoms: C_28  and  C_35
    8  A    between atoms: C_32  and  C_39
    9  A    between atoms: C_35  and  N_36
                            x       y       z     vdW  Elec       q    Type
                         _______ _______ _______ _____ _____    ______ ____

>  <TORSDO>
F 9

$$$$
=
 OpenBabel10222420483D

 39 41  0  0  1  0  0  0  0  0999 V2000
  190.4940  176.4840  140.5160 N   0  0  0  0  0  0  0  0  0  0  0  0
  190.0690  176.8700  139.3450 C   0  0  0  0  0  0  0  0  0  0  0  0
  190.7400  177.1390  142.7870 N   0  0  0  0  0  0  0  0  0  0  0  0
  190.3570  177.7980  145.2710 C   0  0  1  0  0  3  0  0  0  0  0  0
  188.6430  177.0740  143.6480 C   0  0  0  0  0  0  0  0  0  0  0  0
  189.9620  176.7820  141.8170 C   0  0  0  0  0  0  0  0  0  0  0  0
  189.3800  177.4280  146.3010 N   0  0  0  0  0  2  0  0  0  0  0  0
  188.5260  176.6380  142.2360 C   0  0  0  0  0  2  0  0  0  0  0  0
  191.6520  177.2360  145.6090 N   0  0  0  0  0  1  0  0  0  0  0  0
  187.5450  177.1870  144.6620 C   0  0  2  0  0  3  0  0  0  0  0  0
  186.4840  177.8890  144.1210 F   0  0  0  0  0  0  0  0  0  0  0  0
  189.9120  177.2950  143.9290 C   0  0  0  0  0  0  0  0  0  0  0  0
  188.0520  177.9180  145.9150 C   0  0  1  0  0  3  0  0  0  0  0  0
  187.1670  177.7150  146.9560 F   0  0  0  0  0  0  0  0  0  0  0  0
  187.6450  177.3620  138.8780 N   0  0  0  0  0  2  0  0  0  0  0  0
  189.1490  179.0830  139.4670 N   0  0  0  0  0  2  0  0  0  0  0  0
  188.9640  177.8380  139.1650 C   0  0  0  0  0  0  0  0  0  0  0  0
  186.4970  178.2530  138.7490 C   0  0  0  0  0  2  0  0  0  0  0  0
  185.8900  178.5510  140.1100 C   0  0  0  0  0  2  0  0  0  0  0  0
  181.4040  180.4870  138.9360 C   0  0  0  0  0  1  0  0  0  0  0  0
  184.2100  180.5160  138.9580 O   0  0  0  0  0  0  0  0  0  0  0  0
  182.2150  179.4530  139.5620 N   0  0  0  0  0  0  0  0  0  0  0  0
  184.4390  178.4690  140.0460 N   0  0  0  0  0  2  0  0  0  0  0  0
  183.6470  179.5230  139.4960 C   0  0  0  0  0  0  0  0  0  0  0  0
  181.5710  178.3180  140.0790 N   0  0  0  0  0  2  0  0  0  0  0  0
  181.0060  178.6780  141.3720 C   0  0  0  0  0  1  0  0  0  0  0  0
  190.8190  176.3640  138.1420 C   0  0  1  0  0  3  0  0  0  0  0  0
  192.1600  176.1190  138.4370 O   0  0  0  0  0  1  0  0  0  0  0  0
  189.0680  175.3230  136.6500 N   0  0  0  0  0  2  0  0  0  0  0  0
  190.1860  175.1520  137.5310 C   0  0  0  0  0  0  0  0  0  0  0  0
  190.6730  174.0060  137.7320 O   0  0  0  0  0  0  0  0  0  0  0  0
  188.8110  172.2030  134.9280 C   0  0  0  0  0  3  0  0  0  0  0  0
  187.8590  171.3480  135.3070 C   0  0  0  0  0  0  0  0  0  0  0  0
  187.0830  173.9630  136.7410 C   0  0  0  0  0  3  0  0  0  0  0  0
  186.1560  172.8920  136.3240 C   0  0  0  0  0  3  0  0  0  0  0  0
  188.5980  173.6760  134.8190 C   0  0  0  0  0  2  0  0  0  0  0  0
  188.2130  169.6330  135.2390 Cl  0  0  0  0  0  0  0  0  0  0  0  0
  188.2340  174.2780  136.1370 C   0  0  0  0  0  0  0  0  0  0  0  0
  186.4940  171.7560  135.7000 C   0  0  0  0  0  3  0  0  0  0  0  0
  1  6  1  0  0  0  0
  2  1  2  0  0  0  0
  3 12  1  0  0  0  0
  4  9  1  1  0  0  0
  4  7  1  0  0  0  0
  5 12  2  0  0  0  0
  5 10  1  0  0  0  0
  6  8  1  0  0  0  0
  6  3  2  0  0  0  0
  8  5  1  0  0  0  0
 10 11  1  6  0  0  0
 10 13  1  0  0  0  0
 12  4  1  0  0  0  0
 13  7  1  0  0  0  0
 13 14  1  1  0  0  0
 15 17  1  0  0  0  0
 17  2  1  0  0  0  0
 17 16  2  0  0  0  0
 18 15  1  0  0  0  0
 18 19  1  0  0  0  0
 20 22  1  0  0  0  0
 21 24  2  0  0  0  0
 22 25  1  0  0  0  0
 23 19  1  0  0  0  0
 24 22  1  0  0  0  0
 24 23  1  0  0  0  0
 25 26  1  0  0  0  0
 27 28  1  1  0  0  0
 27  2  1  0  0  0  0
 29 30  1  0  0  0  0
 30 31  2  0  0  0  0
 30 27  1  0  0  0  0
 32 33  2  0  0  0  0
 33 39  1  0  0  0  0
 35 34  1  0  0  0  0
 36 32  1  0  0  0  0
 36 38  1  0  0  0  0
 37 33  1  0  0  0  0
 38 29  1  0  0  0  0
 38 34  2  0  0  0  0
 39 35  2  0  0  0  0
M  END
>  <MODEL>
9

>  <REMARK>
 VINA RESULT:      -7.6      4.809      8.879
  Name = 
  9 active torsions:
  status: ('A' for Active; 'I' for Inactive)
    1  A    between atoms: N_5  and  N_26
    2  A    between atoms: C_8  and  N_14
    3  A    between atoms: N_10  and  C_29
    4  A    between atoms: C_16  and  C_17
    5  A    between atoms: C_16  and  C_32
    6  A    between atoms: C_28  and  N_30
    7  A    between atoms: C_28  and  C_35
    8  A    between atoms: C_32  and  C_39
    9  A    between atoms: C_35  and  N_36
                            x       y       z     vdW  Elec       q    Type
                         _______ _______ _______ _____ _____    ______ ____

>  <TORSDO>
F 9

$$$$
