=
 OpenBabel10222420293D

 31 34  0  0  1  0  0  0  0  0999 V2000
  184.7350  178.3640  144.3380 C   0  0  0  0  0  0  0  0  0  0  0  0
  186.6860  178.6370  146.2710 C   0  0  0  0  0  2  0  0  0  0  0  0
  187.6120  178.1450  145.5180 C   0  0  2  0  0  3  0  0  0  0  0  0
  181.3660  178.8430  139.8180 N   0  0  0  0  0  1  0  0  0  0  0  0
  182.2170  178.7620  140.9570 C   0  0  0  0  0  0  0  0  0  0  0  0
  184.4270  178.3890  145.8330 C   0  0  0  0  0  2  0  0  0  0  0  0
  187.1720  177.6520  144.2190 N   0  0  1  0  0  0  0  0  0  0  0  0
  181.7010  178.9520  142.1460 N   0  0  0  0  0  0  0  0  0  0  0  0
  185.8610  177.9890  143.6630 C   0  0  2  0  0  3  0  0  0  0  0  0
  183.7400  178.5670  143.3070 C   0  0  0  0  0  0  0  0  0  0  0  0
  182.4520  178.8680  143.3730 C   0  0  0  0  0  3  0  0  0  0  0  0
  185.6300  177.9670  142.2430 N   0  0  0  0  0  0  0  0  0  0  0  0
  185.5160  178.9950  146.6620 C   0  0  0  0  0  2  0  0  0  0  0  0
  184.3980  178.3110  142.0640 C   0  0  0  0  0  0  0  0  0  0  0  0
  183.6940  178.4490  140.7460 C   0  0  0  0  0  0  0  0  0  0  0  0
  189.6660  177.6880  142.1550 C   0  0  1  0  0  3  0  0  0  0  0  0
  188.1650  177.5090  141.9400 C   0  0  0  0  0  2  0  0  0  0  0  0
  188.0440  176.8850  143.3150 C   0  0  1  0  0  3  0  0  0  0  0  0
  189.5210  177.1180  143.5640 C   0  0  0  0  0  2  0  0  0  0  0  0
  191.8170  177.1730  141.3360 C   0  0  0  0  0  1  0  0  0  0  0  0
  189.9850  176.9810  139.9290 C   0  0  0  0  0  1  0  0  0  0  0  0
  190.4200  176.7700  141.3010 N   0  0  0  0  0  0  0  0  0  0  0  0
  189.3590  177.3820  147.1080 C   0  0  0  0  0  0  0  0  0  0  0  0
  188.9570  177.9320  145.9920 N   0  0  0  0  0  0  0  0  0  0  0  0
  188.4080  176.9190  148.1650 C   0  0  0  0  0  2  0  0  0  0  0  0
  188.2220  177.9330  149.1040 O   0  0  0  0  0  1  0  0  0  0  0  0
  191.5890  176.4780  146.5460 C   0  0  0  0  0  1  0  0  0  0  0  0
  190.7240  177.2460  147.3720 O   0  0  0  0  0  0  0  0  0  0  0  0
  184.3350  179.5560  139.9200 C   0  0  0  0  0  2  0  0  0  0  0  0
  185.3760  179.0390  139.1480 O   0  0  0  0  0  0  0  0  0  0  0  0
  184.7630  178.1030  138.3150 C   0  0  0  0  0  1  0  0  0  0  0  0
  1  6  1  0  0  0  0
  2 13  1  0  0  0  0
  3 24  1  1  0  0  0
  3  2  1  0  0  0  0
  4  5  1  0  0  0  0
  5  8  1  0  0  0  0
  6 13  1  0  0  0  0
  7 18  1  6  0  0  0
  7  3  1  0  0  0  0
  8 11  2  0  0  0  0
  9 12  1  6  0  0  0
  9  7  1  0  0  0  0
  9  1  1  0  0  0  0
 10 11  1  0  0  0  0
 10  1  2  0  0  0  0
 14 12  2  0  0  0  0
 14 10  1  0  0  0  0
 15  5  2  0  0  0  0
 15 14  1  0  0  0  0
 16 22  1  6  0  0  0
 16 19  1  0  0  0  0
 17 16  1  0  0  0  0
 18 17  1  6  0  0  0
 18 19  1  0  0  0  0
 21 22  1  0  0  0  0
 22 20  1  0  0  0  0
 23 28  1  0  0  0  0
 23 25  1  0  0  0  0
 24 23  2  0  0  0  0
 25 26  1  0  0  0  0
 27 28  1  0  0  0  0
 29 15  1  0  0  0  0
 30 29  1  0  0  0  0
 31 30  1  0  0  0  0
M  END
>  <MODEL>
1

>  <REMARK>
 VINA RESULT:      -8.7      0.000      0.000
  Name = 
  7 active torsions:
  status: ('A' for Active; 'I' for Inactive)
    1  A    between atoms: C_1  and  O_12
    2  A    between atoms: C_1  and  C_31
    3  A    between atoms: C_3  and  C_5
    4  A    between atoms: C_3  and  O_27
    5  A    between atoms: N_6  and  C_9
    6  A    between atoms: N_16  and  C_23
    7  A    between atoms: N_19  and  C_20
                            x       y       z     vdW  Elec       q    Type
                         _______ _______ _______ _____ _____    ______ ____

>  <TORSDO>
F 7

$$$$
=
 OpenBabel10222420293D

 31 34  0  0  1  0  0  0  0  0999 V2000
  189.4220  177.2700  142.6750 C   0  0  0  0  0  0  0  0  0  0  0  0
  188.2240  178.4650  140.4940 C   0  0  0  0  0  2  0  0  0  0  0  0
  187.0630  178.5110  141.0580 C   0  0  2  0  0  3  0  0  0  0  0  0
  191.7590  176.0400  147.6780 N   0  0  0  0  0  1  0  0  0  0  0  0
  191.1870  176.3850  146.4200 C   0  0  0  0  0  0  0  0  0  0  0  0
  189.9510  177.1220  141.2510 C   0  0  0  0  0  2  0  0  0  0  0  0
  186.9730  177.8770  142.3660 N   0  0  0  0  0  0  0  0  0  0  0  0
  191.9230  176.2790  145.3410 N   0  0  0  0  0  0  0  0  0  0  0  0
  188.1610  177.5170  143.1390 C   0  0  0  0  0  0  0  0  0  0  0  0
  190.1940  176.9570  143.8570 C   0  0  2  0  0  3  0  0  0  0  0  0
  191.4510  176.5710  144.0120 C   0  0  0  0  0  3  0  0  0  0  0  0
  188.1060  177.3960  144.5720 N   0  0  0  0  0  0  0  0  0  0  0  0
  189.4650  178.1850  140.3140 C   0  0  0  0  0  2  0  0  0  0  0  0
  189.2950  177.0780  144.9620 C   0  0  0  0  0  0  0  0  0  0  0  0
  189.7380  176.8580  146.3790 C   0  0  0  0  0  0  0  0  0  0  0  0
  184.0110  178.9960  143.0460 C   0  0  1  0  0  3  0  0  0  0  0  0
  185.2690  178.8510  143.8990 C   0  0  0  0  0  2  0  0  0  0  0  0
  185.6960  177.6600  143.0650 C   0  0  1  0  0  3  0  0  0  0  0  0
  184.4830  177.8360  142.1720 C   0  0  0  0  0  2  0  0  0  0  0  0
  181.6750  179.2760  143.2130 C   0  0  0  0  0  1  0  0  0  0  0  0
  182.9540  179.1840  145.1440 C   0  0  0  0  0  1  0  0  0  0  0  0
  182.8240  178.6150  143.8110 N   0  0  0  0  0  0  0  0  0  0  0  0
  185.5120  178.7770  139.1380 C   0  0  0  0  0  0  0  0  0  0  0  0
  185.8930  178.9970  140.3690 N   0  0  0  0  0  0  0  0  0  0  0  0
  186.3310  177.9830  138.1720 C   0  0  0  0  0  2  0  0  0  0  0  0
  186.9580  178.8430  137.2730 O   0  0  0  0  0  1  0  0  0  0  0  0
  183.1340  178.5580  138.5040 C   0  0  0  0  0  1  0  0  0  0  0  0
  184.3180  179.3270  138.6640 O   0  0  0  0  0  0  0  0  0  0  0  0
  189.6010  178.1450  147.1810 C   0  0  0  0  0  2  0  0  0  0  0  0
  188.9590  177.8900  148.3930 O   0  0  0  0  0  0  0  0  0  0  0  0
  187.6180  178.1860  148.1480 C   0  0  0  0  0  1  0  0  0  0  0  0
  1  9  2  0  0  0  0
  1 10  1  0  0  0  0
  2  3  1  0  0  0  0
  3 24  1  6  0  0  0
  3  7  1  0  0  0  0
  5  4  1  0  0  0  0
  6  1  1  0  0  0  0
  7 18  1  0  0  0  0
  7  9  1  0  0  0  0
  8  5  1  0  0  0  0
  9 12  1  0  0  0  0
 10 11  1  6  0  0  0
 10 14  1  0  0  0  0
 11  8  2  0  0  0  0
 12 14  2  0  0  0  0
 13  2  1  0  0  0  0
 13  6  1  0  0  0  0
 14 15  1  0  0  0  0
 15  5  2  0  0  0  0
 15 29  1  0  0  0  0
 16 22  1  1  0  0  0
 16 17  1  0  0  0  0
 18 19  1  6  0  0  0
 18 17  1  0  0  0  0
 19 16  1  0  0  0  0
 20 22  1  0  0  0  0
 22 21  1  0  0  0  0
 23 24  2  0  0  0  0
 25 23  1  0  0  0  0
 26 25  1  0  0  0  0
 27 28  1  0  0  0  0
 28 23  1  0  0  0  0
 29 30  1  0  0  0  0
 31 30  1  0  0  0  0
M  END
>  <MODEL>
2

>  <REMARK>
 VINA RESULT:      -7.8      1.757      8.280
  Name = 
  7 active torsions:
  status: ('A' for Active; 'I' for Inactive)
    1  A    between atoms: C_1  and  O_12
    2  A    between atoms: C_1  and  C_31
    3  A    between atoms: C_3  and  C_5
    4  A    between atoms: C_3  and  O_27
    5  A    between atoms: N_6  and  C_9
    6  A    between atoms: N_16  and  C_23
    7  A    between atoms: N_19  and  C_20
                            x       y       z     vdW  Elec       q    Type
                         _______ _______ _______ _____ _____    ______ ____

>  <TORSDO>
F 7

$$$$
=
 OpenBabel10222420293D

 31 34  0  0  1  0  0  0  0  0999 V2000
  184.5150  178.5870  143.9970 C   0  0  0  0  0  0  0  0  0  0  0  0
  182.0870  178.7240  142.6910 C   0  0  0  0  0  2  0  0  0  0  0  0
  182.6310  178.8610  141.5290 C   0  0  2  0  0  3  0  0  0  0  0  0
  189.5380  177.0890  146.1260 N   0  0  0  0  0  1  0  0  0  0  0  0
  188.2610  177.4290  145.5950 C   0  0  0  0  0  0  0  0  0  0  0  0
  183.2310  179.0560  144.6760 C   0  0  0  0  0  2  0  0  0  0  0  0
  184.0840  178.9720  141.5220 N   0  0  0  0  0  0  0  0  0  0  0  0
  187.2750  177.6700  146.4240 N   0  0  0  0  0  0  0  0  0  0  0  0
  184.8960  178.6170  142.6860 C   0  0  0  0  0  0  0  0  0  0  0  0
  185.7030  178.1800  144.7150 C   0  0  0  0  0  0  0  0  0  0  0  0
  185.9490  178.0490  146.0100 C   0  0  0  0  0  3  0  0  0  0  0  0
  186.2720  178.2230  142.5380 N   0  0  0  0  0  0  0  0  0  0  0  0
  181.9840  178.6260  143.9680 C   0  0  0  0  0  2  0  0  0  0  0  0
  186.7130  177.9710  143.7250 C   0  0  0  0  0  0  0  0  0  0  0  0
  188.0950  177.5060  144.0810 C   0  0  2  0  0  3  0  0  0  0  0  0
  185.7480  177.9370  138.9440 C   0  0  1  0  0  3  0  0  0  0  0  0
  186.1890  178.6130  140.2400 C   0  0  0  0  0  2  0  0  0  0  0  0
  184.8540  179.3270  140.3200 C   0  0  1  0  0  3  0  0  0  0  0  0
  184.3840  178.6120  139.0690 C   0  0  0  0  0  2  0  0  0  0  0  0
  186.0870  177.7400  136.6180 C   0  0  0  0  0  1  0  0  0  0  0  0
  187.8960  178.1690  138.0020 C   0  0  0  0  0  1  0  0  0  0  0  0
  186.4880  178.4790  137.8050 N   0  0  0  0  0  0  0  0  0  0  0  0
  181.0840  178.2240  139.6940 C   0  0  0  0  0  0  0  0  0  0  0  0
  181.8500  179.0690  140.3340 N   0  0  0  0  0  0  0  0  0  0  0  0
  180.9490  176.7920  140.1010 C   0  0  0  0  0  2  0  0  0  0  0  0
  181.9750  176.0440  139.5250 O   0  0  0  0  0  1  0  0  0  0  0  0
  181.0360  179.0040  137.3510 C   0  0  0  0  0  1  0  0  0  0  0  0
  180.3830  178.6350  138.5570 O   0  0  0  0  0  0  0  0  0  0  0  0
  188.3660  176.1380  143.4700 C   0  0  0  0  0  2  0  0  0  0  0  0
  189.1880  176.2660  142.3510 O   0  0  0  0  0  0  0  0  0  0  0  0
  190.4450  175.8480  142.7900 C   0  0  0  0  0  1  0  0  0  0  0  0
  1  6  1  0  0  0  0
  1 10  1  0  0  0  0
  2 13  1  0  0  0  0
  3 24  1  1  0  0  0
  3  2  1  0  0  0  0
  5  4  1  0  0  0  0
  5  8  2  0  0  0  0
  7  3  1  0  0  0  0
  7  9  1  0  0  0  0
  9  1  2  0  0  0  0
 10 11  2  0  0  0  0
 11  8  1  0  0  0  0
 12  9  1  0  0  0  0
 12 14  2  0  0  0  0
 13  6  1  0  0  0  0
 14 15  1  0  0  0  0
 14 10  1  0  0  0  0
 15 29  1  6  0  0  0
 15  5  1  0  0  0  0
 16 22  1  6  0  0  0
 16 19  1  0  0  0  0
 16 17  1  0  0  0  0
 17 18  1  0  0  0  0
 18 19  1  6  0  0  0
 18  7  1  0  0  0  0
 20 22  1  0  0  0  0
 22 21  1  0  0  0  0
 23 25  1  0  0  0  0
 23 24  2  0  0  0  0
 26 25  1  0  0  0  0
 27 28  1  0  0  0  0
 28 23  1  0  0  0  0
 30 31  1  0  0  0  0
 30 29  1  0  0  0  0
M  END
>  <MODEL>
3

>  <REMARK>
 VINA RESULT:      -7.7      2.489      7.165
  Name = 
  7 active torsions:
  status: ('A' for Active; 'I' for Inactive)
    1  A    between atoms: C_1  and  O_12
    2  A    between atoms: C_1  and  C_31
    3  A    between atoms: C_3  and  C_5
    4  A    between atoms: C_3  and  O_27
    5  A    between atoms: N_6  and  C_9
    6  A    between atoms: N_16  and  C_23
    7  A    between atoms: N_19  and  C_20
                            x       y       z     vdW  Elec       q    Type
                         _______ _______ _______ _____ _____    ______ ____

>  <TORSDO>
F 7

$$$$
=
 OpenBabel10222420293D

 31 34  0  0  1  0  0  0  0  0999 V2000
  189.5730  177.2330  140.7940 C   0  0  0  0  0  0  0  0  0  0  0  0
  189.4730  176.4840  143.4490 C   0  0  0  0  0  2  0  0  0  0  0  0
  188.3370  177.0620  143.6510 C   0  0  2  0  0  3  0  0  0  0  0  0
  188.8390  177.8280  135.2160 N   0  0  0  0  0  1  0  0  0  0  0  0
  189.0180  177.6390  136.6160 C   0  0  0  0  0  0  0  0  0  0  0  0
  190.8210  176.9340  141.6210 C   0  0  0  0  0  2  0  0  0  0  0  0
  187.8080  177.8220  142.5260 N   0  0  1  0  0  0  0  0  0  0  0  0
  190.1890  177.2500  137.0560 N   0  0  0  0  0  0  0  0  0  0  0  0
  188.3350  177.6700  141.1700 C   0  0  2  0  0  3  0  0  0  0  0  0
  189.5590  177.2890  139.3490 C   0  0  0  0  0  0  0  0  0  0  0  0
  190.5010  177.0510  138.4490 C   0  0  0  0  0  3  0  0  0  0  0  0
  187.5260  177.9810  140.0210 N   0  0  0  0  0  0  0  0  0  0  0  0
  190.5490  176.1200  142.8480 C   0  0  0  0  0  2  0  0  0  0  0  0
  188.2560  177.7460  138.9810 C   0  0  0  0  0  0  0  0  0  0  0  0
  187.8410  177.9060  137.5480 C   0  0  0  0  0  0  0  0  0  0  0  0
  184.5800  178.0640  142.6020 C   0  0  1  0  0  3  0  0  0  0  0  0
  185.6090  178.4570  141.5450 C   0  0  0  0  0  2  0  0  0  0  0  0
  186.6330  178.7010  142.6350 C   0  0  1  0  0  3  0  0  0  0  0  0
  185.6390  178.2500  143.6860 C   0  0  0  0  0  2  0  0  0  0  0  0
  182.9330  178.9660  144.0290 C   0  0  0  0  0  1  0  0  0  0  0  0
  182.4900  178.7590  141.7640 C   0  0  0  0  0  1  0  0  0  0  0  0
  183.5410  179.0880  142.7140 N   0  0  0  0  0  0  0  0  0  0  0  0
  188.2350  177.4570  146.1000 C   0  0  0  0  0  0  0  0  0  0  0  0
  187.7170  177.1040  144.9520 N   0  0  0  0  0  0  0  0  0  0  0  0
  189.6740  177.8310  146.2510 C   0  0  0  0  0  2  0  0  0  0  0  0
  190.3950  176.7360  146.7250 O   0  0  0  0  0  1  0  0  0  0  0  0
  187.8620  178.0800  148.4610 C   0  0  0  0  0  1  0  0  0  0  0  0
  187.4490  177.4530  147.2550 O   0  0  0  0  0  0  0  0  0  0  0  0
  186.7050  176.9480  137.2170 C   0  0  0  0  0  2  0  0  0  0  0  0
  187.1440  175.6280  137.3150 O   0  0  0  0  0  0  0  0  0  0  0  0
  186.0450  174.8630  136.9240 C   0  0  0  0  0  1  0  0  0  0  0  0
  1  9  1  0  0  0  0
  1  6  1  0  0  0  0
  2  3  1  0  0  0  0
  3 24  1  1  0  0  0
  4  5  1  0  0  0  0
  5  8  1  0  0  0  0
  5 15  2  0  0  0  0
  6 13  1  0  0  0  0
  7 18  1  6  0  0  0
  7  3  1  0  0  0  0
  8 11  2  0  0  0  0
  9 12  1  6  0  0  0
  9  7  1  0  0  0  0
 10  1  2  0  0  0  0
 11 10  1  0  0  0  0
 13  2  1  0  0  0  0
 14 10  1  0  0  0  0
 14 12  2  0  0  0  0
 15 14  1  0  0  0  0
 16 22  1  1  0  0  0
 16 19  1  0  0  0  0
 17 16  1  0  0  0  0
 18 17  1  6  0  0  0
 18 19  1  0  0  0  0
 21 22  1  0  0  0  0
 22 20  1  0  0  0  0
 23 25  1  0  0  0  0
 23 28  1  0  0  0  0
 24 23  2  0  0  0  0
 25 26  1  0  0  0  0
 28 27  1  0  0  0  0
 29 30  1  0  0  0  0
 29 15  1  0  0  0  0
 31 30  1  0  0  0  0
M  END
>  <MODEL>
4

>  <REMARK>
 VINA RESULT:      -7.5      2.307      5.697
  Name = 
  7 active torsions:
  status: ('A' for Active; 'I' for Inactive)
    1  A    between atoms: C_1  and  O_12
    2  A    between atoms: C_1  and  C_31
    3  A    between atoms: C_3  and  C_5
    4  A    between atoms: C_3  and  O_27
    5  A    between atoms: N_6  and  C_9
    6  A    between atoms: N_16  and  C_23
    7  A    between atoms: N_19  and  C_20
                            x       y       z     vdW  Elec       q    Type
                         _______ _______ _______ _____ _____    ______ ____

>  <TORSDO>
F 7

$$$$
=
 OpenBabel10222420293D

 31 34  0  0  1  0  0  0  0  0999 V2000
  186.2900  178.3510  145.1170 C   0  0  0  0  0  0  0  0  0  0  0  0
  183.5890  178.6100  144.6150 C   0  0  0  0  0  2  0  0  0  0  0  0
  183.7630  178.8160  143.3530 C   0  0  0  0  0  0  0  0  0  0  0  0
  191.6660  176.6400  145.5390 N   0  0  0  0  0  1  0  0  0  0  0  0
  190.3010  177.0330  145.4390 C   0  0  0  0  0  0  0  0  0  0  0  0
  185.2860  178.7930  146.1780 C   0  0  0  0  0  2  0  0  0  0  0  0
  185.1490  178.9060  142.9150 N   0  0  0  0  0  0  0  0  0  0  0  0
  189.6190  177.2330  146.5390 N   0  0  0  0  0  0  0  0  0  0  0  0
  186.2600  178.4620  143.7560 C   0  0  0  0  0  0  0  0  0  0  0  0
  187.6240  177.8790  145.4170 C   0  0  0  0  0  0  0  0  0  0  0  0
  188.2430  177.6590  146.5680 C   0  0  0  0  0  3  0  0  0  0  0  0
  187.5140  178.0590  143.1770 N   0  0  0  0  0  0  0  0  0  0  0  0
  183.8700  178.4300  145.8560 C   0  0  0  0  0  2  0  0  0  0  0  0
  188.2830  177.7210  144.1590 C   0  0  0  0  0  0  0  0  0  0  0  0
  189.6910  177.2130  144.0530 C   0  0  2  0  0  3  0  0  0  0  0  0
  185.9500  178.0190  139.9050 C   0  0  1  0  0  3  0  0  0  0  0  0
  186.7700  178.6160  141.0460 C   0  0  0  0  0  2  0  0  0  0  0  0
  185.5350  179.3290  141.5590 C   0  0  1  0  0  3  0  0  0  0  0  0
  184.6990  178.6900  140.4680 C   0  0  0  0  0  2  0  0  0  0  0  0
  185.4110  178.1370  137.6120 C   0  0  0  0  0  1  0  0  0  0  0  0
  187.6350  178.1000  138.2600 C   0  0  0  0  0  1  0  0  0  0  0  0
  186.3300  178.6240  138.6290 N   0  0  0  0  0  0  0  0  0  0  0  0
  181.3810  179.0270  142.6860 C   0  0  2  0  0  3  0  0  0  0  0  0
  182.6660  179.1140  142.4650 N   0  0  0  0  0  0  0  0  0  0  0  0
  180.8190  178.5010  143.9670 C   0  0  0  0  0  2  0  0  0  0  0  0
  179.4270  178.5780  143.9340 O   0  0  0  0  0  1  0  0  0  0  0  0
  180.7940  179.3450  140.3070 C   0  0  0  0  0  1  0  0  0  0  0  0
  180.4710  179.3920  141.6900 O   0  0  0  0  0  0  0  0  0  0  0  0
  189.7190  175.8850  143.3090 C   0  0  0  0  0  2  0  0  0  0  0  0
  190.0500  176.0910  141.9700 O   0  0  0  0  0  0  0  0  0  0  0  0
  191.0800  177.0310  142.0050 C   0  0  0  0  0  1  0  0  0  0  0  0
  1 10  1  0  0  0  0
  1  6  1  0  0  0  0
  2 13  1  0  0  0  0
  3  2  1  0  0  0  0
  5  4  1  0  0  0  0
  5  8  2  0  0  0  0
  7  3  1  0  0  0  0
  7  9  1  0  0  0  0
  8 11  1  0  0  0  0
  9  1  2  0  0  0  0
 10 11  2  0  0  0  0
 12  9  1  0  0  0  0
 12 14  2  0  0  0  0
 13  6  1  0  0  0  0
 14 10  1  0  0  0  0
 15 29  1  1  0  0  0
 15 14  1  0  0  0  0
 15  5  1  0  0  0  0
 16 22  1  6  0  0  0
 16 19  1  0  0  0  0
 16 17  1  0  0  0  0
 17 18  1  0  0  0  0
 18 19  1  6  0  0  0
 18  7  1  0  0  0  0
 20 22  1  0  0  0  0
 21 22  1  0  0  0  0
 23 25  1  6  0  0  0
 24 23  1  0  0  0  0
 24  3  2  0  0  0  0
 26 25  1  0  0  0  0
 27 28  1  0  0  0  0
 28 23  1  0  0  0  0
 30 31  1  0  0  0  0
 30 29  1  0  0  0  0
M  END
>  <MODEL>
5

>  <REMARK>
 VINA RESULT:      -7.5      2.478      6.824
  Name = 
  7 active torsions:
  status: ('A' for Active; 'I' for Inactive)
    1  A    between atoms: C_1  and  O_12
    2  A    between atoms: C_1  and  C_31
    3  A    between atoms: C_3  and  C_5
    4  A    between atoms: C_3  and  O_27
    5  A    between atoms: N_6  and  C_9
    6  A    between atoms: N_16  and  C_23
    7  A    between atoms: N_19  and  C_20
                            x       y       z     vdW  Elec       q    Type
                         _______ _______ _______ _____ _____    ______ ____

>  <TORSDO>
F 7

$$$$
=
 OpenBabel10222420293D

 31 34  0  0  1  0  0  0  0  0999 V2000
  184.5310  178.5930  144.0450 C   0  0  0  0  0  0  0  0  0  0  0  0
  182.1030  178.7070  142.7380 C   0  0  0  0  0  2  0  0  0  0  0  0
  182.6460  178.8440  141.5750 C   0  0  2  0  0  3  0  0  0  0  0  0
  189.5640  177.1410  146.1810 N   0  0  0  0  0  1  0  0  0  0  0  0
  188.2850  177.4690  145.6480 C   0  0  0  0  0  0  0  0  0  0  0  0
  183.2430  179.0550  144.7220 C   0  0  0  0  0  2  0  0  0  0  0  0
  184.0970  178.9670  141.5680 N   0  0  0  0  0  0  0  0  0  0  0  0
  187.2980  177.7050  146.4760 N   0  0  0  0  0  0  0  0  0  0  0  0
  184.9120  178.6210  142.7340 C   0  0  0  0  0  0  0  0  0  0  0  0
  185.7220  178.1980  144.7640 C   0  0  0  0  0  0  0  0  0  0  0  0
  185.9680  178.0730  146.0600 C   0  0  0  0  0  3  0  0  0  0  0  0
  186.2910  178.2380  142.5880 N   0  0  0  0  0  0  0  0  0  0  0  0
  181.9990  178.6130  144.0160 C   0  0  0  0  0  2  0  0  0  0  0  0
  186.7340  177.9930  143.7760 C   0  0  0  0  0  0  0  0  0  0  0  0
  188.1190  177.5410  144.1340 C   0  0  2  0  0  3  0  0  0  0  0  0
  185.6820  177.9380  138.9380 C   0  0  1  0  0  3  0  0  0  0  0  0
  186.1680  178.5580  140.2460 C   0  0  0  0  0  2  0  0  0  0  0  0
  184.8660  179.3240  140.3650 C   0  0  1  0  0  3  0  0  0  0  0  0
  184.3490  178.6640  139.1030 C   0  0  0  0  0  2  0  0  0  0  0  0
  186.0070  177.7670  136.6090 C   0  0  0  0  0  1  0  0  0  0  0  0
  187.8300  178.1390  137.9910 C   0  0  0  0  0  1  0  0  0  0  0  0
  186.4280  178.4810  137.8040 N   0  0  0  0  0  0  0  0  0  0  0  0
  180.6590  179.5360  140.2570 C   0  0  0  0  0  0  0  0  0  0  0  0
  181.8630  179.0420  140.3800 N   0  0  0  0  0  0  0  0  0  0  0  0
  179.8290  179.9350  141.4350 C   0  0  0  0  0  2  0  0  0  0  0  0
  179.6400  181.3170  141.4270 O   0  0  0  0  0  1  0  0  0  0  0  0
  180.8540  179.7340  137.8020 C   0  0  0  0  0  1  0  0  0  0  0  0
  180.0810  179.6690  138.9920 O   0  0  0  0  0  0  0  0  0  0  0  0
  188.4010  176.1730  143.5280 C   0  0  0  0  0  2  0  0  0  0  0  0
  189.2130  176.3040  142.4010 O   0  0  0  0  0  0  0  0  0  0  0  0
  190.4830  175.9320  142.8400 C   0  0  0  0  0  1  0  0  0  0  0  0
  1  6  1  0  0  0  0
  1 10  1  0  0  0  0
  2 13  1  0  0  0  0
  3 24  1  1  0  0  0
  3  2  1  0  0  0  0
  5  4  1  0  0  0  0
  5  8  2  0  0  0  0
  7  3  1  0  0  0  0
  7  9  1  0  0  0  0
  9  1  2  0  0  0  0
 10 11  2  0  0  0  0
 11  8  1  0  0  0  0
 12  9  1  0  0  0  0
 12 14  2  0  0  0  0
 13  6  1  0  0  0  0
 14 15  1  0  0  0  0
 14 10  1  0  0  0  0
 15 29  1  6  0  0  0
 15  5  1  0  0  0  0
 16 22  1  6  0  0  0
 16 19  1  0  0  0  0
 16 17  1  0  0  0  0
 17 18  1  0  0  0  0
 18 19  1  6  0  0  0
 18  7  1  0  0  0  0
 20 22  1  0  0  0  0
 22 21  1  0  0  0  0
 23 24  2  0  0  0  0
 23 25  1  0  0  0  0
 26 25  1  0  0  0  0
 27 28  1  0  0  0  0
 28 23  1  0  0  0  0
 30 31  1  0  0  0  0
 30 29  1  0  0  0  0
M  END
>  <MODEL>
6

>  <REMARK>
 VINA RESULT:      -7.5      2.526      7.226
  Name = 
  7 active torsions:
  status: ('A' for Active; 'I' for Inactive)
    1  A    between atoms: C_1  and  O_12
    2  A    between atoms: C_1  and  C_31
    3  A    between atoms: C_3  and  C_5
    4  A    between atoms: C_3  and  O_27
    5  A    between atoms: N_6  and  C_9
    6  A    between atoms: N_16  and  C_23
    7  A    between atoms: N_19  and  C_20
                            x       y       z     vdW  Elec       q    Type
                         _______ _______ _______ _____ _____    ______ ____

>  <TORSDO>
F 7

$$$$
=
 OpenBabel10222420293D

 31 34  0  0  1  0  0  0  0  0999 V2000
  184.8470  178.7610  141.2850 C   0  0  0  0  0  0  0  0  0  0  0  0
  184.9690  178.1130  138.6040 C   0  0  0  0  0  2  0  0  0  0  0  0
  186.2580  178.0610  138.5950 C   0  0  2  0  0  3  0  0  0  0  0  0
  184.9300  178.8030  146.9410 N   0  0  0  0  0  1  0  0  0  0  0  0
  184.8940  178.7550  145.5180 C   0  0  0  0  0  0  0  0  0  0  0  0
  183.7510  179.1310  140.2890 C   0  0  0  0  0  2  0  0  0  0  0  0
  186.9130  178.4390  139.8400 N   0  0  0  0  0  0  0  0  0  0  0  0
  183.7630  179.0020  144.9060 N   0  0  0  0  0  0  0  0  0  0  0  0
  186.1820  178.5390  141.1030 C   0  0  0  0  0  0  0  0  0  0  0  0
  184.6690  178.7730  142.7200 C   0  0  2  0  0  3  0  0  0  0  0  0
  183.6060  179.0120  143.4740 C   0  0  0  0  0  3  0  0  0  0  0  0
  186.8570  178.3880  142.3650 N   0  0  0  0  0  0  0  0  0  0  0  0
  183.7750  178.3140  139.0350 C   0  0  0  0  0  2  0  0  0  0  0  0
  185.9590  178.5210  143.2830 C   0  0  0  0  0  0  0  0  0  0  0  0
  186.1780  178.4270  144.7640 C   0  0  0  0  0  0  0  0  0  0  0  0
  189.8680  177.1830  139.4220 C   0  0  1  0  0  3  0  0  0  0  0  0
  189.0570  177.4880  140.6790 C   0  0  0  0  0  2  0  0  0  0  0  0
  188.3680  178.6280  139.9550 C   0  0  1  0  0  3  0  0  0  0  0  0
  189.1210  178.2910  138.6830 C   0  0  0  0  0  2  0  0  0  0  0  0
  192.0720  176.7410  138.7070 C   0  0  0  0  0  1  0  0  0  0  0  0
  191.6590  177.1290  140.9540 C   0  0  0  0  0  1  0  0  0  0  0  0
  191.2720  177.5470  139.6150 N   0  0  0  0  0  0  0  0  0  0  0  0
  186.9360  176.8080  136.5620 C   0  0  0  0  0  0  0  0  0  0  0  0
  187.0090  177.8190  137.3870 N   0  0  0  0  0  0  0  0  0  0  0  0
  186.0440  175.6330  136.8050 C   0  0  0  0  0  2  0  0  0  0  0  0
  186.8080  174.5430  137.2180 O   0  0  0  0  0  1  0  0  0  0  0  0
  189.1430  176.5430  135.4820 C   0  0  0  0  0  1  0  0  0  0  0  0
  187.7420  176.7740  135.4210 O   0  0  0  0  0  0  0  0  0  0  0  0
  186.6440  177.0270  145.1410 C   0  0  0  0  0  2  0  0  0  0  0  0
  188.0360  176.9910  145.2290 O   0  0  0  0  0  0  0  0  0  0  0  0
  188.3200  177.5040  146.4950 C   0  0  0  0  0  1  0  0  0  0  0  0
  1 10  1  0  0  0  0
  2 13  1  0  0  0  0
  3 24  1  6  0  0  0
  3  2  1  0  0  0  0
  3  7  1  0  0  0  0
  5  4  1  0  0  0  0
  6  1  1  0  0  0  0
  7 18  1  0  0  0  0
  7  9  1  0  0  0  0
  8  5  1  0  0  0  0
  9  1  2  0  0  0  0
  9 12  1  0  0  0  0
 10 14  1  0  0  0  0
 10 11  1  1  0  0  0
 11  8  2  0  0  0  0
 12 14  2  0  0  0  0
 13  6  1  0  0  0  0
 14 15  1  0  0  0  0
 15 29  1  0  0  0  0
 15  5  2  0  0  0  0
 16 22  1  1  0  0  0
 16 17  1  0  0  0  0
 18 19  1  6  0  0  0
 18 17  1  0  0  0  0
 19 16  1  0  0  0  0
 20 22  1  0  0  0  0
 22 21  1  0  0  0  0
 23 25  1  0  0  0  0
 23 24  2  0  0  0  0
 25 26  1  0  0  0  0
 28 27  1  0  0  0  0
 28 23  1  0  0  0  0
 29 30  1  0  0  0  0
 30 31  1  0  0  0  0
M  END
>  <MODEL>
7

>  <REMARK>
 VINA RESULT:      -7.2      2.549      6.658
  Name = 
  7 active torsions:
  status: ('A' for Active; 'I' for Inactive)
    1  A    between atoms: C_1  and  O_12
    2  A    between atoms: C_1  and  C_31
    3  A    between atoms: C_3  and  C_5
    4  A    between atoms: C_3  and  O_27
    5  A    between atoms: N_6  and  C_9
    6  A    between atoms: N_16  and  C_23
    7  A    between atoms: N_19  and  C_20
                            x       y       z     vdW  Elec       q    Type
                         _______ _______ _______ _____ _____    ______ ____

>  <TORSDO>
F 7

$$$$
=
 OpenBabel10222420293D

 31 34  0  0  1  0  0  0  0  0999 V2000
  189.9310  177.3310  144.3320 C   0  0  0  0  0  0  0  0  0  0  0  0
  190.9170  177.8830  141.8140 C   0  0  0  0  0  2  0  0  0  0  0  0
  189.7430  177.9300  141.2790 C   0  0  2  0  0  3  0  0  0  0  0  0
  187.5560  177.4890  149.4640 N   0  0  0  0  0  1  0  0  0  0  0  0
  188.1670  177.4860  148.1780 C   0  0  0  0  0  0  0  0  0  0  0  0
  191.3330  176.9290  143.8810 C   0  0  0  0  0  2  0  0  0  0  0  0
  188.6340  177.5950  142.1620 N   0  0  0  0  0  0  0  0  0  0  0  0
  189.4470  177.2220  148.0880 N   0  0  0  0  0  0  0  0  0  0  0  0
  188.7870  177.5420  143.6160 C   0  0  0  0  0  0  0  0  0  0  0  0
  189.5100  177.3710  145.7150 C   0  0  2  0  0  3  0  0  0  0  0  0
  190.1720  177.1620  146.8440 C   0  0  0  0  0  3  0  0  0  0  0  0
  187.6600  177.7350  144.4890 N   0  0  0  0  0  0  0  0  0  0  0  0
  191.8300  177.7010  142.6990 C   0  0  0  0  0  2  0  0  0  0  0  0
  188.1060  177.6370  145.6960 C   0  0  0  0  0  0  0  0  0  0  0  0
  187.3050  177.7830  146.9570 C   0  0  0  0  0  0  0  0  0  0  0  0
  185.7170  178.9070  141.6590 C   0  0  1  0  0  3  0  0  0  0  0  0
  186.2130  177.8800  142.6740 C   0  0  0  0  0  2  0  0  0  0  0  0
  187.2560  177.4060  141.6820 C   0  0  1  0  0  3  0  0  0  0  0  0
  186.8120  178.4650  140.6920 C   0  0  0  0  0  2  0  0  0  0  0  0
  184.1010  179.3760  140.0060 C   0  0  0  0  0  1  0  0  0  0  0  0
  183.4140  178.8820  142.1640 C   0  0  0  0  0  1  0  0  0  0  0  0
  184.3980  178.5300  141.1510 N   0  0  0  0  0  0  0  0  0  0  0  0
  190.0660  177.4620  138.8620 C   0  0  0  0  0  0  0  0  0  0  0  0
  189.5510  178.1270  139.8630 N   0  0  0  0  0  0  0  0  0  0  0  0
  191.0580  176.3600  139.0540 C   0  0  0  0  0  2  0  0  0  0  0  0
  190.6450  175.2310  138.3470 O   0  0  0  0  0  1  0  0  0  0  0  0
  189.0540  179.0040  137.2180 C   0  0  0  0  0  1  0  0  0  0  0  0
  189.7300  177.7980  137.5490 O   0  0  0  0  0  0  0  0  0  0  0  0
  186.7420  179.1940  147.0640 C   0  0  0  0  0  2  0  0  0  0  0  0
  185.3740  179.1470  147.3350 O   0  0  0  0  0  0  0  0  0  0  0  0
  184.7850  178.8390  146.1090 C   0  0  0  0  0  1  0  0  0  0  0  0
  1 10  1  0  0  0  0
  2 13  1  0  0  0  0
  3 24  1  6  0  0  0
  3  2  1  0  0  0  0
  3  7  1  0  0  0  0
  5  4  1  0  0  0  0
  6  1  1  0  0  0  0
  7  9  1  0  0  0  0
  8  5  1  0  0  0  0
  9  1  2  0  0  0  0
  9 12  1  0  0  0  0
 10 11  1  6  0  0  0
 11  8  2  0  0  0  0
 12 14  2  0  0  0  0
 13  6  1  0  0  0  0
 14 10  1  0  0  0  0
 14 15  1  0  0  0  0
 15 29  1  0  0  0  0
 15  5  2  0  0  0  0
 16 22  1  6  0  0  0
 16 17  1  0  0  0  0
 18 19  1  6  0  0  0
 18  7  1  0  0  0  0
 18 17  1  0  0  0  0
 19 16  1  0  0  0  0
 20 22  1  0  0  0  0
 22 21  1  0  0  0  0
 23 25  1  0  0  0  0
 23 24  2  0  0  0  0
 26 25  1  0  0  0  0
 27 28  1  0  0  0  0
 28 23  1  0  0  0  0
 29 30  1  0  0  0  0
 31 30  1  0  0  0  0
M  END
>  <MODEL>
8

>  <REMARK>
 VINA RESULT:      -7.1      2.219      7.291
  Name = 
  7 active torsions:
  status: ('A' for Active; 'I' for Inactive)
    1  A    between atoms: C_1  and  O_12
    2  A    between atoms: C_1  and  C_31
    3  A    between atoms: C_3  and  C_5
    4  A    between atoms: C_3  and  O_27
    5  A    between atoms: N_6  and  C_9
    6  A    between atoms: N_16  and  C_23
    7  A    between atoms: N_19  and  C_20
                            x       y       z     vdW  Elec       q    Type
                         _______ _______ _______ _____ _____    ______ ____

>  <TORSDO>
F 7

$$$$
=
 OpenBabel10222420293D

 31 34  0  0  1  0  0  0  0  0999 V2000
  189.2600  177.6380  142.0960 C   0  0  0  0  0  0  0  0  0  0  0  0
  187.3760  177.5460  144.1110 C   0  0  0  0  0  2  0  0  0  0  0  0
  186.4280  177.9840  143.3520 C   0  0  2  0  0  3  0  0  0  0  0  0
  192.4650  176.7520  137.5190 N   0  0  0  0  0  1  0  0  0  0  0  0
  191.6550  176.9350  138.6760 C   0  0  0  0  0  0  0  0  0  0  0  0
  189.6200  177.7330  143.5770 C   0  0  0  0  0  2  0  0  0  0  0  0
  186.8260  178.3640  142.0030 N   0  0  1  0  0  0  0  0  0  0  0  0
  192.2110  176.8390  139.8580 N   0  0  0  0  0  0  0  0  0  0  0  0
  188.1140  177.9670  141.4320 C   0  0  2  0  0  3  0  0  0  0  0  0
  190.2160  177.3400  141.0530 C   0  0  0  0  0  0  0  0  0  0  0  0
  191.5040  177.0320  141.0990 C   0  0  0  0  0  3  0  0  0  0  0  0
  188.2960  177.8700  140.0080 N   0  0  0  0  0  0  0  0  0  0  0  0
  188.5560  177.2090  144.4900 C   0  0  0  0  0  2  0  0  0  0  0  0
  189.5180  177.4990  139.8160 C   0  0  0  0  0  0  0  0  0  0  0  0
  190.1740  177.2450  138.4910 C   0  0  0  0  0  0  0  0  0  0  0  0
  184.1440  178.2430  140.1920 C   0  0  1  0  0  3  0  0  0  0  0  0
  185.6260  178.2530  139.8230 C   0  0  0  0  0  2  0  0  0  0  0  0
  185.9290  179.0620  141.0690 C   0  0  1  0  0  3  0  0  0  0  0  0
  184.4700  179.0010  141.4770 C   0  0  0  0  0  2  0  0  0  0  0  0
  182.0530  179.2750  139.8390 C   0  0  0  0  0  1  0  0  0  0  0  0
  183.1800  178.3370  138.0440 C   0  0  0  0  0  1  0  0  0  0  0  0
  183.3800  179.0870  139.2740 N   0  0  0  0  0  0  0  0  0  0  0  0
  184.7420  178.7240  145.0170 C   0  0  0  0  0  0  0  0  0  0  0  0
  185.1020  178.2490  143.8530 N   0  0  0  0  0  0  0  0  0  0  0  0
  185.7240  179.0200  146.1040 C   0  0  0  0  0  2  0  0  0  0  0  0
  185.1720  178.6820  147.3380 O   0  0  0  0  0  1  0  0  0  0  0  0
  182.3640  178.7050  144.3440 C   0  0  0  0  0  1  0  0  0  0  0  0
  183.3900  178.9330  145.3010 O   0  0  0  0  0  0  0  0  0  0  0  0
  189.4960  176.0800  137.7810 C   0  0  0  0  0  2  0  0  0  0  0  0
  190.2170  174.9050  137.9910 O   0  0  0  0  0  0  0  0  0  0  0  0
  189.5620  173.9490  137.2150 C   0  0  0  0  0  1  0  0  0  0  0  0
  1  6  1  0  0  0  0
  2 13  1  0  0  0  0
  3 24  1  1  0  0  0
  3  2  1  0  0  0  0
  4  5  1  0  0  0  0
  5  8  1  0  0  0  0
  6 13  1  0  0  0  0
  7 18  1  6  0  0  0
  7  3  1  0  0  0  0
  8 11  2  0  0  0  0
  9 12  1  1  0  0  0
  9  7  1  0  0  0  0
  9  1  1  0  0  0  0
 10 11  1  0  0  0  0
 10  1  2  0  0  0  0
 14 12  2  0  0  0  0
 14 10  1  0  0  0  0
 15  5  2  0  0  0  0
 15 14  1  0  0  0  0
 16 22  1  6  0  0  0
 16 19  1  0  0  0  0
 17 16  1  0  0  0  0
 18 17  1  6  0  0  0
 18 19  1  0  0  0  0
 21 22  1  0  0  0  0
 22 20  1  0  0  0  0
 23 28  1  0  0  0  0
 23 25  1  0  0  0  0
 24 23  2  0  0  0  0
 25 26  1  0  0  0  0
 27 28  1  0  0  0  0
 29 30  1  0  0  0  0
 29 15  1  0  0  0  0
 31 30  1  0  0  0  0
M  END
>  <MODEL>
9

>  <REMARK>
 VINA RESULT:      -7.1      2.475      6.601
  Name = 
  7 active torsions:
  status: ('A' for Active; 'I' for Inactive)
    1  A    between atoms: C_1  and  O_12
    2  A    between atoms: C_1  and  C_31
    3  A    between atoms: C_3  and  C_5
    4  A    between atoms: C_3  and  O_27
    5  A    between atoms: N_6  and  C_9
    6  A    between atoms: N_16  and  C_23
    7  A    between atoms: N_19  and  C_20
                            x       y       z     vdW  Elec       q    Type
                         _______ _______ _______ _____ _____    ______ ____

>  <TORSDO>
F 7

$$$$
