=
 OpenBabel10222420233D

 47 51  0  0  1  0  0  0  0  0999 V2000
  188.6800  177.9990  141.6480 C   0  0  0  0  0  3  0  0  0  0  0  0
  188.4830  178.1950  139.2040 C   0  0  0  0  0  0  0  0  0  0  0  0
  190.1280  177.5460  141.5130 C   0  0  0  0  0  0  0  0  0  0  0  0
  190.6770  177.4570  140.3120 C   0  0  0  0  0  3  0  0  0  0  0  0
  187.8230  178.4970  138.1530 N   0  0  0  0  0  0  0  0  0  0  0  0
  189.8270  177.5140  139.1180 C   0  0  2  0  0  3  0  0  0  0  0  0
  187.9820  178.3090  140.5930 C   0  0  0  0  0  3  0  0  0  0  0  0
  191.8490  176.4470  142.8520 O   0  0  0  0  0  0  0  0  0  0  0  0
  190.8550  177.2340  142.7690 C   0  0  0  0  0  0  0  0  0  0  0  0
  190.7510  179.0460  144.2810 O   0  0  0  0  0  0  0  0  0  0  0  0
  189.5070  177.2460  144.9120 N   0  0  0  0  0  2  0  0  0  0  0  0
  190.3590  177.8870  144.0010 C   0  0  0  0  0  0  0  0  0  0  0  0
  186.2340  178.2320  146.0170 C   0  0  0  0  0  3  0  0  0  0  0  0
  187.5950  178.1920  147.9530 C   0  0  0  0  0  3  0  0  0  0  0  0
  187.2820  177.7460  145.2680 C   0  0  0  0  0  3  0  0  0  0  0  0
  188.6700  177.7090  147.2070 C   0  0  0  0  0  3  0  0  0  0  0  0
  188.4910  177.5380  145.8460 C   0  0  0  0  0  0  0  0  0  0  0  0
  186.3700  178.4860  147.3810 C   0  0  0  0  0  3  0  0  0  0  0  0
  186.5570  178.8390  137.7760 O   0  0  0  0  0  0  0  0  0  0  0  0
  185.4100  178.0560  138.1140 C   0  0  0  0  0  2  0  0  0  0  0  0
  184.2700  178.9680  138.4520 C   0  0  0  0  0  2  0  0  0  0  0  0
  184.4950  179.0690  139.9690 C   0  0  0  0  0  2  0  0  0  0  0  0
  183.5350  178.6290  140.9640 C   0  0  1  0  0  3  0  0  0  0  0  0
  181.6140  177.2300  139.8030 O   0  0  0  0  0  1  0  0  0  0  0  0
  181.3900  179.7940  139.8020 O   0  0  0  0  0  0  0  0  0  0  0  0
  181.9760  178.5000  140.5400 P   0  0  0  0  0  0  0  0  0  0  0  0
  181.3900  178.5000  142.0720 O   0  0  0  0  0  1  0  0  0  0  0  0
  185.1290  179.4130  142.7230 C   0  0  0  0  0  1  0  0  0  0  0  0
  184.1240  178.2050  142.2750 C   0  0  0  0  0  2  0  0  0  0  0  0
  190.4960  177.0300  137.8970 C   0  0  0  0  0  2  0  0  0  0  0  0
  191.2410  175.3570  135.6060 C   0  0  0  0  0  2  0  0  0  0  0  0
  188.7230  175.1750  137.2430 C   0  0  0  0  0  2  0  0  0  0  0  0
  191.2410  174.8540  137.0680 C   0  0  0  0  0  2  0  0  0  0  0  0
  190.1360  175.5510  137.8330 C   0  0  1  0  0  3  0  0  0  0  0  0
  188.7460  175.2190  135.7940 C   0  0  1  0  0  3  0  0  0  0  0  0
  189.8530  175.5550  134.9400 C   0  0  0  0  0  2  0  0  0  0  0  0
  187.8070  174.3550  135.0970 N   0  0  0  0  0  2  0  0  0  0  0  0
  182.8830  174.5580  136.2760 C   0  0  2  0  0  3  0  0  0  0  0  0
  182.0220  173.5440  136.8260 C   0  0  0  0  0  2  0  0  0  0  0  0
  183.9470  172.0010  137.1530 C   0  0  0  0  0  2  0  0  0  0  0  0
  184.8330  172.9190  136.3370 C   0  0  0  0  0  0  0  0  0  0  0  0
  182.6010  172.2170  136.7610 O   0  0  0  0  0  0  0  0  0  0  0  0
  186.1490  172.7190  135.9890 C   0  0  0  0  0  3  0  0  0  0  0  0
  184.2870  174.1500  136.0370 C   0  0  0  0  0  0  0  0  0  0  0  0
  182.5930  175.9780  136.5930 C   0  0  0  0  0  1  0  0  0  0  0  0
  185.4780  175.0560  135.3020 S   0  0  0  0  0  0  0  0  0  0  0  0
  186.6240  173.9170  135.3910 C   0  0  0  0  0  0  0  0  0  0  0  0
  2  7  1  0  0  0  0
  3  1  1  0  0  0  0
  3  9  1  0  0  0  0
  4  3  2  0  0  0  0
  5  2  2  0  0  0  0
  6 30  1  6  0  0  0
  6  2  1  0  0  0  0
  6  4  1  0  0  0  0
  7  1  2  0  0  0  0
  9  8  2  0  0  0  0
  9 12  1  0  0  0  0
 11 17  1  0  0  0  0
 12 10  2  0  0  0  0
 12 11  1  0  0  0  0
 13 18  1  0  0  0  0
 15 17  1  0  0  0  0
 15 13  2  0  0  0  0
 16 14  1  0  0  0  0
 17 16  2  0  0  0  0
 18 14  2  0  0  0  0
 19 20  1  0  0  0  0
 19  5  1  0  0  0  0
 20 21  1  0  0  0  0
 21 22  1  0  0  0  0
 23 22  1  6  0  0  0
 23 29  1  0  0  0  0
 24 26  1  0  0  0  0
 25 26  2  0  0  0  0
 26 23  1  0  0  0  0
 26 27  1  0  0  0  0
 29 28  1  0  0  0  0
 31 33  1  0  0  0  0
 32 34  1  0  0  0  0
 33 34  1  0  0  0  0
 34 30  1  6  0  0  0
 35 37  1  6  0  0  0
 35 32  1  0  0  0  0
 36 31  1  0  0  0  0
 36 35  1  0  0  0  0
 37 47  1  0  0  0  0
 38 45  1  1  0  0  0
 38 39  1  0  0  0  0
 41 40  1  0  0  0  0
 42 39  1  0  0  0  0
 42 40  1  0  0  0  0
 43 41  1  0  0  0  0
 44 38  1  0  0  0  0
 44 41  2  0  0  0  0
 46 47  1  0  0  0  0
 46 44  1  0  0  0  0
 47 43  2  0  0  0  0
M  END
>  <MODEL>
1

>  <REMARK>
 VINA RESULT:      -8.3      0.000      0.000
  Name = 
  14 active torsions:
  status: ('A' for Active; 'I' for Inactive)
    1  A    between atoms: C_2  and  C_5
    2  A    between atoms: C_2  and  C_40
    3  A    between atoms: C_5  and  O_21
    4  A    between atoms: P_12  and  C_28
    5  A    between atoms: C_13  and  C_31
    6  A    between atoms: N_17  and  C_29
    7  A    between atoms: O_21  and  N_43
    8  A    between atoms: C_22  and  C_46
    9  A    between atoms: C_25  and  N_26
   10  A    between atoms: N_26  and  C_42
   11  A    between atoms: C_28  and  C_33
   12  A    between atoms: C_28  and  C_40
   13  A    between atoms: C_31  and  C_44
   14  A    between atoms: C_34  and  C_46
                            x       y       z     vdW  Elec       q    Type
                         _______ _______ _______ _____ _____    ______ ____

>  <TORSDO>
F 14

$$$$
=
 OpenBabel10222420233D

 47 51  0  0  1  0  0  0  0  0999 V2000
  188.5710  178.3930  141.8710 C   0  0  0  0  0  3  0  0  0  0  0  0
  187.5060  178.2190  139.6610 C   0  0  0  0  0  0  0  0  0  0  0  0
  189.8080  177.6730  141.3510 C   0  0  0  0  0  0  0  0  0  0  0  0
  189.8620  177.2940  140.0850 C   0  0  0  0  0  3  0  0  0  0  0  0
  186.5400  178.4580  138.8600 N   0  0  0  0  0  0  0  0  0  0  0  0
  188.6410  177.3050  139.2710 C   0  0  2  0  0  3  0  0  0  0  0  0
  187.5700  178.6460  141.0780 C   0  0  0  0  0  3  0  0  0  0  0  0
  191.9950  176.8410  142.0500 O   0  0  0  0  0  0  0  0  0  0  0  0
  190.9110  177.4470  142.3200 C   0  0  0  0  0  0  0  0  0  0  0  0
  191.3640  178.9510  144.0840 O   0  0  0  0  0  0  0  0  0  0  0  0
  189.8340  177.3480  144.6090 N   0  0  0  0  0  2  0  0  0  0  0  0
  190.7030  177.9590  143.6920 C   0  0  0  0  0  0  0  0  0  0  0  0
  189.0060  177.8350  148.0700 C   0  0  0  0  0  3  0  0  0  0  0  0
  186.9580  177.9230  146.8880 C   0  0  0  0  0  3  0  0  0  0  0  0
  189.6910  177.7300  146.8810 C   0  0  0  0  0  3  0  0  0  0  0  0
  187.6350  177.8060  145.6740 C   0  0  0  0  0  3  0  0  0  0  0  0
  189.0110  177.6660  145.7090 C   0  0  0  0  0  0  0  0  0  0  0  0
  187.6150  177.9160  148.1060 C   0  0  0  0  0  3  0  0  0  0  0  0
  185.2690  178.9530  138.8730 O   0  0  0  0  0  0  0  0  0  0  0  0
  184.1680  178.2450  139.4450 C   0  0  0  0  0  2  0  0  0  0  0  0
  183.3170  179.2000  140.2260 C   0  0  0  0  0  2  0  0  0  0  0  0
  183.3230  178.4670  141.5770 C   0  0  0  0  0  2  0  0  0  0  0  0
  182.5070  178.8520  142.7140 C   0  0  1  0  0  3  0  0  0  0  0  0
  180.3300  177.9780  141.4930 O   0  0  0  0  0  0  0  0  0  0  0  0
  180.3190  180.4000  142.3640 O   0  0  0  0  0  1  0  0  0  0  0  0
  180.8980  178.9170  142.5330 P   0  0  0  0  0  0  0  0  0  0  0  0
  180.5430  178.4220  144.0560 O   0  0  0  0  0  1  0  0  0  0  0  0
  184.8170  178.7090  143.6590 C   0  0  0  0  0  1  0  0  0  0  0  0
  183.2520  179.0260  144.0030 C   0  0  0  0  0  2  0  0  0  0  0  0
  188.7560  176.5170  138.0300 C   0  0  0  0  0  2  0  0  0  0  0  0
  188.5260  176.5200  135.1060 C   0  0  0  0  0  2  0  0  0  0  0  0
  191.0570  176.6620  136.7270 C   0  0  0  0  0  2  0  0  0  0  0  0
  188.9070  177.7690  135.9360 C   0  0  0  0  0  2  0  0  0  0  0  0
  189.6950  177.3350  137.1520 C   0  0  1  0  0  3  0  0  0  0  0  0
  190.8500  175.7420  135.6260 C   0  0  1  0  0  3  0  0  0  0  0  0
  189.6140  175.4230  134.9640 C   0  0  0  0  0  2  0  0  0  0  0  0
  191.9790  175.5200  134.7370 N   0  0  0  0  0  2  0  0  0  0  0  0
  196.3770  174.2710  136.9190 C   0  0  2  0  0  3  0  0  0  0  0  0
  197.6780  174.8740  136.7880 C   0  0  0  0  0  2  0  0  0  0  0  0
  196.7450  176.7350  135.4230 C   0  0  0  0  0  2  0  0  0  0  0  0
  195.4270  175.9980  135.3040 C   0  0  0  0  0  0  0  0  0  0  0  0
  197.7680  175.7800  135.6610 O   0  0  0  0  0  0  0  0  0  0  0  0
  194.3130  176.3870  134.5960 C   0  0  0  0  0  3  0  0  0  0  0  0
  195.2970  174.8880  136.1140 C   0  0  0  0  0  0  0  0  0  0  0  0
  196.0280  173.6180  138.2050 C   0  0  0  0  0  1  0  0  0  0  0  0
  193.7300  174.3430  135.9620 S   0  0  0  0  0  0  0  0  0  0  0  0
  193.2590  175.4920  134.9240 C   0  0  0  0  0  0  0  0  0  0  0  0
  2  7  1  0  0  0  0
  3  1  1  0  0  0  0
  3  9  1  0  0  0  0
  4  3  2  0  0  0  0
  5 19  1  0  0  0  0
  5  2  2  0  0  0  0
  6 30  1  6  0  0  0
  6  2  1  0  0  0  0
  6  4  1  0  0  0  0
  7  1  2  0  0  0  0
  8  9  2  0  0  0  0
  9 12  1  0  0  0  0
 11 17  1  0  0  0  0
 12 10  2  0  0  0  0
 12 11  1  0  0  0  0
 13 18  1  0  0  0  0
 14 18  2  0  0  0  0
 15 13  2  0  0  0  0
 16 17  2  0  0  0  0
 16 14  1  0  0  0  0
 17 15  1  0  0  0  0
 19 20  1  0  0  0  0
 20 21  1  0  0  0  0
 21 22  1  0  0  0  0
 23 22  1  1  0  0  0
 23 29  1  0  0  0  0
 24 26  2  0  0  0  0
 25 26  1  0  0  0  0
 26 23  1  0  0  0  0
 26 27  1  0  0  0  0
 28 29  1  0  0  0  0
 31 33  1  0  0  0  0
 32 34  1  0  0  0  0
 33 34  1  0  0  0  0
 34 30  1  6  0  0  0
 35 37  1  6  0  0  0
 35 32  1  0  0  0  0
 36 31  1  0  0  0  0
 36 35  1  0  0  0  0
 37 47  1  0  0  0  0
 38 45  1  1  0  0  0
 39 38  1  0  0  0  0
 40 42  1  0  0  0  0
 41 40  1  0  0  0  0
 41 44  2  0  0  0  0
 42 39  1  0  0  0  0
 43 47  2  0  0  0  0
 43 41  1  0  0  0  0
 44 38  1  0  0  0  0
 46 44  1  0  0  0  0
 47 46  1  0  0  0  0
M  END
>  <MODEL>
2

>  <REMARK>
 VINA RESULT:      -8.2      2.951      5.909
  Name = 
  14 active torsions:
  status: ('A' for Active; 'I' for Inactive)
    1  A    between atoms: C_2  and  C_5
    2  A    between atoms: C_2  and  C_40
    3  A    between atoms: C_5  and  O_21
    4  A    between atoms: P_12  and  C_28
    5  A    between atoms: C_13  and  C_31
    6  A    between atoms: N_17  and  C_29
    7  A    between atoms: O_21  and  N_43
    8  A    between atoms: C_22  and  C_46
    9  A    between atoms: C_25  and  N_26
   10  A    between atoms: N_26  and  C_42
   11  A    between atoms: C_28  and  C_33
   12  A    between atoms: C_28  and  C_40
   13  A    between atoms: C_31  and  C_44
   14  A    between atoms: C_34  and  C_46
                            x       y       z     vdW  Elec       q    Type
                         _______ _______ _______ _____ _____    ______ ____

>  <TORSDO>
F 14

$$$$
=
 OpenBabel10222420233D

 47 51  0  0  1  0  0  0  0  0999 V2000
  184.0520  177.5300  137.0820 C   0  0  0  0  0  3  0  0  0  0  0  0
  185.6110  178.3380  138.8040 C   0  0  0  0  0  0  0  0  0  0  0  0
  182.9000  178.2650  137.7540 C   0  0  0  0  0  0  0  0  0  0  0  0
  183.1260  178.9820  138.8420 C   0  0  0  0  0  3  0  0  0  0  0  0
  186.7850  178.4370  139.2960 N   0  0  0  0  0  0  0  0  0  0  0  0
  184.4010  178.8380  139.5550 C   0  0  2  0  0  3  0  0  0  0  0  0
  185.2590  177.6090  137.5640 C   0  0  0  0  0  3  0  0  0  0  0  0
  181.1350  177.0930  136.5390 O   0  0  0  0  0  0  0  0  0  0  0  0
  181.5620  178.1380  137.1220 C   0  0  0  0  0  0  0  0  0  0  0  0
  179.6580  179.3050  137.8910 O   0  0  0  0  0  0  0  0  0  0  0  0
  180.9270  180.4840  136.4120 N   0  0  0  0  0  2  0  0  0  0  0  0
  180.6890  179.3320  137.1760 C   0  0  0  0  0  0  0  0  0  0  0  0
  180.6940  183.8170  135.0930 C   0  0  0  0  0  3  0  0  0  0  0  0
  180.6580  184.0410  137.4490 C   0  0  0  0  0  3  0  0  0  0  0  0
  180.6880  182.4460  135.2210 C   0  0  0  0  0  3  0  0  0  0  0  0
  180.6630  182.6540  137.5960 C   0  0  0  0  0  3  0  0  0  0  0  0
  180.7230  181.8790  136.4520 C   0  0  0  0  0  0  0  0  0  0  0  0
  180.6980  184.6540  136.2080 C   0  0  0  0  0  3  0  0  0  0  0  0
  188.0370  177.9230  139.1230 O   0  0  0  0  0  0  0  0  0  0  0  0
  189.0590  178.6050  138.3920 C   0  0  0  0  0  2  0  0  0  0  0  0
  188.7070  178.6080  136.9350 C   0  0  0  0  0  2  0  0  0  0  0  0
  189.6330  177.4720  136.4700 C   0  0  0  0  0  2  0  0  0  0  0  0
  189.4000  176.0680  136.7520 C   0  0  1  0  0  3  0  0  0  0  0  0
  190.4370  173.7230  137.3990 O   0  0  0  0  0  1  0  0  0  0  0  0
  190.7780  175.6730  139.0430 O   0  0  0  0  0  1  0  0  0  0  0  0
  190.5490  175.2250  137.5230 P   0  0  0  0  0  0  0  0  0  0  0  0
  191.8020  175.8150  136.6440 O   0  0  0  0  0  0  0  0  0  0  0  0
  188.0820  175.2010  134.8120 C   0  0  0  0  0  1  0  0  0  0  0  0
  188.0310  175.5660  136.4030 C   0  0  0  0  0  2  0  0  0  0  0  0
  184.3740  179.3860  140.9230 C   0  0  0  0  0  2  0  0  0  0  0  0
  183.1830  179.5930  143.5960 C   0  0  0  0  0  2  0  0  0  0  0  0
  185.3920  177.7410  142.7310 C   0  0  0  0  0  2  0  0  0  0  0  0
  182.9370  178.4030  142.6390 C   0  0  0  0  0  2  0  0  0  0  0  0
  184.1820  178.1640  141.8130 C   0  0  1  0  0  3  0  0  0  0  0  0
  185.4520  178.5770  143.9140 C   0  0  1  0  0  3  0  0  0  0  0  0
  184.5790  179.6620  144.2720 C   0  0  0  0  0  2  0  0  0  0  0  0
  186.0500  177.9900  145.1020 N   0  0  0  0  0  2  0  0  0  0  0  0
  190.9540  176.7540  144.7930 C   0  0  2  0  0  3  0  0  0  0  0  0
  191.9230  176.5470  145.8390 C   0  0  0  0  0  2  0  0  0  0  0  0
  190.1660  176.7490  147.5900 C   0  0  0  0  0  2  0  0  0  0  0  0
  189.1770  177.2400  146.5530 C   0  0  0  0  0  0  0  0  0  0  0  0
  191.4750  177.0380  147.1270 O   0  0  0  0  0  0  0  0  0  0  0  0
  187.8790  177.6480  146.7630 C   0  0  0  0  0  3  0  0  0  0  0  0
  189.5920  177.1260  145.2420 C   0  0  0  0  0  0  0  0  0  0  0  0
  191.1100  175.9980  143.5270 C   0  0  0  0  0  1  0  0  0  0  0  0
  188.3030  177.5470  144.2740 S   0  0  0  0  0  0  0  0  0  0  0  0
  187.2760  177.8380  145.4910 C   0  0  0  0  0  0  0  0  0  0  0  0
  1  7  2  0  0  0  0
  1  3  1  0  0  0  0
  2  5  2  0  0  0  0
  2  6  1  0  0  0  0
  3  4  2  0  0  0  0
  4  6  1  0  0  0  0
  6 30  1  6  0  0  0
  7  2  1  0  0  0  0
  8  9  2  0  0  0  0
  9 12  1  0  0  0  0
  9  3  1  0  0  0  0
 11 17  1  0  0  0  0
 11 12  1  0  0  0  0
 12 10  2  0  0  0  0
 13 15  2  0  0  0  0
 13 18  1  0  0  0  0
 14 16  1  0  0  0  0
 15 17  1  0  0  0  0
 17 16  2  0  0  0  0
 18 14  2  0  0  0  0
 19  5  1  0  0  0  0
 20 19  1  0  0  0  0
 21 20  1  0  0  0  0
 22 23  1  0  0  0  0
 22 21  1  0  0  0  0
 23 29  1  1  0  0  0
 23 26  1  0  0  0  0
 24 26  1  0  0  0  0
 26 25  1  0  0  0  0
 27 26  2  0  0  0  0
 28 29  1  0  0  0  0
 31 36  1  0  0  0  0
 32 35  1  0  0  0  0
 33 31  1  0  0  0  0
 34 30  1  1  0  0  0
 34 33  1  0  0  0  0
 34 32  1  0  0  0  0
 35 36  1  0  0  0  0
 35 37  1  1  0  0  0
 37 47  1  0  0  0  0
 38 45  1  1  0  0  0
 38 44  1  0  0  0  0
 38 39  1  0  0  0  0
 39 42  1  0  0  0  0
 41 43  1  0  0  0  0
 41 40  1  0  0  0  0
 42 40  1  0  0  0  0
 44 41  2  0  0  0  0
 46 44  1  0  0  0  0
 46 47  1  0  0  0  0
 47 43  2  0  0  0  0
M  END
>  <MODEL>
3

>  <REMARK>
 VINA RESULT:      -8.1      3.825     10.295
  Name = 
  14 active torsions:
  status: ('A' for Active; 'I' for Inactive)
    1  A    between atoms: C_2  and  C_5
    2  A    between atoms: C_2  and  C_40
    3  A    between atoms: C_5  and  O_21
    4  A    between atoms: P_12  and  C_28
    5  A    between atoms: C_13  and  C_31
    6  A    between atoms: N_17  and  C_29
    7  A    between atoms: O_21  and  N_43
    8  A    between atoms: C_22  and  C_46
    9  A    between atoms: C_25  and  N_26
   10  A    between atoms: N_26  and  C_42
   11  A    between atoms: C_28  and  C_33
   12  A    between atoms: C_28  and  C_40
   13  A    between atoms: C_31  and  C_44
   14  A    between atoms: C_34  and  C_46
                            x       y       z     vdW  Elec       q    Type
                         _______ _______ _______ _____ _____    ______ ____

>  <TORSDO>
F 14

$$$$
=
 OpenBabel10222420233D

 47 51  0  0  1  0  0  0  0  0999 V2000
  188.3160  176.3080  136.6520 C   0  0  0  0  0  3  0  0  0  0  0  0
  190.4150  175.4330  137.5880 C   0  0  0  0  0  0  0  0  0  0  0  0
  188.4180  177.5460  137.5330 C   0  0  0  0  0  0  0  0  0  0  0  0
  189.4530  177.6900  138.3430 C   0  0  0  0  0  3  0  0  0  0  0  0
  191.3430  174.5560  137.6350 N   0  0  0  0  0  0  0  0  0  0  0  0
  190.3380  176.5480  138.6020 C   0  0  2  0  0  3  0  0  0  0  0  0
  189.2450  175.3950  136.6820 C   0  0  0  0  0  3  0  0  0  0  0  0
  187.4030  179.6240  136.7520 O   0  0  0  0  0  0  0  0  0  0  0  0
  187.3260  178.5450  137.4180 C   0  0  0  0  0  0  0  0  0  0  0  0
  185.3250  177.3300  137.7370 O   0  0  0  0  0  0  0  0  0  0  0  0
  185.6520  178.9860  139.2660 N   0  0  0  0  0  2  0  0  0  0  0  0
  186.0750  178.2480  138.1510 C   0  0  0  0  0  0  0  0  0  0  0  0
  182.7580  178.2930  141.2780 C   0  0  0  0  0  3  0  0  0  0  0  0
  184.3740  179.2050  142.7470 C   0  0  0  0  0  3  0  0  0  0  0  0
  183.6740  178.3190  140.2500 C   0  0  0  0  0  3  0  0  0  0  0  0
  185.3110  179.2490  141.7140 C   0  0  0  0  0  3  0  0  0  0  0  0
  184.9110  178.8350  140.4560 C   0  0  0  0  0  0  0  0  0  0  0  0
  183.0800  178.7540  142.5530 C   0  0  0  0  0  3  0  0  0  0  0  0
  191.6360  173.3170  137.1440 O   0  0  0  0  0  0  0  0  0  0  0  0
  192.1630  173.1090  135.8330 C   0  0  0  0  0  2  0  0  0  0  0  0
  193.1880  172.0160  135.8800 C   0  0  0  0  0  2  0  0  0  0  0  0
  194.4410  172.8820  136.0910 C   0  0  0  0  0  2  0  0  0  0  0  0
  195.1860  172.9420  137.3350 C   0  0  1  0  0  3  0  0  0  0  0  0
  194.4600  175.3740  138.0770 O   0  0  0  0  0  1  0  0  0  0  0  0
  196.8590  175.0610  137.1990 O   0  0  0  0  0  0  0  0  0  0  0  0
  195.6000  174.3930  137.9280 P   0  0  0  0  0  0  0  0  0  0  0  0
  196.1140  173.8340  139.3820 O   0  0  0  0  0  1  0  0  0  0  0  0
  196.6070  170.8870  137.2280 C   0  0  0  0  0  1  0  0  0  0  0  0
  195.3850  171.6250  138.0230 C   0  0  0  0  0  2  0  0  0  0  0  0
  191.1990  176.7280  139.7850 C   0  0  0  0  0  2  0  0  0  0  0  0
  191.7140  176.8240  142.6710 C   0  0  0  0  0  2  0  0  0  0  0  0
  189.0420  176.9930  141.2980 C   0  0  0  0  0  2  0  0  0  0  0  0
  191.2900  178.0560  141.8360 C   0  0  0  0  0  2  0  0  0  0  0  0
  190.3740  177.6060  140.7190 C   0  0  1  0  0  3  0  0  0  0  0  0
  189.3280  176.1050  142.4070 C   0  0  1  0  0  3  0  0  0  0  0  0
  190.6130  175.7690  142.9590 C   0  0  0  0  0  2  0  0  0  0  0  0
  188.2860  175.9510  143.4100 N   0  0  0  0  0  2  0  0  0  0  0  0
  187.6830  178.5850  147.6960 C   0  0  2  0  0  3  0  0  0  0  0  0
  186.5200  179.2620  148.2090 C   0  0  0  0  0  2  0  0  0  0  0  0
  185.1050  178.3510  146.3750 C   0  0  0  0  0  2  0  0  0  0  0  0
  186.3430  177.8540  145.6560 C   0  0  0  0  0  0  0  0  0  0  0  0
  185.4820  179.4330  147.2120 O   0  0  0  0  0  0  0  0  0  0  0  0
  186.4030  177.2280  144.4320 C   0  0  0  0  0  3  0  0  0  0  0  0
  187.5130  177.9170  146.3850 C   0  0  0  0  0  0  0  0  0  0  0  0
  188.6580  178.0260  148.6640 C   0  0  0  0  0  1  0  0  0  0  0  0
  188.6980  177.1650  145.4870 S   0  0  0  0  0  0  0  0  0  0  0  0
  187.7360  176.7730  144.2460 C   0  0  0  0  0  0  0  0  0  0  0  0
  1  7  2  0  0  0  0
  1  3  1  0  0  0  0
  2  5  2  0  0  0  0
  2  6  1  0  0  0  0
  3  4  2  0  0  0  0
  4  6  1  0  0  0  0
  6 30  1  6  0  0  0
  7  2  1  0  0  0  0
  8  9  2  0  0  0  0
  9  3  1  0  0  0  0
  9 12  1  0  0  0  0
 10 12  2  0  0  0  0
 11 17  1  0  0  0  0
 12 11  1  0  0  0  0
 13 18  1  0  0  0  0
 15 17  1  0  0  0  0
 15 13  2  0  0  0  0
 16 14  1  0  0  0  0
 17 16  2  0  0  0  0
 18 14  2  0  0  0  0
 19  5  1  0  0  0  0
 20 21  1  0  0  0  0
 20 19  1  0  0  0  0
 21 22  1  0  0  0  0
 23 22  1  1  0  0  0
 23 26  1  0  0  0  0
 23 29  1  0  0  0  0
 25 26  2  0  0  0  0
 26 24  1  0  0  0  0
 26 27  1  0  0  0  0
 28 29  1  0  0  0  0
 31 36  1  0  0  0  0
 32 35  1  0  0  0  0
 33 31  1  0  0  0  0
 34 30  1  1  0  0  0
 34 32  1  0  0  0  0
 34 33  1  0  0  0  0
 35 36  1  0  0  0  0
 35 37  1  1  0  0  0
 37 47  1  0  0  0  0
 38 39  1  0  0  0  0
 38 45  1  1  0  0  0
 40 42  1  0  0  0  0
 41 40  1  0  0  0  0
 41 44  2  0  0  0  0
 42 39  1  0  0  0  0
 43 41  1  0  0  0  0
 44 38  1  0  0  0  0
 46 44  1  0  0  0  0
 47 43  2  0  0  0  0
 47 46  1  0  0  0  0
M  END
>  <MODEL>
4

>  <REMARK>
 VINA RESULT:      -7.9      4.064      9.500
  Name = 
  14 active torsions:
  status: ('A' for Active; 'I' for Inactive)
    1  A    between atoms: C_2  and  C_5
    2  A    between atoms: C_2  and  C_40
    3  A    between atoms: C_5  and  O_21
    4  A    between atoms: P_12  and  C_28
    5  A    between atoms: C_13  and  C_31
    6  A    between atoms: N_17  and  C_29
    7  A    between atoms: O_21  and  N_43
    8  A    between atoms: C_22  and  C_46
    9  A    between atoms: C_25  and  N_26
   10  A    between atoms: N_26  and  C_42
   11  A    between atoms: C_28  and  C_33
   12  A    between atoms: C_28  and  C_40
   13  A    between atoms: C_31  and  C_44
   14  A    between atoms: C_34  and  C_46
                            x       y       z     vdW  Elec       q    Type
                         _______ _______ _______ _____ _____    ______ ____

>  <TORSDO>
F 14

$$$$
=
 OpenBabel10222420233D

 47 51  0  0  1  0  0  0  0  0999 V2000
  185.2080  178.3580  147.0050 C   0  0  0  0  0  3  0  0  0  0  0  0
  184.1870  178.5800  144.7780 C   0  0  0  0  0  0  0  0  0  0  0  0
  186.5500  178.0110  146.3750 C   0  0  0  0  0  0  0  0  0  0  0  0
  186.6680  177.9820  145.0570 C   0  0  0  0  0  3  0  0  0  0  0  0
  183.1950  178.8520  144.0220 N   0  0  0  0  0  0  0  0  0  0  0  0
  185.4630  177.9980  144.2200 C   0  0  2  0  0  3  0  0  0  0  0  0
  184.1780  178.6350  146.2580 C   0  0  0  0  0  3  0  0  0  0  0  0
  187.6080  177.8210  148.5670 O   0  0  0  0  0  0  0  0  0  0  0  0
  187.6760  177.7310  147.3020 C   0  0  0  0  0  0  0  0  0  0  0  0
  189.7280  176.5600  147.3030 O   0  0  0  0  0  0  0  0  0  0  0  0
  189.3980  177.8410  145.4480 N   0  0  0  0  0  2  0  0  0  0  0  0
  188.9610  177.3370  146.6830 C   0  0  0  0  0  0  0  0  0  0  0  0
  191.8870  178.2590  142.8930 C   0  0  0  0  0  3  0  0  0  0  0  0
  190.7210  176.2720  142.3520 C   0  0  0  0  0  3  0  0  0  0  0  0
  191.1610  178.3710  144.0570 C   0  0  0  0  0  3  0  0  0  0  0  0
  189.9690  176.3770  143.5220 C   0  0  0  0  0  3  0  0  0  0  0  0
  190.1860  177.4720  144.3380 C   0  0  0  0  0  0  0  0  0  0  0  0
  191.6720  177.2130  141.9970 C   0  0  0  0  0  3  0  0  0  0  0  0
  181.8570  179.1090  144.1040 O   0  0  0  0  0  0  0  0  0  0  0  0
  180.9290  178.7090  143.0950 C   0  0  0  0  0  2  0  0  0  0  0  0
  181.6360  178.6270  141.7760 C   0  0  0  0  0  2  0  0  0  0  0  0
  180.4080  178.6420  140.8520 C   0  0  0  0  0  2  0  0  0  0  0  0
  180.4190  178.1750  139.4780 C   0  0  1  0  0  3  0  0  0  0  0  0
  179.5790  176.2290  137.8970 O   0  0  0  0  0  0  0  0  0  0  0  0
  179.6840  175.7530  140.4240 O   0  0  0  0  0  1  0  0  0  0  0  0
  180.2730  176.5870  139.1920 P   0  0  0  0  0  0  0  0  0  0  0  0
  181.8840  176.2850  139.1200 O   0  0  0  0  0  1  0  0  0  0  0  0
  182.0070  179.6520  138.2330 C   0  0  0  0  0  1  0  0  0  0  0  0
  180.4360  179.2550  138.4380 C   0  0  0  0  0  2  0  0  0  0  0  0
  185.7110  177.5840  142.8270 C   0  0  0  0  0  2  0  0  0  0  0  0
  184.9180  179.1700  140.4900 C   0  0  0  0  0  2  0  0  0  0  0  0
  187.6940  178.2570  141.2060 C   0  0  0  0  0  2  0  0  0  0  0  0
  185.6940  179.7510  141.6950 C   0  0  0  0  0  2  0  0  0  0  0  0
  186.6030  178.6830  142.2620 C   0  0  1  0  0  3  0  0  0  0  0  0
  187.0980  178.0860  139.8960 C   0  0  1  0  0  3  0  0  0  0  0  0
  185.7180  178.2530  139.5270 C   0  0  0  0  0  2  0  0  0  0  0  0
  187.9640  178.3040  138.7490 N   0  0  0  0  0  2  0  0  0  0  0  0
  190.8150  174.6080  136.7800 C   0  0  2  0  0  3  0  0  0  0  0  0
  192.2450  174.4350  136.7970 C   0  0  0  0  0  2  0  0  0  0  0  0
  192.5240  176.3850  138.3180 C   0  0  0  0  0  2  0  0  0  0  0  0
  191.0730  176.7670  138.1090 C   0  0  0  0  0  0  0  0  0  0  0  0
  192.9530  175.6360  137.1920 O   0  0  0  0  0  0  0  0  0  0  0  0
  190.4150  177.8610  138.6210 C   0  0  0  0  0  3  0  0  0  0  0  0
  190.3070  175.8290  137.4470 C   0  0  0  0  0  0  0  0  0  0  0  0
  189.9580  173.3970  136.7500 C   0  0  0  0  0  1  0  0  0  0  0  0
  188.7280  176.3610  137.4850 S   0  0  0  0  0  0  0  0  0  0  0  0
  189.0330  177.7110  138.3240 C   0  0  0  0  0  0  0  0  0  0  0  0
  2  7  1  0  0  0  0
  3  1  1  0  0  0  0
  3  9  1  0  0  0  0
  4  3  2  0  0  0  0
  5 19  1  0  0  0  0
  5  2  2  0  0  0  0
  6 30  1  6  0  0  0
  6  2  1  0  0  0  0
  6  4  1  0  0  0  0
  7  1  2  0  0  0  0
  9  8  2  0  0  0  0
 11 12  1  0  0  0  0
 12  9  1  0  0  0  0
 12 10  2  0  0  0  0
 13 15  1  0  0  0  0
 14 16  2  0  0  0  0
 15 17  2  0  0  0  0
 16 17  1  0  0  0  0
 17 11  1  0  0  0  0
 18 14  1  0  0  0  0
 18 13  2  0  0  0  0
 20 19  1  0  0  0  0
 21 20  1  0  0  0  0
 22 21  1  0  0  0  0
 23 29  1  6  0  0  0
 23 22  1  0  0  0  0
 24 26  2  0  0  0  0
 26 23  1  0  0  0  0
 26 25  1  0  0  0  0
 27 26  1  0  0  0  0
 28 29  1  0  0  0  0
 31 33  1  0  0  0  0
 32 34  1  0  0  0  0
 33 34  1  0  0  0  0
 34 30  1  6  0  0  0
 35 37  1  6  0  0  0
 35 32  1  0  0  0  0
 36 35  1  0  0  0  0
 36 31  1  0  0  0  0
 38 45  1  1  0  0  0
 38 39  1  0  0  0  0
 38 44  1  0  0  0  0
 39 42  1  0  0  0  0
 41 40  1  0  0  0  0
 41 43  1  0  0  0  0
 42 40  1  0  0  0  0
 44 46  1  0  0  0  0
 44 41  2  0  0  0  0
 46 47  1  0  0  0  0
 47 43  2  0  0  0  0
 47 37  1  0  0  0  0
M  END
>  <MODEL>
5

>  <REMARK>
 VINA RESULT:      -7.6      2.972      6.331
  Name = 
  14 active torsions:
  status: ('A' for Active; 'I' for Inactive)
    1  A    between atoms: C_2  and  C_5
    2  A    between atoms: C_2  and  C_40
    3  A    between atoms: C_5  and  O_21
    4  A    between atoms: P_12  and  C_28
    5  A    between atoms: C_13  and  C_31
    6  A    between atoms: N_17  and  C_29
    7  A    between atoms: O_21  and  N_43
    8  A    between atoms: C_22  and  C_46
    9  A    between atoms: C_25  and  N_26
   10  A    between atoms: N_26  and  C_42
   11  A    between atoms: C_28  and  C_33
   12  A    between atoms: C_28  and  C_40
   13  A    between atoms: C_31  and  C_44
   14  A    between atoms: C_34  and  C_46
                            x       y       z     vdW  Elec       q    Type
                         _______ _______ _______ _____ _____    ______ ____

>  <TORSDO>
F 14

$$$$
=
 OpenBabel10222420233D

 47 51  0  0  1  0  0  0  0  0999 V2000
  183.9160  178.4680  141.6660 C   0  0  0  0  0  3  0  0  0  0  0  0
  185.9560  178.6240  140.3020 C   0  0  0  0  0  0  0  0  0  0  0  0
  184.7230  178.7170  142.9330 C   0  0  0  0  0  0  0  0  0  0  0  0
  186.0270  178.9190  142.8510 C   0  0  0  0  0  3  0  0  0  0  0  0
  186.5520  178.6270  139.1720 N   0  0  0  0  0  0  0  0  0  0  0  0
  186.7300  178.6210  141.5970 C   0  0  2  0  0  3  0  0  0  0  0  0
  184.4980  178.4610  140.5010 C   0  0  0  0  0  3  0  0  0  0  0  0
  182.7090  178.8000  144.3120 O   0  0  0  0  0  0  0  0  0  0  0  0
  183.9740  178.7290  144.2160 C   0  0  0  0  0  0  0  0  0  0  0  0
  184.1980  178.6520  146.5660 O   0  0  0  0  0  0  0  0  0  0  0  0
  186.1840  178.6950  145.4510 N   0  0  0  0  0  2  0  0  0  0  0  0
  184.7810  178.6710  145.4550 C   0  0  0  0  0  0  0  0  0  0  0  0
  189.3440  177.0800  146.0100 C   0  0  0  0  0  3  0  0  0  0  0  0
  188.4260  177.4850  148.1540 C   0  0  0  0  0  3  0  0  0  0  0  0
  188.2880  177.7480  145.4300 C   0  0  0  0  0  3  0  0  0  0  0  0
  187.3450  178.1550  147.5820 C   0  0  0  0  0  3  0  0  0  0  0  0
  187.2840  178.2310  146.2020 C   0  0  0  0  0  0  0  0  0  0  0  0
  189.4310  176.9140  147.3910 C   0  0  0  0  0  3  0  0  0  0  0  0
  186.2980  178.3750  137.8550 O   0  0  0  0  0  0  0  0  0  0  0  0
  186.3760  177.0650  137.2890 C   0  0  0  0  0  2  0  0  0  0  0  0
  185.0930  176.7570  136.5780 C   0  0  0  0  0  2  0  0  0  0  0  0
  184.3980  175.9540  137.6900 C   0  0  0  0  0  2  0  0  0  0  0  0
  183.5980  174.7660  137.4550 C   0  0  1  0  0  3  0  0  0  0  0  0
  184.7350  173.4890  135.4380 O   0  0  0  0  0  0  0  0  0  0  0  0
  183.5560  172.0730  137.2350 O   0  0  0  0  0  1  0  0  0  0  0  0
  184.3280  173.4330  136.8930 P   0  0  0  0  0  0  0  0  0  0  0  0
  185.6270  173.5250  137.8900 O   0  0  0  0  0  1  0  0  0  0  0  0
  182.1880  175.6990  139.2970 C   0  0  0  0  0  1  0  0  0  0  0  0
  182.1680  174.8640  137.8930 C   0  0  0  0  0  2  0  0  0  0  0  0
  188.1930  178.5260  141.7530 C   0  0  0  0  0  2  0  0  0  0  0  0
  190.6410  177.1110  142.5350 C   0  0  0  0  0  2  0  0  0  0  0  0
  189.3300  177.1080  139.8260 C   0  0  0  0  0  2  0  0  0  0  0  0
  189.2910  176.4030  142.2710 C   0  0  0  0  0  2  0  0  0  0  0  0
  188.5410  177.1520  141.1910 C   0  0  1  0  0  3  0  0  0  0  0  0
  190.7400  177.3610  140.0440 C   0  0  1  0  0  3  0  0  0  0  0  0
  191.4060  177.6320  141.2890 C   0  0  0  0  0  2  0  0  0  0  0  0
  191.6660  176.7780  139.0860 N   0  0  0  0  0  2  0  0  0  0  0  0
  193.3080  173.1460  135.9590 C   0  0  2  0  0  3  0  0  0  0  0  0
  192.5670  172.2780  135.0810 C   0  0  0  0  0  2  0  0  0  0  0  0
  190.4510  173.4960  135.5620 C   0  0  0  0  0  2  0  0  0  0  0  0
  191.1290  174.2460  136.6900 C   0  0  0  0  0  0  0  0  0  0  0  0
  191.1450  172.2760  135.3590 O   0  0  0  0  0  0  0  0  0  0  0  0
  190.5580  175.1520  137.5530 C   0  0  0  0  0  3  0  0  0  0  0  0
  192.5000  174.0970  136.7560 C   0  0  0  0  0  0  0  0  0  0  0  0
  194.6900  173.5260  135.5740 C   0  0  0  0  0  1  0  0  0  0  0  0
  193.0550  175.1320  137.9380 S   0  0  0  0  0  0  0  0  0  0  0  0
  191.6030  175.7390  138.3160 C   0  0  0  0  0  0  0  0  0  0  0  0
  1  3  1  0  0  0  0
  2  7  1  0  0  0  0
  2  6  1  0  0  0  0
  3  9  1  0  0  0  0
  4  3  2  0  0  0  0
  5  2  2  0  0  0  0
  6 30  1  6  0  0  0
  6  4  1  0  0  0  0
  7  1  2  0  0  0  0
  9  8  2  0  0  0  0
  9 12  1  0  0  0  0
 11 12  1  0  0  0  0
 11 17  1  0  0  0  0
 12 10  2  0  0  0  0
 13 18  1  0  0  0  0
 15 13  2  0  0  0  0
 15 17  1  0  0  0  0
 16 14  1  0  0  0  0
 17 16  2  0  0  0  0
 18 14  2  0  0  0  0
 19  5  1  0  0  0  0
 20 19  1  0  0  0  0
 21 20  1  0  0  0  0
 21 22  1  0  0  0  0
 23 22  1  1  0  0  0
 23 29  1  0  0  0  0
 24 26  2  0  0  0  0
 26 25  1  0  0  0  0
 26 23  1  0  0  0  0
 26 27  1  0  0  0  0
 29 28  1  0  0  0  0
 32 35  1  0  0  0  0
 32 34  1  0  0  0  0
 33 31  1  0  0  0  0
 34 30  1  1  0  0  0
 34 33  1  0  0  0  0
 35 37  1  1  0  0  0
 35 36  1  0  0  0  0
 36 31  1  0  0  0  0
 38 45  1  6  0  0  0
 38 44  1  0  0  0  0
 39 42  1  0  0  0  0
 39 38  1  0  0  0  0
 40 41  1  0  0  0  0
 41 44  2  0  0  0  0
 41 43  1  0  0  0  0
 42 40  1  0  0  0  0
 43 47  2  0  0  0  0
 44 46  1  0  0  0  0
 46 47  1  0  0  0  0
 47 37  1  0  0  0  0
M  END
>  <MODEL>
6

>  <REMARK>
 VINA RESULT:      -7.5      2.986      6.048
  Name = 
  14 active torsions:
  status: ('A' for Active; 'I' for Inactive)
    1  A    between atoms: C_2  and  C_5
    2  A    between atoms: C_2  and  C_40
    3  A    between atoms: C_5  and  O_21
    4  A    between atoms: P_12  and  C_28
    5  A    between atoms: C_13  and  C_31
    6  A    between atoms: N_17  and  C_29
    7  A    between atoms: O_21  and  N_43
    8  A    between atoms: C_22  and  C_46
    9  A    between atoms: C_25  and  N_26
   10  A    between atoms: N_26  and  C_42
   11  A    between atoms: C_28  and  C_33
   12  A    between atoms: C_28  and  C_40
   13  A    between atoms: C_31  and  C_44
   14  A    between atoms: C_34  and  C_46
                            x       y       z     vdW  Elec       q    Type
                         _______ _______ _______ _____ _____    ______ ____

>  <TORSDO>
F 14

$$$$
=
 OpenBabel10222420233D

 47 51  0  0  1  0  0  0  0  0999 V2000
  183.8450  177.8480  136.9560 C   0  0  0  0  0  3  0  0  0  0  0  0
  182.7150  178.6580  138.9850 C   0  0  0  0  0  0  0  0  0  0  0  0
  185.1440  177.6670  137.7300 C   0  0  0  0  0  0  0  0  0  0  0  0
  185.1810  177.9460  139.0220 C   0  0  0  0  0  3  0  0  0  0  0  0
  181.6740  179.0660  139.6010 N   0  0  0  0  0  0  0  0  0  0  0  0
  184.0760  178.6910  139.6360 C   0  0  2  0  0  3  0  0  0  0  0  0
  182.7690  178.2670  137.5570 C   0  0  0  0  0  3  0  0  0  0  0  0
  186.2640  176.2520  136.0850 O   0  0  0  0  0  0  0  0  0  0  0  0
  186.3150  177.1630  136.9690 C   0  0  0  0  0  0  0  0  0  0  0  0
  187.8320  178.9730  137.0030 O   0  0  0  0  0  0  0  0  0  0  0  0
  188.6820  177.0420  137.8600 N   0  0  0  0  0  2  0  0  0  0  0  0
  187.6260  177.7690  137.2920 C   0  0  0  0  0  0  0  0  0  0  0  0
  192.1170  176.7670  138.8760 C   0  0  0  0  0  3  0  0  0  0  0  0
  190.9360  177.5630  140.7670 C   0  0  0  0  0  3  0  0  0  0  0  0
  190.9660  176.8410  138.1240 C   0  0  0  0  0  3  0  0  0  0  0  0
  189.7590  177.6340  140.0220 C   0  0  0  0  0  3  0  0  0  0  0  0
  189.8000  177.2200  138.7020 C   0  0  0  0  0  0  0  0  0  0  0  0
  192.1270  177.1100  140.2280 C   0  0  0  0  0  3  0  0  0  0  0  0
  180.3900  179.4510  139.3430 O   0  0  0  0  0  0  0  0  0  0  0  0
  179.7550  180.5350  140.0250 C   0  0  0  0  0  2  0  0  0  0  0  0
  178.9330  181.3190  139.0470 C   0  0  0  0  0  2  0  0  0  0  0  0
  180.0070  182.3210  138.5920 C   0  0  0  0  0  2  0  0  0  0  0  0
  180.2840  182.6390  137.2030 C   0  0  1  0  0  3  0  0  0  0  0  0
  180.2720  184.5230  135.3480 O   0  0  0  0  0  0  0  0  0  0  0  0
  181.9720  184.7490  137.2670 O   0  0  0  0  0  1  0  0  0  0  0  0
  180.5500  184.1840  136.7950 P   0  0  0  0  0  0  0  0  0  0  0  0
  179.4140  184.8160  137.7950 O   0  0  0  0  0  1  0  0  0  0  0  0
  179.1090  181.4770  135.3270 C   0  0  0  0  0  1  0  0  0  0  0  0
  180.4250  181.4560  136.2940 C   0  0  0  0  0  2  0  0  0  0  0  0
  184.4110  179.2560  140.9560 C   0  0  0  0  0  2  0  0  0  0  0  0
  183.3260  179.6930  143.6460 C   0  0  0  0  0  2  0  0  0  0  0  0
  185.3990  177.6700  142.8320 C   0  0  0  0  0  2  0  0  0  0  0  0
  182.9820  178.4630  142.7740 C   0  0  0  0  0  2  0  0  0  0  0  0
  184.1830  178.1040  141.9260 C   0  0  1  0  0  3  0  0  0  0  0  0
  185.5450  178.5710  143.9580 C   0  0  1  0  0  3  0  0  0  0  0  0
  184.7450  179.7240  144.2740 C   0  0  0  0  0  2  0  0  0  0  0  0
  186.1500  178.0250  145.1610 N   0  0  0  0  0  2  0  0  0  0  0  0
  191.0380  176.7310  144.8330 C   0  0  2  0  0  3  0  0  0  0  0  0
  192.0160  176.5420  145.8730 C   0  0  0  0  0  2  0  0  0  0  0  0
  190.2810  176.8120  147.6380 C   0  0  0  0  0  2  0  0  0  0  0  0
  189.2850  177.2840  146.5980 C   0  0  0  0  0  0  0  0  0  0  0  0
  191.5880  177.0740  147.1520 O   0  0  0  0  0  0  0  0  0  0  0  0
  187.9950  177.7100  146.8110 C   0  0  0  0  0  3  0  0  0  0  0  0
  189.6850  177.1290  145.2860 C   0  0  0  0  0  0  0  0  0  0  0  0
  191.1720  175.9380  143.5860 C   0  0  0  0  0  1  0  0  0  0  0  0
  188.3890  177.5360  144.3210 S   0  0  0  0  0  0  0  0  0  0  0  0
  187.3790  177.8710  145.5400 C   0  0  0  0  0  0  0  0  0  0  0  0
  1  7  2  0  0  0  0
  1  3  1  0  0  0  0
  2  5  2  0  0  0  0
  2  6  1  0  0  0  0
  3  4  2  0  0  0  0
  4  6  1  0  0  0  0
  6 30  1  1  0  0  0
  7  2  1  0  0  0  0
  8  9  2  0  0  0  0
  9 12  1  0  0  0  0
  9  3  1  0  0  0  0
 10 12  2  0  0  0  0
 11 17  1  0  0  0  0
 12 11  1  0  0  0  0
 13 18  1  0  0  0  0
 15 17  1  0  0  0  0
 15 13  2  0  0  0  0
 16 14  1  0  0  0  0
 17 16  2  0  0  0  0
 18 14  2  0  0  0  0
 19  5  1  0  0  0  0
 19 20  1  0  0  0  0
 21 20  1  0  0  0  0
 22 21  1  0  0  0  0
 23 29  1  1  0  0  0
 23 22  1  0  0  0  0
 24 26  2  0  0  0  0
 26 23  1  0  0  0  0
 26 25  1  0  0  0  0
 26 27  1  0  0  0  0
 28 29  1  0  0  0  0
 31 36  1  0  0  0  0
 32 35  1  0  0  0  0
 33 31  1  0  0  0  0
 34 30  1  1  0  0  0
 34 33  1  0  0  0  0
 34 32  1  0  0  0  0
 35 36  1  0  0  0  0
 35 37  1  1  0  0  0
 37 47  1  0  0  0  0
 38 45  1  1  0  0  0
 38 44  1  0  0  0  0
 38 39  1  0  0  0  0
 39 42  1  0  0  0  0
 41 43  1  0  0  0  0
 41 40  1  0  0  0  0
 42 40  1  0  0  0  0
 44 41  2  0  0  0  0
 46 44  1  0  0  0  0
 46 47  1  0  0  0  0
 47 43  2  0  0  0  0
M  END
>  <MODEL>
7

>  <REMARK>
 VINA RESULT:      -7.2      3.495      8.937
  Name = 
  14 active torsions:
  status: ('A' for Active; 'I' for Inactive)
    1  A    between atoms: C_2  and  C_5
    2  A    between atoms: C_2  and  C_40
    3  A    between atoms: C_5  and  O_21
    4  A    between atoms: P_12  and  C_28
    5  A    between atoms: C_13  and  C_31
    6  A    between atoms: N_17  and  C_29
    7  A    between atoms: O_21  and  N_43
    8  A    between atoms: C_22  and  C_46
    9  A    between atoms: C_25  and  N_26
   10  A    between atoms: N_26  and  C_42
   11  A    between atoms: C_28  and  C_33
   12  A    between atoms: C_28  and  C_40
   13  A    between atoms: C_31  and  C_44
   14  A    between atoms: C_34  and  C_46
                            x       y       z     vdW  Elec       q    Type
                         _______ _______ _______ _____ _____    ______ ____

>  <TORSDO>
F 14

$$$$
=
 OpenBabel10222420233D

 47 51  0  0  1  0  0  0  0  0999 V2000
  191.3640  177.3030  140.7920 C   0  0  0  0  0  3  0  0  0  0  0  0
  191.0570  176.7260  138.4220 C   0  0  0  0  0  0  0  0  0  0  0  0
  189.8650  177.5110  140.9550 C   0  0  0  0  0  0  0  0  0  0  0  0
  189.0600  177.3140  139.9240 C   0  0  0  0  0  3  0  0  0  0  0  0
  191.5150  176.3500  137.2910 N   0  0  0  0  0  0  0  0  0  0  0  0
  189.6260  177.1800  138.5770 C   0  0  2  0  0  3  0  0  0  0  0  0
  191.8600  176.9230  139.6500 C   0  0  0  0  0  3  0  0  0  0  0  0
  190.0380  178.6530  143.1060 O   0  0  0  0  0  0  0  0  0  0  0  0
  189.3850  177.9220  142.2990 C   0  0  0  0  0  0  0  0  0  0  0  0
  187.9410  176.2260  143.0870 O   0  0  0  0  0  0  0  0  0  0  0  0
  186.8910  178.1990  142.6440 N   0  0  0  0  0  2  0  0  0  0  0  0
  188.0550  177.4180  142.7100 C   0  0  0  0  0  0  0  0  0  0  0  0
  183.3320  178.6320  142.8580 C   0  0  0  0  0  3  0  0  0  0  0  0
  184.1630  178.9440  145.0520 C   0  0  0  0  0  3  0  0  0  0  0  0
  184.5970  178.3050  142.4230 C   0  0  0  0  0  3  0  0  0  0  0  0
  185.4520  178.6260  144.6260 C   0  0  0  0  0  3  0  0  0  0  0  0
  185.6430  178.3510  143.2830 C   0  0  0  0  0  0  0  0  0  0  0  0
  183.0840  178.9800  144.1850 C   0  0  0  0  0  3  0  0  0  0  0  0
  192.7090  176.1360  136.6650 O   0  0  0  0  0  0  0  0  0  0  0  0
  193.5050  174.9720  136.8920 C   0  0  0  0  0  2  0  0  0  0  0  0
  194.4590  175.2380  138.0170 C   0  0  0  0  0  2  0  0  0  0  0  0
  195.0770  173.8350  138.1340 C   0  0  0  0  0  2  0  0  0  0  0  0
  196.3860  173.4780  137.6190 C   0  0  1  0  0  3  0  0  0  0  0  0
  197.7130  175.1000  139.2320 O   0  0  0  0  0  1  0  0  0  0  0  0
  197.7510  175.6280  136.7140 O   0  0  0  0  0  0  0  0  0  0  0  0
  197.6200  174.5040  137.8460 P   0  0  0  0  0  0  0  0  0  0  0  0
  198.8020  173.3990  137.5800 O   0  0  0  0  0  1  0  0  0  0  0  0
  195.2320  171.2600  137.6510 C   0  0  0  0  0  1  0  0  0  0  0  0
  196.4870  172.1030  137.0310 C   0  0  0  0  0  2  0  0  0  0  0  0
  188.6300  177.3460  137.5020 C   0  0  0  0  0  2  0  0  0  0  0  0
  186.7120  176.1550  135.6290 C   0  0  0  0  0  2  0  0  0  0  0  0
  186.1090  177.3690  138.3160 C   0  0  0  0  0  2  0  0  0  0  0  0
  187.1430  175.4840  136.9550 C   0  0  0  0  0  2  0  0  0  0  0  0
  187.4200  176.5550  137.9870 C   0  0  1  0  0  3  0  0  0  0  0  0
  185.3920  177.6950  137.1000 C   0  0  1  0  0  3  0  0  0  0  0  0
  185.7570  177.3720  135.7470 C   0  0  0  0  0  2  0  0  0  0  0  0
  183.9530  177.8670  137.2140 N   0  0  0  0  0  2  0  0  0  0  0  0
  180.3570  177.2630  140.7310 C   0  0  2  0  0  3  0  0  0  0  0  0
  179.6490  178.2470  141.5080 C   0  0  0  0  0  2  0  0  0  0  0  0
  180.6900  180.1040  140.2170 C   0  0  0  0  0  2  0  0  0  0  0  0
  181.6500  179.1270  139.5700 C   0  0  0  0  0  0  0  0  0  0  0  0
  180.2680  179.5570  141.4560 O   0  0  0  0  0  0  0  0  0  0  0  0
  182.6670  179.4130  138.6890 C   0  0  0  0  0  3  0  0  0  0  0  0
  181.3700  177.7930  139.7900 C   0  0  0  0  0  0  0  0  0  0  0  0
  179.6630  175.9950  140.3980 C   0  0  0  0  0  1  0  0  0  0  0  0
  182.4250  176.9040  138.8550 S   0  0  0  0  0  0  0  0  0  0  0  0
  183.1760  178.1800  138.2010 C   0  0  0  0  0  0  0  0  0  0  0  0
  1  3  1  0  0  0  0
  2  6  1  0  0  0  0
  2  7  1  0  0  0  0
  3  9  1  0  0  0  0
  4  3  2  0  0  0  0
  5  2  2  0  0  0  0
  6 30  1  6  0  0  0
  6  4  1  0  0  0  0
  7  1  2  0  0  0  0
  9 12  1  0  0  0  0
  9  8  2  0  0  0  0
 11 12  1  0  0  0  0
 11 17  1  0  0  0  0
 12 10  2  0  0  0  0
 13 18  1  0  0  0  0
 15 13  2  0  0  0  0
 15 17  1  0  0  0  0
 16 14  1  0  0  0  0
 17 16  2  0  0  0  0
 18 14  2  0  0  0  0
 19 20  1  0  0  0  0
 19  5  1  0  0  0  0
 20 21  1  0  0  0  0
 21 22  1  0  0  0  0
 23 29  1  1  0  0  0
 23 26  1  0  0  0  0
 23 22  1  0  0  0  0
 25 26  2  0  0  0  0
 26 24  1  0  0  0  0
 27 26  1  0  0  0  0
 29 28  1  0  0  0  0
 31 36  1  0  0  0  0
 31 33  1  0  0  0  0
 33 34  1  0  0  0  0
 34 30  1  6  0  0  0
 34 32  1  0  0  0  0
 35 37  1  1  0  0  0
 35 32  1  0  0  0  0
 36 35  1  0  0  0  0
 37 47  1  0  0  0  0
 38 45  1  6  0  0  0
 38 39  1  0  0  0  0
 40 42  1  0  0  0  0
 41 44  2  0  0  0  0
 41 40  1  0  0  0  0
 42 39  1  0  0  0  0
 43 41  1  0  0  0  0
 44 38  1  0  0  0  0
 46 44  1  0  0  0  0
 47 43  2  0  0  0  0
 47 46  1  0  0  0  0
M  END
>  <MODEL>
8

>  <REMARK>
 VINA RESULT:      -7.2      4.283      8.017
  Name = 
  14 active torsions:
  status: ('A' for Active; 'I' for Inactive)
    1  A    between atoms: C_2  and  C_5
    2  A    between atoms: C_2  and  C_40
    3  A    between atoms: C_5  and  O_21
    4  A    between atoms: P_12  and  C_28
    5  A    between atoms: C_13  and  C_31
    6  A    between atoms: N_17  and  C_29
    7  A    between atoms: O_21  and  N_43
    8  A    between atoms: C_22  and  C_46
    9  A    between atoms: C_25  and  N_26
   10  A    between atoms: N_26  and  C_42
   11  A    between atoms: C_28  and  C_33
   12  A    between atoms: C_28  and  C_40
   13  A    between atoms: C_31  and  C_44
   14  A    between atoms: C_34  and  C_46
                            x       y       z     vdW  Elec       q    Type
                         _______ _______ _______ _____ _____    ______ ____

>  <TORSDO>
F 14

$$$$
=
 OpenBabel10222420233D

 47 51  0  0  1  0  0  0  0  0999 V2000
  190.7620  177.4990  141.3640 C   0  0  0  0  0  3  0  0  0  0  0  0
  188.5410  177.8230  140.3590 C   0  0  0  0  0  0  0  0  0  0  0  0
  190.1280  176.9240  142.6230 C   0  0  0  0  0  0  0  0  0  0  0  0
  188.8130  176.8040  142.6990 C   0  0  0  0  0  3  0  0  0  0  0  0
  187.7900  178.1690  139.3850 N   0  0  0  0  0  0  0  0  0  0  0  0
  187.9640  177.4780  141.7100 C   0  0  2  0  0  3  0  0  0  0  0  0
  190.0210  177.8650  140.3570 C   0  0  0  0  0  3  0  0  0  0  0  0
  192.0860  175.7940  143.5480 O   0  0  0  0  0  0  0  0  0  0  0  0
  191.0500  176.5120  143.7120 C   0  0  0  0  0  0  0  0  0  0  0  0
  191.5840  177.5430  145.7690 O   0  0  0  0  0  0  0  0  0  0  0  0
  189.4560  176.7360  145.6670 N   0  0  0  0  0  2  0  0  0  0  0  0
  190.7080  176.9680  145.0780 C   0  0  0  0  0  0  0  0  0  0  0  0
  186.5440  178.5130  146.7920 C   0  0  0  0  0  3  0  0  0  0  0  0
  187.9310  178.2570  148.6930 C   0  0  0  0  0  3  0  0  0  0  0  0
  187.4230  177.7580  146.0470 C   0  0  0  0  0  3  0  0  0  0  0  0
  188.8370  177.5000  147.9500 C   0  0  0  0  0  3  0  0  0  0  0  0
  188.5710  177.3040  146.6060 C   0  0  0  0  0  0  0  0  0  0  0  0
  186.7870  178.7990  148.1350 C   0  0  0  0  0  3  0  0  0  0  0  0
  187.8720  178.7830  138.1690 O   0  0  0  0  0  0  0  0  0  0  0  0
  187.0430  178.4230  137.0630 C   0  0  0  0  0  2  0  0  0  0  0  0
  185.9160  177.5620  137.5490 C   0  0  0  0  0  2  0  0  0  0  0  0
  185.7850  176.6400  136.3260 C   0  0  0  0  0  2  0  0  0  0  0  0
  186.2020  175.2500  136.3080 C   0  0  1  0  0  3  0  0  0  0  0  0
  183.8150  174.6330  137.2630 O   0  0  0  0  0  1  0  0  0  0  0  0
  185.8000  173.1520  137.9640 O   0  0  0  0  0  1  0  0  0  0  0  0
  185.1760  174.1190  136.8510 P   0  0  0  0  0  0  0  0  0  0  0  0
  185.1070  173.2740  135.4470 O   0  0  0  0  0  0  0  0  0  0  0  0
  188.6350  175.0420  136.8470 C   0  0  0  0  0  1  0  0  0  0  0  0
  187.5240  174.9900  135.6500 C   0  0  0  0  0  2  0  0  0  0  0  0
  186.5520  177.5800  142.1210 C   0  0  0  0  0  2  0  0  0  0  0  0
  184.4220  179.0960  143.4510 C   0  0  0  0  0  2  0  0  0  0  0  0
  185.0110  179.0010  140.5020 C   0  0  0  0  0  2  0  0  0  0  0  0
  185.6830  179.7500  142.8390 C   0  0  0  0  0  2  0  0  0  0  0  0
  186.1160  178.9540  141.6270 C   0  0  1  0  0  3  0  0  0  0  0  0
  183.6930  178.8020  141.0720 C   0  0  1  0  0  3  0  0  0  0  0  0
  183.3540  178.5790  142.4520 C   0  0  0  0  0  2  0  0  0  0  0  0
  182.5740  179.4000  140.3610 N   0  0  0  0  0  2  0  0  0  0  0  0
  180.5230  181.3840  136.1750 C   0  0  2  0  0  3  0  0  0  0  0  0
  180.3220  180.7960  134.8760 C   0  0  0  0  0  2  0  0  0  0  0  0
  181.0730  178.5700  135.7000 C   0  0  0  0  0  2  0  0  0  0  0  0
  181.5550  179.2010  136.9900 C   0  0  0  0  0  0  0  0  0  0  0  0
  181.0700  179.5680  134.6910 O   0  0  0  0  0  0  0  0  0  0  0  0
  182.1950  178.5790  138.0360 C   0  0  0  0  0  3  0  0  0  0  0  0
  181.1760  180.5150  137.1810 C   0  0  0  0  0  0  0  0  0  0  0  0
  179.5680  182.4210  136.6350 C   0  0  0  0  0  1  0  0  0  0  0  0
  181.6490  180.9500  138.7180 S   0  0  0  0  0  0  0  0  0  0  0  0
  182.2860  179.5120  139.1040 C   0  0  0  0  0  0  0  0  0  0  0  0
  1  3  1  0  0  0  0
  2  6  1  0  0  0  0
  3  4  2  0  0  0  0
  3  9  1  0  0  0  0
  5  2  2  0  0  0  0
  6 30  1  6  0  0  0
  6  4  1  0  0  0  0
  7  2  1  0  0  0  0
  7  1  2  0  0  0  0
  8  9  2  0  0  0  0
  9 12  1  0  0  0  0
 11 17  1  0  0  0  0
 12 11  1  0  0  0  0
 12 10  2  0  0  0  0
 13 18  1  0  0  0  0
 15 17  1  0  0  0  0
 15 13  2  0  0  0  0
 16 14  1  0  0  0  0
 17 16  2  0  0  0  0
 18 14  2  0  0  0  0
 19  5  1  0  0  0  0
 20 21  1  0  0  0  0
 20 19  1  0  0  0  0
 22 21  1  0  0  0  0
 23 29  1  6  0  0  0
 23 22  1  0  0  0  0
 23 26  1  0  0  0  0
 26 24  1  0  0  0  0
 26 25  1  0  0  0  0
 27 26  2  0  0  0  0
 29 28  1  0  0  0  0
 32 35  1  0  0  0  0
 32 34  1  0  0  0  0
 33 31  1  0  0  0  0
 34 30  1  1  0  0  0
 34 33  1  0  0  0  0
 35 37  1  1  0  0  0
 35 36  1  0  0  0  0
 36 31  1  0  0  0  0
 38 45  1  1  0  0  0
 38 44  1  0  0  0  0
 39 38  1  0  0  0  0
 40 41  1  0  0  0  0
 41 44  2  0  0  0  0
 41 43  1  0  0  0  0
 42 39  1  0  0  0  0
 42 40  1  0  0  0  0
 43 47  2  0  0  0  0
 44 46  1  0  0  0  0
 46 47  1  0  0  0  0
 47 37  1  0  0  0  0
M  END
>  <MODEL>
9

>  <REMARK>
 VINA RESULT:      -7.1      2.832      5.839
  Name = 
  14 active torsions:
  status: ('A' for Active; 'I' for Inactive)
    1  A    between atoms: C_2  and  C_5
    2  A    between atoms: C_2  and  C_40
    3  A    between atoms: C_5  and  O_21
    4  A    between atoms: P_12  and  C_28
    5  A    between atoms: C_13  and  C_31
    6  A    between atoms: N_17  and  C_29
    7  A    between atoms: O_21  and  N_43
    8  A    between atoms: C_22  and  C_46
    9  A    between atoms: C_25  and  N_26
   10  A    between atoms: N_26  and  C_42
   11  A    between atoms: C_28  and  C_33
   12  A    between atoms: C_28  and  C_40
   13  A    between atoms: C_31  and  C_44
   14  A    between atoms: C_34  and  C_46
                            x       y       z     vdW  Elec       q    Type
                         _______ _______ _______ _____ _____    ______ ____

>  <TORSDO>
F 14

$$$$
