=
 OpenBabel10222420433D

 39 43  0  0  1  0  0  0  0  0999 V2000
  185.2210  179.2300  145.1430 C   0  0  0  0  0  3  0  0  0  0  0  0
  190.7500  177.2590  143.0720 S   0  0  0  0  0  0  0  0  0  0  0  0
  188.2160  176.8910  142.4640 C   0  0  2  0  0  3  0  0  0  0  0  0
  189.0310  177.0410  143.4760 C   0  0  2  0  0  3  0  0  0  0  0  0
  187.0160  177.6920  144.2720 C   0  0  0  0  0  0  0  0  0  0  0  0
  184.7230  179.5130  143.9810 C   0  0  0  0  0  0  0  0  0  0  0  0
  184.9370  178.6730  141.7620 C   0  0  2  0  0  3  0  0  0  0  0  0
  185.9230  177.9170  145.3130 C   0  0  1  0  0  3  0  0  0  0  0  0
  184.3800  179.6580  142.7380 C   0  0  0  0  0  3  0  0  0  0  0  0
  188.2930  177.5570  144.6140 C   0  0  0  0  0  0  0  0  0  0  0  0
  185.6670  177.8000  147.6930 O   0  0  0  0  0  0  0  0  0  0  0  0
  188.7550  177.6650  146.0100 C   0  0  0  0  0  0  0  0  0  0  0  0
  190.2120  177.5790  141.3490 C   0  0  2  0  0  3  0  0  0  0  0  0
  188.8630  176.8980  141.1280 C   0  0  0  0  0  2  0  0  0  0  0  0
  186.4650  177.8250  146.7180 C   0  0  0  0  0  0  0  0  0  0  0  0
  186.4520  178.5220  141.9300 C   0  0  0  0  0  2  0  0  0  0  0  0
  187.8790  177.7790  146.9660 N   0  0  0  0  0  0  0  0  0  0  0  0
  186.8200  177.3200  142.8110 C   0  0  1  0  0  3  0  0  0  0  0  0
  183.0200  175.4630  139.4550 O   0  0  0  0  0  1  0  0  0  0  0  0
  183.7460  176.4270  137.5150 O   0  0  0  0  0  0  0  0  0  0  0  0
  182.1730  179.3370  140.9770 C   0  0  0  0  0  2  0  0  0  0  0  0
  185.5270  179.1750  139.5050 O   0  0  0  0  0  0  0  0  0  0  0  0
  181.6770  177.9070  141.1750 C   0  0  0  0  0  2  0  0  0  0  0  0
  180.2710  176.0910  140.1410 C   0  0  0  0  0  1  0  0  0  0  0  0
  181.9460  178.6180  137.9800 C   0  0  0  0  0  2  0  0  0  0  0  0
  183.2460  179.3680  139.9850 N   0  0  0  0  0  0  0  0  0  0  0  0
  180.9630  177.4270  139.9180 C   0  0  2  0  0  3  0  0  0  0  0  0
  182.9260  179.6400  138.5810 C   0  0  0  0  0  2  0  0  0  0  0  0
  184.6030  179.0810  140.3600 C   0  0  0  0  0  0  0  0  0  0  0  0
  181.8780  177.3960  138.7740 N   0  0  0  0  0  0  0  0  0  0  0  0
  182.8900  176.3870  138.6090 C   0  0  0  0  0  0  0  0  0  0  0  0
  191.2220  177.1000  140.3630 C   0  0  0  0  0  0  0  0  0  0  0  0
  192.3410  177.6770  140.2770 O   0  0  0  0  0  0  0  0  0  0  0  0
  190.5680  175.9880  138.2860 C   0  0  0  0  0  0  0  0  0  0  0  0
  190.9000  175.9670  139.5430 N   0  0  0  0  0  0  0  0  0  0  0  0
  190.3000  174.7620  137.6180 N   0  0  0  0  0  1  0  0  0  0  0  0
  190.4650  177.2120  137.5590 N   0  0  0  0  0  1  0  0  0  0  0  0
  190.1910  177.6000  146.3230 C   0  0  0  0  0  3  0  0  0  0  0  0
  190.6770  176.8190  147.2810 C   0  0  0  0  0  2  0  0  0  0  0  0
  3 14  1  6  0  0  0
  3 18  1  0  0  0  0
  3  4  1  0  0  0  0
  4  2  1  6  0  0  0
  4 10  1  0  0  0  0
  5 10  2  0  0  0  0
  5  8  1  0  0  0  0
  6  1  2  0  0  0  0
  7 29  1  6  0  0  0
  7 16  1  0  0  0  0
  7  9  1  0  0  0  0
  8  1  1  6  0  0  0
  8 15  1  0  0  0  0
  9  6  2  0  0  0  0
 10 12  1  0  0  0  0
 12 38  1  0  0  0  0
 12 17  2  0  0  0  0
 13 32  1  6  0  0  0
 13  2  1  0  0  0  0
 14 13  1  0  0  0  0
 15 17  1  0  0  0  0
 15 11  2  0  0  0  0
 18 16  1  6  0  0  0
 18  5  1  0  0  0  0
 20 31  2  0  0  0  0
 21 23  1  0  0  0  0
 22 29  2  0  0  0  0
 25 28  1  0  0  0  0
 25 30  1  0  0  0  0
 26 29  1  0  0  0  0
 26 21  1  0  0  0  0
 27 24  1  1  0  0  0
 27 23  1  0  0  0  0
 28 26  1  0  0  0  0
 30 27  1  0  0  0  0
 31 30  1  0  0  0  0
 31 19  1  0  0  0  0
 33 32  2  0  0  0  0
 34 35  2  0  0  0  0
 35 32  1  0  0  0  0
 36 34  1  0  0  0  0
 37 34  1  0  0  0  0
 38 39  2  0  0  0  0
M  END
>  <MODEL>
1

>  <REMARK>
 VINA RESULT:     -10.0      0.000      0.000
  Name = 
  4 active torsions:
  status: ('A' for Active; 'I' for Inactive)
    1  A    between atoms: N_9  and  C_25
    2  A    between atoms: C_15  and  C_35
    3  A    between atoms: C_24  and  C_31
    4  A    between atoms: C_25  and  C_27
                            x       y       z     vdW  Elec       q    Type
                         _______ _______ _______ _____ _____    ______ ____

>  <TORSDO>
F 4

$$$$
=
 OpenBabel10222420433D

 39 43  0  0  1  0  0  0  0  0999 V2000
  185.8690  178.8990  142.3590 C   0  0  0  0  0  3  0  0  0  0  0  0
  191.9230  177.4620  142.1580 S   0  0  0  0  0  0  0  0  0  0  0  0
  189.7230  176.7380  140.9100 C   0  0  2  0  0  3  0  0  0  0  0  0
  190.1890  177.0680  142.0860 C   0  0  2  0  0  3  0  0  0  0  0  0
  187.9770  177.5290  142.2060 C   0  0  0  0  0  0  0  0  0  0  0  0
  185.7080  179.0240  141.0790 C   0  0  0  0  0  0  0  0  0  0  0  0
  186.6380  178.0400  139.1190 C   0  0  2  0  0  3  0  0  0  0  0  0
  186.6130  177.7010  142.8660 C   0  0  1  0  0  3  0  0  0  0  0  0
  185.7300  179.0250  139.7820 C   0  0  0  0  0  3  0  0  0  0  0  0
  189.1060  177.5800  142.9050 C   0  0  0  0  0  0  0  0  0  0  0  0
  185.6860  177.7470  145.0760 O   0  0  0  0  0  0  0  0  0  0  0  0
  189.1290  177.8560  144.3540 C   0  0  0  0  0  0  0  0  0  0  0  0
  191.8820  177.5740  140.3300 C   0  0  2  0  0  3  0  0  0  0  0  0
  190.7260  176.7160  139.8170 C   0  0  0  0  0  2  0  0  0  0  0  0
  186.7280  177.7900  144.3670 C   0  0  0  0  0  0  0  0  0  0  0  0
  188.0450  178.0910  139.7220 C   0  0  0  0  0  2  0  0  0  0  0  0
  188.0050  177.9390  145.0060 N   0  0  0  0  0  0  0  0  0  0  0  0
  188.2520  177.0190  140.8000 C   0  0  1  0  0  3  0  0  0  0  0  0
  189.3350  175.2870  137.0120 O   0  0  0  0  0  1  0  0  0  0  0  0
  189.5830  176.8180  135.3340 O   0  0  0  0  0  0  0  0  0  0  0  0
  185.2130  176.2920  137.2190 C   0  0  0  0  0  2  0  0  0  0  0  0
  187.3280  179.2860  137.2040 O   0  0  0  0  0  0  0  0  0  0  0  0
  186.1040  175.0890  137.5180 C   0  0  0  0  0  2  0  0  0  0  0  0
  187.3910  173.2070  136.4480 C   0  0  0  0  0  1  0  0  0  0  0  0
  186.8410  176.3880  134.5940 C   0  0  0  0  0  2  0  0  0  0  0  0
  186.0190  177.4080  136.7280 N   0  0  0  0  0  0  0  0  0  0  0  0
  186.6710  174.5270  136.2210 C   0  0  2  0  0  3  0  0  0  0  0  0
  186.1890  177.5980  135.2840 C   0  0  0  0  0  2  0  0  0  0  0  0
  186.6900  178.2890  137.6430 C   0  0  0  0  0  0  0  0  0  0  0  0
  187.5170  175.5140  135.5470 N   0  0  0  0  0  0  0  0  0  0  0  0
  188.8390  175.8520  136.0020 C   0  0  0  0  0  0  0  0  0  0  0  0
  193.1770  177.1440  139.7270 C   0  0  0  0  0  0  0  0  0  0  0  0
  194.2170  177.8330  139.9140 O   0  0  0  0  0  0  0  0  0  0  0  0
  193.5750  175.8100  137.7170 C   0  0  0  0  0  0  0  0  0  0  0  0
  193.2100  175.9320  138.9590 N   0  0  0  0  0  0  0  0  0  0  0  0
  193.5670  174.5220  137.1140 N   0  0  0  0  0  1  0  0  0  0  0  0
  193.9840  176.9360  136.9420 N   0  0  0  0  0  1  0  0  0  0  0  0
  190.4110  177.9930  145.0620 C   0  0  0  0  0  3  0  0  0  0  0  0
  190.8620  177.0710  145.9040 C   0  0  0  0  0  2  0  0  0  0  0  0
  3 14  1  6  0  0  0
  3  4  1  0  0  0  0
  4  2  1  6  0  0  0
  4 10  1  0  0  0  0
  5  8  1  0  0  0  0
  5 10  2  0  0  0  0
  6  1  2  0  0  0  0
  7 29  1  6  0  0  0
  7 16  1  0  0  0  0
  7  9  1  0  0  0  0
  8  1  1  6  0  0  0
  8 15  1  0  0  0  0
  9  6  2  0  0  0  0
 10 12  1  0  0  0  0
 12 17  2  0  0  0  0
 12 38  1  0  0  0  0
 13 32  1  6  0  0  0
 13  2  1  0  0  0  0
 14 13  1  0  0  0  0
 15 17  1  0  0  0  0
 15 11  2  0  0  0  0
 18 16  1  6  0  0  0
 18  3  1  0  0  0  0
 18  5  1  0  0  0  0
 20 31  2  0  0  0  0
 21 23  1  0  0  0  0
 22 29  2  0  0  0  0
 25 28  1  0  0  0  0
 25 30  1  0  0  0  0
 26 21  1  0  0  0  0
 26 29  1  0  0  0  0
 27 24  1  1  0  0  0
 27 23  1  0  0  0  0
 28 26  1  0  0  0  0
 30 31  1  0  0  0  0
 30 27  1  0  0  0  0
 31 19  1  0  0  0  0
 32 33  2  0  0  0  0
 34 35  2  0  0  0  0
 35 32  1  0  0  0  0
 36 34  1  0  0  0  0
 37 34  1  0  0  0  0
 38 39  2  0  0  0  0
M  END
>  <MODEL>
2

>  <REMARK>
 VINA RESULT:      -8.5      2.853      4.052
  Name = 
  4 active torsions:
  status: ('A' for Active; 'I' for Inactive)
    1  A    between atoms: N_9  and  C_25
    2  A    between atoms: C_15  and  C_35
    3  A    between atoms: C_24  and  C_31
    4  A    between atoms: C_25  and  C_27
                            x       y       z     vdW  Elec       q    Type
                         _______ _______ _______ _____ _____    ______ ____

>  <TORSDO>
F 4

$$$$
=
 OpenBabel10222420433D

 39 43  0  0  1  0  0  0  0  0999 V2000
  190.2950  176.7870  141.6120 C   0  0  0  0  0  3  0  0  0  0  0  0
  184.3200  178.1150  142.7500 S   0  0  0  0  0  0  0  0  0  0  0  0
  186.2790  179.1100  141.3010 C   0  0  2  0  0  3  0  0  0  0  0  0
  186.0200  178.5500  142.4540 C   0  0  2  0  0  3  0  0  0  0  0  0
  188.2120  178.1190  142.0960 C   0  0  0  0  0  0  0  0  0  0  0  0
  190.2290  176.9150  140.3240 C   0  0  0  0  0  0  0  0  0  0  0  0
  188.9850  178.2390  138.7840 C   0  0  2  0  0  3  0  0  0  0  0  0
  189.6690  177.8500  142.4620 C   0  0  1  0  0  3  0  0  0  0  0  0
  189.9800  177.1630  139.0750 C   0  0  0  0  0  3  0  0  0  0  0  0
  187.2220  177.9120  142.9580 C   0  0  0  0  0  0  0  0  0  0  0  0
  190.9660  177.3970  144.4260 O   0  0  0  0  0  0  0  0  0  0  0  0
  187.4490  177.3610  144.3070 C   0  0  0  0  0  0  0  0  0  0  0  0
  184.0390  178.3590  140.9550 C   0  0  2  0  0  3  0  0  0  0  0  0
  185.1000  179.3220  140.4250 C   0  0  0  0  0  2  0  0  0  0  0  0
  189.8170  177.4710  143.9150 C   0  0  0  0  0  0  0  0  0  0  0  0
  187.7040  178.0450  139.6010 C   0  0  0  0  0  2  0  0  0  0  0  0
  188.6680  177.1760  144.7250 N   0  0  0  0  0  0  0  0  0  0  0  0
  187.7040  178.8850  140.8850 C   0  0  1  0  0  3  0  0  0  0  0  0
  191.2540  175.2740  136.4690 O   0  0  0  0  0  1  0  0  0  0  0  0
  191.0140  176.5580  134.5940 O   0  0  0  0  0  0  0  0  0  0  0  0
  187.2500  176.2090  137.5330 C   0  0  0  0  0  2  0  0  0  0  0  0
  189.1330  179.2170  136.6110 O   0  0  0  0  0  0  0  0  0  0  0  0
  188.2510  175.0800  137.7640 C   0  0  0  0  0  2  0  0  0  0  0  0
  189.3500  173.0940  136.6720 C   0  0  0  0  0  1  0  0  0  0  0  0
  188.2020  175.9680  134.6030 C   0  0  0  0  0  2  0  0  0  0  0  0
  187.8540  177.2620  136.7180 N   0  0  0  0  0  0  0  0  0  0  0  0
  188.5250  174.3520  136.4540 C   0  0  2  0  0  3  0  0  0  0  0  0
  187.6670  177.2490  135.2640 C   0  0  0  0  0  2  0  0  0  0  0  0
  188.6720  178.2780  137.3190 C   0  0  0  0  0  0  0  0  0  0  0  0
  189.1310  175.2530  135.4700 N   0  0  0  0  0  0  0  0  0  0  0  0
  190.5040  175.6800  135.5430 C   0  0  0  0  0  0  0  0  0  0  0  0
  182.6660  178.8710  140.6820 C   0  0  0  0  0  0  0  0  0  0  0  0
  182.4180  179.4540  139.5910 O   0  0  0  0  0  0  0  0  0  0  0  0
  180.5830  177.9240  141.5430 C   0  0  0  0  0  0  0  0  0  0  0  0
  181.6440  178.6650  141.6680 N   0  0  0  0  0  0  0  0  0  0  0  0
  179.6790  177.8160  142.6360 N   0  0  0  0  0  1  0  0  0  0  0  0
  180.3000  177.2190  140.3360 N   0  0  0  0  0  1  0  0  0  0  0  0
  186.3090  177.0640  145.1880 C   0  0  0  0  0  3  0  0  0  0  0  0
  185.9610  177.8560  146.1950 C   0  0  0  0  0  2  0  0  0  0  0  0
  3 14  1  6  0  0  0
  3  4  1  0  0  0  0
  4  2  1  6  0  0  0
  4 10  1  0  0  0  0
  5  8  1  0  0  0  0
  5 10  2  0  0  0  0
  6  1  2  0  0  0  0
  7 29  1  6  0  0  0
  7  9  1  0  0  0  0
  7 16  1  0  0  0  0
  8  1  1  6  0  0  0
  8 15  1  0  0  0  0
  9  6  2  0  0  0  0
 10 12  1  0  0  0  0
 12 17  2  0  0  0  0
 12 38  1  0  0  0  0
 13 32  1  1  0  0  0
 13  2  1  0  0  0  0
 14 13  1  0  0  0  0
 15 11  2  0  0  0  0
 15 17  1  0  0  0  0
 18 16  1  6  0  0  0
 18  3  1  0  0  0  0
 18  5  1  0  0  0  0
 20 31  2  0  0  0  0
 21 23  1  0  0  0  0
 22 29  2  0  0  0  0
 25 28  1  0  0  0  0
 25 30  1  0  0  0  0
 26 29  1  0  0  0  0
 26 21  1  0  0  0  0
 27 24  1  1  0  0  0
 27 23  1  0  0  0  0
 28 26  1  0  0  0  0
 30 31  1  0  0  0  0
 30 27  1  0  0  0  0
 31 19  1  0  0  0  0
 32 35  1  0  0  0  0
 33 32  2  0  0  0  0
 34 35  2  0  0  0  0
 34 36  1  0  0  0  0
 37 34  1  0  0  0  0
 38 39  2  0  0  0  0
M  END
>  <MODEL>
3

>  <REMARK>
 VINA RESULT:      -8.1      2.894      6.883
  Name = 
  4 active torsions:
  status: ('A' for Active; 'I' for Inactive)
    1  A    between atoms: N_9  and  C_25
    2  A    between atoms: C_15  and  C_35
    3  A    between atoms: C_24  and  C_31
    4  A    between atoms: C_25  and  C_27
                            x       y       z     vdW  Elec       q    Type
                         _______ _______ _______ _____ _____    ______ ____

>  <TORSDO>
F 4

$$$$
=
 OpenBabel10222420433D

 39 43  0  0  1  0  0  0  0  0999 V2000
  186.6230  176.7480  136.1510 C   0  0  0  0  0  3  0  0  0  0  0  0
  187.2850  178.2360  142.1590 S   0  0  0  0  0  0  0  0  0  0  0  0
  185.6030  178.7770  140.2090 C   0  0  2  0  0  3  0  0  0  0  0  0
  186.8720  178.5950  140.4660 C   0  0  2  0  0  3  0  0  0  0  0  0
  186.6680  178.1200  138.2630 C   0  0  0  0  0  0  0  0  0  0  0  0
  185.3580  176.4710  136.2090 C   0  0  0  0  0  0  0  0  0  0  0  0
  183.4820  177.2290  137.4660 C   0  0  2  0  0  3  0  0  0  0  0  0
  187.1020  178.0080  136.8050 C   0  0  1  0  0  3  0  0  0  0  0  0
  184.0930  176.3160  136.4520 C   0  0  0  0  0  3  0  0  0  0  0  0
  187.5500  178.1680  139.2560 C   0  0  0  0  0  0  0  0  0  0  0  0
  189.1120  178.2110  135.5150 O   0  0  0  0  0  0  0  0  0  0  0  0
  189.0040  178.0660  139.0290 C   0  0  0  0  0  0  0  0  0  0  0  0
  185.5020  177.9090  142.4300 C   0  0  2  0  0  3  0  0  0  0  0  0
  184.7020  178.6830  141.3840 C   0  0  0  0  0  2  0  0  0  0  0  0
  188.6010  178.0990  136.6610 C   0  0  0  0  0  0  0  0  0  0  0  0
  184.3170  177.2690  138.7500 C   0  0  0  0  0  2  0  0  0  0  0  0
  189.4610  178.0450  137.8100 N   0  0  0  0  0  0  0  0  0  0  0  0
  185.2790  178.4650  138.7760 C   0  0  1  0  0  3  0  0  0  0  0  0
  181.6520  179.5630  140.7060 O   0  0  0  0  0  0  0  0  0  0  0  0
  180.2190  177.8360  141.1380 O   0  0  0  0  0  1  0  0  0  0  0  0
  181.1750  178.8220  136.5510 C   0  0  0  0  0  2  0  0  0  0  0  0
  181.8720  175.7320  138.3960 O   0  0  0  0  0  0  0  0  0  0  0  0
  181.5120  180.0000  137.4610 C   0  0  0  0  0  2  0  0  0  0  0  0
  180.5170  181.6690  139.0630 C   0  0  0  0  0  1  0  0  0  0  0  0
  178.9310  178.3310  138.6180 C   0  0  0  0  0  2  0  0  0  0  0  0
  180.9640  177.6130  137.3440 N   0  0  0  0  0  0  0  0  0  0  0  0
  180.2950  180.3750  138.2970 C   0  0  2  0  0  3  0  0  0  0  0  0
  179.6070  177.2470  137.7600 C   0  0  0  0  0  2  0  0  0  0  0  0
  182.0760  176.8070  137.7670 C   0  0  0  0  0  0  0  0  0  0  0  0
  179.9000  179.2700  139.1740 N   0  0  0  0  0  0  0  0  0  0  0  0
  180.6300  178.9130  140.3610 C   0  0  0  0  0  0  0  0  0  0  0  0
  185.0810  178.2820  143.8110 C   0  0  0  0  0  0  0  0  0  0  0  0
  183.8900  178.6350  144.0320 O   0  0  0  0  0  0  0  0  0  0  0  0
  185.8190  178.3570  146.1410 C   0  0  0  0  0  0  0  0  0  0  0  0
  186.0480  178.2090  144.8700 N   0  0  0  0  0  0  0  0  0  0  0  0
  186.8980  178.2310  147.0590 N   0  0  0  0  0  1  0  0  0  0  0  0
  184.5130  178.6440  146.6390 N   0  0  0  0  0  1  0  0  0  0  0  0
  189.9310  178.0310  140.1710 C   0  0  0  0  0  3  0  0  0  0  0  0
  190.5300  176.9150  140.5680 C   0  0  0  0  0  2  0  0  0  0  0  0
  1  6  2  0  0  0  0
  2 13  1  0  0  0  0
  3  4  1  0  0  0  0
  3 14  1  1  0  0  0
  4 10  1  6  0  0  0
  4  2  1  0  0  0  0
  5 18  1  0  0  0  0
  5 10  2  0  0  0  0
  6  9  2  0  0  0  0
  7 29  1  1  0  0  0
  7 16  1  0  0  0  0
  8  1  1  1  0  0  0
  8  5  1  0  0  0  0
  9  7  1  0  0  0  0
 11 15  2  0  0  0  0
 12 10  1  0  0  0  0
 12 38  1  0  0  0  0
 13 32  1  1  0  0  0
 14 13  1  0  0  0  0
 15  8  1  0  0  0  0
 15 17  1  0  0  0  0
 17 12  2  0  0  0  0
 18 16  1  1  0  0  0
 18  3  1  0  0  0  0
 21 26  1  0  0  0  0
 21 23  1  0  0  0  0
 23 27  1  0  0  0  0
 25 30  1  0  0  0  0
 26 28  1  0  0  0  0
 26 29  1  0  0  0  0
 27 24  1  1  0  0  0
 27 30  1  0  0  0  0
 28 25  1  0  0  0  0
 29 22  2  0  0  0  0
 30 31  1  0  0  0  0
 31 19  2  0  0  0  0
 31 20  1  0  0  0  0
 32 33  2  0  0  0  0
 32 35  1  0  0  0  0
 34 37  1  0  0  0  0
 34 36  1  0  0  0  0
 35 34  2  0  0  0  0
 38 39  2  0  0  0  0
M  END
>  <MODEL>
4

>  <REMARK>
 VINA RESULT:      -8.0      2.660      6.679
  Name = 
  4 active torsions:
  status: ('A' for Active; 'I' for Inactive)
    1  A    between atoms: N_9  and  C_25
    2  A    between atoms: C_15  and  C_35
    3  A    between atoms: C_24  and  C_31
    4  A    between atoms: C_25  and  C_27
                            x       y       z     vdW  Elec       q    Type
                         _______ _______ _______ _____ _____    ______ ____

>  <TORSDO>
F 4

$$$$
=
 OpenBabel10222420433D

 39 43  0  0  1  0  0  0  0  0999 V2000
  190.3650  176.8940  141.6260 C   0  0  0  0  0  3  0  0  0  0  0  0
  184.3960  178.1360  142.8850 S   0  0  0  0  0  0  0  0  0  0  0  0
  186.3160  179.1700  141.4120 C   0  0  2  0  0  3  0  0  0  0  0  0
  186.0850  178.5950  142.5640 C   0  0  2  0  0  3  0  0  0  0  0  0
  188.2760  178.1950  142.1620 C   0  0  0  0  0  0  0  0  0  0  0  0
  190.2740  177.0340  140.3410 C   0  0  0  0  0  0  0  0  0  0  0  0
  188.9870  178.3600  138.8380 C   0  0  2  0  0  3  0  0  0  0  0  0
  189.7410  177.9400  142.4990 C   0  0  1  0  0  3  0  0  0  0  0  0
  190.0000  177.2920  139.1000 C   0  0  0  0  0  3  0  0  0  0  0  0
  187.3040  177.9660  143.0390 C   0  0  0  0  0  0  0  0  0  0  0  0
  191.0790  177.4830  144.4340 O   0  0  0  0  0  0  0  0  0  0  0  0
  187.5610  177.4040  144.3780 C   0  0  0  0  0  0  0  0  0  0  0  0
  184.0800  178.3950  141.0980 C   0  0  2  0  0  3  0  0  0  0  0  0
  185.1200  179.3770  140.5600 C   0  0  0  0  0  2  0  0  0  0  0  0
  189.9200  177.5470  143.9450 C   0  0  0  0  0  0  0  0  0  0  0  0
  187.7230  178.1410  139.6750 C   0  0  0  0  0  2  0  0  0  0  0  0
  188.7900  177.2300  144.7720 N   0  0  0  0  0  0  0  0  0  0  0  0
  187.7360  178.9670  140.9690 C   0  0  1  0  0  3  0  0  0  0  0  0
  191.2550  175.4530  136.4500 O   0  0  0  0  0  1  0  0  0  0  0  0
  190.9630  176.7530  134.5940 O   0  0  0  0  0  0  0  0  0  0  0  0
  187.2580  176.3190  137.5950 C   0  0  0  0  0  2  0  0  0  0  0  0
  189.0820  179.3630  136.6740 O   0  0  0  0  0  0  0  0  0  0  0  0
  188.2790  175.2020  137.7960 C   0  0  0  0  0  2  0  0  0  0  0  0
  189.3860  173.2440  136.6620 C   0  0  0  0  0  1  0  0  0  0  0  0
  188.1610  176.1230  134.6460 C   0  0  0  0  0  2  0  0  0  0  0  0
  187.8320  177.3890  136.7820 N   0  0  0  0  0  0  0  0  0  0  0  0
  188.5390  174.4920  136.4730 C   0  0  2  0  0  3  0  0  0  0  0  0
  187.6200  177.3900  135.3310 C   0  0  0  0  0  2  0  0  0  0  0  0
  188.6480  178.4100  137.3790 C   0  0  0  0  0  0  0  0  0  0  0  0
  189.1150  175.4120  135.4890 N   0  0  0  0  0  0  0  0  0  0  0  0
  190.4830  175.8580  135.5420 C   0  0  0  0  0  0  0  0  0  0  0  0
  182.6960  178.8930  140.8550 C   0  0  0  0  0  0  0  0  0  0  0  0
  181.8520  178.8880  141.7930 O   0  0  0  0  0  0  0  0  0  0  0  0
  181.8480  178.7140  138.5690 C   0  0  0  0  0  0  0  0  0  0  0  0
  182.3630  179.3930  139.5510 N   0  0  0  0  0  0  0  0  0  0  0  0
  181.5610  179.3770  137.3430 N   0  0  0  0  0  1  0  0  0  0  0  0
  181.5660  177.3210  138.6880 N   0  0  0  0  0  1  0  0  0  0  0  0
  186.4410  177.0840  145.2750 C   0  0  0  0  0  3  0  0  0  0  0  0
  186.0760  177.8810  146.2720 C   0  0  0  0  0  2  0  0  0  0  0  0
  3 14  1  6  0  0  0
  3  4  1  0  0  0  0
  4  2  1  6  0  0  0
  4 10  1  0  0  0  0
  5  8  1  0  0  0  0
  5 10  2  0  0  0  0
  6  1  2  0  0  0  0
  7 29  1  6  0  0  0
  7  9  1  0  0  0  0
  7 16  1  0  0  0  0
  8  1  1  6  0  0  0
  8 15  1  0  0  0  0
  9  6  2  0  0  0  0
 10 12  1  0  0  0  0
 12 17  2  0  0  0  0
 12 38  1  0  0  0  0
 13 32  1  1  0  0  0
 13  2  1  0  0  0  0
 14 13  1  0  0  0  0
 15 11  2  0  0  0  0
 15 17  1  0  0  0  0
 18 16  1  6  0  0  0
 18  3  1  0  0  0  0
 18  5  1  0  0  0  0
 20 31  2  0  0  0  0
 21 23  1  0  0  0  0
 22 29  2  0  0  0  0
 25 28  1  0  0  0  0
 25 30  1  0  0  0  0
 26 29  1  0  0  0  0
 26 21  1  0  0  0  0
 27 24  1  1  0  0  0
 27 23  1  0  0  0  0
 28 26  1  0  0  0  0
 30 31  1  0  0  0  0
 30 27  1  0  0  0  0
 31 19  1  0  0  0  0
 32 33  2  0  0  0  0
 34 37  1  0  0  0  0
 34 35  2  0  0  0  0
 35 32  1  0  0  0  0
 36 34  1  0  0  0  0
 38 39  2  0  0  0  0
M  END
>  <MODEL>
5

>  <REMARK>
 VINA RESULT:      -8.0      2.808      6.641
  Name = 
  4 active torsions:
  status: ('A' for Active; 'I' for Inactive)
    1  A    between atoms: N_9  and  C_25
    2  A    between atoms: C_15  and  C_35
    3  A    between atoms: C_24  and  C_31
    4  A    between atoms: C_25  and  C_27
                            x       y       z     vdW  Elec       q    Type
                         _______ _______ _______ _____ _____    ______ ____

>  <TORSDO>
F 4

$$$$
=
 OpenBabel10222420433D

 39 43  0  0  1  0  0  0  0  0999 V2000
  187.0360  176.6280  137.0630 C   0  0  0  0  0  3  0  0  0  0  0  0
  185.7240  178.6950  142.7870 S   0  0  0  0  0  0  0  0  0  0  0  0
  184.7690  179.0050  140.3540 C   0  0  2  0  0  3  0  0  0  0  0  0
  185.8850  178.8810  141.0240 C   0  0  2  0  0  3  0  0  0  0  0  0
  186.4040  178.1950  138.9310 C   0  0  0  0  0  0  0  0  0  0  0  0
  185.8200  176.3260  136.7360 C   0  0  0  0  0  0  0  0  0  0  0  0
  183.6420  177.1510  137.2370 C   0  0  2  0  0  3  0  0  0  0  0  0
  187.2860  177.9570  137.7100 C   0  0  1  0  0  3  0  0  0  0  0  0
  184.5430  176.1630  136.5710 C   0  0  0  0  0  3  0  0  0  0  0  0
  186.9160  178.3590  140.1460 C   0  0  0  0  0  0  0  0  0  0  0  0
  189.6070  178.0880  137.1260 O   0  0  0  0  0  0  0  0  0  0  0  0
  188.3640  178.2730  140.4130 C   0  0  0  0  0  0  0  0  0  0  0  0
  183.9480  178.3490  142.4970 C   0  0  2  0  0  3  0  0  0  0  0  0
  183.5360  179.0000  141.1780 C   0  0  0  0  0  2  0  0  0  0  0  0
  188.7520  178.0710  138.0510 C   0  0  0  0  0  0  0  0  0  0  0  0
  184.0160  177.3350  138.7120 C   0  0  0  0  0  2  0  0  0  0  0  0
  189.1920  178.1480  139.4160 N   0  0  0  0  0  0  0  0  0  0  0  0
  184.9260  178.5510  138.9310 C   0  0  1  0  0  3  0  0  0  0  0  0
  181.0880  178.7270  140.4450 O   0  0  0  0  0  1  0  0  0  0  0  0
  179.6240  177.0030  140.1230 O   0  0  0  0  0  0  0  0  0  0  0  0
  181.5760  179.0020  136.2350 C   0  0  0  0  0  2  0  0  0  0  0  0
  181.8890  175.5400  137.4010 O   0  0  0  0  0  0  0  0  0  0  0  0
  181.6790  179.9190  137.4510 C   0  0  0  0  0  2  0  0  0  0  0  0
  180.3190  181.2010  139.1390 C   0  0  0  0  0  1  0  0  0  0  0  0
  178.9310  178.1240  137.5700 C   0  0  0  0  0  2  0  0  0  0  0  0
  181.2110  177.6490  136.6510 N   0  0  0  0  0  0  0  0  0  0  0  0
  180.2980  180.1330  138.0580 C   0  0  2  0  0  3  0  0  0  0  0  0
  179.8010  177.2480  136.6530 C   0  0  0  0  0  2  0  0  0  0  0  0
  182.2120  176.7250  137.1080 C   0  0  0  0  0  0  0  0  0  0  0  0
  179.7330  178.8690  138.5350 N   0  0  0  0  0  0  0  0  0  0  0  0
  180.1810  178.2160  139.7360 C   0  0  0  0  0  0  0  0  0  0  0  0
  183.1040  178.8410  143.6240 C   0  0  0  0  0  0  0  0  0  0  0  0
  183.5360  179.7530  144.3810 O   0  0  0  0  0  0  0  0  0  0  0  0
  180.6590  178.8710  143.6210 C   0  0  0  0  0  0  0  0  0  0  0  0
  181.7990  178.2730  143.8070 N   0  0  0  0  0  0  0  0  0  0  0  0
  179.4530  178.1480  143.8300 N   0  0  0  0  0  1  0  0  0  0  0  0
  180.5880  180.2370  143.2130 N   0  0  0  0  0  1  0  0  0  0  0  0
  188.8710  178.3700  141.7910 C   0  0  0  0  0  3  0  0  0  0  0  0
  189.2200  177.3020  142.4980 C   0  0  0  0  0  2  0  0  0  0  0  0
  3  4  1  0  0  0  0
  3 14  1  1  0  0  0
  4 10  1  6  0  0  0
  4  2  1  0  0  0  0
  5 18  1  0  0  0  0
  5 10  2  0  0  0  0
  6  1  2  0  0  0  0
  7 29  1  1  0  0  0
  7 16  1  0  0  0  0
  8  1  1  1  0  0  0
  8 15  1  0  0  0  0
  8  5  1  0  0  0  0
  9  6  2  0  0  0  0
  9  7  1  0  0  0  0
 10 12  1  0  0  0  0
 11 15  2  0  0  0  0
 12 38  1  0  0  0  0
 13  2  1  0  0  0  0
 13 32  1  1  0  0  0
 14 13  1  0  0  0  0
 15 17  1  0  0  0  0
 17 12  2  0  0  0  0
 18 16  1  1  0  0  0
 18  3  1  0  0  0  0
 21 26  1  0  0  0  0
 21 23  1  0  0  0  0
 23 27  1  0  0  0  0
 25 30  1  0  0  0  0
 26 28  1  0  0  0  0
 26 29  1  0  0  0  0
 27 30  1  0  0  0  0
 27 24  1  1  0  0  0
 28 25  1  0  0  0  0
 29 22  2  0  0  0  0
 30 31  1  0  0  0  0
 31 20  2  0  0  0  0
 31 19  1  0  0  0  0
 32 35  1  0  0  0  0
 32 33  2  0  0  0  0
 34 35  2  0  0  0  0
 34 36  1  0  0  0  0
 37 34  1  0  0  0  0
 38 39  2  0  0  0  0
M  END
>  <MODEL>
6

>  <REMARK>
 VINA RESULT:      -7.8      3.018      6.820
  Name = 
  4 active torsions:
  status: ('A' for Active; 'I' for Inactive)
    1  A    between atoms: N_9  and  C_25
    2  A    between atoms: C_15  and  C_35
    3  A    between atoms: C_24  and  C_31
    4  A    between atoms: C_25  and  C_27
                            x       y       z     vdW  Elec       q    Type
                         _______ _______ _______ _____ _____    ______ ____

>  <TORSDO>
F 4

$$$$
=
 OpenBabel10222420433D

 39 43  0  0  1  0  0  0  0  0999 V2000
  187.2310  177.3830  137.8120 C   0  0  0  0  0  3  0  0  0  0  0  0
  187.5340  177.3790  144.0300 S   0  0  0  0  0  0  0  0  0  0  0  0
  186.5890  178.9500  142.1430 C   0  0  2  0  0  3  0  0  0  0  0  0
  187.5910  178.1620  142.4340 C   0  0  2  0  0  3  0  0  0  0  0  0
  187.5460  178.2080  140.1720 C   0  0  0  0  0  0  0  0  0  0  0  0
  185.9810  177.7160  137.7290 C   0  0  0  0  0  0  0  0  0  0  0  0
  184.4600  179.0360  139.0000 C   0  0  2  0  0  3  0  0  0  0  0  0
  188.1070  178.1510  138.7550 C   0  0  1  0  0  3  0  0  0  0  0  0
  184.7570  178.1260  137.8520 C   0  0  0  0  0  3  0  0  0  0  0  0
  188.1920  177.6770  141.2050 C   0  0  0  0  0  0  0  0  0  0  0  0
  190.1750  177.6120  137.6690 O   0  0  0  0  0  0  0  0  0  0  0  0
  189.4680  176.9530  141.0530 C   0  0  0  0  0  0  0  0  0  0  0  0
  185.7710  177.8730  144.1100 C   0  0  2  0  0  3  0  0  0  0  0  0
  185.5680  179.0900  143.2100 C   0  0  0  0  0  2  0  0  0  0  0  0
  189.4950  177.5600  138.7290 C   0  0  0  0  0  0  0  0  0  0  0  0
  185.0160  178.4730  140.3120 C   0  0  0  0  0  2  0  0  0  0  0  0
  190.0530  176.9250  139.8900 N   0  0  0  0  0  0  0  0  0  0  0  0
  186.3890  179.0650  140.6590 C   0  0  1  0  0  3  0  0  0  0  0  0
  182.1540  176.9450  135.9010 O   0  0  0  0  0  0  0  0  0  0  0  0
  180.4660  178.4670  136.1320 O   0  0  0  0  0  1  0  0  0  0  0  0
  182.6650  176.9800  140.1170 C   0  0  0  0  0  2  0  0  0  0  0  0
  182.5020  180.3800  138.7540 O   0  0  0  0  0  0  0  0  0  0  0  0
  182.8950  176.0180  138.9550 C   0  0  0  0  0  2  0  0  0  0  0  0
  181.7290  174.4670  137.3500 C   0  0  0  0  0  1  0  0  0  0  0  0
  179.9280  177.4090  138.7480 C   0  0  0  0  0  2  0  0  0  0  0  0
  182.1180  178.2440  139.6270 N   0  0  0  0  0  0  0  0  0  0  0  0
  181.5580  175.5820  138.3690 C   0  0  2  0  0  3  0  0  0  0  0  0
  180.6670  178.4470  139.6090 C   0  0  0  0  0  2  0  0  0  0  0  0
  182.9840  179.2700  139.1130 C   0  0  0  0  0  0  0  0  0  0  0  0
  180.8260  176.7280  137.8230 N   0  0  0  0  0  0  0  0  0  0  0  0
  181.1840  177.3660  136.5840 C   0  0  0  0  0  0  0  0  0  0  0  0
  185.3480  178.1640  145.5100 C   0  0  0  0  0  0  0  0  0  0  0  0
  184.2110  178.6620  145.7320 O   0  0  0  0  0  0  0  0  0  0  0  0
  186.6090  178.6340  147.5520 C   0  0  0  0  0  0  0  0  0  0  0  0
  186.2490  177.8470  146.5820 N   0  0  0  0  0  0  0  0  0  0  0  0
  187.4990  178.1470  148.5480 N   0  0  0  0  0  1  0  0  0  0  0  0
  186.1340  179.9770  147.6420 N   0  0  0  0  0  1  0  0  0  0  0  0
  190.0950  176.3050  142.2150 C   0  0  0  0  0  3  0  0  0  0  0  0
  191.1650  176.8070  142.8190 C   0  0  0  0  0  2  0  0  0  0  0  0
  2 13  1  0  0  0  0
  3  4  1  0  0  0  0
  3 14  1  1  0  0  0
  4 10  1  6  0  0  0
  4  2  1  0  0  0  0
  5 18  1  0  0  0  0
  5 10  2  0  0  0  0
  6  1  2  0  0  0  0
  6  9  2  0  0  0  0
  7 29  1  1  0  0  0
  7 16  1  0  0  0  0
  8  1  1  6  0  0  0
  8  5  1  0  0  0  0
  9  7  1  0  0  0  0
 11 15  2  0  0  0  0
 12 10  1  0  0  0  0
 12 38  1  0  0  0  0
 13 32  1  1  0  0  0
 14 13  1  0  0  0  0
 15  8  1  0  0  0  0
 15 17  1  0  0  0  0
 17 12  2  0  0  0  0
 18 16  1  1  0  0  0
 18  3  1  0  0  0  0
 19 31  2  0  0  0  0
 20 31  1  0  0  0  0
 22 29  2  0  0  0  0
 23 21  1  0  0  0  0
 25 28  1  0  0  0  0
 26 21  1  0  0  0  0
 27 24  1  6  0  0  0
 27 23  1  0  0  0  0
 28 26  1  0  0  0  0
 29 26  1  0  0  0  0
 30 27  1  0  0  0  0
 30 25  1  0  0  0  0
 31 30  1  0  0  0  0
 32 33  2  0  0  0  0
 32 35  1  0  0  0  0
 34 37  1  0  0  0  0
 34 36  1  0  0  0  0
 35 34  2  0  0  0  0
 38 39  2  0  0  0  0
M  END
>  <MODEL>
7

>  <REMARK>
 VINA RESULT:      -7.6      2.121      5.843
  Name = 
  4 active torsions:
  status: ('A' for Active; 'I' for Inactive)
    1  A    between atoms: N_9  and  C_25
    2  A    between atoms: C_15  and  C_35
    3  A    between atoms: C_24  and  C_31
    4  A    between atoms: C_25  and  C_27
                            x       y       z     vdW  Elec       q    Type
                         _______ _______ _______ _____ _____    ______ ____

>  <TORSDO>
F 4

$$$$
