=
 OpenBabel10222418183D

 34 37  0  0  1  0  0  0  0  0999 V2000
  187.4720  177.9310  143.1500 C   0  0  0  0  0  0  0  0  0  0  0  0
  186.0930  179.1940  141.6670 N   0  0  0  0  0  0  0  0  0  0  0  0
  186.3900  177.8370  144.0400 C   0  0  0  0  0  0  0  0  0  0  0  0
  184.1400  178.2800  144.4010 O   0  0  0  0  0  0  0  0  0  0  0  0
  185.1600  178.4060  143.6710 C   0  0  0  0  0  0  0  0  0  0  0  0
  185.0570  179.0760  142.4970 N   0  0  0  0  0  2  0  0  0  0  0  0
  187.3030  178.6410  141.9460 C   0  0  0  0  0  0  0  0  0  0  0  0
  191.4440  176.5180  142.9090 N   0  0  0  0  0  0  0  0  0  0  0  0
  191.1450  177.9240  142.7270 C   0  0  0  0  0  2  0  0  0  0  0  0
  189.0840  176.0570  142.6620 C   0  0  0  0  0  2  0  0  0  0  0  0
  190.5080  175.6330  142.8730 C   0  0  0  0  0  3  0  0  0  0  0  0
  189.9300  178.3330  143.5710 C   0  0  0  0  0  2  0  0  0  0  0  0
  188.7870  177.2980  143.5160 C   0  0  1  0  0  3  0  0  0  0  0  0
  186.5440  177.1060  145.2680 N   0  0  0  0  0  2  0  0  0  0  0  0
  188.7510  177.0250  146.3060 C   0  0  0  0  0  3  0  0  0  0  0  0
  187.4210  177.4530  146.3470 C   0  0  0  0  0  0  0  0  0  0  0  0
  189.6470  177.3790  147.3240 C   0  0  0  0  0  0  0  0  0  0  0  0
  187.8770  178.6230  148.4250 C   0  0  0  0  0  3  0  0  0  0  0  0
  186.9900  178.2670  147.4060 C   0  0  0  0  0  3  0  0  0  0  0  0
  189.2010  178.1790  148.3860 C   0  0  0  0  0  3  0  0  0  0  0  0
  191.8930  177.1340  148.3510 O   0  0  0  0  0  1  0  0  0  0  0  0
  191.0420  176.9140  147.2740 C   0  0  0  0  0  0  0  0  0  0  0  0
  191.4790  176.3120  146.2570 O   0  0  0  0  0  0  0  0  0  0  0  0
  188.4010  178.7750  141.0280 N   0  0  0  0  0  2  0  0  0  0  0  0
  187.4710  178.0050  138.8580 C   0  0  0  0  0  3  0  0  0  0  0  0
  189.8150  177.6930  139.3660 C   0  0  0  0  0  3  0  0  0  0  0  0
  190.0040  177.0850  138.1220 C   0  0  0  0  0  3  0  0  0  0  0  0
  187.6580  177.3970  137.6140 C   0  0  0  0  0  3  0  0  0  0  0  0
  188.9250  176.9330  137.2440 C   0  0  0  0  0  0  0  0  0  0  0  0
  188.5500  178.1570  139.7430 C   0  0  0  0  0  0  0  0  0  0  0  0
  189.1320  176.2800  135.9180 C   0  0  0  0  0  2  0  0  0  0  0  0
  188.7520  174.8040  135.9530 C   0  0  0  0  0  2  0  0  0  0  0  0
  189.9780  173.9180  136.1080 C   0  0  0  0  0  2  0  0  0  0  0  0
  190.1920  173.6240  137.4540 O   0  0  0  0  0  1  0  0  0  0  0  0
  1  3  2  0  0  0  0
  2  7  2  0  0  0  0
  2  6  1  0  0  0  0
  3 14  1  0  0  0  0
  5  3  1  0  0  0  0
  5  4  2  0  0  0  0
  6  5  1  0  0  0  0
  7  1  1  0  0  0  0
  9  8  1  0  0  0  0
  9 12  1  0  0  0  0
 10 11  1  0  0  0  0
 10 13  1  0  0  0  0
 11  8  2  0  0  0  0
 13  1  1  6  0  0  0
 13 12  1  0  0  0  0
 14 16  1  0  0  0  0
 15 16  2  0  0  0  0
 15 17  1  0  0  0  0
 16 19  1  0  0  0  0
 17 20  2  0  0  0  0
 19 18  2  0  0  0  0
 20 18  1  0  0  0  0
 22 17  1  0  0  0  0
 22 21  1  0  0  0  0
 23 22  2  0  0  0  0
 24  7  1  0  0  0  0
 25 30  1  0  0  0  0
 26 30  2  0  0  0  0
 27 26  1  0  0  0  0
 28 25  2  0  0  0  0
 29 28  1  0  0  0  0
 29 27  2  0  0  0  0
 30 24  1  0  0  0  0
 31 32  1  0  0  0  0
 31 29  1  0  0  0  0
 32 33  1  0  0  0  0
 33 34  1  0  0  0  0
M  END
>  <MODEL>
1

>  <REMARK>
 VINA RESULT:      -8.9      0.000      0.000
  Name = 
  9 active torsions:
  status: ('A' for Active; 'I' for Inactive)
    1  A    between atoms: C_2  and  C_33
    2  A    between atoms: C_7  and  N_25
    3  A    between atoms: C_8  and  N_25
    4  A    between atoms: C_11  and  C_27
    5  A    between atoms: C_12  and  C_26
    6  A    between atoms: C_12  and  C_34
    7  A    between atoms: C_23  and  C_34
    8  A    between atoms: C_29  and  N_32
    9  A    between atoms: C_31  and  N_32
                            x       y       z     vdW  Elec       q    Type
                         _______ _______ _______ _____ _____    ______ ____

>  <TORSDO>
F 9

$$$$
=
 OpenBabel10222418183D

 34 37  0  0  1  0  0  0  0  0999 V2000
  187.7270  177.8260  142.3540 C   0  0  0  0  0  0  0  0  0  0  0  0
  186.8050  178.9330  140.4520 N   0  0  0  0  0  0  0  0  0  0  0  0
  186.4390  177.7510  142.9070 C   0  0  0  0  0  0  0  0  0  0  0  0
  184.1720  178.1320  142.5840 O   0  0  0  0  0  0  0  0  0  0  0  0
  185.3540  178.2470  142.1640 C   0  0  0  0  0  0  0  0  0  0  0  0
  185.5780  178.8320  140.9610 N   0  0  0  0  0  2  0  0  0  0  0  0
  187.8950  178.4460  141.1010 C   0  0  0  0  0  0  0  0  0  0  0  0
  191.6260  176.5440  143.3490 N   0  0  0  0  0  0  0  0  0  0  0  0
  191.3700  177.9210  142.9800 C   0  0  0  0  0  2  0  0  0  0  0  0
  189.4390  175.9800  142.4880 C   0  0  0  0  0  2  0  0  0  0  0  0
  190.7510  175.6250  143.1220 C   0  0  0  0  0  3  0  0  0  0  0  0
  189.9600  178.3450  143.4140 C   0  0  0  0  0  2  0  0  0  0  0  0
  188.8940  177.2680  143.1230 C   0  0  1  0  0  3  0  0  0  0  0  0
  186.2500  177.1110  144.1800 N   0  0  0  0  0  2  0  0  0  0  0  0
  187.7030  177.4460  146.1120 C   0  0  0  0  0  3  0  0  0  0  0  0
  186.4920  177.7040  145.4620 C   0  0  0  0  0  0  0  0  0  0  0  0
  187.9910  178.0400  147.3480 C   0  0  0  0  0  0  0  0  0  0  0  0
  185.8510  179.1840  147.2770 C   0  0  0  0  0  3  0  0  0  0  0  0
  185.5710  178.5880  146.0440 C   0  0  0  0  0  3  0  0  0  0  0  0
  187.0560  178.9090  147.9280 C   0  0  0  0  0  3  0  0  0  0  0  0
  190.1220  176.7810  147.5240 O   0  0  0  0  0  0  0  0  0  0  0  0
  189.2640  177.7520  148.0260 C   0  0  0  0  0  0  0  0  0  0  0  0
  189.5900  178.3820  149.0680 O   0  0  0  0  0  1  0  0  0  0  0  0
  189.2060  178.5580  140.5230 N   0  0  0  0  0  2  0  0  0  0  0  0
  189.1270  178.1110  138.0810 C   0  0  0  0  0  3  0  0  0  0  0  0
  190.8010  177.0500  139.4670 C   0  0  0  0  0  3  0  0  0  0  0  0
  191.3170  176.3980  138.3430 C   0  0  0  0  0  3  0  0  0  0  0  0
  189.6410  177.4600  136.9570 C   0  0  0  0  0  3  0  0  0  0  0  0
  190.7370  176.6000  137.0870 C   0  0  0  0  0  0  0  0  0  0  0  0
  189.7040  177.9100  139.3450 C   0  0  0  0  0  0  0  0  0  0  0  0
  191.2910  175.8990  135.8910 C   0  0  0  0  0  2  0  0  0  0  0  0
  192.5960  175.1810  136.2140 C   0  0  0  0  0  2  0  0  0  0  0  0
  193.7870  175.8770  135.5740 C   0  0  0  0  0  2  0  0  0  0  0  0
  194.3340  176.8050  136.4590 O   0  0  0  0  0  1  0  0  0  0  0  0
  1  3  2  0  0  0  0
  2  6  1  0  0  0  0
  2  7  2  0  0  0  0
  3 14  1  0  0  0  0
  5  4  2  0  0  0  0
  5  3  1  0  0  0  0
  6  5  1  0  0  0  0
  7  1  1  0  0  0  0
  9  8  1  0  0  0  0
  9 12  1  0  0  0  0
 10 11  1  0  0  0  0
 10 13  1  0  0  0  0
 11  8  2  0  0  0  0
 13  1  1  6  0  0  0
 13 12  1  0  0  0  0
 14 16  1  0  0  0  0
 15 17  1  0  0  0  0
 16 19  1  0  0  0  0
 16 15  2  0  0  0  0
 17 20  2  0  0  0  0
 17 22  1  0  0  0  0
 18 20  1  0  0  0  0
 19 18  2  0  0  0  0
 21 22  2  0  0  0  0
 22 23  1  0  0  0  0
 24  7  1  0  0  0  0
 25 30  1  0  0  0  0
 27 26  1  0  0  0  0
 28 29  1  0  0  0  0
 28 25  2  0  0  0  0
 29 27  2  0  0  0  0
 30 26  2  0  0  0  0
 30 24  1  0  0  0  0
 31 32  1  0  0  0  0
 31 29  1  0  0  0  0
 33 32  1  0  0  0  0
 33 34  1  0  0  0  0
M  END
>  <MODEL>
2

>  <REMARK>
 VINA RESULT:      -8.9      1.750      2.065
  Name = 
  9 active torsions:
  status: ('A' for Active; 'I' for Inactive)
    1  A    between atoms: C_2  and  C_33
    2  A    between atoms: C_7  and  N_25
    3  A    between atoms: C_8  and  N_25
    4  A    between atoms: C_11  and  C_27
    5  A    between atoms: C_12  and  C_26
    6  A    between atoms: C_12  and  C_34
    7  A    between atoms: C_23  and  C_34
    8  A    between atoms: C_29  and  N_32
    9  A    between atoms: C_31  and  N_32
                            x       y       z     vdW  Elec       q    Type
                         _______ _______ _______ _____ _____    ______ ____

>  <TORSDO>
F 9

$$$$
=
 OpenBabel10222418183D

 34 37  0  0  1  0  0  0  0  0999 V2000
  189.5380  177.7320  140.7150 C   0  0  0  0  0  0  0  0  0  0  0  0
  187.3860  178.4970  140.0240 N   0  0  0  0  0  0  0  0  0  0  0  0
  189.9640  177.7900  139.3780 C   0  0  0  0  0  0  0  0  0  0  0  0
  189.4270  178.4000  137.2050 O   0  0  0  0  0  0  0  0  0  0  0  0
  189.0660  178.2560  138.4030 C   0  0  0  0  0  0  0  0  0  0  0  0
  187.8000  178.5850  138.7610 N   0  0  0  0  0  2  0  0  0  0  0  0
  188.2110  178.0850  141.0230 C   0  0  0  0  0  0  0  0  0  0  0  0
  191.2130  176.8230  144.4830 N   0  0  0  0  0  0  0  0  0  0  0  0
  189.9850  176.1920  144.0460 C   0  0  0  0  0  2  0  0  0  0  0  0
  190.9490  178.4180  142.6870 C   0  0  0  0  0  2  0  0  0  0  0  0
  191.6750  177.8620  143.8760 C   0  0  0  0  0  3  0  0  0  0  0  0
  189.9770  176.0210  142.5210 C   0  0  0  0  0  2  0  0  0  0  0  0
  190.4990  177.2670  141.7760 C   0  0  1  0  0  3  0  0  0  0  0  0
  191.3190  177.4430  139.0500 N   0  0  0  0  0  2  0  0  0  0  0  0
  193.0970  176.0870  138.0720 C   0  0  0  0  0  3  0  0  0  0  0  0
  191.7350  176.2800  138.3250 C   0  0  0  0  0  0  0  0  0  0  0  0
  193.5440  174.9410  137.4000 C   0  0  0  0  0  0  0  0  0  0  0  0
  191.2510  174.1570  137.2500 C   0  0  0  0  0  3  0  0  0  0  0  0
  190.8130  175.3010  137.9210 C   0  0  0  0  0  3  0  0  0  0  0  0
  192.6110  173.9780  136.9880 C   0  0  0  0  0  3  0  0  0  0  0  0
  195.9090  174.9260  138.1510 O   0  0  0  0  0  1  0  0  0  0  0  0
  194.9780  174.7550  137.1320 C   0  0  0  0  0  0  0  0  0  0  0  0
  195.3780  174.4390  135.9800 O   0  0  0  0  0  0  0  0  0  0  0  0
  187.7410  178.0110  142.3790 N   0  0  0  0  0  2  0  0  0  0  0  0
  185.3370  178.4980  141.9920 C   0  0  0  0  0  3  0  0  0  0  0  0
  186.1720  178.1610  144.2370 C   0  0  0  0  0  3  0  0  0  0  0  0
  184.8870  178.3660  144.7460 C   0  0  0  0  0  3  0  0  0  0  0  0
  184.0510  178.7030  142.5000 C   0  0  0  0  0  3  0  0  0  0  0  0
  183.8240  178.6390  143.8790 C   0  0  0  0  0  0  0  0  0  0  0  0
  186.4070  178.2260  142.8590 C   0  0  0  0  0  0  0  0  0  0  0  0
  182.4540  178.8590  144.4280 C   0  0  0  0  0  2  0  0  0  0  0  0
  181.4110  178.9440  143.3190 C   0  0  0  0  0  2  0  0  0  0  0  0
  179.9980  178.8640  143.8770 C   0  0  0  0  0  2  0  0  0  0  0  0
  179.6980  177.5510  144.2390 O   0  0  0  0  0  1  0  0  0  0  0  0
  1  7  1  0  0  0  0
  2  7  2  0  0  0  0
  3  1  2  0  0  0  0
  4  5  2  0  0  0  0
  5  6  1  0  0  0  0
  5  3  1  0  0  0  0
  6  2  1  0  0  0  0
  7 24  1  0  0  0  0
  9  8  1  0  0  0  0
 10 11  1  0  0  0  0
 11  8  2  0  0  0  0
 12  9  1  0  0  0  0
 13  1  1  6  0  0  0
 13 12  1  0  0  0  0
 13 10  1  0  0  0  0
 14  3  1  0  0  0  0
 15 16  1  0  0  0  0
 16 14  1  0  0  0  0
 17 15  2  0  0  0  0
 18 19  1  0  0  0  0
 19 16  2  0  0  0  0
 20 18  2  0  0  0  0
 20 17  1  0  0  0  0
 22 17  1  0  0  0  0
 22 21  1  0  0  0  0
 23 22  2  0  0  0  0
 24 30  1  0  0  0  0
 25 28  2  0  0  0  0
 25 30  1  0  0  0  0
 26 27  1  0  0  0  0
 28 29  1  0  0  0  0
 29 31  1  0  0  0  0
 29 27  2  0  0  0  0
 30 26  2  0  0  0  0
 32 33  1  0  0  0  0
 32 31  1  0  0  0  0
 33 34  1  0  0  0  0
M  END
>  <MODEL>
3

>  <REMARK>
 VINA RESULT:      -8.3      3.517      8.126
  Name = 
  9 active torsions:
  status: ('A' for Active; 'I' for Inactive)
    1  A    between atoms: C_2  and  C_33
    2  A    between atoms: C_7  and  N_25
    3  A    between atoms: C_8  and  N_25
    4  A    between atoms: C_11  and  C_27
    5  A    between atoms: C_12  and  C_26
    6  A    between atoms: C_12  and  C_34
    7  A    between atoms: C_23  and  C_34
    8  A    between atoms: C_29  and  N_32
    9  A    between atoms: C_31  and  N_32
                            x       y       z     vdW  Elec       q    Type
                         _______ _______ _______ _____ _____    ______ ____

>  <TORSDO>
F 9

$$$$
=
 OpenBabel10222418183D

 34 37  0  0  1  0  0  0  0  0999 V2000
  185.7480  178.6890  141.8160 C   0  0  0  0  0  0  0  0  0  0  0  0
  187.8450  177.5510  141.8540 N   0  0  0  0  0  0  0  0  0  0  0  0
  185.9360  178.9440  140.4480 C   0  0  0  0  0  0  0  0  0  0  0  0
  187.2580  178.5710  138.5780 O   0  0  0  0  0  0  0  0  0  0  0  0
  187.0840  178.4360  139.8180 C   0  0  0  0  0  0  0  0  0  0  0  0
  188.0070  177.7630  140.5490 N   0  0  0  0  0  2  0  0  0  0  0  0
  186.7430  177.9860  142.5210 C   0  0  0  0  0  0  0  0  0  0  0  0
  182.5420  179.0710  144.5380 N   0  0  0  0  0  0  0  0  0  0  0  0
  183.9140  179.1570  144.9930 C   0  0  0  0  0  2  0  0  0  0  0  0
  183.3640  178.1720  142.4510 C   0  0  0  0  0  2  0  0  0  0  0  0
  182.2610  178.6090  143.3690 C   0  0  0  0  0  3  0  0  0  0  0  0
  184.8090  179.7610  143.9020 C   0  0  0  0  0  2  0  0  0  0  0  0
  184.5060  179.1970  142.4980 C   0  0  1  0  0  3  0  0  0  0  0  0
  184.9230  179.6510  139.7140 N   0  0  0  0  0  2  0  0  0  0  0  0
  183.7670  177.6790  138.8600 C   0  0  0  0  0  3  0  0  0  0  0  0
  183.7880  179.0610  139.0700 C   0  0  0  0  0  0  0  0  0  0  0  0
  182.6560  177.0620  138.2690 C   0  0  0  0  0  0  0  0  0  0  0  0
  181.5600  179.2230  138.1170 C   0  0  0  0  0  3  0  0  0  0  0  0
  182.6710  179.8310  138.7070 C   0  0  0  0  0  3  0  0  0  0  0  0
  181.5530  177.8440  137.8960 C   0  0  0  0  0  3  0  0  0  0  0  0
  183.8490  174.9160  137.9090 O   0  0  0  0  0  0  0  0  0  0  0  0
  182.6510  175.6080  138.0450 C   0  0  0  0  0  0  0  0  0  0  0  0
  181.5640  174.9760  137.9740 O   0  0  0  0  0  1  0  0  0  0  0  0
  186.5880  177.7330  143.9270 N   0  0  0  0  0  2  0  0  0  0  0  0
  187.3760  177.7000  146.2820 C   0  0  0  0  0  3  0  0  0  0  0  0
  188.9110  177.2390  144.4710 C   0  0  0  0  0  3  0  0  0  0  0  0
  189.9460  177.0620  145.3930 C   0  0  0  0  0  3  0  0  0  0  0  0
  188.4100  177.5230  147.2050 C   0  0  0  0  0  3  0  0  0  0  0  0
  189.6990  177.2050  146.7620 C   0  0  0  0  0  0  0  0  0  0  0  0
  187.6210  177.5590  144.9070 C   0  0  0  0  0  0  0  0  0  0  0  0
  190.8080  177.0180  147.7420 C   0  0  0  0  0  2  0  0  0  0  0  0
  191.9310  176.1640  147.1630 C   0  0  0  0  0  2  0  0  0  0  0  0
  192.8420  175.6270  148.2560 C   0  0  0  0  0  2  0  0  0  0  0  0
  193.3180  176.6760  149.0440 O   0  0  0  0  0  1  0  0  0  0  0  0
  1  7  1  0  0  0  0
  2  7  2  0  0  0  0
  3  1  2  0  0  0  0
  4  5  2  0  0  0  0
  5  3  1  0  0  0  0
  5  6  1  0  0  0  0
  6  2  1  0  0  0  0
  7 24  1  0  0  0  0
  8  9  1  0  0  0  0
 10 13  1  0  0  0  0
 10 11  1  0  0  0  0
 11  8  2  0  0  0  0
 12  9  1  0  0  0  0
 13  1  1  1  0  0  0
 13 12  1  0  0  0  0
 14  3  1  0  0  0  0
 15 16  1  0  0  0  0
 16 14  1  0  0  0  0
 17 15  2  0  0  0  0
 18 19  1  0  0  0  0
 19 16  2  0  0  0  0
 20 18  2  0  0  0  0
 20 17  1  0  0  0  0
 21 22  2  0  0  0  0
 22 17  1  0  0  0  0
 23 22  1  0  0  0  0
 24 30  1  0  0  0  0
 25 28  1  0  0  0  0
 26 30  1  0  0  0  0
 26 27  2  0  0  0  0
 27 29  1  0  0  0  0
 29 28  2  0  0  0  0
 29 31  1  0  0  0  0
 30 25  2  0  0  0  0
 32 31  1  0  0  0  0
 32 33  1  0  0  0  0
 33 34  1  0  0  0  0
M  END
>  <MODEL>
4

>  <REMARK>
 VINA RESULT:      -8.1      3.368      8.754
  Name = 
  9 active torsions:
  status: ('A' for Active; 'I' for Inactive)
    1  A    between atoms: C_2  and  C_33
    2  A    between atoms: C_7  and  N_25
    3  A    between atoms: C_8  and  N_25
    4  A    between atoms: C_11  and  C_27
    5  A    between atoms: C_12  and  C_26
    6  A    between atoms: C_12  and  C_34
    7  A    between atoms: C_23  and  C_34
    8  A    between atoms: C_29  and  N_32
    9  A    between atoms: C_31  and  N_32
                            x       y       z     vdW  Elec       q    Type
                         _______ _______ _______ _____ _____    ______ ____

>  <TORSDO>
F 9

$$$$
=
 OpenBabel10222418183D

 34 37  0  0  1  0  0  0  0  0999 V2000
  186.3210  178.1630  142.4320 C   0  0  0  0  0  0  0  0  0  0  0  0
  187.5890  178.8780  140.5420 N   0  0  0  0  0  0  0  0  0  0  0  0
  187.4430  177.4520  142.8880 C   0  0  0  0  0  0  0  0  0  0  0  0
  189.6890  176.9700  142.5590 O   0  0  0  0  0  0  0  0  0  0  0  0
  188.6360  177.5260  142.1490 C   0  0  0  0  0  0  0  0  0  0  0  0
  188.6630  178.2310  140.9910 N   0  0  0  0  0  2  0  0  0  0  0  0
  186.4120  178.8760  141.2220 C   0  0  0  0  0  0  0  0  0  0  0  0
  182.5200  179.1760  143.9690 N   0  0  0  0  0  0  0  0  0  0  0  0
  182.7030  178.9130  142.5560 C   0  0  0  0  0  2  0  0  0  0  0  0
  184.9240  179.3220  144.1800 C   0  0  0  0  0  2  0  0  0  0  0  0
  183.5330  179.3780  144.7400 C   0  0  0  0  0  3  0  0  0  0  0  0
  183.8130  177.8770  142.3370 C   0  0  0  0  0  2  0  0  0  0  0  0
  185.0460  178.1220  143.2320 C   0  0  1  0  0  3  0  0  0  0  0  0
  187.3680  176.7290  144.1280 N   0  0  0  0  0  2  0  0  0  0  0  0
  189.3440  176.7520  145.5600 C   0  0  0  0  0  3  0  0  0  0  0  0
  188.0060  177.1010  145.3560 C   0  0  0  0  0  0  0  0  0  0  0  0
  190.0120  177.1330  146.7310 C   0  0  0  0  0  0  0  0  0  0  0  0
  187.9940  178.2470  147.4970 C   0  0  0  0  0  3  0  0  0  0  0  0
  187.3360  177.8630  146.3260 C   0  0  0  0  0  3  0  0  0  0  0  0
  189.3270  177.8810  147.7000 C   0  0  0  0  0  3  0  0  0  0  0  0
  192.0590  177.0580  148.1320 O   0  0  0  0  0  1  0  0  0  0  0  0
  191.4170  176.7510  146.9380 C   0  0  0  0  0  0  0  0  0  0  0  0
  192.0530  176.1420  146.0360 O   0  0  0  0  0  0  0  0  0  0  0  0
  185.2720  179.5920  140.7190 N   0  0  0  0  0  2  0  0  0  0  0  0
  183.2010  179.8880  139.3820 C   0  0  0  0  0  3  0  0  0  0  0  0
  184.7790  178.1440  138.8230 C   0  0  0  0  0  3  0  0  0  0  0  0
  183.9630  177.7450  137.7610 C   0  0  0  0  0  3  0  0  0  0  0  0
  182.3830  179.4910  138.3210 C   0  0  0  0  0  3  0  0  0  0  0  0
  182.7620  178.4160  137.5090 C   0  0  0  0  0  0  0  0  0  0  0  0
  184.4050  179.2160  139.6400 C   0  0  0  0  0  0  0  0  0  0  0  0
  181.8920  177.9850  136.3750 C   0  0  0  0  0  2  0  0  0  0  0  0
  181.3820  176.5620  136.5690 C   0  0  0  0  0  2  0  0  0  0  0  0
  180.3510  176.4870  137.6840 C   0  0  0  0  0  2  0  0  0  0  0  0
  180.8800  175.8110  138.7830 O   0  0  0  0  0  1  0  0  0  0  0  0
  1  3  2  0  0  0  0
  2  6  1  0  0  0  0
  2  7  2  0  0  0  0
  3 14  1  0  0  0  0
  5  4  2  0  0  0  0
  5  3  1  0  0  0  0
  6  5  1  0  0  0  0
  7  1  1  0  0  0  0
  8 11  2  0  0  0  0
  9  8  1  0  0  0  0
 10 11  1  0  0  0  0
 12  9  1  0  0  0  0
 12 13  1  0  0  0  0
 13  1  1  6  0  0  0
 13 10  1  0  0  0  0
 14 16  1  0  0  0  0
 15 17  1  0  0  0  0
 16 15  2  0  0  0  0
 16 19  1  0  0  0  0
 17 22  1  0  0  0  0
 17 20  2  0  0  0  0
 18 20  1  0  0  0  0
 19 18  2  0  0  0  0
 22 21  1  0  0  0  0
 23 22  2  0  0  0  0
 24  7  1  0  0  0  0
 25 30  1  0  0  0  0
 26 30  2  0  0  0  0
 27 26  1  0  0  0  0
 28 25  2  0  0  0  0
 29 27  2  0  0  0  0
 29 28  1  0  0  0  0
 30 24  1  0  0  0  0
 31 32  1  0  0  0  0
 31 29  1  0  0  0  0
 32 33  1  0  0  0  0
 33 34  1  0  0  0  0
M  END
>  <MODEL>
5

>  <REMARK>
 VINA RESULT:      -8.0      3.185      5.119
  Name = 
  9 active torsions:
  status: ('A' for Active; 'I' for Inactive)
    1  A    between atoms: C_2  and  C_33
    2  A    between atoms: C_7  and  N_25
    3  A    between atoms: C_8  and  N_25
    4  A    between atoms: C_11  and  C_27
    5  A    between atoms: C_12  and  C_26
    6  A    between atoms: C_12  and  C_34
    7  A    between atoms: C_23  and  C_34
    8  A    between atoms: C_29  and  N_32
    9  A    between atoms: C_31  and  N_32
                            x       y       z     vdW  Elec       q    Type
                         _______ _______ _______ _____ _____    ______ ____

>  <TORSDO>
F 9

$$$$
=
 OpenBabel10222418183D

 34 37  0  0  1  0  0  0  0  0999 V2000
  185.9130  178.6670  141.8490 C   0  0  0  0  0  0  0  0  0  0  0  0
  187.9740  177.4700  141.7360 N   0  0  0  0  0  0  0  0  0  0  0  0
  186.0380  178.9680  140.4830 C   0  0  0  0  0  0  0  0  0  0  0  0
  187.2500  178.6280  138.5340 O   0  0  0  0  0  0  0  0  0  0  0  0
  187.1370  178.4520  139.7760 C   0  0  0  0  0  0  0  0  0  0  0  0
  188.0750  177.7260  140.4330 N   0  0  0  0  0  2  0  0  0  0  0  0
  186.9210  177.9100  142.4750 C   0  0  0  0  0  0  0  0  0  0  0  0
  182.8330  179.0100  144.7180 N   0  0  0  0  0  0  0  0  0  0  0  0
  184.2240  179.0030  145.1210 C   0  0  0  0  0  2  0  0  0  0  0  0
  183.5320  178.2180  142.5440 C   0  0  0  0  0  2  0  0  0  0  0  0
  182.4870  178.6410  143.5330 C   0  0  0  0  0  3  0  0  0  0  0  0
  185.1060  179.6380  144.0370 C   0  0  0  0  0  2  0  0  0  0  0  0
  184.7230  179.1840  142.6130 C   0  0  1  0  0  3  0  0  0  0  0  0
  185.0110  179.7300  139.8280 N   0  0  0  0  0  2  0  0  0  0  0  0
  182.7020  179.9780  139.0790 C   0  0  0  0  0  3  0  0  0  0  0  0
  183.8550  179.1930  139.1750 C   0  0  0  0  0  0  0  0  0  0  0  0
  181.5650  179.5000  138.4120 C   0  0  0  0  0  0  0  0  0  0  0  0
  182.7490  177.4410  137.9090 C   0  0  0  0  0  3  0  0  0  0  0  0
  183.8780  177.9250  138.5740 C   0  0  0  0  0  3  0  0  0  0  0  0
  181.5950  178.2250  137.8300 C   0  0  0  0  0  3  0  0  0  0  0  0
  180.3280  181.5910  138.9160 O   0  0  0  0  0  1  0  0  0  0  0  0
  180.3550  180.3330  138.3270 C   0  0  0  0  0  0  0  0  0  0  0  0
  179.3330  179.9150  137.7190 O   0  0  0  0  0  0  0  0  0  0  0  0
  186.8310  177.6100  143.8780 N   0  0  0  0  0  2  0  0  0  0  0  0
  189.2420  177.3240  144.3990 C   0  0  0  0  0  3  0  0  0  0  0  0
  187.6090  177.4310  146.1790 C   0  0  0  0  0  3  0  0  0  0  0  0
  188.6280  177.2800  147.1240 C   0  0  0  0  0  3  0  0  0  0  0  0
  190.2620  177.1730  145.3420 C   0  0  0  0  0  3  0  0  0  0  0  0
  189.9570  177.1490  146.7070 C   0  0  0  0  0  0  0  0  0  0  0  0
  187.9070  177.4540  144.8130 C   0  0  0  0  0  0  0  0  0  0  0  0
  191.0410  176.9850  147.7190 C   0  0  0  0  0  2  0  0  0  0  0  0
  191.8770  175.7390  147.4510 C   0  0  0  0  0  2  0  0  0  0  0  0
  193.0410  175.6300  148.4240 C   0  0  0  0  0  2  0  0  0  0  0  0
  193.1820  176.8190  149.1400 O   0  0  0  0  0  1  0  0  0  0  0  0
  1  7  1  0  0  0  0
  2  7  2  0  0  0  0
  3  1  2  0  0  0  0
  4  5  2  0  0  0  0
  5  6  1  0  0  0  0
  5  3  1  0  0  0  0
  6  2  1  0  0  0  0
  7 24  1  0  0  0  0
  8  9  1  0  0  0  0
 10 13  1  0  0  0  0
 10 11  1  0  0  0  0
 11  8  2  0  0  0  0
 12  9  1  0  0  0  0
 13  1  1  1  0  0  0
 13 12  1  0  0  0  0
 14  3  1  0  0  0  0
 15 16  1  0  0  0  0
 16 14  1  0  0  0  0
 17 15  2  0  0  0  0
 18 19  1  0  0  0  0
 19 16  2  0  0  0  0
 20 18  2  0  0  0  0
 20 17  1  0  0  0  0
 22 17  1  0  0  0  0
 22 21  1  0  0  0  0
 23 22  2  0  0  0  0
 24 30  1  0  0  0  0
 25 30  2  0  0  0  0
 25 28  1  0  0  0  0
 26 27  2  0  0  0  0
 28 29  2  0  0  0  0
 29 27  1  0  0  0  0
 29 31  1  0  0  0  0
 30 26  1  0  0  0  0
 32 31  1  0  0  0  0
 32 33  1  0  0  0  0
 33 34  1  0  0  0  0
M  END
>  <MODEL>
6

>  <REMARK>
 VINA RESULT:      -8.0      3.570      9.073
  Name = 
  9 active torsions:
  status: ('A' for Active; 'I' for Inactive)
    1  A    between atoms: C_2  and  C_33
    2  A    between atoms: C_7  and  N_25
    3  A    between atoms: C_8  and  N_25
    4  A    between atoms: C_11  and  C_27
    5  A    between atoms: C_12  and  C_26
    6  A    between atoms: C_12  and  C_34
    7  A    between atoms: C_23  and  C_34
    8  A    between atoms: C_29  and  N_32
    9  A    between atoms: C_31  and  N_32
                            x       y       z     vdW  Elec       q    Type
                         _______ _______ _______ _____ _____    ______ ____

>  <TORSDO>
F 9

$$$$
=
 OpenBabel10222418183D

 34 37  0  0  1  0  0  0  0  0999 V2000
  184.4660  178.2320  139.0410 C   0  0  0  0  0  0  0  0  0  0  0  0
  186.5340  178.6560  140.1540 N   0  0  0  0  0  0  0  0  0  0  0  0
  185.1840  177.9180  137.8750 C   0  0  0  0  0  0  0  0  0  0  0  0
  187.2750  177.5960  136.9220 O   0  0  0  0  0  0  0  0  0  0  0  0
  186.5880  177.9460  137.9180 C   0  0  0  0  0  0  0  0  0  0  0  0
  187.2160  178.3250  139.0590 N   0  0  0  0  0  2  0  0  0  0  0  0
  185.1750  178.6200  140.1930 C   0  0  0  0  0  0  0  0  0  0  0  0
  180.4280  178.5340  140.2370 N   0  0  0  0  0  0  0  0  0  0  0  0
  181.2810  179.7040  140.2060 C   0  0  0  0  0  2  0  0  0  0  0  0
  182.4120  177.1680  140.0420 C   0  0  0  0  0  2  0  0  0  0  0  0
  180.9290  177.3490  140.1730 C   0  0  0  0  0  3  0  0  0  0  0  0
  182.3300  179.5800  139.0930 C   0  0  0  0  0  2  0  0  0  0  0  0
  182.9630  178.1740  139.0200 C   0  0  1  0  0  3  0  0  0  0  0  0
  184.4740  177.5100  136.6940 N   0  0  0  0  0  2  0  0  0  0  0  0
  184.3790  175.0910  137.0010 C   0  0  0  0  0  3  0  0  0  0  0  0
  183.7920  176.2630  136.5150 C   0  0  0  0  0  0  0  0  0  0  0  0
  183.7230  173.8590  136.8780 C   0  0  0  0  0  0  0  0  0  0  0  0
  181.8600  174.9790  135.7960 C   0  0  0  0  0  3  0  0  0  0  0  0
  182.5200  176.2030  135.9230 C   0  0  0  0  0  3  0  0  0  0  0  0
  182.4600  173.8090  136.2700 C   0  0  0  0  0  3  0  0  0  0  0  0
  185.5650  172.6970  138.0680 O   0  0  0  0  0  1  0  0  0  0  0  0
  184.3560  172.6310  137.3850 C   0  0  0  0  0  0  0  0  0  0  0  0
  183.8100  171.5100  137.2070 O   0  0  0  0  0  0  0  0  0  0  0  0
  184.4660  178.9720  141.3930 N   0  0  0  0  0  2  0  0  0  0  0  0
  186.0340  178.0410  143.0780 C   0  0  0  0  0  3  0  0  0  0  0  0
  184.1230  179.3490  143.7750 C   0  0  0  0  0  3  0  0  0  0  0  0
  184.4990  179.1860  145.1110 C   0  0  0  0  0  3  0  0  0  0  0  0
  186.4110  177.8760  144.4130 C   0  0  0  0  0  3  0  0  0  0  0  0
  185.6420  178.4470  145.4330 C   0  0  0  0  0  0  0  0  0  0  0  0
  184.8860  178.7790  142.7500 C   0  0  0  0  0  0  0  0  0  0  0  0
  186.0360  178.2720  146.8620 C   0  0  0  0  0  2  0  0  0  0  0  0
  187.4560  177.7330  146.9910 C   0  0  0  0  0  2  0  0  0  0  0  0
  187.9470  177.7970  148.4290 C   0  0  0  0  0  2  0  0  0  0  0  0
  189.2640  178.2550  148.4680 O   0  0  0  0  0  1  0  0  0  0  0  0
  1  7  1  0  0  0  0
  2  7  2  0  0  0  0
  3  5  1  0  0  0  0
  3  1  2  0  0  0  0
  4  5  2  0  0  0  0
  5  6  1  0  0  0  0
  6  2  1  0  0  0  0
  7 24  1  0  0  0  0
  9  8  1  0  0  0  0
 10 11  1  0  0  0  0
 11  8  2  0  0  0  0
 12  9  1  0  0  0  0
 13  1  1  1  0  0  0
 13 12  1  0  0  0  0
 13 10  1  0  0  0  0
 14  3  1  0  0  0  0
 16 14  1  0  0  0  0
 16 15  2  0  0  0  0
 17 15  1  0  0  0  0
 17 22  1  0  0  0  0
 18 19  2  0  0  0  0
 18 20  1  0  0  0  0
 19 16  1  0  0  0  0
 20 17  2  0  0  0  0
 22 21  1  0  0  0  0
 23 22  2  0  0  0  0
 24 30  1  0  0  0  0
 25 28  1  0  0  0  0
 26 27  2  0  0  0  0
 27 29  1  0  0  0  0
 28 29  2  0  0  0  0
 29 31  1  0  0  0  0
 30 25  2  0  0  0  0
 30 26  1  0  0  0  0
 31 32  1  0  0  0  0
 32 33  1  0  0  0  0
 33 34  1  0  0  0  0
M  END
>  <MODEL>
7

>  <REMARK>
 VINA RESULT:      -7.9      3.975      9.624
  Name = 
  9 active torsions:
  status: ('A' for Active; 'I' for Inactive)
    1  A    between atoms: C_2  and  C_33
    2  A    between atoms: C_7  and  N_25
    3  A    between atoms: C_8  and  N_25
    4  A    between atoms: C_11  and  C_27
    5  A    between atoms: C_12  and  C_26
    6  A    between atoms: C_12  and  C_34
    7  A    between atoms: C_23  and  C_34
    8  A    between atoms: C_29  and  N_32
    9  A    between atoms: C_31  and  N_32
                            x       y       z     vdW  Elec       q    Type
                         _______ _______ _______ _____ _____    ______ ____

>  <TORSDO>
F 9

$$$$
=
 OpenBabel10222418183D

 34 37  0  0  1  0  0  0  0  0999 V2000
  189.1570  177.8520  141.1060 C   0  0  0  0  0  0  0  0  0  0  0  0
  187.0990  178.6000  140.1570 N   0  0  0  0  0  0  0  0  0  0  0  0
  189.7230  177.8510  139.8210 C   0  0  0  0  0  0  0  0  0  0  0  0
  189.4270  178.3710  137.5790 O   0  0  0  0  0  0  0  0  0  0  0  0
  188.9400  178.2800  138.7370 C   0  0  0  0  0  0  0  0  0  0  0  0
  187.6460  178.6310  138.9430 N   0  0  0  0  0  2  0  0  0  0  0  0
  187.8080  178.2260  141.2550 C   0  0  0  0  0  0  0  0  0  0  0  0
  190.5080  177.2860  145.0660 N   0  0  0  0  0  0  0  0  0  0  0  0
  189.2310  176.7550  144.6360 C   0  0  0  0  0  2  0  0  0  0  0  0
  190.5460  178.6320  143.0590 C   0  0  0  0  0  2  0  0  0  0  0  0
  191.1320  178.1640  144.3580 C   0  0  0  0  0  3  0  0  0  0  0  0
  189.2770  176.3730  143.1510 C   0  0  0  0  0  2  0  0  0  0  0  0
  189.9950  177.4280  142.2820 C   0  0  1  0  0  3  0  0  0  0  0  0
  191.1030  177.4830  139.6550 N   0  0  0  0  0  2  0  0  0  0  0  0
  190.7160  175.5540  138.2120 C   0  0  0  0  0  3  0  0  0  0  0  0
  191.6030  176.4900  138.7510 C   0  0  0  0  0  0  0  0  0  0  0  0
  191.1610  174.5930  137.2940 C   0  0  0  0  0  0  0  0  0  0  0  0
  193.3990  175.5240  137.4330 C   0  0  0  0  0  3  0  0  0  0  0  0
  192.9470  176.4800  138.3470 C   0  0  0  0  0  3  0  0  0  0  0  0
  192.5100  174.5820  136.9100 C   0  0  0  0  0  3  0  0  0  0  0  0
  188.9920  173.3900  137.3560 O   0  0  0  0  0  1  0  0  0  0  0  0
  190.2200  173.6070  136.7410 C   0  0  0  0  0  0  0  0  0  0  0  0
  190.5150  172.9510  135.7070 O   0  0  0  0  0  0  0  0  0  0  0  0
  187.1950  178.2120  142.5550 N   0  0  0  0  0  2  0  0  0  0  0  0
  184.8150  178.4460  141.8870 C   0  0  0  0  0  3  0  0  0  0  0  0
  185.4490  178.5580  144.2180 C   0  0  0  0  0  3  0  0  0  0  0  0
  184.1110  178.7490  144.5730 C   0  0  0  0  0  3  0  0  0  0  0  0
  183.4770  178.6370  142.2410 C   0  0  0  0  0  3  0  0  0  0  0  0
  183.1220  178.7920  143.5850 C   0  0  0  0  0  0  0  0  0  0  0  0
  185.8110  178.4050  142.8760 C   0  0  0  0  0  0  0  0  0  0  0  0
  181.6950  178.9990  143.9690 C   0  0  0  0  0  2  0  0  0  0  0  0
  180.7590  178.7950  142.7840 C   0  0  0  0  0  2  0  0  0  0  0  0
  179.6110  179.7920  142.8050 C   0  0  0  0  0  2  0  0  0  0  0  0
  179.9000  180.8750  141.9740 O   0  0  0  0  0  1  0  0  0  0  0  0
  1  7  1  0  0  0  0
  2  7  2  0  0  0  0
  3  1  2  0  0  0  0
  4  5  2  0  0  0  0
  5  6  1  0  0  0  0
  5  3  1  0  0  0  0
  6  2  1  0  0  0  0
  7 24  1  0  0  0  0
  9  8  1  0  0  0  0
 10 11  1  0  0  0  0
 11  8  2  0  0  0  0
 12  9  1  0  0  0  0
 13  1  1  6  0  0  0
 13 10  1  0  0  0  0
 13 12  1  0  0  0  0
 14  3  1  0  0  0  0
 15 16  1  0  0  0  0
 16 14  1  0  0  0  0
 17 15  2  0  0  0  0
 18 19  1  0  0  0  0
 19 16  2  0  0  0  0
 20 17  1  0  0  0  0
 20 18  2  0  0  0  0
 22 17  1  0  0  0  0
 22 21  1  0  0  0  0
 23 22  2  0  0  0  0
 24 30  1  0  0  0  0
 25 28  2  0  0  0  0
 25 30  1  0  0  0  0
 26 27  1  0  0  0  0
 28 29  1  0  0  0  0
 29 31  1  0  0  0  0
 29 27  2  0  0  0  0
 30 26  2  0  0  0  0
 32 33  1  0  0  0  0
 32 31  1  0  0  0  0
 34 33  1  0  0  0  0
M  END
>  <MODEL>
8

>  <REMARK>
 VINA RESULT:      -7.8      3.343      8.132
  Name = 
  9 active torsions:
  status: ('A' for Active; 'I' for Inactive)
    1  A    between atoms: C_2  and  C_33
    2  A    between atoms: C_7  and  N_25
    3  A    between atoms: C_8  and  N_25
    4  A    between atoms: C_11  and  C_27
    5  A    between atoms: C_12  and  C_26
    6  A    between atoms: C_12  and  C_34
    7  A    between atoms: C_23  and  C_34
    8  A    between atoms: C_29  and  N_32
    9  A    between atoms: C_31  and  N_32
                            x       y       z     vdW  Elec       q    Type
                         _______ _______ _______ _____ _____    ______ ____

>  <TORSDO>
F 9

$$$$
=
 OpenBabel10222418183D

 34 37  0  0  1  0  0  0  0  0999 V2000
  182.8270  178.9330  141.4520 C   0  0  0  0  0  0  0  0  0  0  0  0
  185.1750  179.2920  141.6660 N   0  0  0  0  0  0  0  0  0  0  0  0
  182.9570  179.0580  140.0600 C   0  0  0  0  0  0  0  0  0  0  0  0
  184.4140  179.2960  138.2690 O   0  0  0  0  0  0  0  0  0  0  0  0
  184.2370  179.2570  139.5160 C   0  0  0  0  0  0  0  0  0  0  0  0
  185.3040  179.3770  140.3440 N   0  0  0  0  0  2  0  0  0  0  0  0
  183.9720  179.0690  142.2580 C   0  0  0  0  0  0  0  0  0  0  0  0
  179.3290  179.3740  143.7780 N   0  0  0  0  0  0  0  0  0  0  0  0
  179.7220  180.3950  142.8280 C   0  0  0  0  0  2  0  0  0  0  0  0
  181.5390  178.4190  143.5570 C   0  0  0  0  0  2  0  0  0  0  0  0
  180.1560  178.4540  144.1390 C   0  0  0  0  0  3  0  0  0  0  0  0
  180.4490  179.7690  141.6300 C   0  0  0  0  0  2  0  0  0  0  0  0
  181.4660  178.6850  142.0470 C   0  0  1  0  0  3  0  0  0  0  0  0
  181.7970  178.9100  139.2230 N   0  0  0  0  0  2  0  0  0  0  0  0
  181.4270  181.1670  138.3730 C   0  0  0  0  0  3  0  0  0  0  0  0
  181.4160  179.7860  138.1560 C   0  0  0  0  0  0  0  0  0  0  0  0
  181.0980  182.0560  137.3400 C   0  0  0  0  0  0  0  0  0  0  0  0
  180.7680  180.1700  135.8470 C   0  0  0  0  0  3  0  0  0  0  0  0
  181.0970  179.2900  136.8820 C   0  0  0  0  0  3  0  0  0  0  0  0
  180.7660  181.5480  136.0760 C   0  0  0  0  0  3  0  0  0  0  0  0
  182.3040  184.2100  137.5950 O   0  0  0  0  0  0  0  0  0  0  0  0
  181.1050  183.5060  137.5840 C   0  0  0  0  0  0  0  0  0  0  0  0
  180.0260  184.1260  137.7860 O   0  0  0  0  0  1  0  0  0  0  0  0
  183.8640  178.9710  143.6880 N   0  0  0  0  0  2  0  0  0  0  0  0
  184.8290  178.9930  145.9760 C   0  0  0  0  0  3  0  0  0  0  0  0
  185.9870  177.8770  144.1690 C   0  0  0  0  0  3  0  0  0  0  0  0
  187.0090  177.5130  145.0490 C   0  0  0  0  0  3  0  0  0  0  0  0
  185.8510  178.6300  146.8570 C   0  0  0  0  0  3  0  0  0  0  0  0
  186.9450  177.8910  146.3940 C   0  0  0  0  0  0  0  0  0  0  0  0
  184.8910  178.6180  144.6240 C   0  0  0  0  0  0  0  0  0  0  0  0
  188.0420  177.5030  147.3290 C   0  0  0  0  0  2  0  0  0  0  0  0
  189.3170  177.1350  146.5780 C   0  0  0  0  0  2  0  0  0  0  0  0
  190.5140  177.0730  147.5130 C   0  0  0  0  0  2  0  0  0  0  0  0
  191.6940  176.9630  146.7760 O   0  0  0  0  0  1  0  0  0  0  0  0
  1  7  1  0  0  0  0
  2  7  2  0  0  0  0
  3  1  2  0  0  0  0
  4  5  2  0  0  0  0
  5  3  1  0  0  0  0
  5  6  1  0  0  0  0
  6  2  1  0  0  0  0
  7 24  1  0  0  0  0
  8 11  2  0  0  0  0
  9  8  1  0  0  0  0
 10 11  1  0  0  0  0
 12 13  1  0  0  0  0
 12  9  1  0  0  0  0
 13  1  1  1  0  0  0
 13 10  1  0  0  0  0
 14  3  1  0  0  0  0
 16 15  1  0  0  0  0
 16 14  1  0  0  0  0
 17 22  1  0  0  0  0
 17 15  2  0  0  0  0
 18 20  2  0  0  0  0
 18 19  1  0  0  0  0
 19 16  2  0  0  0  0
 20 17  1  0  0  0  0
 22 21  2  0  0  0  0
 22 23  1  0  0  0  0
 24 30  1  0  0  0  0
 25 28  1  0  0  0  0
 26 30  1  0  0  0  0
 26 27  2  0  0  0  0
 27 29  1  0  0  0  0
 29 28  2  0  0  0  0
 29 31  1  0  0  0  0
 30 25  2  0  0  0  0
 32 31  1  0  0  0  0
 32 33  1  0  0  0  0
 34 33  1  0  0  0  0
M  END
>  <MODEL>
9

>  <REMARK>
 VINA RESULT:      -7.7      4.985     10.136
  Name = 
  9 active torsions:
  status: ('A' for Active; 'I' for Inactive)
    1  A    between atoms: C_2  and  C_33
    2  A    between atoms: C_7  and  N_25
    3  A    between atoms: C_8  and  N_25
    4  A    between atoms: C_11  and  C_27
    5  A    between atoms: C_12  and  C_26
    6  A    between atoms: C_12  and  C_34
    7  A    between atoms: C_23  and  C_34
    8  A    between atoms: C_29  and  N_32
    9  A    between atoms: C_31  and  N_32
                            x       y       z     vdW  Elec       q    Type
                         _______ _______ _______ _____ _____    ______ ____

>  <TORSDO>
F 9

$$$$
