=
 OpenBabel10222416593D

 40 41  0  0  1  0  0  0  0  0999 V2000
  189.6270  177.9160  143.2570 C   0  0  0  0  0  0  0  0  0  0  0  0
  190.9390  177.7400  139.7900 O   0  0  0  0  0  0  0  0  0  0  0  0
  188.6330  178.1570  140.2510 C   0  0  0  0  0  0  0  0  0  0  0  0
  188.2300  178.1850  138.8110 C   0  0  0  0  0  2  0  0  0  0  0  0
  187.2360  178.0850  142.3650 C   0  0  0  0  0  0  0  0  0  0  0  0
  190.3610  177.9290  142.1040 C   0  0  0  0  0  3  0  0  0  0  0  0
  188.0760  175.9440  143.3270 C   0  0  0  0  0  1  0  0  0  0  0  0
  189.0760  176.1060  137.8090 N   0  0  0  0  0  0  0  0  0  0  0  0
  188.0840  176.7930  138.2670 C   0  0  0  0  0  3  0  0  0  0  0  0
  189.9140  177.4970  140.7080 C   0  0  2  0  0  3  0  0  0  0  0  0
  191.1160  176.5320  139.1080 C   0  0  0  0  0  2  0  0  0  0  0  0
  190.4370  176.5980  137.7420 C   0  0  1  0  0  3  0  0  0  0  0  0
  188.1690  177.4610  143.3760 C   0  0  1  0  0  3  0  0  0  0  0  0
  187.7390  178.1970  141.1780 C   0  0  0  0  0  0  0  0  0  0  0  0
  182.9570  178.8110  142.8550 O   0  0  0  0  0  0  0  0  0  0  0  0
  185.4420  178.5270  143.8480 O   0  0  0  0  0  0  0  0  0  0  0  0
  183.4770  178.6710  141.7150 C   0  0  0  0  0  0  0  0  0  0  0  0
  184.8810  178.4300  141.5770 N   0  0  0  0  0  2  0  0  0  0  0  0
  182.6690  178.7510  140.5360 N   0  0  0  0  0  2  0  0  0  0  0  0
  185.8200  178.3580  142.6570 C   0  0  0  0  0  0  0  0  0  0  0  0
  180.8770  179.6680  141.7040 O   0  0  0  0  0  1  0  0  0  0  0  0
  180.5230  177.6360  140.5430 C   0  0  0  0  0  1  0  0  0  0  0  0
  181.2270  178.9850  140.5370 C   0  0  2  0  0  0  0  0  0  0  0  0
  181.9910  180.1050  138.3800 C   0  0  0  0  0  1  0  0  0  0  0  0
  180.8170  179.8190  139.3070 C   0  0  0  0  0  3  0  0  0  0  0  0
  180.1430  181.1280  139.6910 C   0  0  0  0  0  1  0  0  0  0  0  0
  190.2670  178.4010  144.5240 C   0  0  2  0  0  3  0  0  0  0  0  0
  191.0670  179.5170  144.2670 O   0  0  0  0  0  1  0  0  0  0  0  0
  191.0860  177.2940  145.1770 C   0  0  0  0  0  2  0  0  0  0  0  0
  190.7430  177.1570  146.6500 C   0  0  0  0  0  2  0  0  0  0  0  0
  189.2440  177.0070  146.8350 C   0  0  0  0  0  2  0  0  0  0  0  0
  189.6230  178.3410  148.7650 O   0  0  0  0  0  0  0  0  0  0  0  0
  188.7800  177.8900  147.9470 C   0  0  0  0  0  0  0  0  0  0  0  0
  187.4390  178.2550  148.0820 O   0  0  0  0  0  0  0  0  0  0  0  0
  186.5430  178.2760  146.9810 C   0  0  0  0  0  1  0  0  0  0  0  0
  191.2320  175.8110  136.7030 C   0  0  0  0  0  2  0  0  0  0  0  0
  192.4680  175.1480  137.2980 C   0  0  0  0  0  2  0  0  0  0  0  0
  193.6910  175.6830  136.6390 C   0  0  0  0  0  0  0  0  0  0  0  0
  194.3390  174.9310  135.6680 O   0  0  0  0  0  0  0  0  0  0  0  0
  194.1180  176.8280  136.9350 O   0  0  0  0  0  1  0  0  0  0  0  0
  1 13  1  0  0  0  0
  1 27  1  0  0  0  0
  2 10  1  0  0  0  0
  3 10  1  0  0  0  0
  3 14  2  0  0  0  0
  4  3  1  0  0  0  0
  5 20  1  0  0  0  0
  5 13  1  0  0  0  0
  6  1  2  0  0  0  0
  8  9  2  0  0  0  0
  9  4  1  0  0  0  0
 10  6  1  1  0  0  0
 11  2  1  0  0  0  0
 12 36  1  6  0  0  0
 12  8  1  0  0  0  0
 12 11  1  0  0  0  0
 13  7  1  6  0  0  0
 14  5  2  0  0  0  0
 17 15  2  0  0  0  0
 18 17  1  0  0  0  0
 18 20  1  0  0  0  0
 19 23  1  0  0  0  0
 19 17  1  0  0  0  0
 20 16  2  0  0  0  0
 23 22  1  6  0  0  0
 23 21  1  0  0  0  0
 24 25  1  0  0  0  0
 25 26  1  0  0  0  0
 25 23  1  0  0  0  0
 27 28  1  6  0  0  0
 27 29  1  0  0  0  0
 29 30  1  0  0  0  0
 30 31  1  0  0  0  0
 31 33  1  0  0  0  0
 33 34  1  0  0  0  0
 33 32  2  0  0  0  0
 35 34  1  0  0  0  0
 36 37  1  0  0  0  0
 38 40  1  0  0  0  0
 38 37  1  0  0  0  0
 39 38  2  0  0  0  0
M  END
>  <MODEL>
1

>  <REMARK>
 VINA RESULT:      -8.2      0.000      0.000
  Name = 
  12 active torsions:
  status: ('A' for Active; 'I' for Inactive)
    1  A    between atoms: C_1  and  C_25
    2  A    between atoms: C_2  and  C_12
    3  A    between atoms: C_2  and  C_38
    4  A    between atoms: C_4  and  C_12
    5  A    between atoms: C_8  and  C_37
    6  A    between atoms: O_11  and  C_33
    7  A    between atoms: C_15  and  C_23
    8  A    between atoms: C_15  and  C_33
    9  A    between atoms: C_20  and  C_29
   10  A    between atoms: C_22  and  C_23
   11  A    between atoms: C_22  and  C_25
   12  A    between atoms: C_29  and  N_35
                            x       y       z     vdW  Elec       q    Type
                         _______ _______ _______ _____ _____    ______ ____

>  <TORSDO>
F 12

$$$$
=
 OpenBabel10222416593D

 40 41  0  0  1  0  0  0  0  0999 V2000
  188.8380  177.8840  137.8430 C   0  0  0  0  0  0  0  0  0  0  0  0
  188.4610  178.6810  141.4470 O   0  0  0  0  0  0  0  0  0  0  0  0
  190.1440  177.1850  140.6510 C   0  0  0  0  0  0  0  0  0  0  0  0
  190.6570  176.8520  142.0160 C   0  0  0  0  0  2  0  0  0  0  0  0
  190.6100  176.1260  138.3960 C   0  0  0  0  0  0  0  0  0  0  0  0
  188.5810  178.4240  139.0710 C   0  0  0  0  0  3  0  0  0  0  0  0
  188.2930  175.4350  137.7920 C   0  0  0  0  0  1  0  0  0  0  0  0
  188.7090  176.1480  143.3400 N   0  0  0  0  0  0  0  0  0  0  0  0
  189.7770  175.8360  142.6860 C   0  0  0  0  0  3  0  0  0  0  0  0
  188.7630  177.7640  140.4370 C   0  0  2  0  0  3  0  0  0  0  0  0
  187.5430  178.0270  142.2750 C   0  0  0  0  0  2  0  0  0  0  0  0
  188.2450  177.5070  143.5270 C   0  0  1  0  0  3  0  0  0  0  0  0
  189.3830  176.4760  137.5880 C   0  0  1  0  0  3  0  0  0  0  0  0
  190.5790  176.5500  139.6180 C   0  0  0  0  0  0  0  0  0  0  0  0
  193.9720  173.7220  136.9810 O   0  0  0  0  0  0  0  0  0  0  0  0
  191.3890  174.0050  137.6820 O   0  0  0  0  0  0  0  0  0  0  0  0
  194.0870  174.9600  137.1920 C   0  0  0  0  0  0  0  0  0  0  0  0
  192.9740  175.7280  137.6590 N   0  0  0  0  0  2  0  0  0  0  0  0
  195.3370  175.6200  136.9660 N   0  0  0  0  0  2  0  0  0  0  0  0
  191.6560  175.2190  137.8970 C   0  0  0  0  0  0  0  0  0  0  0  0
  197.5200  175.9170  136.2140 O   0  0  0  0  0  1  0  0  0  0  0  0
  196.2220  174.2120  135.2090 C   0  0  0  0  0  1  0  0  0  0  0  0
  196.5500  174.9530  136.4970 C   0  0  2  0  0  0  0  0  0  0  0  0
  198.3480  174.4990  138.2460 C   0  0  0  0  0  1  0  0  0  0  0  0
  197.0810  173.9850  137.5740 C   0  0  0  0  0  3  0  0  0  0  0  0
  197.3270  172.5870  137.0270 C   0  0  0  0  0  1  0  0  0  0  0  0
  188.5960  178.7230  136.6220 C   0  0  2  0  0  3  0  0  0  0  0  0
  187.5940  179.6650  136.8710 O   0  0  0  0  0  1  0  0  0  0  0  0
  188.2260  177.8510  135.4290 C   0  0  0  0  0  2  0  0  0  0  0  0
  186.7660  178.0330  135.0520 C   0  0  0  0  0  2  0  0  0  0  0  0
  185.9630  176.8010  135.4260 C   0  0  0  0  0  2  0  0  0  0  0  0
  183.7460  177.3010  136.1210 O   0  0  0  0  0  0  0  0  0  0  0  0
  184.9480  177.1540  136.4640 C   0  0  0  0  0  0  0  0  0  0  0  0
  185.2940  177.2910  137.8100 O   0  0  0  0  0  0  0  0  0  0  0  0
  184.8770  178.4000  138.5920 C   0  0  0  0  0  1  0  0  0  0  0  0
  187.3210  177.5870  144.7390 C   0  0  0  0  0  2  0  0  0  0  0  0
  185.9400  178.1260  144.3830 C   0  0  0  0  0  2  0  0  0  0  0  0
  185.2700  178.6370  145.6090 C   0  0  0  0  0  0  0  0  0  0  0  0
  183.9690  179.1170  145.5380 O   0  0  0  0  0  0  0  0  0  0  0  0
  185.8670  178.6040  146.7160 O   0  0  0  0  0  1  0  0  0  0  0  0
  1  6  2  0  0  0  0
  2 11  1  0  0  0  0
  3  4  1  0  0  0  0
  4  9  1  0  0  0  0
  5 14  2  0  0  0  0
  8 12  1  0  0  0  0
  9  8  2  0  0  0  0
 10  6  1  6  0  0  0
 10  3  1  0  0  0  0
 10  2  1  0  0  0  0
 11 12  1  0  0  0  0
 12 36  1  1  0  0  0
 13  7  1  1  0  0  0
 13  1  1  0  0  0  0
 13  5  1  0  0  0  0
 14  3  2  0  0  0  0
 15 17  2  0  0  0  0
 16 20  2  0  0  0  0
 17 18  1  0  0  0  0
 18 20  1  0  0  0  0
 19 17  1  0  0  0  0
 20  5  1  0  0  0  0
 21 23  1  0  0  0  0
 23 22  1  6  0  0  0
 23 19  1  0  0  0  0
 23 25  1  0  0  0  0
 25 24  1  0  0  0  0
 26 25  1  0  0  0  0
 27 28  1  1  0  0  0
 27  1  1  0  0  0  0
 29 27  1  0  0  0  0
 30 31  1  0  0  0  0
 30 29  1  0  0  0  0
 31 33  1  0  0  0  0
 32 33  2  0  0  0  0
 33 34  1  0  0  0  0
 34 35  1  0  0  0  0
 37 36  1  0  0  0  0
 37 38  1  0  0  0  0
 38 40  1  0  0  0  0
 39 38  2  0  0  0  0
M  END
>  <MODEL>
2

>  <REMARK>
 VINA RESULT:      -8.0      3.158     10.845
  Name = 
  12 active torsions:
  status: ('A' for Active; 'I' for Inactive)
    1  A    between atoms: C_1  and  C_25
    2  A    between atoms: C_2  and  C_12
    3  A    between atoms: C_2  and  C_38
    4  A    between atoms: C_4  and  C_12
    5  A    between atoms: C_8  and  C_37
    6  A    between atoms: O_11  and  C_33
    7  A    between atoms: C_15  and  C_23
    8  A    between atoms: C_15  and  C_33
    9  A    between atoms: C_20  and  C_29
   10  A    between atoms: C_22  and  C_23
   11  A    between atoms: C_22  and  C_25
   12  A    between atoms: C_29  and  N_35
                            x       y       z     vdW  Elec       q    Type
                         _______ _______ _______ _____ _____    ______ ____

>  <TORSDO>
F 12

$$$$
=
 OpenBabel10222416593D

 40 41  0  0  1  0  0  0  0  0999 V2000
  186.7880  178.2830  145.4560 C   0  0  0  0  0  0  0  0  0  0  0  0
  190.1120  177.7700  147.0220 O   0  0  0  0  0  0  0  0  0  0  0  0
  189.8560  178.0770  144.6680 C   0  0  0  0  0  0  0  0  0  0  0  0
  191.3110  177.8970  144.3690 C   0  0  0  0  0  2  0  0  0  0  0  0
  187.8440  178.1700  143.1300 C   0  0  0  0  0  0  0  0  0  0  0  0
  187.8840  178.2050  146.2690 C   0  0  0  0  0  3  0  0  0  0  0  0
  186.5630  176.2300  144.0300 C   0  0  0  0  0  1  0  0  0  0  0  0
  191.9800  175.7750  145.4120 N   0  0  0  0  0  0  0  0  0  0  0  0
  191.6790  176.4410  144.3490 C   0  0  0  0  0  3  0  0  0  0  0  0
  189.2370  177.5710  145.9510 C   0  0  2  0  0  3  0  0  0  0  0  0
  190.6200  176.5020  147.3230 C   0  0  0  0  0  2  0  0  0  0  0  0
  192.0240  176.3500  146.7410 C   0  0  1  0  0  3  0  0  0  0  0  0
  186.7030  177.7440  144.0250 C   0  0  1  0  0  3  0  0  0  0  0  0
  189.0010  178.1690  143.7090 C   0  0  0  0  0  0  0  0  0  0  0  0
  187.6080  178.4850  138.7790 O   0  0  0  0  0  0  0  0  0  0  0  0
  186.7910  179.1620  141.2520 O   0  0  0  0  0  0  0  0  0  0  0  0
  188.4810  177.7710  139.3440 C   0  0  0  0  0  0  0  0  0  0  0  0
  188.5380  177.6780  140.7710 N   0  0  0  0  0  2  0  0  0  0  0  0
  189.4320  177.0380  138.5640 N   0  0  0  0  0  2  0  0  0  0  0  0
  187.6800  178.3770  141.6820 C   0  0  0  0  0  0  0  0  0  0  0  0
  189.3860  178.3550  136.6460 O   0  0  0  0  0  1  0  0  0  0  0  0
  188.2750  176.2660  136.5850 C   0  0  0  0  0  1  0  0  0  0  0  0
  189.4790  177.0390  137.1040 C   0  0  2  0  0  0  0  0  0  0  0  0
  190.6000  175.0090  136.0480 C   0  0  0  0  0  1  0  0  0  0  0  0
  190.7970  176.4110  136.6080 C   0  0  0  0  0  3  0  0  0  0  0  0
  191.8680  176.3810  137.6890 C   0  0  0  0  0  1  0  0  0  0  0  0
  185.5550  178.9650  145.9720 C   0  0  2  0  0  3  0  0  0  0  0  0
  184.8060  178.0850  146.7580 O   0  0  0  0  0  1  0  0  0  0  0  0
  184.7140  179.5060  144.8230 C   0  0  0  0  0  2  0  0  0  0  0  0
  183.2870  178.9900  144.9020 C   0  0  0  0  0  2  0  0  0  0  0  0
  182.7380  178.7290  143.5110 C   0  0  0  0  0  2  0  0  0  0  0  0
  180.4790  178.2230  144.0470 O   0  0  0  0  0  0  0  0  0  0  0  0
  181.2730  179.0190  143.4820 C   0  0  0  0  0  0  0  0  0  0  0  0
  180.7660  180.1680  142.8730 O   0  0  0  0  0  0  0  0  0  0  0  0
  179.3760  180.3640  142.6570 C   0  0  0  0  0  1  0  0  0  0  0  0
  192.9000  175.4980  147.6560 C   0  0  0  0  0  2  0  0  0  0  0  0
  192.6380  175.7720  149.1320 C   0  0  0  0  0  2  0  0  0  0  0  0
  193.4000  176.9760  149.5620 C   0  0  0  0  0  0  0  0  0  0  0  0
  192.7710  178.2130  149.6100 O   0  0  0  0  0  0  0  0  0  0  0  0
  194.6020  176.8690  149.9150 O   0  0  0  0  0  1  0  0  0  0  0  0
  1 27  1  0  0  0  0
  1  6  2  0  0  0  0
  2 11  1  0  0  0  0
  3 10  1  0  0  0  0
  4  3  1  0  0  0  0
  5 14  2  0  0  0  0
  5 13  1  0  0  0  0
  8 12  1  0  0  0  0
  9  4  1  0  0  0  0
  9  8  2  0  0  0  0
 10  6  1  1  0  0  0
 10  2  1  0  0  0  0
 12 11  1  0  0  0  0
 12 36  1  1  0  0  0
 13  7  1  1  0  0  0
 13  1  1  0  0  0  0
 14  3  2  0  0  0  0
 15 17  2  0  0  0  0
 16 20  2  0  0  0  0
 17 18  1  0  0  0  0
 18 20  1  0  0  0  0
 19 17  1  0  0  0  0
 20  5  1  0  0  0  0
 21 23  1  0  0  0  0
 23 22  1  6  0  0  0
 23 19  1  0  0  0  0
 24 25  1  0  0  0  0
 25 23  1  0  0  0  0
 25 26  1  0  0  0  0
 27 28  1  6  0  0  0
 29 30  1  0  0  0  0
 29 27  1  0  0  0  0
 31 30  1  0  0  0  0
 33 31  1  0  0  0  0
 33 32  2  0  0  0  0
 34 33  1  0  0  0  0
 35 34  1  0  0  0  0
 36 37  1  0  0  0  0
 37 38  1  0  0  0  0
 38 39  2  0  0  0  0
 38 40  1  0  0  0  0
M  END
>  <MODEL>
3

>  <REMARK>
 VINA RESULT:      -7.7      2.651      8.121
  Name = 
  12 active torsions:
  status: ('A' for Active; 'I' for Inactive)
    1  A    between atoms: C_1  and  C_25
    2  A    between atoms: C_2  and  C_12
    3  A    between atoms: C_2  and  C_38
    4  A    between atoms: C_4  and  C_12
    5  A    between atoms: C_8  and  C_37
    6  A    between atoms: O_11  and  C_33
    7  A    between atoms: C_15  and  C_23
    8  A    between atoms: C_15  and  C_33
    9  A    between atoms: C_20  and  C_29
   10  A    between atoms: C_22  and  C_23
   11  A    between atoms: C_22  and  C_25
   12  A    between atoms: C_29  and  N_35
                            x       y       z     vdW  Elec       q    Type
                         _______ _______ _______ _____ _____    ______ ____

>  <TORSDO>
F 12

$$$$
=
 OpenBabel10222416593D

 40 41  0  0  1  0  0  0  0  0999 V2000
  189.4060  177.9950  138.0640 C   0  0  0  0  0  0  0  0  0  0  0  0
  188.2510  178.5500  141.5470 O   0  0  0  0  0  0  0  0  0  0  0  0
  190.4090  177.6520  141.0570 C   0  0  0  0  0  0  0  0  0  0  0  0
  190.7800  177.4540  142.4920 C   0  0  0  0  0  2  0  0  0  0  0  0
  191.5180  176.8390  138.9280 C   0  0  0  0  0  0  0  0  0  0  0  0
  188.8110  178.4010  139.2260 C   0  0  0  0  0  3  0  0  0  0  0  0
  189.6400  175.4980  137.9860 C   0  0  0  0  0  1  0  0  0  0  0  0
  188.9550  176.1630  143.5140 N   0  0  0  0  0  0  0  0  0  0  0  0
  190.1550  176.2030  143.0410 C   0  0  0  0  0  3  0  0  0  0  0  0
  188.9690  177.7920  140.6180 C   0  0  2  0  0  3  0  0  0  0  0  0
  187.4560  177.6290  142.2370 C   0  0  0  0  0  2  0  0  0  0  0  0
  188.0790  177.3130  143.5940 C   0  0  1  0  0  3  0  0  0  0  0  0
  190.3830  176.8230  137.9300 C   0  0  1  0  0  3  0  0  0  0  0  0
  191.1700  177.2040  140.1190 C   0  0  0  0  0  0  0  0  0  0  0  0
  195.3050  175.0140  137.7430 O   0  0  0  0  0  0  0  0  0  0  0  0
  193.8810  176.8530  139.0960 O   0  0  0  0  0  0  0  0  0  0  0  0
  194.1970  174.5370  137.3730 C   0  0  0  0  0  0  0  0  0  0  0  0
  192.9680  175.1530  137.7700 N   0  0  0  0  0  2  0  0  0  0  0  0
  194.1510  173.3680  136.5490 N   0  0  0  0  0  2  0  0  0  0  0  0
  192.8520  176.3030  138.6180 C   0  0  0  0  0  0  0  0  0  0  0  0
  196.2200  172.4740  137.1300 O   0  0  0  0  0  1  0  0  0  0  0  0
  196.0100  173.4990  135.0070 C   0  0  0  0  0  1  0  0  0  0  0  0
  195.3290  172.6480  136.0690 C   0  0  2  0  0  0  0  0  0  0  0  0
  193.5220  170.8560  135.9300 C   0  0  0  0  0  1  0  0  0  0  0  0
  194.9240  171.2720  135.5020 C   0  0  0  0  0  3  0  0  0  0  0  0
  195.9140  170.1780  135.8710 C   0  0  0  0  0  1  0  0  0  0  0  0
  189.1150  178.7520  136.8020 C   0  0  2  0  0  3  0  0  0  0  0  0
  188.3770  179.9050  137.0870 O   0  0  0  0  0  1  0  0  0  0  0  0
  188.3730  177.8750  135.8020 C   0  0  0  0  0  2  0  0  0  0  0  0
  186.8750  178.1210  135.8660 C   0  0  0  0  0  2  0  0  0  0  0  0
  186.1750  176.9620  136.5510 C   0  0  0  0  0  2  0  0  0  0  0  0
  184.2350  176.8190  137.9160 O   0  0  0  0  0  0  0  0  0  0  0  0
  185.2630  177.4790  137.6150 C   0  0  0  0  0  0  0  0  0  0  0  0
  185.5400  178.6600  138.3070 O   0  0  0  0  0  0  0  0  0  0  0  0
  184.9290  178.9740  139.5490 C   0  0  0  0  0  1  0  0  0  0  0  0
  186.9970  177.0800  144.6460 C   0  0  0  0  0  2  0  0  0  0  0  0
  187.0930  178.0640  145.8050 C   0  0  0  0  0  2  0  0  0  0  0  0
  185.8230  178.8300  145.9200 C   0  0  0  0  0  0  0  0  0  0  0  0
  185.4120  179.3110  147.1560 O   0  0  0  0  0  1  0  0  0  0  0  0
  185.1370  179.0730  144.8930 O   0  0  0  0  0  0  0  0  0  0  0  0
  1  6  2  0  0  0  0
  2 11  1  0  0  0  0
  3  4  1  0  0  0  0
  4  9  1  0  0  0  0
  5 14  2  0  0  0  0
  8 12  1  0  0  0  0
  9  8  2  0  0  0  0
 10  6  1  6  0  0  0
 10  3  1  0  0  0  0
 10  2  1  0  0  0  0
 11 12  1  0  0  0  0
 12 36  1  1  0  0  0
 13  7  1  1  0  0  0
 13  1  1  0  0  0  0
 13  5  1  0  0  0  0
 14  3  2  0  0  0  0
 17 15  2  0  0  0  0
 17 18  1  0  0  0  0
 18 20  1  0  0  0  0
 19 17  1  0  0  0  0
 20  5  1  0  0  0  0
 20 16  2  0  0  0  0
 23 22  1  6  0  0  0
 23 19  1  0  0  0  0
 23 21  1  0  0  0  0
 25 26  1  0  0  0  0
 25 24  1  0  0  0  0
 25 23  1  0  0  0  0
 27 28  1  1  0  0  0
 27  1  1  0  0  0  0
 29 30  1  0  0  0  0
 29 27  1  0  0  0  0
 30 31  1  0  0  0  0
 31 33  1  0  0  0  0
 33 32  2  0  0  0  0
 33 34  1  0  0  0  0
 34 35  1  0  0  0  0
 36 37  1  0  0  0  0
 37 38  1  0  0  0  0
 38 39  1  0  0  0  0
 40 38  2  0  0  0  0
M  END
>  <MODEL>
4

>  <REMARK>
 VINA RESULT:      -7.7      3.021     10.556
  Name = 
  12 active torsions:
  status: ('A' for Active; 'I' for Inactive)
    1  A    between atoms: C_1  and  C_25
    2  A    between atoms: C_2  and  C_12
    3  A    between atoms: C_2  and  C_38
    4  A    between atoms: C_4  and  C_12
    5  A    between atoms: C_8  and  C_37
    6  A    between atoms: O_11  and  C_33
    7  A    between atoms: C_15  and  C_23
    8  A    between atoms: C_15  and  C_33
    9  A    between atoms: C_20  and  C_29
   10  A    between atoms: C_22  and  C_23
   11  A    between atoms: C_22  and  C_25
   12  A    between atoms: C_29  and  N_35
                            x       y       z     vdW  Elec       q    Type
                         _______ _______ _______ _____ _____    ______ ____

>  <TORSDO>
F 12

$$$$
=
 OpenBabel10222416593D

 40 41  0  0  1  0  0  0  0  0999 V2000
  189.2670  177.9560  137.9750 C   0  0  0  0  0  0  0  0  0  0  0  0
  188.2540  178.5130  141.5010 O   0  0  0  0  0  0  0  0  0  0  0  0
  190.3920  177.6190  140.9250 C   0  0  0  0  0  0  0  0  0  0  0  0
  190.8220  177.4250  142.3440 C   0  0  0  0  0  2  0  0  0  0  0  0
  191.4150  176.8060  138.7530 C   0  0  0  0  0  0  0  0  0  0  0  0
  188.7190  178.3620  139.1590 C   0  0  0  0  0  3  0  0  0  0  0  0
  189.5030  175.4590  137.8910 C   0  0  0  0  0  1  0  0  0  0  0  0
  189.0430  176.1310  143.4410 N   0  0  0  0  0  0  0  0  0  0  0  0
  190.2230  176.1740  142.9200 C   0  0  0  0  0  3  0  0  0  0  0  0
  188.9350  177.7560  140.5450 C   0  0  2  0  0  3  0  0  0  0  0  0
  187.4900  177.5920  142.2240 C   0  0  0  0  0  2  0  0  0  0  0  0
  188.1680  177.2800  143.5560 C   0  0  1  0  0  3  0  0  0  0  0  0
  190.2400  176.7850  137.8030 C   0  0  1  0  0  3  0  0  0  0  0  0
  191.1160  177.1720  139.9580 C   0  0  0  0  0  0  0  0  0  0  0  0
  195.1510  174.9330  137.4830 O   0  0  0  0  0  0  0  0  0  0  0  0
  193.7770  176.9470  138.6230 O   0  0  0  0  0  0  0  0  0  0  0  0
  194.0410  174.3490  137.3530 C   0  0  0  0  0  0  0  0  0  0  0  0
  192.8280  174.9820  137.7720 N   0  0  0  0  0  2  0  0  0  0  0  0
  193.9750  173.0380  136.7810 N   0  0  0  0  0  2  0  0  0  0  0  0
  192.7370  176.2720  138.3900 C   0  0  0  0  0  0  0  0  0  0  0  0
  195.8800  173.0900  135.4430 O   0  0  0  0  0  1  0  0  0  0  0  0
  194.6340  171.0790  135.5240 C   0  0  0  0  0  1  0  0  0  0  0  0
  195.1340  172.2840  136.3070 C   0  0  2  0  0  0  0  0  0  0  0  0
  197.4980  172.0670  137.2350 C   0  0  0  0  0  1  0  0  0  0  0  0
  196.0130  171.8480  137.4960 C   0  0  0  0  0  3  0  0  0  0  0  0
  195.7760  170.3980  137.8930 C   0  0  0  0  0  1  0  0  0  0  0  0
  188.9230  178.7100  136.7250 C   0  0  2  0  0  3  0  0  0  0  0  0
  187.9600  179.6860  136.9960 O   0  0  0  0  0  1  0  0  0  0  0  0
  188.4330  177.7630  135.6370 C   0  0  0  0  0  2  0  0  0  0  0  0
  186.9520  177.4670  135.7980 C   0  0  0  0  0  2  0  0  0  0  0  0
  186.7030  175.9700  135.7690 C   0  0  0  0  0  2  0  0  0  0  0  0
  185.0930  176.5110  137.4310 O   0  0  0  0  0  0  0  0  0  0  0  0
  185.7180  175.6000  136.8290 C   0  0  0  0  0  0  0  0  0  0  0  0
  185.4470  174.2670  137.1440 O   0  0  0  0  0  0  0  0  0  0  0  0
  184.1470  173.8180  137.4980 C   0  0  0  0  0  1  0  0  0  0  0  0
  187.1310  177.0460  144.6510 C   0  0  0  0  0  2  0  0  0  0  0  0
  186.1160  178.1790  144.7410 C   0  0  0  0  0  2  0  0  0  0  0  0
  185.7740  178.4350  146.1660 C   0  0  0  0  0  0  0  0  0  0  0  0
  184.4670  178.7370  146.5220 O   0  0  0  0  0  0  0  0  0  0  0  0
  186.6620  178.3440  147.0540 O   0  0  0  0  0  1  0  0  0  0  0  0
  1  6  2  0  0  0  0
  2 11  1  0  0  0  0
  3  4  1  0  0  0  0
  4  9  1  0  0  0  0
  5 14  2  0  0  0  0
  8 12  1  0  0  0  0
  9  8  2  0  0  0  0
 10  6  1  6  0  0  0
 10  3  1  0  0  0  0
 10  2  1  0  0  0  0
 11 12  1  0  0  0  0
 12 36  1  1  0  0  0
 13  7  1  1  0  0  0
 13  1  1  0  0  0  0
 13  5  1  0  0  0  0
 14  3  2  0  0  0  0
 17 15  2  0  0  0  0
 17 18  1  0  0  0  0
 18 20  1  0  0  0  0
 19 17  1  0  0  0  0
 20 16  2  0  0  0  0
 20  5  1  0  0  0  0
 21 23  1  0  0  0  0
 23 22  1  6  0  0  0
 23 19  1  0  0  0  0
 23 25  1  0  0  0  0
 24 25  1  0  0  0  0
 25 26  1  0  0  0  0
 27 28  1  1  0  0  0
 27  1  1  0  0  0  0
 29 30  1  0  0  0  0
 29 27  1  0  0  0  0
 31 30  1  0  0  0  0
 31 33  1  0  0  0  0
 33 34  1  0  0  0  0
 33 32  2  0  0  0  0
 34 35  1  0  0  0  0
 36 37  1  0  0  0  0
 37 38  1  0  0  0  0
 38 39  2  0  0  0  0
 38 40  1  0  0  0  0
M  END
>  <MODEL>
5

>  <REMARK>
 VINA RESULT:      -7.4      3.637     10.785
  Name = 
  12 active torsions:
  status: ('A' for Active; 'I' for Inactive)
    1  A    between atoms: C_1  and  C_25
    2  A    between atoms: C_2  and  C_12
    3  A    between atoms: C_2  and  C_38
    4  A    between atoms: C_4  and  C_12
    5  A    between atoms: C_8  and  C_37
    6  A    between atoms: O_11  and  C_33
    7  A    between atoms: C_15  and  C_23
    8  A    between atoms: C_15  and  C_33
    9  A    between atoms: C_20  and  C_29
   10  A    between atoms: C_22  and  C_23
   11  A    between atoms: C_22  and  C_25
   12  A    between atoms: C_29  and  N_35
                            x       y       z     vdW  Elec       q    Type
                         _______ _______ _______ _____ _____    ______ ____

>  <TORSDO>
F 12

$$$$
=
 OpenBabel10222416593D

 40 41  0  0  1  0  0  0  0  0999 V2000
  188.5040  177.6310  137.6350 C   0  0  0  0  0  0  0  0  0  0  0  0
  188.2650  178.4190  141.2530 O   0  0  0  0  0  0  0  0  0  0  0  0
  190.2630  177.5490  140.2770 C   0  0  0  0  0  0  0  0  0  0  0  0
  191.0030  177.4740  141.5750 C   0  0  0  0  0  2  0  0  0  0  0  0
  190.8210  176.6070  137.9910 C   0  0  0  0  0  0  0  0  0  0  0  0
  188.2110  178.1080  138.8810 C   0  0  0  0  0  3  0  0  0  0  0  0
  188.8300  175.1430  137.6650 C   0  0  0  0  0  1  0  0  0  0  0  0
  189.5690  176.2120  143.1220 N   0  0  0  0  0  0  0  0  0  0  0  0
  190.6020  176.2510  142.3500 C   0  0  0  0  0  3  0  0  0  0  0  0
  188.7540  177.6130  140.2210 C   0  0  2  0  0  3  0  0  0  0  0  0
  187.7210  177.5320  142.1870 C   0  0  0  0  0  2  0  0  0  0  0  0
  188.6890  177.3400  143.3520 C   0  0  1  0  0  3  0  0  0  0  0  0
  189.4690  176.4810  137.3280 C   0  0  1  0  0  3  0  0  0  0  0  0
  190.7770  177.0520  139.2050 C   0  0  0  0  0  0  0  0  0  0  0  0
  194.6060  174.9810  136.5390 O   0  0  0  0  0  0  0  0  0  0  0  0
  192.1270  175.9440  136.1280 O   0  0  0  0  0  0  0  0  0  0  0  0
  194.4140  175.2170  137.7630 C   0  0  0  0  0  0  0  0  0  0  0  0
  193.1650  175.7460  138.2180 N   0  0  0  0  0  2  0  0  0  0  0  0
  195.4460  174.9590  138.7210 N   0  0  0  0  0  2  0  0  0  0  0  0
  192.0540  176.0870  137.3790 C   0  0  0  0  0  0  0  0  0  0  0  0
  197.2950  175.1290  137.3160 O   0  0  0  0  0  1  0  0  0  0  0  0
  196.5860  172.9650  137.9610 C   0  0  0  0  0  1  0  0  0  0  0  0
  196.7620  174.4140  138.3910 C   0  0  2  0  0  0  0  0  0  0  0  0
  197.1280  175.3820  140.7200 C   0  0  0  0  0  1  0  0  0  0  0  0
  197.7070  174.5220  139.6050 C   0  0  0  0  0  3  0  0  0  0  0  0
  199.0840  175.0440  139.2230 C   0  0  0  0  0  1  0  0  0  0  0  0
  187.8610  178.2800  136.4450 C   0  0  2  0  0  3  0  0  0  0  0  0
  187.1760  179.4350  136.8330 O   0  0  0  0  0  1  0  0  0  0  0  0
  186.9190  177.3110  135.7420 C   0  0  0  0  0  2  0  0  0  0  0  0
  185.4680  177.6300  136.0610 C   0  0  0  0  0  2  0  0  0  0  0  0
  184.9420  176.6940  137.1330 C   0  0  0  0  0  2  0  0  0  0  0  0
  184.7790  178.3380  138.8420 O   0  0  0  0  0  0  0  0  0  0  0  0
  184.1780  177.4720  138.1540 C   0  0  0  0  0  0  0  0  0  0  0  0
  182.8060  177.2870  138.3410 O   0  0  0  0  0  0  0  0  0  0  0  0
  181.8570  177.5640  137.3230 C   0  0  0  0  0  1  0  0  0  0  0  0
  187.9290  177.1570  144.6630 C   0  0  0  0  0  2  0  0  0  0  0  0
  188.7810  177.4950  145.8800 C   0  0  0  0  0  2  0  0  0  0  0  0
  187.9200  177.5630  147.0920 C   0  0  0  0  0  0  0  0  0  0  0  0
  188.2980  176.8940  148.2490 O   0  0  0  0  0  1  0  0  0  0  0  0
  186.8690  178.2540  147.0820 O   0  0  0  0  0  0  0  0  0  0  0  0
  1  6  2  0  0  0  0
  2 11  1  0  0  0  0
  3  4  1  0  0  0  0
  4  9  1  0  0  0  0
  5 14  2  0  0  0  0
  8 12  1  0  0  0  0
  9  8  2  0  0  0  0
 10  6  1  6  0  0  0
 10  3  1  0  0  0  0
 10  2  1  0  0  0  0
 11 12  1  0  0  0  0
 12 36  1  1  0  0  0
 13  1  1  0  0  0  0
 13  7  1  1  0  0  0
 13  5  1  0  0  0  0
 14  3  2  0  0  0  0
 15 17  2  0  0  0  0
 16 20  2  0  0  0  0
 17 18  1  0  0  0  0
 17 19  1  0  0  0  0
 20  5  1  0  0  0  0
 20 18  1  0  0  0  0
 21 23  1  0  0  0  0
 23 22  1  6  0  0  0
 23 19  1  0  0  0  0
 23 25  1  0  0  0  0
 25 24  1  0  0  0  0
 26 25  1  0  0  0  0
 27 28  1  1  0  0  0
 27  1  1  0  0  0  0
 29 30  1  0  0  0  0
 29 27  1  0  0  0  0
 30 31  1  0  0  0  0
 31 33  1  0  0  0  0
 33 34  1  0  0  0  0
 33 32  2  0  0  0  0
 35 34  1  0  0  0  0
 36 37  1  0  0  0  0
 37 38  1  0  0  0  0
 38 39  1  0  0  0  0
 40 38  2  0  0  0  0
M  END
>  <MODEL>
6

>  <REMARK>
 VINA RESULT:      -7.2      3.101     10.688
  Name = 
  12 active torsions:
  status: ('A' for Active; 'I' for Inactive)
    1  A    between atoms: C_1  and  C_25
    2  A    between atoms: C_2  and  C_12
    3  A    between atoms: C_2  and  C_38
    4  A    between atoms: C_4  and  C_12
    5  A    between atoms: C_8  and  C_37
    6  A    between atoms: O_11  and  C_33
    7  A    between atoms: C_15  and  C_23
    8  A    between atoms: C_15  and  C_33
    9  A    between atoms: C_20  and  C_29
   10  A    between atoms: C_22  and  C_23
   11  A    between atoms: C_22  and  C_25
   12  A    between atoms: C_29  and  N_35
                            x       y       z     vdW  Elec       q    Type
                         _______ _______ _______ _____ _____    ______ ____

>  <TORSDO>
F 12

$$$$
=
 OpenBabel10222416593D

 40 41  0  0  1  0  0  0  0  0999 V2000
  188.2010  176.6880  136.3420 C   0  0  0  0  0  0  0  0  0  0  0  0
  191.3960  175.0780  135.3580 O   0  0  0  0  0  0  0  0  0  0  0  0
  190.9730  175.7850  137.6000 C   0  0  0  0  0  0  0  0  0  0  0  0
  192.3280  175.3980  138.1010 C   0  0  0  0  0  2  0  0  0  0  0  0
  189.1310  177.1510  138.6790 C   0  0  0  0  0  0  0  0  0  0  0  0
  189.2170  175.9760  135.7690 C   0  0  0  0  0  3  0  0  0  0  0  0
  188.9600  178.9870  137.0020 C   0  0  0  0  0  1  0  0  0  0  0  0
  193.9580  176.4710  136.6070 N   0  0  0  0  0  0  0  0  0  0  0  0
  193.3500  176.4390  137.7450 C   0  0  0  0  0  3  0  0  0  0  0  0
  190.7010  176.0130  136.1300 C   0  0  2  0  0  3  0  0  0  0  0  0
  192.4570  175.7870  134.7880 C   0  0  0  0  0  2  0  0  0  0  0  0
  193.7480  175.5020  135.5510 C   0  0  1  0  0  3  0  0  0  0  0  0
  188.3550  177.6830  137.4960 C   0  0  1  0  0  3  0  0  0  0  0  0
  190.1580  176.4320  138.3590 C   0  0  0  0  0  0  0  0  0  0  0  0
  188.6650  178.2540  142.8800 O   0  0  0  0  0  0  0  0  0  0  0  0
  187.8680  178.3180  140.3100 O   0  0  0  0  0  0  0  0  0  0  0  0
  189.5830  177.4790  142.4980 C   0  0  0  0  0  0  0  0  0  0  0  0
  189.7200  177.1330  141.1160 N   0  0  0  0  0  2  0  0  0  0  0  0
  190.5060  176.9290  143.4440 N   0  0  0  0  0  2  0  0  0  0  0  0
  188.8560  177.5740  140.0610 C   0  0  0  0  0  0  0  0  0  0  0  0
  189.2820  176.7320  145.4140 O   0  0  0  0  0  1  0  0  0  0  0  0
  190.5310  178.7140  145.0770 C   0  0  0  0  0  1  0  0  0  0  0  0
  190.4820  177.2050  144.8790 C   0  0  2  0  0  0  0  0  0  0  0  0
  192.0690  175.2110  144.8990 C   0  0  0  0  0  1  0  0  0  0  0  0
  191.6690  176.5140  145.5790 C   0  0  0  0  0  3  0  0  0  0  0  0
  191.4040  176.2570  147.0550 C   0  0  0  0  0  1  0  0  0  0  0  0
  186.8040  176.4860  135.8340 C   0  0  2  0  0  3  0  0  0  0  0  0
  186.4370  177.5380  134.9900 O   0  0  0  0  0  1  0  0  0  0  0  0
  185.8200  176.3600  136.9900 C   0  0  0  0  0  2  0  0  0  0  0  0
  184.7040  177.3840  136.8720 C   0  0  0  0  0  2  0  0  0  0  0  0
  183.9740  177.5290  138.1940 C   0  0  0  0  0  2  0  0  0  0  0  0
  185.3260  179.3760  138.8330 O   0  0  0  0  0  0  0  0  0  0  0  0
  184.1610  178.9130  138.7260 C   0  0  0  0  0  0  0  0  0  0  0  0
  183.0740  179.7170  139.0750 O   0  0  0  0  0  0  0  0  0  0  0  0
  181.7320  179.3390  138.8070 C   0  0  0  0  0  1  0  0  0  0  0  0
  194.9460  175.4860  134.6050 C   0  0  0  0  0  2  0  0  0  0  0  0
  196.1000  176.3410  135.1130 C   0  0  0  0  0  2  0  0  0  0  0  0
  197.1630  175.4660  135.6760 C   0  0  0  0  0  0  0  0  0  0  0  0
  197.6230  174.3770  134.9460 O   0  0  0  0  0  0  0  0  0  0  0  0
  197.6710  175.7300  136.7960 O   0  0  0  0  0  1  0  0  0  0  0  0
  1 13  1  0  0  0  0
  2 10  1  0  0  0  0
  3  4  1  0  0  0  0
  3 14  2  0  0  0  0
  5 20  1  0  0  0  0
  6  1  2  0  0  0  0
  8  9  2  0  0  0  0
  9  4  1  0  0  0  0
 10  6  1  1  0  0  0
 10  3  1  0  0  0  0
 11  2  1  0  0  0  0
 11 12  1  0  0  0  0
 12 36  1  6  0  0  0
 12  8  1  0  0  0  0
 13  7  1  6  0  0  0
 13  5  1  0  0  0  0
 14  5  2  0  0  0  0
 17 15  2  0  0  0  0
 17 19  1  0  0  0  0
 18 17  1  0  0  0  0
 19 23  1  0  0  0  0
 20 16  2  0  0  0  0
 20 18  1  0  0  0  0
 23 22  1  1  0  0  0
 23 21  1  0  0  0  0
 23 25  1  0  0  0  0
 24 25  1  0  0  0  0
 25 26  1  0  0  0  0
 27 28  1  6  0  0  0
 27  1  1  0  0  0  0
 27 29  1  0  0  0  0
 30 29  1  0  0  0  0
 30 31  1  0  0  0  0
 31 33  1  0  0  0  0
 33 32  2  0  0  0  0
 33 34  1  0  0  0  0
 35 34  1  0  0  0  0
 36 37  1  0  0  0  0
 37 38  1  0  0  0  0
 38 40  1  0  0  0  0
 39 38  2  0  0  0  0
M  END
>  <MODEL>
7

>  <REMARK>
 VINA RESULT:      -6.8      2.849      7.904
  Name = 
  12 active torsions:
  status: ('A' for Active; 'I' for Inactive)
    1  A    between atoms: C_1  and  C_25
    2  A    between atoms: C_2  and  C_12
    3  A    between atoms: C_2  and  C_38
    4  A    between atoms: C_4  and  C_12
    5  A    between atoms: C_8  and  C_37
    6  A    between atoms: O_11  and  C_33
    7  A    between atoms: C_15  and  C_23
    8  A    between atoms: C_15  and  C_33
    9  A    between atoms: C_20  and  C_29
   10  A    between atoms: C_22  and  C_23
   11  A    between atoms: C_22  and  C_25
   12  A    between atoms: C_29  and  N_35
                            x       y       z     vdW  Elec       q    Type
                         _______ _______ _______ _____ _____    ______ ____

>  <TORSDO>
F 12

$$$$
=
 OpenBabel10222416593D

 40 41  0  0  1  0  0  0  0  0999 V2000
  191.6480  176.0550  136.1640 C   0  0  0  0  0  0  0  0  0  0  0  0
  188.4740  177.3670  134.7600 O   0  0  0  0  0  0  0  0  0  0  0  0
  189.1370  177.8020  137.0130 C   0  0  0  0  0  0  0  0  0  0  0  0
  187.8910  178.5540  137.3570 C   0  0  0  0  0  2  0  0  0  0  0  0
  191.0040  176.9200  138.4830 C   0  0  0  0  0  0  0  0  0  0  0  0
  190.6190  176.5170  135.3930 C   0  0  0  0  0  3  0  0  0  0  0  0
  190.8220  174.4930  137.9450 C   0  0  0  0  0  1  0  0  0  0  0  0
  186.0070  177.1030  136.7360 N   0  0  0  0  0  0  0  0  0  0  0  0
  186.7600  177.6110  137.6530 C   0  0  0  0  0  3  0  0  0  0  0  0
  189.1960  176.8510  135.8390 C   0  0  2  0  0  3  0  0  0  0  0  0
  187.2990  176.6110  134.7080 C   0  0  0  0  0  2  0  0  0  0  0  0
  186.1440  177.3950  135.3240 C   0  0  1  0  0  3  0  0  0  0  0  0
  191.5780  175.7830  137.6700 C   0  0  1  0  0  3  0  0  0  0  0  0
  189.9970  177.5130  137.9270 C   0  0  0  0  0  0  0  0  0  0  0  0
  191.9080  177.6130  142.6990 O   0  0  0  0  0  0  0  0  0  0  0  0
  192.6260  177.5030  140.1090 O   0  0  0  0  0  0  0  0  0  0  0  0
  190.7390  177.3450  142.3100 C   0  0  0  0  0  0  0  0  0  0  0  0
  190.4650  177.1180  140.9240 N   0  0  0  0  0  2  0  0  0  0  0  0
  189.6630  177.2640  143.2500 N   0  0  0  0  0  2  0  0  0  0  0  0
  191.4270  177.1980  139.8640 C   0  0  0  0  0  0  0  0  0  0  0  0
  190.1720  178.7940  144.9290 O   0  0  0  0  0  1  0  0  0  0  0  0
  190.9260  176.5660  145.1910 C   0  0  0  0  0  1  0  0  0  0  0  0
  189.8070  177.4680  144.6900 C   0  0  2  0  0  0  0  0  0  0  0  0
  187.2740  177.7500  144.6930 C   0  0  0  0  0  1  0  0  0  0  0  0
  188.4800  177.1580  145.4120 C   0  0  0  0  0  3  0  0  0  0  0  0
  188.4850  177.6210  146.8610 C   0  0  0  0  0  1  0  0  0  0  0  0
  192.9780  175.8030  135.5150 C   0  0  2  0  0  3  0  0  0  0  0  0
  193.0350  174.4990  135.0160 O   0  0  0  0  0  1  0  0  0  0  0  0
  194.1160  176.0500  136.4970 C   0  0  0  0  0  2  0  0  0  0  0  0
  194.9760  174.8080  136.6600 C   0  0  0  0  0  2  0  0  0  0  0  0
  194.9330  174.3160  138.0940 C   0  0  0  0  0  2  0  0  0  0  0  0
  197.2660  174.7650  138.1260 O   0  0  0  0  0  0  0  0  0  0  0  0
  196.2030  174.6780  138.7930 C   0  0  0  0  0  0  0  0  0  0  0  0
  196.2320  174.9570  140.1610 O   0  0  0  0  0  0  0  0  0  0  0  0
  197.4220  175.3420  140.8320 C   0  0  0  0  0  1  0  0  0  0  0  0
  184.8360  177.0970  134.5940 C   0  0  0  0  0  2  0  0  0  0  0  0
  183.9870  176.0630  135.3240 C   0  0  0  0  0  2  0  0  0  0  0  0
  182.6480  176.6370  135.6270 C   0  0  0  0  0  0  0  0  0  0  0  0
  181.5010  175.9110  135.3360 O   0  0  0  0  0  0  0  0  0  0  0  0
  182.5550  177.7640  136.1780 O   0  0  0  0  0  1  0  0  0  0  0  0
  1 13  1  0  0  0  0
  2 10  1  0  0  0  0
  3  4  1  0  0  0  0
  3 14  2  0  0  0  0
  4  9  1  0  0  0  0
  5 20  1  0  0  0  0
  6  1  2  0  0  0  0
  8  9  2  0  0  0  0
 10  6  1  6  0  0  0
 10  3  1  0  0  0  0
 11  2  1  0  0  0  0
 11 12  1  0  0  0  0
 12 36  1  6  0  0  0
 12  8  1  0  0  0  0
 13  7  1  6  0  0  0
 13  5  1  0  0  0  0
 14  5  2  0  0  0  0
 17 15  2  0  0  0  0
 17 19  1  0  0  0  0
 18 17  1  0  0  0  0
 19 23  1  0  0  0  0
 20 16  2  0  0  0  0
 20 18  1  0  0  0  0
 23 21  1  0  0  0  0
 23 22  1  1  0  0  0
 23 25  1  0  0  0  0
 24 25  1  0  0  0  0
 25 26  1  0  0  0  0
 27 28  1  1  0  0  0
 27  1  1  0  0  0  0
 27 29  1  0  0  0  0
 29 30  1  0  0  0  0
 30 31  1  0  0  0  0
 31 33  1  0  0  0  0
 32 33  2  0  0  0  0
 33 34  1  0  0  0  0
 34 35  1  0  0  0  0
 36 37  1  0  0  0  0
 37 38  1  0  0  0  0
 38 40  1  0  0  0  0
 39 38  2  0  0  0  0
M  END
>  <MODEL>
8

>  <REMARK>
 VINA RESULT:      -6.8      3.403      8.775
  Name = 
  12 active torsions:
  status: ('A' for Active; 'I' for Inactive)
    1  A    between atoms: C_1  and  C_25
    2  A    between atoms: C_2  and  C_12
    3  A    between atoms: C_2  and  C_38
    4  A    between atoms: C_4  and  C_12
    5  A    between atoms: C_8  and  C_37
    6  A    between atoms: O_11  and  C_33
    7  A    between atoms: C_15  and  C_23
    8  A    between atoms: C_15  and  C_33
    9  A    between atoms: C_20  and  C_29
   10  A    between atoms: C_22  and  C_23
   11  A    between atoms: C_22  and  C_25
   12  A    between atoms: C_29  and  N_35
                            x       y       z     vdW  Elec       q    Type
                         _______ _______ _______ _____ _____    ______ ____

>  <TORSDO>
F 12

$$$$
=
 OpenBabel10222416593D

 40 41  0  0  1  0  0  0  0  0999 V2000
  190.1100  177.4300  144.8020 C   0  0  0  0  0  0  0  0  0  0  0  0
  186.4150  177.6910  144.5890 O   0  0  0  0  0  0  0  0  0  0  0  0
  187.7780  177.4110  142.6480 C   0  0  0  0  0  0  0  0  0  0  0  0
  186.6310  177.4840  141.6900 C   0  0  0  0  0  2  0  0  0  0  0  0
  190.2800  177.4720  142.2500 C   0  0  0  0  0  0  0  0  0  0  0  0
  188.7580  177.4240  144.9950 C   0  0  0  0  0  3  0  0  0  0  0  0
  190.8480  179.4980  143.5870 C   0  0  0  0  0  1  0  0  0  0  0  0
  185.4070  179.5480  142.2230 N   0  0  0  0  0  0  0  0  0  0  0  0
  186.2210  178.9090  141.4520 C   0  0  0  0  0  3  0  0  0  0  0  0
  187.6780  177.9570  144.0540 C   0  0  2  0  0  3  0  0  0  0  0  0
  185.7420  178.9170  144.5720 C   0  0  0  0  0  2  0  0  0  0  0  0
  184.7760  178.9670  143.3910 C   0  0  1  0  0  3  0  0  0  0  0  0
  190.8280  177.9780  143.5640 C   0  0  1  0  0  3  0  0  0  0  0  0
  188.9900  177.3850  142.2120 C   0  0  0  0  0  0  0  0  0  0  0  0
  192.4840  176.7200  138.5540 O   0  0  0  0  0  0  0  0  0  0  0  0
  192.2310  177.8810  140.9690 O   0  0  0  0  0  0  0  0  0  0  0  0
  191.3850  176.1510  138.7960 C   0  0  0  0  0  0  0  0  0  0  0  0
  190.6770  176.4140  140.0110 N   0  0  0  0  0  2  0  0  0  0  0  0
  190.8250  175.2280  137.8560 N   0  0  0  0  0  2  0  0  0  0  0  0
  191.1250  177.2820  141.0600 C   0  0  0  0  0  0  0  0  0  0  0  0
  191.5870  176.0330  135.8090 O   0  0  0  0  0  1  0  0  0  0  0  0
  190.5040  173.9280  135.8410 C   0  0  0  0  0  1  0  0  0  0  0  0
  191.4400  174.8760  136.5770 C   0  0  2  0  0  0  0  0  0  0  0  0
  193.9320  174.9430  136.0520 C   0  0  0  0  0  1  0  0  0  0  0  0
  192.8200  174.2270  136.8060 C   0  0  0  0  0  3  0  0  0  0  0  0
  192.8330  172.7480  136.4480 C   0  0  0  0  0  1  0  0  0  0  0  0
  190.9930  176.8380  145.8610 C   0  0  2  0  0  3  0  0  0  0  0  0
  191.6570  175.7130  145.3660 O   0  0  0  0  0  1  0  0  0  0  0  0
  190.1850  176.4800  147.1020 C   0  0  0  0  0  2  0  0  0  0  0  0
  190.4620  177.4550  148.2340 C   0  0  0  0  0  2  0  0  0  0  0  0
  189.4110  178.5500  148.2610 C   0  0  0  0  0  2  0  0  0  0  0  0
  187.9020  177.1420  149.4390 O   0  0  0  0  0  0  0  0  0  0  0  0
  188.0620  177.9510  148.4890 C   0  0  0  0  0  0  0  0  0  0  0  0
  186.9660  178.2920  147.6940 O   0  0  0  0  0  0  0  0  0  0  0  0
  186.3730  179.5820  147.7290 C   0  0  0  0  0  1  0  0  0  0  0  0
  183.5170  179.7490  143.7540 C   0  0  0  0  0  2  0  0  0  0  0  0
  182.2780  178.8640  143.8040 C   0  0  0  0  0  2  0  0  0  0  0  0
  181.3620  179.2180  142.6860 C   0  0  0  0  0  0  0  0  0  0  0  0
  180.4390  180.2430  142.8450 O   0  0  0  0  0  1  0  0  0  0  0  0
  181.4460  178.6140  141.5850 O   0  0  0  0  0  0  0  0  0  0  0  0
  1  6  2  0  0  0  0
  1 27  1  0  0  0  0
  3 10  1  0  0  0  0
  4  3  1  0  0  0  0
  5 13  1  0  0  0  0
  8 12  1  0  0  0  0
  9  4  1  0  0  0  0
  9  8  2  0  0  0  0
 10  2  1  0  0  0  0
 10  6  1  1  0  0  0
 11  2  1  0  0  0  0
 12 36  1  1  0  0  0
 12 11  1  0  0  0  0
 13  7  1  6  0  0  0
 13  1  1  0  0  0  0
 14  5  2  0  0  0  0
 14  3  2  0  0  0  0
 15 17  2  0  0  0  0
 16 20  2  0  0  0  0
 17 18  1  0  0  0  0
 18 20  1  0  0  0  0
 19 17  1  0  0  0  0
 20  5  1  0  0  0  0
 21 23  1  0  0  0  0
 23 22  1  6  0  0  0
 23 25  1  0  0  0  0
 23 19  1  0  0  0  0
 24 25  1  0  0  0  0
 26 25  1  0  0  0  0
 27 28  1  6  0  0  0
 27 29  1  0  0  0  0
 29 30  1  0  0  0  0
 30 31  1  0  0  0  0
 31 33  1  0  0  0  0
 33 32  2  0  0  0  0
 34 35  1  0  0  0  0
 34 33  1  0  0  0  0
 36 37  1  0  0  0  0
 38 39  1  0  0  0  0
 38 37  1  0  0  0  0
 40 38  2  0  0  0  0
M  END
>  <MODEL>
9

>  <REMARK>
 VINA RESULT:      -6.6      2.099      8.295
  Name = 
  12 active torsions:
  status: ('A' for Active; 'I' for Inactive)
    1  A    between atoms: C_1  and  C_25
    2  A    between atoms: C_2  and  C_12
    3  A    between atoms: C_2  and  C_38
    4  A    between atoms: C_4  and  C_12
    5  A    between atoms: C_8  and  C_37
    6  A    between atoms: O_11  and  C_33
    7  A    between atoms: C_15  and  C_23
    8  A    between atoms: C_15  and  C_33
    9  A    between atoms: C_20  and  C_29
   10  A    between atoms: C_22  and  C_23
   11  A    between atoms: C_22  and  C_25
   12  A    between atoms: C_29  and  N_35
                            x       y       z     vdW  Elec       q    Type
                         _______ _______ _______ _____ _____    ______ ____

>  <TORSDO>
F 12

$$$$
