=
 OpenBabel10222416363D

 32 33  0  0  1  0  0  0  0  0999 V2000
  185.5940  178.1300  144.3010 C   0  0  0  0  0  0  0  0  0  0  0  0
  186.8280  177.4260  144.3160 C   0  0  0  0  0  0  0  0  0  0  0  0
  187.5580  177.3670  145.5080 C   0  0  0  0  0  3  0  0  0  0  0  0
  187.0940  177.9880  146.6710 C   0  0  0  0  0  0  0  0  0  0  0  0
  185.8860  178.6860  146.6480 C   0  0  0  0  0  3  0  0  0  0  0  0
  185.1410  178.7530  145.4710 C   0  0  0  0  0  3  0  0  0  0  0  0
  184.7110  178.2160  143.0950 C   0  0  0  0  0  2  0  0  0  0  0  0
  184.8950  179.5460  142.3790 C   0  0  0  0  0  2  0  0  0  0  0  0
  185.2110  178.9600  138.7870 O   0  0  0  0  0  0  0  0  0  0  0  0
  183.2320  179.1560  140.0140 N   0  0  0  0  0  2  0  0  0  0  0  0
  184.6600  179.1420  139.9050 C   0  0  0  0  0  0  0  0  0  0  0  0
  185.4720  179.3330  141.0620 N   0  0  0  0  0  2  0  0  0  0  0  0
  181.1580  178.2820  139.2690 N   0  0  0  0  0  1  0  0  0  0  0  0
  181.9650  180.3550  138.3160 C   0  0  0  0  0  1  0  0  0  0  0  0
  182.3550  178.9950  138.8640 C   0  0  1  0  0  3  0  0  0  0  0  0
  187.9020  177.9310  147.9230 C   0  0  0  0  0  2  0  0  0  0  0  0
  190.2470  177.3030  147.5190 C   0  0  0  0  0  3  0  0  0  0  0  0
  189.0020  176.9250  147.8110 C   0  0  0  0  0  3  0  0  0  0  0  0
  192.4130  176.6640  148.2150 O   0  0  0  0  0  1  0  0  0  0  0  0
  191.3420  176.2920  147.4010 C   0  0  2  0  0  3  0  0  0  0  0  0
  191.4930  177.4820  145.2150 C   0  0  0  0  0  1  0  0  0  0  0  0
  191.8170  176.2010  145.9620 C   0  0  0  0  0  2  0  0  0  0  0  0
  187.3900  176.7670  143.1720 N   0  0  0  0  0  2  0  0  0  0  0  0
  188.7910  176.4360  142.9690 C   0  0  0  0  0  2  0  0  0  0  0  0
  189.4480  177.5200  142.2540 N   0  0  0  0  0  2  0  0  0  0  0  0
  188.6180  178.1690  140.1000 C   0  0  0  0  0  3  0  0  0  0  0  0
  188.7880  177.0800  137.8860 C   0  0  0  0  0  3  0  0  0  0  0  0
  189.7930  176.2220  138.0530 C   0  0  0  0  0  3  0  0  0  0  0  0
  190.7820  176.9640  140.2350 C   0  0  0  0  0  3  0  0  0  0  0  0
  188.6970  178.3730  138.6230 C   0  0  0  0  0  2  0  0  0  0  0  0
  189.5680  177.5660  140.8290 C   0  0  0  0  0  0  0  0  0  0  0  0
  190.8800  176.3770  139.0370 C   0  0  0  0  0  3  0  0  0  0  0  0
  1  2  2  0  0  0  0
  1  6  1  0  0  0  0
  2  3  1  0  0  0  0
  3  4  2  0  0  0  0
  4 16  1  0  0  0  0
  5  4  1  0  0  0  0
  6  5  2  0  0  0  0
  7  1  1  0  0  0  0
  8  7  1  0  0  0  0
  9 11  2  0  0  0  0
 11 10  1  0  0  0  0
 11 12  1  0  0  0  0
 12  8  1  0  0  0  0
 15 14  1  1  0  0  0
 15 13  1  0  0  0  0
 15 10  1  0  0  0  0
 17 18  2  0  0  0  0
 18 16  1  0  0  0  0
 20 17  1  0  0  0  0
 20 19  1  1  0  0  0
 21 22  1  0  0  0  0
 22 20  1  0  0  0  0
 23  2  1  0  0  0  0
 24 23  1  0  0  0  0
 25 24  1  0  0  0  0
 26 31  2  0  0  0  0
 27 28  2  0  0  0  0
 27 30  1  0  0  0  0
 28 32  1  0  0  0  0
 29 31  1  0  0  0  0
 30 26  1  0  0  0  0
 31 25  1  0  0  0  0
 32 29  2  0  0  0  0
M  END
>  <MODEL>
1

>  <REMARK>
 VINA RESULT:      -8.6      0.000      0.000
  Name = 
  12 active torsions:
  status: ('A' for Active; 'I' for Inactive)
    1  A    between atoms: N_1  and  C_25
    2  A    between atoms: N_1  and  C_32
    3  A    between atoms: C_2  and  C_27
    4  A    between atoms: C_3  and  C_16
    5  A    between atoms: C_6  and  N_31
    6  A    between atoms: C_10  and  C_19
    7  A    between atoms: N_14  and  C_18
    8  A    between atoms: C_16  and  C_23
    9  A    between atoms: C_19  and  C_24
   10  A    between atoms: C_20  and  C_27
   11  A    between atoms: C_23  and  N_28
   12  A    between atoms: N_31  and  C_32
                            x       y       z     vdW  Elec       q    Type
                         _______ _______ _______ _____ _____    ______ ____

>  <TORSDO>
F 12

$$$$
=
 OpenBabel10222416363D

 32 33  0  0  1  0  0  0  0  0999 V2000
  185.2710  178.3800  144.6360 C   0  0  0  0  0  0  0  0  0  0  0  0
  186.5000  177.6850  144.4740 C   0  0  0  0  0  0  0  0  0  0  0  0
  187.3530  177.5540  145.5750 C   0  0  0  0  0  3  0  0  0  0  0  0
  187.0150  178.0950  146.8180 C   0  0  0  0  0  0  0  0  0  0  0  0
  185.8120  178.7850  146.9690 C   0  0  0  0  0  3  0  0  0  0  0  0
  184.9460  178.9220  145.8850 C   0  0  0  0  0  3  0  0  0  0  0  0
  184.2650  178.5370  143.5390 C   0  0  0  0  0  2  0  0  0  0  0  0
  183.0920  179.3940  143.9940 C   0  0  0  0  0  2  0  0  0  0  0  0
  179.7210  178.0330  143.6320 O   0  0  0  0  0  0  0  0  0  0  0  0
  180.6550  179.8180  142.4480 N   0  0  0  0  0  2  0  0  0  0  0  0
  180.7190  178.7750  143.4280 C   0  0  0  0  0  0  0  0  0  0  0  0
  181.9110  178.5690  144.1830 N   0  0  0  0  0  2  0  0  0  0  0  0
  179.2800  181.4850  141.4720 N   0  0  0  0  0  1  0  0  0  0  0  0
  179.6580  179.4240  140.2630 C   0  0  0  0  0  1  0  0  0  0  0  0
  179.4750  180.0560  141.6300 C   0  0  1  0  0  3  0  0  0  0  0  0
  187.9520  177.9640  147.9710 C   0  0  0  0  0  2  0  0  0  0  0  0
  190.2650  177.2760  147.4830 C   0  0  0  0  0  3  0  0  0  0  0  0
  188.9970  176.9280  147.7030 C   0  0  0  0  0  3  0  0  0  0  0  0
  192.4060  176.4450  148.0390 O   0  0  0  0  0  1  0  0  0  0  0  0
  191.3040  176.2360  147.2090 C   0  0  2  0  0  3  0  0  0  0  0  0
  191.2910  177.6160  145.1310 C   0  0  0  0  0  1  0  0  0  0  0  0
  191.7490  176.3130  145.7590 C   0  0  0  0  0  2  0  0  0  0  0  0
  186.9370  177.1050  143.2360 N   0  0  0  0  0  2  0  0  0  0  0  0
  188.2950  176.7040  142.9030 C   0  0  0  0  0  2  0  0  0  0  0  0
  188.9700  177.7970  142.2190 N   0  0  0  0  0  2  0  0  0  0  0  0
  188.5250  178.3760  139.9360 C   0  0  0  0  0  3  0  0  0  0  0  0
  188.9800  177.1700  137.8250 C   0  0  0  0  0  3  0  0  0  0  0  0
  189.8990  176.2750  138.1850 C   0  0  0  0  0  3  0  0  0  0  0  0
  190.5720  177.0790  140.4640 C   0  0  0  0  0  3  0  0  0  0  0  0
  188.8450  178.5020  138.4830 C   0  0  0  0  0  2  0  0  0  0  0  0
  189.3150  177.7660  140.8310 C   0  0  0  0  0  0  0  0  0  0  0  0
  190.8250  176.4290  139.3220 C   0  0  0  0  0  3  0  0  0  0  0  0
  1  6  1  0  0  0  0
  2  1  2  0  0  0  0
  2  3  1  0  0  0  0
  3  4  2  0  0  0  0
  4  5  1  0  0  0  0
  4 16  1  0  0  0  0
  6  5  2  0  0  0  0
  7  8  1  0  0  0  0
  7  1  1  0  0  0  0
  8 12  1  0  0  0  0
 10 11  1  0  0  0  0
 11  9  2  0  0  0  0
 11 12  1  0  0  0  0
 13 15  1  0  0  0  0
 15 14  1  6  0  0  0
 15 10  1  0  0  0  0
 17 18  2  0  0  0  0
 18 16  1  0  0  0  0
 20 17  1  0  0  0  0
 20 19  1  1  0  0  0
 21 22  1  0  0  0  0
 22 20  1  0  0  0  0
 23  2  1  0  0  0  0
 24 23  1  0  0  0  0
 25 24  1  0  0  0  0
 26 31  2  0  0  0  0
 27 28  2  0  0  0  0
 27 30  1  0  0  0  0
 28 32  1  0  0  0  0
 29 31  1  0  0  0  0
 30 26  1  0  0  0  0
 31 25  1  0  0  0  0
 32 29  2  0  0  0  0
M  END
>  <MODEL>
2

>  <REMARK>
 VINA RESULT:      -8.6      2.209      2.327
  Name = 
  12 active torsions:
  status: ('A' for Active; 'I' for Inactive)
    1  A    between atoms: N_1  and  C_25
    2  A    between atoms: N_1  and  C_32
    3  A    between atoms: C_2  and  C_27
    4  A    between atoms: C_3  and  C_16
    5  A    between atoms: C_6  and  N_31
    6  A    between atoms: C_10  and  C_19
    7  A    between atoms: N_14  and  C_18
    8  A    between atoms: C_16  and  C_23
    9  A    between atoms: C_19  and  C_24
   10  A    between atoms: C_20  and  C_27
   11  A    between atoms: C_23  and  N_28
   12  A    between atoms: N_31  and  C_32
                            x       y       z     vdW  Elec       q    Type
                         _______ _______ _______ _____ _____    ______ ____

>  <TORSDO>
F 12

$$$$
=
 OpenBabel10222416363D

 32 33  0  0  1  0  0  0  0  0999 V2000
  185.8480  178.1040  143.5610 C   0  0  0  0  0  0  0  0  0  0  0  0
  185.1560  178.6390  144.6800 C   0  0  0  0  0  0  0  0  0  0  0  0
  185.7300  178.5220  145.9500 C   0  0  0  0  0  3  0  0  0  0  0  0
  186.9630  177.8880  146.1290 C   0  0  0  0  0  0  0  0  0  0  0  0
  187.6340  177.3560  145.0280 C   0  0  0  0  0  3  0  0  0  0  0  0
  187.0810  177.4680  143.7530 C   0  0  0  0  0  3  0  0  0  0  0  0
  185.3480  178.2170  142.1550 C   0  0  0  0  0  2  0  0  0  0  0  0
  186.1810  179.2100  141.3570 C   0  0  0  0  0  2  0  0  0  0  0  0
  187.8270  177.5060  138.5760 O   0  0  0  0  0  0  0  0  0  0  0  0
  188.5970  177.6830  140.7750 N   0  0  0  0  0  2  0  0  0  0  0  0
  187.6360  177.9380  139.7440 C   0  0  0  0  0  0  0  0  0  0  0  0
  186.4550  178.6850  140.0300 N   0  0  0  0  0  2  0  0  0  0  0  0
  190.8050  177.7400  139.9110 N   0  0  0  0  0  1  0  0  0  0  0  0
  190.3480  176.3950  141.8700 C   0  0  0  0  0  1  0  0  0  0  0  0
  189.8050  176.9040  140.5480 C   0  0  1  0  0  3  0  0  0  0  0  0
  187.5440  177.7530  147.4960 C   0  0  0  0  0  2  0  0  0  0  0  0
  189.9740  177.3740  147.3800 C   0  0  0  0  0  3  0  0  0  0  0  0
  188.7470  176.8640  147.4860 C   0  0  0  0  0  3  0  0  0  0  0  0
  192.1680  177.0160  148.1800 O   0  0  0  0  0  1  0  0  0  0  0  0
  191.1720  176.4790  147.3640 C   0  0  2  0  0  3  0  0  0  0  0  0
  191.4020  177.5970  145.1460 C   0  0  0  0  0  1  0  0  0  0  0  0
  191.7030  176.3440  145.9480 C   0  0  0  0  0  2  0  0  0  0  0  0
  183.8820  179.2970  144.5970 N   0  0  0  0  0  2  0  0  0  0  0  0
  182.5960  178.6610  144.3660 C   0  0  0  0  0  2  0  0  0  0  0  0
  181.8530  179.4150  143.3670 N   0  0  0  0  0  2  0  0  0  0  0  0
  179.9710  178.3830  142.3000 C   0  0  0  0  0  3  0  0  0  0  0  0
  179.8360  176.6330  140.5580 C   0  0  0  0  0  3  0  0  0  0  0  0
  181.0600  176.6430  140.0300 C   0  0  0  0  0  3  0  0  0  0  0  0
  182.0420  178.7440  140.9850 C   0  0  0  0  0  3  0  0  0  0  0  0
  179.1960  177.8460  141.1410 C   0  0  0  0  0  2  0  0  0  0  0  0
  181.2370  178.8160  142.2230 C   0  0  0  0  0  0  0  0  0  0  0  0
  181.9710  177.8020  140.0370 C   0  0  0  0  0  3  0  0  0  0  0  0
  1  6  2  0  0  0  0
  1  2  1  0  0  0  0
  2  3  2  0  0  0  0
  3  4  1  0  0  0  0
  4 16  1  0  0  0  0
  5  4  2  0  0  0  0
  6  5  1  0  0  0  0
  7  1  1  0  0  0  0
  8  7  1  0  0  0  0
  9 11  2  0  0  0  0
 11 12  1  0  0  0  0
 11 10  1  0  0  0  0
 12  8  1  0  0  0  0
 13 15  1  0  0  0  0
 15 10  1  0  0  0  0
 15 14  1  1  0  0  0
 17 18  2  0  0  0  0
 18 16  1  0  0  0  0
 20 17  1  0  0  0  0
 20 19  1  1  0  0  0
 21 22  1  0  0  0  0
 22 20  1  0  0  0  0
 23  2  1  0  0  0  0
 24 23  1  0  0  0  0
 25 24  1  0  0  0  0
 27 30  1  0  0  0  0
 28 32  1  0  0  0  0
 28 27  2  0  0  0  0
 29 31  1  0  0  0  0
 30 26  1  0  0  0  0
 31 26  2  0  0  0  0
 31 25  1  0  0  0  0
 32 29  2  0  0  0  0
M  END
>  <MODEL>
3

>  <REMARK>
 VINA RESULT:      -8.2      2.141      5.722
  Name = 
  12 active torsions:
  status: ('A' for Active; 'I' for Inactive)
    1  A    between atoms: N_1  and  C_25
    2  A    between atoms: N_1  and  C_32
    3  A    between atoms: C_2  and  C_27
    4  A    between atoms: C_3  and  C_16
    5  A    between atoms: C_6  and  N_31
    6  A    between atoms: C_10  and  C_19
    7  A    between atoms: N_14  and  C_18
    8  A    between atoms: C_16  and  C_23
    9  A    between atoms: C_19  and  C_24
   10  A    between atoms: C_20  and  C_27
   11  A    between atoms: C_23  and  N_28
   12  A    between atoms: N_31  and  C_32
                            x       y       z     vdW  Elec       q    Type
                         _______ _______ _______ _____ _____    ______ ____

>  <TORSDO>
F 12

$$$$
=
 OpenBabel10222416363D

 32 33  0  0  1  0  0  0  0  0999 V2000
  184.9980  178.5590  144.4350 C   0  0  0  0  0  0  0  0  0  0  0  0
  186.2820  178.0120  144.1720 C   0  0  0  0  0  0  0  0  0  0  0  0
  187.1350  177.7430  145.2480 C   0  0  0  0  0  3  0  0  0  0  0  0
  186.7430  178.0060  146.5630 C   0  0  0  0  0  0  0  0  0  0  0  0
  185.4840  178.5520  146.8150 C   0  0  0  0  0  3  0  0  0  0  0  0
  184.6170  178.8230  145.7570 C   0  0  0  0  0  3  0  0  0  0  0  0
  183.9900  178.8400  143.3650 C   0  0  0  0  0  2  0  0  0  0  0  0
  182.5730  178.6550  143.8880 C   0  0  0  0  0  2  0  0  0  0  0  0
  180.1650  180.4330  141.7930 O   0  0  0  0  0  0  0  0  0  0  0  0
  180.9310  178.2440  141.5110 N   0  0  0  0  0  2  0  0  0  0  0  0
  180.9010  179.4970  142.2050 C   0  0  0  0  0  0  0  0  0  0  0  0
  181.7040  179.6970  143.3660 N   0  0  0  0  0  2  0  0  0  0  0  0
  180.9540  177.4610  139.2730 N   0  0  0  0  0  1  0  0  0  0  0  0
  179.0500  176.9470  140.6750 C   0  0  0  0  0  1  0  0  0  0  0  0
  180.1130  177.9750  140.3380 C   0  0  1  0  0  3  0  0  0  0  0  0
  187.6790  177.7340  147.6920 C   0  0  0  0  0  2  0  0  0  0  0  0
  189.7940  176.5530  147.2500 C   0  0  0  0  0  3  0  0  0  0  0  0
  189.0970  177.6890  147.2190 C   0  0  0  0  0  3  0  0  0  0  0  0
  192.0460  177.0520  147.7650 O   0  0  0  0  0  1  0  0  0  0  0  0
  191.2130  176.5160  146.7820 C   0  0  2  0  0  3  0  0  0  0  0  0
  191.2940  176.4180  144.2910 C   0  0  0  0  0  1  0  0  0  0  0  0
  191.3620  177.3260  145.5050 C   0  0  0  0  0  2  0  0  0  0  0  0
  186.7770  177.7180  142.8570 N   0  0  0  0  0  2  0  0  0  0  0  0
  188.1410  177.8970  142.3880 C   0  0  0  0  0  2  0  0  0  0  0  0
  188.1260  178.5300  141.0780 N   0  0  0  0  0  2  0  0  0  0  0  0
  189.6620  177.1270  139.8860 C   0  0  0  0  0  3  0  0  0  0  0  0
  190.4060  177.1520  137.5270 C   0  0  0  0  0  3  0  0  0  0  0  0
  189.4690  177.8830  136.9270 C   0  0  0  0  0  3  0  0  0  0  0  0
  187.6870  178.0290  138.6870 C   0  0  0  0  0  3  0  0  0  0  0  0
  190.1310  176.3100  138.7270 C   0  0  0  0  0  2  0  0  0  0  0  0
  188.5480  177.8720  139.8790 C   0  0  0  0  0  0  0  0  0  0  0  0
  188.0840  178.0390  137.4080 C   0  0  0  0  0  3  0  0  0  0  0  0
  1  6  1  0  0  0  0
  2  1  2  0  0  0  0
  2  3  1  0  0  0  0
  3  4  2  0  0  0  0
  4  5  1  0  0  0  0
  4 16  1  0  0  0  0
  6  5  2  0  0  0  0
  7  8  1  0  0  0  0
  7  1  1  0  0  0  0
  9 11  2  0  0  0  0
 10 11  1  0  0  0  0
 11 12  1  0  0  0  0
 12  8  1  0  0  0  0
 13 15  1  0  0  0  0
 15 14  1  1  0  0  0
 15 10  1  0  0  0  0
 18 17  2  0  0  0  0
 18 16  1  0  0  0  0
 20 17  1  0  0  0  0
 20 19  1  1  0  0  0
 21 22  1  0  0  0  0
 22 20  1  0  0  0  0
 23  2  1  0  0  0  0
 24 23  1  0  0  0  0
 25 24  1  0  0  0  0
 27 30  1  0  0  0  0
 28 32  1  0  0  0  0
 28 27  2  0  0  0  0
 29 31  1  0  0  0  0
 30 26  1  0  0  0  0
 31 26  2  0  0  0  0
 31 25  1  0  0  0  0
 32 29  2  0  0  0  0
M  END
>  <MODEL>
4

>  <REMARK>
 VINA RESULT:      -8.1      1.989      2.433
  Name = 
  12 active torsions:
  status: ('A' for Active; 'I' for Inactive)
    1  A    between atoms: N_1  and  C_25
    2  A    between atoms: N_1  and  C_32
    3  A    between atoms: C_2  and  C_27
    4  A    between atoms: C_3  and  C_16
    5  A    between atoms: C_6  and  N_31
    6  A    between atoms: C_10  and  C_19
    7  A    between atoms: N_14  and  C_18
    8  A    between atoms: C_16  and  C_23
    9  A    between atoms: C_19  and  C_24
   10  A    between atoms: C_20  and  C_27
   11  A    between atoms: C_23  and  N_28
   12  A    between atoms: N_31  and  C_32
                            x       y       z     vdW  Elec       q    Type
                         _______ _______ _______ _____ _____    ______ ____

>  <TORSDO>
F 12

$$$$
=
 OpenBabel10222416363D

 32 33  0  0  1  0  0  0  0  0999 V2000
  183.8950  178.5900  142.4560 C   0  0  0  0  0  0  0  0  0  0  0  0
  182.9790  178.9270  143.4880 C   0  0  0  0  0  0  0  0  0  0  0  0
  183.4270  178.9310  144.8140 C   0  0  0  0  0  3  0  0  0  0  0  0
  184.7490  178.6080  145.1300 C   0  0  0  0  0  0  0  0  0  0  0  0
  185.6420  178.2680  144.1130 C   0  0  0  0  0  3  0  0  0  0  0  0
  185.2160  178.2630  142.7850 C   0  0  0  0  0  3  0  0  0  0  0  0
  183.5350  178.6000  141.0030 C   0  0  0  0  0  2  0  0  0  0  0  0
  184.6900  179.1190  140.1590 C   0  0  0  0  0  2  0  0  0  0  0  0
  185.9420  177.5460  137.1080 O   0  0  0  0  0  0  0  0  0  0  0  0
  187.2050  178.5620  138.7910 N   0  0  0  0  0  2  0  0  0  0  0  0
  185.9610  178.1510  138.2130 C   0  0  0  0  0  0  0  0  0  0  0  0
  184.7320  178.4240  138.8830 N   0  0  0  0  0  2  0  0  0  0  0  0
  188.9140  179.4470  137.4040 N   0  0  0  0  0  1  0  0  0  0  0  0
  189.5280  177.9830  139.2310 C   0  0  0  0  0  1  0  0  0  0  0  0
  188.4910  178.2870  138.1670 C   0  0  1  0  0  3  0  0  0  0  0  0
  185.1970  178.5960  146.5530 C   0  0  0  0  0  2  0  0  0  0  0  0
  187.3310  178.1990  147.7150 C   0  0  0  0  0  3  0  0  0  0  0  0
  186.5200  177.9130  146.6960 C   0  0  0  0  0  3  0  0  0  0  0  0
  189.5030  178.2920  148.6400 O   0  0  0  0  0  1  0  0  0  0  0  0
  188.6550  177.5170  147.8490 C   0  0  2  0  0  3  0  0  0  0  0  0
  190.7280  176.8760  146.6190 C   0  0  0  0  0  1  0  0  0  0  0  0
  189.2840  177.3230  146.4810 C   0  0  0  0  0  2  0  0  0  0  0  0
  181.6020  179.2620  143.2630 N   0  0  0  0  0  2  0  0  0  0  0  0
  180.4510  178.6780  143.9330 C   0  0  0  0  0  2  0  0  0  0  0  0
  179.7190  177.8370  142.9980 N   0  0  0  0  0  2  0  0  0  0  0  0
  180.1010  177.1430  140.7360 C   0  0  0  0  0  3  0  0  0  0  0  0
  180.7360  178.4240  138.7170 C   0  0  0  0  0  3  0  0  0  0  0  0
  180.4430  179.6780  139.0560 C   0  0  0  0  0  3  0  0  0  0  0  0
  179.0950  179.3720  141.1500 C   0  0  0  0  0  3  0  0  0  0  0  0
  179.9910  177.2460  139.2500 C   0  0  0  0  0  2  0  0  0  0  0  0
  179.6690  178.0820  141.5890 C   0  0  0  0  0  0  0  0  0  0  0  0
  179.4320  180.0670  140.0570 C   0  0  0  0  0  3  0  0  0  0  0  0
  1  6  2  0  0  0  0
  1  2  1  0  0  0  0
  2  3  2  0  0  0  0
  3  4  1  0  0  0  0
  4 16  1  0  0  0  0
  5  4  2  0  0  0  0
  6  5  1  0  0  0  0
  7  1  1  0  0  0  0
  8  7  1  0  0  0  0
  9 11  2  0  0  0  0
 11 10  1  0  0  0  0
 11 12  1  0  0  0  0
 12  8  1  0  0  0  0
 13 15  1  0  0  0  0
 15 10  1  0  0  0  0
 15 14  1  1  0  0  0
 16 18  1  0  0  0  0
 17 20  1  0  0  0  0
 18 17  2  0  0  0  0
 20 19  1  1  0  0  0
 22 21  1  0  0  0  0
 22 20  1  0  0  0  0
 23  2  1  0  0  0  0
 23 24  1  0  0  0  0
 25 24  1  0  0  0  0
 26 31  2  0  0  0  0
 27 28  2  0  0  0  0
 27 30  1  0  0  0  0
 28 32  1  0  0  0  0
 29 31  1  0  0  0  0
 30 26  1  0  0  0  0
 31 25  1  0  0  0  0
 32 29  2  0  0  0  0
M  END
>  <MODEL>
5

>  <REMARK>
 VINA RESULT:      -8.1      2.469      6.264
  Name = 
  12 active torsions:
  status: ('A' for Active; 'I' for Inactive)
    1  A    between atoms: N_1  and  C_25
    2  A    between atoms: N_1  and  C_32
    3  A    between atoms: C_2  and  C_27
    4  A    between atoms: C_3  and  C_16
    5  A    between atoms: C_6  and  N_31
    6  A    between atoms: C_10  and  C_19
    7  A    between atoms: N_14  and  C_18
    8  A    between atoms: C_16  and  C_23
    9  A    between atoms: C_19  and  C_24
   10  A    between atoms: C_20  and  C_27
   11  A    between atoms: C_23  and  N_28
   12  A    between atoms: N_31  and  C_32
                            x       y       z     vdW  Elec       q    Type
                         _______ _______ _______ _____ _____    ______ ____

>  <TORSDO>
F 12

$$$$
=
 OpenBabel10222416363D

 32 33  0  0  1  0  0  0  0  0999 V2000
  189.6660  177.2020  142.4730 C   0  0  0  0  0  0  0  0  0  0  0  0
  189.5860  177.6050  141.1140 C   0  0  0  0  0  0  0  0  0  0  0  0
  188.3810  178.1320  140.6340 C   0  0  0  0  0  3  0  0  0  0  0  0
  187.2680  178.2610  141.4680 C   0  0  0  0  0  0  0  0  0  0  0  0
  187.3480  177.8540  142.8000 C   0  0  0  0  0  3  0  0  0  0  0  0
  188.5410  177.3320  143.2980 C   0  0  0  0  0  3  0  0  0  0  0  0
  190.9170  176.6710  143.1010 C   0  0  0  0  0  2  0  0  0  0  0  0
  191.3930  177.5830  144.2220 C   0  0  0  0  0  2  0  0  0  0  0  0
  191.2420  176.0130  147.5180 O   0  0  0  0  0  0  0  0  0  0  0  0
  189.6360  177.4020  146.5430 N   0  0  0  0  0  2  0  0  0  0  0  0
  190.8880  176.7070  146.5280 C   0  0  0  0  0  0  0  0  0  0  0  0
  191.7470  176.7970  145.3930 N   0  0  0  0  0  2  0  0  0  0  0  0
  189.0740  178.3130  148.6590 N   0  0  0  0  0  1  0  0  0  0  0  0
  187.2950  177.5990  147.1820 C   0  0  0  0  0  1  0  0  0  0  0  0
  188.7080  177.3250  147.6620 C   0  0  1  0  0  3  0  0  0  0  0  0
  185.9870  178.8020  140.9280 C   0  0  0  0  0  2  0  0  0  0  0  0
  183.9680  178.3180  142.2500 C   0  0  0  0  0  3  0  0  0  0  0  0
  185.0210  179.1040  142.0300 C   0  0  0  0  0  3  0  0  0  0  0  0
  181.9020  179.3080  142.8280 O   0  0  0  0  0  1  0  0  0  0  0  0
  183.0030  178.6280  143.3500 C   0  0  2  0  0  3  0  0  0  0  0  0
  184.2420  178.6300  145.5140 C   0  0  0  0  0  1  0  0  0  0  0  0
  183.6720  179.4920  144.4030 C   0  0  0  0  0  2  0  0  0  0  0  0
  190.6710  177.5020  140.1800 N   0  0  0  0  0  2  0  0  0  0  0  0
  190.8900  176.4270  139.2260 C   0  0  0  0  0  2  0  0  0  0  0  0
  190.6260  176.9120  137.8790 N   0  0  0  0  0  2  0  0  0  0  0  0
  188.9050  178.3820  137.0910 C   0  0  0  0  0  3  0  0  0  0  0  0
  186.4410  178.2580  137.2660 C   0  0  0  0  0  3  0  0  0  0  0  0
  186.2280  176.9760  137.5600 C   0  0  0  0  0  3  0  0  0  0  0  0
  188.4700  175.9410  137.1230 C   0  0  0  0  0  3  0  0  0  0  0  0
  187.6000  178.7190  136.4480 C   0  0  0  0  0  2  0  0  0  0  0  0
  189.3100  177.1340  137.3630 C   0  0  0  0  0  0  0  0  0  0  0  0
  187.1370  175.8690  137.2120 C   0  0  0  0  0  3  0  0  0  0  0  0
  1  7  1  0  0  0  0
  1  6  1  0  0  0  0
  2  1  2  0  0  0  0
  3  2  1  0  0  0  0
  3  4  2  0  0  0  0
  4  5  1  0  0  0  0
  5  6  2  0  0  0  0
  7  8  1  0  0  0  0
  8 12  1  0  0  0  0
 10 15  1  0  0  0  0
 11 10  1  0  0  0  0
 11  9  2  0  0  0  0
 12 11  1  0  0  0  0
 15 14  1  6  0  0  0
 15 13  1  0  0  0  0
 16  4  1  0  0  0  0
 16 18  1  0  0  0  0
 17 20  1  0  0  0  0
 18 17  2  0  0  0  0
 20 19  1  6  0  0  0
 20 22  1  0  0  0  0
 22 21  1  0  0  0  0
 23  2  1  0  0  0  0
 24 23  1  0  0  0  0
 25 24  1  0  0  0  0
 26 31  2  0  0  0  0
 27 28  2  0  0  0  0
 29 32  2  0  0  0  0
 29 31  1  0  0  0  0
 30 26  1  0  0  0  0
 30 27  1  0  0  0  0
 31 25  1  0  0  0  0
 32 28  1  0  0  0  0
M  END
>  <MODEL>
6

>  <REMARK>
 VINA RESULT:      -8.0      3.082      7.187
  Name = 
  12 active torsions:
  status: ('A' for Active; 'I' for Inactive)
    1  A    between atoms: N_1  and  C_25
    2  A    between atoms: N_1  and  C_32
    3  A    between atoms: C_2  and  C_27
    4  A    between atoms: C_3  and  C_16
    5  A    between atoms: C_6  and  N_31
    6  A    between atoms: C_10  and  C_19
    7  A    between atoms: N_14  and  C_18
    8  A    between atoms: C_16  and  C_23
    9  A    between atoms: C_19  and  C_24
   10  A    between atoms: C_20  and  C_27
   11  A    between atoms: C_23  and  N_28
   12  A    between atoms: N_31  and  C_32
                            x       y       z     vdW  Elec       q    Type
                         _______ _______ _______ _____ _____    ______ ____

>  <TORSDO>
F 12

$$$$
=
 OpenBabel10222416363D

 32 33  0  0  1  0  0  0  0  0999 V2000
  186.8540  177.5870  143.6510 C   0  0  0  0  0  0  0  0  0  0  0  0
  186.4150  177.6330  145.0010 C   0  0  0  0  0  0  0  0  0  0  0  0
  185.1760  178.2150  145.2900 C   0  0  0  0  0  3  0  0  0  0  0  0
  184.3750  178.7480  144.2760 C   0  0  0  0  0  0  0  0  0  0  0  0
  184.8150  178.7080  142.9530 C   0  0  0  0  0  3  0  0  0  0  0  0
  186.0450  178.1280  142.6440 C   0  0  0  0  0  3  0  0  0  0  0  0
  188.1380  176.9460  143.2250 C   0  0  0  0  0  2  0  0  0  0  0  0
  188.6800  177.5980  141.9620 C   0  0  0  0  0  2  0  0  0  0  0  0
  190.8430  176.0020  139.4880 O   0  0  0  0  0  0  0  0  0  0  0  0
  189.1700  177.5830  139.0860 N   0  0  0  0  0  2  0  0  0  0  0  0
  189.9450  176.7500  139.9570 C   0  0  0  0  0  0  0  0  0  0  0  0
  189.7040  176.7580  141.3630 N   0  0  0  0  0  2  0  0  0  0  0  0
  188.5430  176.6560  136.9960 N   0  0  0  0  0  1  0  0  0  0  0  0
  189.0500  179.0180  137.1250 C   0  0  0  0  0  1  0  0  0  0  0  0
  189.3900  177.6360  137.6490 C   0  0  1  0  0  3  0  0  0  0  0  0
  183.0680  179.3850  144.6110 C   0  0  0  0  0  2  0  0  0  0  0  0
  181.2360  179.2270  142.9750 C   0  0  0  0  0  3  0  0  0  0  0  0
  181.9330  178.6610  143.9600 C   0  0  0  0  0  3  0  0  0  0  0  0
  179.6370  177.5000  143.1880 O   0  0  0  0  0  1  0  0  0  0  0  0
  180.0970  178.5020  142.3320 C   0  0  2  0  0  3  0  0  0  0  0  0
  181.9000  178.4290  140.6100 C   0  0  0  0  0  1  0  0  0  0  0  0
  180.5500  177.8730  141.0260 C   0  0  0  0  0  2  0  0  0  0  0  0
  187.1710  177.1220  146.1090 N   0  0  0  0  0  2  0  0  0  0  0  0
  187.6750  177.8890  147.2370 C   0  0  0  0  0  2  0  0  0  0  0  0
  188.9410  177.3260  147.6810 N   0  0  0  0  0  2  0  0  0  0  0  0
  190.1240  177.8410  145.6600 C   0  0  0  0  0  3  0  0  0  0  0  0
  191.6840  176.4960  144.2910 C   0  0  0  0  0  3  0  0  0  0  0  0
  192.0540  175.5260  145.1260 C   0  0  0  0  0  3  0  0  0  0  0  0
  191.2010  176.3600  147.3330 C   0  0  0  0  0  3  0  0  0  0  0  0
  191.3100  177.8630  144.7530 C   0  0  0  0  0  2  0  0  0  0  0  0
  190.0860  177.1940  146.8330 C   0  0  0  0  0  0  0  0  0  0  0  0
  192.0510  175.6340  146.5970 C   0  0  0  0  0  3  0  0  0  0  0  0
  1  2  1  0  0  0  0
  2  3  2  0  0  0  0
  2 23  1  0  0  0  0
  4 16  1  0  0  0  0
  4  3  1  0  0  0  0
  5  4  2  0  0  0  0
  6  5  1  0  0  0  0
  6  1  2  0  0  0  0
  7  1  1  0  0  0  0
  8  7  1  0  0  0  0
  9 11  2  0  0  0  0
 10 11  1  0  0  0  0
 11 12  1  0  0  0  0
 12  8  1  0  0  0  0
 13 15  1  0  0  0  0
 15 14  1  6  0  0  0
 15 10  1  0  0  0  0
 17 18  2  0  0  0  0
 18 16  1  0  0  0  0
 20 17  1  0  0  0  0
 20 19  1  1  0  0  0
 21 22  1  0  0  0  0
 22 20  1  0  0  0  0
 23 24  1  0  0  0  0
 24 25  1  0  0  0  0
 26 31  2  0  0  0  0
 27 30  1  0  0  0  0
 27 28  2  0  0  0  0
 28 32  1  0  0  0  0
 30 26  1  0  0  0  0
 31 29  1  0  0  0  0
 31 25  1  0  0  0  0
 32 29  2  0  0  0  0
M  END
>  <MODEL>
7

>  <REMARK>
 VINA RESULT:      -7.8      3.058      7.070
  Name = 
  12 active torsions:
  status: ('A' for Active; 'I' for Inactive)
    1  A    between atoms: N_1  and  C_25
    2  A    between atoms: N_1  and  C_32
    3  A    between atoms: C_2  and  C_27
    4  A    between atoms: C_3  and  C_16
    5  A    between atoms: C_6  and  N_31
    6  A    between atoms: C_10  and  C_19
    7  A    between atoms: N_14  and  C_18
    8  A    between atoms: C_16  and  C_23
    9  A    between atoms: C_19  and  C_24
   10  A    between atoms: C_20  and  C_27
   11  A    between atoms: C_23  and  N_28
   12  A    between atoms: N_31  and  C_32
                            x       y       z     vdW  Elec       q    Type
                         _______ _______ _______ _____ _____    ______ ____

>  <TORSDO>
F 12

$$$$
=
 OpenBabel10222416363D

 32 33  0  0  1  0  0  0  0  0999 V2000
  185.9350  178.4600  145.0610 C   0  0  0  0  0  0  0  0  0  0  0  0
  186.1440  178.0450  143.7190 C   0  0  0  0  0  0  0  0  0  0  0  0
  185.0810  178.1250  142.8120 C   0  0  0  0  0  3  0  0  0  0  0  0
  183.8290  178.6010  143.2090 C   0  0  0  0  0  0  0  0  0  0  0  0
  183.6260  178.9990  144.5310 C   0  0  0  0  0  3  0  0  0  0  0  0
  184.6740  178.9320  145.4480 C   0  0  0  0  0  3  0  0  0  0  0  0
  187.0130  178.4620  146.0980 C   0  0  0  0  0  2  0  0  0  0  0  0
  187.3280  177.0460  146.5600 C   0  0  0  0  0  2  0  0  0  0  0  0
  190.7950  177.0920  147.7130 O   0  0  0  0  0  0  0  0  0  0  0  0
  190.0450  177.1360  145.5000 N   0  0  0  0  0  2  0  0  0  0  0  0
  189.8200  177.0930  146.9140 C   0  0  0  0  0  0  0  0  0  0  0  0
  188.4920  177.0490  147.4310 N   0  0  0  0  0  2  0  0  0  0  0  0
  191.5700  176.0900  144.0170 N   0  0  0  0  0  1  0  0  0  0  0  0
  191.5300  178.5060  144.1430 C   0  0  0  0  0  1  0  0  0  0  0  0
  191.3760  177.2110  144.9180 C   0  0  1  0  0  3  0  0  0  0  0  0
  182.7040  178.6540  142.2310 C   0  0  0  0  0  2  0  0  0  0  0  0
  183.1980  179.0340  139.8500 C   0  0  0  0  0  3  0  0  0  0  0  0
  183.1420  178.1890  140.8790 C   0  0  0  0  0  3  0  0  0  0  0  0
  183.1160  177.2870  138.2600 O   0  0  0  0  0  1  0  0  0  0  0  0
  183.6310  178.5620  138.4980 C   0  0  2  0  0  3  0  0  0  0  0  0
  185.5960  177.3610  137.5420 C   0  0  0  0  0  1  0  0  0  0  0  0
  185.1470  178.5100  138.4240 C   0  0  0  0  0  2  0  0  0  0  0  0
  187.3900  177.5330  143.2210 N   0  0  0  0  0  2  0  0  0  0  0  0
  188.3690  178.2630  142.4330 C   0  0  0  0  0  2  0  0  0  0  0  0
  189.1590  177.3260  141.6480 N   0  0  0  0  0  2  0  0  0  0  0  0
  188.7190  178.2570  139.4830 C   0  0  0  0  0  3  0  0  0  0  0  0
  189.2930  177.4600  137.2140 C   0  0  0  0  0  3  0  0  0  0  0  0
  190.2620  176.5750  137.4450 C   0  0  0  0  0  3  0  0  0  0  0  0
  190.8370  177.0190  139.8460 C   0  0  0  0  0  3  0  0  0  0  0  0
  189.0570  178.6480  138.0830 C   0  0  0  0  0  2  0  0  0  0  0  0
  189.5310  177.5540  140.2860 C   0  0  0  0  0  0  0  0  0  0  0  0
  191.1550  176.5900  138.6180 C   0  0  0  0  0  3  0  0  0  0  0  0
  1  6  1  0  0  0  0
  1  7  1  0  0  0  0
  2  1  2  0  0  0  0
  3  4  2  0  0  0  0
  3  2  1  0  0  0  0
  4  5  1  0  0  0  0
  5  6  2  0  0  0  0
  7  8  1  0  0  0  0
  8 12  1  0  0  0  0
 10 11  1  0  0  0  0
 11 12  1  0  0  0  0
 11  9  2  0  0  0  0
 13 15  1  0  0  0  0
 15 14  1  6  0  0  0
 15 10  1  0  0  0  0
 16  4  1  0  0  0  0
 17 18  2  0  0  0  0
 18 16  1  0  0  0  0
 20 19  1  1  0  0  0
 20 17  1  0  0  0  0
 21 22  1  0  0  0  0
 22 20  1  0  0  0  0
 23  2  1  0  0  0  0
 24 23  1  0  0  0  0
 25 24  1  0  0  0  0
 26 31  2  0  0  0  0
 27 28  2  0  0  0  0
 27 30  1  0  0  0  0
 28 32  1  0  0  0  0
 29 31  1  0  0  0  0
 30 26  1  0  0  0  0
 31 25  1  0  0  0  0
 32 29  2  0  0  0  0
M  END
>  <MODEL>
8

>  <REMARK>
 VINA RESULT:      -7.8      2.119      7.076
  Name = 
  12 active torsions:
  status: ('A' for Active; 'I' for Inactive)
    1  A    between atoms: N_1  and  C_25
    2  A    between atoms: N_1  and  C_32
    3  A    between atoms: C_2  and  C_27
    4  A    between atoms: C_3  and  C_16
    5  A    between atoms: C_6  and  N_31
    6  A    between atoms: C_10  and  C_19
    7  A    between atoms: N_14  and  C_18
    8  A    between atoms: C_16  and  C_23
    9  A    between atoms: C_19  and  C_24
   10  A    between atoms: C_20  and  C_27
   11  A    between atoms: C_23  and  N_28
   12  A    between atoms: N_31  and  C_32
                            x       y       z     vdW  Elec       q    Type
                         _______ _______ _______ _____ _____    ______ ____

>  <TORSDO>
F 12

$$$$
=
 OpenBabel10222416363D

 32 33  0  0  1  0  0  0  0  0999 V2000
  184.8520  178.9860  143.5210 C   0  0  0  0  0  0  0  0  0  0  0  0
  185.8550  178.2250  144.1780 C   0  0  0  0  0  0  0  0  0  0  0  0
  186.9770  177.8130  143.4490 C   0  0  0  0  0  3  0  0  0  0  0  0
  187.1170  178.1360  142.0970 C   0  0  0  0  0  0  0  0  0  0  0  0
  186.1230  178.8760  141.4550 C   0  0  0  0  0  3  0  0  0  0  0  0
  185.0010  179.3000  142.1650 C   0  0  0  0  0  3  0  0  0  0  0  0
  183.6370  179.5170  144.2160 C   0  0  0  0  0  2  0  0  0  0  0  0
  182.4380  178.6070  143.9900 C   0  0  0  0  0  2  0  0  0  0  0  0
  180.4060  179.6620  141.1430 O   0  0  0  0  0  0  0  0  0  0  0  0
  182.1490  178.1060  141.1310 N   0  0  0  0  0  2  0  0  0  0  0  0
  181.2920  179.0440  141.7920 C   0  0  0  0  0  0  0  0  0  0  0  0
  181.4340  179.2890  143.1900 N   0  0  0  0  0  2  0  0  0  0  0  0
  183.0720  178.4920  138.9810 N   0  0  0  0  0  1  0  0  0  0  0  0
  182.1810  176.3020  139.4970 C   0  0  0  0  0  1  0  0  0  0  0  0
  182.0310  177.7960  139.7140 C   0  0  1  0  0  3  0  0  0  0  0  0
  188.3100  177.6660  141.3340 C   0  0  0  0  0  2  0  0  0  0  0  0
  188.3380  177.6410  138.8730 C   0  0  0  0  0  3  0  0  0  0  0  0
  188.4020  178.3430  140.0040 C   0  0  0  0  0  3  0  0  0  0  0  0
  188.9760  179.5990  137.7140 O   0  0  0  0  0  1  0  0  0  0  0  0
  188.4360  178.3230  137.5460 C   0  0  2  0  0  3  0  0  0  0  0  0
  187.1110  178.0600  135.4490 C   0  0  0  0  0  1  0  0  0  0  0  0
  187.0590  178.4420  136.9170 C   0  0  0  0  0  2  0  0  0  0  0  0
  185.7950  177.8360  145.5580 N   0  0  0  0  0  2  0  0  0  0  0  0
  186.6470  178.3240  146.6300 C   0  0  0  0  0  2  0  0  0  0  0  0
  187.6420  177.3150  146.9590 N   0  0  0  0  0  2  0  0  0  0  0  0
  189.3420  177.7120  145.3150 C   0  0  0  0  0  3  0  0  0  0  0  0
  191.6030  176.7500  145.0350 C   0  0  0  0  0  3  0  0  0  0  0  0
  191.8550  176.2290  146.2350 C   0  0  0  0  0  3  0  0  0  0  0  0
  190.0250  177.2070  147.6450 C   0  0  0  0  0  3  0  0  0  0  0  0
  190.7370  177.9490  144.8390 C   0  0  0  0  0  2  0  0  0  0  0  0
  189.0190  177.4120  146.5810 C   0  0  0  0  0  0  0  0  0  0  0  0
  191.2510  176.6900  147.4980 C   0  0  0  0  0  3  0  0  0  0  0  0
  1  2  1  0  0  0  0
  1  7  1  0  0  0  0
  2 23  1  0  0  0  0
  3  2  2  0  0  0  0
  4  3  1  0  0  0  0
  5  4  2  0  0  0  0
  5  6  1  0  0  0  0
  6  1  2  0  0  0  0
  8  7  1  0  0  0  0
  9 11  2  0  0  0  0
 10 11  1  0  0  0  0
 11 12  1  0  0  0  0
 12  8  1  0  0  0  0
 13 15  1  0  0  0  0
 15 14  1  1  0  0  0
 15 10  1  0  0  0  0
 16  4  1  0  0  0  0
 17 18  2  0  0  0  0
 18 16  1  0  0  0  0
 20 19  1  1  0  0  0
 20 17  1  0  0  0  0
 21 22  1  0  0  0  0
 22 20  1  0  0  0  0
 23 24  1  0  0  0  0
 24 25  1  0  0  0  0
 26 31  2  0  0  0  0
 27 28  2  0  0  0  0
 28 32  1  0  0  0  0
 30 27  1  0  0  0  0
 30 26  1  0  0  0  0
 31 25  1  0  0  0  0
 31 29  1  0  0  0  0
 32 29  2  0  0  0  0
M  END
>  <MODEL>
9

>  <REMARK>
 VINA RESULT:      -7.8      2.821      6.230
  Name = 
  12 active torsions:
  status: ('A' for Active; 'I' for Inactive)
    1  A    between atoms: N_1  and  C_25
    2  A    between atoms: N_1  and  C_32
    3  A    between atoms: C_2  and  C_27
    4  A    between atoms: C_3  and  C_16
    5  A    between atoms: C_6  and  N_31
    6  A    between atoms: C_10  and  C_19
    7  A    between atoms: N_14  and  C_18
    8  A    between atoms: C_16  and  C_23
    9  A    between atoms: C_19  and  C_24
   10  A    between atoms: C_20  and  C_27
   11  A    between atoms: C_23  and  N_28
   12  A    between atoms: N_31  and  C_32
                            x       y       z     vdW  Elec       q    Type
                         _______ _______ _______ _____ _____    ______ ____

>  <TORSDO>
F 12

$$$$
