=
 OpenBabel10222416093D

 26 28  0  0  1  0  0  0  0  0999 V2000
  188.6480  177.5450  147.3130 C   0  0  0  0  0  3  0  0  0  0  0  0
  185.3290  179.0600  147.0530 N   0  0  0  0  0  2  0  0  0  0  0  0
  184.6380  179.0460  145.9170 N   0  0  0  0  0  0  0  0  0  0  0  0
  186.5100  178.4630  146.8140 C   0  0  0  0  0  0  0  0  0  0  0  0
  185.3830  178.4450  144.9610 C   0  0  0  0  0  0  0  0  0  0  0  0
  187.5080  178.2320  147.7430 C   0  0  0  0  0  3  0  0  0  0  0  0
  188.7760  177.1190  145.9710 C   0  0  0  0  0  0  0  0  0  0  0  0
  187.7590  177.3890  145.0260 C   0  0  0  0  0  0  0  0  0  0  0  0
  186.6070  178.0580  145.5000 C   0  0  0  0  0  0  0  0  0  0  0  0
  184.8990  178.2000  143.6420 N   0  0  0  0  0  2  0  0  0  0  0  0
  184.6290  179.2240  142.7930 O   0  0  0  0  0  1  0  0  0  0  0  0
  187.9420  176.9580  143.6670 N   0  0  0  0  0  2  0  0  0  0  0  0
  188.6690  177.6420  142.6060 C   0  0  2  0  0  3  0  0  0  0  0  0
  187.6950  178.0110  141.4950 C   0  0  0  0  0  2  0  0  0  0  0  0
  188.4640  178.6770  140.3570 C   0  0  0  0  0  2  0  0  0  0  0  0
  189.7750  176.7690  142.0720 C   0  0  0  0  0  3  0  0  0  0  0  0
  190.1900  176.8470  140.7980 C   0  0  0  0  0  3  0  0  0  0  0  0
  189.5450  177.7520  139.7700 C   0  0  1  0  0  3  0  0  0  0  0  0
  189.0290  176.9810  138.7210 O   0  0  0  0  0  0  0  0  0  0  0  0
  189.1110  178.4240  136.8270 C   0  0  0  0  0  1  0  0  0  0  0  0
  189.7970  177.3140  137.6000 C   0  0  0  0  0  2  0  0  0  0  0  0
  190.0070  176.3530  145.5890 C   0  0  0  0  0  2  0  0  0  0  0  0
  191.5820  178.0220  144.8800 O   0  0  0  0  0  0  0  0  0  0  0  0
  191.2630  177.1650  145.7510 C   0  0  0  0  0  0  0  0  0  0  0  0
  192.0990  176.9810  146.8570 O   0  0  0  0  0  0  0  0  0  0  0  0
  192.2310  175.7250  147.5100 C   0  0  0  0  0  1  0  0  0  0  0  0
  1  6  1  0  0  0  0
  3  2  1  0  0  0  0
  4  2  1  0  0  0  0
  4  6  2  0  0  0  0
  5  9  1  0  0  0  0
  5  3  2  0  0  0  0
  7  1  2  0  0  0  0
  8  9  2  0  0  0  0
  8  7  1  0  0  0  0
  9  4  1  0  0  0  0
 10  5  1  0  0  0  0
 11 10  1  0  0  0  0
 12  8  1  0  0  0  0
 13 12  1  1  0  0  0
 14 13  1  0  0  0  0
 15 14  1  0  0  0  0
 16 13  1  0  0  0  0
 17 16  2  0  0  0  0
 18 19  1  6  0  0  0
 18 15  1  0  0  0  0
 18 17  1  0  0  0  0
 20 21  1  0  0  0  0
 21 19  1  0  0  0  0
 22 24  1  0  0  0  0
 22  7  1  0  0  0  0
 23 24  2  0  0  0  0
 24 25  1  0  0  0  0
 25 26  1  0  0  0  0
M  END
>  <MODEL>
1

>  <REMARK>
 VINA RESULT:      -8.0      0.000      0.000
  Name = 
  8 active torsions:
  status: ('A' for Active; 'I' for Inactive)
    1  A    between atoms: O_4  and  C_17
    2  A    between atoms: O_6  and  C_23
    3  A    between atoms: O_6  and  C_25
    4  A    between atoms: C_7  and  N_21
    5  A    between atoms: C_11  and  N_13
    6  A    between atoms: C_17  and  C_22
    7  A    between atoms: C_20  and  C_22
    8  A    between atoms: N_21  and  C_24
                            x       y       z     vdW  Elec       q    Type
                         _______ _______ _______ _____ _____    ______ ____

>  <TORSDO>
F 8

$$$$
=
 OpenBabel10222416093D

 26 28  0  0  1  0  0  0  0  0999 V2000
  187.6910  177.9080  147.5080 C   0  0  0  0  0  3  0  0  0  0  0  0
  191.2490  177.1540  147.8890 N   0  0  0  0  0  2  0  0  0  0  0  0
  191.9970  176.7610  146.8630 N   0  0  0  0  0  0  0  0  0  0  0  0
  189.9940  177.3140  147.4360 C   0  0  0  0  0  0  0  0  0  0  0  0
  191.2150  176.6680  145.7630 C   0  0  0  0  0  0  0  0  0  0  0  0
  188.9110  177.7550  148.1740 C   0  0  0  0  0  3  0  0  0  0  0  0
  187.5710  177.6050  146.1330 C   0  0  0  0  0  0  0  0  0  0  0  0
  188.6810  177.1270  145.3980 C   0  0  0  0  0  0  0  0  0  0  0  0
  189.9070  177.0120  146.0930 C   0  0  0  0  0  0  0  0  0  0  0  0
  191.7270  176.3430  144.4720 N   0  0  0  0  0  2  0  0  0  0  0  0
  192.0800  175.0710  144.1580 O   0  0  0  0  0  1  0  0  0  0  0  0
  188.5080  176.8080  144.0070 N   0  0  0  0  0  2  0  0  0  0  0  0
  188.8710  177.6220  142.8550 C   0  0  2  0  0  3  0  0  0  0  0  0
  187.6130  177.9480  142.0600 C   0  0  0  0  0  2  0  0  0  0  0  0
  187.9980  178.7520  140.8220 C   0  0  0  0  0  2  0  0  0  0  0  0
  189.8720  176.9010  141.9900 C   0  0  0  0  0  3  0  0  0  0  0  0
  189.9330  177.0930  140.6620 C   0  0  0  0  0  3  0  0  0  0  0  0
  188.9660  177.9800  139.9080 C   0  0  1  0  0  3  0  0  0  0  0  0
  188.2640  177.2180  138.9650 O   0  0  0  0  0  0  0  0  0  0  0  0
  189.0160  178.7250  137.2800 C   0  0  0  0  0  1  0  0  0  0  0  0
  187.8210  178.1320  138.0020 C   0  0  0  0  0  2  0  0  0  0  0  0
  186.2430  177.8310  145.4740 C   0  0  0  0  0  2  0  0  0  0  0  0
  185.9220  179.6240  147.0380 O   0  0  0  0  0  0  0  0  0  0  0  0
  185.3920  178.8210  146.2210 C   0  0  0  0  0  0  0  0  0  0  0  0
  184.0070  178.8650  146.0310 O   0  0  0  0  0  0  0  0  0  0  0  0
  183.4190  178.9080  144.7370 C   0  0  0  0  0  1  0  0  0  0  0  0
  1  6  1  0  0  0  0
  3  2  1  0  0  0  0
  4  2  1  0  0  0  0
  4  6  2  0  0  0  0
  5  9  1  0  0  0  0
  5  3  2  0  0  0  0
  7  1  2  0  0  0  0
  8  9  2  0  0  0  0
  8  7  1  0  0  0  0
  9  4  1  0  0  0  0
 10  5  1  0  0  0  0
 11 10  1  0  0  0  0
 12  8  1  0  0  0  0
 13 12  1  1  0  0  0
 14 13  1  0  0  0  0
 15 14  1  0  0  0  0
 16 13  1  0  0  0  0
 17 16  2  0  0  0  0
 18 19  1  6  0  0  0
 18 17  1  0  0  0  0
 18 15  1  0  0  0  0
 20 21  1  0  0  0  0
 21 19  1  0  0  0  0
 22  7  1  0  0  0  0
 22 24  1  0  0  0  0
 24 23  2  0  0  0  0
 25 24  1  0  0  0  0
 26 25  1  0  0  0  0
M  END
>  <MODEL>
2

>  <REMARK>
 VINA RESULT:      -7.9      2.226      4.646
  Name = 
  8 active torsions:
  status: ('A' for Active; 'I' for Inactive)
    1  A    between atoms: O_4  and  C_17
    2  A    between atoms: O_6  and  C_23
    3  A    between atoms: O_6  and  C_25
    4  A    between atoms: C_7  and  N_21
    5  A    between atoms: C_11  and  N_13
    6  A    between atoms: C_17  and  C_22
    7  A    between atoms: C_20  and  C_22
    8  A    between atoms: N_21  and  C_24
                            x       y       z     vdW  Elec       q    Type
                         _______ _______ _______ _____ _____    ______ ____

>  <TORSDO>
F 8

$$$$
=
 OpenBabel10222416093D

 26 28  0  0  1  0  0  0  0  0999 V2000
  190.9910  176.7880  143.1630 C   0  0  0  0  0  3  0  0  0  0  0  0
  191.6770  176.9940  146.7500 N   0  0  0  0  0  2  0  0  0  0  0  0
  190.7000  177.0180  147.6510 N   0  0  0  0  0  0  0  0  0  0  0  0
  191.1030  176.9530  145.5350 C   0  0  0  0  0  0  0  0  0  0  0  0
  189.5100  176.9950  147.0060 C   0  0  0  0  0  0  0  0  0  0  0  0
  191.7670  176.8760  144.3240 C   0  0  0  0  0  3  0  0  0  0  0  0
  189.5790  176.7940  143.2320 C   0  0  0  0  0  0  0  0  0  0  0  0
  188.9150  176.9030  144.4760 C   0  0  0  0  0  0  0  0  0  0  0  0
  189.7280  176.9600  145.6320 C   0  0  0  0  0  0  0  0  0  0  0  0
  188.2600  176.9340  147.6890 N   0  0  0  0  0  2  0  0  0  0  0  0
  188.0340  177.6710  148.8060 O   0  0  0  0  0  1  0  0  0  0  0  0
  187.4780  176.9290  144.4960 N   0  0  0  0  0  2  0  0  0  0  0  0
  186.6090  178.0980  144.4710 C   0  0  2  0  0  3  0  0  0  0  0  0
  185.6820  178.0530  145.6790 C   0  0  0  0  0  2  0  0  0  0  0  0
  184.7320  179.2460  145.6240 C   0  0  0  0  0  2  0  0  0  0  0  0
  185.8110  178.1390  143.1940 C   0  0  0  0  0  3  0  0  0  0  0  0
  184.5870  178.6880  143.1370 C   0  0  0  0  0  3  0  0  0  0  0  0
  183.8700  179.2420  144.3490 C   0  0  1  0  0  3  0  0  0  0  0  0
  182.6760  178.5380  144.5540 O   0  0  0  0  0  0  0  0  0  0  0  0
  180.3910  178.5750  143.8840 C   0  0  0  0  0  1  0  0  0  0  0  0
  181.8160  178.9590  143.5350 C   0  0  0  0  0  2  0  0  0  0  0  0
  188.8100  176.6550  141.9520 C   0  0  0  0  0  2  0  0  0  0  0  0
  188.4190  178.9440  141.3370 O   0  0  0  0  0  0  0  0  0  0  0  0
  188.9760  177.8480  141.0500 C   0  0  0  0  0  0  0  0  0  0  0  0
  189.7400  177.7630  139.8810 O   0  0  0  0  0  0  0  0  0  0  0  0
  190.4430  176.5820  139.5160 C   0  0  0  0  0  1  0  0  0  0  0  0
  1  7  2  0  0  0  0
  1  6  1  0  0  0  0
  2  3  1  0  0  0  0
  4  9  1  0  0  0  0
  4  2  1  0  0  0  0
  5  3  2  0  0  0  0
  5 10  1  0  0  0  0
  6  4  2  0  0  0  0
  7  8  1  0  0  0  0
  8 12  1  0  0  0  0
  8  9  2  0  0  0  0
  9  5  1  0  0  0  0
 10 11  1  0  0  0  0
 13 12  1  6  0  0  0
 13 14  1  0  0  0  0
 15 14  1  0  0  0  0
 16 13  1  0  0  0  0
 17 16  2  0  0  0  0
 17 18  1  0  0  0  0
 18 19  1  1  0  0  0
 18 15  1  0  0  0  0
 21 20  1  0  0  0  0
 21 19  1  0  0  0  0
 22  7  1  0  0  0  0
 24 23  2  0  0  0  0
 24 22  1  0  0  0  0
 25 24  1  0  0  0  0
 26 25  1  0  0  0  0
M  END
>  <MODEL>
3

>  <REMARK>
 VINA RESULT:      -7.9      2.575      6.115
  Name = 
  8 active torsions:
  status: ('A' for Active; 'I' for Inactive)
    1  A    between atoms: O_4  and  C_17
    2  A    between atoms: O_6  and  C_23
    3  A    between atoms: O_6  and  C_25
    4  A    between atoms: C_7  and  N_21
    5  A    between atoms: C_11  and  N_13
    6  A    between atoms: C_17  and  C_22
    7  A    between atoms: C_20  and  C_22
    8  A    between atoms: N_21  and  C_24
                            x       y       z     vdW  Elec       q    Type
                         _______ _______ _______ _____ _____    ______ ____

>  <TORSDO>
F 8

$$$$
=
 OpenBabel10222416093D

 26 28  0  0  1  0  0  0  0  0999 V2000
  185.4950  178.4870  145.9590 C   0  0  0  0  0  3  0  0  0  0  0  0
  188.1250  178.3870  148.4990 N   0  0  0  0  0  2  0  0  0  0  0  0
  189.3410  177.9220  148.2310 N   0  0  0  0  0  0  0  0  0  0  0  0
  187.3890  178.2560  147.3810 C   0  0  0  0  0  0  0  0  0  0  0  0
  189.3730  177.4940  146.9480 C   0  0  0  0  0  0  0  0  0  0  0  0
  186.0760  178.6600  147.2200 C   0  0  0  0  0  3  0  0  0  0  0  0
  186.2240  177.9050  144.8970 C   0  0  0  0  0  0  0  0  0  0  0  0
  187.5560  177.4700  145.0860 C   0  0  0  0  0  0  0  0  0  0  0  0
  188.1240  177.6870  146.3640 C   0  0  0  0  0  0  0  0  0  0  0  0
  190.5580  177.0060  146.3230 N   0  0  0  0  0  2  0  0  0  0  0  0
  191.7210  176.8940  147.0140 O   0  0  0  0  0  1  0  0  0  0  0  0
  188.2520  176.8620  143.9850 N   0  0  0  0  0  2  0  0  0  0  0  0
  189.0170  177.5260  142.9390 C   0  0  2  0  0  3  0  0  0  0  0  0
  188.3650  177.2430  141.5920 C   0  0  0  0  0  2  0  0  0  0  0  0
  189.1970  177.8900  140.4880 C   0  0  0  0  0  2  0  0  0  0  0  0
  190.4470  177.0530  142.9450 C   0  0  0  0  0  3  0  0  0  0  0  0
  191.1860  177.0080  141.8250 C   0  0  0  0  0  3  0  0  0  0  0  0
  190.6380  177.3490  140.4560 C   0  0  1  0  0  3  0  0  0  0  0  0
  190.7350  176.2320  139.6170 O   0  0  0  0  0  0  0  0  0  0  0  0
  192.3580  176.3270  137.8770 C   0  0  0  0  0  1  0  0  0  0  0  0
  190.9760  176.7460  138.3380 C   0  0  0  0  0  2  0  0  0  0  0  0
  185.5520  177.7870  143.5620 C   0  0  0  0  0  2  0  0  0  0  0  0
  185.7160  179.6950  142.1130 O   0  0  0  0  0  0  0  0  0  0  0  0
  185.0800  179.1160  143.0370 C   0  0  0  0  0  0  0  0  0  0  0  0
  183.9410  179.7320  143.5640 O   0  0  0  0  0  0  0  0  0  0  0  0
  182.6920  179.0600  143.6690 C   0  0  0  0  0  1  0  0  0  0  0  0
  1  6  1  0  0  0  0
  3  2  1  0  0  0  0
  4  2  1  0  0  0  0
  5  3  2  0  0  0  0
  6  4  2  0  0  0  0
  7  8  1  0  0  0  0
  7  1  2  0  0  0  0
  8  9  2  0  0  0  0
  9  5  1  0  0  0  0
  9  4  1  0  0  0  0
 10  5  1  0  0  0  0
 10 11  1  0  0  0  0
 12  8  1  0  0  0  0
 13 16  1  0  0  0  0
 13 12  1  1  0  0  0
 14 13  1  0  0  0  0
 15 14  1  0  0  0  0
 17 16  2  0  0  0  0
 18 19  1  6  0  0  0
 18 15  1  0  0  0  0
 18 17  1  0  0  0  0
 20 21  1  0  0  0  0
 21 19  1  0  0  0  0
 22  7  1  0  0  0  0
 23 24  2  0  0  0  0
 24 22  1  0  0  0  0
 24 25  1  0  0  0  0
 25 26  1  0  0  0  0
M  END
>  <MODEL>
4

>  <REMARK>
 VINA RESULT:      -7.7      1.905      4.618
  Name = 
  8 active torsions:
  status: ('A' for Active; 'I' for Inactive)
    1  A    between atoms: O_4  and  C_17
    2  A    between atoms: O_6  and  C_23
    3  A    between atoms: O_6  and  C_25
    4  A    between atoms: C_7  and  N_21
    5  A    between atoms: C_11  and  N_13
    6  A    between atoms: C_17  and  C_22
    7  A    between atoms: C_20  and  C_22
    8  A    between atoms: N_21  and  C_24
                            x       y       z     vdW  Elec       q    Type
                         _______ _______ _______ _____ _____    ______ ____

>  <TORSDO>
F 8

$$$$
=
 OpenBabel10222416093D

 26 28  0  0  1  0  0  0  0  0999 V2000
  187.8460  177.7790  146.5850 C   0  0  0  0  0  3  0  0  0  0  0  0
  184.5070  179.0320  145.7750 N   0  0  0  0  0  2  0  0  0  0  0  0
  183.9950  178.9260  144.5530 N   0  0  0  0  0  0  0  0  0  0  0  0
  185.7480  178.5170  145.7380 C   0  0  0  0  0  0  0  0  0  0  0  0
  184.9130  178.3490  143.7430 C   0  0  0  0  0  0  0  0  0  0  0  0
  186.6110  178.3940  146.8120 C   0  0  0  0  0  3  0  0  0  0  0  0
  188.2010  177.3160  145.2970 C   0  0  0  0  0  0  0  0  0  0  0  0
  187.3200  177.4750  144.2020 C   0  0  0  0  0  0  0  0  0  0  0  0
  186.0670  178.0730  144.4720 C   0  0  0  0  0  0  0  0  0  0  0  0
  184.6490  178.0230  142.3800 N   0  0  0  0  0  2  0  0  0  0  0  0
  184.4850  178.9930  141.4460 O   0  0  0  0  0  1  0  0  0  0  0  0
  187.7310  177.0120  142.9050 N   0  0  0  0  0  2  0  0  0  0  0  0
  188.6090  177.6830  141.9570 C   0  0  2  0  0  3  0  0  0  0  0  0
  187.8360  177.9570  140.6730 C   0  0  0  0  0  2  0  0  0  0  0  0
  188.7690  178.6090  139.6570 C   0  0  0  0  0  2  0  0  0  0  0  0
  189.8270  176.8430  141.6730 C   0  0  0  0  0  3  0  0  0  0  0  0
  190.4600  176.8860  140.4890 C   0  0  0  0  0  3  0  0  0  0  0  0
  189.9740  177.7130  139.3190 C   0  0  1  0  0  3  0  0  0  0  0  0
  189.6850  176.8740  138.2350 O   0  0  0  0  0  0  0  0  0  0  0  0
  190.2860  174.7580  137.3200 C   0  0  0  0  0  1  0  0  0  0  0  0
  190.6790  175.8890  138.2520 C   0  0  0  0  0  2  0  0  0  0  0  0
  189.5250  176.6310  145.1340 C   0  0  0  0  0  2  0  0  0  0  0  0
  190.7590  178.6140  144.5790 O   0  0  0  0  0  0  0  0  0  0  0  0
  190.6850  177.5750  145.2920 C   0  0  0  0  0  0  0  0  0  0  0  0
  191.6980  177.3170  146.2200 O   0  0  0  0  0  0  0  0  0  0  0  0
  192.0170  176.0010  146.6520 C   0  0  0  0  0  1  0  0  0  0  0  0
  1  6  1  0  0  0  0
  3  2  1  0  0  0  0
  4  2  1  0  0  0  0
  4  6  2  0  0  0  0
  5  9  1  0  0  0  0
  5  3  2  0  0  0  0
  7  1  2  0  0  0  0
  8  9  2  0  0  0  0
  8  7  1  0  0  0  0
  9  4  1  0  0  0  0
 10  5  1  0  0  0  0
 11 10  1  0  0  0  0
 12  8  1  0  0  0  0
 13 12  1  1  0  0  0
 14 13  1  0  0  0  0
 15 14  1  0  0  0  0
 16 13  1  0  0  0  0
 17 16  2  0  0  0  0
 18 19  1  6  0  0  0
 18 15  1  0  0  0  0
 18 17  1  0  0  0  0
 19 21  1  0  0  0  0
 20 21  1  0  0  0  0
 22 24  1  0  0  0  0
 22  7  1  0  0  0  0
 23 24  2  0  0  0  0
 24 25  1  0  0  0  0
 25 26  1  0  0  0  0
M  END
>  <MODEL>
5

>  <REMARK>
 VINA RESULT:      -7.7      1.072      1.294
  Name = 
  8 active torsions:
  status: ('A' for Active; 'I' for Inactive)
    1  A    between atoms: O_4  and  C_17
    2  A    between atoms: O_6  and  C_23
    3  A    between atoms: O_6  and  C_25
    4  A    between atoms: C_7  and  N_21
    5  A    between atoms: C_11  and  N_13
    6  A    between atoms: C_17  and  C_22
    7  A    between atoms: C_20  and  C_22
    8  A    between atoms: N_21  and  C_24
                            x       y       z     vdW  Elec       q    Type
                         _______ _______ _______ _____ _____    ______ ____

>  <TORSDO>
F 8

$$$$
=
 OpenBabel10222416093D

 26 28  0  0  1  0  0  0  0  0999 V2000
  184.6420  179.5680  143.1150 C   0  0  0  0  0  3  0  0  0  0  0  0
  184.8920  179.0580  146.7280 N   0  0  0  0  0  2  0  0  0  0  0  0
  185.7980  178.2430  147.2600 N   0  0  0  0  0  0  0  0  0  0  0  0
  185.0330  178.9980  145.3920 C   0  0  0  0  0  0  0  0  0  0  0  0
  186.5070  177.6660  146.2630 C   0  0  0  0  0  0  0  0  0  0  0  0
  184.3120  179.7280  144.4640 C   0  0  0  0  0  3  0  0  0  0  0  0
  185.6660  178.6780  142.7180 C   0  0  0  0  0  0  0  0  0  0  0  0
  186.3750  177.9170  143.6770 C   0  0  0  0  0  0  0  0  0  0  0  0
  186.0380  178.1250  145.0350 C   0  0  0  0  0  0  0  0  0  0  0  0
  187.6100  176.7940  146.5000 N   0  0  0  0  0  2  0  0  0  0  0  0
  188.3940  176.9370  147.5980 O   0  0  0  0  0  1  0  0  0  0  0  0
  187.3930  177.0070  143.2270 N   0  0  0  0  0  2  0  0  0  0  0  0
  188.8180  177.2680  143.0780 C   0  0  2  0  0  3  0  0  0  0  0  0
  189.5580  175.9400  142.9830 C   0  0  0  0  0  2  0  0  0  0  0  0
  191.0570  176.2090  142.8840 C   0  0  0  0  0  2  0  0  0  0  0  0
  189.3340  178.0800  144.2370 C   0  0  0  0  0  3  0  0  0  0  0  0
  190.5980  177.9700  144.6760 C   0  0  0  0  0  3  0  0  0  0  0  0
  191.5900  176.9780  144.1060 C   0  0  1  0  0  3  0  0  0  0  0  0
  192.0040  176.0950  145.1110 O   0  0  0  0  0  0  0  0  0  0  0  0
  191.9550  175.7780  147.4720 C   0  0  0  0  0  1  0  0  0  0  0  0
  191.6710  176.7200  146.3180 C   0  0  0  0  0  2  0  0  0  0  0  0
  185.9950  178.5860  141.2580 C   0  0  0  0  0  2  0  0  0  0  0  0
  184.7100  179.8410  139.6650 O   0  0  0  0  0  0  0  0  0  0  0  0
  184.7910  178.8070  140.3840 C   0  0  0  0  0  0  0  0  0  0  0  0
  183.7440  177.8800  140.3570 O   0  0  0  0  0  0  0  0  0  0  0  0
  182.3790  178.2740  140.4200 C   0  0  0  0  0  1  0  0  0  0  0  0
  1  6  1  0  0  0  0
  2  3  1  0  0  0  0
  4  2  1  0  0  0  0
  5 10  1  0  0  0  0
  5  3  2  0  0  0  0
  6  4  2  0  0  0  0
  7  1  2  0  0  0  0
  7  8  1  0  0  0  0
  8  9  2  0  0  0  0
  9  4  1  0  0  0  0
  9  5  1  0  0  0  0
 10 11  1  0  0  0  0
 12  8  1  0  0  0  0
 13 12  1  1  0  0  0
 13 16  1  0  0  0  0
 14 13  1  0  0  0  0
 15 14  1  0  0  0  0
 15 18  1  0  0  0  0
 16 17  2  0  0  0  0
 18 17  1  0  0  0  0
 18 19  1  1  0  0  0
 19 21  1  0  0  0  0
 21 20  1  0  0  0  0
 22  7  1  0  0  0  0
 23 24  2  0  0  0  0
 24 22  1  0  0  0  0
 25 24  1  0  0  0  0
 25 26  1  0  0  0  0
M  END
>  <MODEL>
6

>  <REMARK>
 VINA RESULT:      -7.5      2.515      6.056
  Name = 
  8 active torsions:
  status: ('A' for Active; 'I' for Inactive)
    1  A    between atoms: O_4  and  C_17
    2  A    between atoms: O_6  and  C_23
    3  A    between atoms: O_6  and  C_25
    4  A    between atoms: C_7  and  N_21
    5  A    between atoms: C_11  and  N_13
    6  A    between atoms: C_17  and  C_22
    7  A    between atoms: C_20  and  C_22
    8  A    between atoms: N_21  and  C_24
                            x       y       z     vdW  Elec       q    Type
                         _______ _______ _______ _____ _____    ______ ____

>  <TORSDO>
F 8

$$$$
=
 OpenBabel10222416093D

 26 28  0  0  1  0  0  0  0  0999 V2000
  184.5690  178.7110  143.9850 C   0  0  0  0  0  3  0  0  0  0  0  0
  185.0390  179.4940  140.4440 N   0  0  0  0  0  2  0  0  0  0  0  0
  186.0590  179.0050  139.7460 N   0  0  0  0  0  0  0  0  0  0  0  0
  185.1680  179.0550  141.7080 C   0  0  0  0  0  0  0  0  0  0  0  0
  186.8350  178.2610  140.5690 C   0  0  0  0  0  0  0  0  0  0  0  0
  184.2910  179.3010  142.7490 C   0  0  0  0  0  3  0  0  0  0  0  0
  185.7180  177.9060  144.1630 C   0  0  0  0  0  0  0  0  0  0  0  0
  186.6220  177.6880  143.0970 C   0  0  0  0  0  0  0  0  0  0  0  0
  186.2940  178.2740  141.8520 C   0  0  0  0  0  0  0  0  0  0  0  0
  187.9720  177.5320  140.1130 N   0  0  0  0  0  2  0  0  0  0  0  0
  188.1800  177.3110  138.7900 O   0  0  0  0  0  1  0  0  0  0  0  0
  187.7890  176.8820  143.3290 N   0  0  0  0  0  2  0  0  0  0  0  0
  189.1460  177.3380  143.6020 C   0  0  2  0  0  3  0  0  0  0  0  0
  190.1190  176.2060  143.3030 C   0  0  0  0  0  2  0  0  0  0  0  0
  191.5360  176.6620  143.6420 C   0  0  0  0  0  2  0  0  0  0  0  0
  189.2780  177.7860  145.0340 C   0  0  0  0  0  3  0  0  0  0  0  0
  190.4360  177.6840  145.7070 C   0  0  0  0  0  3  0  0  0  0  0  0
  191.6800  177.0500  145.1240 C   0  0  1  0  0  3  0  0  0  0  0  0
  192.0520  175.9430  145.8970 O   0  0  0  0  0  0  0  0  0  0  0  0
  192.8000  175.6230  148.1360 C   0  0  0  0  0  1  0  0  0  0  0  0
  191.8060  176.3150  147.2230 C   0  0  0  0  0  2  0  0  0  0  0  0
  185.9340  177.2720  145.5050 C   0  0  0  0  0  2  0  0  0  0  0  0
  184.7740  178.7570  146.9930 O   0  0  0  0  0  0  0  0  0  0  0  0
  185.8800  178.2710  146.6280 C   0  0  0  0  0  0  0  0  0  0  0  0
  187.0480  178.6820  147.2790 O   0  0  0  0  0  0  0  0  0  0  0  0
  187.6600  177.9080  148.3030 C   0  0  0  0  0  1  0  0  0  0  0  0
  1  7  1  0  0  0  0
  2  4  1  0  0  0  0
  3  2  1  0  0  0  0
  3  5  2  0  0  0  0
  4  9  2  0  0  0  0
  4  6  1  0  0  0  0
  5  9  1  0  0  0  0
  6  1  2  0  0  0  0
  7 22  1  0  0  0  0
  8 12  1  0  0  0  0
  8  7  2  0  0  0  0
  9  8  1  0  0  0  0
 10  5  1  0  0  0  0
 11 10  1  0  0  0  0
 13 12  1  1  0  0  0
 13 16  1  0  0  0  0
 14 13  1  0  0  0  0
 14 15  1  0  0  0  0
 15 18  1  0  0  0  0
 16 17  2  0  0  0  0
 18 17  1  0  0  0  0
 18 19  1  1  0  0  0
 19 21  1  0  0  0  0
 21 20  1  0  0  0  0
 22 24  1  0  0  0  0
 24 23  2  0  0  0  0
 24 25  1  0  0  0  0
 25 26  1  0  0  0  0
M  END
>  <MODEL>
7

>  <REMARK>
 VINA RESULT:      -7.5      2.444      5.737
  Name = 
  8 active torsions:
  status: ('A' for Active; 'I' for Inactive)
    1  A    between atoms: O_4  and  C_17
    2  A    between atoms: O_6  and  C_23
    3  A    between atoms: O_6  and  C_25
    4  A    between atoms: C_7  and  N_21
    5  A    between atoms: C_11  and  N_13
    6  A    between atoms: C_17  and  C_22
    7  A    between atoms: C_20  and  C_22
    8  A    between atoms: N_21  and  C_24
                            x       y       z     vdW  Elec       q    Type
                         _______ _______ _______ _____ _____    ______ ____

>  <TORSDO>
F 8

$$$$
=
 OpenBabel10222416093D

 26 28  0  0  1  0  0  0  0  0999 V2000
  191.0610  176.8260  145.6230 C   0  0  0  0  0  3  0  0  0  0  0  0
  189.0130  177.9760  148.4270 N   0  0  0  0  0  2  0  0  0  0  0  0
  187.6990  178.1440  148.3140 N   0  0  0  0  0  0  0  0  0  0  0  0
  189.4740  177.5860  147.2260 C   0  0  0  0  0  0  0  0  0  0  0  0
  187.3310  177.8640  147.0430 C   0  0  0  0  0  0  0  0  0  0  0  0
  190.7850  177.2640  146.9220 C   0  0  0  0  0  3  0  0  0  0  0  0
  190.0350  176.7330  144.6550 C   0  0  0  0  0  0  0  0  0  0  0  0
  188.7050  177.0940  144.9730 C   0  0  0  0  0  0  0  0  0  0  0  0
  188.4540  177.5040  146.3030 C   0  0  0  0  0  0  0  0  0  0  0  0
  185.9720  177.8730  146.6100 N   0  0  0  0  0  2  0  0  0  0  0  0
  185.1270  178.8720  146.9710 O   0  0  0  0  0  1  0  0  0  0  0  0
  187.6980  177.0070  143.9500 N   0  0  0  0  0  2  0  0  0  0  0  0
  187.0690  178.1020  143.2250 C   0  0  2  0  0  3  0  0  0  0  0  0
  185.5600  177.8940  143.2220 C   0  0  0  0  0  2  0  0  0  0  0  0
  184.9030  179.0090  142.4140 C   0  0  0  0  0  2  0  0  0  0  0  0
  187.5950  178.1780  141.8150 C   0  0  0  0  0  3  0  0  0  0  0  0
  186.8450  178.6320  140.7990 C   0  0  0  0  0  3  0  0  0  0  0  0
  185.3940  179.0340  140.9550 C   0  0  1  0  0  3  0  0  0  0  0  0
  184.5900  178.2260  140.1420 O   0  0  0  0  0  0  0  0  0  0  0  0
  183.0350  179.6910  139.0890 C   0  0  0  0  0  1  0  0  0  0  0  0
  184.3650  178.9710  138.9800 C   0  0  0  0  0  2  0  0  0  0  0  0
  190.3940  176.2170  143.2940 C   0  0  0  0  0  2  0  0  0  0  0  0
  191.1850  178.4440  142.8680 O   0  0  0  0  0  0  0  0  0  0  0  0
  191.0430  177.2670  142.4340 C   0  0  0  0  0  0  0  0  0  0  0  0
  191.4900  176.9640  141.1440 O   0  0  0  0  0  0  0  0  0  0  0  0
  190.6040  176.8680  140.0350 C   0  0  0  0  0  1  0  0  0  0  0  0
  1  6  1  0  0  0  0
  3  2  1  0  0  0  0
  4  2  1  0  0  0  0
  5  3  2  0  0  0  0
  6  4  2  0  0  0  0
  7  8  1  0  0  0  0
  7  1  2  0  0  0  0
  8  9  2  0  0  0  0
  9  5  1  0  0  0  0
  9  4  1  0  0  0  0
 10 11  1  0  0  0  0
 10  5  1  0  0  0  0
 12  8  1  0  0  0  0
 13 12  1  6  0  0  0
 14 13  1  0  0  0  0
 15 14  1  0  0  0  0
 16 13  1  0  0  0  0
 17 18  1  0  0  0  0
 17 16  2  0  0  0  0
 18 19  1  6  0  0  0
 18 15  1  0  0  0  0
 21 20  1  0  0  0  0
 21 19  1  0  0  0  0
 22  7  1  0  0  0  0
 24 23  2  0  0  0  0
 24 22  1  0  0  0  0
 25 24  1  0  0  0  0
 26 25  1  0  0  0  0
M  END
>  <MODEL>
8

>  <REMARK>
 VINA RESULT:      -7.4      2.402      3.889
  Name = 
  8 active torsions:
  status: ('A' for Active; 'I' for Inactive)
    1  A    between atoms: O_4  and  C_17
    2  A    between atoms: O_6  and  C_23
    3  A    between atoms: O_6  and  C_25
    4  A    between atoms: C_7  and  N_21
    5  A    between atoms: C_11  and  N_13
    6  A    between atoms: C_17  and  C_22
    7  A    between atoms: C_20  and  C_22
    8  A    between atoms: N_21  and  C_24
                            x       y       z     vdW  Elec       q    Type
                         _______ _______ _______ _____ _____    ______ ____

>  <TORSDO>
F 8

$$$$
=
 OpenBabel10222416093D

 26 28  0  0  1  0  0  0  0  0999 V2000
  190.8740  177.1710  144.7990 C   0  0  0  0  0  3  0  0  0  0  0  0
  191.5750  177.4500  141.2200 N   0  0  0  0  0  2  0  0  0  0  0  0
  190.6010  177.5370  140.3190 N   0  0  0  0  0  0  0  0  0  0  0  0
  190.9960  177.3230  142.4270 C   0  0  0  0  0  0  0  0  0  0  0  0
  189.4090  177.4620  140.9550 C   0  0  0  0  0  0  0  0  0  0  0  0
  191.6550  177.2450  143.6410 C   0  0  0  0  0  3  0  0  0  0  0  0
  189.4620  177.1600  144.7230 C   0  0  0  0  0  0  0  0  0  0  0  0
  188.8040  177.2110  143.4720 C   0  0  0  0  0  0  0  0  0  0  0  0
  189.6220  177.3170  142.3230 C   0  0  0  0  0  0  0  0  0  0  0  0
  188.1610  177.6010  140.2810 N   0  0  0  0  0  2  0  0  0  0  0  0
  187.9380  178.6280  139.4220 O   0  0  0  0  0  1  0  0  0  0  0  0
  187.3670  177.1740  143.4410 N   0  0  0  0  0  2  0  0  0  0  0  0
  186.4440  178.2950  143.5530 C   0  0  2  0  0  3  0  0  0  0  0  0
  185.7550  178.2370  144.9100 C   0  0  0  0  0  2  0  0  0  0  0  0
  184.7460  179.3780  145.0080 C   0  0  0  0  0  2  0  0  0  0  0  0
  185.4280  178.2610  142.4410 C   0  0  0  0  0  3  0  0  0  0  0  0
  184.1860  178.7450  142.5980 C   0  0  0  0  0  3  0  0  0  0  0  0
  183.6700  179.2950  143.9110 C   0  0  1  0  0  3  0  0  0  0  0  0
  182.5740  178.5370  144.3410 O   0  0  0  0  0  0  0  0  0  0  0  0
  180.2370  178.2660  143.9680 C   0  0  0  0  0  1  0  0  0  0  0  0
  181.5440  178.8250  143.4390 C   0  0  0  0  0  2  0  0  0  0  0  0
  188.6870  177.1200  146.0060 C   0  0  0  0  0  2  0  0  0  0  0  0
  190.5460  176.3600  147.3240 O   0  0  0  0  0  0  0  0  0  0  0  0
  189.5780  177.1650  147.2170 C   0  0  0  0  0  0  0  0  0  0  0  0
  189.3490  178.0860  148.2440 O   0  0  0  0  0  0  0  0  0  0  0  0
  188.0700  178.2540  148.8440 C   0  0  0  0  0  1  0  0  0  0  0  0
  2  4  1  0  0  0  0
  3  5  2  0  0  0  0
  3  2  1  0  0  0  0
  4  6  1  0  0  0  0
  5  9  1  0  0  0  0
  6  1  2  0  0  0  0
  7  1  1  0  0  0  0
  7 22  1  0  0  0  0
  8  7  2  0  0  0  0
  9  4  2  0  0  0  0
  9  8  1  0  0  0  0
 10  5  1  0  0  0  0
 11 10  1  0  0  0  0
 12  8  1  0  0  0  0
 13 12  1  6  0  0  0
 13 14  1  0  0  0  0
 14 15  1  0  0  0  0
 16 17  2  0  0  0  0
 16 13  1  0  0  0  0
 17 18  1  0  0  0  0
 18 19  1  1  0  0  0
 18 15  1  0  0  0  0
 21 20  1  0  0  0  0
 21 19  1  0  0  0  0
 22 24  1  0  0  0  0
 24 23  2  0  0  0  0
 24 25  1  0  0  0  0
 25 26  1  0  0  0  0
M  END
>  <MODEL>
9

>  <REMARK>
 VINA RESULT:      -7.2      2.458      5.802
  Name = 
  8 active torsions:
  status: ('A' for Active; 'I' for Inactive)
    1  A    between atoms: O_4  and  C_17
    2  A    between atoms: O_6  and  C_23
    3  A    between atoms: O_6  and  C_25
    4  A    between atoms: C_7  and  N_21
    5  A    between atoms: C_11  and  N_13
    6  A    between atoms: C_17  and  C_22
    7  A    between atoms: C_20  and  C_22
    8  A    between atoms: N_21  and  C_24
                            x       y       z     vdW  Elec       q    Type
                         _______ _______ _______ _____ _____    ______ ____

>  <TORSDO>
F 8

$$$$
