=
 OpenBabel10222419043D

 50 51  0  0  1  0  0  0  0  0999 V2000
  184.0080  178.7060  142.9110 C   0  0  1  0  0  3  0  0  0  0  0  0
  185.1170  178.2510  143.8750 C   0  0  1  0  0  3  0  0  0  0  0  0
  186.4460  178.0290  143.1620 C   0  0  0  0  0  1  0  0  0  0  0  0
  185.3530  179.2960  144.9650 C   0  0  0  0  0  2  0  0  0  0  0  0
  185.9290  179.7000  147.2410 F   0  0  0  0  0  0  0  0  0  0  0  0
  184.3230  178.1730  146.8140 F   0  0  0  0  0  0  0  0  0  0  0  0
  185.5170  178.7120  146.3650 C   0  0  0  0  0  0  0  0  0  0  0  0
  186.5860  177.6300  146.3440 C   0  0  0  0  0  2  0  0  0  0  0  0
  187.6270  177.9090  147.3230 N   0  0  0  0  0  2  0  0  0  0  0  0
  188.4340  176.7690  147.3920 N   0  0  0  0  0  2  0  0  0  0  0  0
  189.7950  177.2240  147.6150 C   0  0  0  0  0  2  0  0  0  0  0  0
  191.8350  177.2820  146.4020 O   0  0  0  0  0  0  0  0  0  0  0  0
  190.5920  177.0770  146.3720 C   0  0  0  0  0  0  0  0  0  0  0  0
  189.9440  176.7090  145.1520 N   0  0  0  0  0  2  0  0  0  0  0  0
  191.8810  175.3480  143.9930 O   0  0  0  0  0  0  0  0  0  0  0  0
  190.8210  176.3730  143.6960 S   0  0  0  0  0  0  0  0  0  0  0  0
  191.5960  177.8640  143.1060 C   0  0  0  0  0  1  0  0  0  0  0  0
  189.8890  175.8280  142.6430 O   0  0  0  0  0  0  0  0  0  0  0  0
  184.0640  177.9350  141.5900 C   0  0  0  0  0  2  0  0  0  0  0  0
  184.1450  178.8800  140.4040 C   0  0  0  0  0  2  0  0  0  0  0  0
  183.9180  178.1000  139.1170 C   0  0  0  0  0  2  0  0  0  0  0  0
  182.7010  177.2350  139.2280 C   0  0  0  0  0  3  0  0  0  0  0  0
  181.5710  177.5430  138.5930 C   0  0  0  0  0  3  0  0  0  0  0  0
  180.3720  176.6670  138.7350 C   0  0  0  0  0  2  0  0  0  0  0  0
  180.7750  175.2050  138.8270 C   0  0  0  0  0  2  0  0  0  0  0  0
  180.1960  174.3990  137.6730 C   0  0  0  0  0  2  0  0  0  0  0  0
  181.1320  174.4230  136.4770 C   0  0  0  0  0  2  0  0  0  0  0  0
  183.5670  173.9220  136.7260 C   0  0  0  0  0  0  0  0  0  0  0  0
  184.4670  172.7620  136.9760 C   0  0  0  0  0  3  0  0  0  0  0  0
  182.1960  172.1860  137.0080 O   0  0  0  0  0  0  0  0  0  0  0  0
  183.4810  171.6040  137.1810 C   0  0  0  0  0  3  0  0  0  0  0  0
  182.3070  173.5360  136.7320 C   0  0  0  0  0  0  0  0  0  0  0  0
  184.0410  175.2960  136.3870 C   0  0  0  0  0  2  0  0  0  0  0  0
  185.4050  175.2440  135.8810 N   0  0  0  0  0  2  0  0  0  0  0  0
  185.9830  176.5610  136.0880 C   0  0  0  0  0  2  0  0  0  0  0  0
  186.9610  176.5290  137.2530 C   0  0  0  0  0  2  0  0  0  0  0  0
  187.3180  177.9490  137.6610 C   0  0  0  0  0  2  0  0  0  0  0  0
  190.0740  177.5620  139.5340 C   0  0  0  0  0  2  0  0  0  0  0  0
  189.3620  176.8250  137.3930 C   0  0  0  0  0  2  0  0  0  0  0  0
  188.7610  178.1410  137.5910 N   0  0  0  0  0  0  0  0  0  0  0  0
  189.2020  178.6230  138.8970 C   0  0  0  0  0  2  0  0  0  0  0  0
  190.4800  176.6720  138.3960 C   0  0  0  0  0  2  0  0  0  0  0  0
  182.7430  178.4840  143.5290 O   0  0  0  0  0  0  0  0  0  0  0  0
  181.2130  180.2170  143.6630 O   0  0  0  0  0  0  0  0  0  0  0  0
  181.5740  179.1350  143.1270 C   0  0  0  0  0  0  0  0  0  0  0  0
  180.7310  178.5170  142.0670 C   0  0  0  0  0  2  0  0  0  0  0  0
  179.4070  179.2480  141.9660 C   0  0  0  0  0  2  0  0  0  0  0  0
  179.9390  180.1800  139.8500 O   0  0  0  0  0  0  0  0  0  0  0  0
  179.1880  181.6670  141.4200 O   0  0  0  0  0  1  0  0  0  0  0  0
  179.5210  180.3830  141.0150 C   0  0  0  0  0  0  0  0  0  0  0  0
  1 19  1  6  0  0  0
  1 43  1  0  0  0  0
  1  2  1  0  0  0  0
  2  3  1  6  0  0  0
  2  4  1  0  0  0  0
  4  7  1  0  0  0  0
  7  6  1  0  0  0  0
  7  5  1  0  0  0  0
  8  7  1  0  0  0  0
  8  9  1  0  0  0  0
  9 10  1  0  0  0  0
 10 11  1  0  0  0  0
 13 12  2  0  0  0  0
 13 11  1  0  0  0  0
 14 13  1  0  0  0  0
 16 15  2  0  0  0  0
 16 14  1  0  0  0  0
 17 16  1  0  0  0  0
 18 16  2  0  0  0  0
 20 19  1  0  0  0  0
 21 22  1  0  0  0  0
 21 20  1  0  0  0  0
 23 24  1  0  0  0  0
 23 22  2  0  0  0  0
 24 25  1  0  0  0  0
 26 25  1  0  0  0  0
 27 32  1  0  0  0  0
 27 26  1  0  0  0  0
 28 32  2  0  0  0  0
 28 29  1  0  0  0  0
 29 31  2  0  0  0  0
 30 31  1  0  0  0  0
 32 30  1  0  0  0  0
 33 28  1  0  0  0  0
 34 35  1  0  0  0  0
 34 33  1  0  0  0  0
 35 36  1  0  0  0  0
 36 37  1  0  0  0  0
 39 40  1  0  0  0  0
 39 42  1  0  0  0  0
 40 37  1  0  0  0  0
 40 41  1  0  0  0  0
 41 38  1  0  0  0  0
 42 38  1  0  0  0  0
 45 43  1  0  0  0  0
 45 44  2  0  0  0  0
 46 45  1  0  0  0  0
 47 46  1  0  0  0  0
 48 50  2  0  0  0  0
 50 49  1  0  0  0  0
 50 47  1  0  0  0  0
M  END
>  <MODEL>
1

>  <REMARK>
 VINA RESULT:      -5.9      0.000      0.000
  Name = 
  29 active torsions:
  status: ('A' for Active; 'I' for Inactive)
    1  A    between atoms: C_2  and  N_22
    2  A    between atoms: C_2  and  C_46
    3  A    between atoms: N_3  and  C_10
    4  A    between atoms: N_3  and  N_27
    5  A    between atoms: C_5  and  C_14
    6  A    between atoms: C_10  and  C_50
    7  A    between atoms: C_11  and  C_30
    8  A    between atoms: C_11  and  C_41
    9  A    between atoms: C_12  and  C_20
   10  A    between atoms: C_13  and  C_17
   11  A    between atoms: C_13  and  C_47
   12  A    between atoms: C_14  and  C_48
   13  A    between atoms: C_15  and  C_30
   14  A    between atoms: C_15  and  C_35
   15  A    between atoms: C_17  and  C_36
   16  A    between atoms: O_18  and  C_19
   17  A    between atoms: O_18  and  C_36
   18  A    between atoms: C_19  and  C_21
   19  A    between atoms: C_19  and  C_28
   20  A    between atoms: C_20  and  N_22
   21  A    between atoms: C_21  and  C_43
   22  A    between atoms: C_26  and  N_29
   23  A    between atoms: C_26  and  C_46
   24  A    between atoms: N_27  and  C_37
   25  A    between atoms: C_28  and  C_48
   26  A    between atoms: C_32  and  C_35
   27  A    between atoms: S_33  and  N_44
   28  A    between atoms: C_37  and  C_42
   29  A    between atoms: C_43  and  C_50
                            x       y       z     vdW  Elec       q    Type
                         _______ _______ _______ _____ _____    ______ ____

>  <TORSDO>
F 29

$$$$
=
 OpenBabel10222419043D

 50 51  0  0  1  0  0  0  0  0999 V2000
  184.7770  178.2720  142.5750 C   0  0  1  0  0  3  0  0  0  0  0  0
  186.1450  178.4490  143.2580 C   0  0  1  0  0  3  0  0  0  0  0  0
  186.0610  178.2810  144.7710 C   0  0  0  0  0  1  0  0  0  0  0  0
  187.1480  177.4210  142.7390 C   0  0  0  0  0  2  0  0  0  0  0  0
  187.4430  178.3550  140.5670 F   0  0  0  0  0  0  0  0  0  0  0  0
  188.8160  179.0600  142.2140 F   0  0  0  0  0  0  0  0  0  0  0  0
  188.1280  177.9710  141.7060 C   0  0  0  0  0  0  0  0  0  0  0  0
  189.1180  176.8850  141.3120 C   0  0  0  0  0  2  0  0  0  0  0  0
  190.4880  177.3630  141.4280 N   0  0  0  0  0  2  0  0  0  0  0  0
  191.0620  176.6860  142.5080 N   0  0  0  0  0  2  0  0  0  0  0  0
  191.7670  177.6750  143.3040 C   0  0  0  0  0  2  0  0  0  0  0  0
  190.3680  178.4570  145.0550 O   0  0  0  0  0  0  0  0  0  0  0  0
  191.2710  177.6530  144.7030 C   0  0  0  0  0  0  0  0  0  0  0  0
  191.8250  176.7240  145.6370 N   0  0  0  0  0  2  0  0  0  0  0  0
  191.5760  175.1690  147.7510 O   0  0  0  0  0  0  0  0  0  0  0  0
  191.2000  176.5330  147.2430 S   0  0  0  0  0  0  0  0  0  0  0  0
  189.4250  176.6820  147.2150 C   0  0  0  0  0  1  0  0  0  0  0  0
  191.7880  177.5800  148.1560 O   0  0  0  0  0  0  0  0  0  0  0  0
  183.6420  178.2220  143.6020 C   0  0  0  0  0  2  0  0  0  0  0  0
  182.6660  179.3680  143.4000 C   0  0  0  0  0  2  0  0  0  0  0  0
  181.3170  178.9970  143.9980 C   0  0  0  0  0  2  0  0  0  0  0  0
  180.4280  178.3840  142.9610 C   0  0  0  0  0  3  0  0  0  0  0  0
  179.9940  179.0870  141.9150 C   0  0  0  0  0  3  0  0  0  0  0  0
  179.0980  178.4500  140.9070 C   0  0  0  0  0  2  0  0  0  0  0  0
  179.2760  176.9410  140.8980 C   0  0  0  0  0  2  0  0  0  0  0  0
  179.6060  176.4320  139.5030 C   0  0  0  0  0  2  0  0  0  0  0  0
  180.8910  175.6210  139.5160 C   0  0  0  0  0  2  0  0  0  0  0  0
  181.5360  174.2920  137.5010 C   0  0  0  0  0  0  0  0  0  0  0  0
  181.1110  173.0680  136.7650 C   0  0  0  0  0  3  0  0  0  0  0  0
  179.8500  173.4600  138.7000 O   0  0  0  0  0  0  0  0  0  0  0  0
  179.9690  172.5270  137.6350 C   0  0  0  0  0  3  0  0  0  0  0  0
  180.7790  174.4750  138.5640 C   0  0  0  0  0  0  0  0  0  0  0  0
  182.5850  175.2380  137.0220 C   0  0  0  0  0  2  0  0  0  0  0  0
  183.7530  175.1710  137.8880 N   0  0  0  0  0  2  0  0  0  0  0  0
  184.5380  174.0280  137.4510 C   0  0  0  0  0  2  0  0  0  0  0  0
  185.9410  174.4710  137.0600 C   0  0  0  0  0  2  0  0  0  0  0  0
  186.0320  175.9870  137.1110 C   0  0  0  0  0  2  0  0  0  0  0  0
  187.8760  178.7680  136.7610 C   0  0  0  0  0  2  0  0  0  0  0  0
  188.2250  176.6060  137.6780 C   0  0  0  0  0  2  0  0  0  0  0  0
  187.3060  176.4290  136.5580 N   0  0  0  0  0  0  0  0  0  0  0  0
  187.0920  177.7460  135.9640 C   0  0  0  0  0  2  0  0  0  0  0  0
  188.8800  177.9590  137.5290 C   0  0  0  0  0  2  0  0  0  0  0  0
  184.5590  179.3670  141.6900 O   0  0  0  0  0  0  0  0  0  0  0  0
  185.1050  179.6410  139.4570 O   0  0  0  0  0  0  0  0  0  0  0  0
  184.3020  179.2060  140.3270 C   0  0  0  0  0  0  0  0  0  0  0  0
  183.0450  178.5320  139.9030 C   0  0  0  0  0  2  0  0  0  0  0  0
  182.7990  178.7740  138.4270 C   0  0  0  0  0  2  0  0  0  0  0  0
  182.0470  181.0250  138.4440 O   0  0  0  0  0  1  0  0  0  0  0  0
  180.4700  179.4630  137.8820 O   0  0  0  0  0  0  0  0  0  0  0  0
  181.7600  179.8190  138.2460 C   0  0  0  0  0  0  0  0  0  0  0  0
  1  2  1  0  0  0  0
  1 19  1  1  0  0  0
  2  3  1  1  0  0  0
  4  2  1  0  0  0  0
  5  7  1  0  0  0  0
  7  6  1  0  0  0  0
  7  4  1  0  0  0  0
  8  9  1  0  0  0  0
  8  7  1  0  0  0  0
  9 10  1  0  0  0  0
 10 11  1  0  0  0  0
 11 13  1  0  0  0  0
 13 12  2  0  0  0  0
 13 14  1  0  0  0  0
 14 16  1  0  0  0  0
 16 15  2  0  0  0  0
 16 18  2  0  0  0  0
 17 16  1  0  0  0  0
 20 19  1  0  0  0  0
 20 21  1  0  0  0  0
 22 21  1  0  0  0  0
 23 22  2  0  0  0  0
 24 23  1  0  0  0  0
 25 24  1  0  0  0  0
 26 27  1  0  0  0  0
 26 25  1  0  0  0  0
 28 32  2  0  0  0  0
 29 28  1  0  0  0  0
 29 31  2  0  0  0  0
 31 30  1  0  0  0  0
 32 30  1  0  0  0  0
 32 27  1  0  0  0  0
 33 28  1  0  0  0  0
 33 34  1  0  0  0  0
 35 34  1  0  0  0  0
 36 37  1  0  0  0  0
 36 35  1  0  0  0  0
 38 42  1  0  0  0  0
 40 37  1  0  0  0  0
 40 39  1  0  0  0  0
 41 40  1  0  0  0  0
 41 38  1  0  0  0  0
 42 39  1  0  0  0  0
 43  1  1  0  0  0  0
 44 45  2  0  0  0  0
 45 43  1  0  0  0  0
 46 45  1  0  0  0  0
 47 46  1  0  0  0  0
 49 50  2  0  0  0  0
 50 47  1  0  0  0  0
 50 48  1  0  0  0  0
M  END
>  <MODEL>
2

>  <REMARK>
 VINA RESULT:      -5.8      2.402      3.829
  Name = 
  29 active torsions:
  status: ('A' for Active; 'I' for Inactive)
    1  A    between atoms: C_2  and  N_22
    2  A    between atoms: C_2  and  C_46
    3  A    between atoms: N_3  and  C_10
    4  A    between atoms: N_3  and  N_27
    5  A    between atoms: C_5  and  C_14
    6  A    between atoms: C_10  and  C_50
    7  A    between atoms: C_11  and  C_30
    8  A    between atoms: C_11  and  C_41
    9  A    between atoms: C_12  and  C_20
   10  A    between atoms: C_13  and  C_17
   11  A    between atoms: C_13  and  C_47
   12  A    between atoms: C_14  and  C_48
   13  A    between atoms: C_15  and  C_30
   14  A    between atoms: C_15  and  C_35
   15  A    between atoms: C_17  and  C_36
   16  A    between atoms: O_18  and  C_19
   17  A    between atoms: O_18  and  C_36
   18  A    between atoms: C_19  and  C_21
   19  A    between atoms: C_19  and  C_28
   20  A    between atoms: C_20  and  N_22
   21  A    between atoms: C_21  and  C_43
   22  A    between atoms: C_26  and  N_29
   23  A    between atoms: C_26  and  C_46
   24  A    between atoms: N_27  and  C_37
   25  A    between atoms: C_28  and  C_48
   26  A    between atoms: C_32  and  C_35
   27  A    between atoms: S_33  and  N_44
   28  A    between atoms: C_37  and  C_42
   29  A    between atoms: C_43  and  C_50
                            x       y       z     vdW  Elec       q    Type
                         _______ _______ _______ _____ _____    ______ ____

>  <TORSDO>
F 29

$$$$
=
 OpenBabel10222419043D

 50 51  0  0  1  0  0  0  0  0999 V2000
  183.5940  178.4330  143.4920 C   0  0  1  0  0  3  0  0  0  0  0  0
  184.8690  178.9810  144.1580 C   0  0  1  0  0  3  0  0  0  0  0  0
  184.8470  180.5000  144.2820 C   0  0  0  0  0  1  0  0  0  0  0  0
  185.0350  178.4100  145.5660 C   0  0  0  0  0  2  0  0  0  0  0  0
  186.5050  176.5670  145.9010 F   0  0  0  0  0  0  0  0  0  0  0  0
  187.3510  178.4320  144.9510 F   0  0  0  0  0  0  0  0  0  0  0  0
  186.4540  177.9490  145.8890 C   0  0  0  0  0  0  0  0  0  0  0  0
  186.8480  178.4440  147.2720 C   0  0  0  0  0  2  0  0  0  0  0  0
  187.7080  177.4800  147.9430 N   0  0  0  0  0  2  0  0  0  0  0  0
  189.0210  177.9390  147.7960 N   0  0  0  0  0  2  0  0  0  0  0  0
  189.8560  176.7730  147.5660 C   0  0  0  0  0  2  0  0  0  0  0  0
  191.8790  177.1140  146.3720 O   0  0  0  0  0  0  0  0  0  0  0  0
  190.6330  176.9410  146.3120 C   0  0  0  0  0  0  0  0  0  0  0  0
  189.9600  176.9080  145.0510 N   0  0  0  0  0  2  0  0  0  0  0  0
  191.5030  178.2750  143.4080 O   0  0  0  0  0  0  0  0  0  0  0  0
  190.8110  176.9470  143.5410 S   0  0  0  0  0  0  0  0  0  0  0  0
  189.6560  176.7490  142.2000 C   0  0  0  0  0  1  0  0  0  0  0  0
  191.8410  175.8460  143.4980 O   0  0  0  0  0  0  0  0  0  0  0  0
  182.3420  178.8050  144.2900 C   0  0  0  0  0  2  0  0  0  0  0  0
  181.2480  179.3360  143.3810 C   0  0  0  0  0  2  0  0  0  0  0  0
  180.0380  178.4150  143.4510 C   0  0  0  0  0  2  0  0  0  0  0  0
  179.8020  177.7480  142.1320 C   0  0  0  0  0  3  0  0  0  0  0  0
  179.7310  178.4520  141.0020 C   0  0  0  0  0  3  0  0  0  0  0  0
  179.4810  177.7580  139.7060 C   0  0  0  0  0  2  0  0  0  0  0  0
  180.0020  176.3310  139.7430 C   0  0  0  0  0  2  0  0  0  0  0  0
  180.3790  175.8440  138.3520 C   0  0  0  0  0  2  0  0  0  0  0  0
  181.7520  175.1960  138.3630 C   0  0  0  0  0  2  0  0  0  0  0  0
  182.8760  173.5260  136.8820 C   0  0  0  0  0  0  0  0  0  0  0  0
  182.5250  172.4370  135.9280 C   0  0  0  0  0  3  0  0  0  0  0  0
  180.6500  173.4170  136.9350 O   0  0  0  0  0  0  0  0  0  0  0  0
  180.9930  172.3900  136.0150 C   0  0  0  0  0  3  0  0  0  0  0  0
  181.7850  174.0550  137.3990 C   0  0  0  0  0  0  0  0  0  0  0  0
  184.2630  174.0260  137.1130 C   0  0  0  0  0  2  0  0  0  0  0  0
  185.2320  173.0630  136.6120 N   0  0  0  0  0  2  0  0  0  0  0  0
  186.5400  173.5020  137.0670 C   0  0  0  0  0  2  0  0  0  0  0  0
  186.9330  174.7970  136.3720 C   0  0  0  0  0  2  0  0  0  0  0  0
  187.9660  175.5340  137.2090 C   0  0  0  0  0  2  0  0  0  0  0  0
  187.4610  178.8020  136.6410 C   0  0  0  0  0  2  0  0  0  0  0  0
  189.2820  177.4710  137.3820 C   0  0  0  0  0  2  0  0  0  0  0  0
  188.5270  176.6420  136.4460 N   0  0  0  0  0  0  0  0  0  0  0  0
  187.4100  177.4490  135.9620 C   0  0  0  0  0  2  0  0  0  0  0  0
  188.8610  178.9050  137.1720 C   0  0  0  0  0  2  0  0  0  0  0  0
  183.4910  178.9770  142.1790 O   0  0  0  0  0  0  0  0  0  0  0  0
  185.4690  178.6600  141.0170 O   0  0  0  0  0  0  0  0  0  0  0  0
  184.2220  178.4900  141.0920 C   0  0  0  0  0  0  0  0  0  0  0  0
  183.5030  177.7850  139.9960 C   0  0  0  0  0  2  0  0  0  0  0  0
  183.7330  178.5020  138.6810 C   0  0  0  0  0  2  0  0  0  0  0  0
  181.8350  178.7980  137.2880 O   0  0  0  0  0  0  0  0  0  0  0  0
  182.0950  180.3580  138.9440 O   0  0  0  0  0  1  0  0  0  0  0  0
  182.5000  179.2180  138.2660 C   0  0  0  0  0  0  0  0  0  0  0  0
  1  2  1  0  0  0  0
  1 19  1  1  0  0  0
  2  3  1  1  0  0  0
  2  4  1  0  0  0  0
  4  7  1  0  0  0  0
  6  7  1  0  0  0  0
  7  5  1  0  0  0  0
  7  8  1  0  0  0  0
  8  9  1  0  0  0  0
 10  9  1  0  0  0  0
 11 10  1  0  0  0  0
 13 12  2  0  0  0  0
 13 11  1  0  0  0  0
 14 13  1  0  0  0  0
 15 16  2  0  0  0  0
 16 14  1  0  0  0  0
 17 16  1  0  0  0  0
 18 16  2  0  0  0  0
 20 21  1  0  0  0  0
 20 19  1  0  0  0  0
 22 21  1  0  0  0  0
 23 22  2  0  0  0  0
 24 25  1  0  0  0  0
 24 23  1  0  0  0  0
 26 27  1  0  0  0  0
 26 25  1  0  0  0  0
 28 33  1  0  0  0  0
 28 32  2  0  0  0  0
 29 31  2  0  0  0  0
 29 28  1  0  0  0  0
 30 32  1  0  0  0  0
 31 30  1  0  0  0  0
 32 27  1  0  0  0  0
 34 35  1  0  0  0  0
 34 33  1  0  0  0  0
 36 35  1  0  0  0  0
 36 37  1  0  0  0  0
 38 42  1  0  0  0  0
 40 37  1  0  0  0  0
 40 39  1  0  0  0  0
 41 40  1  0  0  0  0
 41 38  1  0  0  0  0
 42 39  1  0  0  0  0
 43  1  1  0  0  0  0
 44 45  2  0  0  0  0
 45 43  1  0  0  0  0
 46 45  1  0  0  0  0
 47 46  1  0  0  0  0
 48 50  2  0  0  0  0
 50 47  1  0  0  0  0
 50 49  1  0  0  0  0
M  END
>  <MODEL>
3

>  <REMARK>
 VINA RESULT:      -5.6      1.640      2.778
  Name = 
  29 active torsions:
  status: ('A' for Active; 'I' for Inactive)
    1  A    between atoms: C_2  and  N_22
    2  A    between atoms: C_2  and  C_46
    3  A    between atoms: N_3  and  C_10
    4  A    between atoms: N_3  and  N_27
    5  A    between atoms: C_5  and  C_14
    6  A    between atoms: C_10  and  C_50
    7  A    between atoms: C_11  and  C_30
    8  A    between atoms: C_11  and  C_41
    9  A    between atoms: C_12  and  C_20
   10  A    between atoms: C_13  and  C_17
   11  A    between atoms: C_13  and  C_47
   12  A    between atoms: C_14  and  C_48
   13  A    between atoms: C_15  and  C_30
   14  A    between atoms: C_15  and  C_35
   15  A    between atoms: C_17  and  C_36
   16  A    between atoms: O_18  and  C_19
   17  A    between atoms: O_18  and  C_36
   18  A    between atoms: C_19  and  C_21
   19  A    between atoms: C_19  and  C_28
   20  A    between atoms: C_20  and  N_22
   21  A    between atoms: C_21  and  C_43
   22  A    between atoms: C_26  and  N_29
   23  A    between atoms: C_26  and  C_46
   24  A    between atoms: N_27  and  C_37
   25  A    between atoms: C_28  and  C_48
   26  A    between atoms: C_32  and  C_35
   27  A    between atoms: S_33  and  N_44
   28  A    between atoms: C_37  and  C_42
   29  A    between atoms: C_43  and  C_50
                            x       y       z     vdW  Elec       q    Type
                         _______ _______ _______ _____ _____    ______ ____

>  <TORSDO>
F 29

$$$$
=
 OpenBabel10222419043D

 50 51  0  0  1  0  0  0  0  0999 V2000
  187.5280  177.2580  143.6210 C   0  0  1  0  0  3  0  0  0  0  0  0
  186.4180  178.3030  143.4120 C   0  0  1  0  0  3  0  0  0  0  0  0
  186.1190  178.5400  141.9360 C   0  0  0  0  0  1  0  0  0  0  0  0
  185.1170  177.8540  144.0750 C   0  0  0  0  0  2  0  0  0  0  0  0
  184.6470  178.1750  146.3880 F   0  0  0  0  0  0  0  0  0  0  0  0
  185.3810  179.9510  145.2040 F   0  0  0  0  0  0  0  0  0  0  0  0
  184.6080  178.8030  145.1570 C   0  0  0  0  0  0  0  0  0  0  0  0
  183.1610  179.1760  144.8680 C   0  0  0  0  0  2  0  0  0  0  0  0
  182.8120  178.8690  143.4880 N   0  0  0  0  0  2  0  0  0  0  0  0
  181.5130  179.3450  143.2850 N   0  0  0  0  0  2  0  0  0  0  0  0
  180.9370  178.5620  142.2060 C   0  0  0  0  0  2  0  0  0  0  0  0
  180.8360  180.0710  140.3760 O   0  0  0  0  0  0  0  0  0  0  0  0
  181.4080  179.0760  140.8950 C   0  0  0  0  0  0  0  0  0  0  0  0
  182.5000  178.4350  140.2320 N   0  0  0  0  0  2  0  0  0  0  0  0
  182.1130  179.6540  137.9270 O   0  0  0  0  0  0  0  0  0  0  0  0
  183.2030  179.0620  138.7770 S   0  0  0  0  0  0  0  0  0  0  0  0
  183.9970  177.7440  137.8800 C   0  0  0  0  0  1  0  0  0  0  0  0
  184.2090  180.1360  139.1080 O   0  0  0  0  0  0  0  0  0  0  0  0
  188.9060  177.8280  143.2740 C   0  0  0  0  0  2  0  0  0  0  0  0
  188.9690  178.2690  141.8220 C   0  0  0  0  0  2  0  0  0  0  0  0
  189.9880  177.4190  141.0770 C   0  0  0  0  0  2  0  0  0  0  0  0
  189.7800  177.5160  139.5980 C   0  0  0  0  0  3  0  0  0  0  0  0
  189.1450  178.5530  139.0540 C   0  0  0  0  0  3  0  0  0  0  0  0
  188.9420  178.6130  137.5770 C   0  0  0  0  0  2  0  0  0  0  0  0
  187.5340  178.1780  137.2040 C   0  0  0  0  0  2  0  0  0  0  0  0
  187.3150  178.2490  135.7000 C   0  0  0  0  0  2  0  0  0  0  0  0
  187.9830  177.0760  135.0030 C   0  0  0  0  0  2  0  0  0  0  0  0
  188.5460  174.9000  136.0940 C   0  0  0  0  0  0  0  0  0  0  0  0
  187.8630  173.7480  136.7460 C   0  0  0  0  0  3  0  0  0  0  0  0
  186.3820  175.4380  136.0830 O   0  0  0  0  0  0  0  0  0  0  0  0
  186.3880  174.1720  136.7300 C   0  0  0  0  0  3  0  0  0  0  0  0
  187.6640  175.8060  135.7220 C   0  0  0  0  0  0  0  0  0  0  0  0
  190.0060  174.9500  135.7930 C   0  0  0  0  0  2  0  0  0  0  0  0
  190.7200  175.5960  136.8850 N   0  0  0  0  0  2  0  0  0  0  0  0
  191.7850  174.6920  137.2870 C   0  0  0  0  0  2  0  0  0  0  0  0
  192.9820  175.4820  137.7960 C   0  0  0  0  0  2  0  0  0  0  0  0
  193.7970  175.9920  136.6190 C   0  0  0  0  0  2  0  0  0  0  0  0
  197.0000  175.5900  135.7060 C   0  0  0  0  0  2  0  0  0  0  0  0
  195.5530  174.5890  137.2990 C   0  0  0  0  0  2  0  0  0  0  0  0
  194.7140  174.9560  136.1620 N   0  0  0  0  0  0  0  0  0  0  0  0
  195.5890  175.5570  135.1590 C   0  0  0  0  0  2  0  0  0  0  0  0
  196.9900  174.6040  136.8370 C   0  0  0  0  0  2  0  0  0  0  0  0
  187.5230  176.8480  144.9860 O   0  0  0  0  0  0  0  0  0  0  0  0
  187.6030  178.1790  146.8790 O   0  0  0  0  0  0  0  0  0  0  0  0
  188.2160  177.5290  145.9890 C   0  0  0  0  0  0  0  0  0  0  0  0
  189.7040  177.5020  145.9840 C   0  0  0  0  0  2  0  0  0  0  0  0
  190.2150  176.8310  147.2440 C   0  0  0  0  0  2  0  0  0  0  0  0
  191.9680  175.9540  145.9060 O   0  0  0  0  0  0  0  0  0  0  0  0
  192.4970  176.3270  148.1020 O   0  0  0  0  0  1  0  0  0  0  0  0
  191.6060  176.3530  147.0390 C   0  0  0  0  0  0  0  0  0  0  0  0
  1 19  1  1  0  0  0
  1 43  1  0  0  0  0
  2  3  1  6  0  0  0
  2  1  1  0  0  0  0
  2  4  1  0  0  0  0
  4  7  1  0  0  0  0
  7  6  1  0  0  0  0
  7  5  1  0  0  0  0
  8  7  1  0  0  0  0
  9  8  1  0  0  0  0
 10  9  1  0  0  0  0
 11 10  1  0  0  0  0
 12 13  2  0  0  0  0
 13 11  1  0  0  0  0
 14 13  1  0  0  0  0
 15 16  2  0  0  0  0
 16 18  2  0  0  0  0
 16 14  1  0  0  0  0
 17 16  1  0  0  0  0
 20 19  1  0  0  0  0
 21 20  1  0  0  0  0
 22 21  1  0  0  0  0
 23 22  2  0  0  0  0
 24 23  1  0  0  0  0
 25 24  1  0  0  0  0
 26 25  1  0  0  0  0
 27 26  1  0  0  0  0
 27 32  1  0  0  0  0
 28 29  1  0  0  0  0
 30 31  1  0  0  0  0
 31 29  2  0  0  0  0
 32 30  1  0  0  0  0
 32 28  2  0  0  0  0
 33 28  1  0  0  0  0
 33 34  1  0  0  0  0
 34 35  1  0  0  0  0
 35 36  1  0  0  0  0
 37 36  1  0  0  0  0
 38 42  1  0  0  0  0
 40 37  1  0  0  0  0
 40 39  1  0  0  0  0
 41 38  1  0  0  0  0
 41 40  1  0  0  0  0
 42 39  1  0  0  0  0
 43 45  1  0  0  0  0
 45 44  2  0  0  0  0
 46 45  1  0  0  0  0
 46 47  1  0  0  0  0
 48 50  2  0  0  0  0
 50 47  1  0  0  0  0
 50 49  1  0  0  0  0
M  END
>  <MODEL>
4

>  <REMARK>
 VINA RESULT:      -5.6      3.622      7.874
  Name = 
  29 active torsions:
  status: ('A' for Active; 'I' for Inactive)
    1  A    between atoms: C_2  and  N_22
    2  A    between atoms: C_2  and  C_46
    3  A    between atoms: N_3  and  C_10
    4  A    between atoms: N_3  and  N_27
    5  A    between atoms: C_5  and  C_14
    6  A    between atoms: C_10  and  C_50
    7  A    between atoms: C_11  and  C_30
    8  A    between atoms: C_11  and  C_41
    9  A    between atoms: C_12  and  C_20
   10  A    between atoms: C_13  and  C_17
   11  A    between atoms: C_13  and  C_47
   12  A    between atoms: C_14  and  C_48
   13  A    between atoms: C_15  and  C_30
   14  A    between atoms: C_15  and  C_35
   15  A    between atoms: C_17  and  C_36
   16  A    between atoms: O_18  and  C_19
   17  A    between atoms: O_18  and  C_36
   18  A    between atoms: C_19  and  C_21
   19  A    between atoms: C_19  and  C_28
   20  A    between atoms: C_20  and  N_22
   21  A    between atoms: C_21  and  C_43
   22  A    between atoms: C_26  and  N_29
   23  A    between atoms: C_26  and  C_46
   24  A    between atoms: N_27  and  C_37
   25  A    between atoms: C_28  and  C_48
   26  A    between atoms: C_32  and  C_35
   27  A    between atoms: S_33  and  N_44
   28  A    between atoms: C_37  and  C_42
   29  A    between atoms: C_43  and  C_50
                            x       y       z     vdW  Elec       q    Type
                         _______ _______ _______ _____ _____    ______ ____

>  <TORSDO>
F 29

$$$$
=
 OpenBabel10222419043D

 50 51  0  0  1  0  0  0  0  0999 V2000
  185.8030  178.5800  142.5770 C   0  0  1  0  0  3  0  0  0  0  0  0
  187.2220  178.0200  142.7760 C   0  0  1  0  0  3  0  0  0  0  0  0
  187.2260  176.7410  143.6070 C   0  0  0  0  0  1  0  0  0  0  0  0
  187.8710  177.6930  141.4320 C   0  0  0  0  0  2  0  0  0  0  0  0
  189.8700  178.0040  140.1750 F   0  0  0  0  0  0  0  0  0  0  0  0
  189.8470  178.7210  142.3150 F   0  0  0  0  0  0  0  0  0  0  0  0
  189.3960  177.7400  141.4470 C   0  0  0  0  0  0  0  0  0  0  0  0
  189.9440  176.3880  141.8800 C   0  0  0  0  0  2  0  0  0  0  0  0
  191.2130  176.5410  142.5760 N   0  0  0  0  0  2  0  0  0  0  0  0
  191.0480  175.9790  143.8460 N   0  0  0  0  0  2  0  0  0  0  0  0
  191.5650  176.9380  144.8060 C   0  0  0  0  0  2  0  0  0  0  0  0
  189.9180  178.6060  145.1810 O   0  0  0  0  0  0  0  0  0  0  0  0
  190.4500  177.5370  145.5810 C   0  0  0  0  0  0  0  0  0  0  0  0
  189.9940  176.8980  146.7760 N   0  0  0  0  0  2  0  0  0  0  0  0
  188.1100  176.3320  148.5310 O   0  0  0  0  0  0  0  0  0  0  0  0
  188.6050  177.4490  147.6550 S   0  0  0  0  0  0  0  0  0  0  0  0
  187.3200  177.9130  146.5120 C   0  0  0  0  0  1  0  0  0  0  0  0
  188.9730  178.6290  148.5190 O   0  0  0  0  0  0  0  0  0  0  0  0
  185.2160  178.1510  141.2290 C   0  0  0  0  0  2  0  0  0  0  0  0
  184.7460  179.3510  140.4270 C   0  0  0  0  0  2  0  0  0  0  0  0
  183.9890  178.8740  139.1960 C   0  0  0  0  0  2  0  0  0  0  0  0
  182.9880  177.8230  139.5630 C   0  0  0  0  0  3  0  0  0  0  0  0
  181.6780  178.0620  139.5080 C   0  0  0  0  0  3  0  0  0  0  0  0
  180.7080  176.9970  139.8940 C   0  0  0  0  0  2  0  0  0  0  0  0
  181.2980  175.6160  139.6640 C   0  0  0  0  0  2  0  0  0  0  0  0
  180.6060  174.9050  138.5100 C   0  0  0  0  0  2  0  0  0  0  0  0
  181.4590  174.9620  137.2550 C   0  0  0  0  0  2  0  0  0  0  0  0
  183.5890  173.6580  137.1750 C   0  0  0  0  0  0  0  0  0  0  0  0
  184.0540  172.2570  136.9780 C   0  0  0  0  0  3  0  0  0  0  0  0
  181.7200  172.4590  136.9640 O   0  0  0  0  0  0  0  0  0  0  0  0
  182.7400  171.4740  136.8580 C   0  0  0  0  0  3  0  0  0  0  0  0
  182.2720  173.7150  137.1340 C   0  0  0  0  0  0  0  0  0  0  0  0
  184.4950  174.8390  137.2710 C   0  0  0  0  0  2  0  0  0  0  0  0
  185.6350  174.6690  136.3830 N   0  0  0  0  0  2  0  0  0  0  0  0
  186.8270  174.6890  137.2160 C   0  0  0  0  0  2  0  0  0  0  0  0
  187.9570  175.4130  136.5000 C   0  0  0  0  0  2  0  0  0  0  0  0
  189.1310  175.5940  137.4480 C   0  0  0  0  0  2  0  0  0  0  0  0
  192.4160  176.1650  137.8150 C   0  0  0  0  0  2  0  0  0  0  0  0
  191.0700  174.2810  137.2930 C   0  0  0  0  0  2  0  0  0  0  0  0
  190.3860  175.4390  136.7250 N   0  0  0  0  0  0  0  0  0  0  0  0
  191.2080  176.6100  137.0170 C   0  0  0  0  0  2  0  0  0  0  0  0
  192.4950  174.6840  137.5860 C   0  0  0  0  0  2  0  0  0  0  0  0
  184.9670  178.0980  143.6250 O   0  0  0  0  0  0  0  0  0  0  0  0
  184.6470  179.8510  145.1040 O   0  0  0  0  0  0  0  0  0  0  0  0
  184.1530  178.9320  144.3970 C   0  0  0  0  0  0  0  0  0  0  0  0
  182.6820  178.7050  144.3980 C   0  0  0  0  0  2  0  0  0  0  0  0
  182.1280  178.8940  143.0000 C   0  0  0  0  0  2  0  0  0  0  0  0
  180.3330  180.4420  143.1290 O   0  0  0  0  0  1  0  0  0  0  0  0
  179.7280  178.2340  143.0790 O   0  0  0  0  0  0  0  0  0  0  0  0
  180.6840  179.2390  143.0660 C   0  0  0  0  0  0  0  0  0  0  0  0
  1 19  1  6  0  0  0
  1  2  1  0  0  0  0
  1 43  1  0  0  0  0
  2  3  1  1  0  0  0
  4  7  1  0  0  0  0
  4  2  1  0  0  0  0
  5  7  1  0  0  0  0
  7  8  1  0  0  0  0
  7  6  1  0  0  0  0
  8  9  1  0  0  0  0
  9 10  1  0  0  0  0
 10 11  1  0  0  0  0
 11 13  1  0  0  0  0
 12 13  2  0  0  0  0
 13 14  1  0  0  0  0
 14 16  1  0  0  0  0
 16 18  2  0  0  0  0
 16 15  2  0  0  0  0
 17 16  1  0  0  0  0
 20 19  1  0  0  0  0
 21 22  1  0  0  0  0
 21 20  1  0  0  0  0
 23 22  2  0  0  0  0
 23 24  1  0  0  0  0
 25 24  1  0  0  0  0
 26 25  1  0  0  0  0
 27 26  1  0  0  0  0
 28 33  1  0  0  0  0
 29 28  1  0  0  0  0
 30 32  1  0  0  0  0
 31 30  1  0  0  0  0
 31 29  2  0  0  0  0
 32 28  2  0  0  0  0
 32 27  1  0  0  0  0
 34 35  1  0  0  0  0
 34 33  1  0  0  0  0
 36 35  1  0  0  0  0
 36 37  1  0  0  0  0
 39 42  1  0  0  0  0
 40 41  1  0  0  0  0
 40 39  1  0  0  0  0
 40 37  1  0  0  0  0
 41 38  1  0  0  0  0
 42 38  1  0  0  0  0
 43 45  1  0  0  0  0
 45 46  1  0  0  0  0
 45 44  2  0  0  0  0
 47 50  1  0  0  0  0
 47 46  1  0  0  0  0
 50 49  2  0  0  0  0
 50 48  1  0  0  0  0
M  END
>  <MODEL>
5

>  <REMARK>
 VINA RESULT:      -5.5      2.410      3.445
  Name = 
  29 active torsions:
  status: ('A' for Active; 'I' for Inactive)
    1  A    between atoms: C_2  and  N_22
    2  A    between atoms: C_2  and  C_46
    3  A    between atoms: N_3  and  C_10
    4  A    between atoms: N_3  and  N_27
    5  A    between atoms: C_5  and  C_14
    6  A    between atoms: C_10  and  C_50
    7  A    between atoms: C_11  and  C_30
    8  A    between atoms: C_11  and  C_41
    9  A    between atoms: C_12  and  C_20
   10  A    between atoms: C_13  and  C_17
   11  A    between atoms: C_13  and  C_47
   12  A    between atoms: C_14  and  C_48
   13  A    between atoms: C_15  and  C_30
   14  A    between atoms: C_15  and  C_35
   15  A    between atoms: C_17  and  C_36
   16  A    between atoms: O_18  and  C_19
   17  A    between atoms: O_18  and  C_36
   18  A    between atoms: C_19  and  C_21
   19  A    between atoms: C_19  and  C_28
   20  A    between atoms: C_20  and  N_22
   21  A    between atoms: C_21  and  C_43
   22  A    between atoms: C_26  and  N_29
   23  A    between atoms: C_26  and  C_46
   24  A    between atoms: N_27  and  C_37
   25  A    between atoms: C_28  and  C_48
   26  A    between atoms: C_32  and  C_35
   27  A    between atoms: S_33  and  N_44
   28  A    between atoms: C_37  and  C_42
   29  A    between atoms: C_43  and  C_50
                            x       y       z     vdW  Elec       q    Type
                         _______ _______ _______ _____ _____    ______ ____

>  <TORSDO>
F 29

$$$$
=
 OpenBabel10222419043D

 50 51  0  0  1  0  0  0  0  0999 V2000
  185.1580  178.2270  143.0520 C   0  0  1  0  0  3  0  0  0  0  0  0
  183.8520  178.3570  143.8560 C   0  0  1  0  0  3  0  0  0  0  0  0
  184.1080  178.6650  145.3270 C   0  0  0  0  0  1  0  0  0  0  0  0
  182.9800  179.4820  143.2990 C   0  0  0  0  0  2  0  0  0  0  0  0
  181.1570  178.2620  144.2260 F   0  0  0  0  0  0  0  0  0  0  0  0
  180.7200  180.2790  143.3110 F   0  0  0  0  0  0  0  0  0  0  0  0
  181.4960  179.1360  143.2100 C   0  0  0  0  0  0  0  0  0  0  0  0
  181.2130  178.4460  141.8840 C   0  0  0  0  0  2  0  0  0  0  0  0
  179.7810  178.2730  141.6840 N   0  0  0  0  0  2  0  0  0  0  0  0
  179.5980  177.9490  140.3360 N   0  0  0  0  0  2  0  0  0  0  0  0
  180.8100  177.2850  139.8900 C   0  0  0  0  0  2  0  0  0  0  0  0
  179.2630  175.7390  138.9670 O   0  0  0  0  0  0  0  0  0  0  0  0
  180.4690  176.0830  139.0890 C   0  0  0  0  0  0  0  0  0  0  0  0
  181.5100  175.3250  138.4690 N   0  0  0  0  0  2  0  0  0  0  0  0
  182.4850  173.3270  137.0520 O   0  0  0  0  0  0  0  0  0  0  0  0
  181.1860  174.0000  137.3980 S   0  0  0  0  0  0  0  0  0  0  0  0
  180.4240  174.6080  135.9080 C   0  0  0  0  0  1  0  0  0  0  0  0
  180.2770  173.0020  138.0700 O   0  0  0  0  0  0  0  0  0  0  0  0
  185.2450  179.2890  141.9520 C   0  0  0  0  0  2  0  0  0  0  0  0
  185.5150  178.6580  140.5980 C   0  0  0  0  0  2  0  0  0  0  0  0
  184.2030  178.4900  139.8460 C   0  0  0  0  0  2  0  0  0  0  0  0
  184.4440  178.4190  138.3700 C   0  0  0  0  0  3  0  0  0  0  0  0
  185.3100  177.5510  137.8490 C   0  0  0  0  0  3  0  0  0  0  0  0
  185.5370  177.5150  136.3750 C   0  0  0  0  0  2  0  0  0  0  0  0
  186.3470  176.2910  135.9800 C   0  0  0  0  0  2  0  0  0  0  0  0
  187.8400  176.5470  136.1250 C   0  0  0  0  0  2  0  0  0  0  0  0
  188.4560  175.5840  137.1250 C   0  0  0  0  0  2  0  0  0  0  0  0
  190.4040  176.2860  138.5230 C   0  0  0  0  0  0  0  0  0  0  0  0
  190.7030  177.1470  139.7010 C   0  0  0  0  0  3  0  0  0  0  0  0
  188.4510  177.2200  139.0590 O   0  0  0  0  0  0  0  0  0  0  0  0
  189.3410  177.7780  140.0170 C   0  0  0  0  0  3  0  0  0  0  0  0
  189.1220  176.3480  138.2230 C   0  0  0  0  0  0  0  0  0  0  0  0
  191.3950  175.3840  137.8680 C   0  0  0  0  0  2  0  0  0  0  0  0
  192.4130  176.1710  137.1860 N   0  0  0  0  0  2  0  0  0  0  0  0
  193.4700  175.2520  136.7990 C   0  0  0  0  0  2  0  0  0  0  0  0
  194.4730  175.0950  137.9330 C   0  0  0  0  0  2  0  0  0  0  0  0
  195.7010  174.3540  137.4310 C   0  0  0  0  0  2  0  0  0  0  0  0
  198.4460  175.1200  139.2010 C   0  0  0  0  0  2  0  0  0  0  0  0
  196.1630  174.7110  139.7060 C   0  0  0  0  0  2  0  0  0  0  0  0
  196.4840  173.8650  138.5590 N   0  0  0  0  0  0  0  0  0  0  0  0
  197.8920  174.0870  138.2420 C   0  0  0  0  0  2  0  0  0  0  0  0
  197.4630  175.1490  140.3350 C   0  0  0  0  0  2  0  0  0  0  0  0
  186.2610  178.3810  143.9400 O   0  0  0  0  0  0  0  0  0  0  0  0
  187.5690  176.7420  142.9580 O   0  0  0  0  0  0  0  0  0  0  0  0
  187.3940  177.5650  143.8980 C   0  0  0  0  0  0  0  0  0  0  0  0
  188.3910  177.6550  144.9980 C   0  0  0  0  0  2  0  0  0  0  0  0
  189.6700  176.9470  144.5980 C   0  0  0  0  0  2  0  0  0  0  0  0
  191.8310  177.4300  145.4510 O   0  0  0  0  0  1  0  0  0  0  0  0
  190.8180  179.1380  144.3130 O   0  0  0  0  0  0  0  0  0  0  0  0
  190.8360  177.8430  144.8080 C   0  0  0  0  0  0  0  0  0  0  0  0
  1 19  1  6  0  0  0
  1  2  1  0  0  0  0
  1 43  1  0  0  0  0
  2  3  1  1  0  0  0
  4  2  1  0  0  0  0
  7  4  1  0  0  0  0
  7  6  1  0  0  0  0
  7  5  1  0  0  0  0
  8  7  1  0  0  0  0
  9  8  1  0  0  0  0
 10  9  1  0  0  0  0
 11 10  1  0  0  0  0
 12 13  2  0  0  0  0
 13 11  1  0  0  0  0
 14 13  1  0  0  0  0
 15 16  2  0  0  0  0
 16 18  2  0  0  0  0
 16 14  1  0  0  0  0
 17 16  1  0  0  0  0
 20 19  1  0  0  0  0
 21 20  1  0  0  0  0
 22 21  1  0  0  0  0
 23 22  2  0  0  0  0
 24 23  1  0  0  0  0
 25 26  1  0  0  0  0
 25 24  1  0  0  0  0
 26 27  1  0  0  0  0
 27 32  1  0  0  0  0
 28 29  1  0  0  0  0
 29 31  2  0  0  0  0
 30 31  1  0  0  0  0
 32 28  2  0  0  0  0
 32 30  1  0  0  0  0
 33 28  1  0  0  0  0
 34 33  1  0  0  0  0
 35 34  1  0  0  0  0
 35 36  1  0  0  0  0
 37 36  1  0  0  0  0
 37 40  1  0  0  0  0
 38 42  1  0  0  0  0
 39 42  1  0  0  0  0
 40 39  1  0  0  0  0
 41 40  1  0  0  0  0
 41 38  1  0  0  0  0
 44 45  2  0  0  0  0
 45 43  1  0  0  0  0
 45 46  1  0  0  0  0
 47 50  1  0  0  0  0
 47 46  1  0  0  0  0
 49 50  2  0  0  0  0
 50 48  1  0  0  0  0
M  END
>  <MODEL>
6

>  <REMARK>
 VINA RESULT:      -5.4      4.091      8.470
  Name = 
  29 active torsions:
  status: ('A' for Active; 'I' for Inactive)
    1  A    between atoms: C_2  and  N_22
    2  A    between atoms: C_2  and  C_46
    3  A    between atoms: N_3  and  C_10
    4  A    between atoms: N_3  and  N_27
    5  A    between atoms: C_5  and  C_14
    6  A    between atoms: C_10  and  C_50
    7  A    between atoms: C_11  and  C_30
    8  A    between atoms: C_11  and  C_41
    9  A    between atoms: C_12  and  C_20
   10  A    between atoms: C_13  and  C_17
   11  A    between atoms: C_13  and  C_47
   12  A    between atoms: C_14  and  C_48
   13  A    between atoms: C_15  and  C_30
   14  A    between atoms: C_15  and  C_35
   15  A    between atoms: C_17  and  C_36
   16  A    between atoms: O_18  and  C_19
   17  A    between atoms: O_18  and  C_36
   18  A    between atoms: C_19  and  C_21
   19  A    between atoms: C_19  and  C_28
   20  A    between atoms: C_20  and  N_22
   21  A    between atoms: C_21  and  C_43
   22  A    between atoms: C_26  and  N_29
   23  A    between atoms: C_26  and  C_46
   24  A    between atoms: N_27  and  C_37
   25  A    between atoms: C_28  and  C_48
   26  A    between atoms: C_32  and  C_35
   27  A    between atoms: S_33  and  N_44
   28  A    between atoms: C_37  and  C_42
   29  A    between atoms: C_43  and  C_50
                            x       y       z     vdW  Elec       q    Type
                         _______ _______ _______ _____ _____    ______ ____

>  <TORSDO>
F 29

$$$$
=
 OpenBabel10222419043D

 50 51  0  0  1  0  0  0  0  0999 V2000
  188.3380  177.7790  140.4200 C   0  0  1  0  0  3  0  0  0  0  0  0
  188.8050  177.8640  141.8840 C   0  0  1  0  0  3  0  0  0  0  0  0
  188.6130  176.5480  142.6290 C   0  0  0  0  0  1  0  0  0  0  0  0
  190.2890  178.2190  141.9610 C   0  0  0  0  0  2  0  0  0  0  0  0
  191.7870  176.5980  142.8570 F   0  0  0  0  0  0  0  0  0  0  0  0
  190.5420  176.0100  141.0690 F   0  0  0  0  0  0  0  0  0  0  0  0
  191.2270  177.0490  141.6760 C   0  0  0  0  0  0  0  0  0  0  0  0
  192.3570  177.5110  140.7690 C   0  0  0  0  0  2  0  0  0  0  0  0
  192.1380  177.0690  139.3990 N   0  0  0  0  0  2  0  0  0  0  0  0
  193.3980  176.9500  138.8060 N   0  0  0  0  0  2  0  0  0  0  0  0
  193.1980  176.3470  137.5000 C   0  0  0  0  0  2  0  0  0  0  0  0
  195.1730  175.6930  136.3570 O   0  0  0  0  0  0  0  0  0  0  0  0
  194.2940  175.3900  137.2060 C   0  0  0  0  0  0  0  0  0  0  0  0
  194.3390  174.1340  137.8860 N   0  0  0  0  0  2  0  0  0  0  0  0
  195.3980  171.8160  138.5610 O   0  0  0  0  0  0  0  0  0  0  0  0
  195.6630  173.0270  137.7110 S   0  0  0  0  0  0  0  0  0  0  0  0
  197.1700  173.8070  138.2510 C   0  0  0  0  0  1  0  0  0  0  0  0
  195.7930  172.6000  136.2700 O   0  0  0  0  0  0  0  0  0  0  0  0
  186.8700  178.1900  140.2770 C   0  0  0  0  0  2  0  0  0  0  0  0
  186.3550  178.8410  141.5470 C   0  0  0  0  0  2  0  0  0  0  0  0
  184.9050  179.2610  141.3510 C   0  0  0  0  0  2  0  0  0  0  0  0
  184.2700  178.4740  140.2460 C   0  0  0  0  0  3  0  0  0  0  0  0
  183.3180  177.5760  140.4940 C   0  0  0  0  0  3  0  0  0  0  0  0
  182.7150  176.7990  139.3720 C   0  0  0  0  0  2  0  0  0  0  0  0
  181.6920  175.8010  139.8900 C   0  0  0  0  0  2  0  0  0  0  0  0
  180.2720  176.2880  139.6450 C   0  0  0  0  0  2  0  0  0  0  0  0
  179.7430  177.0360  140.8570 C   0  0  0  0  0  2  0  0  0  0  0  0
  180.0050  179.4550  141.4230 C   0  0  0  0  0  0  0  0  0  0  0  0
  179.7950  180.7940  140.8060 C   0  0  0  0  0  3  0  0  0  0  0  0
  179.3060  179.0250  139.3500 O   0  0  0  0  0  0  0  0  0  0  0  0
  179.3360  180.4460  139.3840 C   0  0  0  0  0  3  0  0  0  0  0  0
  179.6930  178.5010  140.5690 C   0  0  0  0  0  0  0  0  0  0  0  0
  180.3880  179.2380  142.8490 C   0  0  0  0  0  2  0  0  0  0  0  0
  181.8250  179.4050  143.0120 N   0  0  0  0  0  2  0  0  0  0  0  0
  182.2170  178.6040  144.1590 C   0  0  0  0  0  2  0  0  0  0  0  0
  183.4660  179.1840  144.8050 C   0  0  0  0  0  2  0  0  0  0  0  0
  184.5770  178.1470  144.7940 C   0  0  0  0  0  2  0  0  0  0  0  0
  186.6300  178.3590  147.4390 C   0  0  0  0  0  2  0  0  0  0  0  0
  186.8550  177.7160  145.1650 C   0  0  0  0  0  2  0  0  0  0  0  0
  185.8370  178.7620  145.1920 N   0  0  0  0  0  0  0  0  0  0  0  0
  185.6950  179.1880  146.5820 C   0  0  0  0  0  2  0  0  0  0  0  0
  187.6150  177.7760  146.4680 C   0  0  0  0  0  2  0  0  0  0  0  0
  189.1460  178.6460  139.6290 O   0  0  0  0  0  0  0  0  0  0  0  0
  188.9580  179.7440  137.5990 O   0  0  0  0  0  0  0  0  0  0  0  0
  189.1040  178.6640  138.2330 C   0  0  0  0  0  0  0  0  0  0  0  0
  189.2060  177.3780  137.4900 C   0  0  0  0  0  2  0  0  0  0  0  0
  188.2870  177.4020  136.2850 C   0  0  0  0  0  2  0  0  0  0  0  0
  187.3570  175.6340  135.0030 O   0  0  0  0  0  0  0  0  0  0  0  0
  187.1900  175.3980  137.2740 O   0  0  0  0  0  1  0  0  0  0  0  0
  187.5940  176.0960  136.1450 C   0  0  0  0  0  0  0  0  0  0  0  0
  1 19  1  1  0  0  0
  1  2  1  0  0  0  0
  2  4  1  0  0  0  0
  2  3  1  6  0  0  0
  6  7  1  0  0  0  0
  7  4  1  0  0  0  0
  7  5  1  0  0  0  0
  8  7  1  0  0  0  0
  9  8  1  0  0  0  0
 10  9  1  0  0  0  0
 11 10  1  0  0  0  0
 12 13  2  0  0  0  0
 13 11  1  0  0  0  0
 13 14  1  0  0  0  0
 16 14  1  0  0  0  0
 16 17  1  0  0  0  0
 16 15  2  0  0  0  0
 18 16  2  0  0  0  0
 19 20  1  0  0  0  0
 21 20  1  0  0  0  0
 22 23  2  0  0  0  0
 22 21  1  0  0  0  0
 24 25  1  0  0  0  0
 24 23  1  0  0  0  0
 26 25  1  0  0  0  0
 26 27  1  0  0  0  0
 28 33  1  0  0  0  0
 29 28  1  0  0  0  0
 30 31  1  0  0  0  0
 30 32  1  0  0  0  0
 31 29  2  0  0  0  0
 32 27  1  0  0  0  0
 32 28  2  0  0  0  0
 33 34  1  0  0  0  0
 34 35  1  0  0  0  0
 35 36  1  0  0  0  0
 37 36  1  0  0  0  0
 37 40  1  0  0  0  0
 39 40  1  0  0  0  0
 39 42  1  0  0  0  0
 40 41  1  0  0  0  0
 41 38  1  0  0  0  0
 42 38  1  0  0  0  0
 43  1  1  0  0  0  0
 44 45  2  0  0  0  0
 45 43  1  0  0  0  0
 46 45  1  0  0  0  0
 47 46  1  0  0  0  0
 48 50  2  0  0  0  0
 50 47  1  0  0  0  0
 50 49  1  0  0  0  0
M  END
>  <MODEL>
7

>  <REMARK>
 VINA RESULT:      -5.3      4.137      7.957
  Name = 
  29 active torsions:
  status: ('A' for Active; 'I' for Inactive)
    1  A    between atoms: C_2  and  N_22
    2  A    between atoms: C_2  and  C_46
    3  A    between atoms: N_3  and  C_10
    4  A    between atoms: N_3  and  N_27
    5  A    between atoms: C_5  and  C_14
    6  A    between atoms: C_10  and  C_50
    7  A    between atoms: C_11  and  C_30
    8  A    between atoms: C_11  and  C_41
    9  A    between atoms: C_12  and  C_20
   10  A    between atoms: C_13  and  C_17
   11  A    between atoms: C_13  and  C_47
   12  A    between atoms: C_14  and  C_48
   13  A    between atoms: C_15  and  C_30
   14  A    between atoms: C_15  and  C_35
   15  A    between atoms: C_17  and  C_36
   16  A    between atoms: O_18  and  C_19
   17  A    between atoms: O_18  and  C_36
   18  A    between atoms: C_19  and  C_21
   19  A    between atoms: C_19  and  C_28
   20  A    between atoms: C_20  and  N_22
   21  A    between atoms: C_21  and  C_43
   22  A    between atoms: C_26  and  N_29
   23  A    between atoms: C_26  and  C_46
   24  A    between atoms: N_27  and  C_37
   25  A    between atoms: C_28  and  C_48
   26  A    between atoms: C_32  and  C_35
   27  A    between atoms: S_33  and  N_44
   28  A    between atoms: C_37  and  C_42
   29  A    between atoms: C_43  and  C_50
                            x       y       z     vdW  Elec       q    Type
                         _______ _______ _______ _____ _____    ______ ____

>  <TORSDO>
F 29

$$$$
=
 OpenBabel10222419043D

 50 51  0  0  1  0  0  0  0  0999 V2000
  189.2430  177.9490  140.8310 C   0  0  1  0  0  3  0  0  0  0  0  0
  188.8290  177.7470  139.3630 C   0  0  1  0  0  3  0  0  0  0  0  0
  189.1610  178.9570  138.4970 C   0  0  0  0  0  1  0  0  0  0  0  0
  189.5470  176.5410  138.7570 C   0  0  0  0  0  2  0  0  0  0  0  0
  187.5560  175.9610  137.5860 F   0  0  0  0  0  0  0  0  0  0  0  0
  189.2440  176.8840  136.4040 F   0  0  0  0  0  0  0  0  0  0  0  0
  188.9310  176.0370  137.4550 C   0  0  0  0  0  0  0  0  0  0  0  0
  189.4500  174.6390  137.1530 C   0  0  0  0  0  2  0  0  0  0  0  0
  190.8280  174.4900  137.5980 N   0  0  0  0  0  2  0  0  0  0  0  0
  191.6360  174.6370  136.4670 N   0  0  0  0  0  2  0  0  0  0  0  0
  192.5170  175.7640  136.7170 C   0  0  0  0  0  2  0  0  0  0  0  0
  194.8770  176.0170  136.7880 O   0  0  0  0  0  0  0  0  0  0  0  0
  193.8840  175.2820  137.0370 C   0  0  0  0  0  0  0  0  0  0  0  0
  194.0620  173.9900  137.6210 N   0  0  0  0  0  2  0  0  0  0  0  0
  195.4400  172.0320  138.7240 O   0  0  0  0  0  0  0  0  0  0  0  0
  195.6070  173.4160  138.1600 S   0  0  0  0  0  0  0  0  0  0  0  0
  196.2360  174.4950  139.4290 C   0  0  0  0  0  1  0  0  0  0  0  0
  196.5730  173.3650  137.0030 O   0  0  0  0  0  0  0  0  0  0  0  0
  188.0370  178.2950  141.7090 C   0  0  0  0  0  2  0  0  0  0  0  0
  186.8230  178.6410  140.8660 C   0  0  0  0  0  2  0  0  0  0  0  0
  185.6870  179.0920  141.7720 C   0  0  0  0  0  2  0  0  0  0  0  0
  184.3600  178.8060  141.1410 C   0  0  0  0  0  3  0  0  0  0  0  0
  184.0560  179.2630  139.9260 C   0  0  0  0  0  3  0  0  0  0  0  0
  182.7200  178.9710  139.3310 C   0  0  0  0  0  2  0  0  0  0  0  0
  181.8730  178.1380  140.2790 C   0  0  0  0  0  2  0  0  0  0  0  0
  181.7060  176.7160  139.7650 C   0  0  0  0  0  2  0  0  0  0  0  0
  180.3130  176.5090  139.1970 C   0  0  0  0  0  2  0  0  0  0  0  0
  179.9360  176.5310  136.7270 C   0  0  0  0  0  0  0  0  0  0  0  0
  180.1660  175.6660  135.5370 C   0  0  0  0  0  3  0  0  0  0  0  0
  181.0000  174.7390  137.5210 O   0  0  0  0  0  0  0  0  0  0  0  0
  180.9130  174.4630  136.1290 C   0  0  0  0  0  3  0  0  0  0  0  0
  180.4030  175.9510  137.8150 C   0  0  0  0  0  0  0  0  0  0  0  0
  179.1690  177.8100  136.7010 C   0  0  0  0  0  2  0  0  0  0  0  0
  179.7680  178.7340  135.7500 N   0  0  0  0  0  2  0  0  0  0  0  0
  180.6270  179.6270  136.5100 C   0  0  0  0  0  2  0  0  0  0  0  0
  179.7860  180.5750  137.3520 C   0  0  0  0  0  2  0  0  0  0  0  0
  179.5490  181.8660  136.5870 C   0  0  0  0  0  2  0  0  0  0  0  0
  180.7820  184.9320  136.0080 C   0  0  0  0  0  2  0  0  0  0  0  0
  181.2040  183.2040  137.5790 C   0  0  0  0  0  2  0  0  0  0  0  0
  180.8170  182.5390  136.3380 N   0  0  0  0  0  0  0  0  0  0  0  0
  180.5710  183.5850  135.3480 C   0  0  0  0  0  2  0  0  0  0  0  0
  181.5770  184.6280  137.2440 C   0  0  0  0  0  2  0  0  0  0  0  0
  189.8410  176.7480  141.3100 O   0  0  0  0  0  0  0  0  0  0  0  0
  192.0530  177.3060  141.7040 O   0  0  0  0  0  0  0  0  0  0  0  0
  191.0000  176.7310  142.0900 C   0  0  0  0  0  0  0  0  0  0  0  0
  190.9890  175.9960  143.3840 C   0  0  0  0  0  2  0  0  0  0  0  0
  191.5170  176.8870  144.4900 C   0  0  0  0  0  2  0  0  0  0  0  0
  189.5510  177.5460  145.6450 O   0  0  0  0  0  1  0  0  0  0  0  0
  190.5440  179.1760  144.3800 O   0  0  0  0  0  0  0  0  0  0  0  0
  190.4860  177.8830  144.8790 C   0  0  0  0  0  0  0  0  0  0  0  0
  1 43  1  0  0  0  0
  1 19  1  1  0  0  0
  2  3  1  6  0  0  0
  2  1  1  0  0  0  0
  4  2  1  0  0  0  0
  6  7  1  0  0  0  0
  7  5  1  0  0  0  0
  7  4  1  0  0  0  0
  8  7  1  0  0  0  0
  8  9  1  0  0  0  0
 10 11  1  0  0  0  0
 10  9  1  0  0  0  0
 11 13  1  0  0  0  0
 12 13  2  0  0  0  0
 13 14  1  0  0  0  0
 14 16  1  0  0  0  0
 16 15  2  0  0  0  0
 16 17  1  0  0  0  0
 18 16  2  0  0  0  0
 20 19  1  0  0  0  0
 20 21  1  0  0  0  0
 22 21  1  0  0  0  0
 23 22  2  0  0  0  0
 24 23  1  0  0  0  0
 24 25  1  0  0  0  0
 26 25  1  0  0  0  0
 27 26  1  0  0  0  0
 28 32  2  0  0  0  0
 29 31  2  0  0  0  0
 29 28  1  0  0  0  0
 30 32  1  0  0  0  0
 31 30  1  0  0  0  0
 32 27  1  0  0  0  0
 33 28  1  0  0  0  0
 34 35  1  0  0  0  0
 34 33  1  0  0  0  0
 35 36  1  0  0  0  0
 37 36  1  0  0  0  0
 38 42  1  0  0  0  0
 40 37  1  0  0  0  0
 40 39  1  0  0  0  0
 41 38  1  0  0  0  0
 41 40  1  0  0  0  0
 42 39  1  0  0  0  0
 43 45  1  0  0  0  0
 44 45  2  0  0  0  0
 45 46  1  0  0  0  0
 46 47  1  0  0  0  0
 47 50  1  0  0  0  0
 49 50  2  0  0  0  0
 50 48  1  0  0  0  0
M  END
>  <MODEL>
8

>  <REMARK>
 VINA RESULT:      -5.1      4.597      8.400
  Name = 
  29 active torsions:
  status: ('A' for Active; 'I' for Inactive)
    1  A    between atoms: C_2  and  N_22
    2  A    between atoms: C_2  and  C_46
    3  A    between atoms: N_3  and  C_10
    4  A    between atoms: N_3  and  N_27
    5  A    between atoms: C_5  and  C_14
    6  A    between atoms: C_10  and  C_50
    7  A    between atoms: C_11  and  C_30
    8  A    between atoms: C_11  and  C_41
    9  A    between atoms: C_12  and  C_20
   10  A    between atoms: C_13  and  C_17
   11  A    between atoms: C_13  and  C_47
   12  A    between atoms: C_14  and  C_48
   13  A    between atoms: C_15  and  C_30
   14  A    between atoms: C_15  and  C_35
   15  A    between atoms: C_17  and  C_36
   16  A    between atoms: O_18  and  C_19
   17  A    between atoms: O_18  and  C_36
   18  A    between atoms: C_19  and  C_21
   19  A    between atoms: C_19  and  C_28
   20  A    between atoms: C_20  and  N_22
   21  A    between atoms: C_21  and  C_43
   22  A    between atoms: C_26  and  N_29
   23  A    between atoms: C_26  and  C_46
   24  A    between atoms: N_27  and  C_37
   25  A    between atoms: C_28  and  C_48
   26  A    between atoms: C_32  and  C_35
   27  A    between atoms: S_33  and  N_44
   28  A    between atoms: C_37  and  C_42
   29  A    between atoms: C_43  and  C_50
                            x       y       z     vdW  Elec       q    Type
                         _______ _______ _______ _____ _____    ______ ____

>  <TORSDO>
F 29

$$$$
=
 OpenBabel10222419043D

 50 51  0  0  1  0  0  0  0  0999 V2000
  187.6290  178.0310  140.7730 C   0  0  1  0  0  3  0  0  0  0  0  0
  188.0860  178.0820  142.2410 C   0  0  1  0  0  3  0  0  0  0  0  0
  187.6790  176.8340  143.0160 C   0  0  0  0  0  1  0  0  0  0  0  0
  189.6060  178.2030  142.3340 C   0  0  0  0  0  2  0  0  0  0  0  0
  189.4550  175.8890  141.7870 F   0  0  0  0  0  0  0  0  0  0  0  0
  191.1190  177.0890  140.8460 F   0  0  0  0  0  0  0  0  0  0  0  0
  190.3560  176.9180  141.9890 C   0  0  0  0  0  0  0  0  0  0  0  0
  191.2590  176.5290  143.1500 C   0  0  0  0  0  2  0  0  0  0  0  0
  192.0590  177.6630  143.5900 N   0  0  0  0  0  2  0  0  0  0  0  0
  191.7860  177.8470  144.9480 N   0  0  0  0  0  2  0  0  0  0  0  0
  191.3090  176.5750  145.4620 C   0  0  0  0  0  2  0  0  0  0  0  0
  190.7020  176.3320  147.7440 O   0  0  0  0  0  0  0  0  0  0  0  0
  190.3990  176.7980  146.6140 C   0  0  0  0  0  0  0  0  0  0  0  0
  189.1880  177.5340  146.4290 N   0  0  0  0  0  2  0  0  0  0  0  0
  187.8460  176.7290  148.5500 O   0  0  0  0  0  0  0  0  0  0  0  0
  188.1490  177.9640  147.7490 S   0  0  0  0  0  0  0  0  0  0  0  0
  186.6290  178.6420  147.1160 C   0  0  0  0  0  1  0  0  0  0  0  0
  188.8310  178.9740  148.6370 O   0  0  0  0  0  0  0  0  0  0  0  0
  186.2330  178.6340  140.5990 C   0  0  0  0  0  2  0  0  0  0  0  0
  185.6020  178.9560  141.9420 C   0  0  0  0  0  2  0  0  0  0  0  0
  184.2230  178.3180  142.0220 C   0  0  0  0  0  2  0  0  0  0  0  0
  183.5810  178.2720  140.6700 C   0  0  0  0  0  3  0  0  0  0  0  0
  183.1530  179.3810  140.0680 C   0  0  0  0  0  3  0  0  0  0  0  0
  182.5050  179.2990  138.7260 C   0  0  0  0  0  2  0  0  0  0  0  0
  181.4220  180.3550  138.5810 C   0  0  0  0  0  2  0  0  0  0  0  0
  180.0610  179.7200  138.3360 C   0  0  0  0  0  2  0  0  0  0  0  0
  179.0760  180.1240  139.4190 C   0  0  0  0  0  2  0  0  0  0  0  0
  179.5250  178.3930  141.1640 C   0  0  0  0  0  0  0  0  0  0  0  0
  180.0450  178.2940  142.5570 C   0  0  0  0  0  3  0  0  0  0  0  0
  180.0960  180.4780  141.7100 O   0  0  0  0  0  0  0  0  0  0  0  0
  180.4390  179.7420  142.8770 C   0  0  0  0  0  3  0  0  0  0  0  0
  179.5560  179.6440  140.7500 C   0  0  0  0  0  0  0  0  0  0  0  0
  178.9360  177.2530  140.4040 C   0  0  0  0  0  2  0  0  0  0  0  0
  179.7070  176.0410  140.6410 N   0  0  0  0  0  2  0  0  0  0  0  0
  180.8970  176.1280  139.8120 C   0  0  0  0  0  2  0  0  0  0  0  0
  180.5240  176.0230  138.3410 C   0  0  0  0  0  2  0  0  0  0  0  0
  181.4790  175.0740  137.6360 C   0  0  0  0  0  2  0  0  0  0  0  0
  184.5010  174.5970  136.2610 C   0  0  0  0  0  2  0  0  0  0  0  0
  183.0340  176.4430  136.5320 C   0  0  0  0  0  2  0  0  0  0  0  0
  182.8380  175.5940  137.7030 N   0  0  0  0  0  0  0  0  0  0  0  0
  183.7480  174.4590  137.5670 C   0  0  0  0  0  2  0  0  0  0  0  0
  184.3330  176.0390  135.8790 C   0  0  0  0  0  2  0  0  0  0  0  0
  188.5570  178.7630  139.9770 O   0  0  0  0  0  0  0  0  0  0  0  0
  189.0140  179.4340  137.8080 O   0  0  0  0  0  0  0  0  0  0  0  0
  188.7740  178.5010  138.6220 C   0  0  0  0  0  0  0  0  0  0  0  0
  188.6910  177.0970  138.1360 C   0  0  0  0  0  2  0  0  0  0  0  0
  189.7580  176.8480  137.0880 C   0  0  0  0  0  2  0  0  0  0  0  0
  190.8330  175.5990  138.7960 O   0  0  0  0  0  1  0  0  0  0  0  0
  192.1970  176.3470  137.1160 O   0  0  0  0  0  0  0  0  0  0  0  0
  190.9510  176.2230  137.7140 C   0  0  0  0  0  0  0  0  0  0  0  0
  1 19  1  1  0  0  0
  1  2  1  0  0  0  0
  2  4  1  0  0  0  0
  2  3  1  1  0  0  0
  5  7  1  0  0  0  0
  6  7  1  0  0  0  0
  7  4  1  0  0  0  0
  7  8  1  0  0  0  0
  8  9  1  0  0  0  0
  9 10  1  0  0  0  0
 10 11  1  0  0  0  0
 11 13  1  0  0  0  0
 13 12  2  0  0  0  0
 14 13  1  0  0  0  0
 14 16  1  0  0  0  0
 16 15  2  0  0  0  0
 16 18  2  0  0  0  0
 17 16  1  0  0  0  0
 19 20  1  0  0  0  0
 20 21  1  0  0  0  0
 22 21  1  0  0  0  0
 23 22  2  0  0  0  0
 24 23  1  0  0  0  0
 25 24  1  0  0  0  0
 26 25  1  0  0  0  0
 26 27  1  0  0  0  0
 27 32  1  0  0  0  0
 28 29  1  0  0  0  0
 29 31  2  0  0  0  0
 30 31  1  0  0  0  0
 32 28  2  0  0  0  0
 32 30  1  0  0  0  0
 33 34  1  0  0  0  0
 33 28  1  0  0  0  0
 35 34  1  0  0  0  0
 36 35  1  0  0  0  0
 37 40  1  0  0  0  0
 37 36  1  0  0  0  0
 38 41  1  0  0  0  0
 39 40  1  0  0  0  0
 41 40  1  0  0  0  0
 42 38  1  0  0  0  0
 42 39  1  0  0  0  0
 43  1  1  0  0  0  0
 44 45  2  0  0  0  0
 45 43  1  0  0  0  0
 46 45  1  0  0  0  0
 47 50  1  0  0  0  0
 47 46  1  0  0  0  0
 49 50  2  0  0  0  0
 50 48  1  0  0  0  0
M  END
>  <MODEL>
9

>  <REMARK>
 VINA RESULT:      -5.0      3.058      6.992
  Name = 
  29 active torsions:
  status: ('A' for Active; 'I' for Inactive)
    1  A    between atoms: C_2  and  N_22
    2  A    between atoms: C_2  and  C_46
    3  A    between atoms: N_3  and  C_10
    4  A    between atoms: N_3  and  N_27
    5  A    between atoms: C_5  and  C_14
    6  A    between atoms: C_10  and  C_50
    7  A    between atoms: C_11  and  C_30
    8  A    between atoms: C_11  and  C_41
    9  A    between atoms: C_12  and  C_20
   10  A    between atoms: C_13  and  C_17
   11  A    between atoms: C_13  and  C_47
   12  A    between atoms: C_14  and  C_48
   13  A    between atoms: C_15  and  C_30
   14  A    between atoms: C_15  and  C_35
   15  A    between atoms: C_17  and  C_36
   16  A    between atoms: O_18  and  C_19
   17  A    between atoms: O_18  and  C_36
   18  A    between atoms: C_19  and  C_21
   19  A    between atoms: C_19  and  C_28
   20  A    between atoms: C_20  and  N_22
   21  A    between atoms: C_21  and  C_43
   22  A    between atoms: C_26  and  N_29
   23  A    between atoms: C_26  and  C_46
   24  A    between atoms: N_27  and  C_37
   25  A    between atoms: C_28  and  C_48
   26  A    between atoms: C_32  and  C_35
   27  A    between atoms: S_33  and  N_44
   28  A    between atoms: C_37  and  C_42
   29  A    between atoms: C_43  and  C_50
                            x       y       z     vdW  Elec       q    Type
                         _______ _______ _______ _____ _____    ______ ____

>  <TORSDO>
F 29

$$$$
