=
 OpenBabel10222417323D

 59 67  0  0  1  0  0  0  0  0999 V2000
  192.4350  172.6040  135.4030 C   0  0  0  0  0  0  0  0  0  0  0  0
  193.5210  175.6980  137.8620 C   0  0  0  0  0  0  0  0  0  0  0  0
  189.8670  175.5800  137.7910 C   0  0  2  0  0  3  0  0  0  0  0  0
  192.1810  175.4250  137.6300 C   0  0  0  0  0  0  0  0  0  0  0  0
  191.1700  171.9200  135.0500 C   0  0  0  0  0  1  0  0  0  0  0  0
  190.4940  177.5030  140.3120 C   0  0  2  0  0  3  0  0  0  0  0  0
  194.0190  174.1250  136.0830 C   0  0  0  0  0  0  0  0  0  0  0  0
  191.5270  176.8770  139.3980 C   0  0  0  0  0  0  0  0  0  0  0  0
  190.6360  176.8880  141.6990 C   0  0  0  0  0  1  0  0  0  0  0  0
  188.8940  177.8840  138.3890 C   0  0  0  0  0  2  0  0  0  0  0  0
  193.8270  176.5550  138.8770 N   0  0  0  0  0  0  0  0  0  0  0  0
  191.6940  174.6580  136.6820 C   0  0  0  0  0  0  0  0  0  0  0  0
  189.0670  176.7950  137.3030 C   0  0  2  0  0  3  0  0  0  0  0  0
  192.8610  177.1240  139.6190 N   0  0  0  0  0  0  0  0  0  0  0  0
  189.0450  177.3580  139.8210 C   0  0  2  0  0  3  0  0  0  0  0  0
  192.5830  174.0810  135.6130 C   0  0  2  0  0  3  0  0  0  0  0  0
  194.5300  172.9110  135.9560 C   0  0  0  0  0  0  0  0  0  0  0  0
  191.1980  175.9920  138.3660 C   0  0  0  0  0  0  0  0  0  0  0  0
  190.2660  174.7260  136.6590 N   0  0  0  0  0  2  0  0  0  0  0  0
  193.5490  171.9630  135.5540 N   0  0  0  0  0  0  0  0  0  0  0  0
  195.7660  172.5160  136.5460 N   0  0  0  0  0  1  0  0  0  0  0  0
  194.4680  175.0840  137.1330 C   0  0  0  0  0  3  0  0  0  0  0  0
  188.1490  178.0640  140.7040 N   0  0  0  0  0  0  0  0  0  0  0  0
  186.9100  178.2000  140.3940 C   0  0  0  0  0  3  0  0  0  0  0  0
  185.9780  178.9150  141.3120 C   0  0  0  0  0  2  0  0  0  0  0  0
  185.5630  178.0420  142.3500 O   0  0  0  0  0  0  0  0  0  0  0  0
  187.2120  177.7700  143.9460 N   0  0  0  0  0  0  0  0  0  0  0  0
  183.6230  178.8530  144.6980 C   0  0  0  0  0  2  0  0  0  0  0  0
  188.7450  177.5030  147.8830 C   0  0  0  0  0  3  0  0  0  0  0  0
  184.6120  180.0100  144.6910 C   0  0  0  0  0  2  0  0  0  0  0  0
  189.5880  177.2930  146.7820 C   0  0  0  0  0  3  0  0  0  0  0  0
  186.9100  177.9810  146.3760 C   0  0  0  0  0  0  0  0  0  0  0  0
  189.0880  177.3940  145.4820 C   0  0  0  0  0  3  0  0  0  0  0  0
  187.7480  177.7340  145.2760 C   0  0  0  0  0  0  0  0  0  0  0  0
  185.9900  178.1260  143.6820 C   0  0  0  0  0  0  0  0  0  0  0  0
  185.1070  178.5910  144.8370 C   0  0  0  0  0  0  0  0  0  0  0  0
  187.4030  177.8480  147.6790 C   0  0  0  0  0  3  0  0  0  0  0  0
  185.5780  178.3360  146.1580 O   0  0  0  0  0  0  0  0  0  0  0  0
  187.8190  176.3350  136.8150 O   0  0  0  0  0  0  0  0  0  0  0  0
  186.1070  176.7960  135.2760 O   0  0  0  0  0  0  0  0  0  0  0  0
  185.8250  177.6050  136.3990 C   0  0  2  0  0  3  0  0  0  0  0  0
  187.2240  177.3080  135.9750 C   0  0  1  0  0  3  0  0  0  0  0  0
  185.3790  176.7880  137.4480 O   0  0  0  0  0  0  0  0  0  0  0  0
  184.1130  176.3690  137.0410 C   0  0  0  0  0  2  0  0  0  0  0  0
  183.1520  177.5450  137.0370 C   0  0  0  0  0  2  0  0  0  0  0  0
  181.9000  177.2150  137.8510 C   0  0  2  0  0  3  0  0  0  0  0  0
  179.8430  176.4020  136.5890 C   0  0  0  0  0  1  0  0  0  0  0  0
  181.1070  176.0010  137.3400 C   0  0  2  0  0  3  0  0  0  0  0  0
  180.9030  174.9950  138.3330 O   0  0  0  0  0  0  0  0  0  0  0  0
  179.1060  174.0180  139.5230 C   0  0  0  0  0  2  0  0  0  0  0  0
  179.7370  174.2280  138.3750 C   0  0  0  0  0  3  0  0  0  0  0  0
  180.9890  178.4330  138.0760 C   0  0  2  0  0  3  0  0  0  0  0  0
  180.3850  180.3820  136.5690 C   0  0  0  0  0  1  0  0  0  0  0  0
  181.4750  179.7510  137.4210 C   0  0  0  0  0  3  0  0  0  0  0  0
  182.0260  180.7600  138.4190 C   0  0  0  0  0  1  0  0  0  0  0  0
  180.5240  178.5350  139.5050 C   0  0  0  0  0  0  0  0  0  0  0  0
  179.4420  179.1360  139.7540 O   0  0  0  0  0  0  0  0  0  0  0  0
  181.2520  177.9470  140.5410 O   0  0  0  0  0  0  0  0  0  0  0  0
  181.9950  178.7320  141.4650 C   0  0  0  0  0  1  0  0  0  0  0  0
  1 20  2  0  0  0  0
  2 11  1  0  0  0  0
  3 19  1  6  0  0  0
  3 18  1  0  0  0  0
  4  2  1  0  0  0  0
  4 18  1  0  0  0  0
  5  1  1  0  0  0  0
  6  9  1  1  0  0  0
  7 22  1  0  0  0  0
  8 14  1  0  0  0  0
  8  6  1  0  0  0  0
 10 15  1  0  0  0  0
 11 14  2  0  0  0  0
 12  4  2  0  0  0  0
 13 39  1  1  0  0  0
 13  3  1  0  0  0  0
 13 10  1  0  0  0  0
 15  6  1  0  0  0  0
 15 23  1  1  0  0  0
 16  1  1  1  0  0  0
 16  7  1  0  0  0  0
 16 12  1  0  0  0  0
 17  7  2  0  0  0  0
 17 21  1  0  0  0  0
 18  8  2  0  0  0  0
 19 12  1  0  0  0  0
 20 17  1  0  0  0  0
 22  2  2  0  0  0  0
 24 23  2  0  0  0  0
 24 25  1  0  0  0  0
 25 26  1  0  0  0  0
 26 35  1  0  0  0  0
 27 34  1  0  0  0  0
 28 36  1  0  0  0  0
 30 28  1  0  0  0  0
 30 36  1  0  0  0  0
 31 29  2  0  0  0  0
 32 37  2  0  0  0  0
 33 31  1  0  0  0  0
 34 33  2  0  0  0  0
 34 32  1  0  0  0  0
 35 27  2  0  0  0  0
 35 36  1  0  0  0  0
 36 38  1  0  0  0  0
 37 29  1  0  0  0  0
 38 32  1  0  0  0  0
 40 42  1  0  0  0  0
 40 41  1  0  0  0  0
 41 43  1  1  0  0  0
 42 41  1  0  0  0  0
 42 39  1  1  0  0  0
 44 43  1  0  0  0  0
 45 44  1  0  0  0  0
 46 45  1  6  0  0  0
 46 52  1  0  0  0  0
 48 47  1  1  0  0  0
 48 46  1  0  0  0  0
 48 49  1  0  0  0  0
 49 51  1  0  0  0  0
 51 50  2  0  0  0  0
 52 54  1  1  0  0  0
 52 56  1  0  0  0  0
 53 54  1  0  0  0  0
 54 55  1  0  0  0  0
 56 57  2  0  0  0  0
 56 58  1  0  0  0  0
 58 59  1  0  0  0  0
M  END
>  <MODEL>
1

>  <REMARK>
 VINA RESULT:      -8.1      0.000      0.000
  Name = 
  17 active torsions:
  status: ('A' for Active; 'I' for Inactive)
    1  A    between atoms: O_3  and  C_44
    2  A    between atoms: C_4  and  O_26
    3  A    between atoms: C_4  and  C_35
    4  A    between atoms: O_7  and  C_13
    5  A    between atoms: O_7  and  C_57
    6  A    between atoms: C_13  and  C_27
    7  A    between atoms: C_14  and  C_27
    8  A    between atoms: C_14  and  C_44
    9  A    between atoms: C_14  and  C_53
   10  A    between atoms: C_16  and  O_26
   11  A    between atoms: C_18  and  O_50
   12  A    between atoms: C_27  and  C_35
   13  A    between atoms: O_31  and  C_38
   14  A    between atoms: O_31  and  C_51
   15  A    between atoms: C_36  and  O_50
   16  A    between atoms: N_42  and  C_43
   17  A    between atoms: C_51  and  C_54
                            x       y       z     vdW  Elec       q    Type
                         _______ _______ _______ _____ _____    ______ ____

>  <TORSDO>
F 17

$$$$
=
 OpenBabel10222417323D

 59 67  0  0  1  0  0  0  0  0999 V2000
  192.2960  172.5580  135.2350 C   0  0  0  0  0  0  0  0  0  0  0  0
  193.4590  175.6030  137.7190 C   0  0  0  0  0  0  0  0  0  0  0  0
  189.8040  175.5970  137.6220 C   0  0  2  0  0  3  0  0  0  0  0  0
  192.1130  175.3730  137.4760 C   0  0  0  0  0  0  0  0  0  0  0  0
  191.0130  171.9140  134.8690 C   0  0  0  0  0  1  0  0  0  0  0  0
  190.4720  177.4870  140.1590 C   0  0  2  0  0  3  0  0  0  0  0  0
  193.9210  174.0250  135.9340 C   0  0  0  0  0  0  0  0  0  0  0  0
  191.4910  176.8330  139.2480 C   0  0  0  0  0  0  0  0  0  0  0  0
  190.5850  176.8590  141.5430 C   0  0  0  0  0  1  0  0  0  0  0  0
  188.8980  177.9270  138.2270 C   0  0  0  0  0  2  0  0  0  0  0  0
  193.7840  176.4440  138.7410 N   0  0  0  0  0  0  0  0  0  0  0  0
  191.6090  174.6260  136.5210 C   0  0  0  0  0  0  0  0  0  0  0  0
  189.0450  176.8390  137.1360 C   0  0  2  0  0  3  0  0  0  0  0  0
  192.8310  177.0380  139.4790 N   0  0  0  0  0  0  0  0  0  0  0  0
  189.0220  177.3890  139.6570 C   0  0  2  0  0  3  0  0  0  0  0  0
  192.4880  174.0280  135.4550 C   0  0  2  0  0  3  0  0  0  0  0  0
  194.3950  172.7960  135.8030 C   0  0  0  0  0  0  0  0  0  0  0  0
  191.1430  175.9650  138.2090 C   0  0  0  0  0  0  0  0  0  0  0  0
  190.1840  174.7380  136.4890 N   0  0  0  0  0  2  0  0  0  0  0  0
  193.3890  171.8820  135.3900 N   0  0  0  0  0  0  0  0  0  0  0  0
  195.6140  172.3610  136.3990 N   0  0  0  0  0  1  0  0  0  0  0  0
  194.3920  174.9640  136.9920 C   0  0  0  0  0  3  0  0  0  0  0  0
  188.1430  178.1170  140.5370 N   0  0  0  0  0  0  0  0  0  0  0  0
  186.8900  178.2070  140.2710 C   0  0  0  0  0  3  0  0  0  0  0  0
  185.9750  178.9440  141.1880 C   0  0  0  0  0  2  0  0  0  0  0  0
  185.5280  178.0800  142.2190 O   0  0  0  0  0  0  0  0  0  0  0  0
  187.1380  177.8050  143.8530 N   0  0  0  0  0  0  0  0  0  0  0  0
  183.5380  178.9050  144.5190 C   0  0  0  0  0  2  0  0  0  0  0  0
  188.5790  177.5430  147.8250 C   0  0  0  0  0  3  0  0  0  0  0  0
  184.5310  180.0580  144.5310 C   0  0  0  0  0  2  0  0  0  0  0  0
  189.4460  177.3260  146.7450 C   0  0  0  0  0  3  0  0  0  0  0  0
  186.7810  178.0240  146.2750 C   0  0  0  0  0  0  0  0  0  0  0  0
  188.9770  177.4260  145.4340 C   0  0  0  0  0  3  0  0  0  0  0  0
  187.6430  177.7710  145.1960 C   0  0  0  0  0  0  0  0  0  0  0  0
  185.9250  178.1660  143.5600 C   0  0  0  0  0  0  0  0  0  0  0  0
  185.0170  178.6370  144.6930 C   0  0  0  0  0  0  0  0  0  0  0  0
  187.2430  177.8930  147.5890 C   0  0  0  0  0  3  0  0  0  0  0  0
  185.4560  178.3840  146.0250 O   0  0  0  0  0  0  0  0  0  0  0  0
  187.7870  176.4210  136.6360 O   0  0  0  0  0  0  0  0  0  0  0  0
  186.4390  176.8650  134.7660 O   0  0  0  0  0  0  0  0  0  0  0  0
  185.7360  177.4010  135.8670 C   0  0  2  0  0  3  0  0  0  0  0  0
  187.2250  177.4170  135.8020 C   0  0  1  0  0  3  0  0  0  0  0  0
  185.2270  176.3470  136.6400 O   0  0  0  0  0  0  0  0  0  0  0  0
  183.9820  176.0770  136.0730 C   0  0  0  0  0  2  0  0  0  0  0  0
  183.0790  177.2910  136.1980 C   0  0  0  0  0  2  0  0  0  0  0  0
  181.7150  176.8850  136.7600 C   0  0  2  0  0  3  0  0  0  0  0  0
  179.5600  178.1300  136.2180 C   0  0  0  0  0  1  0  0  0  0  0  0
  180.7920  178.0630  137.1130 C   0  0  2  0  0  3  0  0  0  0  0  0
  181.4820  179.3050  137.2520 O   0  0  0  0  0  0  0  0  0  0  0  0
  181.8160  181.3210  138.4470 C   0  0  0  0  0  2  0  0  0  0  0  0
  181.0280  180.3070  138.1120 C   0  0  0  0  0  3  0  0  0  0  0  0
  181.8160  175.8770  137.9170 C   0  0  2  0  0  3  0  0  0  0  0  0
  179.8580  174.7070  136.8060 C   0  0  0  0  0  1  0  0  0  0  0  0
  181.0870  174.5290  137.6830 C   0  0  0  0  0  3  0  0  0  0  0  0
  181.9900  173.4390  137.1240 C   0  0  0  0  0  1  0  0  0  0  0  0
  181.5920  176.5290  139.2560 C   0  0  0  0  0  0  0  0  0  0  0  0
  180.4830  176.3660  139.8360 O   0  0  0  0  0  0  0  0  0  0  0  0
  182.6010  177.2720  139.8700 O   0  0  0  0  0  0  0  0  0  0  0  0
  182.3040  178.2590  140.8500 C   0  0  0  0  0  1  0  0  0  0  0  0
  1 20  2  0  0  0  0
  2 11  1  0  0  0  0
  3 19  1  6  0  0  0
  3 18  1  0  0  0  0
  4  2  1  0  0  0  0
  4 18  1  0  0  0  0
  5  1  1  0  0  0  0
  6  9  1  1  0  0  0
  7 22  1  0  0  0  0
  8 14  1  0  0  0  0
  8  6  1  0  0  0  0
 10 15  1  0  0  0  0
 11 14  2  0  0  0  0
 12  4  2  0  0  0  0
 13 39  1  1  0  0  0
 13  3  1  0  0  0  0
 13 10  1  0  0  0  0
 15  6  1  0  0  0  0
 15 23  1  1  0  0  0
 16  1  1  1  0  0  0
 16  7  1  0  0  0  0
 16 12  1  0  0  0  0
 17  7  2  0  0  0  0
 17 21  1  0  0  0  0
 18  8  2  0  0  0  0
 19 12  1  0  0  0  0
 20 17  1  0  0  0  0
 22  2  2  0  0  0  0
 24 23  2  0  0  0  0
 24 25  1  0  0  0  0
 25 26  1  0  0  0  0
 26 35  1  0  0  0  0
 27 34  1  0  0  0  0
 28 30  1  0  0  0  0
 28 36  1  0  0  0  0
 30 36  1  0  0  0  0
 31 29  2  0  0  0  0
 32 37  2  0  0  0  0
 33 31  1  0  0  0  0
 34 33  2  0  0  0  0
 34 32  1  0  0  0  0
 35 27  2  0  0  0  0
 35 36  1  0  0  0  0
 36 38  1  0  0  0  0
 37 29  1  0  0  0  0
 38 32  1  0  0  0  0
 40 42  1  0  0  0  0
 40 41  1  0  0  0  0
 41 43  1  1  0  0  0
 42 41  1  0  0  0  0
 42 39  1  1  0  0  0
 44 45  1  0  0  0  0
 44 43  1  0  0  0  0
 46 45  1  1  0  0  0
 46 48  1  0  0  0  0
 46 52  1  0  0  0  0
 48 47  1  6  0  0  0
 48 49  1  0  0  0  0
 49 51  1  0  0  0  0
 51 50  2  0  0  0  0
 52 54  1  6  0  0  0
 52 56  1  0  0  0  0
 53 54  1  0  0  0  0
 55 54  1  0  0  0  0
 56 57  2  0  0  0  0
 56 58  1  0  0  0  0
 58 59  1  0  0  0  0
M  END
>  <MODEL>
2

>  <REMARK>
 VINA RESULT:      -7.8      0.889      2.156
  Name = 
  17 active torsions:
  status: ('A' for Active; 'I' for Inactive)
    1  A    between atoms: O_3  and  C_44
    2  A    between atoms: C_4  and  O_26
    3  A    between atoms: C_4  and  C_35
    4  A    between atoms: O_7  and  C_13
    5  A    between atoms: O_7  and  C_57
    6  A    between atoms: C_13  and  C_27
    7  A    between atoms: C_14  and  C_27
    8  A    between atoms: C_14  and  C_44
    9  A    between atoms: C_14  and  C_53
   10  A    between atoms: C_16  and  O_26
   11  A    between atoms: C_18  and  O_50
   12  A    between atoms: C_27  and  C_35
   13  A    between atoms: O_31  and  C_38
   14  A    between atoms: O_31  and  C_51
   15  A    between atoms: C_36  and  O_50
   16  A    between atoms: N_42  and  C_43
   17  A    between atoms: C_51  and  C_54
                            x       y       z     vdW  Elec       q    Type
                         _______ _______ _______ _____ _____    ______ ____

>  <TORSDO>
F 17

$$$$
=
 OpenBabel10222417323D

 59 67  0  0  1  0  0  0  0  0999 V2000
  181.2810  177.8950  140.2360 C   0  0  0  0  0  0  0  0  0  0  0  0
  182.0140  174.9860  137.4440 C   0  0  0  0  0  0  0  0  0  0  0  0
  185.1180  176.8570  137.9250 C   0  0  2  0  0  3  0  0  0  0  0  0
  183.0170  175.8690  137.8150 C   0  0  0  0  0  0  0  0  0  0  0  0
  182.0950  178.8780  140.9870 C   0  0  0  0  0  1  0  0  0  0  0  0
  186.0890  174.2120  136.3390 C   0  0  2  0  0  3  0  0  0  0  0  0
  180.4810  176.4060  138.6780 C   0  0  0  0  0  0  0  0  0  0  0  0
  184.6600  174.5450  136.7150 C   0  0  0  0  0  0  0  0  0  0  0  0
  186.5280  172.9880  137.1350 C   0  0  0  0  0  1  0  0  0  0  0  0
  186.6170  176.6360  135.8460 C   0  0  0  0  0  2  0  0  0  0  0  0
  182.3720  173.8880  136.7190 N   0  0  0  0  0  0  0  0  0  0  0  0
  182.8630  176.9900  138.4810 C   0  0  0  0  0  0  0  0  0  0  0  0
  185.7740  177.5780  136.7390 C   0  0  2  0  0  3  0  0  0  0  0  0
  183.6520  173.6760  136.3680 N   0  0  0  0  0  0  0  0  0  0  0  0
  187.0840  175.3630  136.5590 C   0  0  2  0  0  3  0  0  0  0  0  0
  181.4920  177.5240  138.7990 C   0  0  0  0  0  0  0  0  0  0  0  0
  179.7830  176.3600  139.8010 C   0  0  0  0  0  0  0  0  0  0  0  0
  184.3090  175.6700  137.4670 C   0  0  0  0  0  0  0  0  0  0  0  0
  184.0970  177.7080  138.5570 N   0  0  0  0  0  2  0  0  0  0  0  0
  180.2860  177.2650  140.7740 N   0  0  0  0  0  2  0  0  0  0  0  0
  178.9330  175.2710  140.1490 N   0  0  0  0  0  1  0  0  0  0  0  0
  180.7480  175.2000  137.8430 C   0  0  0  0  0  3  0  0  0  0  0  0
  188.3930  174.9830  136.0860 N   0  0  0  0  0  0  0  0  0  0  0  0
  189.3050  174.6360  136.9200 C   0  0  0  0  0  3  0  0  0  0  0  0
  190.6530  174.2270  136.4340 C   0  0  0  0  0  2  0  0  0  0  0  0
  191.5170  174.0090  137.5370 O   0  0  0  0  0  0  0  0  0  0  0  0
  193.6110  173.1330  137.1050 N   0  0  0  0  0  0  0  0  0  0  0  0
  192.9740  176.6100  138.5600 C   0  0  0  0  0  2  0  0  0  0  0  0
  197.8410  173.0400  137.2340 C   0  0  0  0  0  3  0  0  0  0  0  0
  193.2980  176.6300  137.0730 C   0  0  0  0  0  2  0  0  0  0  0  0
  197.1310  171.9750  136.6630 C   0  0  0  0  0  3  0  0  0  0  0  0
  195.7570  174.2060  137.6360 C   0  0  0  0  0  0  0  0  0  0  0  0
  195.7360  172.0090  136.6060 C   0  0  0  0  0  3  0  0  0  0  0  0
  195.0460  173.1230  137.0960 C   0  0  0  0  0  0  0  0  0  0  0  0
  192.9100  174.1530  137.5000 C   0  0  0  0  0  0  0  0  0  0  0  0
  193.6510  175.4230  137.9100 C   0  0  0  0  0  0  0  0  0  0  0  0
  197.1530  174.1580  137.7220 C   0  0  0  0  0  3  0  0  0  0  0  0
  195.0590  175.3190  138.1070 O   0  0  0  0  0  0  0  0  0  0  0  0
  186.5450  178.6520  137.2470 O   0  0  0  0  0  0  0  0  0  0  0  0
  188.7110  179.5450  137.3980 O   0  0  0  0  0  0  0  0  0  0  0  0
  188.7400  178.3670  138.1760 C   0  0  2  0  0  3  0  0  0  0  0  0
  187.9150  178.4720  136.9380 C   0  0  1  0  0  3  0  0  0  0  0  0
  188.0040  178.5790  139.3510 O   0  0  0  0  0  0  0  0  0  0  0  0
  188.5940  177.7250  140.2820 C   0  0  0  0  0  2  0  0  0  0  0  0
  188.4150  178.2790  141.6840 C   0  0  0  0  0  2  0  0  0  0  0  0
  188.6700  177.1880  142.7260 C   0  0  2  0  0  3  0  0  0  0  0  0
  186.2260  177.6250  143.2940 C   0  0  0  0  0  1  0  0  0  0  0  0
  187.5420  177.0110  143.7560 C   0  0  2  0  0  3  0  0  0  0  0  0
  187.9220  177.3720  145.0840 O   0  0  0  0  0  0  0  0  0  0  0  0
  186.6420  177.7950  147.0300 C   0  0  0  0  0  2  0  0  0  0  0  0
  187.1350  178.2150  145.8710 C   0  0  0  0  0  3  0  0  0  0  0  0
  190.0430  177.3130  143.4050 C   0  0  2  0  0  3  0  0  0  0  0  0
  191.5610  179.2750  143.9420 C   0  0  0  0  0  1  0  0  0  0  0  0
  190.9650  178.4210  142.8330 C   0  0  0  0  0  3  0  0  0  0  0  0
  192.0590  177.8900  141.9190 C   0  0  0  0  0  1  0  0  0  0  0  0
  190.6850  175.9710  143.6360 C   0  0  0  0  0  0  0  0  0  0  0  0
  190.2870  174.9800  142.9640 O   0  0  0  0  0  0  0  0  0  0  0  0
  191.7290  175.8220  144.5510 O   0  0  0  0  0  0  0  0  0  0  0  0
  191.6320  176.3240  145.8770 C   0  0  0  0  0  1  0  0  0  0  0  0
  1 20  1  0  0  0  0
  1  5  1  0  0  0  0
  2  4  1  0  0  0  0
  2 22  2  0  0  0  0
  3 18  1  6  0  0  0
  3 19  1  0  0  0  0
  4 12  2  0  0  0  0
  6 15  1  0  0  0  0
  6  8  1  0  0  0  0
  6  9  1  1  0  0  0
  7 16  1  0  0  0  0
  7 17  2  0  0  0  0
  8 18  2  0  0  0  0
 10 15  1  0  0  0  0
 10 13  1  0  0  0  0
 11  2  1  0  0  0  0
 12 19  1  0  0  0  0
 12 16  1  0  0  0  0
 13 39  1  1  0  0  0
 13  3  1  0  0  0  0
 14  8  1  0  0  0  0
 14 11  2  0  0  0  0
 15 23  1  6  0  0  0
 16  1  2  0  0  0  0
 17 21  1  0  0  0  0
 17 20  1  0  0  0  0
 18  4  1  0  0  0  0
 22  7  1  0  0  0  0
 23 24  2  0  0  0  0
 25 24  1  0  0  0  0
 25 26  1  0  0  0  0
 27 35  2  0  0  0  0
 29 37  1  0  0  0  0
 30 36  1  0  0  0  0
 30 28  1  0  0  0  0
 31 29  2  0  0  0  0
 32 37  2  0  0  0  0
 32 38  1  0  0  0  0
 33 31  1  0  0  0  0
 33 34  2  0  0  0  0
 34 27  1  0  0  0  0
 34 32  1  0  0  0  0
 35 26  1  0  0  0  0
 35 36  1  0  0  0  0
 36 38  1  0  0  0  0
 36 28  1  0  0  0  0
 40 41  1  0  0  0  0
 41 43  1  1  0  0  0
 42 39  1  1  0  0  0
 42 40  1  0  0  0  0
 42 41  1  0  0  0  0
 43 44  1  0  0  0  0
 44 45  1  0  0  0  0
 46 45  1  1  0  0  0
 46 52  1  0  0  0  0
 46 48  1  0  0  0  0
 48 47  1  6  0  0  0
 48 49  1  0  0  0  0
 49 51  1  0  0  0  0
 51 50  2  0  0  0  0
 52 54  1  6  0  0  0
 52 56  1  0  0  0  0
 54 53  1  0  0  0  0
 55 54  1  0  0  0  0
 56 58  1  0  0  0  0
 57 56  2  0  0  0  0
 58 59  1  0  0  0  0
M  END
>  <MODEL>
3

>  <REMARK>
 VINA RESULT:      -7.6      3.247     10.395
  Name = 
  17 active torsions:
  status: ('A' for Active; 'I' for Inactive)
    1  A    between atoms: O_3  and  C_44
    2  A    between atoms: C_4  and  O_26
    3  A    between atoms: C_4  and  C_35
    4  A    between atoms: O_7  and  C_13
    5  A    between atoms: O_7  and  C_57
    6  A    between atoms: C_13  and  C_27
    7  A    between atoms: C_14  and  C_27
    8  A    between atoms: C_14  and  C_44
    9  A    between atoms: C_14  and  C_53
   10  A    between atoms: C_16  and  O_26
   11  A    between atoms: C_18  and  O_50
   12  A    between atoms: C_27  and  C_35
   13  A    between atoms: O_31  and  C_38
   14  A    between atoms: O_31  and  C_51
   15  A    between atoms: C_36  and  O_50
   16  A    between atoms: N_42  and  C_43
   17  A    between atoms: C_51  and  C_54
                            x       y       z     vdW  Elec       q    Type
                         _______ _______ _______ _____ _____    ______ ____

>  <TORSDO>
F 17

$$$$
=
 OpenBabel10222417323D

 59 67  0  0  1  0  0  0  0  0999 V2000
  191.1860  174.2520  134.9720 C   0  0  0  0  0  0  0  0  0  0  0  0
  193.0700  176.5340  137.8060 C   0  0  0  0  0  0  0  0  0  0  0  0
  189.5550  176.2580  138.7750 C   0  0  2  0  0  3  0  0  0  0  0  0
  191.7110  176.2750  137.9060 C   0  0  0  0  0  0  0  0  0  0  0  0
  189.8470  173.6390  134.8180 C   0  0  0  0  0  1  0  0  0  0  0  0
  190.9730  177.3820  141.4540 C   0  0  2  0  0  3  0  0  0  0  0  0
  192.9590  175.5820  135.5770 C   0  0  0  0  0  0  0  0  0  0  0  0
  191.6650  177.1060  140.1350 C   0  0  0  0  0  0  0  0  0  0  0  0
  191.4910  176.3930  142.4910 C   0  0  0  0  0  1  0  0  0  0  0  0
  188.8950  178.2310  140.2860 C   0  0  0  0  0  2  0  0  0  0  0  0
  193.6950  177.0690  138.8940 N   0  0  0  0  0  0  0  0  0  0  0  0
  190.9360  175.7970  136.9600 C   0  0  0  0  0  0  0  0  0  0  0  0
  188.6970  177.5210  138.9250 C   0  0  2  0  0  3  0  0  0  0  0  0
  193.0140  177.3440  140.0190 N   0  0  0  0  0  0  0  0  0  0  0  0
  189.4380  177.3150  141.3880 C   0  0  2  0  0  3  0  0  0  0  0  0
  191.4480  175.6070  135.5570 C   0  0  2  0  0  3  0  0  0  0  0  0
  193.3610  174.4870  134.9520 C   0  0  0  0  0  0  0  0  0  0  0  0
  191.0120  176.5490  139.0310 C   0  0  0  0  0  0  0  0  0  0  0  0
  189.5690  175.7970  137.3770 N   0  0  0  0  0  2  0  0  0  0  0  0
  192.2690  173.6520  134.5940 N   0  0  0  0  0  0  0  0  0  0  0  0
  194.6990  173.9990  135.0110 N   0  0  0  0  0  1  0  0  0  0  0  0
  193.7360  176.2110  136.6840 C   0  0  0  0  0  3  0  0  0  0  0  0
  188.8710  177.6840  142.6620 N   0  0  0  0  0  0  0  0  0  0  0  0
  188.5500  176.7770  143.5130 C   0  0  0  0  0  3  0  0  0  0  0  0
  187.9790  177.1560  144.8370 C   0  0  0  0  0  2  0  0  0  0  0  0
  187.2900  178.3900  144.7290 O   0  0  0  0  0  0  0  0  0  0  0  0
  185.3980  178.3510  143.4030 N   0  0  0  0  0  0  0  0  0  0  0  0
  185.4260  179.2650  147.1150 C   0  0  0  0  0  2  0  0  0  0  0  0
  181.3210  179.0490  142.5000 C   0  0  0  0  0  3  0  0  0  0  0  0
  184.9530  177.8430  146.8490 C   0  0  0  0  0  2  0  0  0  0  0  0
  182.1800  178.5250  141.5230 C   0  0  0  0  0  3  0  0  0  0  0  0
  183.1390  179.0240  144.1010 C   0  0  0  0  0  0  0  0  0  0  0  0
  183.5220  178.2810  141.8220 C   0  0  0  0  0  3  0  0  0  0  0  0
  184.0050  178.5330  143.1100 C   0  0  0  0  0  0  0  0  0  0  0  0
  185.9020  178.5200  144.5890 C   0  0  0  0  0  0  0  0  0  0  0  0
  184.9540  178.8630  145.7350 C   0  0  0  0  0  0  0  0  0  0  0  0
  181.8020  179.2980  143.7910 C   0  0  0  0  0  3  0  0  0  0  0  0
  183.6290  179.2560  145.3860 O   0  0  0  0  0  0  0  0  0  0  0  0
  187.3430  177.1630  138.7100 O   0  0  0  0  0  0  0  0  0  0  0  0
  187.2130  177.8970  136.4840 O   0  0  0  0  0  0  0  0  0  0  0  0
  185.9520  177.3260  136.7610 C   0  0  2  0  0  3  0  0  0  0  0  0
  186.7290  178.0590  137.8010 C   0  0  1  0  0  3  0  0  0  0  0  0
  186.0900  175.9330  136.8460 O   0  0  0  0  0  0  0  0  0  0  0  0
  185.3830  175.4520  135.7440 C   0  0  0  0  0  2  0  0  0  0  0  0
  184.0580  176.1820  135.6160 C   0  0  0  0  0  2  0  0  0  0  0  0
  182.9640  175.4400  136.3860 C   0  0  2  0  0  3  0  0  0  0  0  0
  180.7940  174.7610  135.2390 C   0  0  0  0  0  1  0  0  0  0  0  0
  182.2270  174.3630  135.5740 C   0  0  2  0  0  3  0  0  0  0  0  0
  182.3570  173.0500  136.1190 O   0  0  0  0  0  0  0  0  0  0  0  0
  183.7480  171.1460  136.3210 C   0  0  0  0  0  2  0  0  0  0  0  0
  183.2270  172.1080  135.5690 C   0  0  0  0  0  3  0  0  0  0  0  0
  181.9810  176.3860  137.0970 C   0  0  2  0  0  3  0  0  0  0  0  0
  181.2100  178.2940  135.6120 C   0  0  0  0  0  1  0  0  0  0  0  0
  182.1400  177.8880  136.7460 C   0  0  0  0  0  3  0  0  0  0  0  0
  181.9630  178.8140  137.9400 C   0  0  0  0  0  1  0  0  0  0  0  0
  181.8370  176.0590  138.5600 C   0  0  0  0  0  0  0  0  0  0  0  0
  182.8780  175.9160  139.2590 O   0  0  0  0  0  0  0  0  0  0  0  0
  180.5770  175.9480  139.1500 O   0  0  0  0  0  0  0  0  0  0  0  0
  179.8340  174.7360  139.0930 C   0  0  0  0  0  1  0  0  0  0  0  0
  2  4  1  0  0  0  0
  2 11  1  0  0  0  0
  3 19  1  6  0  0  0
  3 13  1  0  0  0  0
  3 18  1  0  0  0  0
  4 18  1  0  0  0  0
  5  1  1  0  0  0  0
  6  9  1  1  0  0  0
  7 22  1  0  0  0  0
  8  6  1  0  0  0  0
 10 15  1  0  0  0  0
 11 14  2  0  0  0  0
 12 19  1  0  0  0  0
 12  4  2  0  0  0  0
 13 39  1  1  0  0  0
 13 10  1  0  0  0  0
 14  8  1  0  0  0  0
 15  6  1  0  0  0  0
 15 23  1  1  0  0  0
 16  1  1  1  0  0  0
 16  7  1  0  0  0  0
 16 12  1  0  0  0  0
 17 21  1  0  0  0  0
 17  7  2  0  0  0  0
 18  8  2  0  0  0  0
 20 17  1  0  0  0  0
 20  1  2  0  0  0  0
 22  2  2  0  0  0  0
 23 24  2  0  0  0  0
 24 25  1  0  0  0  0
 26 25  1  0  0  0  0
 27 35  2  0  0  0  0
 29 37  1  0  0  0  0
 30 28  1  0  0  0  0
 31 33  1  0  0  0  0
 31 29  2  0  0  0  0
 32 38  1  0  0  0  0
 33 34  2  0  0  0  0
 34 27  1  0  0  0  0
 34 32  1  0  0  0  0
 35 26  1  0  0  0  0
 35 36  1  0  0  0  0
 36 30  1  0  0  0  0
 36 28  1  0  0  0  0
 37 32  2  0  0  0  0
 38 36  1  0  0  0  0
 40 41  1  0  0  0  0
 40 42  1  0  0  0  0
 41 43  1  1  0  0  0
 41 42  1  0  0  0  0
 42 39  1  1  0  0  0
 44 43  1  0  0  0  0
 45 44  1  0  0  0  0
 46 45  1  6  0  0  0
 46 52  1  0  0  0  0
 48 47  1  1  0  0  0
 48 49  1  0  0  0  0
 48 46  1  0  0  0  0
 51 49  1  0  0  0  0
 51 50  2  0  0  0  0
 52 54  1  1  0  0  0
 52 56  1  0  0  0  0
 53 54  1  0  0  0  0
 54 55  1  0  0  0  0
 56 58  1  0  0  0  0
 56 57  2  0  0  0  0
 59 58  1  0  0  0  0
M  END
>  <MODEL>
4

>  <REMARK>
 VINA RESULT:      -7.4      1.830      3.292
  Name = 
  17 active torsions:
  status: ('A' for Active; 'I' for Inactive)
    1  A    between atoms: O_3  and  C_44
    2  A    between atoms: C_4  and  O_26
    3  A    between atoms: C_4  and  C_35
    4  A    between atoms: O_7  and  C_13
    5  A    between atoms: O_7  and  C_57
    6  A    between atoms: C_13  and  C_27
    7  A    between atoms: C_14  and  C_27
    8  A    between atoms: C_14  and  C_44
    9  A    between atoms: C_14  and  C_53
   10  A    between atoms: C_16  and  O_26
   11  A    between atoms: C_18  and  O_50
   12  A    between atoms: C_27  and  C_35
   13  A    between atoms: O_31  and  C_38
   14  A    between atoms: O_31  and  C_51
   15  A    between atoms: C_36  and  O_50
   16  A    between atoms: N_42  and  C_43
   17  A    between atoms: C_51  and  C_54
                            x       y       z     vdW  Elec       q    Type
                         _______ _______ _______ _____ _____    ______ ____

>  <TORSDO>
F 17

$$$$
=
 OpenBabel10222417323D

 59 67  0  0  1  0  0  0  0  0999 V2000
  182.2700  178.7980  140.1150 C   0  0  0  0  0  0  0  0  0  0  0  0
  182.7820  177.4140  136.2910 C   0  0  0  0  0  0  0  0  0  0  0  0
  186.0720  177.4840  137.8860 C   0  0  2  0  0  3  0  0  0  0  0  0
  183.8740  177.5640  137.1340 C   0  0  0  0  0  0  0  0  0  0  0  0
  183.1200  178.9340  141.3200 C   0  0  0  0  0  1  0  0  0  0  0  0
  186.5680  175.6810  135.2490 C   0  0  2  0  0  3  0  0  0  0  0  0
  181.4890  178.6090  137.9620 C   0  0  0  0  0  0  0  0  0  0  0  0
  185.2620  176.3430  135.6360 C   0  0  0  0  0  0  0  0  0  0  0  0
  186.3910  174.1700  135.3380 C   0  0  0  0  0  1  0  0  0  0  0  0
  187.9180  177.6430  136.1020 C   0  0  0  0  0  2  0  0  0  0  0  0
  182.9640  176.7140  135.1360 N   0  0  0  0  0  0  0  0  0  0  0  0
  183.9010  178.2300  138.2650 C   0  0  0  0  0  0  0  0  0  0  0  0
  187.2000  178.3340  137.2870 C   0  0  2  0  0  3  0  0  0  0  0  0
  184.1640  176.1960  134.8210 N   0  0  0  0  0  0  0  0  0  0  0  0
  187.7740  176.1180  136.0970 C   0  0  2  0  0  3  0  0  0  0  0  0
  182.7240  179.0570  138.7100 C   0  0  0  0  0  0  0  0  0  0  0  0
  180.5440  178.3460  138.8490 C   0  0  0  0  0  0  0  0  0  0  0  0
  185.0880  177.0510  136.8290 C   0  0  0  0  0  0  0  0  0  0  0  0
  185.2310  178.2880  138.7870 N   0  0  0  0  0  2  0  0  0  0  0  0
  181.0270  178.4430  140.1820 N   0  0  0  0  0  2  0  0  0  0  0  0
  179.3420  177.6500  138.5290 N   0  0  0  0  0  1  0  0  0  0  0  0
  181.5840  177.9060  136.6500 C   0  0  0  0  0  3  0  0  0  0  0  0
  188.9800  175.5080  135.5950 N   0  0  0  0  0  0  0  0  0  0  0  0
  189.7810  174.9040  136.3960 C   0  0  0  0  0  3  0  0  0  0  0  0
  191.0200  174.2580  135.8770 C   0  0  0  0  0  2  0  0  0  0  0  0
  191.8000  173.7760  136.9590 O   0  0  0  0  0  0  0  0  0  0  0  0
  193.9750  173.0300  136.7290 N   0  0  0  0  0  0  0  0  0  0  0  0
  192.9810  176.3540  138.3340 C   0  0  0  0  0  2  0  0  0  0  0  0
  198.1580  173.1170  137.3740 C   0  0  0  0  0  3  0  0  0  0  0  0
  193.4800  176.5010  136.9040 C   0  0  0  0  0  2  0  0  0  0  0  0
  197.5790  172.0690  136.6460 C   0  0  0  0  0  3  0  0  0  0  0  0
  195.9800  174.1550  137.5960 C   0  0  0  0  0  0  0  0  0  0  0  0
  196.2020  172.0440  136.4200 C   0  0  0  0  0  3  0  0  0  0  0  0
  195.3990  173.0850  136.8970 C   0  0  0  0  0  0  0  0  0  0  0  0
  193.1780  173.9850  137.1050 C   0  0  0  0  0  0  0  0  0  0  0  0
  193.7940  175.2520  137.6920 C   0  0  0  0  0  0  0  0  0  0  0  0
  197.3570  174.1630  137.8500 C   0  0  0  0  0  3  0  0  0  0  0  0
  195.1720  175.1960  138.0540 O   0  0  0  0  0  0  0  0  0  0  0  0
  188.1020  178.6680  138.3270 O   0  0  0  0  0  0  0  0  0  0  0  0
  189.8610  177.8070  139.6210 O   0  0  0  0  0  0  0  0  0  0  0  0
  188.6840  177.4850  140.3320 C   0  0  2  0  0  3  0  0  0  0  0  0
  188.7220  177.5040  138.8420 C   0  0  1  0  0  3  0  0  0  0  0  0
  188.1520  178.6580  140.8870 O   0  0  0  0  0  0  0  0  0  0  0  0
  188.6910  178.7030  142.1730 C   0  0  0  0  0  2  0  0  0  0  0  0
  188.0150  177.6720  143.0580 C   0  0  0  0  0  2  0  0  0  0  0  0
  188.5360  177.7760  144.4930 C   0  0  2  0  0  3  0  0  0  0  0  0
  190.9220  177.7460  145.3830 C   0  0  0  0  0  1  0  0  0  0  0  0
  189.7850  176.9280  144.7820 C   0  0  2  0  0  3  0  0  0  0  0  0
  190.1770  176.0980  143.6880 O   0  0  0  0  0  0  0  0  0  0  0  0
  191.8610  177.1460  142.3960 C   0  0  0  0  0  2  0  0  0  0  0  0
  191.4690  176.1350  143.1620 C   0  0  0  0  0  3  0  0  0  0  0  0
  187.4420  177.5530  145.5490 C   0  0  2  0  0  3  0  0  0  0  0  0
  185.3830  178.1180  144.1770 C   0  0  0  0  0  1  0  0  0  0  0  0
  186.1970  178.4680  145.4140 C   0  0  0  0  0  3  0  0  0  0  0  0
  185.3120  178.4780  146.6520 C   0  0  0  0  0  1  0  0  0  0  0  0
  188.0130  177.4110  146.9350 C   0  0  0  0  0  0  0  0  0  0  0  0
  188.1120  176.2590  147.4410 O   0  0  0  0  0  0  0  0  0  0  0  0
  188.4610  178.5270  147.6440 O   0  0  0  0  0  0  0  0  0  0  0  0
  189.3490  178.3980  148.7480 C   0  0  0  0  0  1  0  0  0  0  0  0
  1 20  1  0  0  0  0
  1  5  1  0  0  0  0
  2 22  2  0  0  0  0
  2  4  1  0  0  0  0
  3 18  1  6  0  0  0
  3 19  1  0  0  0  0
  4 12  2  0  0  0  0
  6  9  1  1  0  0  0
  6  8  1  0  0  0  0
  6 15  1  0  0  0  0
  7 16  1  0  0  0  0
  7 17  2  0  0  0  0
  8 18  2  0  0  0  0
 10 13  1  0  0  0  0
 11  2  1  0  0  0  0
 12 16  1  0  0  0  0
 12 19  1  0  0  0  0
 13  3  1  0  0  0  0
 13 39  1  1  0  0  0
 14 11  2  0  0  0  0
 14  8  1  0  0  0  0
 15 23  1  6  0  0  0
 15 10  1  0  0  0  0
 16  1  2  0  0  0  0
 17 20  1  0  0  0  0
 18  4  1  0  0  0  0
 21 17  1  0  0  0  0
 22  7  1  0  0  0  0
 23 24  2  0  0  0  0
 25 24  1  0  0  0  0
 25 26  1  0  0  0  0
 26 35  1  0  0  0  0
 27 34  1  0  0  0  0
 27 35  2  0  0  0  0
 29 37  1  0  0  0  0
 30 36  1  0  0  0  0
 30 28  1  0  0  0  0
 31 29  2  0  0  0  0
 32 37  2  0  0  0  0
 32 38  1  0  0  0  0
 33 31  1  0  0  0  0
 33 34  2  0  0  0  0
 34 32  1  0  0  0  0
 35 36  1  0  0  0  0
 36 38  1  0  0  0  0
 36 28  1  0  0  0  0
 40 41  1  0  0  0  0
 41 43  1  1  0  0  0
 42 39  1  1  0  0  0
 42 40  1  0  0  0  0
 42 41  1  0  0  0  0
 43 44  1  0  0  0  0
 44 45  1  0  0  0  0
 46 45  1  6  0  0  0
 46 48  1  0  0  0  0
 46 52  1  0  0  0  0
 48 47  1  6  0  0  0
 49 48  1  0  0  0  0
 50 51  2  0  0  0  0
 51 49  1  0  0  0  0
 52 54  1  1  0  0  0
 52 56  1  0  0  0  0
 53 54  1  0  0  0  0
 54 55  1  0  0  0  0
 56 57  2  0  0  0  0
 56 58  1  0  0  0  0
 58 59  1  0  0  0  0
M  END
>  <MODEL>
5

>  <REMARK>
 VINA RESULT:      -7.1      3.018     10.442
  Name = 
  17 active torsions:
  status: ('A' for Active; 'I' for Inactive)
    1  A    between atoms: O_3  and  C_44
    2  A    between atoms: C_4  and  O_26
    3  A    between atoms: C_4  and  C_35
    4  A    between atoms: O_7  and  C_13
    5  A    between atoms: O_7  and  C_57
    6  A    between atoms: C_13  and  C_27
    7  A    between atoms: C_14  and  C_27
    8  A    between atoms: C_14  and  C_44
    9  A    between atoms: C_14  and  C_53
   10  A    between atoms: C_16  and  O_26
   11  A    between atoms: C_18  and  O_50
   12  A    between atoms: C_27  and  C_35
   13  A    between atoms: O_31  and  C_38
   14  A    between atoms: O_31  and  C_51
   15  A    between atoms: C_36  and  O_50
   16  A    between atoms: N_42  and  C_43
   17  A    between atoms: C_51  and  C_54
                            x       y       z     vdW  Elec       q    Type
                         _______ _______ _______ _____ _____    ______ ____

>  <TORSDO>
F 17

$$$$
=
 OpenBabel10222417323D

 59 67  0  0  1  0  0  0  0  0999 V2000
  189.0790  176.8880  144.2230 C   0  0  0  0  0  0  0  0  0  0  0  0
  185.6970  178.6560  145.7180 C   0  0  0  0  0  0  0  0  0  0  0  0
  185.1650  178.1100  142.1410 C   0  0  2  0  0  3  0  0  0  0  0  0
  185.7880  178.3460  144.3680 C   0  0  0  0  0  0  0  0  0  0  0  0
  189.4800  176.2790  142.9340 C   0  0  0  0  0  1  0  0  0  0  0  0
  182.1940  178.7570  143.2400 C   0  0  2  0  0  3  0  0  0  0  0  0
  188.0620  178.1310  145.8670 C   0  0  0  0  0  0  0  0  0  0  0  0
  183.4620  178.7480  144.0680 C   0  0  0  0  0  0  0  0  0  0  0  0
  181.3050  177.6070  143.7000 C   0  0  0  0  0  1  0  0  0  0  0  0
  183.3970  179.7510  141.2480 C   0  0  0  0  0  2  0  0  0  0  0  0
  184.4720  178.9970  146.2090 N   0  0  0  0  0  0  0  0  0  0  0  0
  186.8800  178.0310  143.7120 C   0  0  0  0  0  0  0  0  0  0  0  0
  184.8770  179.3000  141.2150 C   0  0  2  0  0  3  0  0  0  0  0  0
  183.3920  179.0400  145.4100 N   0  0  0  0  0  0  0  0  0  0  0  0
  182.4290  178.6610  141.7240 C   0  0  2  0  0  3  0  0  0  0  0  0
  188.2330  178.1180  144.3650 C   0  0  0  0  0  0  0  0  0  0  0  0
  188.8300  177.1820  146.3760 C   0  0  0  0  0  0  0  0  0  0  0  0
  184.7100  178.3880  143.5510 C   0  0  0  0  0  0  0  0  0  0  0  0
  186.6140  177.9170  142.3120 N   0  0  0  0  0  2  0  0  0  0  0  0
  189.4460  176.3990  145.3630 N   0  0  0  0  0  2  0  0  0  0  0  0
  188.7230  176.7280  147.7230 N   0  0  0  0  0  1  0  0  0  0  0  0
  186.7850  178.5650  146.5020 C   0  0  0  0  0  3  0  0  0  0  0  0
  181.1760  178.7720  141.0190 N   0  0  0  0  0  0  0  0  0  0  0  0
  181.0900  179.4930  139.9600 C   0  0  0  0  0  3  0  0  0  0  0  0
  179.8000  179.5960  139.2210 C   0  0  0  0  0  2  0  0  0  0  0  0
  179.4930  178.3510  138.6150 O   0  0  0  0  0  0  0  0  0  0  0  0
  180.8790  176.5960  138.0330 N   0  0  0  0  0  0  0  0  0  0  0  0
  180.0940  179.5790  135.7760 C   0  0  0  0  0  2  0  0  0  0  0  0
  183.6950  174.5600  135.6160 C   0  0  0  0  0  3  0  0  0  0  0  0
  179.3020  178.3300  135.4190 C   0  0  0  0  0  2  0  0  0  0  0  0
  183.2740  174.0000  136.8310 C   0  0  0  0  0  3  0  0  0  0  0  0
  182.1830  176.4210  135.9580 C   0  0  0  0  0  0  0  0  0  0  0  0
  182.3350  174.6630  137.6240 C   0  0  0  0  0  3  0  0  0  0  0  0
  181.7900  175.8760  137.1910 C   0  0  0  0  0  0  0  0  0  0  0  0
  180.2990  177.7010  137.6720 C   0  0  0  0  0  0  0  0  0  0  0  0
  180.5520  178.2210  136.2590 C   0  0  0  0  0  0  0  0  0  0  0  0
  183.1480  175.7720  135.1790 C   0  0  0  0  0  3  0  0  0  0  0  0
  181.6200  177.6240  135.5280 O   0  0  0  0  0  0  0  0  0  0  0  0
  185.2930  178.9510  139.9070 O   0  0  0  0  0  0  0  0  0  0  0  0
  183.8660  178.6440  138.0670 O   0  0  0  0  0  0  0  0  0  0  0  0
  184.8260  177.6130  137.9700 C   0  0  2  0  0  3  0  0  0  0  0  0
  184.3370  178.1100  139.2880 C   0  0  1  0  0  3  0  0  0  0  0  0
  186.0560  178.1700  137.5910 O   0  0  0  0  0  0  0  0  0  0  0  0
  186.4500  177.4120  136.4880 C   0  0  0  0  0  2  0  0  0  0  0  0
  186.7720  175.9930  136.9200 C   0  0  0  0  0  2  0  0  0  0  0  0
  188.2820  175.7530  136.8820 C   0  0  2  0  0  3  0  0  0  0  0  0
  189.5910  176.9810  135.0760 C   0  0  0  0  0  1  0  0  0  0  0  0
  189.1180  176.9920  136.5240 C   0  0  2  0  0  3  0  0  0  0  0  0
  190.1460  177.2790  137.4730 O   0  0  0  0  0  0  0  0  0  0  0  0
  189.0710  178.4190  139.2470 C   0  0  0  0  0  2  0  0  0  0  0  0
  189.8690  177.4430  138.8310 C   0  0  0  0  0  3  0  0  0  0  0  0
  188.6780  174.5360  136.0290 C   0  0  2  0  0  3  0  0  0  0  0  0
  187.8170  172.6170  134.6110 C   0  0  0  0  0  1  0  0  0  0  0  0
  187.5670  173.4700  135.8450 C   0  0  0  0  0  3  0  0  0  0  0  0
  187.3580  172.5910  137.0700 C   0  0  0  0  0  1  0  0  0  0  0  0
  190.0450  174.0150  136.3860 C   0  0  0  0  0  0  0  0  0  0  0  0
  190.3120  173.7800  137.5970 O   0  0  0  0  0  0  0  0  0  0  0  0
  190.9960  173.7600  135.3970 O   0  0  0  0  0  0  0  0  0  0  0  0
  191.6230  172.4880  135.2800 C   0  0  0  0  0  1  0  0  0  0  0  0
  1 16  2  0  0  0  0
  1 20  1  0  0  0  0
  2 11  1  0  0  0  0
  2 22  2  0  0  0  0
  3 19  1  1  0  0  0
  3 18  1  0  0  0  0
  4  2  1  0  0  0  0
  5  1  1  0  0  0  0
  6  9  1  1  0  0  0
  6  8  1  0  0  0  0
  7 17  2  0  0  0  0
  7 22  1  0  0  0  0
  8 14  1  0  0  0  0
 10 15  1  0  0  0  0
 12 16  1  0  0  0  0
 12  4  2  0  0  0  0
 13 39  1  6  0  0  0
 13 10  1  0  0  0  0
 13  3  1  0  0  0  0
 14 11  2  0  0  0  0
 15 23  1  6  0  0  0
 15  6  1  0  0  0  0
 16  7  1  0  0  0  0
 17 21  1  0  0  0  0
 18  8  2  0  0  0  0
 18  4  1  0  0  0  0
 19 12  1  0  0  0  0
 20 17  1  0  0  0  0
 24 23  2  0  0  0  0
 25 24  1  0  0  0  0
 26 25  1  0  0  0  0
 28 36  1  0  0  0  0
 29 31  1  0  0  0  0
 30 28  1  0  0  0  0
 30 36  1  0  0  0  0
 31 33  2  0  0  0  0
 32 34  2  0  0  0  0
 34 33  1  0  0  0  0
 34 27  1  0  0  0  0
 35 27  2  0  0  0  0
 35 26  1  0  0  0  0
 36 35  1  0  0  0  0
 37 29  2  0  0  0  0
 37 32  1  0  0  0  0
 38 32  1  0  0  0  0
 38 36  1  0  0  0  0
 40 42  1  0  0  0  0
 41 43  1  1  0  0  0
 41 40  1  0  0  0  0
 41 42  1  0  0  0  0
 42 39  1  1  0  0  0
 44 45  1  0  0  0  0
 44 43  1  0  0  0  0
 46 45  1  6  0  0  0
 48 47  1  6  0  0  0
 48 46  1  0  0  0  0
 48 49  1  0  0  0  0
 49 51  1  0  0  0  0
 51 50  2  0  0  0  0
 52 54  1  1  0  0  0
 52 56  1  0  0  0  0
 52 46  1  0  0  0  0
 53 54  1  0  0  0  0
 54 55  1  0  0  0  0
 56 57  2  0  0  0  0
 58 56  1  0  0  0  0
 59 58  1  0  0  0  0
M  END
>  <MODEL>
6

>  <REMARK>
 VINA RESULT:      -6.9      3.383      9.605
  Name = 
  17 active torsions:
  status: ('A' for Active; 'I' for Inactive)
    1  A    between atoms: O_3  and  C_44
    2  A    between atoms: C_4  and  O_26
    3  A    between atoms: C_4  and  C_35
    4  A    between atoms: O_7  and  C_13
    5  A    between atoms: O_7  and  C_57
    6  A    between atoms: C_13  and  C_27
    7  A    between atoms: C_14  and  C_27
    8  A    between atoms: C_14  and  C_44
    9  A    between atoms: C_14  and  C_53
   10  A    between atoms: C_16  and  O_26
   11  A    between atoms: C_18  and  O_50
   12  A    between atoms: C_27  and  C_35
   13  A    between atoms: O_31  and  C_38
   14  A    between atoms: O_31  and  C_51
   15  A    between atoms: C_36  and  O_50
   16  A    between atoms: N_42  and  C_43
   17  A    between atoms: C_51  and  C_54
                            x       y       z     vdW  Elec       q    Type
                         _______ _______ _______ _____ _____    ______ ____

>  <TORSDO>
F 17

$$$$
=
 OpenBabel10222417323D

 59 67  0  0  1  0  0  0  0  0999 V2000
  185.3190  179.3660  144.9250 C   0  0  0  0  0  0  0  0  0  0  0  0
  188.2800  176.7300  143.8860 C   0  0  0  0  0  0  0  0  0  0  0  0
  187.3100  178.5440  140.8620 C   0  0  2  0  0  3  0  0  0  0  0  0
  187.7010  177.5470  142.9260 C   0  0  0  0  0  0  0  0  0  0  0  0
  184.5990  180.4740  144.2570 C   0  0  0  0  0  1  0  0  0  0  0  0
  190.0960  177.1380  140.0180 C   0  0  2  0  0  3  0  0  0  0  0  0
  186.5190  177.4620  145.3870 C   0  0  0  0  0  0  0  0  0  0  0  0
  189.4000  176.9910  141.3560 C   0  0  0  0  0  0  0  0  0  0  0  0
  191.4030  177.8920  140.2320 C   0  0  0  0  0  1  0  0  0  0  0  0
  187.8930  177.1600  138.7740 C   0  0  0  0  0  2  0  0  0  0  0  0
  189.4230  176.0680  143.5490 N   0  0  0  0  0  0  0  0  0  0  0  0
  186.5880  178.2330  143.0530 C   0  0  0  0  0  0  0  0  0  0  0  0
  186.7730  177.7790  139.6450 C   0  0  2  0  0  3  0  0  0  0  0  0
  189.9630  176.1960  142.3250 N   0  0  0  0  0  0  0  0  0  0  0  0
  189.2550  177.8430  138.9420 C   0  0  2  0  0  3  0  0  0  0  0  0
  185.7130  178.0780  144.2670 C   0  0  0  0  0  0  0  0  0  0  0  0
  186.3930  178.2310  146.4560 C   0  0  0  0  0  0  0  0  0  0  0  0
  188.2320  177.6840  141.6890 C   0  0  0  0  0  0  0  0  0  0  0  0
  186.2260  178.8440  141.8120 N   0  0  0  0  0  2  0  0  0  0  0  0
  185.6680  179.4190  146.1700 N   0  0  0  0  0  2  0  0  0  0  0  0
  187.2210  178.1090  147.6100 N   0  0  0  0  0  1  0  0  0  0  0  0
  187.7420  176.6520  145.1150 C   0  0  0  0  0  3  0  0  0  0  0  0
  189.9630  177.8510  137.6850 N   0  0  0  0  0  0  0  0  0  0  0  0
  189.4490  177.2910  136.6500 C   0  0  0  0  0  3  0  0  0  0  0  0
  190.1700  177.3120  135.3460 C   0  0  0  0  0  2  0  0  0  0  0  0
  190.4030  175.9850  134.9040 O   0  0  0  0  0  0  0  0  0  0  0  0
  192.5030  175.5310  135.7540 N   0  0  0  0  0  0  0  0  0  0  0  0
  189.6970  172.9570  135.4200 C   0  0  0  0  0  2  0  0  0  0  0  0
  195.6260  173.0450  137.1630 C   0  0  0  0  0  3  0  0  0  0  0  0
  189.8590  173.4900  136.8360 C   0  0  0  0  0  2  0  0  0  0  0  0
  195.8260  174.4270  137.0420 C   0  0  0  0  0  3  0  0  0  0  0  0
  193.3310  173.3210  136.4390 C   0  0  0  0  0  0  0  0  0  0  0  0
  194.7940  175.2520  136.5900 C   0  0  0  0  0  3  0  0  0  0  0  0
  193.5450  174.7010  136.2840 C   0  0  0  0  0  0  0  0  0  0  0  0
  191.3070  175.0930  135.4950 C   0  0  0  0  0  0  0  0  0  0  0  0
  190.9800  173.6420  135.8360 C   0  0  0  0  0  0  0  0  0  0  0  0
  194.3750  172.4910  136.8610 C   0  0  0  0  0  3  0  0  0  0  0  0
  192.0760  172.7850  136.1460 O   0  0  0  0  0  0  0  0  0  0  0  0
  185.9510  178.6580  138.8990 O   0  0  0  0  0  0  0  0  0  0  0  0
  185.0360  176.7930  137.8060 O   0  0  0  0  0  0  0  0  0  0  0  0
  184.1310  177.8490  137.5590 C   0  0  2  0  0  3  0  0  0  0  0  0
  185.6010  178.0790  137.6550 C   0  0  1  0  0  3  0  0  0  0  0  0
  183.4460  178.1480  138.7450 O   0  0  0  0  0  0  0  0  0  0  0  0
  182.7080  176.9960  139.0140 C   0  0  0  0  0  2  0  0  0  0  0  0
  181.2260  177.2730  138.8370 C   0  0  0  0  0  2  0  0  0  0  0  0
  180.4610  176.9230  140.1140 C   0  0  2  0  0  3  0  0  0  0  0  0
  179.3080  174.9090  141.1620 C   0  0  0  0  0  1  0  0  0  0  0  0
  179.4030  175.8210  139.9450 C   0  0  2  0  0  3  0  0  0  0  0  0
  179.4970  175.1270  138.7010 O   0  0  0  0  0  0  0  0  0  0  0  0
  179.8390  173.1110  137.5080 C   0  0  0  0  0  2  0  0  0  0  0  0
  179.5130  173.7330  138.6350 C   0  0  0  0  0  3  0  0  0  0  0  0
  179.8840  178.1570  140.8280 C   0  0  2  0  0  3  0  0  0  0  0  0
  178.9340  179.3640  138.8090 C   0  0  0  0  0  1  0  0  0  0  0  0
  179.8840  179.4630  139.9930 C   0  0  0  0  0  3  0  0  0  0  0  0
  179.5880  180.7100  140.8130 C   0  0  0  0  0  1  0  0  0  0  0  0
  180.3830  178.2760  142.2440 C   0  0  0  0  0  0  0  0  0  0  0  0
  181.5660  178.6690  142.4440 O   0  0  0  0  0  0  0  0  0  0  0  0
  179.5470  177.9930  143.3260 O   0  0  0  0  0  0  0  0  0  0  0  0
  179.2980  178.9540  144.3430 C   0  0  0  0  0  1  0  0  0  0  0  0
  1 20  1  0  0  0  0
  2 22  2  0  0  0  0
  3 18  1  1  0  0  0
  3 19  1  0  0  0  0
  4 12  2  0  0  0  0
  4  2  1  0  0  0  0
  5  1  1  0  0  0  0
  6  9  1  1  0  0  0
  6  8  1  0  0  0  0
  7 17  2  0  0  0  0
  8 18  2  0  0  0  0
  8 14  1  0  0  0  0
 10 15  1  0  0  0  0
 10 13  1  0  0  0  0
 11  2  1  0  0  0  0
 12 16  1  0  0  0  0
 13 39  1  6  0  0  0
 13  3  1  0  0  0  0
 14 11  2  0  0  0  0
 15 23  1  6  0  0  0
 15  6  1  0  0  0  0
 16  1  2  0  0  0  0
 16  7  1  0  0  0  0
 17 21  1  0  0  0  0
 18  4  1  0  0  0  0
 19 12  1  0  0  0  0
 20 17  1  0  0  0  0
 22  7  1  0  0  0  0
 24 23  2  0  0  0  0
 25 24  1  0  0  0  0
 26 25  1  0  0  0  0
 26 35  1  0  0  0  0
 27 34  1  0  0  0  0
 28 36  1  0  0  0  0
 28 30  1  0  0  0  0
 31 29  1  0  0  0  0
 32 37  1  0  0  0  0
 33 31  2  0  0  0  0
 34 32  2  0  0  0  0
 34 33  1  0  0  0  0
 35 27  2  0  0  0  0
 35 36  1  0  0  0  0
 36 38  1  0  0  0  0
 36 30  1  0  0  0  0
 37 29  2  0  0  0  0
 38 32  1  0  0  0  0
 41 42  1  0  0  0  0
 41 40  1  0  0  0  0
 41 43  1  1  0  0  0
 42 40  1  0  0  0  0
 42 39  1  1  0  0  0
 43 44  1  0  0  0  0
 45 44  1  0  0  0  0
 46 45  1  6  0  0  0
 46 52  1  0  0  0  0
 48 46  1  0  0  0  0
 48 47  1  1  0  0  0
 49 48  1  0  0  0  0
 50 51  2  0  0  0  0
 51 49  1  0  0  0  0
 52 54  1  6  0  0  0
 52 56  1  0  0  0  0
 53 54  1  0  0  0  0
 54 55  1  0  0  0  0
 56 57  2  0  0  0  0
 56 58  1  0  0  0  0
 58 59  1  0  0  0  0
M  END
>  <MODEL>
7

>  <REMARK>
 VINA RESULT:      -6.6      2.165      8.158
  Name = 
  17 active torsions:
  status: ('A' for Active; 'I' for Inactive)
    1  A    between atoms: O_3  and  C_44
    2  A    between atoms: C_4  and  O_26
    3  A    between atoms: C_4  and  C_35
    4  A    between atoms: O_7  and  C_13
    5  A    between atoms: O_7  and  C_57
    6  A    between atoms: C_13  and  C_27
    7  A    between atoms: C_14  and  C_27
    8  A    between atoms: C_14  and  C_44
    9  A    between atoms: C_14  and  C_53
   10  A    between atoms: C_16  and  O_26
   11  A    between atoms: C_18  and  O_50
   12  A    between atoms: C_27  and  C_35
   13  A    between atoms: O_31  and  C_38
   14  A    between atoms: O_31  and  C_51
   15  A    between atoms: C_36  and  O_50
   16  A    between atoms: N_42  and  C_43
   17  A    between atoms: C_51  and  C_54
                            x       y       z     vdW  Elec       q    Type
                         _______ _______ _______ _____ _____    ______ ____

>  <TORSDO>
F 17

$$$$
=
 OpenBabel10222417323D

 59 67  0  0  1  0  0  0  0  0999 V2000
  191.3840  174.3500  134.9040 C   0  0  0  0  0  0  0  0  0  0  0  0
  193.1780  176.3960  137.9690 C   0  0  0  0  0  0  0  0  0  0  0  0
  189.5820  176.3470  138.6340 C   0  0  2  0  0  3  0  0  0  0  0  0
  191.8000  176.2340  137.9470 C   0  0  0  0  0  0  0  0  0  0  0  0
  190.0230  173.8420  134.6170 C   0  0  0  0  0  1  0  0  0  0  0  0
  190.8430  177.2780  141.4610 C   0  0  2  0  0  3  0  0  0  0  0  0
  193.1890  175.5270  135.7030 C   0  0  0  0  0  0  0  0  0  0  0  0
  191.6230  176.9940  140.1940 C   0  0  0  0  0  0  0  0  0  0  0  0
  191.2010  176.2210  142.4990 C   0  0  0  0  0  1  0  0  0  0  0  0
  188.9360  178.3140  140.1600 C   0  0  0  0  0  2  0  0  0  0  0  0
  193.7440  176.8480  139.1230 N   0  0  0  0  0  0  0  0  0  0  0  0
  191.0760  175.8440  136.9220 C   0  0  0  0  0  0  0  0  0  0  0  0
  188.8050  177.6640  138.7610 C   0  0  2  0  0  3  0  0  0  0  0  0
  192.9910  177.1360  140.1990 N   0  0  0  0  0  0  0  0  0  0  0  0
  189.3190  177.3250  141.2670 C   0  0  2  0  0  3  0  0  0  0  0  0
  191.6910  175.6630  135.5600 C   0  0  2  0  0  3  0  0  0  0  0  0
  193.5640  174.4260  135.0730 C   0  0  0  0  0  0  0  0  0  0  0  0
  191.0280  176.5220  139.0200 C   0  0  0  0  0  0  0  0  0  0  0  0
  189.6820  175.9310  137.2250 N   0  0  0  0  0  2  0  0  0  0  0  0
  192.4510  173.6850  134.5940 N   0  0  0  0  0  0  0  0  0  0  0  0
  194.8550  173.8400  135.2220 N   0  0  0  0  0  1  0  0  0  0  0  0
  193.9110  176.0620  136.8940 C   0  0  0  0  0  3  0  0  0  0  0  0
  188.6730  177.6930  142.5030 N   0  0  0  0  0  0  0  0  0  0  0  0
  188.3850  176.7950  143.3740 C   0  0  0  0  0  3  0  0  0  0  0  0
  187.7320  177.1740  144.6600 C   0  0  0  0  0  2  0  0  0  0  0  0
  187.0600  178.4130  144.5110 O   0  0  0  0  0  0  0  0  0  0  0  0
  185.0990  178.3940  143.2880 N   0  0  0  0  0  0  0  0  0  0  0  0
  185.3390  179.3330  146.9860 C   0  0  0  0  0  2  0  0  0  0  0  0
  180.9910  179.1460  142.5980 C   0  0  0  0  0  3  0  0  0  0  0  0
  184.8320  177.9160  146.7570 C   0  0  0  0  0  2  0  0  0  0  0  0
  181.7880  178.6020  141.5810 C   0  0  0  0  0  3  0  0  0  0  0  0
  182.8910  179.1040  144.1000 C   0  0  0  0  0  0  0  0  0  0  0  0
  183.1400  178.3400  141.8100 C   0  0  0  0  0  3  0  0  0  0  0  0
  183.6960  178.5940  143.0680 C   0  0  0  0  0  0  0  0  0  0  0  0
  185.6680  178.5630  144.4440 C   0  0  0  0  0  0  0  0  0  0  0  0
  184.7880  178.9280  145.6360 C   0  0  0  0  0  0  0  0  0  0  0  0
  181.5440  179.3970  143.8600 C   0  0  0  0  0  3  0  0  0  0  0  0
  183.4520  179.3380  145.3560 O   0  0  0  0  0  0  0  0  0  0  0  0
  187.4530  177.4130  138.4220 O   0  0  0  0  0  0  0  0  0  0  0  0
  186.3960  177.5340  136.3290 O   0  0  0  0  0  0  0  0  0  0  0  0
  185.5570  178.2510  137.2110 C   0  0  2  0  0  3  0  0  0  0  0  0
  187.0410  178.2540  137.3600 C   0  0  1  0  0  3  0  0  0  0  0  0
  184.9170  177.3440  138.0680 O   0  0  0  0  0  0  0  0  0  0  0  0
  183.6530  177.8980  138.2690 C   0  0  0  0  0  2  0  0  0  0  0  0
  182.6220  176.7960  138.4370 C   0  0  0  0  0  2  0  0  0  0  0  0
  181.6730  176.7660  137.2370 C   0  0  2  0  0  3  0  0  0  0  0  0
  181.4060  178.7150  135.6210 C   0  0  0  0  0  1  0  0  0  0  0  0
  180.9690  178.1000  136.9450 C   0  0  2  0  0  3  0  0  0  0  0  0
  180.9890  179.0080  138.0460 O   0  0  0  0  0  0  0  0  0  0  0  0
  179.1450  179.7020  139.3580 C   0  0  0  0  0  2  0  0  0  0  0  0
  179.9290  179.8800  138.3020 C   0  0  0  0  0  3  0  0  0  0  0  0
  180.6760  175.5970  137.2880 C   0  0  2  0  0  3  0  0  0  0  0  0
  179.6450  176.0750  139.5570 C   0  0  0  0  0  1  0  0  0  0  0  0
  180.3740  175.0460  138.7050 C   0  0  0  0  0  3  0  0  0  0  0  0
  179.6180  173.7260  138.6980 C   0  0  0  0  0  1  0  0  0  0  0  0
  180.9540  174.5680  136.2230 C   0  0  0  0  0  0  0  0  0  0  0  0
  180.0910  174.3740  135.3220 O   0  0  0  0  0  0  0  0  0  0  0  0
  182.1570  173.8620  136.2040 O   0  0  0  0  0  0  0  0  0  0  0  0
  182.2700  172.5700  136.7860 C   0  0  0  0  0  1  0  0  0  0  0  0
  2 11  1  0  0  0  0
  3 19  1  6  0  0  0
  3 13  1  0  0  0  0
  3 18  1  0  0  0  0
  4  2  1  0  0  0  0
  4 18  1  0  0  0  0
  5  1  1  0  0  0  0
  6  9  1  1  0  0  0
  7 22  1  0  0  0  0
  8 14  1  0  0  0  0
  8  6  1  0  0  0  0
 10 15  1  0  0  0  0
 11 14  2  0  0  0  0
 12 19  1  0  0  0  0
 12  4  2  0  0  0  0
 13 39  1  1  0  0  0
 13 10  1  0  0  0  0
 15  6  1  0  0  0  0
 15 23  1  1  0  0  0
 16  1  1  1  0  0  0
 16  7  1  0  0  0  0
 16 12  1  0  0  0  0
 17 21  1  0  0  0  0
 17  7  2  0  0  0  0
 18  8  2  0  0  0  0
 20  1  2  0  0  0  0
 20 17  1  0  0  0  0
 22  2  2  0  0  0  0
 23 24  2  0  0  0  0
 24 25  1  0  0  0  0
 26 25  1  0  0  0  0
 27 35  2  0  0  0  0
 29 37  1  0  0  0  0
 30 28  1  0  0  0  0
 31 33  1  0  0  0  0
 31 29  2  0  0  0  0
 32 38  1  0  0  0  0
 33 34  2  0  0  0  0
 34 27  1  0  0  0  0
 34 32  1  0  0  0  0
 35 26  1  0  0  0  0
 35 36  1  0  0  0  0
 36 30  1  0  0  0  0
 36 28  1  0  0  0  0
 37 32  2  0  0  0  0
 38 36  1  0  0  0  0
 40 41  1  0  0  0  0
 40 42  1  0  0  0  0
 41 42  1  0  0  0  0
 41 43  1  1  0  0  0
 42 39  1  1  0  0  0
 43 44  1  0  0  0  0
 44 45  1  0  0  0  0
 46 52  1  0  0  0  0
 46 45  1  1  0  0  0
 48 47  1  6  0  0  0
 48 46  1  0  0  0  0
 48 49  1  0  0  0  0
 49 51  1  0  0  0  0
 51 50  2  0  0  0  0
 52 56  1  6  0  0  0
 52 54  1  0  0  0  0
 54 53  1  0  0  0  0
 55 54  1  0  0  0  0
 57 56  2  0  0  0  0
 58 56  1  0  0  0  0
 58 59  1  0  0  0  0
M  END
>  <MODEL>
8

>  <REMARK>
 VINA RESULT:      -6.5      1.691      3.779
  Name = 
  17 active torsions:
  status: ('A' for Active; 'I' for Inactive)
    1  A    between atoms: O_3  and  C_44
    2  A    between atoms: C_4  and  O_26
    3  A    between atoms: C_4  and  C_35
    4  A    between atoms: O_7  and  C_13
    5  A    between atoms: O_7  and  C_57
    6  A    between atoms: C_13  and  C_27
    7  A    between atoms: C_14  and  C_27
    8  A    between atoms: C_14  and  C_44
    9  A    between atoms: C_14  and  C_53
   10  A    between atoms: C_16  and  O_26
   11  A    between atoms: C_18  and  O_50
   12  A    between atoms: C_27  and  C_35
   13  A    between atoms: O_31  and  C_38
   14  A    between atoms: O_31  and  C_51
   15  A    between atoms: C_36  and  O_50
   16  A    between atoms: N_42  and  C_43
   17  A    between atoms: C_51  and  C_54
                            x       y       z     vdW  Elec       q    Type
                         _______ _______ _______ _____ _____    ______ ____

>  <TORSDO>
F 17

$$$$
=
 OpenBabel10222417323D

 59 67  0  0  1  0  0  0  0  0999 V2000
  185.3100  179.3810  144.9320 C   0  0  0  0  0  0  0  0  0  0  0  0
  188.2180  176.7180  143.8140 C   0  0  0  0  0  0  0  0  0  0  0  0
  187.2190  178.5750  140.8270 C   0  0  2  0  0  3  0  0  0  0  0  0
  187.6330  177.5530  142.8730 C   0  0  0  0  0  0  0  0  0  0  0  0
  184.5930  180.5050  144.2880 C   0  0  0  0  0  1  0  0  0  0  0  0
  189.9720  177.1430  139.9200 C   0  0  2  0  0  3  0  0  0  0  0  0
  186.4940  177.4570  145.3540 C   0  0  0  0  0  0  0  0  0  0  0  0
  189.2970  176.9910  141.2680 C   0  0  0  0  0  0  0  0  0  0  0  0
  191.2920  177.8780  140.1180 C   0  0  0  0  0  1  0  0  0  0  0  0
  187.7480  177.2060  138.7150 C   0  0  0  0  0  2  0  0  0  0  0  0
  189.3460  176.0450  143.4510 N   0  0  0  0  0  0  0  0  0  0  0  0
  186.5320  178.2510  143.0260 C   0  0  0  0  0  0  0  0  0  0  0  0
  186.6510  177.8300  139.6110 C   0  0  2  0  0  3  0  0  0  0  0  0
  189.8670  176.1790  142.2190 N   0  0  0  0  0  0  0  0  0  0  0  0
  189.1210  177.8700  138.8660 C   0  0  2  0  0  3  0  0  0  0  0  0
  185.6760  178.0950  144.2540 C   0  0  0  0  0  0  0  0  0  0  0  0
  186.3960  178.2170  146.4330 C   0  0  0  0  0  0  0  0  0  0  0  0
  188.1440  177.6960  141.6290 C   0  0  0  0  0  0  0  0  0  0  0  0
  186.1560  178.8800  141.7980 N   0  0  0  0  0  2  0  0  0  0  0  0
  185.6820  179.4170  146.1720 N   0  0  0  0  0  2  0  0  0  0  0  0
  187.2420  178.0730  147.5700 N   0  0  0  0  0  1  0  0  0  0  0  0
  187.7000  176.6340  145.0520 C   0  0  0  0  0  3  0  0  0  0  0  0
  189.8070  177.8810  137.5970 N   0  0  0  0  0  0  0  0  0  0  0  0
  189.2300  177.4220  136.5460 C   0  0  0  0  0  3  0  0  0  0  0  0
  189.9290  177.4480  135.2300 C   0  0  0  0  0  2  0  0  0  0  0  0
  190.2190  176.1240  134.8130 O   0  0  0  0  0  0  0  0  0  0  0  0
  192.3900  175.7150  135.4930 N   0  0  0  0  0  0  0  0  0  0  0  0
  189.5170  173.2090  135.7850 C   0  0  0  0  0  2  0  0  0  0  0  0
  195.5980  173.3280  136.8810 C   0  0  0  0  0  3  0  0  0  0  0  0
  189.8390  173.9110  137.0960 C   0  0  0  0  0  2  0  0  0  0  0  0
  195.8100  174.6770  136.5640 C   0  0  0  0  0  3  0  0  0  0  0  0
  193.2440  173.5840  136.3680 C   0  0  0  0  0  0  0  0  0  0  0  0
  194.7500  175.4700  136.1190 C   0  0  0  0  0  3  0  0  0  0  0  0
  193.4670  174.9250  136.0160 C   0  0  0  0  0  0  0  0  0  0  0  0
  191.1650  175.2860  135.4180 C   0  0  0  0  0  0  0  0  0  0  0  0
  190.8500  173.9000  135.9740 C   0  0  0  0  0  0  0  0  0  0  0  0
  194.3130  172.7800  136.7830 C   0  0  0  0  0  3  0  0  0  0  0  0
  191.9570  173.0550  136.2780 O   0  0  0  0  0  0  0  0  0  0  0  0
  185.8270  178.7270  138.8890 O   0  0  0  0  0  0  0  0  0  0  0  0
  183.9970  177.2580  138.8300 O   0  0  0  0  0  0  0  0  0  0  0  0
  183.5140  178.4740  138.3000 C   0  0  2  0  0  3  0  0  0  0  0  0
  184.9150  178.0180  138.0700 C   0  0  1  0  0  3  0  0  0  0  0  0
  183.4010  179.4100  139.3380 O   0  0  0  0  0  0  0  0  0  0  0  0
  182.4820  178.8370  140.2160 C   0  0  0  0  0  2  0  0  0  0  0  0
  181.0900  178.8740  139.6120 C   0  0  0  0  0  2  0  0  0  0  0  0
  180.4360  180.2350  139.8600 C   0  0  2  0  0  3  0  0  0  0  0  0
  178.9310  181.6280  141.3690 C   0  0  0  0  0  1  0  0  0  0  0  0
  179.3200  180.2260  140.9160 C   0  0  2  0  0  3  0  0  0  0  0  0
  179.5550  179.3110  141.9860 O   0  0  0  0  0  0  0  0  0  0  0  0
  181.0080  178.8010  143.7850 C   0  0  0  0  0  2  0  0  0  0  0  0
  180.2610  179.6830  143.1320 C   0  0  0  0  0  3  0  0  0  0  0  0
  179.9870  180.9320  138.5650 C   0  0  2  0  0  3  0  0  0  0  0  0
  180.7600  179.8980  136.3810 C   0  0  0  0  0  1  0  0  0  0  0  0
  179.6280  179.9820  137.3940 C   0  0  0  0  0  3  0  0  0  0  0  0
  179.2110  178.5900  137.8450 C   0  0  0  0  0  1  0  0  0  0  0  0
  180.8630  182.1070  138.2210 C   0  0  0  0  0  0  0  0  0  0  0  0
  182.0740  182.0920  138.5790 O   0  0  0  0  0  0  0  0  0  0  0  0
  180.3640  183.1850  137.4890 O   0  0  0  0  0  0  0  0  0  0  0  0
  181.2050  184.2530  137.0710 C   0  0  0  0  0  1  0  0  0  0  0  0
  1 20  1  0  0  0  0
  2 22  2  0  0  0  0
  3 18  1  1  0  0  0
  3 19  1  0  0  0  0
  4 12  2  0  0  0  0
  4  2  1  0  0  0  0
  5  1  1  0  0  0  0
  6  9  1  1  0  0  0
  6  8  1  0  0  0  0
  7 17  2  0  0  0  0
  8 18  2  0  0  0  0
  8 14  1  0  0  0  0
 10 15  1  0  0  0  0
 10 13  1  0  0  0  0
 11  2  1  0  0  0  0
 12 16  1  0  0  0  0
 13 39  1  6  0  0  0
 13  3  1  0  0  0  0
 14 11  2  0  0  0  0
 15 23  1  6  0  0  0
 15  6  1  0  0  0  0
 16  1  2  0  0  0  0
 16  7  1  0  0  0  0
 17 21  1  0  0  0  0
 18  4  1  0  0  0  0
 19 12  1  0  0  0  0
 20 17  1  0  0  0  0
 22  7  1  0  0  0  0
 24 23  2  0  0  0  0
 25 24  1  0  0  0  0
 26 25  1  0  0  0  0
 26 35  1  0  0  0  0
 27 34  1  0  0  0  0
 28 36  1  0  0  0  0
 28 30  1  0  0  0  0
 31 29  2  0  0  0  0
 32 37  2  0  0  0  0
 33 31  1  0  0  0  0
 34 33  2  0  0  0  0
 34 32  1  0  0  0  0
 35 27  2  0  0  0  0
 35 36  1  0  0  0  0
 36 38  1  0  0  0  0
 36 30  1  0  0  0  0
 37 29  1  0  0  0  0
 38 32  1  0  0  0  0
 41 40  1  0  0  0  0
 41 43  1  1  0  0  0
 42 41  1  0  0  0  0
 42 40  1  0  0  0  0
 42 39  1  1  0  0  0
 43 44  1  0  0  0  0
 45 44  1  0  0  0  0
 46 45  1  6  0  0  0
 46 48  1  0  0  0  0
 48 47  1  1  0  0  0
 48 49  1  0  0  0  0
 49 51  1  0  0  0  0
 51 50  2  0  0  0  0
 52 54  1  6  0  0  0
 52 46  1  0  0  0  0
 53 54  1  0  0  0  0
 54 55  1  0  0  0  0
 56 52  1  0  0  0  0
 56 57  2  0  0  0  0
 58 56  1  0  0  0  0
 59 58  1  0  0  0  0
M  END
>  <MODEL>
9

>  <REMARK>
 VINA RESULT:      -6.5      2.486      8.434
  Name = 
  17 active torsions:
  status: ('A' for Active; 'I' for Inactive)
    1  A    between atoms: O_3  and  C_44
    2  A    between atoms: C_4  and  O_26
    3  A    between atoms: C_4  and  C_35
    4  A    between atoms: O_7  and  C_13
    5  A    between atoms: O_7  and  C_57
    6  A    between atoms: C_13  and  C_27
    7  A    between atoms: C_14  and  C_27
    8  A    between atoms: C_14  and  C_44
    9  A    between atoms: C_14  and  C_53
   10  A    between atoms: C_16  and  O_26
   11  A    between atoms: C_18  and  O_50
   12  A    between atoms: C_27  and  C_35
   13  A    between atoms: O_31  and  C_38
   14  A    between atoms: O_31  and  C_51
   15  A    between atoms: C_36  and  O_50
   16  A    between atoms: N_42  and  C_43
   17  A    between atoms: C_51  and  C_54
                            x       y       z     vdW  Elec       q    Type
                         _______ _______ _______ _____ _____    ______ ____

>  <TORSDO>
F 17

$$$$
