=
 OpenBabel10222416333D

 32 34  0  0  1  0  0  0  0  0999 V2000
  189.0300  177.4970  146.6470 C   0  0  0  0  0  0  0  0  0  0  0  0
  186.7340  178.1420  145.8610 C   0  0  0  0  0  3  0  0  0  0  0  0
  186.0510  177.7470  143.5780 C   0  0  0  0  0  3  0  0  0  0  0  0
  190.3700  177.0030  146.2890 C   0  0  0  0  0  0  0  0  0  0  0  0
  189.6030  176.6010  143.9890 N   0  0  0  0  0  0  0  0  0  0  0  0
  188.3020  177.1540  144.2850 C   0  0  0  0  0  0  0  0  0  0  0  0
  187.3100  177.2200  143.2930 C   0  0  0  0  0  3  0  0  0  0  0  0
  191.2240  176.7480  147.1810 O   0  0  0  0  0  0  0  0  0  0  0  0
  188.7450  177.7960  147.9150 C   0  0  0  0  0  2  0  0  0  0  0  0
  185.7570  178.2130  144.8660 C   0  0  0  0  0  0  0  0  0  0  0  0
  188.0060  177.6130  145.5860 C   0  0  0  0  0  0  0  0  0  0  0  0
  190.7570  176.8640  144.8500 C   0  0  0  0  0  2  0  0  0  0  0  0
  189.8500  175.9240  142.7190 C   0  0  0  0  0  2  0  0  0  0  0  0
  190.6380  176.8180  141.7730 C   0  0  2  0  0  3  0  0  0  0  0  0
  190.2320  178.1450  141.9250 O   0  0  0  0  0  1  0  0  0  0  0  0
  190.4040  176.3920  140.4040 N   0  0  0  0  0  2  0  0  0  0  0  0
  190.2810  177.5980  139.5930 C   0  0  0  0  0  2  0  0  0  0  0  0
  186.6330  178.2320  138.9730 C   0  0  0  0  0  0  0  0  0  0  0  0
  188.2740  175.8120  136.8750 C   0  0  0  0  0  2  0  0  0  0  0  0
  189.0110  176.0620  138.1870 C   0  0  0  0  0  2  0  0  0  0  0  0
  187.8530  177.9080  139.4250 C   0  0  0  0  0  3  0  0  0  0  0  0
  185.6300  178.6830  139.9710 C   0  0  0  0  0  1  0  0  0  0  0  0
  186.7750  175.9240  137.0530 C   0  0  0  0  0  2  0  0  0  0  0  0
  186.2560  178.3080  137.5510 C   0  0  0  0  0  3  0  0  0  0  0  0
  186.3220  177.2970  136.6870 C   0  0  0  0  0  3  0  0  0  0  0  0
  189.3520  178.4750  137.4760 C   0  0  0  0  0  1  0  0  0  0  0  0
  189.0880  177.5240  138.6440 C   0  0  1  0  0  0  0  0  0  0  0  0
  184.4760  178.7660  145.1830 N   0  0  0  0  0  2  0  0  0  0  0  0
  183.7600  179.6950  144.3190 C   0  0  0  0  0  2  0  0  0  0  0  0
  181.6230  178.7120  144.2380 O   0  0  0  0  0  0  0  0  0  0  0  0
  182.7430  178.6740  142.1740 C   0  0  0  0  0  1  0  0  0  0  0  0
  182.6370  178.9980  143.6240 C   0  0  0  0  0  0  0  0  0  0  0  0
  1  9  2  0  0  0  0
  3 10  1  0  0  0  0
  4  1  1  0  0  0  0
  4  8  2  0  0  0  0
  5  6  1  0  0  0  0
  5 12  1  0  0  0  0
  6 11  2  0  0  0  0
  7  3  2  0  0  0  0
  7  6  1  0  0  0  0
 10 28  1  0  0  0  0
 10  2  2  0  0  0  0
 11  2  1  0  0  0  0
 11  1  1  0  0  0  0
 12  4  1  0  0  0  0
 13  5  1  0  0  0  0
 14 15  1  6  0  0  0
 14 13  1  0  0  0  0
 16 14  1  0  0  0  0
 17 16  1  0  0  0  0
 18 21  2  0  0  0  0
 18 22  1  0  0  0  0
 19 23  1  0  0  0  0
 19 20  1  0  0  0  0
 20 27  1  0  0  0  0
 24 18  1  0  0  0  0
 25 23  1  0  0  0  0
 25 24  2  0  0  0  0
 27 26  1  6  0  0  0
 27 21  1  0  0  0  0
 27 17  1  0  0  0  0
 29 28  1  0  0  0  0
 31 32  1  0  0  0  0
 32 30  2  0  0  0  0
 32 29  1  0  0  0  0
M  END
>  <MODEL>
1

>  <REMARK>
 VINA RESULT:      -8.5      0.000      0.000
  Name = 
  8 active torsions:
  status: ('A' for Active; 'I' for Inactive)
    1  A    between atoms: C_2  and  N_12
    2  A    between atoms: C_2  and  C_17
    3  A    between atoms: C_6  and  N_14
    4  A    between atoms: C_6  and  C_32
    5  A    between atoms: C_7  and  C_16
    6  A    between atoms: C_7  and  N_26
    7  A    between atoms: N_14  and  C_17
    8  A    between atoms: C_25  and  N_26
                            x       y       z     vdW  Elec       q    Type
                         _______ _______ _______ _____ _____    ______ ____

>  <TORSDO>
F 8

$$$$
=
 OpenBabel10222416333D

 32 34  0  0  1  0  0  0  0  0999 V2000
  182.5540  178.6290  141.8130 C   0  0  0  0  0  0  0  0  0  0  0  0
  184.4730  178.5420  140.1960 C   0  0  0  0  0  3  0  0  0  0  0  0
  186.7410  178.8990  140.9450 C   0  0  0  0  0  3  0  0  0  0  0  0
  182.0980  178.9270  143.1820 C   0  0  0  0  0  0  0  0  0  0  0  0
  184.4310  179.2500  143.8840 N   0  0  0  0  0  0  0  0  0  0  0  0
  184.9060  179.0430  142.5370 C   0  0  0  0  0  0  0  0  0  0  0  0
  186.2790  179.1060  142.2450 C   0  0  0  0  0  3  0  0  0  0  0  0
  180.9090  178.6960  143.5300 O   0  0  0  0  0  0  0  0  0  0  0  0
  181.6800  178.2240  140.8920 C   0  0  0  0  0  2  0  0  0  0  0  0
  185.8380  178.6180  139.9130 C   0  0  0  0  0  0  0  0  0  0  0  0
  183.9950  178.7490  141.5010 C   0  0  0  0  0  0  0  0  0  0  0  0
  183.0300  179.5750  144.1570 C   0  0  0  0  0  2  0  0  0  0  0  0
  185.3710  179.3350  144.9980 C   0  0  0  0  0  2  0  0  0  0  0  0
  185.4180  178.0230  145.7680 C   0  0  2  0  0  3  0  0  0  0  0  0
  185.5990  178.2760  147.1290 O   0  0  0  0  0  1  0  0  0  0  0  0
  186.5200  177.2160  145.2730 N   0  0  0  0  0  2  0  0  0  0  0  0
  187.7520  177.8190  145.7700 C   0  0  0  0  0  2  0  0  0  0  0  0
  191.2040  176.3640  145.5220 C   0  0  0  0  0  0  0  0  0  0  0  0
  190.1330  178.5480  142.8700 C   0  0  0  0  0  2  0  0  0  0  0  0
  189.3360  178.7370  144.1560 C   0  0  0  0  0  2  0  0  0  0  0  0
  190.0680  177.0110  145.8210 C   0  0  0  0  0  3  0  0  0  0  0  0
  192.0750  175.9520  146.6530 C   0  0  0  0  0  1  0  0  0  0  0  0
  191.5740  178.1850  143.1600 C   0  0  0  0  0  2  0  0  0  0  0  0
  191.5840  175.9110  144.1730 C   0  0  0  0  0  3  0  0  0  0  0  0
  191.7420  176.7040  143.1150 C   0  0  0  0  0  3  0  0  0  0  0  0
  188.5220  176.3410  143.9420 C   0  0  0  0  0  1  0  0  0  0  0  0
  188.9530  177.4510  144.9020 C   0  0  1  0  0  0  0  0  0  0  0  0
  186.2850  178.4090  138.5700 N   0  0  0  0  0  2  0  0  0  0  0  0
  187.4020  177.5420  138.2140 C   0  0  0  0  0  2  0  0  0  0  0  0
  188.7430  179.3640  137.5630 O   0  0  0  0  0  0  0  0  0  0  0  0
  189.8610  177.8360  138.9530 C   0  0  0  0  0  1  0  0  0  0  0  0
  188.6760  178.3200  138.1900 C   0  0  0  0  0  0  0  0  0  0  0  0
  1  4  1  0  0  0  0
  2 11  1  0  0  0  0
  3  7  2  0  0  0  0
  4  8  2  0  0  0  0
  4 12  1  0  0  0  0
  5 12  1  0  0  0  0
  5 13  1  0  0  0  0
  6  5  1  0  0  0  0
  7  6  1  0  0  0  0
  9  1  2  0  0  0  0
 10  2  2  0  0  0  0
 10  3  1  0  0  0  0
 11  1  1  0  0  0  0
 11  6  2  0  0  0  0
 13 14  1  0  0  0  0
 14 15  1  1  0  0  0
 16 14  1  0  0  0  0
 16 17  1  0  0  0  0
 18 21  2  0  0  0  0
 18 22  1  0  0  0  0
 19 23  1  0  0  0  0
 19 20  1  0  0  0  0
 20 27  1  0  0  0  0
 24 18  1  0  0  0  0
 25 23  1  0  0  0  0
 25 24  2  0  0  0  0
 27 26  1  6  0  0  0
 27 17  1  0  0  0  0
 27 21  1  0  0  0  0
 28 10  1  0  0  0  0
 29 28  1  0  0  0  0
 30 32  2  0  0  0  0
 32 29  1  0  0  0  0
 32 31  1  0  0  0  0
M  END
>  <MODEL>
2

>  <REMARK>
 VINA RESULT:      -8.4      2.148      7.373
  Name = 
  8 active torsions:
  status: ('A' for Active; 'I' for Inactive)
    1  A    between atoms: C_2  and  N_12
    2  A    between atoms: C_2  and  C_17
    3  A    between atoms: C_6  and  N_14
    4  A    between atoms: C_6  and  C_32
    5  A    between atoms: C_7  and  C_16
    6  A    between atoms: C_7  and  N_26
    7  A    between atoms: N_14  and  C_17
    8  A    between atoms: C_25  and  N_26
                            x       y       z     vdW  Elec       q    Type
                         _______ _______ _______ _____ _____    ______ ____

>  <TORSDO>
F 8

$$$$
=
 OpenBabel10222416333D

 32 34  0  0  1  0  0  0  0  0999 V2000
  189.0540  177.4980  146.7330 C   0  0  0  0  0  0  0  0  0  0  0  0
  186.7690  178.1320  145.9080 C   0  0  0  0  0  3  0  0  0  0  0  0
  186.1240  177.7300  143.6150 C   0  0  0  0  0  3  0  0  0  0  0  0
  190.4020  177.0070  146.3970 C   0  0  0  0  0  0  0  0  0  0  0  0
  189.6730  176.5980  144.0860 N   0  0  0  0  0  0  0  0  0  0  0  0
  188.3650  177.1470  144.3600 C   0  0  0  0  0  0  0  0  0  0  0  0
  187.3900  177.2070  143.3510 C   0  0  0  0  0  3  0  0  0  0  0  0
  191.2420  176.7580  147.3030 O   0  0  0  0  0  0  0  0  0  0  0  0
  188.7470  177.7970  147.9950 C   0  0  0  0  0  2  0  0  0  0  0  0
  185.8080  178.1980  144.8970 C   0  0  0  0  0  0  0  0  0  0  0  0
  188.0470  177.6080  145.6550 C   0  0  0  0  0  0  0  0  0  0  0  0
  190.8120  176.8670  144.9650 C   0  0  0  0  0  2  0  0  0  0  0  0
  189.9430  175.9190  142.8220 C   0  0  0  0  0  2  0  0  0  0  0  0
  190.7630  176.8050  141.8960 C   0  0  2  0  0  3  0  0  0  0  0  0
  190.3330  178.1300  142.0010 O   0  0  0  0  0  1  0  0  0  0  0  0
  190.6000  176.3490  140.5260 N   0  0  0  0  0  2  0  0  0  0  0  0
  190.4430  177.5360  139.6930 C   0  0  0  0  0  2  0  0  0  0  0  0
  188.6180  175.3630  137.2350 C   0  0  0  0  0  0  0  0  0  0  0  0
  188.2080  178.9240  136.9200 C   0  0  0  0  0  2  0  0  0  0  0  0
  189.4630  178.5340  137.6930 C   0  0  0  0  0  2  0  0  0  0  0  0
  189.4860  176.0460  137.9950 C   0  0  0  0  0  3  0  0  0  0  0  0
  189.0270  174.0120  136.7720 C   0  0  0  0  0  1  0  0  0  0  0  0
  187.8950  177.9200  135.8310 C   0  0  0  0  0  2  0  0  0  0  0  0
  187.2390  175.7900  136.9430 C   0  0  0  0  0  3  0  0  0  0  0  0
  186.9030  176.9240  136.3300 C   0  0  0  0  0  3  0  0  0  0  0  0
  187.9820  177.4550  139.4510 C   0  0  0  0  0  1  0  0  0  0  0  0
  189.3050  177.3760  138.6870 C   0  0  1  0  0  0  0  0  0  0  0  0
  184.5200  178.7470  145.1920 N   0  0  0  0  0  2  0  0  0  0  0  0
  183.8170  179.6760  144.3170 C   0  0  0  0  0  2  0  0  0  0  0  0
  181.6980  178.6640  144.1510 O   0  0  0  0  0  0  0  0  0  0  0  0
  182.8900  178.6630  142.1280 C   0  0  0  0  0  1  0  0  0  0  0  0
  182.7290  178.9710  143.5760 C   0  0  0  0  0  0  0  0  0  0  0  0
  1  9  2  0  0  0  0
  3 10  1  0  0  0  0
  4  1  1  0  0  0  0
  4  8  2  0  0  0  0
  5  6  1  0  0  0  0
  5 12  1  0  0  0  0
  6 11  2  0  0  0  0
  7  3  2  0  0  0  0
  7  6  1  0  0  0  0
 10 28  1  0  0  0  0
 10  2  2  0  0  0  0
 11  2  1  0  0  0  0
 11  1  1  0  0  0  0
 12  4  1  0  0  0  0
 13  5  1  0  0  0  0
 14 15  1  6  0  0  0
 14 13  1  0  0  0  0
 16 14  1  0  0  0  0
 17 16  1  0  0  0  0
 18 21  2  0  0  0  0
 19 20  1  0  0  0  0
 20 27  1  0  0  0  0
 21 27  1  0  0  0  0
 22 18  1  0  0  0  0
 23 25  1  0  0  0  0
 23 19  1  0  0  0  0
 24 18  1  0  0  0  0
 25 24  2  0  0  0  0
 27 26  1  1  0  0  0
 27 17  1  0  0  0  0
 29 28  1  0  0  0  0
 31 32  1  0  0  0  0
 32 30  2  0  0  0  0
 32 29  1  0  0  0  0
M  END
>  <MODEL>
3

>  <REMARK>
 VINA RESULT:      -8.4      0.708      1.815
  Name = 
  8 active torsions:
  status: ('A' for Active; 'I' for Inactive)
    1  A    between atoms: C_2  and  N_12
    2  A    between atoms: C_2  and  C_17
    3  A    between atoms: C_6  and  N_14
    4  A    between atoms: C_6  and  C_32
    5  A    between atoms: C_7  and  C_16
    6  A    between atoms: C_7  and  N_26
    7  A    between atoms: N_14  and  C_17
    8  A    between atoms: C_25  and  N_26
                            x       y       z     vdW  Elec       q    Type
                         _______ _______ _______ _____ _____    ______ ____

>  <TORSDO>
F 8

$$$$
=
 OpenBabel10222416333D

 32 34  0  0  1  0  0  0  0  0999 V2000
  188.0500  178.0040  137.8030 C   0  0  0  0  0  0  0  0  0  0  0  0
  186.4300  178.6480  139.6110 C   0  0  0  0  0  3  0  0  0  0  0  0
  186.9270  178.2080  141.9330 C   0  0  0  0  0  3  0  0  0  0  0  0
  189.2970  177.3050  137.4460 C   0  0  0  0  0  0  0  0  0  0  0  0
  189.7550  176.9140  139.8290 N   0  0  0  0  0  0  0  0  0  0  0  0
  188.5020  177.5220  140.2100 C   0  0  0  0  0  0  0  0  0  0  0  0
  188.1340  177.6150  141.5620 C   0  0  0  0  0  3  0  0  0  0  0  0
  189.7580  177.3650  136.2740 O   0  0  0  0  0  0  0  0  0  0  0  0
  187.3310  178.6110  136.8590 C   0  0  0  0  0  2  0  0  0  0  0  0
  186.0670  178.7260  140.9570 C   0  0  0  0  0  0  0  0  0  0  0  0
  187.6420  178.0520  139.2240 C   0  0  0  0  0  0  0  0  0  0  0  0
  189.9940  176.4540  138.4600 C   0  0  0  0  0  2  0  0  0  0  0  0
  190.7470  176.5630  140.8400 C   0  0  0  0  0  2  0  0  0  0  0  0
  191.7220  177.7090  141.0630 C   0  0  2  0  0  3  0  0  0  0  0  0
  192.9310  177.4370  140.4180 O   0  0  0  0  0  1  0  0  0  0  0  0
  191.9580  177.8680  142.4880 N   0  0  0  0  0  2  0  0  0  0  0  0
  191.3490  176.7240  143.1560 C   0  0  0  0  0  2  0  0  0  0  0  0
  191.5610  176.5140  146.8980 C   0  0  0  0  0  0  0  0  0  0  0  0
  188.3760  177.3820  145.4660 C   0  0  0  0  0  2  0  0  0  0  0  0
  189.3000  176.6750  144.4800 C   0  0  0  0  0  2  0  0  0  0  0  0
  191.5300  176.3290  145.5710 C   0  0  0  0  0  3  0  0  0  0  0  0
  192.4920  175.6670  147.6870 C   0  0  0  0  0  1  0  0  0  0  0  0
  188.5770  176.8710  146.8770 C   0  0  0  0  0  2  0  0  0  0  0  0
  190.8460  177.5830  147.6150 C   0  0  0  0  0  3  0  0  0  0  0  0
  189.5250  177.7600  147.6070 C   0  0  0  0  0  3  0  0  0  0  0  0
  190.9240  178.6160  144.6920 C   0  0  0  0  0  1  0  0  0  0  0  0
  190.7730  177.1030  144.5180 C   0  0  1  0  0  0  0  0  0  0  0  0
  184.8200  179.3320  141.3090 N   0  0  0  0  0  2  0  0  0  0  0  0
  183.6880  178.5940  141.8540 C   0  0  0  0  0  2  0  0  0  0  0  0
  184.4380  179.1960  144.0020 O   0  0  0  0  0  0  0  0  0  0  0  0
  182.1010  179.0190  143.8500 C   0  0  0  0  0  1  0  0  0  0  0  0
  183.4800  178.9470  143.2900 C   0  0  0  0  0  0  0  0  0  0  0  0
  1 11  1  0  0  0  0
  2 10  1  0  0  0  0
  4  1  1  0  0  0  0
  4 12  1  0  0  0  0
  5  6  1  0  0  0  0
  5 13  1  0  0  0  0
  6  7  2  0  0  0  0
  7  3  1  0  0  0  0
  8  4  2  0  0  0  0
  9  1  2  0  0  0  0
 10 28  1  0  0  0  0
 10  3  2  0  0  0  0
 11  2  2  0  0  0  0
 11  6  1  0  0  0  0
 12  5  1  0  0  0  0
 13 14  1  0  0  0  0
 14 15  1  6  0  0  0
 14 16  1  0  0  0  0
 16 17  1  0  0  0  0
 17 27  1  0  0  0  0
 18 24  1  0  0  0  0
 18 22  1  0  0  0  0
 19 23  1  0  0  0  0
 20 27  1  0  0  0  0
 20 19  1  0  0  0  0
 21 18  2  0  0  0  0
 23 25  1  0  0  0  0
 25 24  2  0  0  0  0
 27 26  1  1  0  0  0
 27 21  1  0  0  0  0
 28 29  1  0  0  0  0
 29 32  1  0  0  0  0
 32 31  1  0  0  0  0
 32 30  2  0  0  0  0
M  END
>  <MODEL>
4

>  <REMARK>
 VINA RESULT:      -8.3      2.138      6.804
  Name = 
  8 active torsions:
  status: ('A' for Active; 'I' for Inactive)
    1  A    between atoms: C_2  and  N_12
    2  A    between atoms: C_2  and  C_17
    3  A    between atoms: C_6  and  N_14
    4  A    between atoms: C_6  and  C_32
    5  A    between atoms: C_7  and  C_16
    6  A    between atoms: C_7  and  N_26
    7  A    between atoms: N_14  and  C_17
    8  A    between atoms: C_25  and  N_26
                            x       y       z     vdW  Elec       q    Type
                         _______ _______ _______ _____ _____    ______ ____

>  <TORSDO>
F 8

$$$$
=
 OpenBabel10222416333D

 32 34  0  0  1  0  0  0  0  0999 V2000
  185.6400  178.6730  145.6160 C   0  0  0  0  0  0  0  0  0  0  0  0
  187.9570  177.7040  145.6080 C   0  0  0  0  0  3  0  0  0  0  0  0
  188.8960  176.7570  143.5950 C   0  0  0  0  0  3  0  0  0  0  0  0
  184.3800  178.8800  144.8820 C   0  0  0  0  0  0  0  0  0  0  0  0
  185.4050  177.9290  142.8610 N   0  0  0  0  0  0  0  0  0  0  0  0
  186.6290  177.6390  143.5710 C   0  0  0  0  0  0  0  0  0  0  0  0
  187.7110  177.0320  142.9130 C   0  0  0  0  0  3  0  0  0  0  0  0
  183.4580  179.5880  145.3700 O   0  0  0  0  0  0  0  0  0  0  0  0
  185.7730  179.1350  146.8590 C   0  0  0  0  0  2  0  0  0  0  0  0
  189.0240  177.0910  144.9490 C   0  0  0  0  0  0  0  0  0  0  0  0
  186.7580  177.9860  144.9330 C   0  0  0  0  0  0  0  0  0  0  0  0
  184.1540  178.1900  143.5740 C   0  0  0  0  0  2  0  0  0  0  0  0
  185.3350  177.7790  141.4100 C   0  0  0  0  0  2  0  0  0  0  0  0
  185.8390  179.0330  140.7120 C   0  0  2  0  0  3  0  0  0  0  0  0
  184.7570  179.8140  140.2990 O   0  0  0  0  0  1  0  0  0  0  0  0
  186.6320  178.6530  139.5560 N   0  0  0  0  0  2  0  0  0  0  0  0
  187.9810  178.3700  140.0340 C   0  0  0  0  0  2  0  0  0  0  0  0
  188.2040  176.0580  137.0840 C   0  0  0  0  0  0  0  0  0  0  0  0
  191.2440  176.7500  138.8800 C   0  0  0  0  0  2  0  0  0  0  0  0
  189.9900  177.0270  139.7020 C   0  0  0  0  0  2  0  0  0  0  0  0
  187.9790  176.6910  138.2450 C   0  0  0  0  0  3  0  0  0  0  0  0
  187.1230  175.1840  136.5600 C   0  0  0  0  0  1  0  0  0  0  0  0
  191.0440  175.5790  137.9420 C   0  0  0  0  0  2  0  0  0  0  0  0
  189.3800  176.2720  136.2240 C   0  0  0  0  0  3  0  0  0  0  0  0
  190.6440  176.0730  136.5930 C   0  0  0  0  0  3  0  0  0  0  0  0
  189.3370  178.8060  138.0120 C   0  0  0  0  0  1  0  0  0  0  0  0
  188.8370  177.7110  138.9560 C   0  0  1  0  0  0  0  0  0  0  0  0
  190.2260  176.8130  145.6740 N   0  0  0  0  0  2  0  0  0  0  0  0
  190.3520  176.9620  147.1180 C   0  0  0  0  0  2  0  0  0  0  0  0
  192.2810  177.1580  148.4520 O   0  0  0  0  0  0  0  0  0  0  0  0
  192.3640  175.3490  146.9550 C   0  0  0  0  0  1  0  0  0  0  0  0
  191.7110  176.5400  147.5680 C   0  0  0  0  0  0  0  0  0  0  0  0
  1  9  2  0  0  0  0
  3 10  2  0  0  0  0
  4  8  2  0  0  0  0
  4  1  1  0  0  0  0
  5  6  1  0  0  0  0
  5 12  1  0  0  0  0
  6 11  1  0  0  0  0
  7  6  2  0  0  0  0
  7  3  1  0  0  0  0
 10  2  1  0  0  0  0
 10 28  1  0  0  0  0
 11  2  2  0  0  0  0
 11  1  1  0  0  0  0
 12  4  1  0  0  0  0
 13  5  1  0  0  0  0
 14 15  1  6  0  0  0
 14 13  1  0  0  0  0
 16 17  1  0  0  0  0
 16 14  1  0  0  0  0
 18 21  2  0  0  0  0
 19 20  1  0  0  0  0
 21 27  1  0  0  0  0
 22 18  1  0  0  0  0
 23 19  1  0  0  0  0
 24 25  2  0  0  0  0
 24 18  1  0  0  0  0
 25 23  1  0  0  0  0
 27 26  1  6  0  0  0
 27 20  1  0  0  0  0
 27 17  1  0  0  0  0
 28 29  1  0  0  0  0
 29 32  1  0  0  0  0
 31 32  1  0  0  0  0
 32 30  2  0  0  0  0
M  END
>  <MODEL>
5

>  <REMARK>
 VINA RESULT:      -8.2      1.951      5.375
  Name = 
  8 active torsions:
  status: ('A' for Active; 'I' for Inactive)
    1  A    between atoms: C_2  and  N_12
    2  A    between atoms: C_2  and  C_17
    3  A    between atoms: C_6  and  N_14
    4  A    between atoms: C_6  and  C_32
    5  A    between atoms: C_7  and  C_16
    6  A    between atoms: C_7  and  N_26
    7  A    between atoms: N_14  and  C_17
    8  A    between atoms: C_25  and  N_26
                            x       y       z     vdW  Elec       q    Type
                         _______ _______ _______ _____ _____    ______ ____

>  <TORSDO>
F 8

$$$$
=
 OpenBabel10222416333D

 32 34  0  0  1  0  0  0  0  0999 V2000
  186.5770  178.1020  146.0280 C   0  0  0  0  0  0  0  0  0  0  0  0
  184.4510  178.6320  144.8000 C   0  0  0  0  0  3  0  0  0  0  0  0
  184.2890  178.3130  142.4120 C   0  0  0  0  0  3  0  0  0  0  0  0
  187.9960  177.7170  145.9420 C   0  0  0  0  0  0  0  0  0  0  0  0
  187.7550  177.3870  143.5190 N   0  0  0  0  0  0  0  0  0  0  0  0
  186.3830  177.8360  143.5540 C   0  0  0  0  0  0  0  0  0  0  0  0
  185.6170  177.8870  142.3780 C   0  0  0  0  0  3  0  0  0  0  0  0
  188.6630  177.4740  146.9840 O   0  0  0  0  0  0  0  0  0  0  0  0
  186.0130  178.3130  147.2180 C   0  0  0  0  0  2  0  0  0  0  0  0
  183.7000  178.6900  143.6250 C   0  0  0  0  0  0  0  0  0  0  0  0
  185.7900  178.2050  144.7800 C   0  0  0  0  0  0  0  0  0  0  0  0
  188.6820  177.6810  144.6130 C   0  0  0  0  0  2  0  0  0  0  0  0
  188.3120  176.7970  142.3050 C   0  0  0  0  0  2  0  0  0  0  0  0
  189.3190  177.7360  141.6580 C   0  0  2  0  0  3  0  0  0  0  0  0
  188.7540  179.0030  141.5000 O   0  0  0  0  0  1  0  0  0  0  0  0
  189.7000  177.2090  140.3590 N   0  0  0  0  0  2  0  0  0  0  0  0
  189.4340  178.2530  139.3760 C   0  0  0  0  0  2  0  0  0  0  0  0
  186.0680  177.8790  137.7560 C   0  0  0  0  0  0  0  0  0  0  0  0
  188.6580  175.5970  136.7400 C   0  0  0  0  0  2  0  0  0  0  0  0
  188.9270  176.2380  138.0970 C   0  0  0  0  0  2  0  0  0  0  0  0
  187.1430  177.9390  138.5540 C   0  0  0  0  0  3  0  0  0  0  0  0
  184.7540  178.2420  138.3470 C   0  0  0  0  0  1  0  0  0  0  0  0
  187.1770  175.3760  136.5160 C   0  0  0  0  0  2  0  0  0  0  0  0
  186.1100  177.6160  136.3070 C   0  0  0  0  0  3  0  0  0  0  0  0
  186.6060  176.5160  135.7430 C   0  0  0  0  0  3  0  0  0  0  0  0
  189.0100  178.5030  136.9520 C   0  0  0  0  0  1  0  0  0  0  0  0
  188.5990  177.7330  138.2080 C   0  0  1  0  0  0  0  0  0  0  0  0
  182.3430  179.1380  143.6860 N   0  0  0  0  0  2  0  0  0  0  0  0
  181.3960  179.0020  142.5860 C   0  0  0  0  0  2  0  0  0  0  0  0
  179.5730  177.5170  142.4740 O   0  0  0  0  0  0  0  0  0  0  0  0
  179.4810  178.9660  144.3200 C   0  0  0  0  0  1  0  0  0  0  0  0
  180.1060  178.4330  143.0780 C   0  0  0  0  0  0  0  0  0  0  0  0
  1  9  2  0  0  0  0
  3 10  1  0  0  0  0
  4  1  1  0  0  0  0
  4  8  2  0  0  0  0
  5  6  1  0  0  0  0
  5 12  1  0  0  0  0
  6 11  2  0  0  0  0
  7  3  2  0  0  0  0
  7  6  1  0  0  0  0
 10 28  1  0  0  0  0
 10  2  2  0  0  0  0
 11  2  1  0  0  0  0
 11  1  1  0  0  0  0
 12  4  1  0  0  0  0
 13  5  1  0  0  0  0
 14 15  1  6  0  0  0
 14 13  1  0  0  0  0
 16 14  1  0  0  0  0
 17 16  1  0  0  0  0
 18 22  1  0  0  0  0
 18 21  2  0  0  0  0
 19 20  1  0  0  0  0
 20 27  1  0  0  0  0
 23 19  1  0  0  0  0
 24 18  1  0  0  0  0
 25 24  2  0  0  0  0
 25 23  1  0  0  0  0
 27 26  1  6  0  0  0
 27 21  1  0  0  0  0
 27 17  1  0  0  0  0
 29 32  1  0  0  0  0
 29 28  1  0  0  0  0
 30 32  2  0  0  0  0
 32 31  1  0  0  0  0
M  END
>  <MODEL>
6

>  <REMARK>
 VINA RESULT:      -8.1      1.529      2.096
  Name = 
  8 active torsions:
  status: ('A' for Active; 'I' for Inactive)
    1  A    between atoms: C_2  and  N_12
    2  A    between atoms: C_2  and  C_17
    3  A    between atoms: C_6  and  N_14
    4  A    between atoms: C_6  and  C_32
    5  A    between atoms: C_7  and  C_16
    6  A    between atoms: C_7  and  N_26
    7  A    between atoms: N_14  and  C_17
    8  A    between atoms: C_25  and  N_26
                            x       y       z     vdW  Elec       q    Type
                         _______ _______ _______ _____ _____    ______ ____

>  <TORSDO>
F 8

$$$$
=
 OpenBabel10222416333D

 32 34  0  0  1  0  0  0  0  0999 V2000
  185.2370  178.4180  145.0850 C   0  0  0  0  0  0  0  0  0  0  0  0
  187.5610  177.4980  144.8420 C   0  0  0  0  0  3  0  0  0  0  0  0
  188.6060  177.3310  142.6710 C   0  0  0  0  0  3  0  0  0  0  0  0
  184.0120  178.8850  144.4150 C   0  0  0  0  0  0  0  0  0  0  0  0
  185.1430  178.7160  142.2390 N   0  0  0  0  0  0  0  0  0  0  0  0
  186.3340  178.1800  142.8560 C   0  0  0  0  0  0  0  0  0  0  0  0
  187.4520  177.8420  142.0770 C   0  0  0  0  0  3  0  0  0  0  0  0
  183.0600  179.3770  145.0790 O   0  0  0  0  0  0  0  0  0  0  0  0
  185.3050  178.4010  146.4170 C   0  0  0  0  0  2  0  0  0  0  0  0
  188.6650  177.1540  144.0590 C   0  0  0  0  0  0  0  0  0  0  0  0
  186.3940  178.0130  144.2560 C   0  0  0  0  0  0  0  0  0  0  0  0
  183.8560  178.7130  142.9360 C   0  0  0  0  0  2  0  0  0  0  0  0
  185.1450  179.0990  140.8300 C   0  0  0  0  0  2  0  0  0  0  0  0
  184.0880  178.3250  140.0570 C   0  0  2  0  0  3  0  0  0  0  0  0
  183.7980  177.1280  140.7150 O   0  0  0  0  0  1  0  0  0  0  0  0
  184.5830  178.0380  138.7220 N   0  0  0  0  0  2  0  0  0  0  0  0
  185.8920  178.6690  138.6040 C   0  0  0  0  0  2  0  0  0  0  0  0
  189.1290  176.7850  138.3460 C   0  0  0  0  0  0  0  0  0  0  0  0
  187.5990  177.8750  135.2770 C   0  0  0  0  0  2  0  0  0  0  0  0
  187.1180  178.6590  136.4940 C   0  0  0  0  0  2  0  0  0  0  0  0
  188.1210  177.6440  138.5550 C   0  0  0  0  0  3  0  0  0  0  0  0
  190.2100  176.7370  139.3640 C   0  0  0  0  0  1  0  0  0  0  0  0
  189.0490  177.4660  135.4200 C   0  0  0  0  0  2  0  0  0  0  0  0
  189.1770  175.7920  137.2590 C   0  0  0  0  0  3  0  0  0  0  0  0
  189.1330  176.0780  135.9590 C   0  0  0  0  0  3  0  0  0  0  0  0
  186.1640  176.5040  137.4400 C   0  0  0  0  0  1  0  0  0  0  0  0
  186.8510  177.8330  137.7590 C   0  0  1  0  0  0  0  0  0  0  0  0
  189.8330  176.6250  144.6930 N   0  0  0  0  0  2  0  0  0  0  0  0
  190.7420  177.4210  145.5080 C   0  0  0  0  0  2  0  0  0  0  0  0
  189.9590  177.0920  147.7040 O   0  0  0  0  0  0  0  0  0  0  0  0
  191.9830  175.9840  147.2620 C   0  0  0  0  0  1  0  0  0  0  0  0
  190.8340  176.8560  146.8880 C   0  0  0  0  0  0  0  0  0  0  0  0
  1  9  2  0  0  0  0
  3 10  1  0  0  0  0
  4  8  2  0  0  0  0
  4  1  1  0  0  0  0
  5  6  1  0  0  0  0
  5 12  1  0  0  0  0
  6 11  2  0  0  0  0
  7  3  2  0  0  0  0
  7  6  1  0  0  0  0
 10 28  1  0  0  0  0
 10  2  2  0  0  0  0
 11  2  1  0  0  0  0
 11  1  1  0  0  0  0
 12  4  1  0  0  0  0
 13  5  1  0  0  0  0
 14 15  1  1  0  0  0
 14 13  1  0  0  0  0
 16 14  1  0  0  0  0
 17 16  1  0  0  0  0
 18 21  2  0  0  0  0
 18 22  1  0  0  0  0
 19 23  1  0  0  0  0
 19 20  1  0  0  0  0
 20 27  1  0  0  0  0
 23 25  1  0  0  0  0
 24 18  1  0  0  0  0
 25 24  2  0  0  0  0
 27 26  1  6  0  0  0
 27 21  1  0  0  0  0
 27 17  1  0  0  0  0
 28 29  1  0  0  0  0
 29 32  1  0  0  0  0
 32 31  1  0  0  0  0
 32 30  2  0  0  0  0
M  END
>  <MODEL>
7

>  <REMARK>
 VINA RESULT:      -7.7      1.885      5.436
  Name = 
  8 active torsions:
  status: ('A' for Active; 'I' for Inactive)
    1  A    between atoms: C_2  and  N_12
    2  A    between atoms: C_2  and  C_17
    3  A    between atoms: C_6  and  N_14
    4  A    between atoms: C_6  and  C_32
    5  A    between atoms: C_7  and  C_16
    6  A    between atoms: C_7  and  N_26
    7  A    between atoms: N_14  and  C_17
    8  A    between atoms: C_25  and  N_26
                            x       y       z     vdW  Elec       q    Type
                         _______ _______ _______ _____ _____    ______ ____

>  <TORSDO>
F 8

$$$$
=
 OpenBabel10222416333D

 32 34  0  0  1  0  0  0  0  0999 V2000
  188.4240  174.4150  136.8460 C   0  0  0  0  0  0  0  0  0  0  0  0
  190.9070  174.3190  137.2090 C   0  0  0  0  0  3  0  0  0  0  0  0
  192.0740  176.1450  138.2750 C   0  0  0  0  0  3  0  0  0  0  0  0
  187.1910  175.2190  136.9100 C   0  0  0  0  0  0  0  0  0  0  0  0
  188.4340  177.0290  138.0150 N   0  0  0  0  0  0  0  0  0  0  0  0
  189.6760  176.3010  137.8960 C   0  0  0  0  0  0  0  0  0  0  0  0
  190.8740  176.8490  138.3820 C   0  0  0  0  0  3  0  0  0  0  0  0
  186.0690  174.7000  136.6660 O   0  0  0  0  0  0  0  0  0  0  0  0
  188.3780  173.1560  136.4110 C   0  0  0  0  0  2  0  0  0  0  0  0
  192.0960  174.8750  137.6850 C   0  0  0  0  0  0  0  0  0  0  0  0
  189.6920  175.0180  137.3110 C   0  0  0  0  0  0  0  0  0  0  0  0
  187.2680  176.6850  137.1990 C   0  0  0  0  0  2  0  0  0  0  0  0
  188.3630  178.2510  138.8100 C   0  0  0  0  0  2  0  0  0  0  0  0
  187.5570  178.0250  140.0800 C   0  0  2  0  0  3  0  0  0  0  0  0
  186.3260  178.6780  139.9850 O   0  0  0  0  0  1  0  0  0  0  0  0
  188.2960  178.5460  141.2170 N   0  0  0  0  0  2  0  0  0  0  0  0
  187.7620  177.9000  142.4100 C   0  0  0  0  0  2  0  0  0  0  0  0
  188.9170  177.4700  145.9570 C   0  0  0  0  0  0  0  0  0  0  0  0
  191.4470  177.7840  143.4180 C   0  0  0  0  0  2  0  0  0  0  0  0
  190.0940  178.3350  142.9820 C   0  0  0  0  0  2  0  0  0  0  0  0
  188.4110  177.8550  144.7760 C   0  0  0  0  0  3  0  0  0  0  0  0
  188.1860  177.8830  147.1830 C   0  0  0  0  0  1  0  0  0  0  0  0
  191.6800  177.9950  144.8990 C   0  0  0  0  0  2  0  0  0  0  0  0
  190.0590  176.5560  146.1240 C   0  0  0  0  0  3  0  0  0  0  0  0
  191.2870  176.7710  145.6540 C   0  0  0  0  0  3  0  0  0  0  0  0
  189.1250  176.0000  143.2200 C   0  0  0  0  0  1  0  0  0  0  0  0
  188.8710  177.5000  143.3820 C   0  0  1  0  0  0  0  0  0  0  0  0
  193.3130  174.1360  137.5550 N   0  0  0  0  0  2  0  0  0  0  0  0
  194.6350  174.7080  137.7780 C   0  0  0  0  0  2  0  0  0  0  0  0
  196.1350  174.0560  139.4710 O   0  0  0  0  0  0  0  0  0  0  0  0
  195.6260  172.3290  137.9630 C   0  0  0  0  0  1  0  0  0  0  0  0
  195.5180  173.7240  138.4730 C   0  0  0  0  0  0  0  0  0  0  0  0
  1  4  1  0  0  0  0
  1 11  1  0  0  0  0
  2 11  2  0  0  0  0
  2 10  1  0  0  0  0
  3  7  1  0  0  0  0
  4 12  1  0  0  0  0
  5 13  1  0  0  0  0
  6  5  1  0  0  0  0
  6  7  2  0  0  0  0
  8  4  2  0  0  0  0
  9  1  2  0  0  0  0
 10  3  2  0  0  0  0
 11  6  1  0  0  0  0
 12  5  1  0  0  0  0
 13 14  1  0  0  0  0
 14 15  1  6  0  0  0
 14 16  1  0  0  0  0
 16 17  1  0  0  0  0
 17 27  1  0  0  0  0
 18 24  1  0  0  0  0
 18 22  1  0  0  0  0
 19 23  1  0  0  0  0
 20 27  1  0  0  0  0
 20 19  1  0  0  0  0
 21 18  2  0  0  0  0
 23 25  1  0  0  0  0
 25 24  2  0  0  0  0
 27 26  1  6  0  0  0
 27 21  1  0  0  0  0
 28 10  1  0  0  0  0
 28 29  1  0  0  0  0
 29 32  1  0  0  0  0
 31 32  1  0  0  0  0
 32 30  2  0  0  0  0
M  END
>  <MODEL>
8

>  <REMARK>
 VINA RESULT:      -7.7      3.386      9.263
  Name = 
  8 active torsions:
  status: ('A' for Active; 'I' for Inactive)
    1  A    between atoms: C_2  and  N_12
    2  A    between atoms: C_2  and  C_17
    3  A    between atoms: C_6  and  N_14
    4  A    between atoms: C_6  and  C_32
    5  A    between atoms: C_7  and  C_16
    6  A    between atoms: C_7  and  N_26
    7  A    between atoms: N_14  and  C_17
    8  A    between atoms: C_25  and  N_26
                            x       y       z     vdW  Elec       q    Type
                         _______ _______ _______ _____ _____    ______ ____

>  <TORSDO>
F 8

$$$$
=
 OpenBabel10222416333D

 32 34  0  0  1  0  0  0  0  0999 V2000
  184.1270  177.7390  138.0500 C   0  0  0  0  0  0  0  0  0  0  0  0
  186.4710  177.1100  137.4040 C   0  0  0  0  0  3  0  0  0  0  0  0
  188.3360  177.6390  138.8440 C   0  0  0  0  0  3  0  0  0  0  0  0
  183.2500  178.4590  138.9890 C   0  0  0  0  0  0  0  0  0  0  0  0
  185.1880  178.9400  140.4230 N   0  0  0  0  0  0  0  0  0  0  0  0
  186.0880  178.3110  139.4850 C   0  0  0  0  0  0  0  0  0  0  0  0
  187.4660  178.2520  139.7460 C   0  0  0  0  0  3  0  0  0  0  0  0
  181.9960  178.3730  138.8960 O   0  0  0  0  0  0  0  0  0  0  0  0
  183.6020  177.0820  137.0160 C   0  0  0  0  0  2  0  0  0  0  0  0
  187.8420  177.0660  137.6660 C   0  0  0  0  0  0  0  0  0  0  0  0
  185.5850  177.7260  138.3030 C   0  0  0  0  0  0  0  0  0  0  0  0
  183.8440  179.3620  140.0250 C   0  0  0  0  0  2  0  0  0  0  0  0
  185.6600  179.3510  141.7420 C   0  0  0  0  0  2  0  0  0  0  0  0
  184.9670  178.5540  142.8370 C   0  0  2  0  0  3  0  0  0  0  0  0
  184.0200  179.3540  143.4810 O   0  0  0  0  0  1  0  0  0  0  0  0
  185.9560  178.1020  143.8000 N   0  0  0  0  0  2  0  0  0  0  0  0
  186.8590  177.1970  143.0980 C   0  0  0  0  0  2  0  0  0  0  0  0
  189.1200  177.3830  146.0890 C   0  0  0  0  0  0  0  0  0  0  0  0
  190.4680  178.4430  142.9260 C   0  0  0  0  0  2  0  0  0  0  0  0
  188.9440  178.4570  142.9590 C   0  0  0  0  0  2  0  0  0  0  0  0
  188.1740  177.5040  145.1460 C   0  0  0  0  0  3  0  0  0  0  0  0
  188.7050  177.5720  147.5030 C   0  0  0  0  0  1  0  0  0  0  0  0
  191.0550  178.7970  144.2760 C   0  0  0  0  0  2  0  0  0  0  0  0
  190.5030  176.9420  145.8420 C   0  0  0  0  0  3  0  0  0  0  0  0
  191.3680  177.5520  145.0350 C   0  0  0  0  0  3  0  0  0  0  0  0
  188.9790  175.9460  143.3310 C   0  0  0  0  0  1  0  0  0  0  0  0
  188.2770  177.2650  143.6580 C   0  0  1  0  0  0  0  0  0  0  0  0
  188.7130  176.4370  136.7210 N   0  0  0  0  0  2  0  0  0  0  0  0
  190.1470  176.6890  136.6510 C   0  0  0  0  0  2  0  0  0  0  0  0
  190.3650  174.6420  137.7910 O   0  0  0  0  0  0  0  0  0  0  0  0
  192.2830  175.9900  137.9260 C   0  0  0  0  0  1  0  0  0  0  0  0
  190.8900  175.6990  137.4860 C   0  0  0  0  0  0  0  0  0  0  0  0
  1 11  1  0  0  0  0
  1  4  1  0  0  0  0
  2 10  2  0  0  0  0
  2 11  1  0  0  0  0
  3  7  2  0  0  0  0
  4 12  1  0  0  0  0
  5 13  1  0  0  0  0
  6  7  1  0  0  0  0
  6  5  1  0  0  0  0
  8  4  2  0  0  0  0
  9  1  2  0  0  0  0
 10  3  1  0  0  0  0
 11  6  2  0  0  0  0
 12  5  1  0  0  0  0
 13 14  1  0  0  0  0
 14 15  1  1  0  0  0
 14 16  1  0  0  0  0
 17 27  1  0  0  0  0
 17 16  1  0  0  0  0
 18 22  1  0  0  0  0
 19 20  1  0  0  0  0
 19 23  1  0  0  0  0
 20 27  1  0  0  0  0
 21 18  2  0  0  0  0
 23 25  1  0  0  0  0
 24 18  1  0  0  0  0
 25 24  2  0  0  0  0
 27 26  1  6  0  0  0
 27 21  1  0  0  0  0
 28 10  1  0  0  0  0
 29 28  1  0  0  0  0
 29 32  1  0  0  0  0
 32 30  2  0  0  0  0
 32 31  1  0  0  0  0
M  END
>  <MODEL>
9

>  <REMARK>
 VINA RESULT:      -7.6      2.481      8.261
  Name = 
  8 active torsions:
  status: ('A' for Active; 'I' for Inactive)
    1  A    between atoms: C_2  and  N_12
    2  A    between atoms: C_2  and  C_17
    3  A    between atoms: C_6  and  N_14
    4  A    between atoms: C_6  and  C_32
    5  A    between atoms: C_7  and  C_16
    6  A    between atoms: C_7  and  N_26
    7  A    between atoms: N_14  and  C_17
    8  A    between atoms: C_25  and  N_26
                            x       y       z     vdW  Elec       q    Type
                         _______ _______ _______ _____ _____    ______ ____

>  <TORSDO>
F 8

$$$$
