=
 OpenBabel10222421123D

 34 36  0  0  1  0  0  0  0  0999 V2000
  189.9590  177.3610  142.9280 C   0  0  1  0  0  3  0  0  0  0  0  0
  187.5890  177.0520  143.4060 C   0  0  0  0  0  0  0  0  0  0  0  0
  185.7350  179.3530  146.9950 O   0  0  0  0  0  0  0  0  0  0  0  0
  183.2910  178.9570  142.9710 C   0  0  0  0  0  3  0  0  0  0  0  0
  185.5900  178.7930  145.8770 C   0  0  0  0  0  0  0  0  0  0  0  0
  188.6730  176.5960  142.8410 C   0  0  0  0  0  3  0  0  0  0  0  0
  186.5210  177.5180  143.9870 C   0  0  0  0  0  0  0  0  0  0  0  0
  184.3110  178.5860  143.7370 C   0  0  0  0  0  0  0  0  0  0  0  0
  186.5310  177.7020  145.4730 C   0  0  0  0  0  2  0  0  0  0  0  0
  182.3780  179.9670  143.3910 N   0  0  0  0  0  1  0  0  0  0  0  0
  185.2200  177.4970  143.2500 C   0  0  0  0  0  2  0  0  0  0  0  0
  184.5050  179.1760  145.0290 N   0  0  0  0  0  2  0  0  0  0  0  0
  191.3350  176.1930  147.3740 C   0  0  0  0  0  2  0  0  0  0  0  0
  190.2450  177.2680  147.5790 C   0  0  0  0  0  3  0  0  0  0  0  0
  190.8690  176.8120  143.9870 C   0  0  0  0  0  0  0  0  0  0  0  0
  189.8860  177.8310  146.1830 C   0  0  0  0  0  3  0  0  0  0  0  0
  191.6980  175.6900  143.9020 C   0  0  0  0  0  3  0  0  0  0  0  0
  190.8530  177.1240  145.3240 C   0  0  0  0  0  0  0  0  0  0  0  0
  192.1260  175.3720  145.1510 N   0  0  0  0  0  0  0  0  0  0  0  0
  191.6230  176.2810  145.9660 N   0  0  0  0  0  0  0  0  0  0  0  0
  190.6450  177.4440  141.5910 C   0  0  0  0  0  0  0  0  0  0  0  0
  191.9000  177.7500  141.5260 N   0  0  0  0  0  2  0  0  0  0  0  0
  190.4560  177.3840  139.2060 C   0  0  0  0  0  3  0  0  0  0  0  0
  189.9100  177.2730  140.3750 N   0  0  0  0  0  0  0  0  0  0  0  0
  189.6450  177.1980  137.9680 C   0  0  0  0  0  2  0  0  0  0  0  0
  188.8190  178.4380  137.6640 C   0  0  0  0  0  2  0  0  0  0  0  0
  187.7150  178.1000  136.7780 N   0  0  0  0  0  2  0  0  0  0  0  0
  186.5500  175.7090  137.0170 S   0  0  0  0  0  0  0  0  0  0  0  0
  186.5690  177.3470  137.1870 C   0  0  0  0  0  0  0  0  0  0  0  0
  185.3900  178.6840  139.0530 C   0  0  0  0  0  0  0  0  0  0  0  0
  185.4650  178.0590  137.7650 N   0  0  0  0  0  2  0  0  0  0  0  0
  186.3350  178.6040  139.8800 O   0  0  0  0  0  0  0  0  0  0  0  0
  182.9770  178.8880  138.6300 C   0  0  0  0  0  1  0  0  0  0  0  0
  184.1490  179.4090  139.4380 C   0  0  0  0  0  2  0  0  0  0  0  0
  1  6  1  6  0  0  0
  1 15  1  0  0  0  0
  2  7  2  0  0  0  0
  4 10  1  0  0  0  0
  4  8  2  0  0  0  0
  5  3  2  0  0  0  0
  6  2  2  0  0  0  0
  7  9  1  0  0  0  0
  8 12  1  0  0  0  0
  9  5  1  0  0  0  0
 11  8  1  0  0  0  0
 11  7  1  0  0  0  0
 12  5  1  0  0  0  0
 13 14  1  0  0  0  0
 15 18  2  0  0  0  0
 16 14  2  0  0  0  0
 17 15  1  0  0  0  0
 17 19  2  0  0  0  0
 18 20  1  0  0  0  0
 18 16  1  0  0  0  0
 19 20  1  0  0  0  0
 20 13  1  0  0  0  0
 21  1  1  0  0  0  0
 22 21  2  0  0  0  0
 23 24  2  0  0  0  0
 24 21  1  0  0  0  0
 25 23  1  0  0  0  0
 26 25  1  0  0  0  0
 27 29  1  0  0  0  0
 27 26  1  0  0  0  0
 28 29  2  0  0  0  0
 29 31  1  0  0  0  0
 30 34  1  0  0  0  0
 30 32  2  0  0  0  0
 31 30  1  0  0  0  0
 33 34  1  0  0  0  0
M  END
>  <MODEL>
1

>  <REMARK>
 VINA RESULT:      -7.9      0.000      0.000
  Name = 
  10 active torsions:
  status: ('A' for Active; 'I' for Inactive)
    1  A    between atoms: C_4  and  C_11
    2  A    between atoms: C_4  and  C_18
    3  A    between atoms: C_6  and  C_23
    4  A    between atoms: C_13  and  C_23
    5  A    between atoms: C_13  and  N_27
    6  A    between atoms: C_14  and  C_23
    7  A    between atoms: C_17  and  C_30
    8  A    between atoms: C_18  and  N_28
    9  A    between atoms: N_20  and  C_25
   10  A    between atoms: C_25  and  N_28
                            x       y       z     vdW  Elec       q    Type
                         _______ _______ _______ _____ _____    ______ ____

>  <TORSDO>
F 10

$$$$
=
 OpenBabel10222421123D

 34 36  0  0  1  0  0  0  0  0999 V2000
  189.3490  177.8930  140.4430 C   0  0  1  0  0  3  0  0  0  0  0  0
  188.7600  176.9540  142.6130 C   0  0  0  0  0  0  0  0  0  0  0  0
  191.9350  177.0570  146.0070 O   0  0  0  0  0  0  0  0  0  0  0  0
  187.4130  177.9830  147.0200 C   0  0  0  0  0  3  0  0  0  0  0  0
  190.7270  177.0220  145.6560 C   0  0  0  0  0  0  0  0  0  0  0  0
  188.5280  177.0090  141.3300 C   0  0  0  0  0  3  0  0  0  0  0  0
  189.0160  176.9030  143.8880 C   0  0  0  0  0  0  0  0  0  0  0  0
  188.3310  177.5220  146.1760 C   0  0  0  0  0  0  0  0  0  0  0  0
  190.3610  176.4210  144.3350 C   0  0  0  0  0  2  0  0  0  0  0  0
  187.7750  178.5110  148.2920 N   0  0  0  0  0  1  0  0  0  0  0  0
  187.8830  176.9530  144.8630 C   0  0  0  0  0  2  0  0  0  0  0  0
  189.7180  177.5170  146.5400 N   0  0  0  0  0  2  0  0  0  0  0  0
  191.8360  175.4270  137.1630 C   0  0  0  0  0  2  0  0  0  0  0  0
  190.3580  175.1970  136.7770 C   0  0  0  0  0  3  0  0  0  0  0  0
  190.5340  177.1720  139.8700 C   0  0  0  0  0  0  0  0  0  0  0  0
  189.4890  175.8090  137.9020 C   0  0  0  0  0  3  0  0  0  0  0  0
  191.8850  177.5010  140.0150 C   0  0  0  0  0  3  0  0  0  0  0  0
  190.5160  176.2330  138.8690 C   0  0  0  0  0  0  0  0  0  0  0  0
  192.6040  176.7800  139.1170 N   0  0  0  0  0  0  0  0  0  0  0  0
  191.7460  176.0070  138.4780 N   0  0  0  0  0  0  0  0  0  0  0  0
  188.5110  178.5310  139.3670 C   0  0  0  0  0  0  0  0  0  0  0  0
  189.0750  179.2360  138.4410 N   0  0  0  0  0  2  0  0  0  0  0  0
  186.3800  178.1430  138.3510 C   0  0  0  0  0  3  0  0  0  0  0  0
  187.0840  178.4410  139.3970 N   0  0  0  0  0  0  0  0  0  0  0  0
  184.8920  178.0640  138.4350 C   0  0  0  0  0  2  0  0  0  0  0  0
  184.3030  179.3770  138.9270 C   0  0  0  0  0  2  0  0  0  0  0  0
  182.8960  179.2000  139.2590 N   0  0  0  0  0  2  0  0  0  0  0  0
  181.8700  176.7890  139.7710 S   0  0  0  0  0  0  0  0  0  0  0  0
  182.4210  178.2700  140.2360 C   0  0  0  0  0  0  0  0  0  0  0  0
  183.5710  178.5830  142.5260 C   0  0  0  0  0  0  0  0  0  0  0  0
  182.4640  178.6600  141.6170 N   0  0  0  0  0  2  0  0  0  0  0  0
  184.6670  178.0680  142.1850 O   0  0  0  0  0  0  0  0  0  0  0  0
  184.6140  178.7040  144.7480 C   0  0  0  0  0  1  0  0  0  0  0  0
  183.4050  179.0840  143.9160 C   0  0  0  0  0  2  0  0  0  0  0  0
  1  6  1  6  0  0  0
  2  7  2  0  0  0  0
  4 10  1  0  0  0  0
  5  3  2  0  0  0  0
  5 12  1  0  0  0  0
  6  2  2  0  0  0  0
  7  9  1  0  0  0  0
  7 11  1  0  0  0  0
  8 12  1  0  0  0  0
  8  4  2  0  0  0  0
  9  5  1  0  0  0  0
 11  8  1  0  0  0  0
 13 20  1  0  0  0  0
 14 13  1  0  0  0  0
 14 16  2  0  0  0  0
 15 17  1  0  0  0  0
 15  1  1  0  0  0  0
 16 18  1  0  0  0  0
 18 15  2  0  0  0  0
 19 17  2  0  0  0  0
 20 18  1  0  0  0  0
 20 19  1  0  0  0  0
 21 24  1  0  0  0  0
 21  1  1  0  0  0  0
 22 21  2  0  0  0  0
 23 25  1  0  0  0  0
 23 24  2  0  0  0  0
 25 26  1  0  0  0  0
 26 27  1  0  0  0  0
 27 29  1  0  0  0  0
 28 29  2  0  0  0  0
 29 31  1  0  0  0  0
 30 34  1  0  0  0  0
 31 30  1  0  0  0  0
 32 30  2  0  0  0  0
 34 33  1  0  0  0  0
M  END
>  <MODEL>
2

>  <REMARK>
 VINA RESULT:      -7.8      2.436      5.528
  Name = 
  10 active torsions:
  status: ('A' for Active; 'I' for Inactive)
    1  A    between atoms: C_4  and  C_11
    2  A    between atoms: C_4  and  C_18
    3  A    between atoms: C_6  and  C_23
    4  A    between atoms: C_13  and  C_23
    5  A    between atoms: C_13  and  N_27
    6  A    between atoms: C_14  and  C_23
    7  A    between atoms: C_17  and  C_30
    8  A    between atoms: C_18  and  N_28
    9  A    between atoms: N_20  and  C_25
   10  A    between atoms: C_25  and  N_28
                            x       y       z     vdW  Elec       q    Type
                         _______ _______ _______ _____ _____    ______ ____

>  <TORSDO>
F 10

$$$$
=
 OpenBabel10222421123D

 34 36  0  0  1  0  0  0  0  0999 V2000
  184.9780  178.3230  142.3190 C   0  0  1  0  0  3  0  0  0  0  0  0
  187.2270  178.5390  141.4030 C   0  0  0  0  0  0  0  0  0  0  0  0
  190.6180  175.9290  143.2200 O   0  0  0  0  0  0  0  0  0  0  0  0
  190.4280  176.5730  138.5430 C   0  0  0  0  0  3  0  0  0  0  0  0
  190.1500  176.5690  142.2420 C   0  0  0  0  0  0  0  0  0  0  0  0
  186.0420  179.0620  141.5660 C   0  0  0  0  0  3  0  0  0  0  0  0
  188.4060  178.0060  141.2640 C   0  0  0  0  0  0  0  0  0  0  0  0
  190.0310  176.9090  139.7660 C   0  0  0  0  0  0  0  0  0  0  0  0
  189.2130  177.7100  142.4890 C   0  0  0  0  0  2  0  0  0  0  0  0
  191.3550  175.5130  138.3290 N   0  0  0  0  0  1  0  0  0  0  0  0
  189.0750  178.0520  139.9270 C   0  0  0  0  0  2  0  0  0  0  0  0
  190.5540  176.2260  140.9140 N   0  0  0  0  0  2  0  0  0  0  0  0
  186.8400  178.3460  146.7410 C   0  0  0  0  0  2  0  0  0  0  0  0
  187.5930  177.2100  146.0130 C   0  0  0  0  0  3  0  0  0  0  0  0
  185.0260  178.6130  143.7910 C   0  0  0  0  0  0  0  0  0  0  0  0
  186.9140  177.0170  144.6360 C   0  0  0  0  0  3  0  0  0  0  0  0
  184.5560  179.7520  144.4520 C   0  0  0  0  0  3  0  0  0  0  0  0
  185.7870  177.9630  144.7290 C   0  0  0  0  0  0  0  0  0  0  0  0
  185.0460  179.7500  145.7180 N   0  0  0  0  0  0  0  0  0  0  0  0
  185.7480  178.6400  145.8510 N   0  0  0  0  0  0  0  0  0  0  0  0
  183.6120  178.5820  141.7430 C   0  0  0  0  0  0  0  0  0  0  0  0
  182.5600  178.4260  142.4800 N   0  0  0  0  0  2  0  0  0  0  0  0
  182.3080  179.2760  139.8610 C   0  0  0  0  0  3  0  0  0  0  0  0
  183.4470  178.9180  140.3620 N   0  0  0  0  0  0  0  0  0  0  0  0
  182.1880  179.6150  138.4130 C   0  0  0  0  0  2  0  0  0  0  0  0
  181.6080  178.4500  137.6260 C   0  0  0  0  0  2  0  0  0  0  0  0
  182.6540  177.8010  136.8490 N   0  0  0  0  0  2  0  0  0  0  0  0
  182.9970  175.7090  138.4720 S   0  0  0  0  0  0  0  0  0  0  0  0
  183.5420  176.8130  137.3790 C   0  0  0  0  0  0  0  0  0  0  0  0
  185.9740  177.6750  137.2900 C   0  0  0  0  0  0  0  0  0  0  0  0
  184.8990  176.8040  136.9100 N   0  0  0  0  0  2  0  0  0  0  0  0
  185.7930  178.6380  138.0800 O   0  0  0  0  0  0  0  0  0  0  0  0
  188.0480  178.7870  136.5790 C   0  0  0  0  0  1  0  0  0  0  0  0
  187.3240  177.4610  136.7030 C   0  0  0  0  0  2  0  0  0  0  0  0
  1  6  1  6  0  0  0
  1 15  1  0  0  0  0
  2  6  2  0  0  0  0
  4  8  2  0  0  0  0
  5  9  1  0  0  0  0
  5  3  2  0  0  0  0
  7  2  2  0  0  0  0
  7  9  1  0  0  0  0
  8 11  1  0  0  0  0
  8 12  1  0  0  0  0
 10  4  1  0  0  0  0
 11  7  1  0  0  0  0
 12  5  1  0  0  0  0
 14 13  1  0  0  0  0
 15 17  1  0  0  0  0
 15 18  2  0  0  0  0
 16 18  1  0  0  0  0
 16 14  2  0  0  0  0
 17 19  2  0  0  0  0
 18 20  1  0  0  0  0
 19 20  1  0  0  0  0
 20 13  1  0  0  0  0
 21  1  1  0  0  0  0
 21 22  2  0  0  0  0
 23 24  2  0  0  0  0
 24 21  1  0  0  0  0
 25 23  1  0  0  0  0
 26 25  1  0  0  0  0
 27 29  1  0  0  0  0
 27 26  1  0  0  0  0
 29 28  2  0  0  0  0
 30 32  2  0  0  0  0
 31 30  1  0  0  0  0
 31 29  1  0  0  0  0
 33 34  1  0  0  0  0
 34 30  1  0  0  0  0
M  END
>  <MODEL>
3

>  <REMARK>
 VINA RESULT:      -7.7      2.533      6.119
  Name = 
  10 active torsions:
  status: ('A' for Active; 'I' for Inactive)
    1  A    between atoms: C_4  and  C_11
    2  A    between atoms: C_4  and  C_18
    3  A    between atoms: C_6  and  C_23
    4  A    between atoms: C_13  and  C_23
    5  A    between atoms: C_13  and  N_27
    6  A    between atoms: C_14  and  C_23
    7  A    between atoms: C_17  and  C_30
    8  A    between atoms: C_18  and  N_28
    9  A    between atoms: N_20  and  C_25
   10  A    between atoms: C_25  and  N_28
                            x       y       z     vdW  Elec       q    Type
                         _______ _______ _______ _____ _____    ______ ____

>  <TORSDO>
F 10

$$$$
=
 OpenBabel10222421123D

 34 36  0  0  1  0  0  0  0  0999 V2000
  188.6780  177.1430  139.1090 C   0  0  1  0  0  3  0  0  0  0  0  0
  187.1230  178.6140  140.2750 C   0  0  0  0  0  0  0  0  0  0  0  0
  182.5640  177.9890  139.6120 O   0  0  0  0  0  0  0  0  0  0  0  0
  184.1740  178.9740  143.9440 C   0  0  0  0  0  3  0  0  0  0  0  0
  183.5060  178.3960  140.3410 C   0  0  0  0  0  0  0  0  0  0  0  0
  188.3320  178.4130  139.8250 C   0  0  0  0  0  3  0  0  0  0  0  0
  185.9080  178.8010  140.7030 C   0  0  0  0  0  0  0  0  0  0  0  0
  184.3730  178.9060  142.6320 C   0  0  0  0  0  0  0  0  0  0  0  0
  184.7900  178.8350  139.7090 C   0  0  0  0  0  2  0  0  0  0  0  0
  182.9300  178.5940  144.5250 N   0  0  0  0  0  1  0  0  0  0  0  0
  185.6950  179.3470  142.0790 C   0  0  0  0  0  2  0  0  0  0  0  0
  183.3230  178.4730  141.7570 N   0  0  0  0  0  2  0  0  0  0  0  0
  186.5160  175.9890  134.9840 C   0  0  0  0  0  2  0  0  0  0  0  0
  186.3150  174.7490  135.8840 C   0  0  0  0  0  3  0  0  0  0  0  0
  188.3820  177.2270  137.6400 C   0  0  0  0  0  0  0  0  0  0  0  0
  187.1490  174.9720  137.1680 C   0  0  0  0  0  3  0  0  0  0  0  0
  188.3270  178.3750  136.8450 C   0  0  0  0  0  3  0  0  0  0  0  0
  187.8280  176.2430  136.8590 C   0  0  0  0  0  0  0  0  0  0  0  0
  187.7510  178.0520  135.6590 N   0  0  0  0  0  0  0  0  0  0  0  0
  187.5020  176.7560  135.6980 N   0  0  0  0  0  0  0  0  0  0  0  0
  190.1030  176.7320  139.3680 C   0  0  0  0  0  0  0  0  0  0  0  0
  190.9150  176.5540  138.3780 N   0  0  0  0  0  2  0  0  0  0  0  0
  191.2070  177.3120  141.4100 C   0  0  0  0  0  3  0  0  0  0  0  0
  190.5570  176.4500  140.6950 N   0  0  0  0  0  0  0  0  0  0  0  0
  191.6610  176.9680  142.7890 C   0  0  0  0  0  2  0  0  0  0  0  0
  191.3210  178.0800  143.7690 C   0  0  0  0  0  2  0  0  0  0  0  0
  189.8830  178.3080  143.7890 N   0  0  0  0  0  2  0  0  0  0  0  0
  187.9930  176.4760  143.3400 S   0  0  0  0  0  0  0  0  0  0  0  0
  188.9390  177.3830  144.3370 C   0  0  0  0  0  0  0  0  0  0  0  0
  187.8370  177.7310  146.6450 C   0  0  0  0  0  0  0  0  0  0  0  0
  188.8670  177.2600  145.7650 N   0  0  0  0  0  2  0  0  0  0  0  0
  186.8610  178.4020  146.2170 O   0  0  0  0  0  0  0  0  0  0  0  0
  189.1110  178.2300  148.6870 C   0  0  0  0  0  1  0  0  0  0  0  0
  187.9450  177.4570  148.1030 C   0  0  0  0  0  2  0  0  0  0  0  0
  1 21  1  0  0  0  0
  1  6  1  6  0  0  0
  2  7  2  0  0  0  0
  3  5  2  0  0  0  0
  4 10  1  0  0  0  0
  5 12  1  0  0  0  0
  6  2  2  0  0  0  0
  7 11  1  0  0  0  0
  8  4  2  0  0  0  0
  9  5  1  0  0  0  0
  9  7  1  0  0  0  0
 11  8  1  0  0  0  0
 12  8  1  0  0  0  0
 13 20  1  0  0  0  0
 13 14  1  0  0  0  0
 14 16  2  0  0  0  0
 15  1  1  0  0  0  0
 17 15  1  0  0  0  0
 18 16  1  0  0  0  0
 18 15  2  0  0  0  0
 19 20  1  0  0  0  0
 19 17  2  0  0  0  0
 20 18  1  0  0  0  0
 21 24  1  0  0  0  0
 22 21  2  0  0  0  0
 23 25  1  0  0  0  0
 24 23  2  0  0  0  0
 25 26  1  0  0  0  0
 26 27  1  0  0  0  0
 27 29  1  0  0  0  0
 28 29  2  0  0  0  0
 29 31  1  0  0  0  0
 30 34  1  0  0  0  0
 31 30  1  0  0  0  0
 32 30  2  0  0  0  0
 34 33  1  0  0  0  0
M  END
>  <MODEL>
4

>  <REMARK>
 VINA RESULT:      -7.6      2.255      7.170
  Name = 
  10 active torsions:
  status: ('A' for Active; 'I' for Inactive)
    1  A    between atoms: C_4  and  C_11
    2  A    between atoms: C_4  and  C_18
    3  A    between atoms: C_6  and  C_23
    4  A    between atoms: C_13  and  C_23
    5  A    between atoms: C_13  and  N_27
    6  A    between atoms: C_14  and  C_23
    7  A    between atoms: C_17  and  C_30
    8  A    between atoms: C_18  and  N_28
    9  A    between atoms: N_20  and  C_25
   10  A    between atoms: C_25  and  N_28
                            x       y       z     vdW  Elec       q    Type
                         _______ _______ _______ _____ _____    ______ ____

>  <TORSDO>
F 10

$$$$
=
 OpenBabel10222421123D

 34 36  0  0  1  0  0  0  0  0999 V2000
  184.7520  178.1240  142.1040 C   0  0  1  0  0  3  0  0  0  0  0  0
  186.9910  178.6180  141.2780 C   0  0  0  0  0  0  0  0  0  0  0  0
  190.4810  175.8100  142.5220 O   0  0  0  0  0  0  0  0  0  0  0  0
  190.2700  177.4390  138.0920 C   0  0  0  0  0  3  0  0  0  0  0  0
  189.9890  176.6270  141.7010 C   0  0  0  0  0  0  0  0  0  0  0  0
  185.7870  179.0480  141.5380 C   0  0  0  0  0  3  0  0  0  0  0  0
  188.1910  178.1730  141.0380 C   0  0  0  0  0  0  0  0  0  0  0  0
  189.8600  177.4870  139.3550 C   0  0  0  0  0  0  0  0  0  0  0  0
  189.0080  177.6510  142.1780 C   0  0  0  0  0  2  0  0  0  0  0  0
  191.2390  176.4860  137.6640 N   0  0  0  0  0  1  0  0  0  0  0  0
  188.8590  178.5320  139.7490 C   0  0  0  0  0  2  0  0  0  0  0  0
  190.4070  176.5950  140.3340 N   0  0  0  0  0  2  0  0  0  0  0  0
  185.9900  178.5590  146.7200 C   0  0  0  0  0  2  0  0  0  0  0  0
  187.1460  177.7540  146.0860 C   0  0  0  0  0  3  0  0  0  0  0  0
  184.5360  178.3540  143.5720 C   0  0  0  0  0  0  0  0  0  0  0  0
  186.7270  177.4110  144.6360 C   0  0  0  0  0  3  0  0  0  0  0  0
  183.6520  179.2550  144.1730 C   0  0  0  0  0  3  0  0  0  0  0  0
  185.3530  177.9420  144.5940 C   0  0  0  0  0  0  0  0  0  0  0  0
  183.9680  179.3570  145.4890 N   0  0  0  0  0  0  0  0  0  0  0  0
  184.9700  178.5250  145.7040 N   0  0  0  0  0  0  0  0  0  0  0  0
  183.4620  178.1970  141.3320 C   0  0  0  0  0  0  0  0  0  0  0  0
  182.6140  177.2230  141.3960 N   0  0  0  0  0  2  0  0  0  0  0  0
  182.5670  179.1530  139.3290 C   0  0  0  0  0  3  0  0  0  0  0  0
  183.1910  179.2950  140.4550 N   0  0  0  0  0  0  0  0  0  0  0  0
  182.3110  180.3310  138.4490 C   0  0  0  0  0  2  0  0  0  0  0  0
  180.9470  180.2280  137.7850 C   0  0  0  0  0  2  0  0  0  0  0  0
  179.9050  180.1160  138.7950 N   0  0  0  0  0  2  0  0  0  0  0  0
  178.9330  182.5810  139.1300 S   0  0  0  0  0  0  0  0  0  0  0  0
  179.5580  181.1680  139.7010 C   0  0  0  0  0  0  0  0  0  0  0  0
  179.6940  179.6960  141.8170 C   0  0  0  0  0  0  0  0  0  0  0  0
  179.7490  180.9400  141.1050 N   0  0  0  0  0  2  0  0  0  0  0  0
  179.3850  178.6210  141.2400 O   0  0  0  0  0  0  0  0  0  0  0  0
  180.0980  178.2540  143.7660 C   0  0  0  0  0  1  0  0  0  0  0  0
  179.9650  179.6840  143.2790 C   0  0  0  0  0  2  0  0  0  0  0  0
  1  6  1  6  0  0  0
  1 15  1  0  0  0  0
  2  6  2  0  0  0  0
  4  8  2  0  0  0  0
  5  9  1  0  0  0  0
  5  3  2  0  0  0  0
  7  2  2  0  0  0  0
  7  9  1  0  0  0  0
  8 11  1  0  0  0  0
  8 12  1  0  0  0  0
 10  4  1  0  0  0  0
 11  7  1  0  0  0  0
 12  5  1  0  0  0  0
 14 13  1  0  0  0  0
 15 17  1  0  0  0  0
 15 18  2  0  0  0  0
 16 14  2  0  0  0  0
 17 19  2  0  0  0  0
 18 16  1  0  0  0  0
 18 20  1  0  0  0  0
 19 20  1  0  0  0  0
 20 13  1  0  0  0  0
 21 22  2  0  0  0  0
 21  1  1  0  0  0  0
 23 24  2  0  0  0  0
 24 21  1  0  0  0  0
 25 23  1  0  0  0  0
 26 25  1  0  0  0  0
 26 27  1  0  0  0  0
 27 29  1  0  0  0  0
 28 29  2  0  0  0  0
 29 31  1  0  0  0  0
 30 34  1  0  0  0  0
 31 30  1  0  0  0  0
 32 30  2  0  0  0  0
 34 33  1  0  0  0  0
M  END
>  <MODEL>
5

>  <REMARK>
 VINA RESULT:      -7.4      3.471      7.074
  Name = 
  10 active torsions:
  status: ('A' for Active; 'I' for Inactive)
    1  A    between atoms: C_4  and  C_11
    2  A    between atoms: C_4  and  C_18
    3  A    between atoms: C_6  and  C_23
    4  A    between atoms: C_13  and  C_23
    5  A    between atoms: C_13  and  N_27
    6  A    between atoms: C_14  and  C_23
    7  A    between atoms: C_17  and  C_30
    8  A    between atoms: C_18  and  N_28
    9  A    between atoms: N_20  and  C_25
   10  A    between atoms: C_25  and  N_28
                            x       y       z     vdW  Elec       q    Type
                         _______ _______ _______ _____ _____    ______ ____

>  <TORSDO>
F 10

$$$$
=
 OpenBabel10222421123D

 34 36  0  0  1  0  0  0  0  0999 V2000
  182.9250  177.6880  140.6150 C   0  0  1  0  0  3  0  0  0  0  0  0
  184.7620  178.5200  141.9830 C   0  0  0  0  0  0  0  0  0  0  0  0
  184.2040  178.6550  146.5960 O   0  0  0  0  0  0  0  0  0  0  0  0
  188.3470  177.2740  144.7920 C   0  0  0  0  0  3  0  0  0  0  0  0
  184.9700  178.5800  145.6000 C   0  0  0  0  0  0  0  0  0  0  0  0
  184.1880  178.4700  140.8120 C   0  0  0  0  0  3  0  0  0  0  0  0
  185.3120  178.5690  143.1620 C   0  0  0  0  0  0  0  0  0  0  0  0
  187.1550  177.8390  144.6320 C   0  0  0  0  0  0  0  0  0  0  0  0
  184.5400  179.1700  144.2940 C   0  0  0  0  0  2  0  0  0  0  0  0
  188.7580  176.7570  146.0540 N   0  0  0  0  0  1  0  0  0  0  0  0
  186.7920  178.3900  143.2850 C   0  0  0  0  0  2  0  0  0  0  0  0
  186.2560  177.9710  145.7410 N   0  0  0  0  0  2  0  0  0  0  0  0
  179.4810  180.5030  142.4150 C   0  0  0  0  0  2  0  0  0  0  0  0
  179.9630  179.6650  143.6210 C   0  0  0  0  0  3  0  0  0  0  0  0
  181.7140  178.5740  140.5810 C   0  0  0  0  0  0  0  0  0  0  0  0
  180.9440  178.5990  143.0780 C   0  0  0  0  0  3  0  0  0  0  0  0
  181.3740  179.5170  139.6070 C   0  0  0  0  0  3  0  0  0  0  0  0
  180.8640  178.8390  141.6260 C   0  0  0  0  0  0  0  0  0  0  0  0
  180.3720  180.2960  140.0910 N   0  0  0  0  0  0  0  0  0  0  0  0
  180.0740  179.8300  141.2890 N   0  0  0  0  0  0  0  0  0  0  0  0
  183.0040  176.8060  139.3980 C   0  0  0  0  0  0  0  0  0  0  0  0
  182.3130  175.7140  139.3440 N   0  0  0  0  0  2  0  0  0  0  0  0
  183.8680  176.4920  137.1880 C   0  0  0  0  0  3  0  0  0  0  0  0
  183.9020  177.1100  138.3260 N   0  0  0  0  0  0  0  0  0  0  0  0
  184.8280  176.8470  136.1020 C   0  0  0  0  0  2  0  0  0  0  0  0
  185.5450  175.6100  135.5830 C   0  0  0  0  0  2  0  0  0  0  0  0
  186.6590  175.2730  136.4570 N   0  0  0  0  0  2  0  0  0  0  0  0
  188.7820  176.4800  135.3780 S   0  0  0  0  0  0  0  0  0  0  0  0
  187.8020  176.1120  136.6490 C   0  0  0  0  0  0  0  0  0  0  0  0
  187.6850  177.9190  138.4880 C   0  0  0  0  0  0  0  0  0  0  0  0
  188.0430  176.6330  137.9640 N   0  0  0  0  0  2  0  0  0  0  0  0
  187.1420  178.7960  137.7660 O   0  0  0  0  0  0  0  0  0  0  0  0
  189.3110  177.5910  140.3020 C   0  0  0  0  0  1  0  0  0  0  0  0
  188.0000  178.2400  139.9060 C   0  0  0  0  0  2  0  0  0  0  0  0
  1  6  1  6  0  0  0
  2  7  2  0  0  0  0
  4 10  1  0  0  0  0
  5 12  1  0  0  0  0
  5  3  2  0  0  0  0
  6  2  2  0  0  0  0
  7 11  1  0  0  0  0
  7  9  1  0  0  0  0
  8  4  2  0  0  0  0
  8 12  1  0  0  0  0
  9  5  1  0  0  0  0
 11  8  1  0  0  0  0
 13 14  1  0  0  0  0
 15  1  1  0  0  0  0
 15 18  2  0  0  0  0
 16 14  2  0  0  0  0
 17 19  2  0  0  0  0
 17 15  1  0  0  0  0
 18 16  1  0  0  0  0
 19 20  1  0  0  0  0
 20 18  1  0  0  0  0
 20 13  1  0  0  0  0
 21  1  1  0  0  0  0
 22 21  2  0  0  0  0
 23 24  2  0  0  0  0
 24 21  1  0  0  0  0
 25 23  1  0  0  0  0
 26 25  1  0  0  0  0
 26 27  1  0  0  0  0
 27 29  1  0  0  0  0
 28 29  2  0  0  0  0
 29 31  1  0  0  0  0
 30 34  1  0  0  0  0
 31 30  1  0  0  0  0
 32 30  2  0  0  0  0
 34 33  1  0  0  0  0
M  END
>  <MODEL>
6

>  <REMARK>
 VINA RESULT:      -7.3      2.477      7.139
  Name = 
  10 active torsions:
  status: ('A' for Active; 'I' for Inactive)
    1  A    between atoms: C_4  and  C_11
    2  A    between atoms: C_4  and  C_18
    3  A    between atoms: C_6  and  C_23
    4  A    between atoms: C_13  and  C_23
    5  A    between atoms: C_13  and  N_27
    6  A    between atoms: C_14  and  C_23
    7  A    between atoms: C_17  and  C_30
    8  A    between atoms: C_18  and  N_28
    9  A    between atoms: N_20  and  C_25
   10  A    between atoms: C_25  and  N_28
                            x       y       z     vdW  Elec       q    Type
                         _______ _______ _______ _____ _____    ______ ____

>  <TORSDO>
F 10

$$$$
=
 OpenBabel10222421123D

 34 36  0  0  1  0  0  0  0  0999 V2000
  188.7130  178.0100  141.9740 C   0  0  1  0  0  3  0  0  0  0  0  0
  190.0090  178.2120  144.0270 C   0  0  0  0  0  0  0  0  0  0  0  0
  187.9610  177.1260  148.0560 O   0  0  0  0  0  0  0  0  0  0  0  0
  192.4410  175.8300  147.2990 C   0  0  0  0  0  3  0  0  0  0  0  0
  189.0110  177.2410  147.3730 C   0  0  0  0  0  0  0  0  0  0  0  0
  189.8530  178.5550  142.7780 C   0  0  0  0  0  3  0  0  0  0  0  0
  190.1400  177.8680  145.2760 C   0  0  0  0  0  0  0  0  0  0  0  0
  191.3800  176.5510  146.9550 C   0  0  0  0  0  0  0  0  0  0  0  0
  189.0480  178.2170  146.2380 C   0  0  0  0  0  2  0  0  0  0  0  0
  192.4030  174.9400  148.4100 N   0  0  0  0  0  1  0  0  0  0  0  0
  191.4920  177.4920  145.7920 C   0  0  0  0  0  2  0  0  0  0  0  0
  190.1670  176.4730  147.7160 N   0  0  0  0  0  2  0  0  0  0  0  0
  188.7560  177.6830  137.1870 C   0  0  0  0  0  2  0  0  0  0  0  0
  187.3680  178.2760  137.5190 C   0  0  0  0  0  3  0  0  0  0  0  0
  189.1600  177.5060  140.6320 C   0  0  0  0  0  0  0  0  0  0  0  0
  187.2070  178.2350  139.0580 C   0  0  0  0  0  3  0  0  0  0  0  0
  190.4610  177.1830  140.2330 C   0  0  0  0  0  3  0  0  0  0  0  0
  188.4420  177.5400  139.4630 C   0  0  0  0  0  0  0  0  0  0  0  0
  190.4770  177.0500  138.8820 N   0  0  0  0  0  0  0  0  0  0  0  0
  189.2380  177.2370  138.4670 N   0  0  0  0  0  0  0  0  0  0  0  0
  187.9480  176.9610  142.7360 C   0  0  0  0  0  0  0  0  0  0  0  0
  188.4240  175.7640  142.8430 N   0  0  0  0  0  2  0  0  0  0  0  0
  185.9280  178.2370  142.8750 C   0  0  0  0  0  3  0  0  0  0  0  0
  186.6540  177.2440  143.2790 N   0  0  0  0  0  0  0  0  0  0  0  0
  184.5860  178.4900  143.4750 C   0  0  0  0  0  2  0  0  0  0  0  0
  183.5400  178.7190  142.3950 C   0  0  0  0  0  2  0  0  0  0  0  0
  183.8510  177.9190  141.2190 N   0  0  0  0  0  2  0  0  0  0  0  0
  182.6770  176.2710  139.4770 S   0  0  0  0  0  0  0  0  0  0  0  0
  182.9670  177.7650  140.1050 C   0  0  0  0  0  0  0  0  0  0  0  0
  182.9520  180.1290  139.0660 C   0  0  0  0  0  0  0  0  0  0  0  0
  182.3330  178.9410  139.5790 N   0  0  0  0  0  2  0  0  0  0  0  0
  184.2010  180.2830  139.0920 O   0  0  0  0  0  0  0  0  0  0  0  0
  180.7810  180.6500  138.0380 C   0  0  0  0  0  1  0  0  0  0  0  0
  182.0960  181.2210  138.5300 C   0  0  0  0  0  2  0  0  0  0  0  0
  1 21  1  0  0  0  0
  1  6  1  1  0  0  0
  2  7  2  0  0  0  0
  4 10  1  0  0  0  0
  5 12  1  0  0  0  0
  5  3  2  0  0  0  0
  6  2  2  0  0  0  0
  7 11  1  0  0  0  0
  7  9  1  0  0  0  0
  8  4  2  0  0  0  0
  8 12  1  0  0  0  0
  9  5  1  0  0  0  0
 11  8  1  0  0  0  0
 13 14  1  0  0  0  0
 13 20  1  0  0  0  0
 14 16  2  0  0  0  0
 15  1  1  0  0  0  0
 16 18  1  0  0  0  0
 17 15  1  0  0  0  0
 18 15  2  0  0  0  0
 19 17  2  0  0  0  0
 20 19  1  0  0  0  0
 20 18  1  0  0  0  0
 21 22  2  0  0  0  0
 21 24  1  0  0  0  0
 23 24  2  0  0  0  0
 23 25  1  0  0  0  0
 26 25  1  0  0  0  0
 27 26  1  0  0  0  0
 28 29  2  0  0  0  0
 29 27  1  0  0  0  0
 30 32  2  0  0  0  0
 30 31  1  0  0  0  0
 31 29  1  0  0  0  0
 33 34  1  0  0  0  0
 34 30  1  0  0  0  0
M  END
>  <MODEL>
7

>  <REMARK>
 VINA RESULT:      -7.3      2.163      6.085
  Name = 
  10 active torsions:
  status: ('A' for Active; 'I' for Inactive)
    1  A    between atoms: C_4  and  C_11
    2  A    between atoms: C_4  and  C_18
    3  A    between atoms: C_6  and  C_23
    4  A    between atoms: C_13  and  C_23
    5  A    between atoms: C_13  and  N_27
    6  A    between atoms: C_14  and  C_23
    7  A    between atoms: C_17  and  C_30
    8  A    between atoms: C_18  and  N_28
    9  A    between atoms: N_20  and  C_25
   10  A    between atoms: C_25  and  N_28
                            x       y       z     vdW  Elec       q    Type
                         _______ _______ _______ _____ _____    ______ ____

>  <TORSDO>
F 10

$$$$
=
 OpenBabel10222421123D

 34 36  0  0  1  0  0  0  0  0999 V2000
  184.4940  178.2590  143.4860 C   0  0  1  0  0  3  0  0  0  0  0  0
  182.9680  178.1800  141.5870 C   0  0  0  0  0  0  0  0  0  0  0  0
  184.2880  175.8650  137.7790 O   0  0  0  0  0  0  0  0  0  0  0  0
  179.8210  175.5210  139.2800 C   0  0  0  0  0  3  0  0  0  0  0  0
  183.3650  176.3050  138.5120 C   0  0  0  0  0  0  0  0  0  0  0  0
  183.3370  178.7770  142.6880 C   0  0  0  0  0  3  0  0  0  0  0  0
  182.6240  177.5790  140.4850 C   0  0  0  0  0  0  0  0  0  0  0  0
  181.0050  176.1230  139.3240 C   0  0  0  0  0  0  0  0  0  0  0  0
  183.6120  177.5120  139.3620 C   0  0  0  0  0  2  0  0  0  0  0  0
  179.5910  174.4010  138.4310 N   0  0  0  0  0  1  0  0  0  0  0  0
  181.1770  177.3150  140.2170 C   0  0  0  0  0  2  0  0  0  0  0  0
  182.0820  175.6740  138.4900 N   0  0  0  0  0  2  0  0  0  0  0  0
  188.8360  177.1370  141.7780 C   0  0  0  0  0  2  0  0  0  0  0  0
  188.5550  176.0610  142.8520 C   0  0  0  0  0  3  0  0  0  0  0  0
  185.8050  178.4970  142.7950 C   0  0  0  0  0  0  0  0  0  0  0  0
  187.2520  176.4680  143.5800 C   0  0  0  0  0  3  0  0  0  0  0  0
  186.0440  179.2890  141.6680 C   0  0  0  0  0  3  0  0  0  0  0  0
  186.9580  177.7680  142.9520 C   0  0  0  0  0  0  0  0  0  0  0  0
  187.2860  179.0080  141.1980 N   0  0  0  0  0  0  0  0  0  0  0  0
  187.8110  178.1180  142.0200 N   0  0  0  0  0  0  0  0  0  0  0  0
  184.4930  178.8110  144.8860 C   0  0  0  0  0  0  0  0  0  0  0  0
  183.3940  179.2520  145.4060 N   0  0  0  0  0  2  0  0  0  0  0  0
  186.0850  178.0620  146.5070 C   0  0  0  0  0  3  0  0  0  0  0  0
  185.7100  178.9350  145.6280 N   0  0  0  0  0  0  0  0  0  0  0  0
  187.3630  178.2390  147.2560 C   0  0  0  0  0  2  0  0  0  0  0  0
  188.4850  177.4340  146.6190 C   0  0  0  0  0  2  0  0  0  0  0  0
  189.2290  178.2650  145.6830 N   0  0  0  0  0  2  0  0  0  0  0  0
  191.2040  178.8410  143.9810 S   0  0  0  0  0  0  0  0  0  0  0  0
  190.5110  177.9150  145.1540 C   0  0  0  0  0  0  0  0  0  0  0  0
  191.6920  176.5720  147.0150 C   0  0  0  0  0  0  0  0  0  0  0  0
  191.1710  176.7600  145.6920 N   0  0  0  0  0  2  0  0  0  0  0  0
  191.6720  177.4980  147.8680 O   0  0  0  0  0  0  0  0  0  0  0  0
  192.9480  175.3600  148.7460 C   0  0  0  0  0  1  0  0  0  0  0  0
  192.3080  175.2670  147.3750 C   0  0  0  0  0  2  0  0  0  0  0  0
  1  6  1  6  0  0  0
  1 21  1  0  0  0  0
  2  6  2  0  0  0  0
  3  5  2  0  0  0  0
  4  8  2  0  0  0  0
  5  9  1  0  0  0  0
  7  2  2  0  0  0  0
  8 11  1  0  0  0  0
  9  7  1  0  0  0  0
 10  4  1  0  0  0  0
 11  7  1  0  0  0  0
 12  5  1  0  0  0  0
 12  8  1  0  0  0  0
 13 20  1  0  0  0  0
 13 14  1  0  0  0  0
 14 16  2  0  0  0  0
 15 18  2  0  0  0  0
 15  1  1  0  0  0  0
 17 15  1  0  0  0  0
 18 16  1  0  0  0  0
 19 17  2  0  0  0  0
 19 20  1  0  0  0  0
 20 18  1  0  0  0  0
 21 22  2  0  0  0  0
 21 24  1  0  0  0  0
 23 25  1  0  0  0  0
 24 23  2  0  0  0  0
 26 25  1  0  0  0  0
 27 26  1  0  0  0  0
 28 29  2  0  0  0  0
 29 27  1  0  0  0  0
 29 31  1  0  0  0  0
 30 34  1  0  0  0  0
 30 32  2  0  0  0  0
 31 30  1  0  0  0  0
 34 33  1  0  0  0  0
M  END
>  <MODEL>
8

>  <REMARK>
 VINA RESULT:      -7.3      3.076      7.960
  Name = 
  10 active torsions:
  status: ('A' for Active; 'I' for Inactive)
    1  A    between atoms: C_4  and  C_11
    2  A    between atoms: C_4  and  C_18
    3  A    between atoms: C_6  and  C_23
    4  A    between atoms: C_13  and  C_23
    5  A    between atoms: C_13  and  N_27
    6  A    between atoms: C_14  and  C_23
    7  A    between atoms: C_17  and  C_30
    8  A    between atoms: C_18  and  N_28
    9  A    between atoms: N_20  and  C_25
   10  A    between atoms: C_25  and  N_28
                            x       y       z     vdW  Elec       q    Type
                         _______ _______ _______ _____ _____    ______ ____

>  <TORSDO>
F 10

$$$$
=
 OpenBabel10222421123D

 34 36  0  0  1  0  0  0  0  0999 V2000
  190.1950  177.2460  138.8760 C   0  0  1  0  0  3  0  0  0  0  0  0
  191.7790  175.6570  137.9240 C   0  0  0  0  0  0  0  0  0  0  0  0
  194.9210  177.2180  134.8740 O   0  0  0  0  0  0  0  0  0  0  0  0
  196.2120  174.0440  138.1270 C   0  0  0  0  0  3  0  0  0  0  0  0
  194.5830  176.3730  135.7420 C   0  0  0  0  0  0  0  0  0  0  0  0
  190.6330  175.8600  138.5150 C   0  0  0  0  0  3  0  0  0  0  0  0
  192.9190  175.4780  137.3220 C   0  0  0  0  0  0  0  0  0  0  0  0
  195.2560  174.7000  137.4770 C   0  0  0  0  0  0  0  0  0  0  0  0
  193.1300  176.0980  135.9770 C   0  0  0  0  0  2  0  0  0  0  0  0
  197.5900  174.2860  137.8600 N   0  0  0  0  0  1  0  0  0  0  0  0
  193.8240  174.3800  137.7840 C   0  0  0  0  0  2  0  0  0  0  0  0
  195.5890  175.6560  136.4620 N   0  0  0  0  0  2  0  0  0  0  0  0
  186.0950  177.5830  136.4050 C   0  0  0  0  0  2  0  0  0  0  0  0
  186.1120  176.1280  136.9250 C   0  0  0  0  0  3  0  0  0  0  0  0
  189.2370  177.8130  137.8680 C   0  0  0  0  0  0  0  0  0  0  0  0
  187.4970  175.8880  137.5740 C   0  0  0  0  0  3  0  0  0  0  0  0
  189.0360  179.1590  137.5460 C   0  0  0  0  0  3  0  0  0  0  0  0
  188.1810  177.1600  137.2840 C   0  0  0  0  0  0  0  0  0  0  0  0
  187.8980  179.2620  136.8130 N   0  0  0  0  0  0  0  0  0  0  0  0
  187.4400  178.0350  136.6500 N   0  0  0  0  0  0  0  0  0  0  0  0
  189.6360  177.3050  140.2720 C   0  0  0  0  0  0  0  0  0  0  0  0
  188.7260  178.1760  140.5680 N   0  0  0  0  0  2  0  0  0  0  0  0
  190.7870  176.9340  142.3360 C   0  0  0  0  0  3  0  0  0  0  0  0
  190.1550  176.4660  141.3080 N   0  0  0  0  0  0  0  0  0  0  0  0
  191.3110  176.0160  143.3890 C   0  0  0  0  0  2  0  0  0  0  0  0
  191.3440  176.7030  144.7450 C   0  0  0  0  0  2  0  0  0  0  0  0
  190.2450  177.6520  144.8530 N   0  0  0  0  0  2  0  0  0  0  0  0
  189.6110  177.1200  147.3910 S   0  0  0  0  0  0  0  0  0  0  0  0
  189.2290  177.5830  145.8580 C   0  0  0  0  0  0  0  0  0  0  0  0
  187.0770  177.4050  144.4430 C   0  0  0  0  0  0  0  0  0  0  0  0
  187.8910  177.9500  145.4910 N   0  0  0  0  0  2  0  0  0  0  0  0
  187.5220  176.5330  143.6500 O   0  0  0  0  0  0  0  0  0  0  0  0
  185.3420  178.8690  145.3830 C   0  0  0  0  0  1  0  0  0  0  0  0
  185.6910  177.9110  144.2620 C   0  0  0  0  0  2  0  0  0  0  0  0
  1  6  1  6  0  0  0
  1 21  1  0  0  0  0
  2  6  2  0  0  0  0
  3  5  2  0  0  0  0
  5  9  1  0  0  0  0
  5 12  1  0  0  0  0
  7 11  1  0  0  0  0
  7  2  2  0  0  0  0
  8 11  1  0  0  0  0
  8  4  2  0  0  0  0
  9  7  1  0  0  0  0
 10  4  1  0  0  0  0
 12  8  1  0  0  0  0
 13 20  1  0  0  0  0
 13 14  1  0  0  0  0
 14 16  2  0  0  0  0
 15  1  1  0  0  0  0
 17 15  1  0  0  0  0
 18 16  1  0  0  0  0
 18 15  2  0  0  0  0
 19 17  2  0  0  0  0
 20 19  1  0  0  0  0
 20 18  1  0  0  0  0
 21 22  2  0  0  0  0
 21 24  1  0  0  0  0
 23 25  1  0  0  0  0
 24 23  2  0  0  0  0
 25 26  1  0  0  0  0
 26 27  1  0  0  0  0
 27 29  1  0  0  0  0
 29 28  2  0  0  0  0
 30 31  1  0  0  0  0
 31 29  1  0  0  0  0
 32 30  2  0  0  0  0
 34 30  1  0  0  0  0
 34 33  1  0  0  0  0
M  END
>  <MODEL>
9

>  <REMARK>
 VINA RESULT:      -7.3      4.026      9.522
  Name = 
  10 active torsions:
  status: ('A' for Active; 'I' for Inactive)
    1  A    between atoms: C_4  and  C_11
    2  A    between atoms: C_4  and  C_18
    3  A    between atoms: C_6  and  C_23
    4  A    between atoms: C_13  and  C_23
    5  A    between atoms: C_13  and  N_27
    6  A    between atoms: C_14  and  C_23
    7  A    between atoms: C_17  and  C_30
    8  A    between atoms: C_18  and  N_28
    9  A    between atoms: N_20  and  C_25
   10  A    between atoms: C_25  and  N_28
                            x       y       z     vdW  Elec       q    Type
                         _______ _______ _______ _____ _____    ______ ____

>  <TORSDO>
F 10

$$$$
