=
 OpenBabel10222418523D

 33 35  0  0  1  0  0  0  0  0999 V2000
  186.4710  178.2680  146.8010 C   0  0  0  0  0  3  0  0  0  0  0  0
  190.3940  176.4130  144.3520 C   0  0  1  0  0  3  0  0  0  0  0  0
  187.1290  178.2530  143.7810 C   0  0  0  0  0  2  0  0  0  0  0  0
  191.6830  177.3310  146.2410 N   0  0  0  0  0  2  0  0  0  0  0  0
  185.7440  178.1550  144.3760 C   0  0  0  0  0  0  0  0  0  0  0  0
  191.4910  176.1600  145.3940 C   0  0  0  0  0  2  0  0  0  0  0  0
  190.9920  177.1210  147.5150 C   0  0  0  0  0  2  0  0  0  0  0  0
  187.6690  177.7900  146.6310 C   0  0  0  0  0  0  0  0  0  0  0  0
  189.1810  177.2700  144.8150 C   0  0  1  0  0  3  0  0  0  0  0  0
  189.5860  176.5330  147.3440 C   0  0  0  0  0  2  0  0  0  0  0  0
  187.9520  176.9750  143.9440 C   0  0  0  0  0  2  0  0  0  0  0  0
  185.4900  178.2550  145.6950 C   0  0  0  0  0  3  0  0  0  0  0  0
  188.8090  177.2580  146.2930 C   0  0  0  0  0  0  0  0  0  0  0  0
  191.0510  178.3660  143.0370 O   0  0  0  0  0  1  0  0  0  0  0  0
  191.0630  176.9640  143.0860 C   0  0  2  0  0  3  0  0  0  0  0  0
  190.5600  176.3360  141.8560 N   0  0  0  0  0  2  0  0  0  0  0  0
  190.8810  177.1240  140.6690 C   0  0  0  0  0  2  0  0  0  0  0  0
  187.5900  178.4650  139.6120 N   0  0  0  0  0  0  0  0  0  0  0  0
  187.3690  177.8690  138.4080 C   0  0  0  0  0  0  0  0  0  0  0  0
  188.3230  176.9810  137.9040 C   0  0  0  0  0  3  0  0  0  0  0  0
  189.6450  177.3550  139.8740 C   0  0  0  0  0  0  0  0  0  0  0  0
  189.4740  176.7240  138.6450 C   0  0  0  0  0  3  0  0  0  0  0  0
  188.6940  178.2180  140.3220 N   0  0  0  0  0  0  0  0  0  0  0  0
  185.3130  179.0050  138.0880 O   0  0  0  0  0  0  0  0  0  0  0  0
  185.8830  177.5070  136.4100 N   0  0  0  0  0  1  0  0  0  0  0  0
  186.1420  178.1630  137.6480 C   0  0  0  0  0  0  0  0  0  0  0  0
  184.5580  178.1690  143.4540 C   0  0  1  0  0  3  0  0  0  0  0  0
  183.5080  179.1220  143.9360 C   0  0  0  0  0  0  0  0  0  0  0  0
  183.7310  180.3620  143.9740 O   0  0  0  0  0  0  0  0  0  0  0  0
  182.2900  178.6280  144.3800 O   0  0  0  0  0  1  0  0  0  0  0  0
  184.9480  178.4680  142.0090 C   0  0  0  0  0  2  0  0  0  0  0  0
  182.9230  178.0430  140.3930 N   0  0  0  0  0  0  0  0  0  0  0  0
  183.8150  178.2290  141.1070 C   0  0  0  0  0  0  0  0  0  0  0  0
  2 15  1  6  0  0  0
  2  9  1  0  0  0  0
  2  6  1  0  0  0  0
  3 11  1  0  0  0  0
  3  5  1  0  0  0  0
  4  7  1  0  0  0  0
  5 12  2  0  0  0  0
  6  4  1  0  0  0  0
  8  1  2  0  0  0  0
  9 11  1  6  0  0  0
  9 13  1  0  0  0  0
 10  7  1  0  0  0  0
 12  1  1  0  0  0  0
 13  8  2  0  0  0  0
 13 10  1  0  0  0  0
 15 14  1  6  0  0  0
 16 15  1  0  0  0  0
 17 16  1  0  0  0  0
 18 23  1  0  0  0  0
 19 18  2  0  0  0  0
 20 19  1  0  0  0  0
 20 22  2  0  0  0  0
 21 23  2  0  0  0  0
 21 17  1  0  0  0  0
 22 21  1  0  0  0  0
 25 26  1  0  0  0  0
 26 24  2  0  0  0  0
 26 19  1  0  0  0  0
 27 31  1  6  0  0  0
 27 28  1  0  0  0  0
 27  5  1  0  0  0  0
 28 29  2  0  0  0  0
 28 30  1  0  0  0  0
 32 33  3  0  0  0  0
 33 31  1  0  0  0  0
M  END
>  <MODEL>
1

>  <REMARK>
 VINA RESULT:      -9.0      0.000      0.000
  Name = 
  9 active torsions:
  status: ('A' for Active; 'I' for Inactive)
    1  A    between atoms: C_3  and  C_18
    2  A    between atoms: C_5  and  C_6
    3  A    between atoms: C_5  and  C_13
    4  A    between atoms: C_5  and  C_15
    5  A    between atoms: C_11  and  C_25
    6  A    between atoms: C_13  and  C_20
    7  A    between atoms: C_14  and  N_16
    8  A    between atoms: C_14  and  C_28
    9  A    between atoms: N_16  and  C_18
                            x       y       z     vdW  Elec       q    Type
                         _______ _______ _______ _____ _____    ______ ____

>  <TORSDO>
F 9

$$$$
=
 OpenBabel10222418523D

 33 35  0  0  1  0  0  0  0  0999 V2000
  186.5020  178.3320  146.7150 C   0  0  0  0  0  3  0  0  0  0  0  0
  190.3460  176.3610  144.2300 C   0  0  1  0  0  3  0  0  0  0  0  0
  187.0960  178.2360  143.6830 C   0  0  0  0  0  2  0  0  0  0  0  0
  191.6870  177.3040  146.0690 N   0  0  0  0  0  2  0  0  0  0  0  0
  185.7230  178.1730  144.3090 C   0  0  0  0  0  0  0  0  0  0  0  0
  191.4610  176.1160  145.2550 C   0  0  0  0  0  2  0  0  0  0  0  0
  191.0200  177.1340  147.3620 C   0  0  0  0  0  2  0  0  0  0  0  0
  187.6890  177.8320  146.5310 C   0  0  0  0  0  0  0  0  0  0  0  0
  189.1550  177.2470  144.6970 C   0  0  1  0  0  3  0  0  0  0  0  0
  189.6020  176.5630  147.2340 C   0  0  0  0  0  2  0  0  0  0  0  0
  187.9040  176.9510  143.8590 C   0  0  0  0  0  2  0  0  0  0  0  0
  185.4990  178.3080  145.6300 C   0  0  0  0  0  3  0  0  0  0  0  0
  188.8140  177.2750  146.1820 C   0  0  0  0  0  0  0  0  0  0  0  0
  191.0150  178.2730  142.8620 O   0  0  0  0  0  1  0  0  0  0  0  0
  190.9960  176.8720  142.9370 C   0  0  2  0  0  3  0  0  0  0  0  0
  190.4490  176.2330  141.7330 N   0  0  0  0  0  2  0  0  0  0  0  0
  190.2380  177.1930  140.6520 C   0  0  0  0  0  2  0  0  0  0  0  0
  193.3750  176.8980  138.6990 N   0  0  0  0  0  0  0  0  0  0  0  0
  192.9760  176.3280  137.5290 C   0  0  0  0  0  0  0  0  0  0  0  0
  191.6240  176.0230  137.3480 C   0  0  0  0  0  3  0  0  0  0  0  0
  191.1800  176.9050  139.5370 C   0  0  0  0  0  0  0  0  0  0  0  0
  190.7180  176.3140  138.3650 C   0  0  0  0  0  3  0  0  0  0  0  0
  192.5050  177.1760  139.6730 N   0  0  0  0  0  0  0  0  0  0  0  0
  194.0420  174.8680  135.9950 O   0  0  0  0  0  0  0  0  0  0  0  0
  194.8230  177.0530  135.9820 N   0  0  0  0  0  1  0  0  0  0  0  0
  193.9600  176.0320  136.4740 C   0  0  0  0  0  0  0  0  0  0  0  0
  184.5180  178.1840  143.4110 C   0  0  1  0  0  3  0  0  0  0  0  0
  183.4700  179.1230  143.9220 C   0  0  0  0  0  0  0  0  0  0  0  0
  183.6900  180.3630  143.9830 O   0  0  0  0  0  0  0  0  0  0  0  0
  182.2580  178.6160  144.3670 O   0  0  0  0  0  1  0  0  0  0  0  0
  184.8750  178.4970  141.9610 C   0  0  0  0  0  2  0  0  0  0  0  0
  182.7690  178.2610  140.4120 N   0  0  0  0  0  0  0  0  0  0  0  0
  183.6970  178.3650  141.0960 C   0  0  0  0  0  0  0  0  0  0  0  0
  2 15  1  6  0  0  0
  2  9  1  0  0  0  0
  2  6  1  0  0  0  0
  3 11  1  0  0  0  0
  3  5  1  0  0  0  0
  4  7  1  0  0  0  0
  5 12  2  0  0  0  0
  6  4  1  0  0  0  0
  8  1  2  0  0  0  0
  9 11  1  6  0  0  0
  9 13  1  0  0  0  0
 10  7  1  0  0  0  0
 12  1  1  0  0  0  0
 13  8  2  0  0  0  0
 13 10  1  0  0  0  0
 15 14  1  6  0  0  0
 16 15  1  0  0  0  0
 17 16  1  0  0  0  0
 18 23  1  0  0  0  0
 19 18  2  0  0  0  0
 20 19  1  0  0  0  0
 20 22  2  0  0  0  0
 21 23  2  0  0  0  0
 21 17  1  0  0  0  0
 22 21  1  0  0  0  0
 24 26  2  0  0  0  0
 25 26  1  0  0  0  0
 26 19  1  0  0  0  0
 27 31  1  6  0  0  0
 27 28  1  0  0  0  0
 27  5  1  0  0  0  0
 28 29  2  0  0  0  0
 28 30  1  0  0  0  0
 32 33  3  0  0  0  0
 33 31  1  0  0  0  0
M  END
>  <MODEL>
2

>  <REMARK>
 VINA RESULT:      -8.6      2.470      3.256
  Name = 
  9 active torsions:
  status: ('A' for Active; 'I' for Inactive)
    1  A    between atoms: C_3  and  C_18
    2  A    between atoms: C_5  and  C_6
    3  A    between atoms: C_5  and  C_13
    4  A    between atoms: C_5  and  C_15
    5  A    between atoms: C_11  and  C_25
    6  A    between atoms: C_13  and  C_20
    7  A    between atoms: C_14  and  N_16
    8  A    between atoms: C_14  and  C_28
    9  A    between atoms: N_16  and  C_18
                            x       y       z     vdW  Elec       q    Type
                         _______ _______ _______ _____ _____    ______ ____

>  <TORSDO>
F 9

$$$$
=
 OpenBabel10222418523D

 33 35  0  0  1  0  0  0  0  0999 V2000
  184.5310  178.8710  145.9420 C   0  0  0  0  0  3  0  0  0  0  0  0
  189.0930  176.9250  145.4650 C   0  0  1  0  0  3  0  0  0  0  0  0
  186.3210  178.5380  143.4440 C   0  0  0  0  0  2  0  0  0  0  0  0
  189.5410  178.1110  147.5780 N   0  0  0  0  0  2  0  0  0  0  0  0
  184.8130  178.4480  143.4590 C   0  0  0  0  0  0  0  0  0  0  0  0
  189.6920  176.8430  146.8750 C   0  0  0  0  0  2  0  0  0  0  0  0
  188.4050  178.0190  148.4970 C   0  0  0  0  0  2  0  0  0  0  0  0
  185.6980  178.4310  146.3120 C   0  0  0  0  0  0  0  0  0  0  0  0
  187.7990  177.7740  145.3090 C   0  0  1  0  0  3  0  0  0  0  0  0
  187.1760  177.3520  147.8650 C   0  0  0  0  0  2  0  0  0  0  0  0
  187.0090  177.3260  144.0720 C   0  0  0  0  0  2  0  0  0  0  0  0
  184.0630  178.6870  144.5510 C   0  0  0  0  0  3  0  0  0  0  0  0
  186.8760  177.9150  146.5140 C   0  0  0  0  0  0  0  0  0  0  0  0
  190.1860  178.7330  144.2350 O   0  0  0  0  0  1  0  0  0  0  0  0
  190.2070  177.3560  144.5020 C   0  0  2  0  0  3  0  0  0  0  0  0
  190.2620  176.5300  143.2880 N   0  0  0  0  0  2  0  0  0  0  0  0
  190.9970  177.1890  142.2110 C   0  0  0  0  0  2  0  0  0  0  0  0
  189.5960  176.7230  138.8110 N   0  0  0  0  0  0  0  0  0  0  0  0
  188.4810  177.5060  138.8090 C   0  0  0  0  0  0  0  0  0  0  0  0
  188.1600  178.2320  139.9600 C   0  0  0  0  0  3  0  0  0  0  0  0
  190.1170  177.3310  141.0200 C   0  0  0  0  0  0  0  0  0  0  0  0
  188.9860  178.1400  141.0770 C   0  0  0  0  0  3  0  0  0  0  0  0
  190.3870  176.6360  139.8830 N   0  0  0  0  0  0  0  0  0  0  0  0
  187.2120  176.5210  137.0660 O   0  0  0  0  0  0  0  0  0  0  0  0
  187.2580  178.8410  137.0630 N   0  0  0  0  0  1  0  0  0  0  0  0
  187.6270  177.5790  137.6120 C   0  0  0  0  0  0  0  0  0  0  0  0
  184.0850  178.3020  142.1530 C   0  0  1  0  0  3  0  0  0  0  0  0
  182.6520  178.7220  142.2830 C   0  0  0  0  0  0  0  0  0  0  0  0
  181.7410  178.1030  141.6710 O   0  0  0  0  0  0  0  0  0  0  0  0
  182.3330  179.8260  143.0590 O   0  0  0  0  0  1  0  0  0  0  0  0
  184.7740  179.0490  141.0150 C   0  0  0  0  0  2  0  0  0  0  0  0
  184.1800  177.9620  138.7010 N   0  0  0  0  0  0  0  0  0  0  0  0
  184.4430  178.4420  139.7210 C   0  0  0  0  0  0  0  0  0  0  0  0
  1  8  2  0  0  0  0
  2 15  1  6  0  0  0
  2  6  1  0  0  0  0
  3  5  1  0  0  0  0
  3 11  1  0  0  0  0
  4  7  1  0  0  0  0
  5 12  2  0  0  0  0
  6  4  1  0  0  0  0
  8 13  2  0  0  0  0
  9 11  1  6  0  0  0
  9  2  1  0  0  0  0
  9 13  1  0  0  0  0
 10  7  1  0  0  0  0
 12  1  1  0  0  0  0
 13 10  1  0  0  0  0
 15 14  1  6  0  0  0
 16 15  1  0  0  0  0
 17 16  1  0  0  0  0
 18 23  1  0  0  0  0
 19 18  2  0  0  0  0
 19 20  1  0  0  0  0
 20 22  2  0  0  0  0
 21 22  1  0  0  0  0
 21 17  1  0  0  0  0
 23 21  2  0  0  0  0
 24 26  2  0  0  0  0
 25 26  1  0  0  0  0
 26 19  1  0  0  0  0
 27 31  1  6  0  0  0
 27 28  1  0  0  0  0
 27  5  1  0  0  0  0
 28 30  1  0  0  0  0
 29 28  2  0  0  0  0
 32 33  3  0  0  0  0
 33 31  1  0  0  0  0
M  END
>  <MODEL>
3

>  <REMARK>
 VINA RESULT:      -8.3      1.579      2.083
  Name = 
  9 active torsions:
  status: ('A' for Active; 'I' for Inactive)
    1  A    between atoms: C_3  and  C_18
    2  A    between atoms: C_5  and  C_6
    3  A    between atoms: C_5  and  C_13
    4  A    between atoms: C_5  and  C_15
    5  A    between atoms: C_11  and  C_25
    6  A    between atoms: C_13  and  C_20
    7  A    between atoms: C_14  and  N_16
    8  A    between atoms: C_14  and  C_28
    9  A    between atoms: N_16  and  C_18
                            x       y       z     vdW  Elec       q    Type
                         _______ _______ _______ _____ _____    ______ ____

>  <TORSDO>
F 9

$$$$
=
 OpenBabel10222418523D

 33 35  0  0  1  0  0  0  0  0999 V2000
  186.5480  178.2320  146.7830 C   0  0  0  0  0  3  0  0  0  0  0  0
  190.3730  176.3490  144.2030 C   0  0  1  0  0  3  0  0  0  0  0  0
  187.1040  178.2130  143.7430 C   0  0  0  0  0  2  0  0  0  0  0  0
  191.7310  177.2570  146.0480 N   0  0  0  0  0  2  0  0  0  0  0  0
  185.7390  178.1260  144.3840 C   0  0  0  0  0  0  0  0  0  0  0  0
  191.5020  176.0880  145.2080 C   0  0  0  0  0  2  0  0  0  0  0  0
  191.0820  177.0520  147.3440 C   0  0  0  0  0  2  0  0  0  0  0  0
  187.7360  177.7460  146.5720 C   0  0  0  0  0  0  0  0  0  0  0  0
  189.1820  177.2150  144.7060 C   0  0  1  0  0  3  0  0  0  0  0  0
  189.6660  176.4740  147.2200 C   0  0  0  0  0  2  0  0  0  0  0  0
  187.9230  176.9300  143.8780 C   0  0  0  0  0  2  0  0  0  0  0  0
  185.5310  178.2270  145.7100 C   0  0  0  0  0  3  0  0  0  0  0  0
  188.8590  177.2050  146.1960 C   0  0  0  0  0  0  0  0  0  0  0  0
  191.0250  178.2980  142.8800 O   0  0  0  0  0  1  0  0  0  0  0  0
  191.0030  176.8950  142.9150 C   0  0  2  0  0  3  0  0  0  0  0  0
  190.4330  176.2940  141.7020 N   0  0  0  0  0  2  0  0  0  0  0  0
  189.9620  177.3050  140.7580 C   0  0  0  0  0  2  0  0  0  0  0  0
  191.0280  175.2010  137.8990 N   0  0  0  0  0  0  0  0  0  0  0  0
  190.6150  175.9030  136.8080 C   0  0  0  0  0  0  0  0  0  0  0  0
  189.9630  177.1250  136.9940 C   0  0  0  0  0  3  0  0  0  0  0  0
  190.2040  176.8400  139.3670 C   0  0  0  0  0  0  0  0  0  0  0  0
  189.7530  177.5960  138.2870 C   0  0  0  0  0  3  0  0  0  0  0  0
  190.8270  175.6540  139.1390 N   0  0  0  0  0  0  0  0  0  0  0  0
  191.8630  175.7470  134.7980 O   0  0  0  0  0  0  0  0  0  0  0  0
  189.9440  174.4440  134.8720 N   0  0  0  0  0  1  0  0  0  0  0  0
  190.8500  175.3760  135.4530 C   0  0  0  0  0  0  0  0  0  0  0  0
  184.5230  178.1490  143.5010 C   0  0  1  0  0  3  0  0  0  0  0  0
  183.4730  179.0650  144.0510 C   0  0  0  0  0  0  0  0  0  0  0  0
  182.3950  178.6050  144.5160 O   0  0  0  0  0  1  0  0  0  0  0  0
  183.6770  180.4360  144.0150 O   0  0  0  0  0  0  0  0  0  0  0  0
  184.8590  178.5040  142.0560 C   0  0  0  0  0  2  0  0  0  0  0  0
  182.9080  177.7950  140.4490 N   0  0  0  0  0  0  0  0  0  0  0  0
  183.7690  178.1070  141.1580 C   0  0  0  0  0  0  0  0  0  0  0  0
  2 15  1  6  0  0  0
  2  9  1  0  0  0  0
  2  6  1  0  0  0  0
  3 11  1  0  0  0  0
  3  5  1  0  0  0  0
  4  7  1  0  0  0  0
  5 12  2  0  0  0  0
  6  4  1  0  0  0  0
  8  1  2  0  0  0  0
  9 11  1  6  0  0  0
  9 13  1  0  0  0  0
 10  7  1  0  0  0  0
 12  1  1  0  0  0  0
 13  8  2  0  0  0  0
 13 10  1  0  0  0  0
 15 14  1  6  0  0  0
 16 15  1  0  0  0  0
 17 16  1  0  0  0  0
 18 23  1  0  0  0  0
 19 20  1  0  0  0  0
 19 18  2  0  0  0  0
 20 22  2  0  0  0  0
 21 17  1  0  0  0  0
 22 21  1  0  0  0  0
 23 21  2  0  0  0  0
 24 26  2  0  0  0  0
 25 26  1  0  0  0  0
 26 19  1  0  0  0  0
 27 31  1  6  0  0  0
 27 28  1  0  0  0  0
 27  5  1  0  0  0  0
 28 29  1  0  0  0  0
 30 28  2  0  0  0  0
 32 33  3  0  0  0  0
 33 31  1  0  0  0  0
M  END
>  <MODEL>
4

>  <REMARK>
 VINA RESULT:      -8.2      2.083      2.458
  Name = 
  9 active torsions:
  status: ('A' for Active; 'I' for Inactive)
    1  A    between atoms: C_3  and  C_18
    2  A    between atoms: C_5  and  C_6
    3  A    between atoms: C_5  and  C_13
    4  A    between atoms: C_5  and  C_15
    5  A    between atoms: C_11  and  C_25
    6  A    between atoms: C_13  and  C_20
    7  A    between atoms: C_14  and  N_16
    8  A    between atoms: C_14  and  C_28
    9  A    between atoms: N_16  and  C_18
                            x       y       z     vdW  Elec       q    Type
                         _______ _______ _______ _____ _____    ______ ____

>  <TORSDO>
F 9

$$$$
=
 OpenBabel10222418523D

 33 35  0  0  1  0  0  0  0  0999 V2000
  184.0380  179.1010  144.6450 C   0  0  0  0  0  3  0  0  0  0  0  0
  188.5590  177.0350  144.2940 C   0  0  1  0  0  3  0  0  0  0  0  0
  185.8920  178.7310  142.2010 C   0  0  0  0  0  2  0  0  0  0  0  0
  188.9750  178.1990  146.4260 N   0  0  0  0  0  2  0  0  0  0  0  0
  184.3830  178.6810  142.1700 C   0  0  0  0  0  0  0  0  0  0  0  0
  189.1130  176.9300  145.7210 C   0  0  0  0  0  2  0  0  0  0  0  0
  187.8100  178.1330  147.3100 C   0  0  0  0  0  2  0  0  0  0  0  0
  185.1810  178.6280  145.0480 C   0  0  0  0  0  0  0  0  0  0  0  0
  187.2930  177.9190  144.1040 C   0  0  1  0  0  3  0  0  0  0  0  0
  186.5830  177.5020  146.6390 C   0  0  0  0  0  2  0  0  0  0  0  0
  186.5290  177.4980  142.8420 C   0  0  0  0  0  2  0  0  0  0  0  0
  183.6070  178.9360  143.2410 C   0  0  0  0  0  3  0  0  0  0  0  0
  186.3390  178.0800  145.2820 C   0  0  0  0  0  0  0  0  0  0  0  0
  189.6120  178.7700  142.9320 O   0  0  0  0  0  1  0  0  0  0  0  0
  189.7120  177.4400  143.3670 C   0  0  2  0  0  3  0  0  0  0  0  0
  189.9250  176.4850  142.2710 N   0  0  0  0  0  2  0  0  0  0  0  0
  189.6330  177.0750  140.9670 C   0  0  0  0  0  2  0  0  0  0  0  0
  191.5240  175.7460  138.0690 N   0  0  0  0  0  0  0  0  0  0  0  0
  192.7680  176.2790  138.2210 C   0  0  0  0  0  0  0  0  0  0  0  0
  193.0220  177.1070  139.3180 C   0  0  0  0  0  3  0  0  0  0  0  0
  190.7500  176.7880  140.0280 C   0  0  0  0  0  0  0  0  0  0  0  0
  192.0010  177.3650  140.2280 C   0  0  0  0  0  3  0  0  0  0  0  0
  190.5460  175.9940  138.9430 N   0  0  0  0  0  0  0  0  0  0  0  0
  194.3050  176.9160  136.5330 O   0  0  0  0  0  0  0  0  0  0  0  0
  194.3210  174.6610  137.0810 N   0  0  0  0  0  1  0  0  0  0  0  0
  193.8260  175.9880  137.2400 C   0  0  0  0  0  0  0  0  0  0  0  0
  183.6900  178.5610  140.8420 C   0  0  1  0  0  3  0  0  0  0  0  0
  184.5940  178.9750  139.7210 C   0  0  0  0  0  0  0  0  0  0  0  0
  185.4200  178.1630  139.2260 O   0  0  0  0  0  0  0  0  0  0  0  0
  184.5420  180.2790  139.2500 O   0  0  0  0  0  1  0  0  0  0  0  0
  183.1250  177.1640  140.6040 C   0  0  0  0  0  2  0  0  0  0  0  0
  181.3180  177.2070  138.7010 N   0  0  0  0  0  0  0  0  0  0  0  0
  182.1140  177.1870  139.5410 C   0  0  0  0  0  0  0  0  0  0  0  0
  1  8  2  0  0  0  0
  2 15  1  6  0  0  0
  2  6  1  0  0  0  0
  3 11  1  0  0  0  0
  4  7  1  0  0  0  0
  5  3  1  0  0  0  0
  5 12  2  0  0  0  0
  6  4  1  0  0  0  0
  8 13  2  0  0  0  0
  9 11  1  6  0  0  0
  9  2  1  0  0  0  0
  9 13  1  0  0  0  0
 10  7  1  0  0  0  0
 12  1  1  0  0  0  0
 13 10  1  0  0  0  0
 15 14  1  6  0  0  0
 16 15  1  0  0  0  0
 17 16  1  0  0  0  0
 18 19  2  0  0  0  0
 18 23  1  0  0  0  0
 19 20  1  0  0  0  0
 20 22  2  0  0  0  0
 21 22  1  0  0  0  0
 21 17  1  0  0  0  0
 23 21  2  0  0  0  0
 24 26  2  0  0  0  0
 25 26  1  0  0  0  0
 26 19  1  0  0  0  0
 27 31  1  6  0  0  0
 27  5  1  0  0  0  0
 28 27  1  0  0  0  0
 29 28  2  0  0  0  0
 30 28  1  0  0  0  0
 32 33  3  0  0  0  0
 33 31  1  0  0  0  0
M  END
>  <MODEL>
5

>  <REMARK>
 VINA RESULT:      -7.9      2.495      4.077
  Name = 
  9 active torsions:
  status: ('A' for Active; 'I' for Inactive)
    1  A    between atoms: C_3  and  C_18
    2  A    between atoms: C_5  and  C_6
    3  A    between atoms: C_5  and  C_13
    4  A    between atoms: C_5  and  C_15
    5  A    between atoms: C_11  and  C_25
    6  A    between atoms: C_13  and  C_20
    7  A    between atoms: C_14  and  N_16
    8  A    between atoms: C_14  and  C_28
    9  A    between atoms: N_16  and  C_18
                            x       y       z     vdW  Elec       q    Type
                         _______ _______ _______ _____ _____    ______ ____

>  <TORSDO>
F 9

$$$$
=
 OpenBabel10222418523D

 33 35  0  0  1  0  0  0  0  0999 V2000
  184.6900  178.6950  138.9760 C   0  0  0  0  0  3  0  0  0  0  0  0
  183.4260  178.3040  143.7800 C   0  0  1  0  0  3  0  0  0  0  0  0
  186.4400  178.7470  141.5230 C   0  0  0  0  0  2  0  0  0  0  0  0
  181.5380  179.7500  143.1360 N   0  0  0  0  0  2  0  0  0  0  0  0
  186.8530  178.1730  140.1880 C   0  0  0  0  0  0  0  0  0  0  0  0
  181.9130  178.5440  143.8640 C   0  0  0  0  0  2  0  0  0  0  0  0
  180.9940  179.3730  141.8290 C   0  0  0  0  0  2  0  0  0  0  0  0
  183.9160  178.6930  140.0210 C   0  0  0  0  0  0  0  0  0  0  0  0
  184.1140  178.6700  142.4330 C   0  0  1  0  0  3  0  0  0  0  0  0
  181.8220  178.2910  141.1250 C   0  0  0  0  0  2  0  0  0  0  0  0
  185.4210  177.8840  142.2670 C   0  0  0  0  0  2  0  0  0  0  0  0
  186.0960  178.2490  139.0770 C   0  0  0  0  0  3  0  0  0  0  0  0
  183.2830  178.6070  141.1560 C   0  0  0  0  0  0  0  0  0  0  0  0
  184.7900  180.1460  144.6300 O   0  0  0  0  0  1  0  0  0  0  0  0
  184.0810  178.9880  144.9870 C   0  0  2  0  0  3  0  0  0  0  0  0
  184.8640  178.0600  145.8130 N   0  0  0  0  0  2  0  0  0  0  0  0
  185.7140  178.7630  146.7720 C   0  0  0  0  0  2  0  0  0  0  0  0
  189.0970  177.5760  147.7120 N   0  0  0  0  0  0  0  0  0  0  0  0
  189.6780  177.2740  146.5170 C   0  0  0  0  0  0  0  0  0  0  0  0
  188.9500  177.4650  145.3400 C   0  0  0  0  0  3  0  0  0  0  0  0
  187.1100  178.2630  146.6620 C   0  0  0  0  0  0  0  0  0  0  0  0
  187.6510  177.9630  145.4150 C   0  0  0  0  0  3  0  0  0  0  0  0
  187.8520  178.0530  147.7820 N   0  0  0  0  0  0  0  0  0  0  0  0
  191.5550  176.3860  145.3740 O   0  0  0  0  0  0  0  0  0  0  0  0
  191.8270  176.6450  147.6640 N   0  0  0  0  0  1  0  0  0  0  0  0
  191.0520  176.7470  146.4720 C   0  0  0  0  0  0  0  0  0  0  0  0
  188.2640  177.6860  140.0160 C   0  0  1  0  0  3  0  0  0  0  0  0
  188.8400  178.1450  138.7110 C   0  0  0  0  0  0  0  0  0  0  0  0
  189.0040  179.3720  138.4760 O   0  0  0  0  0  1  0  0  0  0  0  0
  189.1610  177.2080  137.7410 O   0  0  0  0  0  0  0  0  0  0  0  0
  189.1640  178.0830  141.1830 C   0  0  0  0  0  2  0  0  0  0  0  0
  190.4670  175.9980  142.1010 N   0  0  0  0  0  0  0  0  0  0  0  0
  189.8910  176.9170  141.6970 C   0  0  0  0  0  0  0  0  0  0  0  0
  1 12  1  0  0  0  0
  1  8  2  0  0  0  0
  2  6  1  0  0  0  0
  2 15  1  1  0  0  0
  3 11  1  0  0  0  0
  4  6  1  0  0  0  0
  5  3  1  0  0  0  0
  7  4  1  0  0  0  0
  8 13  2  0  0  0  0
  9 11  1  6  0  0  0
  9  2  1  0  0  0  0
 10 13  1  0  0  0  0
 10  7  1  0  0  0  0
 12  5  2  0  0  0  0
 13  9  1  0  0  0  0
 15 14  1  6  0  0  0
 15 16  1  0  0  0  0
 16 17  1  0  0  0  0
 18 23  1  0  0  0  0
 19 18  2  0  0  0  0
 20 22  2  0  0  0  0
 20 19  1  0  0  0  0
 21 17  1  0  0  0  0
 21 23  2  0  0  0  0
 22 21  1  0  0  0  0
 24 26  2  0  0  0  0
 26 19  1  0  0  0  0
 26 25  1  0  0  0  0
 27  5  1  0  0  0  0
 27 31  1  1  0  0  0
 28 27  1  0  0  0  0
 29 28  1  0  0  0  0
 30 28  2  0  0  0  0
 31 33  1  0  0  0  0
 33 32  3  0  0  0  0
M  END
>  <MODEL>
6

>  <REMARK>
 VINA RESULT:      -7.9      2.321      7.980
  Name = 
  9 active torsions:
  status: ('A' for Active; 'I' for Inactive)
    1  A    between atoms: C_3  and  C_18
    2  A    between atoms: C_5  and  C_6
    3  A    between atoms: C_5  and  C_13
    4  A    between atoms: C_5  and  C_15
    5  A    between atoms: C_11  and  C_25
    6  A    between atoms: C_13  and  C_20
    7  A    between atoms: C_14  and  N_16
    8  A    between atoms: C_14  and  C_28
    9  A    between atoms: N_16  and  C_18
                            x       y       z     vdW  Elec       q    Type
                         _______ _______ _______ _____ _____    ______ ____

>  <TORSDO>
F 9

$$$$
=
 OpenBabel10222418523D

 33 35  0  0  1  0  0  0  0  0999 V2000
  191.6620  176.3610  142.7020 C   0  0  0  0  0  3  0  0  0  0  0  0
  188.3270  178.1240  145.9580 C   0  0  1  0  0  3  0  0  0  0  0  0
  188.6970  177.1440  142.3140 C   0  0  0  0  0  2  0  0  0  0  0  0
  189.3350  176.4780  147.4900 N   0  0  0  0  0  2  0  0  0  0  0  0
  189.7880  177.3080  141.2830 C   0  0  0  0  0  0  0  0  0  0  0  0
  188.8910  177.8610  147.3600 C   0  0  0  0  0  2  0  0  0  0  0  0
  190.7910  176.4250  147.3390 C   0  0  0  0  0  2  0  0  0  0  0  0
  191.1440  176.6470  143.8600 C   0  0  0  0  0  0  0  0  0  0  0  0
  189.0350  177.3990  144.7770 C   0  0  1  0  0  3  0  0  0  0  0  0
  191.3030  177.2780  146.1710 C   0  0  0  0  0  2  0  0  0  0  0  0
  188.7900  178.1500  143.4620 C   0  0  0  0  0  2  0  0  0  0  0  0
  191.0500  176.8720  141.4570 C   0  0  0  0  0  3  0  0  0  0  0  0
  190.5100  177.0440  144.9260 C   0  0  0  0  0  0  0  0  0  0  0  0
  186.4460  176.7380  145.2400 O   0  0  0  0  0  1  0  0  0  0  0  0
  186.8160  177.8590  145.9990 C   0  0  2  0  0  3  0  0  0  0  0  0
  186.0200  179.0550  145.6940 N   0  0  0  0  0  2  0  0  0  0  0  0
  184.6510  178.7180  145.3090 C   0  0  0  0  0  2  0  0  0  0  0  0
  185.4600  179.3070  141.7400 N   0  0  0  0  0  0  0  0  0  0  0  0
  184.2980  179.0140  141.0920 C   0  0  0  0  0  0  0  0  0  0  0  0
  183.1870  178.6100  141.8380 C   0  0  0  0  0  3  0  0  0  0  0  0
  184.5030  178.8390  143.8340 C   0  0  0  0  0  0  0  0  0  0  0  0
  183.2930  178.5200  143.2230 C   0  0  0  0  0  3  0  0  0  0  0  0
  185.5590  179.2200  143.0690 N   0  0  0  0  0  0  0  0  0  0  0  0
  184.4530  180.2180  139.0560 O   0  0  0  0  0  0  0  0  0  0  0  0
  183.8860  177.9780  138.8360 N   0  0  0  0  0  1  0  0  0  0  0  0
  184.2200  179.1170  139.6250 C   0  0  0  0  0  0  0  0  0  0  0  0
  189.4150  177.7760  139.9040 C   0  0  1  0  0  3  0  0  0  0  0  0
  190.0300  176.9050  138.8520 C   0  0  0  0  0  0  0  0  0  0  0  0
  189.8980  175.6530  138.8930 O   0  0  0  0  0  1  0  0  0  0  0  0
  190.7830  177.4850  137.8420 O   0  0  0  0  0  0  0  0  0  0  0  0
  187.9050  177.8830  139.7140 C   0  0  0  0  0  2  0  0  0  0  0  0
  187.3280  178.6390  137.2670 N   0  0  0  0  0  0  0  0  0  0  0  0
  187.5830  178.3050  138.3460 C   0  0  0  0  0  0  0  0  0  0  0  0
  1  8  2  0  0  0  0
  2 15  1  1  0  0  0
  2  6  1  0  0  0  0
  3 11  1  0  0  0  0
  5 12  2  0  0  0  0
  5  3  1  0  0  0  0
  6  4  1  0  0  0  0
  7  4  1  0  0  0  0
  8 13  2  0  0  0  0
  9 11  1  6  0  0  0
  9 13  1  0  0  0  0
  9  2  1  0  0  0  0
 10  7  1  0  0  0  0
 12  1  1  0  0  0  0
 13 10  1  0  0  0  0
 15 14  1  6  0  0  0
 16 15  1  0  0  0  0
 17 16  1  0  0  0  0
 18 23  1  0  0  0  0
 19 18  2  0  0  0  0
 19 20  1  0  0  0  0
 20 22  2  0  0  0  0
 21 17  1  0  0  0  0
 22 21  1  0  0  0  0
 23 21  2  0  0  0  0
 24 26  2  0  0  0  0
 25 26  1  0  0  0  0
 26 19  1  0  0  0  0
 27 31  1  1  0  0  0
 27  5  1  0  0  0  0
 28 29  1  0  0  0  0
 28 27  1  0  0  0  0
 30 28  2  0  0  0  0
 32 33  3  0  0  0  0
 33 31  1  0  0  0  0
M  END
>  <MODEL>
7

>  <REMARK>
 VINA RESULT:      -7.9      2.341      5.376
  Name = 
  9 active torsions:
  status: ('A' for Active; 'I' for Inactive)
    1  A    between atoms: C_3  and  C_18
    2  A    between atoms: C_5  and  C_6
    3  A    between atoms: C_5  and  C_13
    4  A    between atoms: C_5  and  C_15
    5  A    between atoms: C_11  and  C_25
    6  A    between atoms: C_13  and  C_20
    7  A    between atoms: C_14  and  N_16
    8  A    between atoms: C_14  and  C_28
    9  A    between atoms: N_16  and  C_18
                            x       y       z     vdW  Elec       q    Type
                         _______ _______ _______ _____ _____    ______ ____

>  <TORSDO>
F 9

$$$$
=
 OpenBabel10222418523D

 33 35  0  0  1  0  0  0  0  0999 V2000
  186.6000  177.4230  145.7380 C   0  0  0  0  0  3  0  0  0  0  0  0
  186.0130  178.9260  141.0230 C   0  0  1  0  0  3  0  0  0  0  0  0
  188.4130  177.0320  143.2650 C   0  0  0  0  0  2  0  0  0  0  0  0
  183.6650  178.2660  141.3750 N   0  0  0  0  0  2  0  0  0  0  0  0
  188.8950  177.2110  144.6850 C   0  0  0  0  0  0  0  0  0  0  0  0
  184.5380  179.3140  140.8600 C   0  0  0  0  0  2  0  0  0  0  0  0
  183.1950  178.6460  142.7100 C   0  0  0  0  0  2  0  0  0  0  0  0
  185.9830  177.8710  144.6850 C   0  0  0  0  0  0  0  0  0  0  0  0
  186.3850  178.1400  142.3140 C   0  0  1  0  0  3  0  0  0  0  0  0
  184.3100  179.2090  143.6000 C   0  0  0  0  0  2  0  0  0  0  0  0
  187.8740  178.3180  142.6390 C   0  0  0  0  0  2  0  0  0  0  0  0
  188.0720  177.2890  145.7480 C   0  0  0  0  0  3  0  0  0  0  0  0
  185.5340  178.3520  143.5600 C   0  0  0  0  0  0  0  0  0  0  0  0
  187.8290  178.3640  139.4860 O   0  0  0  0  0  1  0  0  0  0  0  0
  186.4580  178.2090  139.7420 C   0  0  2  0  0  3  0  0  0  0  0  0
  185.6120  178.5320  138.5850 N   0  0  0  0  0  2  0  0  0  0  0  0
  186.1910  178.0540  137.3320 C   0  0  0  0  0  2  0  0  0  0  0  0
  184.4070  174.8100  137.1500 N   0  0  0  0  0  0  0  0  0  0  0  0
  185.3910  173.9150  136.8580 C   0  0  0  0  0  0  0  0  0  0  0  0
  186.7050  174.3710  136.7180 C   0  0  0  0  0  3  0  0  0  0  0  0
  185.9330  176.5970  137.1860 C   0  0  0  0  0  0  0  0  0  0  0  0
  186.9760  175.7270  136.8810 C   0  0  0  0  0  3  0  0  0  0  0  0
  184.6690  176.1100  137.3060 N   0  0  0  0  0  0  0  0  0  0  0  0
  185.8420  171.7400  136.0300 O   0  0  0  0  0  0  0  0  0  0  0  0
  183.8910  171.9370  137.2710 N   0  0  0  0  0  1  0  0  0  0  0  0
  185.0700  172.4880  136.6900 C   0  0  0  0  0  0  0  0  0  0  0  0
  190.3640  177.0760  144.9720 C   0  0  1  0  0  3  0  0  0  0  0  0
  191.1730  177.9770  144.0900 C   0  0  0  0  0  0  0  0  0  0  0  0
  191.0900  179.2300  144.2000 O   0  0  0  0  0  1  0  0  0  0  0  0
  191.9940  177.4230  143.1190 O   0  0  0  0  0  0  0  0  0  0  0  0
  190.6940  177.3080  146.4440 C   0  0  0  0  0  2  0  0  0  0  0  0
  192.4650  175.5610  147.2830 N   0  0  0  0  0  0  0  0  0  0  0  0
  191.6830  176.3310  146.9140 C   0  0  0  0  0  0  0  0  0  0  0  0
  1 12  1  0  0  0  0
  2 15  1  6  0  0  0
  2  9  1  0  0  0  0
  3  5  1  0  0  0  0
  4  7  1  0  0  0  0
  5 27  1  0  0  0  0
  5 12  2  0  0  0  0
  6  2  1  0  0  0  0
  6  4  1  0  0  0  0
  7 10  1  0  0  0  0
  8  1  2  0  0  0  0
  9 11  1  1  0  0  0
  9 13  1  0  0  0  0
 11  3  1  0  0  0  0
 13 10  1  0  0  0  0
 13  8  2  0  0  0  0
 15 14  1  6  0  0  0
 16 15  1  0  0  0  0
 17 16  1  0  0  0  0
 18 23  1  0  0  0  0
 19 18  2  0  0  0  0
 20 19  1  0  0  0  0
 20 22  2  0  0  0  0
 21 23  2  0  0  0  0
 21 17  1  0  0  0  0
 22 21  1  0  0  0  0
 24 26  2  0  0  0  0
 26 19  1  0  0  0  0
 26 25  1  0  0  0  0
 27 31  1  1  0  0  0
 28 29  1  0  0  0  0
 28 27  1  0  0  0  0
 30 28  2  0  0  0  0
 31 33  1  0  0  0  0
 33 32  3  0  0  0  0
M  END
>  <MODEL>
8

>  <REMARK>
 VINA RESULT:      -7.7      2.651      6.367
  Name = 
  9 active torsions:
  status: ('A' for Active; 'I' for Inactive)
    1  A    between atoms: C_3  and  C_18
    2  A    between atoms: C_5  and  C_6
    3  A    between atoms: C_5  and  C_13
    4  A    between atoms: C_5  and  C_15
    5  A    between atoms: C_11  and  C_25
    6  A    between atoms: C_13  and  C_20
    7  A    between atoms: C_14  and  N_16
    8  A    between atoms: C_14  and  C_28
    9  A    between atoms: N_16  and  C_18
                            x       y       z     vdW  Elec       q    Type
                         _______ _______ _______ _____ _____    ______ ____

>  <TORSDO>
F 9

$$$$
=
 OpenBabel10222418523D

 33 35  0  0  1  0  0  0  0  0999 V2000
  182.0530  178.6280  143.9810 C   0  0  0  0  0  3  0  0  0  0  0  0
  183.3380  179.2850  139.2120 C   0  0  1  0  0  3  0  0  0  0  0  0
  184.7270  178.0860  142.5290 C   0  0  0  0  0  2  0  0  0  0  0  0
  181.0860  178.3980  138.7500 N   0  0  0  0  0  2  0  0  0  0  0  0
  184.5850  178.5450  143.9610 C   0  0  0  0  0  0  0  0  0  0  0  0
  182.0360  179.4540  138.4190 C   0  0  0  0  0  2  0  0  0  0  0  0
  180.0990  178.9200  139.6960 C   0  0  0  0  0  2  0  0  0  0  0  0
  181.8900  178.8230  142.7060 C   0  0  0  0  0  0  0  0  0  0  0  0
  183.2000  178.7660  140.6720 C   0  0  1  0  0  3  0  0  0  0  0  0
  180.7280  179.7530  140.8210 C   0  0  0  0  0  2  0  0  0  0  0  0
  184.4190  179.1790  141.5070 C   0  0  0  0  0  2  0  0  0  0  0  0
  183.4010  178.6850  144.5860 C   0  0  0  0  0  3  0  0  0  0  0  0
  181.9080  179.0610  141.4250 C   0  0  0  0  0  0  0  0  0  0  0  0
  184.2530  177.0760  138.7030 O   0  0  0  0  0  1  0  0  0  0  0  0
  184.3000  178.4380  138.3680 C   0  0  2  0  0  3  0  0  0  0  0  0
  185.6650  178.9820  138.3410 N   0  0  0  0  0  2  0  0  0  0  0  0
  186.6220  178.0300  137.7820 C   0  0  0  0  0  2  0  0  0  0  0  0
  188.6600  178.1530  140.8760 N   0  0  0  0  0  0  0  0  0  0  0  0
  189.7860  177.4600  140.5500 C   0  0  0  0  0  0  0  0  0  0  0  0
  189.9070  176.9270  139.2640 C   0  0  0  0  0  3  0  0  0  0  0  0
  187.7510  177.8410  138.7310 C   0  0  0  0  0  0  0  0  0  0  0  0
  188.8760  177.1180  138.3470 C   0  0  0  0  0  3  0  0  0  0  0  0
  187.6730  178.3350  139.9960 N   0  0  0  0  0  0  0  0  0  0  0  0
  192.0570  177.5030  141.2300 O   0  0  0  0  0  0  0  0  0  0  0  0
  190.5500  176.8390  142.8650 N   0  0  0  0  0  1  0  0  0  0  0  0
  190.8570  177.2740  141.5430 C   0  0  0  0  0  0  0  0  0  0  0  0
  185.8190  178.6430  144.8140 C   0  0  1  0  0  3  0  0  0  0  0  0
  185.4660  178.9020  146.2470 C   0  0  0  0  0  0  0  0  0  0  0  0
  185.6810  180.0290  146.7710 O   0  0  0  0  0  0  0  0  0  0  0  0
  184.9300  177.8780  147.0130 O   0  0  0  0  0  1  0  0  0  0  0  0
  186.7170  177.4160  144.6840 C   0  0  0  0  0  2  0  0  0  0  0  0
  188.9870  177.7910  145.9470 N   0  0  0  0  0  0  0  0  0  0  0  0
  187.9860  177.6250  145.3900 C   0  0  0  0  0  0  0  0  0  0  0  0
  1 12  1  0  0  0  0
  2 15  1  6  0  0  0
  2  9  1  0  0  0  0
  3  5  1  0  0  0  0
  4  7  1  0  0  0  0
  5 12  2  0  0  0  0
  5 27  1  0  0  0  0
  6  4  1  0  0  0  0
  6  2  1  0  0  0  0
  7 10  1  0  0  0  0
  8  1  2  0  0  0  0
  9 13  1  0  0  0  0
  9 11  1  1  0  0  0
 10 13  1  0  0  0  0
 11  3  1  0  0  0  0
 13  8  2  0  0  0  0
 15 14  1  1  0  0  0
 16 15  1  0  0  0  0
 17 16  1  0  0  0  0
 17 21  1  0  0  0  0
 19 18  1  0  0  0  0
 19 26  1  0  0  0  0
 20 19  2  0  0  0  0
 21 23  1  0  0  0  0
 22 21  2  0  0  0  0
 22 20  1  0  0  0  0
 23 18  2  0  0  0  0
 24 26  2  0  0  0  0
 26 25  1  0  0  0  0
 27 31  1  1  0  0  0
 27 28  1  0  0  0  0
 28 29  2  0  0  0  0
 28 30  1  0  0  0  0
 31 33  1  0  0  0  0
 33 32  3  0  0  0  0
M  END
>  <MODEL>
9

>  <REMARK>
 VINA RESULT:      -7.6      1.972      6.761
  Name = 
  9 active torsions:
  status: ('A' for Active; 'I' for Inactive)
    1  A    between atoms: C_3  and  C_18
    2  A    between atoms: C_5  and  C_6
    3  A    between atoms: C_5  and  C_13
    4  A    between atoms: C_5  and  C_15
    5  A    between atoms: C_11  and  C_25
    6  A    between atoms: C_13  and  C_20
    7  A    between atoms: C_14  and  N_16
    8  A    between atoms: C_14  and  C_28
    9  A    between atoms: N_16  and  C_18
                            x       y       z     vdW  Elec       q    Type
                         _______ _______ _______ _____ _____    ______ ____

>  <TORSDO>
F 9

$$$$
