=
 OpenBabel10222421043D

 55 61  0  0  1  0  0  0  0  0999 V2000
  190.9640  176.9480  139.8210 C   0  0  0  0  0  3  0  0  0  0  0  0
  187.5510  177.8250  142.1330 C   0  0  0  0  0  0  0  0  0  0  0  0
  189.8300  177.0200  141.9440 N   0  0  0  0  0  0  0  0  0  0  0  0
  188.6950  177.8290  139.9490 C   0  0  0  0  0  0  0  0  0  0  0  0
  185.2380  178.8890  140.9130 C   0  0  0  0  0  3  0  0  0  0  0  0
  188.7290  177.2950  142.7130 C   0  0  0  0  0  0  0  0  0  0  0  0
  187.5420  178.0960  140.7360 C   0  0  0  0  0  0  0  0  0  0  0  0
  191.0180  177.1860  138.4580 C   0  0  0  0  0  0  0  0  0  0  0  0
  188.7600  178.0890  138.5450 C   0  0  0  0  0  0  0  0  0  0  0  0
  188.7810  177.0850  143.9590 O   0  0  0  0  0  0  0  0  0  0  0  0
  189.9170  177.7580  137.8270 C   0  0  0  0  0  3  0  0  0  0  0  0
  189.8320  177.2680  140.5920 C   0  0  0  0  0  0  0  0  0  0  0  0
  186.2570  177.8600  144.3650 C   0  0  0  0  0  1  0  0  0  0  0  0
  191.0250  176.5070  142.5870 C   0  0  0  0  0  0  0  0  0  0  0  0
  192.1220  177.1150  142.4440 O   0  0  0  0  0  0  0  0  0  0  0  0
  186.3740  178.1040  142.8960 C   0  0  0  0  0  0  0  0  0  0  0  0
  185.2420  178.6290  142.2760 C   0  0  0  0  0  3  0  0  0  0  0  0
  186.3740  178.6240  140.1580 C   0  0  0  0  0  3  0  0  0  0  0  0
  192.1910  176.7960  137.7350 N   0  0  0  0  0  2  0  0  0  0  0  0
  192.2860  175.7200  136.7940 C   0  0  0  0  0  0  0  0  0  0  0  0
  191.2530  175.1460  136.3600 O   0  0  0  0  0  0  0  0  0  0  0  0
  196.4870  177.3480  135.3070 O   0  0  0  0  0  0  0  0  0  0  0  0
  193.7860  173.7320  138.0960 O   0  0  0  0  0  0  0  0  0  0  0  0
  193.6280  175.2840  136.2950 C   0  0  1  0  0  3  0  0  0  0  0  0
  194.4070  176.4510  135.8730 N   0  0  0  0  0  2  0  0  0  0  0  0
  195.8960  174.5110  137.3880 C   0  0  0  0  0  2  0  0  0  0  0  0
  195.8260  176.3640  135.7360 C   0  0  0  0  0  0  0  0  0  0  0  0
  194.3860  174.4720  137.3230 C   0  0  0  0  0  0  0  0  0  0  0  0
  196.5210  175.0940  136.1170 C   0  0  0  0  0  2  0  0  0  0  0  0
  191.2240  175.4700  144.9070 C   0  0  2  0  0  3  0  0  0  0  0  0
  192.2520  175.0410  144.0430 O   0  0  0  0  0  0  0  0  0  0  0  0
  190.9970  175.2610  143.4370 C   0  0  2  0  0  3  0  0  0  0  0  0
  191.5240  176.9010  145.3510 C   0  0  0  0  0  2  0  0  0  0  0  0
  189.9720  177.0200  147.2680 C   0  0  0  0  0  1  0  0  0  0  0  0
  191.4300  177.0430  146.8600 C   0  0  0  0  0  3  0  0  0  0  0  0
  192.1490  175.8960  147.5410 C   0  0  0  0  0  1  0  0  0  0  0  0
  187.6850  178.6820  137.8670 O   0  0  0  0  0  0  0  0  0  0  0  0
  187.2370  178.2510  136.5860 C   0  0  0  0  0  2  0  0  0  0  0  0
  186.3840  177.0060  136.7270 C   0  0  0  0  0  2  0  0  0  0  0  0
  185.0040  177.2490  136.1410 C   0  0  0  0  0  2  0  0  0  0  0  0
  181.3780  177.6240  139.6140 N   0  0  0  0  0  0  0  0  0  0  0  0
  184.1960  178.0070  137.0890 N   0  0  0  0  0  2  0  0  0  0  0  0
  183.2870  177.4020  138.0120 C   0  0  0  0  0  0  0  0  0  0  0  0
  182.6190  179.4920  138.9130 O   0  0  0  0  0  0  0  0  0  0  0  0
  183.1980  176.1030  138.1070 N   0  0  0  0  0  0  0  0  0  0  0  0
  182.4290  178.2500  138.8560 C   0  0  0  0  0  0  0  0  0  0  0  0
  181.0550  176.2280  139.3270 C   0  0  0  0  0  2  0  0  0  0  0  0
  182.3460  175.4390  139.1010 C   0  0  0  0  0  2  0  0  0  0  0  0
  181.6000  179.1020  141.5780 C   0  0  0  0  0  2  0  0  0  0  0  0
  180.6430  178.3140  140.6720 C   0  0  0  0  0  3  0  0  0  0  0  0
  178.9310  179.8690  144.4430 Cl  0  0  0  0  0  0  0  0  0  0  0  0
  180.9780  179.4460  142.9380 C   0  0  0  0  0  2  0  0  0  0  0  0
  179.5190  179.3740  142.8790 N   0  0  0  0  0  0  0  0  0  0  0  0
  179.1380  177.9720  142.7140 C   0  0  0  0  0  2  0  0  0  0  0  0
  179.7530  177.3390  141.4540 C   0  0  0  0  0  2  0  0  0  0  0  0
  1 12  1  0  0  0  0
  2  6  1  0  0  0  0
  2 16  1  0  0  0  0
  3 14  1  0  0  0  0
  3  6  1  0  0  0  0
  4 12  2  0  0  0  0
  4  7  1  0  0  0  0
  5 17  1  0  0  0  0
  6 10  2  0  0  0  0
  7  2  2  0  0  0  0
  8  1  2  0  0  0  0
  9  4  1  0  0  0  0
 11  8  1  0  0  0  0
 11  9  2  0  0  0  0
 12  3  1  0  0  0  0
 15 14  2  0  0  0  0
 16 13  1  0  0  0  0
 17 16  2  0  0  0  0
 18  7  1  0  0  0  0
 18  5  2  0  0  0  0
 19  8  1  0  0  0  0
 20 19  1  0  0  0  0
 21 20  2  0  0  0  0
 22 27  2  0  0  0  0
 24 20  1  1  0  0  0
 24 28  1  0  0  0  0
 25 24  1  0  0  0  0
 27 25  1  0  0  0  0
 27 29  1  0  0  0  0
 28 26  1  0  0  0  0
 28 23  2  0  0  0  0
 29 26  1  0  0  0  0
 30 33  1  6  0  0  0
 31 30  1  0  0  0  0
 32 14  1  6  0  0  0
 32 31  1  0  0  0  0
 32 30  1  0  0  0  0
 33 35  1  0  0  0  0
 35 34  1  0  0  0  0
 35 36  1  0  0  0  0
 37  9  1  0  0  0  0
 38 39  1  0  0  0  0
 38 37  1  0  0  0  0
 40 39  1  0  0  0  0
 40 42  1  0  0  0  0
 41 50  1  0  0  0  0
 42 43  1  0  0  0  0
 43 45  2  0  0  0  0
 43 46  1  0  0  0  0
 45 48  1  0  0  0  0
 46 44  2  0  0  0  0
 46 41  1  0  0  0  0
 47 41  1  0  0  0  0
 48 47  1  0  0  0  0
 49 52  1  0  0  0  0
 50 55  1  0  0  0  0
 50 49  1  0  0  0  0
 53 52  1  0  0  0  0
 53 51  1  0  0  0  0
 54 53  1  0  0  0  0
 55 54  1  0  0  0  0
M  END
>  <MODEL>
1

>  <REMARK>
 VINA RESULT:      -8.9      0.000      0.000
  Name = 
  11 active torsions:
  status: ('A' for Active; 'I' for Inactive)
    1  A    between atoms: C_3  and  C_23
    2  A    between atoms: C_3  and  C_37
    3  A    between atoms: N_4  and  C_21
    4  A    between atoms: C_6  and  C_25
    5  A    between atoms: C_7  and  N_17
    6  A    between atoms: C_10  and  O_35
    7  A    between atoms: C_10  and  C_52
    8  A    between atoms: N_20  and  C_36
    9  A    between atoms: C_22  and  O_35
   10  A    between atoms: C_36  and  C_52
   11  A    between atoms: C_39  and  C_51
                            x       y       z     vdW  Elec       q    Type
                         _______ _______ _______ _____ _____    ______ ____

>  <TORSDO>
F 11

$$$$
=
 OpenBabel10222421043D

 55 61  0  0  1  0  0  0  0  0999 V2000
  187.9570  178.1040  140.7980 C   0  0  0  0  0  3  0  0  0  0  0  0
  185.8560  177.5840  137.1810 C   0  0  0  0  0  0  0  0  0  0  0  0
  185.9490  178.3250  139.4880 N   0  0  0  0  0  0  0  0  0  0  0  0
  187.9530  177.3970  138.4650 C   0  0  0  0  0  0  0  0  0  0  0  0
  187.1360  176.4350  134.9420 C   0  0  0  0  0  3  0  0  0  0  0  0
  185.2470  178.1610  138.3220 C   0  0  0  0  0  0  0  0  0  0  0  0
  187.2260  177.2040  137.2590 C   0  0  0  0  0  0  0  0  0  0  0  0
  189.2890  177.7510  140.9400 C   0  0  0  0  0  0  0  0  0  0  0  0
  189.3320  177.0500  138.6100 C   0  0  0  0  0  0  0  0  0  0  0  0
  184.0450  178.5490  138.2680 O   0  0  0  0  0  0  0  0  0  0  0  0
  189.9710  177.2300  139.8440 C   0  0  0  0  0  3  0  0  0  0  0  0
  187.2690  177.9530  139.5810 C   0  0  0  0  0  0  0  0  0  0  0  0
  183.7160  177.7270  135.7480 C   0  0  0  0  0  1  0  0  0  0  0  0
  185.2930  178.9490  140.6210 C   0  0  0  0  0  0  0  0  0  0  0  0
  185.8060  179.9710  141.1550 O   0  0  0  0  0  0  0  0  0  0  0  0
  185.1530  177.3750  135.9540 C   0  0  0  0  0  0  0  0  0  0  0  0
  185.8020  176.8060  134.8590 C   0  0  0  0  0  3  0  0  0  0  0  0
  187.8330  176.6320  136.1280 C   0  0  0  0  0  3  0  0  0  0  0  0
  189.9090  177.8970  142.2220 N   0  0  0  0  0  2  0  0  0  0  0  0
  189.7180  177.0440  143.3560 C   0  0  0  0  0  0  0  0  0  0  0  0
  189.1280  175.9380  143.2410 O   0  0  0  0  0  0  0  0  0  0  0  0
  188.4800  177.6680  147.8930 O   0  0  0  0  0  0  0  0  0  0  0  0
  192.1010  175.9840  144.4020 O   0  0  0  0  0  0  0  0  0  0  0  0
  190.2490  177.4540  144.6940 C   0  0  1  0  0  3  0  0  0  0  0  0
  189.1510  177.5430  145.6610 N   0  0  0  0  0  2  0  0  0  0  0  0
  191.5240  176.2670  146.6700 C   0  0  0  0  0  2  0  0  0  0  0  0
  189.4170  177.5220  147.0640 C   0  0  0  0  0  0  0  0  0  0  0  0
  191.3320  176.5200  145.1920 C   0  0  0  0  0  0  0  0  0  0  0  0
  190.8220  177.3160  147.5390 C   0  0  0  0  0  2  0  0  0  0  0  0
  183.7660  178.6700  142.6440 C   0  0  2  0  0  3  0  0  0  0  0  0
  184.2450  177.4340  142.1640 O   0  0  0  0  0  0  0  0  0  0  0  0
  183.9980  178.4160  141.1820 C   0  0  2  0  0  3  0  0  0  0  0  0
  184.8960  179.3720  143.3970 C   0  0  0  0  0  2  0  0  0  0  0  0
  183.2840  178.7580  145.1660 C   0  0  0  0  0  1  0  0  0  0  0  0
  184.6210  179.4130  144.8900 C   0  0  0  0  0  3  0  0  0  0  0  0
  185.7010  178.6620  145.6430 C   0  0  0  0  0  1  0  0  0  0  0  0
  190.0680  176.5390  137.5300 O   0  0  0  0  0  0  0  0  0  0  0  0
  191.4010  176.0550  137.6550 C   0  0  0  0  0  2  0  0  0  0  0  0
  191.3920  174.5460  137.8030 C   0  0  0  0  0  2  0  0  0  0  0  0
  190.6440  173.9130  136.6430 C   0  0  0  0  0  2  0  0  0  0  0  0
  185.9990  172.1190  135.8950 N   0  0  0  0  0  0  0  0  0  0  0  0
  189.2240  173.8280  136.9640 N   0  0  0  0  0  2  0  0  0  0  0  0
  188.3350  172.8800  136.3670 C   0  0  0  0  0  0  0  0  0  0  0  0
  186.4650  173.6840  137.5840 O   0  0  0  0  0  0  0  0  0  0  0  0
  188.7830  171.9690  135.5470 N   0  0  0  0  0  0  0  0  0  0  0  0
  186.8950  172.9380  136.6680 C   0  0  0  0  0  0  0  0  0  0  0  0
  186.5200  171.4610  134.6990 C   0  0  0  0  0  2  0  0  0  0  0  0
  187.9230  170.9210  134.9810 C   0  0  0  0  0  2  0  0  0  0  0  0
  184.1140  170.5300  135.7690 C   0  0  0  0  0  2  0  0  0  0  0  0
  184.6030  171.8970  136.2690 C   0  0  0  0  0  3  0  0  0  0  0  0
  180.2430  171.1820  136.4800 Cl  0  0  0  0  0  0  0  0  0  0  0  0
  182.5840  170.4350  135.7090 C   0  0  0  0  0  2  0  0  0  0  0  0
  181.9640  171.4470  136.5620 N   0  0  0  0  0  0  0  0  0  0  0  0
  182.2130  172.7600  135.9670 C   0  0  0  0  0  2  0  0  0  0  0  0
  183.7130  173.0540  135.7980 C   0  0  0  0  0  2  0  0  0  0  0  0
  1  8  1  0  0  0  0
  2  7  1  0  0  0  0
  2  6  1  0  0  0  0
  3 12  1  0  0  0  0
  3 14  1  0  0  0  0
  4  9  2  0  0  0  0
  4 12  1  0  0  0  0
  5 18  1  0  0  0  0
  6  3  1  0  0  0  0
  7  4  1  0  0  0  0
  8 19  1  0  0  0  0
  9 11  1  0  0  0  0
 10  6  2  0  0  0  0
 11  8  2  0  0  0  0
 12  1  2  0  0  0  0
 13 16  1  0  0  0  0
 14 15  2  0  0  0  0
 16  2  2  0  0  0  0
 17  5  2  0  0  0  0
 17 16  1  0  0  0  0
 18  7  2  0  0  0  0
 19 20  1  0  0  0  0
 21 20  2  0  0  0  0
 23 28  2  0  0  0  0
 24 20  1  6  0  0  0
 24 28  1  0  0  0  0
 24 25  1  0  0  0  0
 25 27  1  0  0  0  0
 26 29  1  0  0  0  0
 27 29  1  0  0  0  0
 27 22  2  0  0  0  0
 28 26  1  0  0  0  0
 30 33  1  1  0  0  0
 31 30  1  0  0  0  0
 32 14  1  1  0  0  0
 32 31  1  0  0  0  0
 32 30  1  0  0  0  0
 33 35  1  0  0  0  0
 35 34  1  0  0  0  0
 35 36  1  0  0  0  0
 37 38  1  0  0  0  0
 37  9  1  0  0  0  0
 38 39  1  0  0  0  0
 40 42  1  0  0  0  0
 40 39  1  0  0  0  0
 41 50  1  0  0  0  0
 41 46  1  0  0  0  0
 43 46  1  0  0  0  0
 43 42  1  0  0  0  0
 45 43  2  0  0  0  0
 46 44  2  0  0  0  0
 47 48  1  0  0  0  0
 47 41  1  0  0  0  0
 48 45  1  0  0  0  0
 49 50  1  0  0  0  0
 51 53  1  0  0  0  0
 52 49  1  0  0  0  0
 52 53  1  0  0  0  0
 54 53  1  0  0  0  0
 55 54  1  0  0  0  0
 55 50  1  0  0  0  0
M  END
>  <MODEL>
2

>  <REMARK>
 VINA RESULT:      -8.8      3.513      7.847
  Name = 
  11 active torsions:
  status: ('A' for Active; 'I' for Inactive)
    1  A    between atoms: C_3  and  C_23
    2  A    between atoms: C_3  and  C_37
    3  A    between atoms: N_4  and  C_21
    4  A    between atoms: C_6  and  C_25
    5  A    between atoms: C_7  and  N_17
    6  A    between atoms: C_10  and  O_35
    7  A    between atoms: C_10  and  C_52
    8  A    between atoms: N_20  and  C_36
    9  A    between atoms: C_22  and  O_35
   10  A    between atoms: C_36  and  C_52
   11  A    between atoms: C_39  and  C_51
                            x       y       z     vdW  Elec       q    Type
                         _______ _______ _______ _____ _____    ______ ____

>  <TORSDO>
F 11

$$$$
=
 OpenBabel10222421043D

 55 61  0  0  1  0  0  0  0  0999 V2000
  188.5730  176.0780  137.4820 C   0  0  0  0  0  3  0  0  0  0  0  0
  192.5050  174.8810  136.5480 C   0  0  0  0  0  0  0  0  0  0  0  0
  190.1360  174.9540  136.0360 N   0  0  0  0  0  0  0  0  0  0  0  0
  190.9500  176.0980  138.0240 C   0  0  0  0  0  0  0  0  0  0  0  0
  194.6490  175.5800  138.2460 C   0  0  0  0  0  3  0  0  0  0  0  0
  191.4080  174.5510  135.7160 C   0  0  0  0  0  0  0  0  0  0  0  0
  192.2670  175.6660  137.7110 C   0  0  0  0  0  0  0  0  0  0  0  0
  188.2760  176.8400  138.6000 C   0  0  0  0  0  0  0  0  0  0  0  0
  190.6410  176.8990  139.1670 C   0  0  0  0  0  0  0  0  0  0  0  0
  191.5950  173.8930  134.6540 O   0  0  0  0  0  0  0  0  0  0  0  0
  189.3110  177.2500  139.4340 C   0  0  0  0  0  3  0  0  0  0  0  0
  189.8910  175.7050  137.1610 C   0  0  0  0  0  0  0  0  0  0  0  0
  194.2200  173.6320  135.0780 C   0  0  0  0  0  1  0  0  0  0  0  0
  189.0480  174.6200  135.1380 C   0  0  0  0  0  0  0  0  0  0  0  0
  188.3160  175.5380  134.6740 O   0  0  0  0  0  0  0  0  0  0  0  0
  193.8430  174.4610  136.2630 C   0  0  0  0  0  0  0  0  0  0  0  0
  194.8880  174.8160  137.1130 C   0  0  0  0  0  3  0  0  0  0  0  0
  193.3560  175.9960  138.5380 C   0  0  0  0  0  3  0  0  0  0  0  0
  186.9060  177.1460  138.8810 N   0  0  0  0  0  2  0  0  0  0  0  0
  186.1360  178.2010  138.2920 C   0  0  0  0  0  0  0  0  0  0  0  0
  186.5630  178.8320  137.2900 O   0  0  0  0  0  0  0  0  0  0  0  0
  183.0300  181.7550  138.7760 O   0  0  0  0  0  0  0  0  0  0  0  0
  183.8720  176.6050  137.8230 O   0  0  0  0  0  0  0  0  0  0  0  0
  184.7920  178.5460  138.8540 C   0  0  1  0  0  3  0  0  0  0  0  0
  184.5530  179.9860  138.7290 N   0  0  0  0  0  2  0  0  0  0  0  0
  182.2930  178.3420  138.0460 C   0  0  0  0  0  2  0  0  0  0  0  0
  183.2270  180.5110  138.8140 C   0  0  0  0  0  0  0  0  0  0  0  0
  183.6780  177.7550  138.2010 C   0  0  0  0  0  0  0  0  0  0  0  0
  182.0730  179.5650  138.9410 C   0  0  0  0  0  2  0  0  0  0  0  0
  187.5820  172.5500  135.3940 C   0  0  2  0  0  3  0  0  0  0  0  0
  188.9040  172.3220  135.8270 O   0  0  0  0  0  0  0  0  0  0  0  0
  188.7630  173.1960  134.7290 C   0  0  2  0  0  3  0  0  0  0  0  0
  186.8590  173.3830  136.4510 C   0  0  0  0  0  2  0  0  0  0  0  0
  185.0750  171.8470  135.7040 C   0  0  0  0  0  1  0  0  0  0  0  0
  185.3580  173.1650  136.3950 C   0  0  0  0  0  3  0  0  0  0  0  0
  184.7800  173.1190  137.7950 C   0  0  0  0  0  1  0  0  0  0  0  0
  191.6510  177.3530  140.0280 O   0  0  0  0  0  0  0  0  0  0  0  0
  191.4090  177.7470  141.3750 C   0  0  0  0  0  2  0  0  0  0  0  0
  191.5270  176.5460  142.2940 C   0  0  0  0  0  2  0  0  0  0  0  0
  190.5570  176.6820  143.4550 C   0  0  0  0  0  2  0  0  0  0  0  0
  185.7880  178.1450  144.1360 N   0  0  0  0  0  0  0  0  0  0  0  0
  189.2810  177.1940  142.9710 N   0  0  0  0  0  2  0  0  0  0  0  0
  188.2050  177.5750  143.8320 C   0  0  0  0  0  0  0  0  0  0  0  0
  186.8010  178.1720  142.0160 O   0  0  0  0  0  0  0  0  0  0  0  0
  188.3500  177.5570  145.1290 N   0  0  0  0  0  0  0  0  0  0  0  0
  186.9120  177.9770  143.2540 C   0  0  0  0  0  0  0  0  0  0  0  0
  185.9140  177.6770  145.5150 C   0  0  0  0  0  2  0  0  0  0  0  0
  187.3050  178.0250  146.0490 C   0  0  0  0  0  2  0  0  0  0  0  0
  183.5250  178.8010  144.8720 C   0  0  0  0  0  2  0  0  0  0  0  0
  184.5410  178.7860  143.7210 C   0  0  0  0  0  3  0  0  0  0  0  0
  180.3940  179.8930  142.6530 Cl  0  0  0  0  0  0  0  0  0  0  0  0
  182.0860  179.0170  144.3860 C   0  0  0  0  0  2  0  0  0  0  0  0
  182.0670  179.6170  143.0540 N   0  0  0  0  0  0  0  0  0  0  0  0
  182.5670  178.6260  142.1010 C   0  0  0  0  0  2  0  0  0  0  0  0
  183.9850  178.1390  142.4460 C   0  0  0  0  0  2  0  0  0  0  0  0
  1  8  1  0  0  0  0
  2  7  1  0  0  0  0
  3 12  1  0  0  0  0
  4  9  2  0  0  0  0
  5 18  1  0  0  0  0
  6  3  1  0  0  0  0
  6  2  1  0  0  0  0
  7  4  1  0  0  0  0
  7 18  2  0  0  0  0
  8 19  1  0  0  0  0
  8 11  2  0  0  0  0
  9 11  1  0  0  0  0
  9 37  1  0  0  0  0
 10  6  2  0  0  0  0
 12  1  2  0  0  0  0
 12  4  1  0  0  0  0
 13 16  1  0  0  0  0
 14  3  1  0  0  0  0
 15 14  2  0  0  0  0
 16  2  2  0  0  0  0
 16 17  1  0  0  0  0
 17  5  2  0  0  0  0
 20 19  1  0  0  0  0
 21 20  2  0  0  0  0
 22 27  2  0  0  0  0
 23 28  2  0  0  0  0
 24 20  1  6  0  0  0
 25 27  1  0  0  0  0
 25 24  1  0  0  0  0
 26 28  1  0  0  0  0
 26 29  1  0  0  0  0
 27 29  1  0  0  0  0
 28 24  1  0  0  0  0
 30 31  1  0  0  0  0
 30 33  1  1  0  0  0
 32 14  1  1  0  0  0
 32 30  1  0  0  0  0
 32 31  1  0  0  0  0
 34 35  1  0  0  0  0
 35 33  1  0  0  0  0
 35 36  1  0  0  0  0
 37 38  1  0  0  0  0
 38 39  1  0  0  0  0
 39 40  1  0  0  0  0
 41 47  1  0  0  0  0
 42 40  1  0  0  0  0
 42 43  1  0  0  0  0
 43 45  2  0  0  0  0
 44 46  2  0  0  0  0
 45 48  1  0  0  0  0
 46 43  1  0  0  0  0
 46 41  1  0  0  0  0
 47 48  1  0  0  0  0
 50 41  1  0  0  0  0
 50 49  1  0  0  0  0
 51 53  1  0  0  0  0
 52 49  1  0  0  0  0
 53 52  1  0  0  0  0
 54 55  1  0  0  0  0
 54 53  1  0  0  0  0
 55 50  1  0  0  0  0
M  END
>  <MODEL>
3

>  <REMARK>
 VINA RESULT:      -8.2      2.522      8.652
  Name = 
  11 active torsions:
  status: ('A' for Active; 'I' for Inactive)
    1  A    between atoms: C_3  and  C_23
    2  A    between atoms: C_3  and  C_37
    3  A    between atoms: N_4  and  C_21
    4  A    between atoms: C_6  and  C_25
    5  A    between atoms: C_7  and  N_17
    6  A    between atoms: C_10  and  O_35
    7  A    between atoms: C_10  and  C_52
    8  A    between atoms: N_20  and  C_36
    9  A    between atoms: C_22  and  O_35
   10  A    between atoms: C_36  and  C_52
   11  A    between atoms: C_39  and  C_51
                            x       y       z     vdW  Elec       q    Type
                         _______ _______ _______ _____ _____    ______ ____

>  <TORSDO>
F 11

$$$$
=
 OpenBabel10222421043D

 55 61  0  0  1  0  0  0  0  0999 V2000
  183.3820  175.7690  136.7140 C   0  0  0  0  0  3  0  0  0  0  0  0
  185.4160  172.2420  135.6230 C   0  0  0  0  0  0  0  0  0  0  0  0
  183.3670  173.5160  135.8630 N   0  0  0  0  0  0  0  0  0  0  0  0
  185.4860  174.5680  136.4380 C   0  0  0  0  0  0  0  0  0  0  0  0
  188.2240  172.0800  135.8720 C   0  0  0  0  0  3  0  0  0  0  0  0
  184.0100  172.3590  135.5060 C   0  0  0  0  0  0  0  0  0  0  0  0
  186.1570  173.3640  136.0900 C   0  0  0  0  0  0  0  0  0  0  0  0
  184.0450  176.8930  137.1790 C   0  0  0  0  0  0  0  0  0  0  0  0
  186.1670  175.7360  136.9020 C   0  0  0  0  0  0  0  0  0  0  0  0
  183.3310  171.3940  135.0520 O   0  0  0  0  0  0  0  0  0  0  0  0
  185.4330  176.8720  137.2670 C   0  0  0  0  0  3  0  0  0  0  0  0
  184.0690  174.6040  136.3250 C   0  0  0  0  0  0  0  0  0  0  0  0
  185.4590  169.8020  134.7860 C   0  0  0  0  0  1  0  0  0  0  0  0
  181.9290  173.6010  135.6970 C   0  0  0  0  0  0  0  0  0  0  0  0
  181.4340  174.5330  135.0050 O   0  0  0  0  0  0  0  0  0  0  0  0
  186.1220  171.0450  135.2830 C   0  0  0  0  0  0  0  0  0  0  0  0
  187.5080  170.9840  135.4130 C   0  0  0  0  0  3  0  0  0  0  0  0
  187.5530  173.2510  136.2060 C   0  0  0  0  0  3  0  0  0  0  0  0
  183.2730  178.0260  137.5930 N   0  0  0  0  0  2  0  0  0  0  0  0
  183.6470  178.9850  138.5890 C   0  0  0  0  0  0  0  0  0  0  0  0
  184.8190  179.0220  139.0440 O   0  0  0  0  0  0  0  0  0  0  0  0
  179.7210  181.3360  137.3350 O   0  0  0  0  0  0  0  0  0  0  0  0
  182.4060  178.7330  141.0970 O   0  0  0  0  0  0  0  0  0  0  0  0
  182.6400  179.9790  139.0800 C   0  0  1  0  0  3  0  0  0  0  0  0
  181.7330  180.3500  137.9910 N   0  0  0  0  0  2  0  0  0  0  0  0
  180.4340  179.8870  140.5160 C   0  0  0  0  0  2  0  0  0  0  0  0
  180.4700  180.9550  138.2740 C   0  0  0  0  0  0  0  0  0  0  0  0
  181.8670  179.4670  140.2770 C   0  0  0  0  0  0  0  0  0  0  0  0
  180.0430  181.1230  139.6990 C   0  0  0  0  0  2  0  0  0  0  0  0
  180.3360  173.0250  137.6020 C   0  0  2  0  0  3  0  0  0  0  0  0
  181.4730  172.1910  137.5890 O   0  0  0  0  0  0  0  0  0  0  0  0
  180.9960  172.5940  136.3240 C   0  0  2  0  0  3  0  0  0  0  0  0
  180.7420  174.3940  138.1480 C   0  0  0  0  0  2  0  0  0  0  0  0
  179.4180  173.9480  140.1850 C   0  0  0  0  0  1  0  0  0  0  0  0
  179.6830  174.9520  139.0820 C   0  0  0  0  0  3  0  0  0  0  0  0
  180.1600  176.2500  139.7020 C   0  0  0  0  0  1  0  0  0  0  0  0
  187.5670  175.7710  136.9900 O   0  0  0  0  0  0  0  0  0  0  0  0
  188.3380  176.9290  136.6870 C   0  0  0  0  0  2  0  0  0  0  0  0
  189.8050  176.5600  136.5790 C   0  0  0  0  0  2  0  0  0  0  0  0
  190.5640  177.0800  137.7870 C   0  0  0  0  0  2  0  0  0  0  0  0
  188.7500  177.3270  142.4770 N   0  0  0  0  0  0  0  0  0  0  0  0
  189.6210  177.5740  138.7830 N   0  0  0  0  0  2  0  0  0  0  0  0
  189.7550  177.3300  140.1860 C   0  0  0  0  0  0  0  0  0  0  0  0
  187.7720  178.5240  140.7070 O   0  0  0  0  0  0  0  0  0  0  0  0
  190.8000  176.7080  140.6580 N   0  0  0  0  0  0  0  0  0  0  0  0
  188.6960  177.7710  141.1090 C   0  0  0  0  0  0  0  0  0  0  0  0
  189.7000  176.2740  142.8260 C   0  0  0  0  0  2  0  0  0  0  0  0
  191.0240  176.5150  142.0970 C   0  0  0  0  0  2  0  0  0  0  0  0
  188.3990  177.4490  144.9180 C   0  0  0  0  0  2  0  0  0  0  0  0
  187.9170  177.9020  143.5320 C   0  0  0  0  0  3  0  0  0  0  0  0
  185.2050  178.7510  146.9220 Cl  0  0  0  0  0  0  0  0  0  0  0  0
  187.3270  177.6180  146.0010 C   0  0  0  0  0  2  0  0  0  0  0  0
  186.3080  178.5790  145.5830 N   0  0  0  0  0  0  0  0  0  0  0  0
  185.5440  177.9850  144.4870 C   0  0  0  0  0  2  0  0  0  0  0  0
  186.4330  177.5980  143.2920 C   0  0  0  0  0  2  0  0  0  0  0  0
  1  8  1  0  0  0  0
  2  7  1  0  0  0  0
  3 12  1  0  0  0  0
  4  9  2  0  0  0  0
  5 18  1  0  0  0  0
  6  2  1  0  0  0  0
  6  3  1  0  0  0  0
  7 18  2  0  0  0  0
  7  4  1  0  0  0  0
  8 11  2  0  0  0  0
  8 19  1  0  0  0  0
  9 37  1  0  0  0  0
  9 11  1  0  0  0  0
 10  6  2  0  0  0  0
 12  4  1  0  0  0  0
 12  1  2  0  0  0  0
 13 16  1  0  0  0  0
 14  3  1  0  0  0  0
 15 14  2  0  0  0  0
 16 17  1  0  0  0  0
 16  2  2  0  0  0  0
 17  5  2  0  0  0  0
 19 20  1  0  0  0  0
 20 21  2  0  0  0  0
 22 27  2  0  0  0  0
 24 20  1  6  0  0  0
 24 28  1  0  0  0  0
 25 27  1  0  0  0  0
 25 24  1  0  0  0  0
 27 29  1  0  0  0  0
 28 26  1  0  0  0  0
 28 23  2  0  0  0  0
 29 26  1  0  0  0  0
 30 33  1  1  0  0  0
 31 30  1  0  0  0  0
 32 14  1  1  0  0  0
 32 31  1  0  0  0  0
 32 30  1  0  0  0  0
 33 35  1  0  0  0  0
 35 36  1  0  0  0  0
 35 34  1  0  0  0  0
 38 37  1  0  0  0  0
 39 38  1  0  0  0  0
 39 40  1  0  0  0  0
 40 42  1  0  0  0  0
 41 47  1  0  0  0  0
 41 50  1  0  0  0  0
 42 43  1  0  0  0  0
 43 45  2  0  0  0  0
 43 46  1  0  0  0  0
 44 46  2  0  0  0  0
 45 48  1  0  0  0  0
 46 41  1  0  0  0  0
 48 47  1  0  0  0  0
 49 52  1  0  0  0  0
 50 49  1  0  0  0  0
 53 52  1  0  0  0  0
 53 51  1  0  0  0  0
 54 53  1  0  0  0  0
 55 50  1  0  0  0  0
 55 54  1  0  0  0  0
M  END
>  <MODEL>
4

>  <REMARK>
 VINA RESULT:      -8.2      3.589     10.211
  Name = 
  11 active torsions:
  status: ('A' for Active; 'I' for Inactive)
    1  A    between atoms: C_3  and  C_23
    2  A    between atoms: C_3  and  C_37
    3  A    between atoms: N_4  and  C_21
    4  A    between atoms: C_6  and  C_25
    5  A    between atoms: C_7  and  N_17
    6  A    between atoms: C_10  and  O_35
    7  A    between atoms: C_10  and  C_52
    8  A    between atoms: N_20  and  C_36
    9  A    between atoms: C_22  and  O_35
   10  A    between atoms: C_36  and  C_52
   11  A    between atoms: C_39  and  C_51
                            x       y       z     vdW  Elec       q    Type
                         _______ _______ _______ _____ _____    ______ ____

>  <TORSDO>
F 11

$$$$
=
 OpenBabel10222421043D

 55 61  0  0  1  0  0  0  0  0999 V2000
  186.1620  178.4120  141.1780 C   0  0  0  0  0  3  0  0  0  0  0  0
  188.9450  177.6200  144.2430 C   0  0  0  0  0  0  0  0  0  0  0  0
  186.6770  178.0510  143.5030 N   0  0  0  0  0  0  0  0  0  0  0  0
  188.4550  177.9190  141.8450 C   0  0  0  0  0  0  0  0  0  0  0  0
  191.6780  177.2650  143.6300 C   0  0  0  0  0  3  0  0  0  0  0  0
  187.5670  177.7990  144.5150 C   0  0  0  0  0  0  0  0  0  0  0  0
  189.3870  177.6780  142.8910 C   0  0  0  0  0  0  0  0  0  0  0  0
  186.5290  178.4840  139.8440 C   0  0  0  0  0  0  0  0  0  0  0  0
  188.8260  177.9780  140.4660 C   0  0  0  0  0  0  0  0  0  0  0  0
  187.1400  177.7080  145.7010 O   0  0  0  0  0  0  0  0  0  0  0  0
  187.8570  178.2630  139.4950 C   0  0  0  0  0  3  0  0  0  0  0  0
  187.0910  178.1200  142.1930 C   0  0  0  0  0  0  0  0  0  0  0  0
  189.5730  177.2980  146.7250 C   0  0  0  0  0  1  0  0  0  0  0  0
  185.2710  178.1970  143.8250 C   0  0  0  0  0  0  0  0  0  0  0  0
  184.4190  177.4610  143.2520 O   0  0  0  0  0  0  0  0  0  0  0  0
  189.9090  177.3770  145.2720 C   0  0  0  0  0  0  0  0  0  0  0  0
  191.2540  177.2050  144.9490 C   0  0  0  0  0  3  0  0  0  0  0  0
  190.7550  177.5000  142.6190 C   0  0  0  0  0  3  0  0  0  0  0  0
  185.5340  178.8250  138.8730 N   0  0  0  0  0  2  0  0  0  0  0  0
  184.1170  178.6840  139.0290 C   0  0  0  0  0  0  0  0  0  0  0  0
  183.6110  178.4350  140.1540 O   0  0  0  0  0  0  0  0  0  0  0  0
  180.8040  176.4990  136.4280 O   0  0  0  0  0  0  0  0  0  0  0  0
  182.5220  180.9750  138.6990 O   0  0  0  0  0  0  0  0  0  0  0  0
  183.2170  178.8620  137.8460 C   0  0  1  0  0  3  0  0  0  0  0  0
  182.5330  177.6000  137.5450 N   0  0  0  0  0  2  0  0  0  0  0  0
  180.8480  179.9280  137.4110 C   0  0  0  0  0  2  0  0  0  0  0  0
  181.3510  177.5900  136.7430 C   0  0  0  0  0  0  0  0  0  0  0  0
  182.2180  179.9820  138.0480 C   0  0  0  0  0  0  0  0  0  0  0  0
  180.7650  178.8900  136.2880 C   0  0  0  0  0  2  0  0  0  0  0  0
  183.3480  179.6120  144.7180 C   0  0  2  0  0  3  0  0  0  0  0  0
  184.3980  180.4020  144.2080 O   0  0  0  0  0  0  0  0  0  0  0  0
  184.7880  179.2030  144.8390 C   0  0  2  0  0  3  0  0  0  0  0  0
  182.5700  179.0170  143.5440 C   0  0  0  0  0  2  0  0  0  0  0  0
  180.5780  179.6130  142.2110 C   0  0  0  0  0  1  0  0  0  0  0  0
  181.0980  179.3840  143.6150 C   0  0  0  0  0  3  0  0  0  0  0  0
  180.3070  178.2620  144.2560 C   0  0  0  0  0  1  0  0  0  0  0  0
  190.1490  177.7430  140.0610 O   0  0  0  0  0  0  0  0  0  0  0  0
  190.5590  176.5590  139.3850 C   0  0  0  0  0  2  0  0  0  0  0  0
  191.4540  176.9160  138.2140 C   0  0  0  0  0  2  0  0  0  0  0  0
  190.9110  176.3000  136.9360 C   0  0  0  0  0  2  0  0  0  0  0  0
  186.4910  173.9210  136.5410 N   0  0  0  0  0  0  0  0  0  0  0  0
  189.4540  176.2620  136.9910 N   0  0  0  0  0  2  0  0  0  0  0  0
  188.6920  175.0560  136.8980 C   0  0  0  0  0  0  0  0  0  0  0  0
  186.6250  176.2040  137.0820 O   0  0  0  0  0  0  0  0  0  0  0  0
  189.2850  173.8940  136.8410 N   0  0  0  0  0  0  0  0  0  0  0  0
  187.2220  175.1220  136.8510 C   0  0  0  0  0  0  0  0  0  0  0  0
  187.2360  172.7640  136.0520 C   0  0  0  0  0  2  0  0  0  0  0  0
  188.5430  172.6270  136.8350 C   0  0  0  0  0  2  0  0  0  0  0  0
  184.6680  172.3970  137.2090 C   0  0  0  0  0  2  0  0  0  0  0  0
  185.0450  173.8030  136.7210 C   0  0  0  0  0  3  0  0  0  0  0  0
  180.7420  172.7840  136.6140 Cl  0  0  0  0  0  0  0  0  0  0  0  0
  183.1890  172.0650  136.9700 C   0  0  0  0  0  2  0  0  0  0  0  0
  182.4030  173.2830  136.7860 N   0  0  0  0  0  0  0  0  0  0  0  0
  182.7910  173.8880  135.5120 C   0  0  0  0  0  2  0  0  0  0  0  0
  184.2940  174.2100  135.4470 C   0  0  0  0  0  2  0  0  0  0  0  0
  1 12  1  0  0  0  0
  2  6  1  0  0  0  0
  2 16  1  0  0  0  0
  3 14  1  0  0  0  0
  3  6  1  0  0  0  0
  4 12  2  0  0  0  0
  4  7  1  0  0  0  0
  5 17  1  0  0  0  0
  6 10  2  0  0  0  0
  7  2  2  0  0  0  0
  8  1  2  0  0  0  0
  9  4  1  0  0  0  0
 11  8  1  0  0  0  0
 11  9  2  0  0  0  0
 12  3  1  0  0  0  0
 15 14  2  0  0  0  0
 16 13  1  0  0  0  0
 17 16  2  0  0  0  0
 18  7  1  0  0  0  0
 18  5  2  0  0  0  0
 19 20  1  0  0  0  0
 19  8  1  0  0  0  0
 20 21  2  0  0  0  0
 22 27  2  0  0  0  0
 24 28  1  0  0  0  0
 24 20  1  1  0  0  0
 25 24  1  0  0  0  0
 26 28  1  0  0  0  0
 27 25  1  0  0  0  0
 28 23  2  0  0  0  0
 29 27  1  0  0  0  0
 29 26  1  0  0  0  0
 30 33  1  6  0  0  0
 30 32  1  0  0  0  0
 31 30  1  0  0  0  0
 31 32  1  0  0  0  0
 32 14  1  6  0  0  0
 33 35  1  0  0  0  0
 34 35  1  0  0  0  0
 35 36  1  0  0  0  0
 37  9  1  0  0  0  0
 38 37  1  0  0  0  0
 39 38  1  0  0  0  0
 40 42  1  0  0  0  0
 40 39  1  0  0  0  0
 41 50  1  0  0  0  0
 41 46  1  0  0  0  0
 43 42  1  0  0  0  0
 45 43  2  0  0  0  0
 46 43  1  0  0  0  0
 46 44  2  0  0  0  0
 47 41  1  0  0  0  0
 47 48  1  0  0  0  0
 48 45  1  0  0  0  0
 50 49  1  0  0  0  0
 51 53  1  0  0  0  0
 52 49  1  0  0  0  0
 53 52  1  0  0  0  0
 54 53  1  0  0  0  0
 55 54  1  0  0  0  0
 55 50  1  0  0  0  0
M  END
>  <MODEL>
5

>  <REMARK>
 VINA RESULT:      -8.0      3.298      8.433
  Name = 
  11 active torsions:
  status: ('A' for Active; 'I' for Inactive)
    1  A    between atoms: C_3  and  C_23
    2  A    between atoms: C_3  and  C_37
    3  A    between atoms: N_4  and  C_21
    4  A    between atoms: C_6  and  C_25
    5  A    between atoms: C_7  and  N_17
    6  A    between atoms: C_10  and  O_35
    7  A    between atoms: C_10  and  C_52
    8  A    between atoms: N_20  and  C_36
    9  A    between atoms: C_22  and  O_35
   10  A    between atoms: C_36  and  C_52
   11  A    between atoms: C_39  and  C_51
                            x       y       z     vdW  Elec       q    Type
                         _______ _______ _______ _____ _____    ______ ____

>  <TORSDO>
F 11

$$$$
=
 OpenBabel10222421043D

 55 61  0  0  1  0  0  0  0  0999 V2000
  187.7010  178.3680  140.9000 C   0  0  0  0  0  3  0  0  0  0  0  0
  191.2930  176.9100  139.2450 C   0  0  0  0  0  0  0  0  0  0  0  0
  190.0100  177.7240  141.1350 N   0  0  0  0  0  0  0  0  0  0  0  0
  188.9140  177.4970  138.9730 C   0  0  0  0  0  0  0  0  0  0  0  0
  191.4300  176.2310  136.5080 C   0  0  0  0  0  3  0  0  0  0  0  0
  191.1880  177.2560  140.6150 C   0  0  0  0  0  0  0  0  0  0  0  0
  190.1390  177.0310  138.4220 C   0  0  0  0  0  0  0  0  0  0  0  0
  186.5440  178.5110  140.1520 C   0  0  0  0  0  0  0  0  0  0  0  0
  187.7130  177.6300  138.2080 C   0  0  0  0  0  0  0  0  0  0  0  0
  192.1850  177.1170  141.3790 O   0  0  0  0  0  0  0  0  0  0  0  0
  186.5550  178.1380  138.8110 C   0  0  0  0  0  3  0  0  0  0  0  0
  188.8890  177.8550  140.3490 C   0  0  0  0  0  0  0  0  0  0  0  0
  193.7880  176.2740  139.4150 C   0  0  0  0  0  1  0  0  0  0  0  0
  189.9410  178.0360  142.5490 C   0  0  0  0  0  0  0  0  0  0  0  0
  189.0620  177.4840  143.2680 O   0  0  0  0  0  0  0  0  0  0  0  0
  192.5100  176.4400  138.6590 C   0  0  0  0  0  0  0  0  0  0  0  0
  192.5580  176.1100  137.3060 C   0  0  0  0  0  3  0  0  0  0  0  0
  190.2400  176.6870  137.0620 C   0  0  0  0  0  3  0  0  0  0  0  0
  185.3860  179.0770  140.7740 N   0  0  0  0  0  2  0  0  0  0  0  0
  184.7050  178.5610  141.9240 C   0  0  0  0  0  0  0  0  0  0  0  0
  185.2190  177.6510  142.6250 O   0  0  0  0  0  0  0  0  0  0  0  0
  180.0310  178.0350  141.3060 O   0  0  0  0  0  0  0  0  0  0  0  0
  184.0490  179.0920  144.6040 O   0  0  0  0  0  0  0  0  0  0  0  0
  183.3770  179.1260  142.3190 C   0  0  1  0  0  3  0  0  0  0  0  0
  182.3100  178.4760  141.5520 N   0  0  0  0  0  2  0  0  0  0  0  0
  181.7200  178.8310  144.3450 C   0  0  0  0  0  2  0  0  0  0  0  0
  180.9550  178.5340  142.0010 C   0  0  0  0  0  0  0  0  0  0  0  0
  183.1220  179.0060  143.8060 C   0  0  0  0  0  0  0  0  0  0  0  0
  180.6470  179.1900  143.3120 C   0  0  0  0  0  2  0  0  0  0  0  0
  191.6790  178.4640  144.3630 C   0  0  2  0  0  3  0  0  0  0  0  0
  190.5270  179.2580  144.5330 O   0  0  0  0  0  0  0  0  0  0  0  0
  190.9010  179.0020  143.1980 C   0  0  2  0  0  3  0  0  0  0  0  0
  191.3550  177.0340  144.7940 C   0  0  0  0  0  2  0  0  0  0  0  0
  189.8270  176.7580  146.7150 C   0  0  0  0  0  1  0  0  0  0  0  0
  191.2760  176.9170  146.3060 C   0  0  0  0  0  3  0  0  0  0  0  0
  192.0570  175.7080  146.7810 C   0  0  0  0  0  1  0  0  0  0  0  0
  187.6690  177.2500  136.8580 O   0  0  0  0  0  0  0  0  0  0  0  0
  187.3370  175.9330  136.4300 C   0  0  0  0  0  2  0  0  0  0  0  0
  186.7120  175.9800  135.0490 C   0  0  0  0  0  2  0  0  0  0  0  0
  185.2770  175.4850  135.1100 C   0  0  0  0  0  2  0  0  0  0  0  0
  181.7480  177.9150  137.7560 N   0  0  0  0  0  0  0  0  0  0  0  0
  184.3800  176.6120  135.3380 N   0  0  0  0  0  2  0  0  0  0  0  0
  183.6170  176.7840  136.5350 C   0  0  0  0  0  0  0  0  0  0  0  0
  182.6270  178.7950  135.7620 O   0  0  0  0  0  0  0  0  0  0  0  0
  183.7560  175.9600  137.5390 N   0  0  0  0  0  0  0  0  0  0  0  0
  182.6520  177.8910  136.6360 C   0  0  0  0  0  0  0  0  0  0  0  0
  181.6620  176.7260  138.6000 C   0  0  0  0  0  2  0  0  0  0  0  0
  183.0620  176.1500  138.8200 C   0  0  0  0  0  2  0  0  0  0  0  0
  180.0190  179.4710  136.9300 C   0  0  0  0  0  2  0  0  0  0  0  0
  180.9380  179.0830  138.0980 C   0  0  0  0  0  3  0  0  0  0  0  0
  178.9310  183.0110  138.4130 Cl  0  0  0  0  0  0  0  0  0  0  0  0
  179.5100  180.9140  137.0350 C   0  0  0  0  0  2  0  0  0  0  0  0
  179.6170  181.4100  138.4050 N   0  0  0  0  0  0  0  0  0  0  0  0
  181.0360  181.5620  138.7250 C   0  0  0  0  0  2  0  0  0  0  0  0
  181.8180  180.2460  138.5720 C   0  0  0  0  0  2  0  0  0  0  0  0
  2  6  1  0  0  0  0
  3 14  1  0  0  0  0
  4 12  2  0  0  0  0
  5 18  2  0  0  0  0
  5 17  1  0  0  0  0
  6  3  1  0  0  0  0
  6 10  2  0  0  0  0
  7  4  1  0  0  0  0
  7  2  2  0  0  0  0
  8 19  1  0  0  0  0
  8  1  2  0  0  0  0
  9 11  2  0  0  0  0
  9  4  1  0  0  0  0
 11  8  1  0  0  0  0
 12  1  1  0  0  0  0
 12  3  1  0  0  0  0
 14 15  2  0  0  0  0
 16  2  1  0  0  0  0
 16 13  1  0  0  0  0
 17 16  2  0  0  0  0
 18  7  1  0  0  0  0
 19 20  1  0  0  0  0
 20 21  2  0  0  0  0
 22 27  2  0  0  0  0
 24 20  1  1  0  0  0
 24 28  1  0  0  0  0
 25 27  1  0  0  0  0
 25 24  1  0  0  0  0
 27 29  1  0  0  0  0
 28 26  1  0  0  0  0
 28 23  2  0  0  0  0
 29 26  1  0  0  0  0
 30 31  1  0  0  0  0
 30 33  1  6  0  0  0
 32 14  1  6  0  0  0
 32 30  1  0  0  0  0
 32 31  1  0  0  0  0
 33 35  1  0  0  0  0
 35 34  1  0  0  0  0
 35 36  1  0  0  0  0
 37  9  1  0  0  0  0
 38 37  1  0  0  0  0
 39 40  1  0  0  0  0
 39 38  1  0  0  0  0
 40 42  1  0  0  0  0
 41 50  1  0  0  0  0
 41 47  1  0  0  0  0
 42 43  1  0  0  0  0
 43 46  1  0  0  0  0
 43 45  2  0  0  0  0
 44 46  2  0  0  0  0
 45 48  1  0  0  0  0
 46 41  1  0  0  0  0
 47 48  1  0  0  0  0
 49 52  1  0  0  0  0
 49 50  1  0  0  0  0
 50 55  1  0  0  0  0
 52 53  1  0  0  0  0
 53 51  1  0  0  0  0
 53 54  1  0  0  0  0
 55 54  1  0  0  0  0
M  END
>  <MODEL>
6

>  <REMARK>
 VINA RESULT:      -7.8      2.596      7.175
  Name = 
  11 active torsions:
  status: ('A' for Active; 'I' for Inactive)
    1  A    between atoms: C_3  and  C_23
    2  A    between atoms: C_3  and  C_37
    3  A    between atoms: N_4  and  C_21
    4  A    between atoms: C_6  and  C_25
    5  A    between atoms: C_7  and  N_17
    6  A    between atoms: C_10  and  O_35
    7  A    between atoms: C_10  and  C_52
    8  A    between atoms: N_20  and  C_36
    9  A    between atoms: C_22  and  O_35
   10  A    between atoms: C_36  and  C_52
   11  A    between atoms: C_39  and  C_51
                            x       y       z     vdW  Elec       q    Type
                         _______ _______ _______ _____ _____    ______ ____

>  <TORSDO>
F 11

$$$$
=
 OpenBabel10222421043D

 55 61  0  0  1  0  0  0  0  0999 V2000
  190.9010  176.8540  140.0990 C   0  0  0  0  0  3  0  0  0  0  0  0
  187.5600  177.8310  142.4760 C   0  0  0  0  0  0  0  0  0  0  0  0
  189.8080  176.9530  142.2420 N   0  0  0  0  0  0  0  0  0  0  0  0
  188.6640  177.8080  140.2710 C   0  0  0  0  0  0  0  0  0  0  0  0
  185.2620  178.9770  141.3010 C   0  0  0  0  0  3  0  0  0  0  0  0
  188.7300  177.2600  143.0320 C   0  0  0  0  0  0  0  0  0  0  0  0
  187.5350  178.1090  141.0800 C   0  0  0  0  0  0  0  0  0  0  0  0
  190.9380  177.0960  138.7360 C   0  0  0  0  0  0  0  0  0  0  0  0
  188.7130  178.0720  138.8670 C   0  0  0  0  0  0  0  0  0  0  0  0
  188.7980  177.0430  144.2750 O   0  0  0  0  0  0  0  0  0  0  0  0
  189.8460  177.7070  138.1280 C   0  0  0  0  0  3  0  0  0  0  0  0
  189.7940  177.2070  140.8910 C   0  0  0  0  0  0  0  0  0  0  0  0
  186.3080  177.8980  144.7300 C   0  0  0  0  0  1  0  0  0  0  0  0
  190.9970  176.3990  142.8610 C   0  0  0  0  0  0  0  0  0  0  0  0
  192.1100  176.9710  142.7010 O   0  0  0  0  0  0  0  0  0  0  0  0
  186.4060  178.1450  143.2600 C   0  0  0  0  0  0  0  0  0  0  0  0
  185.2810  178.7100  142.6630 C   0  0  0  0  0  3  0  0  0  0  0  0
  186.3750  178.6780  140.5250 C   0  0  0  0  0  3  0  0  0  0  0  0
  192.0850  176.6710  137.9900 N   0  0  0  0  0  2  0  0  0  0  0  0
  192.0720  175.8750  136.8000 C   0  0  0  0  0  0  0  0  0  0  0  0
  190.9990  175.6560  136.1800 O   0  0  0  0  0  0  0  0  0  0  0  0
  196.4350  177.0840  135.3830 O   0  0  0  0  0  0  0  0  0  0  0  0
  193.3280  173.6490  137.9680 O   0  0  0  0  0  0  0  0  0  0  0  0
  193.3530  175.3150  136.2650 C   0  0  1  0  0  3  0  0  0  0  0  0
  194.2640  176.4060  135.9080 N   0  0  0  0  0  2  0  0  0  0  0  0
  195.5150  174.2160  137.2930 C   0  0  0  0  0  2  0  0  0  0  0  0
  195.6640  176.1610  135.7560 C   0  0  0  0  0  0  0  0  0  0  0  0
  194.0100  174.3580  137.2370 C   0  0  0  0  0  0  0  0  0  0  0  0
  196.2040  174.7970  136.0540 C   0  0  0  0  0  2  0  0  0  0  0  0
  191.2530  175.3370  145.1650 C   0  0  2  0  0  3  0  0  0  0  0  0
  192.2130  174.8590  144.2490 O   0  0  0  0  0  0  0  0  0  0  0  0
  190.9440  175.1500  143.7070 C   0  0  2  0  0  3  0  0  0  0  0  0
  191.6520  176.7460  145.5990 C   0  0  0  0  0  2  0  0  0  0  0  0
  190.1390  177.0310  147.5310 C   0  0  0  0  0  1  0  0  0  0  0  0
  191.5870  176.8990  147.1080 C   0  0  0  0  0  3  0  0  0  0  0  0
  192.1890  175.6830  147.7850 C   0  0  0  0  0  1  0  0  0  0  0  0
  187.6460  178.7030  138.2110 O   0  0  0  0  0  0  0  0  0  0  0  0
  187.4290  178.6110  136.8070 C   0  0  0  0  0  2  0  0  0  0  0  0
  186.9480  177.2190  136.4480 C   0  0  0  0  0  2  0  0  0  0  0  0
  186.0090  177.2830  135.2560 C   0  0  0  0  0  2  0  0  0  0  0  0
  181.8740  174.6510  136.4090 N   0  0  0  0  0  0  0  0  0  0  0  0
  185.1910  176.0760  135.2120 N   0  0  0  0  0  2  0  0  0  0  0  0
  183.8480  176.0150  135.7010 C   0  0  0  0  0  0  0  0  0  0  0  0
  183.6180  173.7230  135.1360 O   0  0  0  0  0  0  0  0  0  0  0  0
  183.2500  177.0870  136.1460 N   0  0  0  0  0  0  0  0  0  0  0  0
  183.1340  174.7270  135.7180 C   0  0  0  0  0  0  0  0  0  0  0  0
  181.4820  175.7710  137.2610 C   0  0  0  0  0  2  0  0  0  0  0  0
  181.8450  177.0890  136.5730 C   0  0  0  0  0  2  0  0  0  0  0  0
  181.4100  172.3460  137.1630 C   0  0  0  0  0  2  0  0  0  0  0  0
  180.9620  173.5160  136.2740 C   0  0  0  0  0  3  0  0  0  0  0  0
  178.9620  169.6370  135.5540 Cl  0  0  0  0  0  0  0  0  0  0  0  0
  180.8000  171.0070  136.7280 C   0  0  0  0  0  2  0  0  0  0  0  0
  179.6090  171.2160  135.9080 N   0  0  0  0  0  0  0  0  0  0  0  0
  180.0300  171.7900  134.6300 C   0  0  0  0  0  2  0  0  0  0  0  0
  180.7950  173.1130  134.8030 C   0  0  0  0  0  2  0  0  0  0  0  0
  1 12  1  0  0  0  0
  2  6  1  0  0  0  0
  2 16  1  0  0  0  0
  3 14  1  0  0  0  0
  3  6  1  0  0  0  0
  4 12  2  0  0  0  0
  4  7  1  0  0  0  0
  5 17  1  0  0  0  0
  6 10  2  0  0  0  0
  7  2  2  0  0  0  0
  8  1  2  0  0  0  0
  9  4  1  0  0  0  0
 11  8  1  0  0  0  0
 11  9  2  0  0  0  0
 12  3  1  0  0  0  0
 15 14  2  0  0  0  0
 16 13  1  0  0  0  0
 17 16  2  0  0  0  0
 18  7  1  0  0  0  0
 18  5  2  0  0  0  0
 19  8  1  0  0  0  0
 20 19  1  0  0  0  0
 21 20  2  0  0  0  0
 22 27  2  0  0  0  0
 24 20  1  1  0  0  0
 24 28  1  0  0  0  0
 25 24  1  0  0  0  0
 27 25  1  0  0  0  0
 27 29  1  0  0  0  0
 28 26  1  0  0  0  0
 28 23  2  0  0  0  0
 29 26  1  0  0  0  0
 30 33  1  6  0  0  0
 31 30  1  0  0  0  0
 32 14  1  6  0  0  0
 32 31  1  0  0  0  0
 32 30  1  0  0  0  0
 33 35  1  0  0  0  0
 35 34  1  0  0  0  0
 35 36  1  0  0  0  0
 37  9  1  0  0  0  0
 38 37  1  0  0  0  0
 39 38  1  0  0  0  0
 40 39  1  0  0  0  0
 41 47  1  0  0  0  0
 42 40  1  0  0  0  0
 42 43  1  0  0  0  0
 43 46  1  0  0  0  0
 43 45  2  0  0  0  0
 44 46  2  0  0  0  0
 45 48  1  0  0  0  0
 46 41  1  0  0  0  0
 48 47  1  0  0  0  0
 50 41  1  0  0  0  0
 50 49  1  0  0  0  0
 51 53  1  0  0  0  0
 52 49  1  0  0  0  0
 53 52  1  0  0  0  0
 54 55  1  0  0  0  0
 54 53  1  0  0  0  0
 55 50  1  0  0  0  0
M  END
>  <MODEL>
7

>  <REMARK>
 VINA RESULT:      -7.7      2.829      3.852
  Name = 
  11 active torsions:
  status: ('A' for Active; 'I' for Inactive)
    1  A    between atoms: C_3  and  C_23
    2  A    between atoms: C_3  and  C_37
    3  A    between atoms: N_4  and  C_21
    4  A    between atoms: C_6  and  C_25
    5  A    between atoms: C_7  and  N_17
    6  A    between atoms: C_10  and  O_35
    7  A    between atoms: C_10  and  C_52
    8  A    between atoms: N_20  and  C_36
    9  A    between atoms: C_22  and  O_35
   10  A    between atoms: C_36  and  C_52
   11  A    between atoms: C_39  and  C_51
                            x       y       z     vdW  Elec       q    Type
                         _______ _______ _______ _____ _____    ______ ____

>  <TORSDO>
F 11

$$$$
=
 OpenBabel10222421043D

 55 61  0  0  1  0  0  0  0  0999 V2000
  185.9060  178.3480  139.0560 C   0  0  0  0  0  3  0  0  0  0  0  0
  182.8740  176.8880  136.5170 C   0  0  0  0  0  0  0  0  0  0  0  0
  183.6190  178.3500  138.3030 N   0  0  0  0  0  0  0  0  0  0  0  0
  185.2400  176.8980  137.2120 C   0  0  0  0  0  0  0  0  0  0  0  0
  183.4580  174.9050  134.5940 C   0  0  0  0  0  3  0  0  0  0  0  0
  182.6180  177.8850  137.4890 C   0  0  0  0  0  0  0  0  0  0  0  0
  184.2030  176.3970  136.3800 C   0  0  0  0  0  0  0  0  0  0  0  0
  187.2170  177.9090  138.9740 C   0  0  0  0  0  0  0  0  0  0  0  0
  186.5980  176.4600  137.1200 C   0  0  0  0  0  0  0  0  0  0  0  0
  181.4570  178.3720  137.6030 O   0  0  0  0  0  0  0  0  0  0  0  0
  187.5570  176.9700  138.0050 C   0  0  0  0  0  3  0  0  0  0  0  0
  184.9050  177.8770  138.1870 C   0  0  0  0  0  0  0  0  0  0  0  0
  180.4240  176.7910  135.7140 C   0  0  0  0  0  1  0  0  0  0  0  0
  183.3160  179.3940  139.2620 C   0  0  0  0  0  0  0  0  0  0  0  0
  183.9790  180.4680  139.2480 O   0  0  0  0  0  0  0  0  0  0  0  0
  181.8540  176.3600  135.6640 C   0  0  0  0  0  0  0  0  0  0  0  0
  182.1620  175.3820  134.7210 C   0  0  0  0  0  3  0  0  0  0  0  0
  184.4610  175.4080  135.4140 C   0  0  0  0  0  3  0  0  0  0  0  0
  188.1710  178.4050  139.9190 N   0  0  0  0  0  2  0  0  0  0  0  0
  188.9530  177.6180  140.8250 C   0  0  0  0  0  0  0  0  0  0  0  0
  189.0130  176.3660  140.7090 O   0  0  0  0  0  0  0  0  0  0  0  0
  189.1490  178.2250  145.5270 O   0  0  0  0  0  0  0  0  0  0  0  0
  191.7540  177.4480  140.9710 O   0  0  0  0  0  0  0  0  0  0  0  0
  189.7330  178.2890  141.9120 C   0  0  1  0  0  3  0  0  0  0  0  0
  189.0490  178.1180  143.1970 N   0  0  0  0  0  2  0  0  0  0  0  0
  191.8980  177.7370  143.3070 C   0  0  0  0  0  2  0  0  0  0  0  0
  189.7550  178.3050  144.4250 C   0  0  0  0  0  0  0  0  0  0  0  0
  191.1590  177.7860  141.9890 C   0  0  0  0  0  0  0  0  0  0  0  0
  191.2250  178.5890  144.3870 C   0  0  0  0  0  2  0  0  0  0  0  0
  182.6660  179.0300  141.7000 C   0  0  2  0  0  3  0  0  0  0  0  0
  182.2590  177.9610  140.8770 O   0  0  0  0  0  0  0  0  0  0  0  0
  182.2160  179.2400  140.2830 C   0  0  2  0  0  3  0  0  0  0  0  0
  184.1730  178.9270  141.9250 C   0  0  0  0  0  2  0  0  0  0  0  0
  183.2700  178.9990  144.2230 C   0  0  0  0  0  1  0  0  0  0  0  0
  184.5280  179.1210  143.3890 C   0  0  0  0  0  3  0  0  0  0  0  0
  185.5180  178.0630  143.8340 C   0  0  0  0  0  1  0  0  0  0  0  0
  186.9940  175.5300  136.1470 O   0  0  0  0  0  0  0  0  0  0  0  0
  188.0570  175.7670  135.2300 C   0  0  0  0  0  2  0  0  0  0  0  0
  188.5060  174.4580  134.6100 C   0  0  0  0  0  2  0  0  0  0  0  0
  188.9710  173.5000  135.6930 C   0  0  0  0  0  2  0  0  0  0  0  0
  193.4570  175.2800  137.1280 N   0  0  0  0  0  0  0  0  0  0  0  0
  190.4290  173.4610  135.7190 N   0  0  0  0  0  2  0  0  0  0  0  0
  191.2260  174.3050  136.5550 C   0  0  0  0  0  0  0  0  0  0  0  0
  193.2590  173.3880  135.7490 O   0  0  0  0  0  0  0  0  0  0  0  0
  190.6670  175.1120  137.4150 N   0  0  0  0  0  0  0  0  0  0  0  0
  192.6930  174.2760  136.4360 C   0  0  0  0  0  0  0  0  0  0  0  0
  192.7440  176.4150  137.7080 C   0  0  0  0  0  2  0  0  0  0  0  0
  191.4460  175.9280  138.3560 C   0  0  0  0  0  2  0  0  0  0  0  0
  195.5960  174.8840  135.9610 C   0  0  0  0  0  2  0  0  0  0  0  0
  194.9070  175.1980  137.2970 C   0  0  0  0  0  3  0  0  0  0  0  0
  199.1790  174.0710  137.5170 Cl  0  0  0  0  0  0  0  0  0  0  0  0
  197.0160  174.3310  136.1440 C   0  0  0  0  0  2  0  0  0  0  0  0
  197.5430  174.6700  137.4640 N   0  0  0  0  0  0  0  0  0  0  0  0
  196.7890  173.9150  138.4640 C   0  0  0  0  0  2  0  0  0  0  0  0
  195.2790  174.2040  138.4050 C   0  0  0  0  0  2  0  0  0  0  0  0
  2  6  1  0  0  0  0
  3 14  1  0  0  0  0
  4 12  1  0  0  0  0
  5 17  2  0  0  0  0
  5 18  1  0  0  0  0
  6 10  2  0  0  0  0
  6  3  1  0  0  0  0
  7  2  1  0  0  0  0
  7  4  1  0  0  0  0
  8  1  1  0  0  0  0
  8 19  1  0  0  0  0
  9  4  2  0  0  0  0
  9 11  1  0  0  0  0
 11  8  2  0  0  0  0
 12  3  1  0  0  0  0
 12  1  2  0  0  0  0
 15 14  2  0  0  0  0
 16 13  1  0  0  0  0
 16  2  2  0  0  0  0
 17 16  1  0  0  0  0
 18  7  2  0  0  0  0
 19 20  1  0  0  0  0
 21 20  2  0  0  0  0
 23 28  2  0  0  0  0
 24 20  1  6  0  0  0
 24 28  1  0  0  0  0
 24 25  1  0  0  0  0
 25 27  1  0  0  0  0
 26 29  1  0  0  0  0
 27 22  2  0  0  0  0
 28 26  1  0  0  0  0
 29 27  1  0  0  0  0
 30 33  1  6  0  0  0
 31 30  1  0  0  0  0
 32 14  1  6  0  0  0
 32 31  1  0  0  0  0
 32 30  1  0  0  0  0
 33 35  1  0  0  0  0
 35 36  1  0  0  0  0
 35 34  1  0  0  0  0
 37  9  1  0  0  0  0
 38 37  1  0  0  0  0
 39 38  1  0  0  0  0
 39 40  1  0  0  0  0
 40 42  1  0  0  0  0
 41 50  1  0  0  0  0
 41 47  1  0  0  0  0
 42 43  1  0  0  0  0
 43 45  2  0  0  0  0
 44 46  2  0  0  0  0
 45 48  1  0  0  0  0
 46 43  1  0  0  0  0
 46 41  1  0  0  0  0
 47 48  1  0  0  0  0
 49 52  1  0  0  0  0
 49 50  1  0  0  0  0
 50 55  1  0  0  0  0
 52 53  1  0  0  0  0
 53 51  1  0  0  0  0
 53 54  1  0  0  0  0
 55 54  1  0  0  0  0
M  END
>  <MODEL>
8

>  <REMARK>
 VINA RESULT:      -7.7      3.796      9.951
  Name = 
  11 active torsions:
  status: ('A' for Active; 'I' for Inactive)
    1  A    between atoms: C_3  and  C_23
    2  A    between atoms: C_3  and  C_37
    3  A    between atoms: N_4  and  C_21
    4  A    between atoms: C_6  and  C_25
    5  A    between atoms: C_7  and  N_17
    6  A    between atoms: C_10  and  O_35
    7  A    between atoms: C_10  and  C_52
    8  A    between atoms: N_20  and  C_36
    9  A    between atoms: C_22  and  O_35
   10  A    between atoms: C_36  and  C_52
   11  A    between atoms: C_39  and  C_51
                            x       y       z     vdW  Elec       q    Type
                         _______ _______ _______ _____ _____    ______ ____

>  <TORSDO>
F 11

$$$$
=
 OpenBabel10222421043D

 55 61  0  0  1  0  0  0  0  0999 V2000
  181.7700  175.9690  136.4800 C   0  0  0  0  0  3  0  0  0  0  0  0
  184.1280  172.5350  135.8430 C   0  0  0  0  0  0  0  0  0  0  0  0
  181.9650  173.6000  136.0970 N   0  0  0  0  0  0  0  0  0  0  0  0
  183.9730  174.9740  136.1690 C   0  0  0  0  0  0  0  0  0  0  0  0
  186.9430  172.7370  135.7450 C   0  0  0  0  0  3  0  0  0  0  0  0
  182.7150  172.4700  135.8930 C   0  0  0  0  0  0  0  0  0  0  0  0
  184.7580  173.8040  135.9790 C   0  0  0  0  0  0  0  0  0  0  0  0
  182.3210  177.2320  136.6230 C   0  0  0  0  0  0  0  0  0  0  0  0
  184.5380  176.2810  136.3010 C   0  0  0  0  0  0  0  0  0  0  0  0
  182.1270  171.3630  135.7310 O   0  0  0  0  0  0  0  0  0  0  0  0
  183.7010  177.3820  136.5290 C   0  0  0  0  0  3  0  0  0  0  0  0
  182.5600  174.8310  136.2400 C   0  0  0  0  0  0  0  0  0  0  0  0
  184.4080  169.9930  135.5030 C   0  0  0  0  0  1  0  0  0  0  0  0
  180.5190  173.4900  136.1100 C   0  0  0  0  0  0  0  0  0  0  0  0
  179.8320  174.1960  135.3210 O   0  0  0  0  0  0  0  0  0  0  0  0
  184.9480  171.3780  135.6540 C   0  0  0  0  0  0  0  0  0  0  0  0
  186.3350  171.4970  135.6090 C   0  0  0  0  0  3  0  0  0  0  0  0
  186.1610  173.8710  135.9280 C   0  0  0  0  0  3  0  0  0  0  0  0
  181.4540  178.3360  136.9050 N   0  0  0  0  0  2  0  0  0  0  0  0
  180.7120  179.0960  135.9440 C   0  0  0  0  0  0  0  0  0  0  0  0
  180.6010  178.7020  134.7540 O   0  0  0  0  0  0  0  0  0  0  0  0
  179.7120  181.7950  139.7160 O   0  0  0  0  0  0  0  0  0  0  0  0
  181.1680  181.5330  134.6210 O   0  0  0  0  0  0  0  0  0  0  0  0
  180.0340  180.3640  136.3600 C   0  0  1  0  0  3  0  0  0  0  0  0
  180.0150  180.4630  137.8220 N   0  0  0  0  0  2  0  0  0  0  0  0
  180.6880  182.9130  136.4720 C   0  0  0  0  0  2  0  0  0  0  0  0
  179.7960  181.7220  138.4600 C   0  0  0  0  0  0  0  0  0  0  0  0
  180.6790  181.5870  135.7440 C   0  0  0  0  0  0  0  0  0  0  0  0
  179.6760  182.9560  137.6210 C   0  0  0  0  0  2  0  0  0  0  0  0
  179.3390  173.1330  138.3410 C   0  0  2  0  0  3  0  0  0  0  0  0
  180.5250  172.3780  138.2400 O   0  0  0  0  0  0  0  0  0  0  0  0
  179.8020  172.5430  137.0410 C   0  0  2  0  0  3  0  0  0  0  0  0
  179.7100  174.5940  138.5940 C   0  0  0  0  0  2  0  0  0  0  0  0
  179.2890  174.2780  141.0080 C   0  0  0  0  0  1  0  0  0  0  0  0
  178.9810  175.1470  139.8070 C   0  0  0  0  0  3  0  0  0  0  0  0
  179.4370  176.5630  140.0930 C   0  0  0  0  0  1  0  0  0  0  0  0
  185.9210  176.4860  136.1940 O   0  0  0  0  0  0  0  0  0  0  0  0
  186.5260  177.7730  136.2710 C   0  0  0  0  0  2  0  0  0  0  0  0
  188.0360  177.6390  136.2180 C   0  0  0  0  0  2  0  0  0  0  0  0
  188.6880  178.7930  136.9580 C   0  0  0  0  0  2  0  0  0  0  0  0
  189.1670  178.0300  141.9120 N   0  0  0  0  0  0  0  0  0  0  0  0
  189.4020  178.2870  138.1240 N   0  0  0  0  0  2  0  0  0  0  0  0
  188.8460  178.2650  139.4420 C   0  0  0  0  0  0  0  0  0  0  0  0
  190.8050  177.3160  140.3850 O   0  0  0  0  0  0  0  0  0  0  0  0
  187.6100  178.6300  139.6510 N   0  0  0  0  0  0  0  0  0  0  0  0
  189.6770  177.8390  140.5800 C   0  0  0  0  0  0  0  0  0  0  0  0
  187.9710  178.8510  142.0840 C   0  0  0  0  0  2  0  0  0  0  0  0
  186.9700  178.5380  140.9700 C   0  0  0  0  0  2  0  0  0  0  0  0
  188.7890  177.3920  144.2670 C   0  0  0  0  0  2  0  0  0  0  0  0
  189.7770  177.4170  143.0910 C   0  0  0  0  0  3  0  0  0  0  0  0
  191.4710  176.3970  147.0480 Cl  0  0  0  0  0  0  0  0  0  0  0  0
  189.4870  177.2090  145.6210 C   0  0  0  0  0  2  0  0  0  0  0  0
  190.8220  176.6390  145.4490 N   0  0  0  0  0  0  0  0  0  0  0  0
  191.6660  177.6430  144.8030 C   0  0  0  0  0  2  0  0  0  0  0  0
  191.1040  178.1000  143.4460 C   0  0  0  0  0  2  0  0  0  0  0  0
  1  8  1  0  0  0  0
  2  6  1  0  0  0  0
  2  7  1  0  0  0  0
  3 14  1  0  0  0  0
  3 12  1  0  0  0  0
  4 12  1  0  0  0  0
  4  9  2  0  0  0  0
  5 18  1  0  0  0  0
  6  3  1  0  0  0  0
  7  4  1  0  0  0  0
  8 19  1  0  0  0  0
  9 11  1  0  0  0  0
 10  6  2  0  0  0  0
 11  8  2  0  0  0  0
 12  1  2  0  0  0  0
 13 16  1  0  0  0  0
 15 14  2  0  0  0  0
 16  2  2  0  0  0  0
 17 16  1  0  0  0  0
 17  5  2  0  0  0  0
 18  7  2  0  0  0  0
 20 19  1  0  0  0  0
 21 20  2  0  0  0  0
 23 28  2  0  0  0  0
 24 20  1  1  0  0  0
 24 25  1  0  0  0  0
 25 27  1  0  0  0  0
 26 29  1  0  0  0  0
 27 22  2  0  0  0  0
 28 24  1  0  0  0  0
 28 26  1  0  0  0  0
 29 27  1  0  0  0  0
 30 33  1  6  0  0  0
 31 30  1  0  0  0  0
 32 14  1  6  0  0  0
 32 31  1  0  0  0  0
 32 30  1  0  0  0  0
 33 35  1  0  0  0  0
 35 36  1  0  0  0  0
 35 34  1  0  0  0  0
 37 38  1  0  0  0  0
 37  9  1  0  0  0  0
 39 38  1  0  0  0  0
 39 40  1  0  0  0  0
 40 42  1  0  0  0  0
 41 47  1  0  0  0  0
 41 50  1  0  0  0  0
 42 43  1  0  0  0  0
 43 45  2  0  0  0  0
 43 46  1  0  0  0  0
 44 46  2  0  0  0  0
 45 48  1  0  0  0  0
 46 41  1  0  0  0  0
 48 47  1  0  0  0  0
 49 52  1  0  0  0  0
 50 55  1  0  0  0  0
 50 49  1  0  0  0  0
 53 52  1  0  0  0  0
 53 51  1  0  0  0  0
 54 53  1  0  0  0  0
 55 54  1  0  0  0  0
M  END
>  <MODEL>
9

>  <REMARK>
 VINA RESULT:      -7.6      4.156     11.137
  Name = 
  11 active torsions:
  status: ('A' for Active; 'I' for Inactive)
    1  A    between atoms: C_3  and  C_23
    2  A    between atoms: C_3  and  C_37
    3  A    between atoms: N_4  and  C_21
    4  A    between atoms: C_6  and  C_25
    5  A    between atoms: C_7  and  N_17
    6  A    between atoms: C_10  and  O_35
    7  A    between atoms: C_10  and  C_52
    8  A    between atoms: N_20  and  C_36
    9  A    between atoms: C_22  and  O_35
   10  A    between atoms: C_36  and  C_52
   11  A    between atoms: C_39  and  C_51
                            x       y       z     vdW  Elec       q    Type
                         _______ _______ _______ _____ _____    ______ ____

>  <TORSDO>
F 11

$$$$
