=
 OpenBabel10222421203D

 45 51  0  0  1  0  0  0  0  0999 V2000
  185.2720  173.5260  135.6850 C   0  0  2  0  0  3  0  0  0  0  0  0
  180.8210  179.1170  140.1490 C   0  0  0  0  0  3  0  0  0  0  0  0
  189.0220  176.6730  135.9830 N   0  0  0  0  0  0  0  0  0  0  0  0
  184.7250  176.2530  136.6450 C   0  0  2  0  0  3  0  0  0  0  0  0
  179.7170  179.1310  139.2940 C   0  0  0  0  0  3  0  0  0  0  0  0
  188.5180  175.4030  136.5110 C   0  0  1  0  0  3  0  0  0  0  0  0
  186.5640  173.8240  136.4490 C   0  0  0  0  0  2  0  0  0  0  0  0
  184.0010  173.8360  136.4920 C   0  0  0  0  0  2  0  0  0  0  0  0
  185.7580  178.9570  141.8780 C   0  0  0  0  0  3  0  0  0  0  0  0
  179.7280  178.3660  138.1260 C   0  0  0  0  0  3  0  0  0  0  0  0
  180.8320  176.8430  136.6290 O   0  0  0  0  0  1  0  0  0  0  0  0
  188.8560  175.2530  138.3050 S   0  0  0  0  0  0  0  0  0  0  0  0
  183.0830  178.3150  140.7080 N   0  0  0  0  0  2  0  0  0  0  0  0
  186.9190  178.1230  143.8310 C   0  0  0  0  0  3  0  0  0  0  0  0
  188.6380  177.3480  141.2120 C   0  0  0  0  0  2  0  0  0  0  0  0
  184.5080  178.3640  143.8700 C   0  0  0  0  0  0  0  0  0  0  0  0
  190.3320  177.2430  139.4070 C   0  0  0  0  0  3  0  0  0  0  0  0
  189.3040  176.9960  138.3510 C   0  0  1  0  0  3  0  0  0  0  0  0
  182.9270  175.4490  137.9570 O   0  0  0  0  0  0  0  0  0  0  0  0
  183.1900  176.7680  138.3470 C   0  0  2  0  0  3  0  0  0  0  0  0
  188.2480  178.6990  141.7910 C   0  0  0  0  0  2  0  0  0  0  0  0
  181.9510  177.5510  138.6730 C   0  0  0  0  0  0  0  0  0  0  0  0
  184.1440  175.0640  137.3850 C   0  0  2  0  0  3  0  0  0  0  0  0
  183.3040  178.2380  144.5550 O   0  0  0  0  0  1  0  0  0  0  0  0
  185.7010  178.0070  144.5070 C   0  0  0  0  0  3  0  0  0  0  0  0
  186.2100  176.3200  136.9530 C   0  0  0  0  0  2  0  0  0  0  0  0
  183.2650  179.2000  141.8470 C   0  0  0  0  0  2  0  0  0  0  0  0
  186.9500  178.5980  142.5170 C   0  0  0  0  0  0  0  0  0  0  0  0
  180.8400  177.5810  137.8070 C   0  0  0  0  0  0  0  0  0  0  0  0
  189.9100  178.6640  136.7870 F   0  0  0  0  0  0  0  0  0  0  0  0
  184.5330  178.8430  142.5510 C   0  0  0  0  0  0  0  0  0  0  0  0
  184.0220  177.4230  137.2690 C   0  0  0  0  0  2  0  0  0  0  0  0
  190.0440  177.3940  140.7010 C   0  0  0  0  0  0  0  0  0  0  0  0
  181.9410  178.3310  139.8440 C   0  0  0  0  0  0  0  0  0  0  0  0
  189.8730  177.2950  136.9890 C   0  0  2  0  0  3  0  0  0  0  0  0
  187.0260  175.2630  136.1940 C   0  0  1  0  0  3  0  0  0  0  0  0
  191.0820  177.6000  141.6000 O   0  0  0  0  0  1  0  0  0  0  0  0
  185.2540  172.1220  135.2770 C   0  0  0  0  0  0  0  0  0  0  0  0
  185.2390  171.0100  134.9550 N   0  0  0  0  0  0  0  0  0  0  0  0
  189.8690  176.3520  134.8450 C   0  0  0  0  0  2  0  0  0  0  0  0
  191.2790  176.0420  135.3180 C   0  0  2  0  0  3  0  0  0  0  0  0
  193.3840  176.0280  134.5940 C   0  0  0  0  0  2  0  0  0  0  0  0
  192.9940  174.5690  134.6050 C   0  0  0  0  0  2  0  0  0  0  0  0
  192.2130  176.7980  134.5940 O   0  0  0  0  0  0  0  0  0  0  0  0
  191.5790  174.5790  135.1010 C   0  0  0  0  0  2  0  0  0  0  0  0
  1 38  1  1  0  0  0
  1  7  1  0  0  0  0
  1  8  1  0  0  0  0
  3  6  1  0  0  0  0
  3 35  1  0  0  0  0
  4 26  1  1  0  0  0
  4 32  1  0  0  0  0
  4 23  1  0  0  0  0
  5  2  2  0  0  0  0
  6 12  1  1  0  0  0
  9 28  2  0  0  0  0
  9 31  1  0  0  0  0
 10  5  1  0  0  0  0
 11 29  1  0  0  0  0
 12 18  1  0  0  0  0
 13 27  1  0  0  0  0
 14 25  2  0  0  0  0
 15 21  1  0  0  0  0
 16 25  1  0  0  0  0
 16 24  1  0  0  0  0
 17 33  2  0  0  0  0
 18 17  1  1  0  0  0
 19 20  1  0  0  0  0
 20 32  1  6  0  0  0
 20 22  1  0  0  0  0
 21 28  1  0  0  0  0
 22 34  2  0  0  0  0
 23  8  1  6  0  0  0
 23 19  1  0  0  0  0
 27 31  1  0  0  0  0
 28 14  1  0  0  0  0
 29 10  2  0  0  0  0
 29 22  1  0  0  0  0
 31 16  2  0  0  0  0
 33 15  1  0  0  0  0
 33 37  1  0  0  0  0
 34  2  1  0  0  0  0
 34 13  1  0  0  0  0
 35 30  1  6  0  0  0
 35 18  1  0  0  0  0
 36  7  1  1  0  0  0
 36  6  1  0  0  0  0
 36 26  1  0  0  0  0
 39 38  3  0  0  0  0
 40  3  1  0  0  0  0
 41 40  1  6  0  0  0
 42 43  1  0  0  0  0
 43 45  1  0  0  0  0
 44 42  1  0  0  0  0
 44 41  1  0  0  0  0
 45 41  1  0  0  0  0
M  END
>  <MODEL>
1

>  <REMARK>
 VINA RESULT:      -6.7      0.000      0.000
  Name = 
  3 active torsions:
  status: ('A' for Active; 'I' for Inactive)
    1  A    between atoms: C_1  and  C_19
    2  A    between atoms: C_3  and  C_7
    3  A    between atoms: N_4  and  C_7
                            x       y       z     vdW  Elec       q    Type
                         _______ _______ _______ _____ _____    ______ ____

>  <TORSDO>
F 3

$$$$
=
 OpenBabel10222421203D

 45 51  0  0  1  0  0  0  0  0999 V2000
  184.7470  179.3760  141.8720 C   0  0  2  0  0  3  0  0  0  0  0  0
  188.7790  176.2670  135.1590 C   0  0  0  0  0  3  0  0  0  0  0  0
  180.6630  179.2140  139.1610 N   0  0  0  0  0  0  0  0  0  0  0  0
  185.0160  178.9040  138.9800 C   0  0  2  0  0  3  0  0  0  0  0  0
  189.8050  177.2140  135.1610 C   0  0  0  0  0  3  0  0  0  0  0  0
  181.3620  178.5470  140.2620 C   0  0  1  0  0  3  0  0  0  0  0  0
  183.4890  178.5490  141.6000 C   0  0  0  0  0  2  0  0  0  0  0  0
  186.0260  178.7500  141.2920 C   0  0  0  0  0  2  0  0  0  0  0  0
  184.0460  174.0750  135.5870 C   0  0  0  0  0  3  0  0  0  0  0  0
  189.8030  178.2430  136.1040 C   0  0  0  0  0  3  0  0  0  0  0  0
  188.7910  179.3770  137.9670 O   0  0  0  0  0  1  0  0  0  0  0  0
  181.1800  176.7270  140.1530 S   0  0  0  0  0  0  0  0  0  0  0  0
  186.6850  175.3800  136.1070 N   0  0  0  0  0  2  0  0  0  0  0  0
  183.1500  171.9170  136.2150 C   0  0  0  0  0  3  0  0  0  0  0  0
  181.3500  174.2110  137.5980 C   0  0  0  0  0  2  0  0  0  0  0  0
  185.5070  172.1430  135.7000 C   0  0  0  0  0  0  0  0  0  0  0  0
  179.5520  175.8100  138.1880 C   0  0  0  0  0  3  0  0  0  0  0  0
  180.5220  176.9080  138.4870 C   0  0  1  0  0  3  0  0  0  0  0  0
  186.9950  177.6590  139.3500 O   0  0  0  0  0  0  0  0  0  0  0  0
  186.5980  177.4530  138.0230 C   0  0  2  0  0  3  0  0  0  0  0  0
  181.6090  173.8860  136.1350 C   0  0  0  0  0  2  0  0  0  0  0  0
  187.7490  177.3700  137.0620 C   0  0  0  0  0  0  0  0  0  0  0  0
  185.7960  178.0480  139.9590 C   0  0  2  0  0  3  0  0  0  0  0  0
  186.7650  171.5630  135.5770 O   0  0  0  0  0  1  0  0  0  0  0  0
  184.4200  171.3490  136.0800 C   0  0  0  0  0  3  0  0  0  0  0  0
  183.5620  178.4710  139.0310 C   0  0  0  0  0  2  0  0  0  0  0  0
  186.4790  174.3790  135.0740 C   0  0  0  0  0  2  0  0  0  0  0  0
  182.9600  173.2800  135.9680 C   0  0  0  0  0  0  0  0  0  0  0  0
  188.7790  178.3310  137.0510 C   0  0  0  0  0  0  0  0  0  0  0  0
  179.5940  178.6460  137.1780 F   0  0  0  0  0  0  0  0  0  0  0  0
  185.3230  173.5110  135.4510 C   0  0  0  0  0  0  0  0  0  0  0  0
  185.6110  178.5360  137.6520 C   0  0  0  0  0  2  0  0  0  0  0  0
  179.9160  174.5890  137.7950 C   0  0  0  0  0  0  0  0  0  0  0  0
  187.7480  176.3400  136.1050 C   0  0  0  0  0  0  0  0  0  0  0  0
  179.8180  178.2400  138.4820 C   0  0  2  0  0  3  0  0  0  0  0  0
  182.8310  178.9780  140.2830 C   0  0  1  0  0  3  0  0  0  0  0  0
  178.9310  173.6380  137.5620 O   0  0  0  0  0  1  0  0  0  0  0  0
  184.9120  179.5640  143.3130 C   0  0  0  0  0  0  0  0  0  0  0  0
  185.0410  179.7130  144.4530 N   0  0  0  0  0  0  0  0  0  0  0  0
  179.7800  180.2040  139.7580 C   0  0  0  0  0  2  0  0  0  0  0  0
  180.2110  181.6010  139.3400 C   0  0  2  0  0  3  0  0  0  0  0  0
  179.6140  183.2620  137.9850 C   0  0  0  0  0  2  0  0  0  0  0  0
  180.7900  182.6250  137.2820 C   0  0  0  0  0  2  0  0  0  0  0  0
  179.1010  182.3440  138.9100 O   0  0  0  0  0  0  0  0  0  0  0  0
  181.1960  181.5110  138.2000 C   0  0  0  0  0  2  0  0  0  0  0  0
  1 38  1  1  0  0  0
  2  5  2  0  0  0  0
  2 34  1  0  0  0  0
  3 40  1  0  0  0  0
  3  6  1  0  0  0  0
  4 32  1  6  0  0  0
  4 26  1  0  0  0  0
  4 23  1  0  0  0  0
  5 10  1  0  0  0  0
  6 12  1  6  0  0  0
  6 36  1  0  0  0  0
  7  1  1  0  0  0  0
  8  1  1  0  0  0  0
  9 28  1  0  0  0  0
 10 29  2  0  0  0  0
 15 33  1  0  0  0  0
 16 25  2  0  0  0  0
 18 17  1  1  0  0  0
 18 12  1  0  0  0  0
 19 23  1  0  0  0  0
 20 32  1  6  0  0  0
 20 19  1  0  0  0  0
 21 15  1  0  0  0  0
 22 20  1  0  0  0  0
 23  8  1  1  0  0  0
 24 16  1  0  0  0  0
 25 14  1  0  0  0  0
 27 31  1  0  0  0  0
 27 13  1  0  0  0  0
 28 21  1  0  0  0  0
 28 14  2  0  0  0  0
 29 22  1  0  0  0  0
 29 11  1  0  0  0  0
 31  9  2  0  0  0  0
 31 16  1  0  0  0  0
 33 17  2  0  0  0  0
 34 13  1  0  0  0  0
 34 22  2  0  0  0  0
 35 30  1  6  0  0  0
 35 18  1  0  0  0  0
 35  3  1  0  0  0  0
 36 26  1  6  0  0  0
 36  7  1  0  0  0  0
 37 33  1  0  0  0  0
 38 39  3  0  0  0  0
 41 40  1  6  0  0  0
 42 44  1  0  0  0  0
 43 42  1  0  0  0  0
 43 45  1  0  0  0  0
 44 41  1  0  0  0  0
 45 41  1  0  0  0  0
M  END
>  <MODEL>
2

>  <REMARK>
 VINA RESULT:      -6.7      3.258      9.726
  Name = 
  3 active torsions:
  status: ('A' for Active; 'I' for Inactive)
    1  A    between atoms: C_1  and  C_19
    2  A    between atoms: C_3  and  C_7
    3  A    between atoms: N_4  and  C_7
                            x       y       z     vdW  Elec       q    Type
                         _______ _______ _______ _____ _____    ______ ____

>  <TORSDO>
F 3

$$$$
=
 OpenBabel10222421203D

 45 51  0  0  1  0  0  0  0  0999 V2000
  185.3050  179.3780  141.3650 C   0  0  2  0  0  3  0  0  0  0  0  0
  189.6010  175.2720  135.3910 C   0  0  0  0  0  3  0  0  0  0  0  0
  181.7180  179.8890  138.0600 N   0  0  0  0  0  0  0  0  0  0  0  0
  185.9030  178.7420  138.5550 C   0  0  2  0  0  3  0  0  0  0  0  0
  190.7810  176.0040  135.5390 C   0  0  0  0  0  3  0  0  0  0  0  0
  182.1010  179.1470  139.2640 C   0  0  1  0  0  3  0  0  0  0  0  0
  183.9640  178.7970  140.9130 C   0  0  0  0  0  2  0  0  0  0  0  0
  186.5080  178.4940  140.9960 C   0  0  0  0  0  2  0  0  0  0  0  0
  184.5200  174.0500  135.1130 C   0  0  0  0  0  3  0  0  0  0  0  0
  190.8410  177.0540  136.4580 C   0  0  0  0  0  3  0  0  0  0  0  0
  189.8050  178.4380  138.1290 O   0  0  0  0  0  1  0  0  0  0  0  0
  181.5840  177.3930  139.1500 S   0  0  0  0  0  0  0  0  0  0  0  0
  187.2560  174.8450  136.0170 N   0  0  0  0  0  2  0  0  0  0  0  0
  183.1350  172.1320  135.6220 C   0  0  0  0  0  3  0  0  0  0  0  0
  181.6350  174.7860  136.6830 C   0  0  0  0  0  2  0  0  0  0  0  0
  185.5400  171.8800  135.4730 C   0  0  0  0  0  0  0  0  0  0  0  0
  180.1180  176.7240  136.9690 C   0  0  0  0  0  3  0  0  0  0  0  0
  181.2290  177.6270  137.4010 C   0  0  1  0  0  3  0  0  0  0  0  0
  187.5220  177.1560  139.2400 O   0  0  0  0  0  0  0  0  0  0  0  0
  187.2940  176.9750  137.8700 C   0  0  2  0  0  3  0  0  0  0  0  0
  182.0390  174.3560  135.2810 C   0  0  0  0  0  2  0  0  0  0  0  0
  188.5360  176.6320  137.1000 C   0  0  0  0  0  0  0  0  0  0  0  0
  186.3460  177.7930  139.6530 C   0  0  2  0  0  3  0  0  0  0  0  0
  186.6640  171.0650  135.5520 O   0  0  0  0  0  1  0  0  0  0  0  0
  184.2740  171.3270  135.6910 C   0  0  0  0  0  3  0  0  0  0  0  0
  184.4010  178.5990  138.3870 C   0  0  0  0  0  2  0  0  0  0  0  0
  187.0140  173.8590  134.9760 C   0  0  0  0  0  2  0  0  0  0  0  0
  183.2540  173.4950  135.3320 C   0  0  0  0  0  0  0  0  0  0  0  0
  189.7250  177.3770  137.2350 C   0  0  0  0  0  0  0  0  0  0  0  0
  180.8650  179.4540  135.9430 F   0  0  0  0  0  0  0  0  0  0  0  0
  185.6670  173.2470  135.1820 C   0  0  0  0  0  0  0  0  0  0  0  0
  186.6050  178.2110  137.3390 C   0  0  0  0  0  2  0  0  0  0  0  0
  180.2890  175.4400  136.6520 C   0  0  0  0  0  0  0  0  0  0  0  0
  188.4750  175.5820  136.1660 C   0  0  0  0  0  0  0  0  0  0  0  0
  180.8090  179.0670  137.2710 C   0  0  2  0  0  3  0  0  0  0  0  0
  183.6060  179.2880  139.5050 C   0  0  1  0  0  3  0  0  0  0  0  0
  179.1830  174.6870  136.2820 O   0  0  0  0  0  1  0  0  0  0  0  0
  185.2880  179.5910  142.8110 C   0  0  0  0  0  0  0  0  0  0  0  0
  185.2730  179.7580  143.9570 N   0  0  0  0  0  0  0  0  0  0  0  0
  180.9680  181.0540  138.5010 C   0  0  0  0  0  2  0  0  0  0  0  0
  181.1080  182.1760  137.4860 C   0  0  2  0  0  3  0  0  0  0  0  0
  181.5550  184.3530  137.3640 C   0  0  0  0  0  2  0  0  0  0  0  0
  180.0600  184.2780  137.1650 C   0  0  0  0  0  2  0  0  0  0  0  0
  181.9810  183.1630  137.9690 O   0  0  0  0  0  0  0  0  0  0  0  0
  179.7610  182.8110  137.2390 C   0  0  0  0  0  2  0  0  0  0  0  0
  1 38  1  1  0  0  0
  2  5  2  0  0  0  0
  2 34  1  0  0  0  0
  3 40  1  0  0  0  0
  3  6  1  0  0  0  0
  4 32  1  6  0  0  0
  4 23  1  0  0  0  0
  5 10  1  0  0  0  0
  6 12  1  6  0  0  0
  6 36  1  0  0  0  0
  7  1  1  0  0  0  0
  8  1  1  0  0  0  0
  9 31  2  0  0  0  0
  9 28  1  0  0  0  0
 10 29  2  0  0  0  0
 13 34  1  0  0  0  0
 14 25  1  0  0  0  0
 16 24  1  0  0  0  0
 16 25  2  0  0  0  0
 18 17  1  1  0  0  0
 18 12  1  0  0  0  0
 19 23  1  0  0  0  0
 20 32  1  6  0  0  0
 20 19  1  0  0  0  0
 21 28  1  0  0  0  0
 21 15  1  0  0  0  0
 22 29  1  0  0  0  0
 22 20  1  0  0  0  0
 23  8  1  1  0  0  0
 26  4  1  0  0  0  0
 27 31  1  0  0  0  0
 27 13  1  0  0  0  0
 28 14  2  0  0  0  0
 29 11  1  0  0  0  0
 31 16  1  0  0  0  0
 33 15  1  0  0  0  0
 33 17  2  0  0  0  0
 34 22  2  0  0  0  0
 35 30  1  6  0  0  0
 35 18  1  0  0  0  0
 35  3  1  0  0  0  0
 36 26  1  6  0  0  0
 36  7  1  0  0  0  0
 37 33  1  0  0  0  0
 38 39  3  0  0  0  0
 41 44  1  0  0  0  0
 41 40  1  1  0  0  0
 42 44  1  0  0  0  0
 43 45  1  0  0  0  0
 43 42  1  0  0  0  0
 45 41  1  0  0  0  0
M  END
>  <MODEL>
3

>  <REMARK>
 VINA RESULT:      -5.7      3.251      9.703
  Name = 
  3 active torsions:
  status: ('A' for Active; 'I' for Inactive)
    1  A    between atoms: C_1  and  C_19
    2  A    between atoms: C_3  and  C_7
    3  A    between atoms: N_4  and  C_7
                            x       y       z     vdW  Elec       q    Type
                         _______ _______ _______ _____ _____    ______ ____

>  <TORSDO>
F 3

$$$$
=
 OpenBabel10222421203D

 45 51  0  0  1  0  0  0  0  0999 V2000
  184.7120  179.0540  141.2920 C   0  0  2  0  0  3  0  0  0  0  0  0
  188.9830  176.1510  134.6340 C   0  0  0  0  0  3  0  0  0  0  0  0
  180.6420  178.3860  138.6370 N   0  0  0  0  0  0  0  0  0  0  0  0
  185.0030  178.5160  138.4140 C   0  0  2  0  0  3  0  0  0  0  0  0
  189.9070  177.1980  134.5940 C   0  0  0  0  0  3  0  0  0  0  0  0
  181.4160  177.8310  139.7510 C   0  0  1  0  0  3  0  0  0  0  0  0
  183.5430  178.0940  141.0620 C   0  0  0  0  0  2  0  0  0  0  0  0
  186.0430  178.5430  140.7170 C   0  0  0  0  0  2  0  0  0  0  0  0
  184.5030  173.5030  135.1910 C   0  0  0  0  0  3  0  0  0  0  0  0
  189.8080  178.2520  135.5030 C   0  0  0  0  0  3  0  0  0  0  0  0
  188.7010  179.3380  137.3400 O   0  0  0  0  0  1  0  0  0  0  0  0
  181.4210  175.9990  139.7020 S   0  0  0  0  0  0  0  0  0  0  0  0
  186.9990  175.0870  135.6360 N   0  0  0  0  0  2  0  0  0  0  0  0
  183.8380  171.2870  135.8980 C   0  0  0  0  0  3  0  0  0  0  0  0
  181.8250  173.4300  137.2280 C   0  0  0  0  0  2  0  0  0  0  0  0
  186.1550  171.7350  135.3480 C   0  0  0  0  0  0  0  0  0  0  0  0
  179.8780  174.8560  137.7880 C   0  0  0  0  0  3  0  0  0  0  0  0
  180.7320  176.0570  138.0400 C   0  0  1  0  0  3  0  0  0  0  0  0
  187.1020  177.4920  138.8000 O   0  0  0  0  0  0  0  0  0  0  0  0
  186.7170  177.2040  137.4850 C   0  0  2  0  0  3  0  0  0  0  0  0
  182.1030  173.0850  135.7740 C   0  0  0  0  0  2  0  0  0  0  0  0
  187.8620  177.2060  136.5140 C   0  0  0  0  0  0  0  0  0  0  0  0
  185.8750  177.7770  139.4100 C   0  0  2  0  0  3  0  0  0  0  0  0
  187.4650  171.2830  135.2280 O   0  0  0  0  0  1  0  0  0  0  0  0
  185.1580  170.8480  135.7660 C   0  0  0  0  0  3  0  0  0  0  0  0
  183.6010  177.9390  138.4960 C   0  0  0  0  0  2  0  0  0  0  0  0
  186.8880  174.0360  134.6380 C   0  0  0  0  0  2  0  0  0  0  0  0
  183.5070  172.6140  135.6100 C   0  0  0  0  0  0  0  0  0  0  0  0
  188.7880  178.2670  136.4590 C   0  0  0  0  0  0  0  0  0  0  0  0
  179.6210  177.6460  136.6870 F   0  0  0  0  0  0  0  0  0  0  0  0
  185.8290  173.0690  135.0570 C   0  0  0  0  0  0  0  0  0  0  0  0
  185.6210  178.1670  137.0910 C   0  0  0  0  0  2  0  0  0  0  0  0
  180.3610  173.6660  137.4300 C   0  0  0  0  0  0  0  0  0  0  0  0
  187.9580  176.1500  135.5900 C   0  0  0  0  0  0  0  0  0  0  0  0
  179.8960  177.3090  138.0000 C   0  0  2  0  0  3  0  0  0  0  0  0
  182.8330  178.4100  139.7410 C   0  0  1  0  0  3  0  0  0  0  0  0
  179.4770  172.6120  137.2400 O   0  0  0  0  0  1  0  0  0  0  0  0
  184.8700  179.3050  142.7240 C   0  0  0  0  0  0  0  0  0  0  0  0
  184.9920  179.5050  143.8580 N   0  0  0  0  0  0  0  0  0  0  0  0
  179.6690  179.3010  139.2120 C   0  0  0  0  0  2  0  0  0  0  0  0
  179.9350  179.4750  140.6980 C   0  0  2  0  0  3  0  0  0  0  0  0
  178.9310  179.2610  142.6730 C   0  0  0  0  0  2  0  0  0  0  0  0
  178.9480  180.7530  142.4330 C   0  0  0  0  0  2  0  0  0  0  0  0
  179.1160  178.6150  141.4440 O   0  0  0  0  0  0  0  0  0  0  0  0
  179.6310  180.8960  141.1060 C   0  0  0  0  0  2  0  0  0  0  0  0
  1 38  1  1  0  0  0
  2 34  1  0  0  0  0
  3 40  1  0  0  0  0
  3  6  1  0  0  0  0
  4 32  1  6  0  0  0
  4 26  1  0  0  0  0
  4 23  1  0  0  0  0
  5  2  2  0  0  0  0
  5 10  1  0  0  0  0
  6 12  1  6  0  0  0
  7  1  1  0  0  0  0
  8  1  1  0  0  0  0
  9 28  1  0  0  0  0
 10 29  2  0  0  0  0
 15 33  1  0  0  0  0
 16 25  2  0  0  0  0
 18 17  1  1  0  0  0
 18 12  1  0  0  0  0
 19 23  1  0  0  0  0
 20 32  1  6  0  0  0
 20 19  1  0  0  0  0
 21 15  1  0  0  0  0
 22 20  1  0  0  0  0
 23  8  1  1  0  0  0
 24 16  1  0  0  0  0
 25 14  1  0  0  0  0
 27 31  1  0  0  0  0
 27 13  1  0  0  0  0
 28 21  1  0  0  0  0
 28 14  2  0  0  0  0
 29 22  1  0  0  0  0
 29 11  1  0  0  0  0
 31  9  2  0  0  0  0
 31 16  1  0  0  0  0
 33 17  2  0  0  0  0
 34 13  1  0  0  0  0
 34 22  2  0  0  0  0
 35 30  1  6  0  0  0
 35 18  1  0  0  0  0
 35  3  1  0  0  0  0
 36 26  1  6  0  0  0
 36  6  1  0  0  0  0
 36  7  1  0  0  0  0
 37 33  1  0  0  0  0
 38 39  3  0  0  0  0
 41 40  1  6  0  0  0
 41 45  1  0  0  0  0
 41 44  1  0  0  0  0
 43 42  1  0  0  0  0
 44 42  1  0  0  0  0
 45 43  1  0  0  0  0
M  END
>  <MODEL>
4

>  <REMARK>
 VINA RESULT:      -5.6      3.235      9.929
  Name = 
  3 active torsions:
  status: ('A' for Active; 'I' for Inactive)
    1  A    between atoms: C_1  and  C_19
    2  A    between atoms: C_3  and  C_7
    3  A    between atoms: N_4  and  C_7
                            x       y       z     vdW  Elec       q    Type
                         _______ _______ _______ _____ _____    ______ ____

>  <TORSDO>
F 3

$$$$
=
 OpenBabel10222421203D

 45 51  0  0  1  0  0  0  0  0999 V2000
  183.7030  174.9200  136.4600 C   0  0  2  0  0  3  0  0  0  0  0  0
  181.5820  179.4830  143.2180 C   0  0  0  0  0  3  0  0  0  0  0  0
  187.7190  177.7200  136.1610 N   0  0  0  0  0  0  0  0  0  0  0  0
  183.8210  177.3600  138.1000 C   0  0  2  0  0  3  0  0  0  0  0  0
  180.2780  179.7550  142.8000 C   0  0  0  0  0  3  0  0  0  0  0  0
  187.2500  176.3860  136.5440 C   0  0  1  0  0  3  0  0  0  0  0  0
  185.1940  174.9630  136.7990 C   0  0  0  0  0  2  0  0  0  0  0  0
  182.7930  175.0880  137.6880 C   0  0  0  0  0  2  0  0  0  0  0  0
  186.7520  178.6760  143.1440 C   0  0  0  0  0  3  0  0  0  0  0  0
  179.8310  179.2930  141.5600 C   0  0  0  0  0  3  0  0  0  0  0  0
  180.2200  178.1220  139.4960 O   0  0  0  0  0  1  0  0  0  0  0  0
  188.1070  175.7930  138.0510 S   0  0  0  0  0  0  0  0  0  0  0  0
  183.7880  178.4630  142.8160 N   0  0  0  0  0  2  0  0  0  0  0  0
  188.3490  177.3430  144.3810 C   0  0  0  0  0  3  0  0  0  0  0  0
  189.0620  177.1380  141.2400 C   0  0  0  0  0  2  0  0  0  0  0  0
  186.1180  177.6830  145.2640 C   0  0  0  0  0  0  0  0  0  0  0  0
  190.0860  177.3880  138.9980 C   0  0  0  0  0  3  0  0  0  0  0  0
  188.7580  177.4510  138.3140 C   0  0  1  0  0  3  0  0  0  0  0  0
  182.4340  176.3520  139.7320 O   0  0  0  0  0  0  0  0  0  0  0  0
  182.9650  177.5240  140.2820 C   0  0  2  0  0  3  0  0  0  0  0  0
  189.0400  178.3270  142.1870 C   0  0  0  0  0  2  0  0  0  0  0  0
  181.9950  178.2650  141.1570 C   0  0  0  0  0  0  0  0  0  0  0  0
  183.3570  176.0570  138.7210 C   0  0  2  0  0  3  0  0  0  0  0  0
  185.1800  177.4540  146.2650 O   0  0  0  0  0  1  0  0  0  0  0  0
  187.3960  177.1270  145.3800 C   0  0  0  0  0  3  0  0  0  0  0  0
  185.3250  177.2800  137.9070 C   0  0  0  0  0  2  0  0  0  0  0  0
  184.4220  179.0390  143.9900 C   0  0  0  0  0  2  0  0  0  0  0  0
  188.0300  178.1180  143.2620 C   0  0  0  0  0  0  0  0  0  0  0  0
  180.6830  178.5540  140.7340 C   0  0  0  0  0  0  0  0  0  0  0  0
  189.0500  179.4150  137.0270 F   0  0  0  0  0  0  0  0  0  0  0  0
  185.7920  178.4630  144.1440 C   0  0  0  0  0  0  0  0  0  0  0  0
  183.4960  178.3780  139.1540 C   0  0  0  0  0  2  0  0  0  0  0  0
  190.2340  177.2380  140.3150 C   0  0  0  0  0  0  0  0  0  0  0  0
  182.4460  178.7400  142.4020 C   0  0  0  0  0  0  0  0  0  0  0  0
  188.9090  178.0410  136.9360 C   0  0  2  0  0  3  0  0  0  0  0  0
  185.7280  176.3980  136.7160 C   0  0  1  0  0  3  0  0  0  0  0  0
  191.5160  177.1720  140.8430 O   0  0  0  0  0  1  0  0  0  0  0  0
  183.3850  173.6570  135.7940 C   0  0  0  0  0  0  0  0  0  0  0  0
  183.1350  172.6570  135.2680 N   0  0  0  0  0  0  0  0  0  0  0  0
  188.1240  177.6410  134.7660 C   0  0  0  0  0  2  0  0  0  0  0  0
  189.1870  176.5690  134.5940 C   0  0  2  0  0  3  0  0  0  0  0  0
  190.0740  174.8260  135.6550 C   0  0  0  0  0  2  0  0  0  0  0  0
  191.1100  175.9140  135.8140 C   0  0  0  0  0  2  0  0  0  0  0  0
  188.8490  175.4260  135.3340 O   0  0  0  0  0  0  0  0  0  0  0  0
  190.5150  177.0850  135.0910 C   0  0  0  0  0  2  0  0  0  0  0  0
  1 38  1  1  0  0  0
  1  7  1  0  0  0  0
  1  8  1  0  0  0  0
  3  6  1  0  0  0  0
  3 35  1  0  0  0  0
  4 26  1  1  0  0  0
  4 23  1  0  0  0  0
  4 32  1  0  0  0  0
  5  2  1  0  0  0  0
  6 36  1  0  0  0  0
  6 12  1  1  0  0  0
  9 28  2  0  0  0  0
  9 31  1  0  0  0  0
 10  5  2  0  0  0  0
 11 29  1  0  0  0  0
 12 18  1  0  0  0  0
 13 27  1  0  0  0  0
 14 25  2  0  0  0  0
 15 21  1  0  0  0  0
 16 25  1  0  0  0  0
 16 24  1  0  0  0  0
 17 33  2  0  0  0  0
 18 17  1  6  0  0  0
 19 20  1  0  0  0  0
 20 32  1  6  0  0  0
 20 22  1  0  0  0  0
 21 28  1  0  0  0  0
 22 34  1  0  0  0  0
 23  8  1  6  0  0  0
 23 19  1  0  0  0  0
 27 31  1  0  0  0  0
 28 14  1  0  0  0  0
 29 22  2  0  0  0  0
 29 10  1  0  0  0  0
 31 16  2  0  0  0  0
 33 37  1  0  0  0  0
 33 15  1  0  0  0  0
 34 13  1  0  0  0  0
 34  2  2  0  0  0  0
 35 30  1  1  0  0  0
 35 18  1  0  0  0  0
 36  7  1  1  0  0  0
 36 26  1  0  0  0  0
 39 38  3  0  0  0  0
 40  3  1  0  0  0  0
 41 40  1  1  0  0  0
 41 45  1  0  0  0  0
 41 44  1  0  0  0  0
 42 43  1  0  0  0  0
 44 42  1  0  0  0  0
 45 43  1  0  0  0  0
M  END
>  <MODEL>
5

>  <REMARK>
 VINA RESULT:      -5.4      1.695      2.236
  Name = 
  3 active torsions:
  status: ('A' for Active; 'I' for Inactive)
    1  A    between atoms: C_1  and  C_19
    2  A    between atoms: C_3  and  C_7
    3  A    between atoms: N_4  and  C_7
                            x       y       z     vdW  Elec       q    Type
                         _______ _______ _______ _____ _____    ______ ____

>  <TORSDO>
F 3

$$$$
=
 OpenBabel10222421203D

 45 51  0  0  1  0  0  0  0  0999 V2000
  180.8300  178.4820  138.1900 C   0  0  2  0  0  3  0  0  0  0  0  0
  185.3890  172.0310  135.2610 C   0  0  0  0  0  3  0  0  0  0  0  0
  183.5060  178.1680  142.2880 N   0  0  0  0  0  0  0  0  0  0  0  0
  182.5260  176.1080  138.5630 C   0  0  2  0  0  3  0  0  0  0  0  0
  184.2970  171.2620  134.8540 C   0  0  0  0  0  3  0  0  0  0  0  0
  183.3130  178.9690  141.0770 C   0  0  1  0  0  3  0  0  0  0  0  0
  182.0230  179.0970  138.9240 C   0  0  0  0  0  2  0  0  0  0  0  0
  181.2350  177.6090  136.9920 C   0  0  0  0  0  2  0  0  0  0  0  0
  188.4240  175.2580  138.0480 C   0  0  0  0  0  3  0  0  0  0  0  0
  182.9980  171.7210  135.0750 C   0  0  0  0  0  3  0  0  0  0  0  0
  181.4770  173.3770  135.9270 O   0  0  0  0  0  1  0  0  0  0  0  0
  184.9180  179.5340  140.3970 S   0  0  0  0  0  0  0  0  0  0  0  0
  186.2990  174.0620  136.3180 N   0  0  0  0  0  2  0  0  0  0  0  0
  190.1700  176.8710  137.5950 C   0  0  0  0  0  3  0  0  0  0  0  0
  188.1640  178.1270  139.7890 C   0  0  0  0  0  2  0  0  0  0  0  0
  189.5150  175.2860  135.8830 C   0  0  0  0  0  0  0  0  0  0  0  0
  187.1110  178.9430  141.8780 C   0  0  0  0  0  3  0  0  0  0  0  0
  185.7700  178.3990  141.5050 C   0  0  1  0  0  3  0  0  0  0  0  0
  182.7720  175.8930  136.2180 O   0  0  0  0  0  0  0  0  0  0  0  0
  183.6990  175.0400  136.8290 C   0  0  2  0  0  3  0  0  0  0  0  0
  189.0560  176.8960  139.8350 C   0  0  0  0  0  2  0  0  0  0  0  0
  183.8800  173.7380  136.1020 C   0  0  0  0  0  0  0  0  0  0  0  0
  182.5230  176.8290  137.2290 C   0  0  2  0  0  3  0  0  0  0  0  0
  189.6690  174.7850  134.5940 O   0  0  0  0  0  1  0  0  0  0  0  0
  190.3160  176.3520  136.3050 C   0  0  0  0  0  3  0  0  0  0  0  0
  183.2990  176.9570  139.5560 C   0  0  0  0  0  2  0  0  0  0  0  0
  187.6820  173.6150  136.3090 C   0  0  0  0  0  2  0  0  0  0  0  0
  189.2250  176.3260  138.4690 C   0  0  0  0  0  0  0  0  0  0  0  0
  182.7820  172.9510  135.7020 C   0  0  0  0  0  0  0  0  0  0  0  0
  185.2510  177.1940  143.4730 F   0  0  0  0  0  0  0  0  0  0  0  0
  188.5650  174.7340  136.7550 C   0  0  0  0  0  0  0  0  0  0  0  0
  183.2860  174.8470  138.2700 C   0  0  0  0  0  2  0  0  0  0  0  0
  188.1940  178.8330  141.1080 C   0  0  0  0  0  0  0  0  0  0  0  0
  185.1880  173.2680  135.8870 C   0  0  0  0  0  0  0  0  0  0  0  0
  184.8900  178.3000  142.7240 C   0  0  2  0  0  3  0  0  0  0  0  0
  182.5020  178.1730  140.0500 C   0  0  1  0  0  3  0  0  0  0  0  0
  189.3880  179.3930  141.5450 O   0  0  0  0  0  1  0  0  0  0  0  0
  179.9330  179.5430  137.7320 C   0  0  0  0  0  0  0  0  0  0  0  0
  179.2240  180.3820  137.3680 N   0  0  0  0  0  0  0  0  0  0  0  0
  182.6720  178.7580  143.3230 C   0  0  0  0  0  2  0  0  0  0  0  0
  181.2250  178.8000  142.8620 C   0  0  2  0  0  3  0  0  0  0  0  0
  179.4300  180.1140  142.9140 C   0  0  0  0  0  2  0  0  0  0  0  0
  179.1330  179.0540  143.9480 C   0  0  0  0  0  2  0  0  0  0  0  0
  180.8110  180.1280  142.6790 O   0  0  0  0  0  0  0  0  0  0  0  0
  180.3400  178.1640  143.9070 C   0  0  0  0  0  2  0  0  0  0  0  0
  1 38  1  6  0  0  0
  1  7  1  0  0  0  0
  2 34  1  0  0  0  0
  3 35  1  0  0  0  0
  3 40  1  0  0  0  0
  4 32  1  6  0  0  0
  4 26  1  0  0  0  0
  5 10  1  0  0  0  0
  5  2  2  0  0  0  0
  6 12  1  6  0  0  0
  6  3  1  0  0  0  0
  8  1  1  0  0  0  0
  9 28  1  0  0  0  0
 10 29  2  0  0  0  0
 12 18  1  0  0  0  0
 14 28  2  0  0  0  0
 15 21  1  0  0  0  0
 15 33  1  0  0  0  0
 16 25  2  0  0  0  0
 16 31  1  0  0  0  0
 18 17  1  1  0  0  0
 18 35  1  0  0  0  0
 19 20  1  0  0  0  0
 19 23  1  0  0  0  0
 20 32  1  1  0  0  0
 22 20  1  0  0  0  0
 23  8  1  6  0  0  0
 23  4  1  0  0  0  0
 24 16  1  0  0  0  0
 25 14  1  0  0  0  0
 26 36  1  0  0  0  0
 27 13  1  0  0  0  0
 27 31  1  0  0  0  0
 28 21  1  0  0  0  0
 29 11  1  0  0  0  0
 29 22  1  0  0  0  0
 31  9  2  0  0  0  0
 33 37  1  0  0  0  0
 33 17  2  0  0  0  0
 34 22  2  0  0  0  0
 34 13  1  0  0  0  0
 35 30  1  6  0  0  0
 36  7  1  6  0  0  0
 36  6  1  0  0  0  0
 39 38  3  0  0  0  0
 41 40  1  1  0  0  0
 41 45  1  0  0  0  0
 42 43  1  0  0  0  0
 44 41  1  0  0  0  0
 44 42  1  0  0  0  0
 45 43  1  0  0  0  0
M  END
>  <MODEL>
6

>  <REMARK>
 VINA RESULT:      -5.1      2.508      8.342
  Name = 
  3 active torsions:
  status: ('A' for Active; 'I' for Inactive)
    1  A    between atoms: C_1  and  C_19
    2  A    between atoms: C_3  and  C_7
    3  A    between atoms: N_4  and  C_7
                            x       y       z     vdW  Elec       q    Type
                         _______ _______ _______ _____ _____    ______ ____

>  <TORSDO>
F 3

$$$$
=
 OpenBabel10222421203D

 45 51  0  0  1  0  0  0  0  0999 V2000
  186.0650  178.3560  143.5590 C   0  0  2  0  0  3  0  0  0  0  0  0
  192.0320  175.9560  138.1160 C   0  0  0  0  0  3  0  0  0  0  0  0
  183.3780  179.6070  139.6520 N   0  0  0  0  0  0  0  0  0  0  0  0
  187.3900  178.4530  140.9340 C   0  0  2  0  0  3  0  0  0  0  0  0
  193.0730  176.6510  138.7350 C   0  0  0  0  0  3  0  0  0  0  0  0
  183.5110  178.5960  140.7030 C   0  0  1  0  0  3  0  0  0  0  0  0
  184.9310  177.8800  142.6490 C   0  0  0  0  0  2  0  0  0  0  0  0
  187.3900  177.6150  143.3190 C   0  0  0  0  0  2  0  0  0  0  0  0
  187.2980  174.7450  136.2430 C   0  0  0  0  0  3  0  0  0  0  0  0
  192.8170  177.4380  139.8590 C   0  0  0  0  0  3  0  0  0  0  0  0
  191.2880  178.3410  141.4810 O   0  0  0  0  0  1  0  0  0  0  0  0
  183.1860  176.9160  140.0470 S   0  0  0  0  0  0  0  0  0  0  0  0
  189.6490  175.3410  137.9900 N   0  0  0  0  0  2  0  0  0  0  0  0
  185.9940  172.7350  135.9050 C   0  0  0  0  0  3  0  0  0  0  0  0
  184.0630  175.0100  137.1340 C   0  0  0  0  0  2  0  0  0  0  0  0
  188.3740  172.5740  136.3330 C   0  0  0  0  0  0  0  0  0  0  0  0
  182.3670  176.7850  137.4660 C   0  0  0  0  0  3  0  0  0  0  0  0
  183.2570  177.5730  138.3730 C   0  0  1  0  0  3  0  0  0  0  0  0
  188.9150  176.7780  141.6230 O   0  0  0  0  0  0  0  0  0  0  0  0
  189.0490  176.9410  140.2380 C   0  0  2  0  0  3  0  0  0  0  0  0
  184.8360  174.9520  135.8270 C   0  0  0  0  0  2  0  0  0  0  0  0
  190.4680  176.8260  139.7590 C   0  0  0  0  0  0  0  0  0  0  0  0
  187.6250  177.2700  141.8530 C   0  0  2  0  0  3  0  0  0  0  0  0
  189.5070  171.7870  136.5070 O   0  0  0  0  0  1  0  0  0  0  0  0
  187.1440  171.9590  136.0760 C   0  0  0  0  0  3  0  0  0  0  0  0
  185.9940  178.3280  140.3520 C   0  0  0  0  0  2  0  0  0  0  0  0
  189.7550  174.6430  136.7190 C   0  0  0  0  0  2  0  0  0  0  0  0
  186.0680  174.1290  135.9870 C   0  0  0  0  0  0  0  0  0  0  0  0
  191.5200  177.5350  140.3720 C   0  0  0  0  0  0  0  0  0  0  0  0
  183.1150  179.6990  137.3460 F   0  0  0  0  0  0  0  0  0  0  0  0
  188.4550  173.9720  136.4160 C   0  0  0  0  0  0  0  0  0  0  0  0
  188.4130  178.2570  139.8540 C   0  0  0  0  0  2  0  0  0  0  0  0
  182.7170  175.6240  136.9100 C   0  0  0  0  0  0  0  0  0  0  0  0
  190.7270  176.0410  138.6210 C   0  0  0  0  0  0  0  0  0  0  0  0
  182.7640  178.9920  138.4820 C   0  0  2  0  0  3  0  0  0  0  0  0
  184.8920  178.7010  141.3550 C   0  0  1  0  0  3  0  0  0  0  0  0
  181.8030  174.9670  136.0970 O   0  0  0  0  0  1  0  0  0  0  0  0
  185.6720  178.2000  144.9590 C   0  0  0  0  0  0  0  0  0  0  0  0
  185.3620  178.0780  146.0680 N   0  0  0  0  0  0  0  0  0  0  0  0
  182.4480  180.6110  140.1460 C   0  0  0  0  0  2  0  0  0  0  0  0
  181.0180  180.1440  139.9320 C   0  0  2  0  0  3  0  0  0  0  0  0
  178.9340  180.9220  139.8740 C   0  0  0  0  0  2  0  0  0  0  0  0
  179.0250  180.2260  141.2120 C   0  0  0  0  0  2  0  0  0  0  0  0
  180.2340  181.1920  139.4270 O   0  0  0  0  0  0  0  0  0  0  0  0
  180.4270  179.6960  141.2460 C   0  0  0  0  0  2  0  0  0  0  0  0
  1 38  1  1  0  0  0
  2 34  2  0  0  0  0
  2  5  1  0  0  0  0
  3 40  1  0  0  0  0
  3  6  1  0  0  0  0
  4 32  1  6  0  0  0
  4 23  1  0  0  0  0
  5 10  2  0  0  0  0
  6 12  1  6  0  0  0
  6 36  1  0  0  0  0
  7  1  1  0  0  0  0
  8  1  1  0  0  0  0
  9 31  1  0  0  0  0
 10 29  1  0  0  0  0
 13 34  1  0  0  0  0
 14 28  1  0  0  0  0
 14 25  2  0  0  0  0
 16 31  2  0  0  0  0
 16 24  1  0  0  0  0
 18 17  1  6  0  0  0
 18 35  1  0  0  0  0
 18 12  1  0  0  0  0
 19 23  1  0  0  0  0
 20 32  1  1  0  0  0
 20 19  1  0  0  0  0
 21 28  1  0  0  0  0
 21 15  1  0  0  0  0
 22 20  1  0  0  0  0
 22 29  2  0  0  0  0
 23  8  1  1  0  0  0
 25 16  1  0  0  0  0
 26  4  1  0  0  0  0
 27 13  1  0  0  0  0
 28  9  2  0  0  0  0
 29 11  1  0  0  0  0
 31 27  1  0  0  0  0
 33 15  1  0  0  0  0
 33 17  2  0  0  0  0
 34 22  1  0  0  0  0
 35 30  1  6  0  0  0
 35  3  1  0  0  0  0
 36 26  1  6  0  0  0
 36  7  1  0  0  0  0
 37 33  1  0  0  0  0
 38 39  3  0  0  0  0
 41 40  1  1  0  0  0
 41 45  1  0  0  0  0
 42 43  1  0  0  0  0
 43 45  1  0  0  0  0
 44 42  1  0  0  0  0
 44 41  1  0  0  0  0
M  END
>  <MODEL>
7

>  <REMARK>
 VINA RESULT:      -4.9      2.732      9.741
  Name = 
  3 active torsions:
  status: ('A' for Active; 'I' for Inactive)
    1  A    between atoms: C_1  and  C_19
    2  A    between atoms: C_3  and  C_7
    3  A    between atoms: N_4  and  C_7
                            x       y       z     vdW  Elec       q    Type
                         _______ _______ _______ _____ _____    ______ ____

>  <TORSDO>
F 3

$$$$
