=
 OpenBabel10222420193D

 27 29  0  0  1  0  0  0  0  0999 V2000
  188.3560  178.2270  141.4120 N   0  0  0  0  0  0  0  0  0  0  0  0
  188.6190  177.6400  143.7070 C   0  0  0  0  0  2  0  0  0  0  0  0
  188.4070  177.4670  144.9540 C   0  0  0  0  0  0  0  0  0  0  0  0
  191.1280  177.4790  141.2150 O   0  0  0  0  0  0  0  0  0  0  0  0
  191.4930  176.3190  147.0790 C   0  0  0  0  0  3  0  0  0  0  0  0
  190.5750  177.3130  142.3340 C   0  0  0  0  0  0  0  0  0  0  0  0
  188.5850  177.2320  146.1950 C   0  0  0  0  0  0  0  0  0  0  0  0
  189.1430  177.7320  142.5130 C   0  0  2  0  0  3  0  0  0  0  0  0
  191.3810  176.6550  143.4050 C   0  0  0  0  0  3  0  0  0  0  0  0
  191.1990  176.9150  144.6990 C   0  0  0  0  0  3  0  0  0  0  0  0
  190.4990  177.3100  147.6460 C   0  0  0  0  0  2  0  0  0  0  0  0
  189.0530  176.9830  147.3820 C   0  0  0  0  0  2  0  0  0  0  0  0
  191.8200  176.1570  145.7860 C   0  0  0  0  0  3  0  0  0  0  0  0
  186.9720  178.4050  141.5500 N   0  0  0  0  0  0  0  0  0  0  0  0
  185.8160  178.5150  142.3430 C   0  0  0  0  0  0  0  0  0  0  0  0
  184.5830  178.8650  140.2460 C   0  0  0  0  0  3  0  0  0  0  0  0
  183.5580  178.8330  142.5990 C   0  0  0  0  0  0  0  0  0  0  0  0
  185.7100  178.6390  140.9760 C   0  0  0  0  0  0  0  0  0  0  0  0
  184.8160  178.5930  143.2650 C   0  0  0  0  0  3  0  0  0  0  0  0
  183.4580  178.9630  141.1390 C   0  0  0  0  0  3  0  0  0  0  0  0
  182.3360  178.5930  144.6190 O   0  0  0  0  0  1  0  0  0  0  0  0
  181.1710  179.4630  142.8540 O   0  0  0  0  0  0  0  0  0  0  0  0
  182.3370  178.9520  143.4120 C   0  0  0  0  0  0  0  0  0  0  0  0
  188.9950  178.6580  140.1730 C   0  0  0  0  0  2  0  0  0  0  0  0
  188.6620  176.7280  138.8140 O   0  0  0  0  0  1  0  0  0  0  0  0
  188.3990  177.9430  139.0080 C   0  0  0  0  0  0  0  0  0  0  0  0
  187.5810  178.6250  138.1170 O   0  0  0  0  0  0  0  0  0  0  0  0
  1 14  1  0  0  0  0
  2  3  1  0  0  0  0
  3  7  3  0  0  0  0
  4  6  2  0  0  0  0
  5 11  1  0  0  0  0
  6  8  1  0  0  0  0
  6  9  1  0  0  0  0
  7 12  1  0  0  0  0
  8  1  1  1  0  0  0
  8  2  1  0  0  0  0
  9 10  2  0  0  0  0
 10 13  1  0  0  0  0
 12 11  1  0  0  0  0
 13  5  2  0  0  0  0
 14 15  1  0  0  0  0
 15 19  1  0  0  0  0
 16 18  1  0  0  0  0
 16 20  2  0  0  0  0
 17 19  2  0  0  0  0
 17 23  1  0  0  0  0
 18 14  1  0  0  0  0
 18 15  2  0  0  0  0
 20 17  1  0  0  0  0
 22 23  2  0  0  0  0
 23 21  1  0  0  0  0
 24  1  1  0  0  0  0
 25 26  1  0  0  0  0
 26 24  1  0  0  0  0
 27 26  2  0  0  0  0
M  END
>  <MODEL>
1

>  <REMARK>
 VINA RESULT:      -9.1      0.000      0.000
  Name = 
  5 active torsions:
  status: ('A' for Active; 'I' for Inactive)
    1  A    between atoms: N_1  and  N_2
    2  A    between atoms: N_2  and  C_6
    3  A    between atoms: N_2  and  C_15
    4  A    between atoms: C_6  and  C_13
    5  A    between atoms: C_19  and  C_23
                            x       y       z     vdW  Elec       q    Type
                         _______ _______ _______ _____ _____    ______ ____

>  <TORSDO>
F 5

$$$$
=
 OpenBabel10222420193D

 27 29  0  0  1  0  0  0  0  0999 V2000
  189.8350  177.2070  142.9670 N   0  0  0  0  0  0  0  0  0  0  0  0
  187.4960  177.6440  143.0830 C   0  0  0  0  0  2  0  0  0  0  0  0
  186.2780  177.8650  142.7670 C   0  0  0  0  0  0  0  0  0  0  0  0
  189.7450  177.5970  145.8160 O   0  0  0  0  0  0  0  0  0  0  0  0
  183.8970  178.8810  145.7090 C   0  0  0  0  0  3  0  0  0  0  0  0
  188.6470  177.6430  145.2030 C   0  0  0  0  0  0  0  0  0  0  0  0
  185.0450  178.1850  142.8340 C   0  0  0  0  0  0  0  0  0  0  0  0
  188.6350  177.4970  143.7080 C   0  0  2  0  0  3  0  0  0  0  0  0
  187.4100  177.7930  146.0260 C   0  0  0  0  0  3  0  0  0  0  0  0
  186.3180  178.4080  145.5720 C   0  0  0  0  0  3  0  0  0  0  0  0
  183.7540  179.5310  144.3490 C   0  0  0  0  0  2  0  0  0  0  0  0
  183.8590  178.5880  143.1790 C   0  0  0  0  0  2  0  0  0  0  0  0
  185.0260  178.4050  146.2600 C   0  0  0  0  0  3  0  0  0  0  0  0
  189.8510  177.3060  141.5680 N   0  0  0  0  0  0  0  0  0  0  0  0
  189.3150  177.7880  140.3610 C   0  0  0  0  0  0  0  0  0  0  0  0
  191.1620  176.6190  139.2390 C   0  0  0  0  0  3  0  0  0  0  0  0
  189.3320  177.9910  138.0750 C   0  0  0  0  0  0  0  0  0  0  0  0
  190.4490  177.0090  140.3310 C   0  0  0  0  0  0  0  0  0  0  0  0
  188.6590  178.3420  139.3030 C   0  0  0  0  0  3  0  0  0  0  0  0
  190.5420  177.1580  138.0570 C   0  0  0  0  0  3  0  0  0  0  0  0
  189.2100  178.0320  135.7060 O   0  0  0  0  0  0  0  0  0  0  0  0
  187.7990  179.4650  136.7940 O   0  0  0  0  0  1  0  0  0  0  0  0
  188.7880  178.4870  136.8010 C   0  0  0  0  0  0  0  0  0  0  0  0
  191.0860  176.9140  143.6580 C   0  0  0  0  0  2  0  0  0  0  0  0
  190.5440  174.6610  143.0990 O   0  0  0  0  0  0  0  0  0  0  0  0
  191.3120  175.4410  143.7190 C   0  0  0  0  0  0  0  0  0  0  0  0
  192.3500  174.9270  144.4840 O   0  0  0  0  0  1  0  0  0  0  0  0
  1 24  1  0  0  0  0
  2  8  1  0  0  0  0
  3  7  3  0  0  0  0
  3  2  1  0  0  0  0
  5 13  2  0  0  0  0
  6  4  2  0  0  0  0
  6  9  1  0  0  0  0
  7 12  1  0  0  0  0
  8  1  1  6  0  0  0
  8  6  1  0  0  0  0
 10  9  2  0  0  0  0
 10 13  1  0  0  0  0
 11  5  1  0  0  0  0
 12 11  1  0  0  0  0
 14  1  1  0  0  0  0
 15 14  1  0  0  0  0
 16 18  2  0  0  0  0
 17 19  1  0  0  0  0
 18 15  1  0  0  0  0
 18 14  1  0  0  0  0
 19 15  2  0  0  0  0
 20 17  2  0  0  0  0
 20 16  1  0  0  0  0
 21 23  2  0  0  0  0
 22 23  1  0  0  0  0
 23 17  1  0  0  0  0
 24 26  1  0  0  0  0
 25 26  2  0  0  0  0
 26 27  1  0  0  0  0
M  END
>  <MODEL>
2

>  <REMARK>
 VINA RESULT:      -9.0      2.958      6.257
  Name = 
  5 active torsions:
  status: ('A' for Active; 'I' for Inactive)
    1  A    between atoms: N_1  and  N_2
    2  A    between atoms: N_2  and  C_6
    3  A    between atoms: N_2  and  C_15
    4  A    between atoms: C_6  and  C_13
    5  A    between atoms: C_19  and  C_23
                            x       y       z     vdW  Elec       q    Type
                         _______ _______ _______ _____ _____    ______ ____

>  <TORSDO>
F 5

$$$$
=
 OpenBabel10222420193D

 27 29  0  0  1  0  0  0  0  0999 V2000
  190.2230  177.4970  144.1170 N   0  0  0  0  0  0  0  0  0  0  0  0
  187.8910  177.7710  143.7120 C   0  0  0  0  0  2  0  0  0  0  0  0
  186.7600  177.9030  143.1340 C   0  0  0  0  0  0  0  0  0  0  0  0
  189.4880  177.9090  146.8680 O   0  0  0  0  0  0  0  0  0  0  0  0
  183.7320  178.7790  145.4630 C   0  0  0  0  0  3  0  0  0  0  0  0
  188.5490  177.8720  146.0300 C   0  0  0  0  0  0  0  0  0  0  0  0
  185.5230  178.1360  142.9230 C   0  0  0  0  0  0  0  0  0  0  0  0
  188.8730  177.7100  144.5720 C   0  0  2  0  0  3  0  0  0  0  0  0
  187.1550  177.9430  146.5610 C   0  0  0  0  0  3  0  0  0  0  0  0
  186.1500  178.4760  145.8660 C   0  0  0  0  0  3  0  0  0  0  0  0
  183.8470  179.4040  144.0880 C   0  0  0  0  0  2  0  0  0  0  0  0
  184.2660  178.4590  142.9930 C   0  0  0  0  0  2  0  0  0  0  0  0
  184.7420  178.3900  146.2570 C   0  0  0  0  0  3  0  0  0  0  0  0
  190.5040  177.3930  142.7470 N   0  0  0  0  0  0  0  0  0  0  0  0
  190.0900  177.2530  141.4110 C   0  0  0  0  0  0  0  0  0  0  0  0
  192.4680  177.4000  140.8070 C   0  0  0  0  0  3  0  0  0  0  0  0
  190.5200  177.1100  139.1610 C   0  0  0  0  0  0  0  0  0  0  0  0
  191.4310  177.3850  141.6900 C   0  0  0  0  0  0  0  0  0  0  0  0
  189.5060  177.1100  140.1880 C   0  0  0  0  0  3  0  0  0  0  0  0
  191.9490  177.2520  139.4720 C   0  0  0  0  0  3  0  0  0  0  0  0
  190.3000  175.8830  137.1420 O   0  0  0  0  0  1  0  0  0  0  0  0
  189.4950  178.0230  137.0930 O   0  0  0  0  0  0  0  0  0  0  0  0
  190.1060  176.9650  137.7560 C   0  0  0  0  0  0  0  0  0  0  0  0
  191.3370  177.4960  145.0590 C   0  0  0  0  0  2  0  0  0  0  0  0
  191.9910  175.7100  146.4950 O   0  0  0  0  0  1  0  0  0  0  0  0
  191.7980  176.1020  145.3150 C   0  0  0  0  0  0  0  0  0  0  0  0
  192.0460  175.2440  144.2520 O   0  0  0  0  0  0  0  0  0  0  0  0
  1 24  1  0  0  0  0
  2  8  1  0  0  0  0
  3  2  1  0  0  0  0
  5 13  2  0  0  0  0
  6  9  1  0  0  0  0
  6  4  2  0  0  0  0
  7 12  1  0  0  0  0
  7  3  3  0  0  0  0
  8  1  1  6  0  0  0
  8  6  1  0  0  0  0
 10 13  1  0  0  0  0
 10  9  2  0  0  0  0
 11  5  1  0  0  0  0
 12 11  1  0  0  0  0
 14  1  1  0  0  0  0
 15 18  1  0  0  0  0
 15 14  1  0  0  0  0
 16 18  2  0  0  0  0
 17 20  2  0  0  0  0
 17 19  1  0  0  0  0
 18 14  1  0  0  0  0
 19 15  2  0  0  0  0
 20 16  1  0  0  0  0
 21 23  1  0  0  0  0
 22 23  2  0  0  0  0
 23 17  1  0  0  0  0
 24 26  1  0  0  0  0
 26 25  1  0  0  0  0
 27 26  2  0  0  0  0
M  END
>  <MODEL>
3

>  <REMARK>
 VINA RESULT:      -8.9      2.985      6.798
  Name = 
  5 active torsions:
  status: ('A' for Active; 'I' for Inactive)
    1  A    between atoms: N_1  and  N_2
    2  A    between atoms: N_2  and  C_6
    3  A    between atoms: N_2  and  C_15
    4  A    between atoms: C_6  and  C_13
    5  A    between atoms: C_19  and  C_23
                            x       y       z     vdW  Elec       q    Type
                         _______ _______ _______ _____ _____    ______ ____

>  <TORSDO>
F 5

$$$$
=
 OpenBabel10222420193D

 27 29  0  0  1  0  0  0  0  0999 V2000
  186.3720  177.8620  144.5440 N   0  0  0  0  0  0  0  0  0  0  0  0
  187.5990  178.0640  142.5110 C   0  0  0  0  0  0  0  0  0  0  0  0
  187.9090  178.2480  141.2870 C   0  0  0  0  0  0  0  0  0  0  0  0
  188.8860  176.9700  145.6220 O   0  0  0  0  0  0  0  0  0  0  0  0
  191.5990  177.3720  140.2990 C   0  0  0  0  0  3  0  0  0  0  0  0
  188.8860  177.3430  144.4200 C   0  0  0  0  0  0  0  0  0  0  0  0
  188.5570  178.2690  140.1880 C   0  0  0  0  0  2  0  0  0  0  0  0
  187.5930  177.7720  143.7860 C   0  0  2  0  0  3  0  0  0  0  0  0
  190.2010  177.3800  143.7150 C   0  0  0  0  0  3  0  0  0  0  0  0
  190.3150  177.1850  142.4010 C   0  0  0  0  0  3  0  0  0  0  0  0
  190.4580  177.0600  139.3530 C   0  0  0  0  0  2  0  0  0  0  0  0
  189.4220  178.1450  139.2250 C   0  0  0  0  0  2  0  0  0  0  0  0
  191.5460  177.4070  141.6400 C   0  0  0  0  0  3  0  0  0  0  0  0
  185.1540  178.1360  143.9040 N   0  0  0  0  0  0  0  0  0  0  0  0
  183.8030  178.5240  143.9400 C   0  0  0  0  0  0  0  0  0  0  0  0
  183.8240  178.3050  141.4920 C   0  0  0  0  0  3  0  0  0  0  0  0
  181.8070  179.0050  142.9160 C   0  0  0  0  0  0  0  0  0  0  0  0
  184.3940  178.2500  142.7270 C   0  0  0  0  0  0  0  0  0  0  0  0
  182.5180  178.9130  144.1690 C   0  0  0  0  0  3  0  0  0  0  0  0
  182.4500  178.7100  141.6280 C   0  0  0  0  0  3  0  0  0  0  0  0
  180.0630  180.5920  142.6430 O   0  0  0  0  0  0  0  0  0  0  0  0
  179.4030  178.4920  143.2640 O   0  0  0  0  0  1  0  0  0  0  0  0
  180.3930  179.4110  142.9310 C   0  0  0  0  0  0  0  0  0  0  0  0
  186.3560  177.5600  145.9720 C   0  0  0  0  0  2  0  0  0  0  0  0
  185.9770  179.7410  146.8540 O   0  0  0  0  0  0  0  0  0  0  0  0
  185.5420  178.5710  146.7060 C   0  0  0  0  0  0  0  0  0  0  0  0
  184.3180  178.2130  147.2550 O   0  0  0  0  0  1  0  0  0  0  0  0
  1 24  1  0  0  0  0
  2  8  1  0  0  0  0
  3  2  3  0  0  0  0
  5 13  2  0  0  0  0
  6  4  2  0  0  0  0
  7  3  1  0  0  0  0
  8  6  1  0  0  0  0
  8  1  1  6  0  0  0
  9  6  1  0  0  0  0
 10  9  2  0  0  0  0
 11  5  1  0  0  0  0
 12 11  1  0  0  0  0
 12  7  1  0  0  0  0
 13 10  1  0  0  0  0
 14 15  1  0  0  0  0
 14  1  1  0  0  0  0
 15 19  1  0  0  0  0
 16 20  2  0  0  0  0
 16 18  1  0  0  0  0
 17 23  1  0  0  0  0
 17 19  2  0  0  0  0
 18 14  1  0  0  0  0
 18 15  2  0  0  0  0
 20 17  1  0  0  0  0
 21 23  2  0  0  0  0
 23 22  1  0  0  0  0
 24 26  1  0  0  0  0
 26 25  2  0  0  0  0
 26 27  1  0  0  0  0
M  END
>  <MODEL>
4

>  <REMARK>
 VINA RESULT:      -8.7      2.954      4.925
  Name = 
  5 active torsions:
  status: ('A' for Active; 'I' for Inactive)
    1  A    between atoms: N_1  and  N_2
    2  A    between atoms: N_2  and  C_6
    3  A    between atoms: N_2  and  C_15
    4  A    between atoms: C_6  and  C_13
    5  A    between atoms: C_19  and  C_23
                            x       y       z     vdW  Elec       q    Type
                         _______ _______ _______ _____ _____    ______ ____

>  <TORSDO>
F 5

$$$$
=
 OpenBabel10222420193D

 27 29  0  0  1  0  0  0  0  0999 V2000
  189.9270  177.6190  139.7090 N   0  0  0  0  0  0  0  0  0  0  0  0
  188.7170  177.3650  141.7470 C   0  0  0  0  0  2  0  0  0  0  0  0
  187.7730  177.2680  142.6020 C   0  0  0  0  0  0  0  0  0  0  0  0
  192.2310  177.6550  141.4320 O   0  0  0  0  0  0  0  0  0  0  0  0
  188.8620  177.2460  146.3660 C   0  0  0  0  0  3  0  0  0  0  0  0
  191.1160  177.4560  141.9820 C   0  0  0  0  0  0  0  0  0  0  0  0
  187.1340  177.2190  143.7050 C   0  0  0  0  0  0  0  0  0  0  0  0
  189.8700  177.4770  141.1420 C   0  0  2  0  0  3  0  0  0  0  0  0
  191.1170  177.1620  143.4460 C   0  0  0  0  0  3  0  0  0  0  0  0
  190.1010  177.4910  144.2440 C   0  0  0  0  0  3  0  0  0  0  0  0
  187.6050  177.9740  145.9370 C   0  0  0  0  0  2  0  0  0  0  0  0
  186.7480  177.2320  144.9460 C   0  0  0  0  0  2  0  0  0  0  0  0
  189.9700  177.0500  145.6330 C   0  0  0  0  0  3  0  0  0  0  0  0
  190.7220  176.7580  138.9390 N   0  0  0  0  0  0  0  0  0  0  0  0
  191.9630  176.3890  138.3890 C   0  0  0  0  0  0  0  0  0  0  0  0
  190.8020  174.4390  137.4450 C   0  0  0  0  0  3  0  0  0  0  0  0
  193.2940  174.9830  137.1580 C   0  0  0  0  0  0  0  0  0  0  0  0
  190.8620  175.5940  138.1640 C   0  0  0  0  0  0  0  0  0  0  0  0
  193.2350  176.1930  137.9430 C   0  0  0  0  0  3  0  0  0  0  0  0
  192.1110  174.1430  136.9250 C   0  0  0  0  0  3  0  0  0  0  0  0
  194.6290  173.6940  135.6790 O   0  0  0  0  0  0  0  0  0  0  0  0
  195.7640  175.1710  137.0050 O   0  0  0  0  0  1  0  0  0  0  0  0
  194.5830  174.5790  136.5740 C   0  0  0  0  0  0  0  0  0  0  0  0
  189.0740  178.5820  139.0210 C   0  0  0  0  0  2  0  0  0  0  0  0
  187.6940  176.9600  137.9500 O   0  0  0  0  0  0  0  0  0  0  0  0
  187.7530  177.9680  138.7000 C   0  0  0  0  0  0  0  0  0  0  0  0
  186.5860  178.5260  139.2020 O   0  0  0  0  0  1  0  0  0  0  0  0
  2  3  1  0  0  0  0
  3  7  3  0  0  0  0
  4  6  2  0  0  0  0
  6  9  1  0  0  0  0
  7 12  1  0  0  0  0
  8  1  1  1  0  0  0
  8  2  1  0  0  0  0
  8  6  1  0  0  0  0
  9 10  2  0  0  0  0
 10 13  1  0  0  0  0
 11  5  1  0  0  0  0
 12 11  1  0  0  0  0
 13  5  2  0  0  0  0
 14  1  1  0  0  0  0
 15 14  1  0  0  0  0
 16 18  2  0  0  0  0
 17 19  1  0  0  0  0
 18 15  1  0  0  0  0
 18 14  1  0  0  0  0
 19 15  2  0  0  0  0
 20 17  2  0  0  0  0
 20 16  1  0  0  0  0
 21 23  2  0  0  0  0
 23 22  1  0  0  0  0
 23 17  1  0  0  0  0
 24  1  1  0  0  0  0
 25 26  2  0  0  0  0
 26 24  1  0  0  0  0
 26 27  1  0  0  0  0
M  END
>  <MODEL>
5

>  <REMARK>
 VINA RESULT:      -8.6      3.559      7.096
  Name = 
  5 active torsions:
  status: ('A' for Active; 'I' for Inactive)
    1  A    between atoms: N_1  and  N_2
    2  A    between atoms: N_2  and  C_6
    3  A    between atoms: N_2  and  C_15
    4  A    between atoms: C_6  and  C_13
    5  A    between atoms: C_19  and  C_23
                            x       y       z     vdW  Elec       q    Type
                         _______ _______ _______ _____ _____    ______ ____

>  <TORSDO>
F 5

$$$$
=
 OpenBabel10222420193D

 27 29  0  0  1  0  0  0  0  0999 V2000
  187.5290  178.1770  145.6620 N   0  0  0  0  0  0  0  0  0  0  0  0
  185.9130  178.0640  143.9140 C   0  0  0  0  0  2  0  0  0  0  0  0
  185.3580  177.9220  142.7730 C   0  0  0  0  0  0  0  0  0  0  0  0
  185.3110  179.1010  147.2450 O   0  0  0  0  0  0  0  0  0  0  0  0
  181.5730  178.9170  142.5700 C   0  0  0  0  0  3  0  0  0  0  0  0
  185.0580  178.7610  146.0590 C   0  0  0  0  0  0  0  0  0  0  0  0
  184.5020  177.9480  141.8270 C   0  0  0  0  0  0  0  0  0  0  0  0
  186.1840  178.3190  145.1680 C   0  0  2  0  0  3  0  0  0  0  0  0
  183.6270  178.7770  145.6330 C   0  0  0  0  0  3  0  0  0  0  0  0
  183.2580  179.0130  144.3740 C   0  0  0  0  0  3  0  0  0  0  0  0
  182.5090  179.2270  141.4210 C   0  0  0  0  0  2  0  0  0  0  0  0
  183.4650  178.1200  141.0630 C   0  0  0  0  0  2  0  0  0  0  0  0
  181.8930  178.8430  143.8720 C   0  0  0  0  0  3  0  0  0  0  0  0
  188.5970  177.9810  144.7750 N   0  0  0  0  0  0  0  0  0  0  0  0
  189.0970  177.6800  143.4950 C   0  0  0  0  0  0  0  0  0  0  0  0
  191.3380  178.0160  144.4480 C   0  0  0  0  0  3  0  0  0  0  0  0
  190.8250  177.3810  142.0150 C   0  0  0  0  0  0  0  0  0  0  0  0
  189.9780  177.9740  144.5110 C   0  0  0  0  0  0  0  0  0  0  0  0
  189.3940  177.3690  142.2030 C   0  0  0  0  0  3  0  0  0  0  0  0
  191.7550  177.6960  143.1080 C   0  0  0  0  0  3  0  0  0  0  0  0
  192.4710  177.5530  140.3140 O   0  0  0  0  0  1  0  0  0  0  0  0
  190.6690  176.2360  139.8190 O   0  0  0  0  0  0  0  0  0  0  0  0
  191.3680  177.0700  140.6830 C   0  0  0  0  0  0  0  0  0  0  0  0
  187.8250  178.3470  147.0810 C   0  0  0  0  0  2  0  0  0  0  0  0
  188.2760  176.0940  147.7120 O   0  0  0  0  0  0  0  0  0  0  0  0
  188.7250  177.2580  147.5560 C   0  0  0  0  0  0  0  0  0  0  0  0
  190.0520  177.5350  147.8580 O   0  0  0  0  0  1  0  0  0  0  0  0
  1 24  1  0  0  0  0
  2  8  1  0  0  0  0
  3  2  1  0  0  0  0
  5 13  2  0  0  0  0
  6  4  2  0  0  0  0
  7  3  3  0  0  0  0
  8  1  1  6  0  0  0
  8  6  1  0  0  0  0
  9  6  1  0  0  0  0
 10  9  2  0  0  0  0
 11  5  1  0  0  0  0
 12 11  1  0  0  0  0
 12  7  1  0  0  0  0
 13 10  1  0  0  0  0
 14  1  1  0  0  0  0
 15 18  1  0  0  0  0
 15 14  1  0  0  0  0
 16 18  2  0  0  0  0
 17 19  1  0  0  0  0
 17 20  2  0  0  0  0
 18 14  1  0  0  0  0
 19 15  2  0  0  0  0
 20 16  1  0  0  0  0
 21 23  1  0  0  0  0
 22 23  2  0  0  0  0
 23 17  1  0  0  0  0
 24 26  1  0  0  0  0
 26 25  2  0  0  0  0
 26 27  1  0  0  0  0
M  END
>  <MODEL>
6

>  <REMARK>
 VINA RESULT:      -8.5      2.652      7.857
  Name = 
  5 active torsions:
  status: ('A' for Active; 'I' for Inactive)
    1  A    between atoms: N_1  and  N_2
    2  A    between atoms: N_2  and  C_6
    3  A    between atoms: N_2  and  C_15
    4  A    between atoms: C_6  and  C_13
    5  A    between atoms: C_19  and  C_23
                            x       y       z     vdW  Elec       q    Type
                         _______ _______ _______ _____ _____    ______ ____

>  <TORSDO>
F 5

$$$$
=
 OpenBabel10222420193D

 27 29  0  0  1  0  0  0  0  0999 V2000
  185.7330  178.9300  143.4150 N   0  0  0  0  0  0  0  0  0  0  0  0
  187.0010  178.5320  141.4370 C   0  0  0  0  0  2  0  0  0  0  0  0
  187.9680  178.3680  140.6200 C   0  0  0  0  0  0  0  0  0  0  0  0
  183.4840  178.8860  141.6220 O   0  0  0  0  0  0  0  0  0  0  0  0
  186.9950  178.1200  136.8320 C   0  0  0  0  0  3  0  0  0  0  0  0
  184.6120  178.6390  141.1210 C   0  0  0  0  0  0  0  0  0  0  0  0
  188.6410  178.2400  139.5430 C   0  0  0  0  0  0  0  0  0  0  0  0
  185.8310  178.6970  141.9970 C   0  0  2  0  0  3  0  0  0  0  0  0
  184.6510  178.2510  139.6800 C   0  0  0  0  0  3  0  0  0  0  0  0
  185.6950  178.5160  138.8950 C   0  0  0  0  0  3  0  0  0  0  0  0
  188.2490  178.8570  137.2540 C   0  0  0  0  0  2  0  0  0  0  0  0
  189.0640  178.1690  138.3160 C   0  0  0  0  0  2  0  0  0  0  0  0
  185.8620  177.9850  137.5410 C   0  0  0  0  0  3  0  0  0  0  0  0
  186.7090  178.4270  144.2890 N   0  0  0  0  0  0  0  0  0  0  0  0
  188.0260  178.0180  144.5610 C   0  0  0  0  0  0  0  0  0  0  0  0
  187.2660  177.5900  146.8590 C   0  0  0  0  0  3  0  0  0  0  0  0
  189.6480  177.2230  145.9760 C   0  0  0  0  0  0  0  0  0  0  0  0
  187.0880  177.9850  145.5680 C   0  0  0  0  0  0  0  0  0  0  0  0
  189.3390  177.6640  144.6370 C   0  0  0  0  0  3  0  0  0  0  0  0
  188.6370  177.1920  147.0420 C   0  0  0  0  0  3  0  0  0  0  0  0
  191.7510  176.3000  145.3810 O   0  0  0  0  0  0  0  0  0  0  0  0
  191.5270  176.9220  147.5700 O   0  0  0  0  0  1  0  0  0  0  0  0
  191.0210  176.7910  146.2820 C   0  0  0  0  0  0  0  0  0  0  0  0
  184.6850  179.7860  143.9600 C   0  0  0  0  0  2  0  0  0  0  0  0
  184.0890  179.0030  146.1310 O   0  0  0  0  0  1  0  0  0  0  0  0
  183.8240  179.0150  144.9010 C   0  0  0  0  0  0  0  0  0  0  0  0
  182.7470  178.2820  144.4190 O   0  0  0  0  0  0  0  0  0  0  0  0
  1 24  1  0  0  0  0
  1 14  1  0  0  0  0
  2  8  1  0  0  0  0
  3  2  1  0  0  0  0
  5 11  1  0  0  0  0
  5 13  2  0  0  0  0
  6  4  2  0  0  0  0
  6  8  1  0  0  0  0
  7  3  3  0  0  0  0
  8  1  1  6  0  0  0
  9  6  1  0  0  0  0
 10  9  2  0  0  0  0
 11 12  1  0  0  0  0
 12  7  1  0  0  0  0
 13 10  1  0  0  0  0
 14 15  1  0  0  0  0
 14 18  1  0  0  0  0
 15 19  2  0  0  0  0
 15 18  1  0  0  0  0
 16 20  1  0  0  0  0
 17 23  1  0  0  0  0
 17 20  2  0  0  0  0
 18 16  2  0  0  0  0
 19 17  1  0  0  0  0
 21 23  2  0  0  0  0
 23 22  1  0  0  0  0
 24 26  1  0  0  0  0
 26 25  1  0  0  0  0
 27 26  2  0  0  0  0
M  END
>  <MODEL>
7

>  <REMARK>
 VINA RESULT:      -8.5      2.382      7.563
  Name = 
  5 active torsions:
  status: ('A' for Active; 'I' for Inactive)
    1  A    between atoms: N_1  and  N_2
    2  A    between atoms: N_2  and  C_6
    3  A    between atoms: N_2  and  C_15
    4  A    between atoms: C_6  and  C_13
    5  A    between atoms: C_19  and  C_23
                            x       y       z     vdW  Elec       q    Type
                         _______ _______ _______ _____ _____    ______ ____

>  <TORSDO>
F 5

$$$$
=
 OpenBabel10222420193D

 27 29  0  0  1  0  0  0  0  0999 V2000
  189.5440  177.6550  141.0480 N   0  0  0  0  0  0  0  0  0  0  0  0
  188.4880  177.4940  143.1780 C   0  0  0  0  0  2  0  0  0  0  0  0
  187.6190  177.5060  144.1140 C   0  0  0  0  0  0  0  0  0  0  0  0
  191.9610  177.2220  142.5480 O   0  0  0  0  0  0  0  0  0  0  0  0
  189.0080  177.1050  147.7560 C   0  0  0  0  0  3  0  0  0  0  0  0
  190.8800  177.1790  143.1910 C   0  0  0  0  0  0  0  0  0  0  0  0
  187.0770  177.5030  145.2690 C   0  0  0  0  0  0  0  0  0  0  0  0
  189.5880  177.4480  142.4730 C   0  0  2  0  0  3  0  0  0  0  0  0
  190.9580  176.8100  144.6360 C   0  0  0  0  0  3  0  0  0  0  0  0
  190.0840  177.2580  145.5380 C   0  0  0  0  0  3  0  0  0  0  0  0
  187.8580  178.0510  147.4740 C   0  0  0  0  0  2  0  0  0  0  0  0
  186.8070  177.5130  146.5400 C   0  0  0  0  0  2  0  0  0  0  0  0
  190.0000  176.7710  146.9150 C   0  0  0  0  0  3  0  0  0  0  0  0
  188.3250  177.9060  140.4020 N   0  0  0  0  0  0  0  0  0  0  0  0
  186.9970  178.3690  140.4120 C   0  0  0  0  0  0  0  0  0  0  0  0
  186.9370  177.8200  138.0180 C   0  0  0  0  0  3  0  0  0  0  0  0
  185.0000  178.8170  139.3740 C   0  0  0  0  0  0  0  0  0  0  0  0
  187.5390  177.9010  139.2360 C   0  0  0  0  0  0  0  0  0  0  0  0
  185.7400  178.8560  140.6130 C   0  0  0  0  0  3  0  0  0  0  0  0
  185.5900  178.3150  138.1260 C   0  0  0  0  0  3  0  0  0  0  0  0
  182.6580  178.5080  139.6000 O   0  0  0  0  0  1  0  0  0  0  0  0
  183.3320  180.6330  139.0930 O   0  0  0  0  0  0  0  0  0  0  0  0
  183.6100  179.2980  139.3640 C   0  0  0  0  0  0  0  0  0  0  0  0
  190.7730  177.7190  140.2650 C   0  0  0  0  0  2  0  0  0  0  0  0
  190.5560  177.5030  137.9020 O   0  0  0  0  0  0  0  0  0  0  0  0
  190.6330  176.9200  139.0140 C   0  0  0  0  0  0  0  0  0  0  0  0
  190.5560  175.5360  139.0770 O   0  0  0  0  0  1  0  0  0  0  0  0
  2  3  1  0  0  0  0
  3  7  3  0  0  0  0
  4  6  2  0  0  0  0
  6  9  1  0  0  0  0
  7 12  1  0  0  0  0
  8  1  1  1  0  0  0
  8  2  1  0  0  0  0
  8  6  1  0  0  0  0
  9 10  2  0  0  0  0
 10 13  1  0  0  0  0
 11  5  1  0  0  0  0
 12 11  1  0  0  0  0
 13  5  2  0  0  0  0
 14 15  1  0  0  0  0
 14  1  1  0  0  0  0
 15 19  1  0  0  0  0
 16 20  2  0  0  0  0
 16 18  1  0  0  0  0
 17 19  2  0  0  0  0
 18 14  1  0  0  0  0
 18 15  2  0  0  0  0
 20 17  1  0  0  0  0
 22 23  2  0  0  0  0
 23 17  1  0  0  0  0
 23 21  1  0  0  0  0
 24  1  1  0  0  0  0
 25 26  2  0  0  0  0
 26 27  1  0  0  0  0
 26 24  1  0  0  0  0
M  END
>  <MODEL>
8

>  <REMARK>
 VINA RESULT:      -8.3      2.109      2.719
  Name = 
  5 active torsions:
  status: ('A' for Active; 'I' for Inactive)
    1  A    between atoms: N_1  and  N_2
    2  A    between atoms: N_2  and  C_6
    3  A    between atoms: N_2  and  C_15
    4  A    between atoms: C_6  and  C_13
    5  A    between atoms: C_19  and  C_23
                            x       y       z     vdW  Elec       q    Type
                         _______ _______ _______ _____ _____    ______ ____

>  <TORSDO>
F 5

$$$$
=
 OpenBabel10222420193D

 27 29  0  0  1  0  0  0  0  0999 V2000
  183.7270  178.4970  140.7830 N   0  0  0  0  0  0  0  0  0  0  0  0
  185.4090  178.2340  142.4510 C   0  0  0  0  0  0  0  0  0  0  0  0
  186.5030  177.9570  143.0470 C   0  0  0  0  0  0  0  0  0  0  0  0
  182.0640  179.2510  143.0060 O   0  0  0  0  0  0  0  0  0  0  0  0
  186.4580  178.2660  146.9540 C   0  0  0  0  0  3  0  0  0  0  0  0
  183.2740  179.0150  143.2590 C   0  0  0  0  0  0  0  0  0  0  0  0
  187.3680  177.7390  143.9600 C   0  0  0  0  0  2  0  0  0  0  0  0
  184.1810  178.5670  142.1480 C   0  0  2  0  0  3  0  0  0  0  0  0
  183.7390  179.2480  144.6590 C   0  0  0  0  0  3  0  0  0  0  0  0
  184.7320  178.5490  145.2090 C   0  0  0  0  0  3  0  0  0  0  0  0
  187.2220  177.1440  146.2830 C   0  0  0  0  0  2  0  0  0  0  0  0
  188.0160  177.5510  145.0710 C   0  0  0  0  0  2  0  0  0  0  0  0
  185.3500  178.8720  146.4960 C   0  0  0  0  0  3  0  0  0  0  0  0
  182.6370  177.6870  140.4360 N   0  0  0  0  0  0  0  0  0  0  0  0
  182.0830  176.5950  139.7430 C   0  0  0  0  0  0  0  0  0  0  0  0
  179.9450  177.1930  140.7980 C   0  0  0  0  0  3  0  0  0  0  0  0
  180.3220  175.2370  139.1800 C   0  0  0  0  0  0  0  0  0  0  0  0
  181.2750  177.3570  140.5570 C   0  0  0  0  0  0  0  0  0  0  0  0
  181.7280  175.5080  139.0020 C   0  0  0  0  0  3  0  0  0  0  0  0
  179.4700  176.0580  140.0520 C   0  0  0  0  0  3  0  0  0  0  0  0
  179.8360  172.9290  138.9180 O   0  0  0  0  0  1  0  0  0  0  0  0
  179.0260  174.3030  137.2800 O   0  0  0  0  0  0  0  0  0  0  0  0
  179.7240  174.0980  138.4650 C   0  0  0  0  0  0  0  0  0  0  0  0
  184.3170  179.3490  139.7560 C   0  0  0  0  0  2  0  0  0  0  0  0
  184.7310  177.9170  137.8970 O   0  0  0  0  0  0  0  0  0  0  0  0
  185.2120  178.5500  138.8710 C   0  0  0  0  0  0  0  0  0  0  0  0
  186.5720  178.4780  139.1400 O   0  0  0  0  0  1  0  0  0  0  0  0
  2  3  3  0  0  0  0
  3  7  1  0  0  0  0
  4  6  2  0  0  0  0
  6  9  1  0  0  0  0
  7 12  1  0  0  0  0
  8  1  1  1  0  0  0
  8  2  1  0  0  0  0
  8  6  1  0  0  0  0
  9 10  2  0  0  0  0
 10 13  1  0  0  0  0
 11  5  1  0  0  0  0
 12 11  1  0  0  0  0
 13  5  2  0  0  0  0
 14 18  1  0  0  0  0
 14  1  1  0  0  0  0
 15 14  1  0  0  0  0
 15 18  1  0  0  0  0
 17 20  2  0  0  0  0
 18 16  2  0  0  0  0
 19 17  1  0  0  0  0
 19 15  2  0  0  0  0
 20 16  1  0  0  0  0
 22 23  2  0  0  0  0
 23 21  1  0  0  0  0
 23 17  1  0  0  0  0
 24  1  1  0  0  0  0
 25 26  2  0  0  0  0
 26 27  1  0  0  0  0
 26 24  1  0  0  0  0
M  END
>  <MODEL>
9

>  <REMARK>
 VINA RESULT:      -8.3      3.597      5.640
  Name = 
  5 active torsions:
  status: ('A' for Active; 'I' for Inactive)
    1  A    between atoms: N_1  and  N_2
    2  A    between atoms: N_2  and  C_6
    3  A    between atoms: N_2  and  C_15
    4  A    between atoms: C_6  and  C_13
    5  A    between atoms: C_19  and  C_23
                            x       y       z     vdW  Elec       q    Type
                         _______ _______ _______ _____ _____    ______ ____

>  <TORSDO>
F 5

$$$$
