=
 OpenBabel10222417253D

 28 28  0  0  1  0  0  0  0  0999 V2000
  189.0920  177.8670  141.9230 C   0  0  1  0  0  3  0  0  0  0  0  0
  189.5600  176.9380  137.7650 C   0  0  0  0  0  3  0  0  0  0  0  0
  191.8740  175.5280  138.1230 Cl  0  0  0  0  0  0  0  0  0  0  0  0
  189.2640  177.5330  140.4660 C   0  0  2  0  0  3  0  0  0  0  0  0
  190.5090  176.4740  138.6750 C   0  0  0  0  0  0  0  0  0  0  0  0
  188.5030  177.6770  138.1990 N   0  0  0  0  0  0  0  0  0  0  0  0
  187.3370  178.6690  139.8660 O   0  0  0  0  0  0  0  0  0  0  0  0
  190.3620  176.7780  140.0290 C   0  0  0  0  0  3  0  0  0  0  0  0
  188.3330  177.9810  139.5140 C   0  0  0  0  0  0  0  0  0  0  0  0
  187.8750  177.1480  142.5350 C   0  0  1  0  0  3  0  0  0  0  0  0
  188.2730  175.9730  143.4240 C   0  0  0  0  0  1  0  0  0  0  0  0
  186.9930  178.1340  143.2920 C   0  0  0  0  0  2  0  0  0  0  0  0
  186.7910  177.7050  144.7400 C   0  0  0  0  0  2  0  0  0  0  0  0
  185.4590  178.2010  145.2820 C   0  0  1  0  0  3  0  0  0  0  0  0
  185.6850  179.1430  146.3660 N   0  0  0  0  0  1  0  0  0  0  0  0
  184.7470  178.8290  144.2580 O   0  0  0  0  0  0  0  0  0  0  0  0
  182.3950  178.8090  143.8690 C   0  0  0  0  0  1  0  0  0  0  0  0
  183.5180  179.1640  144.8280 C   0  0  0  0  0  2  0  0  0  0  0  0
  190.4030  177.6670  142.6870 C   0  0  0  0  0  2  0  0  0  0  0  0
  190.6600  178.8190  143.6450 C   0  0  0  0  0  2  0  0  0  0  0  0
  190.3050  178.4430  145.0070 N   0  0  0  0  0  2  0  0  0  0  0  0
  190.9940  177.3150  145.3100 O   0  0  0  0  0  0  0  0  0  0  0  0
  190.8310  177.1520  146.6870 C   0  0  2  0  0  3  0  0  0  0  0  0
  191.6630  176.0490  147.1380 N   0  0  0  0  0  1  0  0  0  0  0  0
  189.3690  176.8570  146.9940 C   0  0  0  0  0  2  0  0  0  0  0  0
  187.6400  177.4240  148.7000 O   0  0  0  0  0  1  0  0  0  0  0  0
  188.8970  177.6580  148.1590 C   0  0  0  0  0  0  0  0  0  0  0  0
  189.6310  178.5600  148.6440 O   0  0  0  0  0  0  0  0  0  0  0  0
  1 10  1  0  0  0  0
  1 19  1  1  0  0  0
  2  6  2  0  0  0  0
  2  5  1  0  0  0  0
  3  5  1  0  0  0  0
  4  1  1  6  0  0  0
  5  8  2  0  0  0  0
  6  9  1  0  0  0  0
  8  4  1  0  0  0  0
  9  7  2  0  0  0  0
  9  4  1  0  0  0  0
 10 12  1  0  0  0  0
 10 11  1  1  0  0  0
 12 13  1  0  0  0  0
 13 14  1  0  0  0  0
 14 15  1  1  0  0  0
 16 18  1  0  0  0  0
 16 14  1  0  0  0  0
 17 18  1  0  0  0  0
 19 20  1  0  0  0  0
 20 21  1  0  0  0  0
 21 22  1  0  0  0  0
 22 23  1  0  0  0  0
 23 25  1  0  0  0  0
 23 24  1  6  0  0  0
 25 27  1  0  0  0  0
 27 28  2  0  0  0  0
 27 26  1  0  0  0  0
M  END
>  <MODEL>
1

>  <REMARK>
 VINA RESULT:      -6.5      0.000      0.000
  Name = 
  14 active torsions:
  status: ('A' for Active; 'I' for Inactive)
    1  A    between atoms: C_4  and  C_20
    2  A    between atoms: C_4  and  C_21
    3  A    between atoms: C_6  and  C_14
    4  A    between atoms: C_6  and  C_24
    5  A    between atoms: C_7  and  C_21
    6  A    between atoms: C_9  and  C_16
    7  A    between atoms: C_9  and  C_20
    8  A    between atoms: N_10  and  O_13
    9  A    between atoms: N_10  and  C_27
   10  A    between atoms: C_11  and  O_19
   11  A    between atoms: O_13  and  C_24
   12  A    between atoms: C_16  and  O_19
   13  A    between atoms: C_21  and  C_23
   14  A    between atoms: C_23  and  C_27
                            x       y       z     vdW  Elec       q    Type
                         _______ _______ _______ _____ _____    ______ ____

>  <TORSDO>
F 14

$$$$
=
 OpenBabel10222417253D

 28 28  0  0  1  0  0  0  0  0999 V2000
  189.7750  177.3270  142.7800 C   0  0  1  0  0  3  0  0  0  0  0  0
  189.6720  177.6780  138.5090 C   0  0  0  0  0  3  0  0  0  0  0  0
  186.9820  178.1540  138.4020 Cl  0  0  0  0  0  0  0  0  0  0  0  0
  189.7290  177.4560  141.2810 C   0  0  2  0  0  3  0  0  0  0  0  0
  188.4880  177.8290  139.2320 C   0  0  0  0  0  0  0  0  0  0  0  0
  190.8390  177.4210  139.1580 N   0  0  0  0  0  0  0  0  0  0  0  0
  192.0020  177.0690  141.0680 O   0  0  0  0  0  0  0  0  0  0  0  0
  188.5180  177.7120  140.6210 C   0  0  0  0  0  3  0  0  0  0  0  0
  190.8960  177.3090  140.5130 C   0  0  0  0  0  0  0  0  0  0  0  0
  191.1080  177.8440  143.3560 C   0  0  1  0  0  3  0  0  0  0  0  0
  191.0040  179.2740  143.8810 C   0  0  0  0  0  1  0  0  0  0  0  0
  191.6280  176.9010  144.4340 C   0  0  0  0  0  2  0  0  0  0  0  0
  191.3760  177.4540  145.8300 C   0  0  0  0  0  2  0  0  0  0  0  0
  191.2050  176.3340  146.8450 C   0  0  1  0  0  3  0  0  0  0  0  0
  192.1810  176.4800  147.9120 N   0  0  0  0  0  1  0  0  0  0  0  0
  189.9160  176.3880  147.3810 O   0  0  0  0  0  0  0  0  0  0  0  0
  188.4810  177.9130  148.5200 C   0  0  0  0  0  1  0  0  0  0  0  0
  189.6740  177.7460  147.5960 C   0  0  0  0  0  2  0  0  0  0  0  0
  188.5240  177.9350  143.4180 C   0  0  0  0  0  2  0  0  0  0  0  0
  187.9070  176.9810  144.4290 C   0  0  0  0  0  2  0  0  0  0  0  0
  186.9180  177.6690  145.2480 N   0  0  0  0  0  2  0  0  0  0  0  0
  185.7410  177.6330  144.5770 O   0  0  0  0  0  0  0  0  0  0  0  0
  185.1640  178.8860  144.7970 C   0  0  2  0  0  3  0  0  0  0  0  0
  184.5730  178.9130  146.1250 N   0  0  0  0  0  1  0  0  0  0  0  0
  184.0910  179.1420  143.7470 C   0  0  0  0  0  2  0  0  0  0  0  0
  184.0860  177.9350  141.5640 O   0  0  0  0  0  0  0  0  0  0  0  0
  184.6270  178.9250  142.3730 C   0  0  0  0  0  0  0  0  0  0  0  0
  185.5840  179.6290  141.9500 O   0  0  0  0  0  1  0  0  0  0  0  0
  1 10  1  0  0  0  0
  1 19  1  1  0  0  0
  2  6  2  0  0  0  0
  2  5  1  0  0  0  0
  3  5  1  0  0  0  0
  4  1  1  6  0  0  0
  5  8  2  0  0  0  0
  6  9  1  0  0  0  0
  8  4  1  0  0  0  0
  9  7  2  0  0  0  0
  9  4  1  0  0  0  0
 10 11  1  1  0  0  0
 10 12  1  0  0  0  0
 12 13  1  0  0  0  0
 13 14  1  0  0  0  0
 14 16  1  0  0  0  0
 14 15  1  1  0  0  0
 16 18  1  0  0  0  0
 18 17  1  0  0  0  0
 19 20  1  0  0  0  0
 20 21  1  0  0  0  0
 22 23  1  0  0  0  0
 22 21  1  0  0  0  0
 23 24  1  1  0  0  0
 25 23  1  0  0  0  0
 26 27  2  0  0  0  0
 27 25  1  0  0  0  0
 28 27  1  0  0  0  0
M  END
>  <MODEL>
2

>  <REMARK>
 VINA RESULT:      -6.4      2.023      5.277
  Name = 
  14 active torsions:
  status: ('A' for Active; 'I' for Inactive)
    1  A    between atoms: C_4  and  C_20
    2  A    between atoms: C_4  and  C_21
    3  A    between atoms: C_6  and  C_14
    4  A    between atoms: C_6  and  C_24
    5  A    between atoms: C_7  and  C_21
    6  A    between atoms: C_9  and  C_16
    7  A    between atoms: C_9  and  C_20
    8  A    between atoms: N_10  and  O_13
    9  A    between atoms: N_10  and  C_27
   10  A    between atoms: C_11  and  O_19
   11  A    between atoms: O_13  and  C_24
   12  A    between atoms: C_16  and  O_19
   13  A    between atoms: C_21  and  C_23
   14  A    between atoms: C_23  and  C_27
                            x       y       z     vdW  Elec       q    Type
                         _______ _______ _______ _____ _____    ______ ____

>  <TORSDO>
F 14

$$$$
=
 OpenBabel10222417253D

 28 28  0  0  1  0  0  0  0  0999 V2000
  186.9610  178.3870  143.4520 C   0  0  1  0  0  3  0  0  0  0  0  0
  182.8820  178.9630  144.6360 C   0  0  0  0  0  3  0  0  0  0  0  0
  181.8810  178.6250  142.1140 Cl  0  0  0  0  0  0  0  0  0  0  0  0
  185.5250  178.5850  143.8570 C   0  0  2  0  0  3  0  0  0  0  0  0
  183.1700  178.7070  143.2950 C   0  0  0  0  0  0  0  0  0  0  0  0
  183.8880  179.0290  145.5490 N   0  0  0  0  0  0  0  0  0  0  0  0
  186.0850  178.9190  146.0800 O   0  0  0  0  0  0  0  0  0  0  0  0
  184.4970  178.5230  142.9060 C   0  0  0  0  0  3  0  0  0  0  0  0
  185.1890  178.8470  145.1960 C   0  0  0  0  0  0  0  0  0  0  0  0
  187.6680  177.3470  144.3410 C   0  0  1  0  0  3  0  0  0  0  0  0
  187.9890  176.0560  143.5920 C   0  0  0  0  0  1  0  0  0  0  0  0
  188.9230  177.9420  144.9700 C   0  0  0  0  0  2  0  0  0  0  0  0
  189.7210  176.8890  145.7270 C   0  0  0  0  0  2  0  0  0  0  0  0
  191.1680  176.8510  145.2590 C   0  0  1  0  0  3  0  0  0  0  0  0
  191.3820  177.8570  144.2310 N   0  0  0  0  0  1  0  0  0  0  0  0
  192.0120  177.1030  146.3430 O   0  0  0  0  0  0  0  0  0  0  0  0
  192.6680  175.6270  148.0950 C   0  0  0  0  0  1  0  0  0  0  0  0
  191.5160  176.3070  147.3770 C   0  0  0  0  0  2  0  0  0  0  0  0
  187.0710  178.1240  141.9480 C   0  0  0  0  0  2  0  0  0  0  0  0
  188.3430  178.7310  141.3780 C   0  0  0  0  0  2  0  0  0  0  0  0
  188.3170  178.7060  139.9220 N   0  0  0  0  0  2  0  0  0  0  0  0
  187.0770  178.3080  139.5450 O   0  0  0  0  0  0  0  0  0  0  0  0
  187.1720  178.0870  138.1700 C   0  0  2  0  0  3  0  0  0  0  0  0
  188.1750  178.9790  137.6120 N   0  0  0  0  0  1  0  0  0  0  0  0
  185.8220  178.3530  137.5180 C   0  0  0  0  0  2  0  0  0  0  0  0
  183.9610  177.7020  139.0470 O   0  0  0  0  0  1  0  0  0  0  0  0
  184.7930  178.6920  138.5420 C   0  0  0  0  0  0  0  0  0  0  0  0
  184.6660  179.8820  138.9380 O   0  0  0  0  0  0  0  0  0  0  0  0
  1 19  1  6  0  0  0
  1 10  1  0  0  0  0
  2  6  2  0  0  0  0
  3  5  1  0  0  0  0
  4  1  1  6  0  0  0
  4  9  1  0  0  0  0
  5  2  1  0  0  0  0
  8  5  2  0  0  0  0
  8  4  1  0  0  0  0
  9  6  1  0  0  0  0
  9  7  2  0  0  0  0
 10 11  1  6  0  0  0
 10 12  1  0  0  0  0
 12 13  1  0  0  0  0
 14 15  1  6  0  0  0
 14 13  1  0  0  0  0
 14 16  1  0  0  0  0
 16 18  1  0  0  0  0
 18 17  1  0  0  0  0
 20 19  1  0  0  0  0
 21 20  1  0  0  0  0
 22 21  1  0  0  0  0
 23 24  1  6  0  0  0
 23 22  1  0  0  0  0
 25 23  1  0  0  0  0
 25 27  1  0  0  0  0
 27 28  2  0  0  0  0
 27 26  1  0  0  0  0
M  END
>  <MODEL>
3

>  <REMARK>
 VINA RESULT:      -6.4      2.955      7.675
  Name = 
  14 active torsions:
  status: ('A' for Active; 'I' for Inactive)
    1  A    between atoms: C_4  and  C_20
    2  A    between atoms: C_4  and  C_21
    3  A    between atoms: C_6  and  C_14
    4  A    between atoms: C_6  and  C_24
    5  A    between atoms: C_7  and  C_21
    6  A    between atoms: C_9  and  C_16
    7  A    between atoms: C_9  and  C_20
    8  A    between atoms: N_10  and  O_13
    9  A    between atoms: N_10  and  C_27
   10  A    between atoms: C_11  and  O_19
   11  A    between atoms: O_13  and  C_24
   12  A    between atoms: C_16  and  O_19
   13  A    between atoms: C_21  and  C_23
   14  A    between atoms: C_23  and  C_27
                            x       y       z     vdW  Elec       q    Type
                         _______ _______ _______ _____ _____    ______ ____

>  <TORSDO>
F 14

$$$$
=
 OpenBabel10222417253D

 28 28  0  0  1  0  0  0  0  0999 V2000
  187.0230  178.3640  143.5190 C   0  0  1  0  0  3  0  0  0  0  0  0
  182.9850  178.9710  144.8210 C   0  0  0  0  0  3  0  0  0  0  0  0
  181.9180  178.7350  142.3150 Cl  0  0  0  0  0  0  0  0  0  0  0  0
  185.6020  178.5730  143.9660 C   0  0  2  0  0  3  0  0  0  0  0  0
  183.2360  178.7550  143.4660 C   0  0  0  0  0  0  0  0  0  0  0  0
  184.0140  178.9900  145.7110 N   0  0  0  0  0  0  0  0  0  0  0  0
  186.2210  178.8240  146.1840 O   0  0  0  0  0  0  0  0  0  0  0  0
  184.5500  178.5610  143.0390 C   0  0  0  0  0  3  0  0  0  0  0  0
  185.3030  178.7960  145.3210 C   0  0  0  0  0  0  0  0  0  0  0  0
  187.6970  177.2060  144.2790 C   0  0  1  0  0  3  0  0  0  0  0  0
  187.8430  175.9500  143.4240 C   0  0  0  0  0  1  0  0  0  0  0  0
  189.0430  177.6450  144.8430 C   0  0  0  0  0  2  0  0  0  0  0  0
  190.1820  176.7950  144.2960 C   0  0  0  0  0  2  0  0  0  0  0  0
  191.5360  177.3850  144.6610 C   0  0  1  0  0  3  0  0  0  0  0  0
  191.6090  178.7680  144.2190 N   0  0  0  0  0  1  0  0  0  0  0  0
  191.7080  177.3280  146.0460 O   0  0  0  0  0  0  0  0  0  0  0  0
  192.3560  175.8240  147.7780 C   0  0  0  0  0  1  0  0  0  0  0  0
  191.9580  175.9820  146.3210 C   0  0  0  0  0  2  0  0  0  0  0  0
  187.1060  178.2610  141.9940 C   0  0  0  0  0  2  0  0  0  0  0  0
  188.4240  178.8170  141.4790 C   0  0  0  0  0  2  0  0  0  0  0  0
  188.9980  177.9310  140.4750 N   0  0  0  0  0  2  0  0  0  0  0  0
  188.3160  178.1300  139.3200 O   0  0  0  0  0  0  0  0  0  0  0  0
  189.2950  178.1700  138.3260 C   0  0  2  0  0  3  0  0  0  0  0  0
  188.9590  179.2090  137.3670 N   0  0  0  0  0  1  0  0  0  0  0  0
  189.3630  176.8200  137.6250 C   0  0  0  0  0  2  0  0  0  0  0  0
  190.6580  174.7110  137.9340 O   0  0  0  0  0  0  0  0  0  0  0  0
  190.6180  176.0980  137.9790 C   0  0  0  0  0  0  0  0  0  0  0  0
  191.6390  176.7450  138.3350 O   0  0  0  0  0  1  0  0  0  0  0  0
  1 19  1  6  0  0  0
  1 10  1  0  0  0  0
  2  6  2  0  0  0  0
  3  5  1  0  0  0  0
  4  1  1  6  0  0  0
  4  9  1  0  0  0  0
  5  2  1  0  0  0  0
  8  5  2  0  0  0  0
  8  4  1  0  0  0  0
  9  6  1  0  0  0  0
  9  7  2  0  0  0  0
 10 11  1  6  0  0  0
 10 12  1  0  0  0  0
 13 14  1  0  0  0  0
 13 12  1  0  0  0  0
 14 15  1  1  0  0  0
 14 16  1  0  0  0  0
 16 18  1  0  0  0  0
 18 17  1  0  0  0  0
 20 19  1  0  0  0  0
 21 20  1  0  0  0  0
 22 21  1  0  0  0  0
 23 24  1  6  0  0  0
 23 22  1  0  0  0  0
 25 27  1  0  0  0  0
 25 23  1  0  0  0  0
 26 27  2  0  0  0  0
 27 28  1  0  0  0  0
M  END
>  <MODEL>
4

>  <REMARK>
 VINA RESULT:      -6.4      2.933      7.620
  Name = 
  14 active torsions:
  status: ('A' for Active; 'I' for Inactive)
    1  A    between atoms: C_4  and  C_20
    2  A    between atoms: C_4  and  C_21
    3  A    between atoms: C_6  and  C_14
    4  A    between atoms: C_6  and  C_24
    5  A    between atoms: C_7  and  C_21
    6  A    between atoms: C_9  and  C_16
    7  A    between atoms: C_9  and  C_20
    8  A    between atoms: N_10  and  O_13
    9  A    between atoms: N_10  and  C_27
   10  A    between atoms: C_11  and  O_19
   11  A    between atoms: O_13  and  C_24
   12  A    between atoms: C_16  and  O_19
   13  A    between atoms: C_21  and  C_23
   14  A    between atoms: C_23  and  C_27
                            x       y       z     vdW  Elec       q    Type
                         _______ _______ _______ _____ _____    ______ ____

>  <TORSDO>
F 14

$$$$
=
 OpenBabel10222417253D

 28 28  0  0  1  0  0  0  0  0999 V2000
  189.3350  177.2560  142.3410 C   0  0  1  0  0  3  0  0  0  0  0  0
  189.5630  177.9310  138.1140 C   0  0  0  0  0  3  0  0  0  0  0  0
  191.7690  176.3530  137.7680 Cl  0  0  0  0  0  0  0  0  0  0  0  0
  189.4220  177.4840  140.8560 C   0  0  2  0  0  3  0  0  0  0  0  0
  190.5070  177.1030  138.7220 C   0  0  0  0  0  0  0  0  0  0  0  0
  188.5870  178.5150  138.8610 N   0  0  0  0  0  0  0  0  0  0  0  0
  187.5720  178.8760  140.8510 O   0  0  0  0  0  0  0  0  0  0  0  0
  190.4380  176.8840  140.0980 C   0  0  0  0  0  3  0  0  0  0  0  0
  188.4940  178.3120  140.2030 C   0  0  0  0  0  0  0  0  0  0  0  0
  190.6540  177.6140  143.0520 C   0  0  1  0  0  3  0  0  0  0  0  0
  190.6330  179.0160  143.6570 C   0  0  0  0  0  1  0  0  0  0  0  0
  190.9970  176.5680  144.1060 C   0  0  0  0  0  2  0  0  0  0  0  0
  191.4730  177.2140  145.4010 C   0  0  0  0  0  2  0  0  0  0  0  0
  191.2040  176.3160  146.5980 C   0  0  1  0  0  3  0  0  0  0  0  0
  192.3970  175.5510  146.9220 N   0  0  0  0  0  1  0  0  0  0  0  0
  190.8410  177.1010  147.6940 O   0  0  0  0  0  0  0  0  0  0  0  0
  188.9330  178.2940  148.4800 C   0  0  0  0  0  1  0  0  0  0  0  0
  189.4450  177.1060  147.6860 C   0  0  0  0  0  2  0  0  0  0  0  0
  188.0910  177.9310  142.9240 C   0  0  0  0  0  2  0  0  0  0  0  0
  187.4550  177.0670  144.0020 C   0  0  0  0  0  2  0  0  0  0  0  0
  187.3380  177.8070  145.2520 N   0  0  0  0  0  2  0  0  0  0  0  0
  186.0940  177.5820  145.7410 O   0  0  0  0  0  0  0  0  0  0  0  0
  185.4980  178.8430  145.8040 C   0  0  2  0  0  3  0  0  0  0  0  0
  185.6050  179.3550  147.1600 N   0  0  0  0  0  1  0  0  0  0  0  0
  184.0330  178.7340  145.4050 C   0  0  0  0  0  2  0  0  0  0  0  0
  184.8980  179.6450  143.2490 O   0  0  0  0  0  0  0  0  0  0  0  0
  183.8140  179.2690  144.0310 C   0  0  0  0  0  0  0  0  0  0  0  0
  182.6430  179.3980  143.5840 O   0  0  0  0  0  1  0  0  0  0  0  0
  1 19  1  1  0  0  0
  1 10  1  0  0  0  0
  2  5  1  0  0  0  0
  2  6  2  0  0  0  0
  3  5  1  0  0  0  0
  4  1  1  1  0  0  0
  5  8  2  0  0  0  0
  6  9  1  0  0  0  0
  8  4  1  0  0  0  0
  9  7  2  0  0  0  0
  9  4  1  0  0  0  0
 10 11  1  1  0  0  0
 10 12  1  0  0  0  0
 12 13  1  0  0  0  0
 13 14  1  0  0  0  0
 14 15  1  1  0  0  0
 14 16  1  0  0  0  0
 18 16  1  0  0  0  0
 18 17  1  0  0  0  0
 19 20  1  0  0  0  0
 20 21  1  0  0  0  0
 21 22  1  0  0  0  0
 22 23  1  0  0  0  0
 23 24  1  1  0  0  0
 25 23  1  0  0  0  0
 26 27  2  0  0  0  0
 27 25  1  0  0  0  0
 28 27  1  0  0  0  0
M  END
>  <MODEL>
5

>  <REMARK>
 VINA RESULT:      -6.3      1.356      4.857
  Name = 
  14 active torsions:
  status: ('A' for Active; 'I' for Inactive)
    1  A    between atoms: C_4  and  C_20
    2  A    between atoms: C_4  and  C_21
    3  A    between atoms: C_6  and  C_14
    4  A    between atoms: C_6  and  C_24
    5  A    between atoms: C_7  and  C_21
    6  A    between atoms: C_9  and  C_16
    7  A    between atoms: C_9  and  C_20
    8  A    between atoms: N_10  and  O_13
    9  A    between atoms: N_10  and  C_27
   10  A    between atoms: C_11  and  O_19
   11  A    between atoms: O_13  and  C_24
   12  A    between atoms: C_16  and  O_19
   13  A    between atoms: C_21  and  C_23
   14  A    between atoms: C_23  and  C_27
                            x       y       z     vdW  Elec       q    Type
                         _______ _______ _______ _____ _____    ______ ____

>  <TORSDO>
F 14

$$$$
=
 OpenBabel10222417253D

 28 28  0  0  1  0  0  0  0  0999 V2000
  186.8470  178.3770  143.4200 C   0  0  1  0  0  3  0  0  0  0  0  0
  182.7030  179.0080  144.3150 C   0  0  0  0  0  3  0  0  0  0  0  0
  181.8550  178.4850  141.7690 Cl  0  0  0  0  0  0  0  0  0  0  0  0
  185.3890  178.5930  143.7250 C   0  0  2  0  0  3  0  0  0  0  0  0
  183.0720  178.6600  143.0160 C   0  0  0  0  0  0  0  0  0  0  0  0
  183.6520  179.1470  145.2800 N   0  0  0  0  0  0  0  0  0  0  0  0
  185.8140  179.0900  145.9460 O   0  0  0  0  0  0  0  0  0  0  0  0
  184.4190  178.4570  142.7210 C   0  0  0  0  0  3  0  0  0  0  0  0
  184.9730  178.9480  145.0190 C   0  0  0  0  0  0  0  0  0  0  0  0
  187.4440  177.2360  144.2660 C   0  0  1  0  0  3  0  0  0  0  0  0
  187.9750  176.0890  143.4100 C   0  0  0  0  0  1  0  0  0  0  0  0
  188.5240  177.7690  145.2000 C   0  0  0  0  0  2  0  0  0  0  0  0
  189.5740  176.7080  145.5030 C   0  0  0  0  0  2  0  0  0  0  0  0
  190.9810  177.2750  145.3880 C   0  0  1  0  0  3  0  0  0  0  0  0
  191.7360  176.9710  146.5930 N   0  0  0  0  0  1  0  0  0  0  0  0
  191.6190  176.7100  144.2820 O   0  0  0  0  0  0  0  0  0  0  0  0
  191.6100  179.0590  143.8780 C   0  0  0  0  0  1  0  0  0  0  0  0
  191.5080  177.6700  143.2750 C   0  0  0  0  0  2  0  0  0  0  0  0
  187.0750  178.2430  141.9120 C   0  0  0  0  0  2  0  0  0  0  0  0
  188.4280  178.8080  141.5110 C   0  0  0  0  0  2  0  0  0  0  0  0
  188.9600  178.0970  140.3560 N   0  0  0  0  0  2  0  0  0  0  0  0
  188.5650  178.7720  139.2480 O   0  0  0  0  0  0  0  0  0  0  0  0
  188.1850  177.7820  138.3400 C   0  0  2  0  0  3  0  0  0  0  0  0
  189.3440  177.3810  137.5590 N   0  0  0  0  0  1  0  0  0  0  0  0
  187.1030  178.3250  137.4180 C   0  0  0  0  0  2  0  0  0  0  0  0
  185.3010  179.1270  138.9460 O   0  0  0  0  0  1  0  0  0  0  0  0
  185.7540  178.1810  138.0370 C   0  0  0  0  0  0  0  0  0  0  0  0
  185.0300  177.1910  137.7480 O   0  0  0  0  0  0  0  0  0  0  0  0
  1 19  1  6  0  0  0
  1 10  1  0  0  0  0
  2  6  2  0  0  0  0
  3  5  1  0  0  0  0
  4  1  1  6  0  0  0
  4  9  1  0  0  0  0
  5  2  1  0  0  0  0
  8  5  2  0  0  0  0
  8  4  1  0  0  0  0
  9  6  1  0  0  0  0
  9  7  2  0  0  0  0
 10 11  1  6  0  0  0
 10 12  1  0  0  0  0
 12 13  1  0  0  0  0
 14 13  1  0  0  0  0
 14 15  1  1  0  0  0
 16 14  1  0  0  0  0
 18 17  1  0  0  0  0
 18 16  1  0  0  0  0
 20 19  1  0  0  0  0
 21 20  1  0  0  0  0
 22 21  1  0  0  0  0
 23 24  1  6  0  0  0
 23 22  1  0  0  0  0
 25 27  1  0  0  0  0
 25 23  1  0  0  0  0
 27 26  1  0  0  0  0
 28 27  2  0  0  0  0
M  END
>  <MODEL>
6

>  <REMARK>
 VINA RESULT:      -6.3      2.839      7.446
  Name = 
  14 active torsions:
  status: ('A' for Active; 'I' for Inactive)
    1  A    between atoms: C_4  and  C_20
    2  A    between atoms: C_4  and  C_21
    3  A    between atoms: C_6  and  C_14
    4  A    between atoms: C_6  and  C_24
    5  A    between atoms: C_7  and  C_21
    6  A    between atoms: C_9  and  C_16
    7  A    between atoms: C_9  and  C_20
    8  A    between atoms: N_10  and  O_13
    9  A    between atoms: N_10  and  C_27
   10  A    between atoms: C_11  and  O_19
   11  A    between atoms: O_13  and  C_24
   12  A    between atoms: C_16  and  O_19
   13  A    between atoms: C_21  and  C_23
   14  A    between atoms: C_23  and  C_27
                            x       y       z     vdW  Elec       q    Type
                         _______ _______ _______ _____ _____    ______ ____

>  <TORSDO>
F 14

$$$$
=
 OpenBabel10222417253D

 28 28  0  0  1  0  0  0  0  0999 V2000
  186.8090  178.4250  143.1630 C   0  0  1  0  0  3  0  0  0  0  0  0
  182.5640  178.9770  143.3770 C   0  0  0  0  0  3  0  0  0  0  0  0
  182.1060  178.0750  140.8370 Cl  0  0  0  0  0  0  0  0  0  0  0  0
  185.3170  178.6120  143.2290 C   0  0  2  0  0  3  0  0  0  0  0  0
  183.1250  178.4730  142.2030 C   0  0  0  0  0  0  0  0  0  0  0  0
  183.3600  179.2880  144.4350 N   0  0  0  0  0  0  0  0  0  0  0  0
  185.4050  179.4230  145.3960 O   0  0  0  0  0  0  0  0  0  0  0  0
  184.5060  178.2960  142.1290 C   0  0  0  0  0  3  0  0  0  0  0  0
  184.7100  179.1190  144.3900 C   0  0  0  0  0  0  0  0  0  0  0  0
  187.2910  177.3290  144.1320 C   0  0  1  0  0  3  0  0  0  0  0  0
  187.7820  176.0790  143.4070 C   0  0  0  0  0  1  0  0  0  0  0  0
  188.3620  177.8740  145.0700 C   0  0  0  0  0  2  0  0  0  0  0  0
  187.9910  177.6530  146.5300 C   0  0  0  0  0  2  0  0  0  0  0  0
  189.2260  177.6380  147.4180 C   0  0  1  0  0  3  0  0  0  0  0  0
  188.8530  177.9380  148.7910 N   0  0  0  0  0  1  0  0  0  0  0  0
  189.8220  176.3770  147.3610 O   0  0  0  0  0  0  0  0  0  0  0  0
  191.6770  176.7560  145.9130 C   0  0  0  0  0  1  0  0  0  0  0  0
  191.1950  176.6280  147.3470 C   0  0  0  0  0  2  0  0  0  0  0  0
  187.2730  178.2470  141.7150 C   0  0  0  0  0  2  0  0  0  0  0  0
  188.7210  178.6790  141.5480 C   0  0  0  0  0  2  0  0  0  0  0  0
  189.4360  177.7540  140.6780 N   0  0  0  0  0  2  0  0  0  0  0  0
  188.6180  177.4630  139.6360 O   0  0  0  0  0  0  0  0  0  0  0  0
  189.3910  176.6780  138.7790 C   0  0  2  0  0  3  0  0  0  0  0  0
  190.5510  176.1820  139.5030 N   0  0  0  0  0  1  0  0  0  0  0  0
  189.8420  177.5160  137.5910 C   0  0  0  0  0  2  0  0  0  0  0  0
  187.6690  178.2360  136.5990 O   0  0  0  0  0  0  0  0  0  0  0  0
  188.8370  178.5700  137.2700 C   0  0  0  0  0  0  0  0  0  0  0  0
  189.0550  179.7680  137.5930 O   0  0  0  0  0  1  0  0  0  0  0  0
  1 19  1  6  0  0  0
  1 10  1  0  0  0  0
  2  6  2  0  0  0  0
  3  5  1  0  0  0  0
  4  1  1  6  0  0  0
  4  9  1  0  0  0  0
  5  2  1  0  0  0  0
  8  5  2  0  0  0  0
  8  4  1  0  0  0  0
  9  6  1  0  0  0  0
  9  7  2  0  0  0  0
 10 11  1  6  0  0  0
 10 12  1  0  0  0  0
 12 13  1  0  0  0  0
 13 14  1  0  0  0  0
 14 15  1  1  0  0  0
 16 14  1  0  0  0  0
 17 18  1  0  0  0  0
 18 16  1  0  0  0  0
 20 19  1  0  0  0  0
 21 20  1  0  0  0  0
 22 21  1  0  0  0  0
 23 24  1  1  0  0  0
 23 22  1  0  0  0  0
 25 23  1  0  0  0  0
 26 27  2  0  0  0  0
 27 25  1  0  0  0  0
 27 28  1  0  0  0  0
M  END
>  <MODEL>
7

>  <REMARK>
 VINA RESULT:      -6.2      2.779      7.112
  Name = 
  14 active torsions:
  status: ('A' for Active; 'I' for Inactive)
    1  A    between atoms: C_4  and  C_20
    2  A    between atoms: C_4  and  C_21
    3  A    between atoms: C_6  and  C_14
    4  A    between atoms: C_6  and  C_24
    5  A    between atoms: C_7  and  C_21
    6  A    between atoms: C_9  and  C_16
    7  A    between atoms: C_9  and  C_20
    8  A    between atoms: N_10  and  O_13
    9  A    between atoms: N_10  and  C_27
   10  A    between atoms: C_11  and  O_19
   11  A    between atoms: O_13  and  C_24
   12  A    between atoms: C_16  and  O_19
   13  A    between atoms: C_21  and  C_23
   14  A    between atoms: C_23  and  C_27
                            x       y       z     vdW  Elec       q    Type
                         _______ _______ _______ _____ _____    ______ ____

>  <TORSDO>
F 14

$$$$
=
 OpenBabel10222417253D

 28 28  0  0  1  0  0  0  0  0999 V2000
  187.2730  177.5640  143.4300 C   0  0  1  0  0  3  0  0  0  0  0  0
  191.5410  177.1920  143.5720 C   0  0  0  0  0  3  0  0  0  0  0  0
  191.9530  179.7840  144.3390 Cl  0  0  0  0  0  0  0  0  0  0  0  0
  188.7720  177.4430  143.4860 C   0  0  2  0  0  3  0  0  0  0  0  0
  190.9550  178.4170  143.8900 C   0  0  0  0  0  0  0  0  0  0  0  0
  190.7610  176.1340  143.2200 N   0  0  0  0  0  0  0  0  0  0  0  0
  188.7260  175.2200  142.8380 O   0  0  0  0  0  0  0  0  0  0  0  0
  189.5670  178.5420  143.8410 C   0  0  0  0  0  3  0  0  0  0  0  0
  189.4040  176.2290  143.1710 C   0  0  0  0  0  0  0  0  0  0  0  0
  186.6900  178.0730  144.7620 C   0  0  1  0  0  3  0  0  0  0  0  0
  185.1820  178.2970  144.6950 C   0  0  0  0  0  1  0  0  0  0  0  0
  187.0550  177.1300  145.9030 C   0  0  0  0  0  2  0  0  0  0  0  0
  187.3560  177.8940  147.1850 C   0  0  0  0  0  2  0  0  0  0  0  0
  188.8540  178.0040  147.4240 C   0  0  1  0  0  3  0  0  0  0  0  0
  189.1140  178.2330  148.8360 N   0  0  0  0  0  1  0  0  0  0  0  0
  189.4750  176.8200  147.0210 O   0  0  0  0  0  0  0  0  0  0  0  0
  191.5810  175.7480  147.3330 C   0  0  0  0  0  1  0  0  0  0  0  0
  190.8420  177.0640  147.1680 C   0  0  0  0  0  2  0  0  0  0  0  0
  186.8360  178.3580  142.1960 C   0  0  0  0  0  2  0  0  0  0  0  0
  188.0350  178.7640  141.3540 C   0  0  0  0  0  2  0  0  0  0  0  0
  187.8380  178.3830  139.9620 N   0  0  0  0  0  2  0  0  0  0  0  0
  188.8030  178.9970  139.2330 O   0  0  0  0  0  0  0  0  0  0  0  0
  189.2360  178.0310  138.3230 C   0  0  2  0  0  3  0  0  0  0  0  0
  188.2280  177.8640  137.2880 N   0  0  0  0  0  1  0  0  0  0  0  0
  189.4560  176.7110  139.0490 C   0  0  0  0  0  2  0  0  0  0  0  0
  191.7830  177.1560  139.8270 O   0  0  0  0  0  1  0  0  0  0  0  0
  190.9050  176.3650  139.0990 C   0  0  0  0  0  0  0  0  0  0  0  0
  191.3370  175.3650  138.4660 O   0  0  0  0  0  0  0  0  0  0  0  0
  1 19  1  6  0  0  0
  1 10  1  0  0  0  0
  2  5  1  0  0  0  0
  4  1  1  6  0  0  0
  4  8  1  0  0  0  0
  5  3  1  0  0  0  0
  6  2  2  0  0  0  0
  7  9  2  0  0  0  0
  8  5  2  0  0  0  0
  9  6  1  0  0  0  0
  9  4  1  0  0  0  0
 10 11  1  6  0  0  0
 10 12  1  0  0  0  0
 12 13  1  0  0  0  0
 13 14  1  0  0  0  0
 14 15  1  1  0  0  0
 16 18  1  0  0  0  0
 16 14  1  0  0  0  0
 18 17  1  0  0  0  0
 20 19  1  0  0  0  0
 21 20  1  0  0  0  0
 22 21  1  0  0  0  0
 23 24  1  6  0  0  0
 23 25  1  0  0  0  0
 23 22  1  0  0  0  0
 25 27  1  0  0  0  0
 27 26  1  0  0  0  0
 28 27  2  0  0  0  0
M  END
>  <MODEL>
8

>  <REMARK>
 VINA RESULT:      -6.1      2.558      6.433
  Name = 
  14 active torsions:
  status: ('A' for Active; 'I' for Inactive)
    1  A    between atoms: C_4  and  C_20
    2  A    between atoms: C_4  and  C_21
    3  A    between atoms: C_6  and  C_14
    4  A    between atoms: C_6  and  C_24
    5  A    between atoms: C_7  and  C_21
    6  A    between atoms: C_9  and  C_16
    7  A    between atoms: C_9  and  C_20
    8  A    between atoms: N_10  and  O_13
    9  A    between atoms: N_10  and  C_27
   10  A    between atoms: C_11  and  O_19
   11  A    between atoms: O_13  and  C_24
   12  A    between atoms: C_16  and  O_19
   13  A    between atoms: C_21  and  C_23
   14  A    between atoms: C_23  and  C_27
                            x       y       z     vdW  Elec       q    Type
                         _______ _______ _______ _____ _____    ______ ____

>  <TORSDO>
F 14

$$$$
=
 OpenBabel10222417253D

 28 28  0  0  1  0  0  0  0  0999 V2000
  189.9640  177.3480  143.3930 C   0  0  1  0  0  3  0  0  0  0  0  0
  191.0290  176.6160  147.4800 C   0  0  0  0  0  3  0  0  0  0  0  0
  189.1020  178.2670  148.4990 Cl  0  0  0  0  0  0  0  0  0  0  0  0
  190.3280  177.0960  144.8320 C   0  0  2  0  0  3  0  0  0  0  0  0
  189.9750  177.4850  147.1980 C   0  0  0  0  0  0  0  0  0  0  0  0
  191.7070  176.0150  146.4660 N   0  0  0  0  0  0  0  0  0  0  0  0
  192.0440  175.6490  144.2580 O   0  0  0  0  0  0  0  0  0  0  0  0
  189.6280  177.7280  145.8690 C   0  0  0  0  0  3  0  0  0  0  0  0
  191.3840  176.2300  145.1620 C   0  0  0  0  0  0  0  0  0  0  0  0
  188.5300  177.8940  143.2540 C   0  0  1  0  0  3  0  0  0  0  0  0
  188.2960  178.5940  141.9180 C   0  0  0  0  0  1  0  0  0  0  0  0
  187.5090  176.7840  143.4770 C   0  0  0  0  0  2  0  0  0  0  0  0
  186.5810  177.1050  144.6410 C   0  0  0  0  0  2  0  0  0  0  0  0
  185.7260  178.3280  144.3440 C   0  0  1  0  0  3  0  0  0  0  0  0
  184.9650  178.1150  143.1240 N   0  0  0  0  0  1  0  0  0  0  0  0
  184.8490  178.5490  145.4090 O   0  0  0  0  0  0  0  0  0  0  0  0
  186.0560  179.4210  147.2700 C   0  0  0  0  0  1  0  0  0  0  0  0
  185.5670  178.1780  146.5480 C   0  0  0  0  0  2  0  0  0  0  0  0
  191.0390  178.1890  142.6990 C   0  0  0  0  0  2  0  0  0  0  0  0
  191.7100  177.4040  141.5830 C   0  0  0  0  0  2  0  0  0  0  0  0
  190.7140  176.7680  140.7310 N   0  0  0  0  0  2  0  0  0  0  0  0
  190.6370  177.4930  139.5870 O   0  0  0  0  0  0  0  0  0  0  0  0
  189.9060  176.6960  138.7040 C   0  0  2  0  0  3  0  0  0  0  0  0
  190.6870  175.5180  138.3660 N   0  0  0  0  0  1  0  0  0  0  0  0
  189.5920  177.4890  137.4430 C   0  0  0  0  0  2  0  0  0  0  0  0
  187.9650  179.3620  137.1840 O   0  0  0  0  0  0  0  0  0  0  0  0
  188.2020  178.0280  137.4840 C   0  0  0  0  0  0  0  0  0  0  0  0
  187.2440  177.2760  137.8080 O   0  0  0  0  0  1  0  0  0  0  0  0
  1 19  1  1  0  0  0
  4  1  1  6  0  0  0
  4  9  1  0  0  0  0
  4  8  1  0  0  0  0
  5  2  1  0  0  0  0
  5  3  1  0  0  0  0
  6  2  2  0  0  0  0
  7  9  2  0  0  0  0
  8  5  2  0  0  0  0
  9  6  1  0  0  0  0
 10 11  1  6  0  0  0
 10  1  1  0  0  0  0
 10 12  1  0  0  0  0
 12 13  1  0  0  0  0
 14 15  1  6  0  0  0
 14 13  1  0  0  0  0
 14 16  1  0  0  0  0
 16 18  1  0  0  0  0
 18 17  1  0  0  0  0
 20 19  1  0  0  0  0
 21 20  1  0  0  0  0
 22 21  1  0  0  0  0
 23 24  1  6  0  0  0
 23 22  1  0  0  0  0
 25 27  1  0  0  0  0
 25 23  1  0  0  0  0
 26 27  2  0  0  0  0
 27 28  1  0  0  0  0
M  END
>  <MODEL>
9

>  <REMARK>
 VINA RESULT:      -6.1      3.060      6.715
  Name = 
  14 active torsions:
  status: ('A' for Active; 'I' for Inactive)
    1  A    between atoms: C_4  and  C_20
    2  A    between atoms: C_4  and  C_21
    3  A    between atoms: C_6  and  C_14
    4  A    between atoms: C_6  and  C_24
    5  A    between atoms: C_7  and  C_21
    6  A    between atoms: C_9  and  C_16
    7  A    between atoms: C_9  and  C_20
    8  A    between atoms: N_10  and  O_13
    9  A    between atoms: N_10  and  C_27
   10  A    between atoms: C_11  and  O_19
   11  A    between atoms: O_13  and  C_24
   12  A    between atoms: C_16  and  O_19
   13  A    between atoms: C_21  and  C_23
   14  A    between atoms: C_23  and  C_27
                            x       y       z     vdW  Elec       q    Type
                         _______ _______ _______ _____ _____    ______ ____

>  <TORSDO>
F 14

$$$$
