=
 OpenBabel10222419103D

 64 71  0  0  1  0  0  0  0  0999 V2000
  183.4140  178.3540  141.9380 C   0  0  0  0  0  3  0  0  0  0  0  0
  183.3280  178.5290  140.6290 C   0  0  0  0  0  0  0  0  0  0  0  0
  184.7760  178.4610  142.5220 C   0  0  1  0  0  3  0  0  0  0  0  0
  184.6100  178.7900  139.9180 C   0  0  1  0  0  3  0  0  0  0  0  0
  185.8840  179.0520  141.1940 S   0  0  0  0  0  0  0  0  0  0  0  0
  180.7810  178.2420  140.4740 C   0  0  0  0  0  0  0  0  0  0  0  0
  180.3510  178.5240  138.2270 C   0  0  2  0  0  3  0  0  0  0  0  0
  181.8110  178.6620  138.5430 C   0  0  0  0  0  0  0  0  0  0  0  0
  180.5570  178.0270  141.6950 O   0  0  0  0  0  0  0  0  0  0  0  0
  182.7030  178.9390  137.6940 O   0  0  0  0  0  0  0  0  0  0  0  0
  179.7860  178.2390  139.5050 O   0  0  0  0  0  0  0  0  0  0  0  0
  182.0690  178.4940  139.9350 N   0  0  0  0  0  0  0  0  0  0  0  0
  180.1060  177.3580  137.2800 C   0  0  0  0  0  2  0  0  0  0  0  0
  180.9470  177.5160  136.0240 C   0  0  1  0  0  3  0  0  0  0  0  0
  181.2860  176.2110  135.4790 N   0  0  0  0  0  2  0  0  0  0  0  0
  183.5060  176.2970  136.1980 O   0  0  0  0  0  0  0  0  0  0  0  0
  182.6020  175.6630  135.5870 C   0  0  0  0  0  0  0  0  0  0  0  0
  183.7530  171.5380  136.9830 O   0  0  0  0  0  1  0  0  0  0  0  0
  184.6530  172.8320  135.2280 C   0  0  0  0  0  0  0  0  0  0  0  0
  183.4920  172.0560  135.7100 C   0  0  2  0  0  3  0  0  0  0  0  0
  182.9020  174.3330  134.9600 C   0  0  2  0  0  3  0  0  0  0  0  0
  185.8230  172.3720  135.1650 O   0  0  0  0  0  0  0  0  0  0  0  0
  181.9970  173.4240  137.0460 O   0  0  0  0  0  1  0  0  0  0  0  0
  182.3620  173.1010  135.7320 C   0  0  2  0  0  3  0  0  0  0  0  0
  184.3340  174.1440  134.8170 N   0  0  0  0  0  2  0  0  0  0  0  0
  180.2420  178.3780  134.9670 C   0  0  0  0  0  2  0  0  0  0  0  0
  179.7730  180.7210  135.1040 O   0  0  0  0  0  1  0  0  0  0  0  0
  180.7970  179.7980  134.8960 C   0  0  0  0  0  2  0  0  0  0  0  0
  184.9660  177.5810  139.0610 C   0  0  0  0  0  2  0  0  0  0  0  0
  186.1450  177.8560  138.1890 C   0  0  0  0  0  0  0  0  0  0  0  0
  187.2730  177.0350  138.2300 C   0  0  0  0  0  3  0  0  0  0  0  0
  188.3020  178.4080  136.5410 C   0  0  0  0  0  3  0  0  0  0  0  0
  187.1960  179.1990  136.5220 N   0  0  0  0  0  0  0  0  0  0  0  0
  188.3730  177.2990  137.4010 C   0  0  0  0  0  0  0  0  0  0  0  0
  186.1260  178.9460  137.3200 C   0  0  0  0  0  3  0  0  0  0  0  0
  194.0610  176.5360  136.6190 O   0  0  0  0  0  1  0  0  0  0  0  0
  190.8580  176.9970  137.5980 C   0  0  0  0  0  3  0  0  0  0  0  0
  193.2300  174.5050  137.5130 C   0  0  0  0  0  2  0  0  0  0  0  0
  191.9120  176.1070  137.5860 C   0  0  0  0  0  0  0  0  0  0  0  0
  189.4180  175.0030  137.2420 C   0  0  0  0  0  3  0  0  0  0  0  0
  190.5180  174.1080  137.2370 C   0  0  0  0  0  3  0  0  0  0  0  0
  193.8970  176.2940  138.9190 O   0  0  0  0  0  1  0  0  0  0  0  0
  191.7500  174.7080  137.4090 C   0  0  0  0  0  0  0  0  0  0  0  0
  189.5680  176.4220  137.4140 C   0  0  0  0  0  0  0  0  0  0  0  0
  193.3810  175.9310  137.6770 C   0  0  0  0  0  0  0  0  0  0  0  0
  184.7500  179.4600  143.6730 C   0  0  0  0  0  2  0  0  0  0  0  0
  183.8630  178.9770  144.8120 C   0  0  0  0  0  2  0  0  0  0  0  0
  186.0000  178.6050  145.9690 C   0  0  0  0  0  3  0  0  0  0  0  0
  184.6670  178.5690  146.0040 C   0  0  0  0  0  3  0  0  0  0  0  0
  186.8110  178.1400  147.1350 C   0  0  0  0  0  2  0  0  0  0  0  0
  188.2160  177.7460  146.7100 C   0  0  0  0  0  2  0  0  0  0  0  0
  188.1980  177.2430  145.2720 C   0  0  0  0  0  2  0  0  0  0  0  0
  189.6050  176.9060  144.7600 C   0  0  1  0  0  3  0  0  0  0  0  0
  190.6960  176.7380  141.1150 C   0  0  0  0  0  2  0  0  0  0  0  0
  189.3660  177.4690  141.0420 C   0  0  0  0  0  2  0  0  0  0  0  0
  190.9420  176.4040  142.5760 C   0  0  2  0  0  3  0  0  0  0  0  0
  188.5960  177.0670  142.2830 C   0  0  0  0  0  2  0  0  0  0  0  0
  190.1520  175.2870  142.9440 O   0  0  0  0  0  0  0  0  0  0  0  0
  189.6400  176.5570  143.2560 C   0  0  2  0  0  0  0  0  0  0  0  0
  190.7130  179.1060  144.0990 C   0  0  0  0  0  1  0  0  0  0  0  0
  190.6250  177.9970  145.1430 C   0  0  2  0  0  3  0  0  0  0  0  0
  191.8930  177.4480  145.3610 O   0  0  0  0  0  0  0  0  0  0  0  0
  191.6850  176.4490  146.3200 C   0  0  0  0  0  2  0  0  0  0  0  0
  191.7580  177.0080  147.5950 O   0  0  0  0  0  1  0  0  0  0  0  0
  1  3  1  0  0  0  0
  2  1  2  0  0  0  0
  3 46  1  1  0  0  0
  4 29  1  1  0  0  0
  4  2  1  0  0  0  0
  4  5  1  0  0  0  0
  5  3  1  0  0  0  0
  6  9  2  0  0  0  0
  7 13  1  6  0  0  0
  7  8  1  0  0  0  0
  7 11  1  0  0  0  0
  8 12  1  0  0  0  0
 10  8  2  0  0  0  0
 11  6  1  0  0  0  0
 12  6  1  0  0  0  0
 12  2  1  0  0  0  0
 14 26  1  6  0  0  0
 14 13  1  0  0  0  0
 15 17  1  0  0  0  0
 15 14  1  0  0  0  0
 17 16  2  0  0  0  0
 19 20  1  0  0  0  0
 20 24  1  0  0  0  0
 20 18  1  1  0  0  0
 21 17  1  1  0  0  0
 21 24  1  0  0  0  0
 22 19  2  0  0  0  0
 24 23  1  1  0  0  0
 25 21  1  0  0  0  0
 25 19  1  0  0  0  0
 28 26  1  0  0  0  0
 28 27  1  0  0  0  0
 30 31  1  0  0  0  0
 30 29  1  0  0  0  0
 32 34  1  0  0  0  0
 33 32  2  0  0  0  0
 33 35  1  0  0  0  0
 34 44  1  0  0  0  0
 34 31  2  0  0  0  0
 35 30  2  0  0  0  0
 36 45  1  0  0  0  0
 38 45  1  0  0  0  0
 39 37  1  0  0  0  0
 39 45  1  0  0  0  0
 40 44  1  0  0  0  0
 41 40  2  0  0  0  0
 41 43  1  0  0  0  0
 43 38  1  0  0  0  0
 43 39  2  0  0  0  0
 44 37  2  0  0  0  0
 45 42  1  0  0  0  0
 46 47  1  0  0  0  0
 47 49  1  0  0  0  0
 48 49  2  0  0  0  0
 48 50  1  0  0  0  0
 51 50  1  0  0  0  0
 52 51  1  0  0  0  0
 53 61  1  0  0  0  0
 53 52  1  6  0  0  0
 55 54  1  0  0  0  0
 55 57  1  0  0  0  0
 56 54  1  6  0  0  0
 56 58  1  0  0  0  0
 56 59  1  0  0  0  0
 57 59  1  0  0  0  0
 58 59  1  0  0  0  0
 59 53  1  1  0  0  0
 61 60  1  6  0  0  0
 61 62  1  0  0  0  0
 62 63  1  0  0  0  0
 63 64  1  0  0  0  0
M  END
>  <MODEL>
1

>  <REMARK>
 VINA RESULT:      -8.1      0.000      0.000
  Name = 
  21 active torsions:
  status: ('A' for Active; 'I' for Inactive)
    1  A    between atoms: C_1  and  O_17
    2  A    between atoms: C_7  and  C_15
    3  A    between atoms: C_7  and  C_39
    4  A    between atoms: C_9  and  C_12
    5  A    between atoms: C_9  and  C_28
    6  A    between atoms: O_17  and  C_29
    7  A    between atoms: C_19  and  N_61
    8  A    between atoms: C_25  and  C_44
    9  A    between atoms: N_27  and  C_28
   10  A    between atoms: C_28  and  C_54
   11  A    between atoms: C_29  and  C_63
   12  A    between atoms: C_31  and  C_48
   13  A    between atoms: C_32  and  C_62
   14  A    between atoms: C_35  and  C_48
   15  A    between atoms: C_35  and  C_60
   16  A    between atoms: C_40  and  C_52
   17  A    between atoms: C_41  and  C_56
   18  A    between atoms: C_44  and  C_52
   19  A    between atoms: C_53  and  C_63
   20  A    between atoms: C_54  and  C_57
   21  A    between atoms: C_60  and  C_63
                            x       y       z     vdW  Elec       q    Type
                         _______ _______ _______ _____ _____    ______ ____

>  <TORSDO>
F 21

$$$$
=
 OpenBabel10222419103D

 64 71  0  0  1  0  0  0  0  0999 V2000
  185.2200  177.6340  138.5650 C   0  0  0  0  0  3  0  0  0  0  0  0
  185.0770  176.7420  137.5970 C   0  0  0  0  0  0  0  0  0  0  0  0
  184.0040  177.9270  139.3650 C   0  0  1  0  0  3  0  0  0  0  0  0
  183.7130  176.1690  137.4330 C   0  0  1  0  0  3  0  0  0  0  0  0
  182.7250  176.7250  138.8580 S   0  0  0  0  0  0  0  0  0  0  0  0
  186.8950  175.1070  136.8110 C   0  0  0  0  0  0  0  0  0  0  0  0
  187.9680  176.2720  135.1360 C   0  0  2  0  0  3  0  0  0  0  0  0
  186.8420  177.0600  135.7390 C   0  0  0  0  0  0  0  0  0  0  0  0
  186.6340  174.1640  137.6050 O   0  0  0  0  0  0  0  0  0  0  0  0
  186.4900  178.2100  135.3560 O   0  0  0  0  0  0  0  0  0  0  0  0
  187.9360  175.0630  135.8930 O   0  0  0  0  0  0  0  0  0  0  0  0
  186.1790  176.3310  136.7690 N   0  0  0  0  0  0  0  0  0  0  0  0
  189.3000  176.9770  135.3430 C   0  0  0  0  0  2  0  0  0  0  0  0
  189.8490  176.6690  136.7260 C   0  0  1  0  0  3  0  0  0  0  0  0
  191.2980  176.5470  136.6750 N   0  0  0  0  0  2  0  0  0  0  0  0
  191.3450  174.5470  137.8800 O   0  0  0  0  0  0  0  0  0  0  0  0
  191.9900  175.4600  137.2930 C   0  0  0  0  0  0  0  0  0  0  0  0
  195.1860  172.3880  136.4940 O   0  0  0  0  0  1  0  0  0  0  0  0
  195.0480  173.9940  138.2170 C   0  0  0  0  0  0  0  0  0  0  0  0
  195.2530  173.7570  136.7730 C   0  0  2  0  0  3  0  0  0  0  0  0
  193.4900  175.4180  137.2490 C   0  0  2  0  0  3  0  0  0  0  0  0
  195.7270  173.4380  139.1180 O   0  0  0  0  0  0  0  0  0  0  0  0
  193.1440  173.6650  135.5750 O   0  0  0  0  0  1  0  0  0  0  0  0
  194.0930  174.5360  136.1250 C   0  0  2  0  0  3  0  0  0  0  0  0
  194.0260  174.9250  138.5050 N   0  0  0  0  0  2  0  0  0  0  0  0
  189.4300  177.7250  137.7580 C   0  0  0  0  0  2  0  0  0  0  0  0
  189.2510  178.2450  140.0880 O   0  0  0  0  0  1  0  0  0  0  0  0
  189.4870  177.2040  139.1920 C   0  0  0  0  0  2  0  0  0  0  0  0
  183.1020  176.6870  136.1360 C   0  0  0  0  0  2  0  0  0  0  0  0
  181.8440  177.4470  136.3890 C   0  0  0  0  0  0  0  0  0  0  0  0
  181.7850  178.8260  136.1730 C   0  0  0  0  0  3  0  0  0  0  0  0
  179.4790  178.8090  136.8660 C   0  0  0  0  0  3  0  0  0  0  0  0
  179.5600  177.4680  137.0770 N   0  0  0  0  0  0  0  0  0  0  0  0
  180.5950  179.5290  136.4080 C   0  0  0  0  0  0  0  0  0  0  0  0
  180.7090  176.7800  136.8480 C   0  0  0  0  0  3  0  0  0  0  0  0
  180.0940  184.9490  138.3880 O   0  0  0  0  0  1  0  0  0  0  0  0
  180.9080  181.8980  137.1780 C   0  0  0  0  0  3  0  0  0  0  0  0
  180.4660  185.1210  136.0550 C   0  0  0  0  0  2  0  0  0  0  0  0
  180.7820  183.2350  136.8620 C   0  0  0  0  0  0  0  0  0  0  0  0
  180.0240  181.4730  134.8950 C   0  0  0  0  0  3  0  0  0  0  0  0
  179.9090  182.8530  134.5940 C   0  0  0  0  0  3  0  0  0  0  0  0
  182.2690  184.9730  137.5860 O   0  0  0  0  0  1  0  0  0  0  0  0
  180.2970  183.7000  135.6130 C   0  0  0  0  0  0  0  0  0  0  0  0
  180.5080  180.9880  136.1590 C   0  0  0  0  0  0  0  0  0  0  0  0
  180.9430  184.6340  137.3270 C   0  0  0  0  0  0  0  0  0  0  0  0
  184.3290  177.7610  140.8470 C   0  0  0  0  0  2  0  0  0  0  0  0
  184.2380  179.0850  141.5910 C   0  0  0  0  0  2  0  0  0  0  0  0
  184.5350  178.9660  144.0280 C   0  0  0  0  0  3  0  0  0  0  0  0
  183.7140  178.9060  142.9780 C   0  0  0  0  0  3  0  0  0  0  0  0
  184.0290  178.7260  145.4130 C   0  0  0  0  0  2  0  0  0  0  0  0
  185.1660  178.4170  146.3730 C   0  0  0  0  0  2  0  0  0  0  0  0
  186.5020  178.7090  145.7010 C   0  0  0  0  0  2  0  0  0  0  0  0
  187.3850  177.4570  145.6020 C   0  0  1  0  0  3  0  0  0  0  0  0
  189.5290  176.1240  142.7520 C   0  0  0  0  0  2  0  0  0  0  0  0
  190.4130  177.1910  143.3750 C   0  0  0  0  0  2  0  0  0  0  0  0
  188.2250  176.1140  143.5290 C   0  0  2  0  0  3  0  0  0  0  0  0
  189.4790  178.1520  144.0800 C   0  0  0  0  0  2  0  0  0  0  0  0
  187.4240  177.2090  143.1210 O   0  0  0  0  0  0  0  0  0  0  0  0
  188.1900  177.3810  144.2860 C   0  0  2  0  0  0  0  0  0  0  0  0
  187.7520  178.0830  148.0480 C   0  0  0  0  0  1  0  0  0  0  0  0
  188.2700  177.2880  146.8530 C   0  0  2  0  0  3  0  0  0  0  0  0
  189.5960  177.6430  146.5850 O   0  0  0  0  0  0  0  0  0  0  0  0
  190.3590  176.6320  147.1810 C   0  0  0  0  0  2  0  0  0  0  0  0
  191.7140  176.9150  147.0160 O   0  0  0  0  0  1  0  0  0  0  0  0
  1  3  1  0  0  0  0
  2  1  2  0  0  0  0
  3 46  1  1  0  0  0
  4 29  1  6  0  0  0
  4  2  1  0  0  0  0
  4  5  1  0  0  0  0
  5  3  1  0  0  0  0
  6  9  2  0  0  0  0
  7 13  1  1  0  0  0
  7  8  1  0  0  0  0
  7 11  1  0  0  0  0
  8 12  1  0  0  0  0
 10  8  2  0  0  0  0
 11  6  1  0  0  0  0
 12  6  1  0  0  0  0
 12  2  1  0  0  0  0
 14 13  1  6  0  0  0
 14 26  1  0  0  0  0
 15 14  1  0  0  0  0
 15 17  1  0  0  0  0
 17 16  2  0  0  0  0
 19 25  1  0  0  0  0
 19 22  2  0  0  0  0
 20 18  1  1  0  0  0
 20 19  1  0  0  0  0
 21 17  1  1  0  0  0
 21 25  1  0  0  0  0
 24 23  1  1  0  0  0
 24 20  1  0  0  0  0
 24 21  1  0  0  0  0
 26 28  1  0  0  0  0
 28 27  1  0  0  0  0
 29 30  1  0  0  0  0
 30 35  1  0  0  0  0
 31 30  2  0  0  0  0
 31 34  1  0  0  0  0
 32 33  1  0  0  0  0
 34 32  2  0  0  0  0
 35 33  2  0  0  0  0
 38 45  1  0  0  0  0
 39 37  1  0  0  0  0
 39 45  1  0  0  0  0
 40 44  1  0  0  0  0
 41 40  2  0  0  0  0
 41 43  1  0  0  0  0
 43 38  1  0  0  0  0
 43 39  2  0  0  0  0
 44 34  1  0  0  0  0
 44 37  2  0  0  0  0
 45 42  1  0  0  0  0
 45 36  1  0  0  0  0
 46 47  1  0  0  0  0
 47 49  1  0  0  0  0
 48 50  1  0  0  0  0
 49 48  2  0  0  0  0
 50 51  1  0  0  0  0
 52 51  1  0  0  0  0
 53 52  1  1  0  0  0
 53 61  1  0  0  0  0
 54 55  1  0  0  0  0
 55 57  1  0  0  0  0
 56 54  1  6  0  0  0
 56 59  1  0  0  0  0
 57 59  1  0  0  0  0
 58 56  1  0  0  0  0
 58 59  1  0  0  0  0
 59 53  1  1  0  0  0
 61 60  1  1  0  0  0
 62 61  1  0  0  0  0
 62 63  1  0  0  0  0
 64 63  1  0  0  0  0
M  END
>  <MODEL>
2

>  <REMARK>
 VINA RESULT:      -7.8      2.811      8.482
  Name = 
  21 active torsions:
  status: ('A' for Active; 'I' for Inactive)
    1  A    between atoms: C_1  and  O_17
    2  A    between atoms: C_7  and  C_15
    3  A    between atoms: C_7  and  C_39
    4  A    between atoms: C_9  and  C_12
    5  A    between atoms: C_9  and  C_28
    6  A    between atoms: O_17  and  C_29
    7  A    between atoms: C_19  and  N_61
    8  A    between atoms: C_25  and  C_44
    9  A    between atoms: N_27  and  C_28
   10  A    between atoms: C_28  and  C_54
   11  A    between atoms: C_29  and  C_63
   12  A    between atoms: C_31  and  C_48
   13  A    between atoms: C_32  and  C_62
   14  A    between atoms: C_35  and  C_48
   15  A    between atoms: C_35  and  C_60
   16  A    between atoms: C_40  and  C_52
   17  A    between atoms: C_41  and  C_56
   18  A    between atoms: C_44  and  C_52
   19  A    between atoms: C_53  and  C_63
   20  A    between atoms: C_54  and  C_57
   21  A    between atoms: C_60  and  C_63
                            x       y       z     vdW  Elec       q    Type
                         _______ _______ _______ _____ _____    ______ ____

>  <TORSDO>
F 21

$$$$
=
 OpenBabel10222419103D

 64 71  0  0  1  0  0  0  0  0999 V2000
  184.7170  179.4900  142.7560 C   0  0  0  0  0  3  0  0  0  0  0  0
  184.5480  178.8350  141.6170 C   0  0  0  0  0  0  0  0  0  0  0  0
  183.5630  179.4800  143.6910 C   0  0  1  0  0  3  0  0  0  0  0  0
  183.2190  178.1930  141.4240 C   0  0  1  0  0  3  0  0  0  0  0  0
  182.3310  178.3150  143.0100 S   0  0  0  0  0  0  0  0  0  0  0  0
  185.5370  179.0590  139.2580 C   0  0  0  0  0  0  0  0  0  0  0  0
  187.6850  178.2630  139.5050 C   0  0  2  0  0  3  0  0  0  0  0  0
  186.9180  178.2260  140.7940 C   0  0  0  0  0  0  0  0  0  0  0  0
  184.5180  179.5370  138.6880 O   0  0  0  0  0  0  0  0  0  0  0  0
  187.3960  177.8440  141.8990 O   0  0  0  0  0  0  0  0  0  0  0  0
  186.7220  178.7830  138.5900 O   0  0  0  0  0  0  0  0  0  0  0  0
  185.5930  178.7270  140.6360 N   0  0  0  0  0  0  0  0  0  0  0  0
  188.1020  176.8630  139.0790 C   0  0  0  0  0  2  0  0  0  0  0  0
  188.4090  176.8370  137.5900 C   0  0  1  0  0  3  0  0  0  0  0  0
  189.4400  175.8500  137.3070 N   0  0  0  0  0  2  0  0  0  0  0  0
  190.5920  176.2310  139.3030 O   0  0  0  0  0  0  0  0  0  0  0  0
  190.5230  175.6070  138.2080 C   0  0  0  0  0  0  0  0  0  0  0  0
  193.7550  175.2340  135.0920 O   0  0  0  0  0  1  0  0  0  0  0  0
  192.1780  173.6350  135.8140 C   0  0  0  0  0  0  0  0  0  0  0  0
  193.3870  174.4100  136.1610 C   0  0  2  0  0  3  0  0  0  0  0  0
  191.5840  174.6120  137.8350 C   0  0  2  0  0  3  0  0  0  0  0  0
  192.0840  172.9100  134.7900 O   0  0  0  0  0  0  0  0  0  0  0  0
  192.8190  176.5850  137.0780 O   0  0  0  0  0  1  0  0  0  0  0  0
  192.9370  175.2240  137.3890 C   0  0  2  0  0  3  0  0  0  0  0  0
  191.1300  173.7590  136.7520 N   0  0  0  0  0  2  0  0  0  0  0  0
  187.1530  176.5640  136.7500 C   0  0  0  0  0  2  0  0  0  0  0  0
  187.9440  177.8350  134.8820 O   0  0  0  0  0  1  0  0  0  0  0  0
  187.4290  176.5930  135.2490 C   0  0  0  0  0  2  0  0  0  0  0  0
  182.4540  178.9370  140.3360 C   0  0  0  0  0  2  0  0  0  0  0  0
  181.3970  178.0800  139.7250 C   0  0  0  0  0  0  0  0  0  0  0  0
  181.7100  176.8270  139.1930 C   0  0  0  0  0  3  0  0  0  0  0  0
  179.3930  176.5250  138.6110 C   0  0  0  0  0  3  0  0  0  0  0  0
  179.1110  177.7500  139.1290 N   0  0  0  0  0  0  0  0  0  0  0  0
  180.7060  176.0270  138.6270 C   0  0  0  0  0  0  0  0  0  0  0  0
  180.0780  178.5290  139.6810 C   0  0  0  0  0  3  0  0  0  0  0  0
  183.6740  172.6440  134.9820 O   0  0  0  0  0  1  0  0  0  0  0  0
  182.2880  174.4480  137.4820 C   0  0  0  0  0  3  0  0  0  0  0  0
  182.4310  171.1910  136.3800 C   0  0  0  0  0  2  0  0  0  0  0  0
  182.4840  173.1730  136.9920 C   0  0  0  0  0  0  0  0  0  0  0  0
  180.0390  173.6340  138.1600 C   0  0  0  0  0  3  0  0  0  0  0  0
  180.2680  172.3300  137.6520 C   0  0  0  0  0  3  0  0  0  0  0  0
  184.5700  171.9890  137.0170 O   0  0  0  0  0  1  0  0  0  0  0  0
  181.5080  172.1470  137.0710 C   0  0  0  0  0  0  0  0  0  0  0  0
  181.0170  174.6840  138.0810 C   0  0  0  0  0  0  0  0  0  0  0  0
  183.4090  172.2490  136.2940 C   0  0  0  0  0  0  0  0  0  0  0  0
  184.0360  179.0080  145.0620 C   0  0  0  0  0  2  0  0  0  0  0  0
  185.4980  178.5860  145.0340 C   0  0  0  0  0  2  0  0  0  0  0  0
  186.8780  177.9080  146.9530 C   0  0  0  0  0  3  0  0  0  0  0  0
  186.1790  178.8620  146.3360 C   0  0  0  0  0  3  0  0  0  0  0  0
  187.5090  178.1570  148.2840 C   0  0  0  0  0  2  0  0  0  0  0  0
  188.8670  177.4840  148.3880 C   0  0  0  0  0  2  0  0  0  0  0  0
  189.8130  178.0660  147.3460 C   0  0  0  0  0  2  0  0  0  0  0  0
  190.4660  176.9770  146.4840 C   0  0  1  0  0  3  0  0  0  0  0  0
  190.2660  176.5100  142.7100 C   0  0  0  0  0  2  0  0  0  0  0  0
  191.6460  177.1150  142.9080 C   0  0  0  0  0  2  0  0  0  0  0  0
  189.6230  176.4050  144.0810 C   0  0  2  0  0  3  0  0  0  0  0  0
  191.5900  177.8690  144.2200 C   0  0  0  0  0  2  0  0  0  0  0  0
  189.1560  177.6810  144.4820 O   0  0  0  0  0  0  0  0  0  0  0  0
  190.4110  177.2830  144.9710 C   0  0  2  0  0  0  0  0  0  0  0  0
  192.2240  175.1610  146.8270 C   0  0  0  0  0  1  0  0  0  0  0  0
  191.8890  176.6420  146.9730 C   0  0  2  0  0  3  0  0  0  0  0  0
  192.0720  177.0430  148.3010 O   0  0  0  0  0  0  0  0  0  0  0  0
  193.1290  176.2510  148.7650 C   0  0  0  0  0  2  0  0  0  0  0  0
  193.8830  176.9760  149.6860 O   0  0  0  0  0  1  0  0  0  0  0  0
  1  3  1  0  0  0  0
  2  1  2  0  0  0  0
  3 46  1  1  0  0  0
  4 29  1  6  0  0  0
  4  2  1  0  0  0  0
  4  5  1  0  0  0  0
  5  3  1  0  0  0  0
  6 12  1  0  0  0  0
  7 13  1  6  0  0  0
  7  8  1  0  0  0  0
  8 10  2  0  0  0  0
  9  6  2  0  0  0  0
 11  6  1  0  0  0  0
 11  7  1  0  0  0  0
 12  8  1  0  0  0  0
 12  2  1  0  0  0  0
 14 26  1  6  0  0  0
 14 13  1  0  0  0  0
 15 14  1  0  0  0  0
 15 17  1  0  0  0  0
 17 16  2  0  0  0  0
 19 20  1  0  0  0  0
 19 25  1  0  0  0  0
 20 18  1  6  0  0  0
 20 24  1  0  0  0  0
 21 17  1  6  0  0  0
 22 19  2  0  0  0  0
 24 23  1  6  0  0  0
 24 21  1  0  0  0  0
 25 21  1  0  0  0  0
 27 28  1  0  0  0  0
 28 26  1  0  0  0  0
 30 29  1  0  0  0  0
 31 30  2  0  0  0  0
 32 34  2  0  0  0  0
 32 33  1  0  0  0  0
 33 35  2  0  0  0  0
 34 31  1  0  0  0  0
 35 30  1  0  0  0  0
 36 45  1  0  0  0  0
 37 44  1  0  0  0  0
 38 43  1  0  0  0  0
 39 43  1  0  0  0  0
 39 37  2  0  0  0  0
 41 40  1  0  0  0  0
 43 41  2  0  0  0  0
 44 40  2  0  0  0  0
 44 34  1  0  0  0  0
 45 38  1  0  0  0  0
 45 39  1  0  0  0  0
 45 42  1  0  0  0  0
 47 46  1  0  0  0  0
 47 49  1  0  0  0  0
 48 50  1  0  0  0  0
 49 48  2  0  0  0  0
 50 51  1  0  0  0  0
 52 51  1  0  0  0  0
 53 61  1  0  0  0  0
 53 52  1  1  0  0  0
 54 55  1  0  0  0  0
 55 57  1  0  0  0  0
 56 54  1  6  0  0  0
 56 58  1  0  0  0  0
 56 59  1  0  0  0  0
 57 59  1  0  0  0  0
 58 59  1  0  0  0  0
 59 53  1  1  0  0  0
 61 60  1  1  0  0  0
 61 62  1  0  0  0  0
 62 63  1  0  0  0  0
 63 64  1  0  0  0  0
M  END
>  <MODEL>
3

>  <REMARK>
 VINA RESULT:      -7.3      2.420      6.827
  Name = 
  21 active torsions:
  status: ('A' for Active; 'I' for Inactive)
    1  A    between atoms: C_1  and  O_17
    2  A    between atoms: C_7  and  C_15
    3  A    between atoms: C_7  and  C_39
    4  A    between atoms: C_9  and  C_12
    5  A    between atoms: C_9  and  C_28
    6  A    between atoms: O_17  and  C_29
    7  A    between atoms: C_19  and  N_61
    8  A    between atoms: C_25  and  C_44
    9  A    between atoms: N_27  and  C_28
   10  A    between atoms: C_28  and  C_54
   11  A    between atoms: C_29  and  C_63
   12  A    between atoms: C_31  and  C_48
   13  A    between atoms: C_32  and  C_62
   14  A    between atoms: C_35  and  C_48
   15  A    between atoms: C_35  and  C_60
   16  A    between atoms: C_40  and  C_52
   17  A    between atoms: C_41  and  C_56
   18  A    between atoms: C_44  and  C_52
   19  A    between atoms: C_53  and  C_63
   20  A    between atoms: C_54  and  C_57
   21  A    between atoms: C_60  and  C_63
                            x       y       z     vdW  Elec       q    Type
                         _______ _______ _______ _____ _____    ______ ____

>  <TORSDO>
F 21

$$$$
=
 OpenBabel10222419103D

 64 71  0  0  1  0  0  0  0  0999 V2000
  185.6400  178.6500  139.4620 C   0  0  0  0  0  3  0  0  0  0  0  0
  185.1840  177.9240  138.4530 C   0  0  0  0  0  0  0  0  0  0  0  0
  184.6530  178.9880  140.5200 C   0  0  1  0  0  3  0  0  0  0  0  0
  183.7420  177.5600  138.5090 C   0  0  1  0  0  3  0  0  0  0  0  0
  183.1320  178.0420  140.1560 S   0  0  0  0  0  0  0  0  0  0  0  0
  186.2440  176.1660  136.9090 C   0  0  0  0  0  0  0  0  0  0  0  0
  187.6430  177.4130  135.5680 C   0  0  2  0  0  3  0  0  0  0  0  0
  186.9050  178.2650  136.5590 C   0  0  0  0  0  0  0  0  0  0  0  0
  185.6640  175.1510  137.3800 O   0  0  0  0  0  0  0  0  0  0  0  0
  187.0010  179.5210  136.6320 O   0  0  0  0  0  0  0  0  0  0  0  0
  187.1760  176.1030  135.8820 O   0  0  0  0  0  0  0  0  0  0  0  0
  186.0360  177.4890  137.3800 N   0  0  0  0  0  0  0  0  0  0  0  0
  189.1460  177.4950  135.7910 C   0  0  0  0  0  2  0  0  0  0  0  0
  189.5910  176.4200  136.7690 C   0  0  1  0  0  3  0  0  0  0  0  0
  191.0090  176.1440  136.5990 N   0  0  0  0  0  2  0  0  0  0  0  0
  190.8530  173.9530  137.3930 O   0  0  0  0  0  0  0  0  0  0  0  0
  191.5830  174.8820  136.9510 C   0  0  0  0  0  0  0  0  0  0  0  0
  194.4680  171.4270  137.1030 O   0  0  0  0  0  1  0  0  0  0  0  0
  194.6300  173.5590  138.0980 C   0  0  0  0  0  0  0  0  0  0  0  0
  194.6530  172.7880  136.8380 C   0  0  2  0  0  3  0  0  0  0  0  0
  193.0620  174.6760  136.8000 C   0  0  2  0  0  3  0  0  0  0  0  0
  195.3740  173.3100  139.0820 O   0  0  0  0  0  0  0  0  0  0  0  0
  192.4170  172.4750  135.9450 O   0  0  0  0  0  1  0  0  0  0  0  0
  193.4760  173.3870  136.0450 C   0  0  2  0  0  3  0  0  0  0  0  0
  193.7090  174.6290  138.0990 N   0  0  0  0  0  2  0  0  0  0  0  0
  189.2840  176.8060  138.2230 C   0  0  0  0  0  2  0  0  0  0  0  0
  189.0170  178.9760  139.1970 O   0  0  0  0  0  1  0  0  0  0  0  0
  189.9580  178.1100  138.6430 C   0  0  0  0  0  2  0  0  0  0  0  0
  182.9880  178.3240  137.4260 C   0  0  0  0  0  2  0  0  0  0  0  0
  181.8160  177.5490  136.9250 C   0  0  0  0  0  0  0  0  0  0  0  0
  181.9360  176.1950  136.6040 C   0  0  0  0  0  3  0  0  0  0  0  0
  179.6050  176.1570  136.0050 C   0  0  0  0  0  3  0  0  0  0  0  0
  179.5100  177.4770  136.3170 N   0  0  0  0  0  0  0  0  0  0  0  0
  180.8260  175.4760  136.1390 C   0  0  0  0  0  0  0  0  0  0  0  0
  180.5820  178.1790  136.7710 C   0  0  0  0  0  3  0  0  0  0  0  0
  184.0000  170.8840  134.5950 O   0  0  0  0  0  1  0  0  0  0  0  0
  182.1760  173.3640  135.9930 C   0  0  0  0  0  3  0  0  0  0  0  0
  181.8280  170.0660  135.0730 C   0  0  0  0  0  2  0  0  0  0  0  0
  182.1820  172.0250  135.6590 C   0  0  0  0  0  0  0  0  0  0  0  0
  179.7790  173.3190  135.3360 C   0  0  0  0  0  3  0  0  0  0  0  0
  179.8120  171.9410  135.0040 C   0  0  0  0  0  3  0  0  0  0  0  0
  183.4540  170.3270  136.7780 O   0  0  0  0  0  1  0  0  0  0  0  0
  181.0400  171.3350  135.1780 C   0  0  0  0  0  0  0  0  0  0  0  0
  180.9310  174.0320  135.8180 C   0  0  0  0  0  0  0  0  0  0  0  0
  182.9860  170.7850  135.5490 C   0  0  0  0  0  0  0  0  0  0  0  0
  185.2170  178.5810  141.8780 C   0  0  0  0  0  2  0  0  0  0  0  0
  184.1400  178.5860  142.9530 C   0  0  0  0  0  2  0  0  0  0  0  0
  185.6520  178.2930  144.8700 C   0  0  0  0  0  3  0  0  0  0  0  0
  184.6870  179.0010  144.2810 C   0  0  0  0  0  3  0  0  0  0  0  0
  186.1600  178.6660  146.2250 C   0  0  0  0  0  2  0  0  0  0  0  0
  187.6730  178.5480  146.3000 C   0  0  0  0  0  2  0  0  0  0  0  0
  188.0620  177.1270  146.6880 C   0  0  0  0  0  2  0  0  0  0  0  0
  189.1760  176.5680  145.7930 C   0  0  1  0  0  3  0  0  0  0  0  0
  189.7770  176.8810  142.0460 C   0  0  0  0  0  2  0  0  0  0  0  0
  190.3070  178.1960  142.5890 C   0  0  0  0  0  2  0  0  0  0  0  0
  189.2450  176.0910  143.2290 C   0  0  2  0  0  3  0  0  0  0  0  0
  189.5960  178.4240  143.9070 C   0  0  0  0  0  2  0  0  0  0  0  0
  187.9780  176.6020  143.6060 O   0  0  0  0  0  0  0  0  0  0  0  0
  189.0910  177.0610  144.3320 C   0  0  2  0  0  0  0  0  0  0  0  0
  191.6790  176.8220  145.3700 C   0  0  0  0  0  1  0  0  0  0  0  0
  190.5690  176.7880  146.4160 C   0  0  2  0  0  3  0  0  0  0  0  0
  190.8520  175.8130  147.3780 O   0  0  0  0  0  0  0  0  0  0  0  0
  192.1870  176.0410  147.7300 C   0  0  0  0  0  2  0  0  0  0  0  0
  192.2770  177.2170  148.4720 O   0  0  0  0  0  1  0  0  0  0  0  0
  1  3  1  0  0  0  0
  2  4  1  0  0  0  0
  2  1  2  0  0  0  0
  3 46  1  1  0  0  0
  4 29  1  6  0  0  0
  4  5  1  0  0  0  0
  5  3  1  0  0  0  0
  6  9  2  0  0  0  0
  6 12  1  0  0  0  0
  7 13  1  1  0  0  0
  7 11  1  0  0  0  0
  7  8  1  0  0  0  0
  8 10  2  0  0  0  0
  8 12  1  0  0  0  0
 11  6  1  0  0  0  0
 12  2  1  0  0  0  0
 14 13  1  6  0  0  0
 14 26  1  0  0  0  0
 15 14  1  0  0  0  0
 15 17  1  0  0  0  0
 17 16  2  0  0  0  0
 19 25  1  0  0  0  0
 19 22  2  0  0  0  0
 20 18  1  1  0  0  0
 20 19  1  0  0  0  0
 21 17  1  1  0  0  0
 21 25  1  0  0  0  0
 24 23  1  1  0  0  0
 24 21  1  0  0  0  0
 24 20  1  0  0  0  0
 26 28  1  0  0  0  0
 28 27  1  0  0  0  0
 30 29  1  0  0  0  0
 31 30  2  0  0  0  0
 32 34  2  0  0  0  0
 32 33  1  0  0  0  0
 33 35  2  0  0  0  0
 34 31  1  0  0  0  0
 35 30  1  0  0  0  0
 36 45  1  0  0  0  0
 38 43  1  0  0  0  0
 38 45  1  0  0  0  0
 39 37  2  0  0  0  0
 40 44  2  0  0  0  0
 41 43  2  0  0  0  0
 41 40  1  0  0  0  0
 43 39  1  0  0  0  0
 44 37  1  0  0  0  0
 44 34  1  0  0  0  0
 45 39  1  0  0  0  0
 45 42  1  0  0  0  0
 46 47  1  0  0  0  0
 47 49  1  0  0  0  0
 48 50  1  0  0  0  0
 49 48  2  0  0  0  0
 50 51  1  0  0  0  0
 51 52  1  0  0  0  0
 53 61  1  0  0  0  0
 53 52  1  1  0  0  0
 54 55  1  0  0  0  0
 55 57  1  0  0  0  0
 56 54  1  6  0  0  0
 56 58  1  0  0  0  0
 56 59  1  0  0  0  0
 57 59  1  0  0  0  0
 58 59  1  0  0  0  0
 59 53  1  1  0  0  0
 61 60  1  6  0  0  0
 61 62  1  0  0  0  0
 62 63  1  0  0  0  0
 63 64  1  0  0  0  0
M  END
>  <MODEL>
4

>  <REMARK>
 VINA RESULT:      -6.9      2.503      7.424
  Name = 
  21 active torsions:
  status: ('A' for Active; 'I' for Inactive)
    1  A    between atoms: C_1  and  O_17
    2  A    between atoms: C_7  and  C_15
    3  A    between atoms: C_7  and  C_39
    4  A    between atoms: C_9  and  C_12
    5  A    between atoms: C_9  and  C_28
    6  A    between atoms: O_17  and  C_29
    7  A    between atoms: C_19  and  N_61
    8  A    between atoms: C_25  and  C_44
    9  A    between atoms: N_27  and  C_28
   10  A    between atoms: C_28  and  C_54
   11  A    between atoms: C_29  and  C_63
   12  A    between atoms: C_31  and  C_48
   13  A    between atoms: C_32  and  C_62
   14  A    between atoms: C_35  and  C_48
   15  A    between atoms: C_35  and  C_60
   16  A    between atoms: C_40  and  C_52
   17  A    between atoms: C_41  and  C_56
   18  A    between atoms: C_44  and  C_52
   19  A    between atoms: C_53  and  C_63
   20  A    between atoms: C_54  and  C_57
   21  A    between atoms: C_60  and  C_63
                            x       y       z     vdW  Elec       q    Type
                         _______ _______ _______ _____ _____    ______ ____

>  <TORSDO>
F 21

$$$$
=
 OpenBabel10222419103D

 64 71  0  0  1  0  0  0  0  0999 V2000
  185.6540  179.1280  140.5280 C   0  0  0  0  0  3  0  0  0  0  0  0
  184.5450  178.6530  141.0730 C   0  0  0  0  0  0  0  0  0  0  0  0
  186.9040  178.9090  141.3000 C   0  0  1  0  0  3  0  0  0  0  0  0
  184.7000  177.9790  142.3910 C   0  0  1  0  0  3  0  0  0  0  0  0
  186.4880  177.8020  142.6930 S   0  0  0  0  0  0  0  0  0  0  0  0
  181.9930  178.9380  141.0140 C   0  0  0  0  0  0  0  0  0  0  0  0
  181.4960  178.8000  138.7670 C   0  0  2  0  0  3  0  0  0  0  0  0
  182.9670  178.6630  139.0290 C   0  0  0  0  0  0  0  0  0  0  0  0
  181.8040  179.0590  142.2540 O   0  0  0  0  0  0  0  0  0  0  0  0
  183.8430  178.5280  138.1300 O   0  0  0  0  0  0  0  0  0  0  0  0
  180.9640  178.9480  140.0820 O   0  0  0  0  0  0  0  0  0  0  0  0
  183.2690  178.7570  140.4190 N   0  0  0  0  0  0  0  0  0  0  0  0
  180.9370  177.5420  138.1200 C   0  0  0  0  0  2  0  0  0  0  0  0
  181.0930  177.6150  136.6100 C   0  0  1  0  0  3  0  0  0  0  0  0
  180.9530  176.2890  136.0260 N   0  0  0  0  0  2  0  0  0  0  0  0
  182.8620  175.4410  137.0690 O   0  0  0  0  0  0  0  0  0  0  0  0
  181.8920  175.2430  136.2870 C   0  0  0  0  0  0  0  0  0  0  0  0
  180.4210  171.1380  137.4140 O   0  0  0  0  0  1  0  0  0  0  0  0
  182.3520  171.7600  136.2120 C   0  0  0  0  0  0  0  0  0  0  0  0
  180.8780  171.6680  136.2030 C   0  0  2  0  0  3  0  0  0  0  0  0
  181.7200  173.9120  135.6140 C   0  0  2  0  0  3  0  0  0  0  0  0
  183.1110  170.7860  136.4550 O   0  0  0  0  0  0  0  0  0  0  0  0
  179.8550  173.6420  137.1770 O   0  0  0  0  0  1  0  0  0  0  0  0
  180.4410  173.1320  136.0110 C   0  0  2  0  0  3  0  0  0  0  0  0
  182.8480  173.0440  135.8990 N   0  0  0  0  0  2  0  0  0  0  0  0
  180.0940  178.5940  135.9770 C   0  0  0  0  0  2  0  0  0  0  0  0
  180.7140  180.9050  136.0350 O   0  0  0  0  0  1  0  0  0  0  0  0
  180.7790  179.7520  135.2550 C   0  0  0  0  0  2  0  0  0  0  0  0
  184.0680  178.8430  143.4750 C   0  0  0  0  0  2  0  0  0  0  0  0
  184.7190  178.6250  144.7990 C   0  0  0  0  0  0  0  0  0  0  0  0
  186.0520  178.2170  144.8830 C   0  0  0  0  0  3  0  0  0  0  0  0
  185.8820  178.2420  147.2850 C   0  0  0  0  0  3  0  0  0  0  0  0
  184.5830  178.6330  147.1810 N   0  0  0  0  0  0  0  0  0  0  0  0
  186.6560  178.0210  146.1340 C   0  0  0  0  0  0  0  0  0  0  0  0
  183.9930  178.8270  145.9720 C   0  0  0  0  0  3  0  0  0  0  0  0
  191.3910  175.6320  143.8060 O   0  0  0  0  0  1  0  0  0  0  0  0
  188.8640  177.4960  145.0580 C   0  0  0  0  0  3  0  0  0  0  0  0
  192.0460  176.5000  145.9110 C   0  0  0  0  0  2  0  0  0  0  0  0
  190.1710  177.1000  145.2530 C   0  0  0  0  0  0  0  0  0  0  0  0
  188.6500  177.3400  147.5300 C   0  0  0  0  0  3  0  0  0  0  0  0
  189.9990  176.9380  147.7020 C   0  0  0  0  0  3  0  0  0  0  0  0
  192.0490  177.8500  143.9620 O   0  0  0  0  0  1  0  0  0  0  0  0
  190.7230  176.8280  146.5310 C   0  0  0  0  0  0  0  0  0  0  0  0
  188.0770  177.6130  146.2400 C   0  0  0  0  0  0  0  0  0  0  0  0
  191.4670  176.7660  144.6160 C   0  0  0  0  0  0  0  0  0  0  0  0
  187.9420  178.2520  140.3950 C   0  0  0  0  0  2  0  0  0  0  0  0
  189.0250  177.5530  141.2030 C   0  0  0  0  0  2  0  0  0  0  0  0
  189.9580  176.6620  139.1100 C   0  0  0  0  0  3  0  0  0  0  0  0
  190.1700  177.1280  140.3420 C   0  0  0  0  0  3  0  0  0  0  0  0
  191.0920  176.1780  138.2660 C   0  0  0  0  0  2  0  0  0  0  0  0
  190.6380  175.1000  137.2950 C   0  0  0  0  0  2  0  0  0  0  0  0
  190.3930  175.7130  135.9220 C   0  0  0  0  0  2  0  0  0  0  0  0
  188.9190  175.6260  135.5040 C   0  0  1  0  0  3  0  0  0  0  0  0
  186.5380  172.6540  135.5310 C   0  0  0  0  0  2  0  0  0  0  0  0
  186.3010  173.2960  136.8870 C   0  0  0  0  0  2  0  0  0  0  0  0
  187.6110  173.4710  134.8320 C   0  0  2  0  0  3  0  0  0  0  0  0
  187.5600  174.0710  137.2120 C   0  0  0  0  0  2  0  0  0  0  0  0
  188.8800  173.1360  135.3650 O   0  0  0  0  0  0  0  0  0  0  0  0
  188.2560  174.2830  135.8830 C   0  0  2  0  0  0  0  0  0  0  0  0
  186.6940  176.8720  135.4460 C   0  0  0  0  0  1  0  0  0  0  0  0
  188.1170  176.8470  135.9960 C   0  0  2  0  0  3  0  0  0  0  0  0
  188.7700  178.0420  135.6770 O   0  0  0  0  0  0  0  0  0  0  0  0
  188.7440  178.7850  136.8630 C   0  0  0  0  0  2  0  0  0  0  0  0
  187.6510  179.6500  136.8440 O   0  0  0  0  0  1  0  0  0  0  0  0
  1  2  2  0  0  0  0
  1  3  1  0  0  0  0
  2  4  1  0  0  0  0
  3 46  1  6  0  0  0
  3  5  1  0  0  0  0
  4  5  1  0  0  0  0
  4 29  1  1  0  0  0
  6  9  2  0  0  0  0
  7 13  1  1  0  0  0
  7  8  1  0  0  0  0
  7 11  1  0  0  0  0
  8 12  1  0  0  0  0
 10  8  2  0  0  0  0
 11  6  1  0  0  0  0
 12  6  1  0  0  0  0
 12  2  1  0  0  0  0
 14 26  1  6  0  0  0
 14 13  1  0  0  0  0
 15 17  1  0  0  0  0
 15 14  1  0  0  0  0
 17 16  2  0  0  0  0
 19 22  2  0  0  0  0
 20 19  1  0  0  0  0
 20 18  1  1  0  0  0
 21 25  1  0  0  0  0
 21 24  1  0  0  0  0
 21 17  1  1  0  0  0
 24 20  1  0  0  0  0
 24 23  1  1  0  0  0
 25 19  1  0  0  0  0
 28 26  1  0  0  0  0
 28 27  1  0  0  0  0
 29 30  1  0  0  0  0
 30 31  2  0  0  0  0
 30 35  1  0  0  0  0
 31 34  1  0  0  0  0
 33 32  1  0  0  0  0
 34 44  1  0  0  0  0
 34 32  2  0  0  0  0
 35 33  2  0  0  0  0
 36 45  1  0  0  0  0
 37 39  2  0  0  0  0
 37 44  1  0  0  0  0
 38 43  1  0  0  0  0
 39 43  1  0  0  0  0
 40 41  1  0  0  0  0
 42 45  1  0  0  0  0
 43 41  2  0  0  0  0
 44 40  2  0  0  0  0
 45 39  1  0  0  0  0
 45 38  1  0  0  0  0
 46 47  1  0  0  0  0
 48 49  2  0  0  0  0
 49 47  1  0  0  0  0
 50 48  1  0  0  0  0
 51 50  1  0  0  0  0
 52 51  1  0  0  0  0
 53 52  1  1  0  0  0
 53 61  1  0  0  0  0
 54 55  1  0  0  0  0
 55 57  1  0  0  0  0
 56 58  1  0  0  0  0
 56 54  1  1  0  0  0
 56 59  1  0  0  0  0
 58 59  1  0  0  0  0
 59 53  1  6  0  0  0
 59 57  1  0  0  0  0
 61 60  1  6  0  0  0
 62 61  1  0  0  0  0
 62 63  1  0  0  0  0
 64 63  1  0  0  0  0
M  END
>  <MODEL>
5

>  <REMARK>
 VINA RESULT:      -6.7      2.023      6.642
  Name = 
  21 active torsions:
  status: ('A' for Active; 'I' for Inactive)
    1  A    between atoms: C_1  and  O_17
    2  A    between atoms: C_7  and  C_15
    3  A    between atoms: C_7  and  C_39
    4  A    between atoms: C_9  and  C_12
    5  A    between atoms: C_9  and  C_28
    6  A    between atoms: O_17  and  C_29
    7  A    between atoms: C_19  and  N_61
    8  A    between atoms: C_25  and  C_44
    9  A    between atoms: N_27  and  C_28
   10  A    between atoms: C_28  and  C_54
   11  A    between atoms: C_29  and  C_63
   12  A    between atoms: C_31  and  C_48
   13  A    between atoms: C_32  and  C_62
   14  A    between atoms: C_35  and  C_48
   15  A    between atoms: C_35  and  C_60
   16  A    between atoms: C_40  and  C_52
   17  A    between atoms: C_41  and  C_56
   18  A    between atoms: C_44  and  C_52
   19  A    between atoms: C_53  and  C_63
   20  A    between atoms: C_54  and  C_57
   21  A    between atoms: C_60  and  C_63
                            x       y       z     vdW  Elec       q    Type
                         _______ _______ _______ _____ _____    ______ ____

>  <TORSDO>
F 21

$$$$
=
 OpenBabel10222419103D

 64 71  0  0  1  0  0  0  0  0999 V2000
  186.3840  178.7480  139.9730 C   0  0  0  0  0  3  0  0  0  0  0  0
  185.1660  178.3960  140.3530 C   0  0  0  0  0  0  0  0  0  0  0  0
  187.4630  178.5450  140.9730 C   0  0  1  0  0  3  0  0  0  0  0  0
  185.0420  177.8600  141.7370 C   0  0  1  0  0  3  0  0  0  0  0  0
  186.7340  177.6180  142.3690 S   0  0  0  0  0  0  0  0  0  0  0  0
  183.6050  179.6270  138.7270 C   0  0  0  0  0  0  0  0  0  0  0  0
  182.0080  178.0430  138.2230 C   0  0  2  0  0  3  0  0  0  0  0  0
  183.0430  177.5170  139.1730 C   0  0  0  0  0  0  0  0  0  0  0  0
  184.2050  180.7350  138.7170 O   0  0  0  0  0  0  0  0  0  0  0  0
  183.0700  176.3360  139.6190 O   0  0  0  0  0  0  0  0  0  0  0  0
  182.4360  179.3870  138.0170 O   0  0  0  0  0  0  0  0  0  0  0  0
  184.0320  178.4990  139.4750 N   0  0  0  0  0  0  0  0  0  0  0  0
  180.6270  178.0300  138.8600 C   0  0  0  0  0  2  0  0  0  0  0  0
  180.4170  179.2890  139.6850 C   0  0  1  0  0  3  0  0  0  0  0  0
  179.8780  180.3520  138.8510 N   0  0  0  0  0  2  0  0  0  0  0  0
  179.7190  181.8830  140.6080 O   0  0  0  0  0  0  0  0  0  0  0  0
  179.5300  181.6320  139.3850 C   0  0  0  0  0  0  0  0  0  0  0  0
  181.0160  184.7660  136.5110 O   0  0  0  0  0  1  0  0  0  0  0  0
  179.3650  184.9320  138.1880 C   0  0  0  0  0  0  0  0  0  0  0  0
  179.7250  184.3640  136.8720 C   0  0  2  0  0  3  0  0  0  0  0  0
  178.9310  182.6700  138.4830 C   0  0  2  0  0  3  0  0  0  0  0  0
  179.4180  186.1600  138.4560 O   0  0  0  0  0  0  0  0  0  0  0  0
  180.9110  182.2590  137.1040 O   0  0  0  0  0  1  0  0  0  0  0  0
  179.6390  182.8460  137.1150 C   0  0  2  0  0  3  0  0  0  0  0  0
  178.9310  183.9710  139.1270 N   0  0  0  0  0  2  0  0  0  0  0  0
  179.5070  179.0350  140.8960 C   0  0  0  0  0  2  0  0  0  0  0  0
  179.4310  176.9140  142.0010 O   0  0  0  0  0  1  0  0  0  0  0  0
  180.1430  178.1090  141.9290 C   0  0  0  0  0  2  0  0  0  0  0  0
  184.2970  178.8690  142.6030 C   0  0  0  0  0  2  0  0  0  0  0  0
  184.6960  178.7600  144.0360 C   0  0  0  0  0  0  0  0  0  0  0  0
  185.9710  178.3170  144.3930 C   0  0  0  0  0  3  0  0  0  0  0  0
  185.3860  178.5840  146.7130 C   0  0  0  0  0  3  0  0  0  0  0  0
  184.1470  179.0070  146.3440 N   0  0  0  0  0  0  0  0  0  0  0  0
  186.3370  178.2250  145.7440 C   0  0  0  0  0  0  0  0  0  0  0  0
  183.7880  179.1010  145.0370 C   0  0  0  0  0  3  0  0  0  0  0  0
  191.4820  175.9460  144.3730 O   0  0  0  0  0  1  0  0  0  0  0  0
  188.7330  177.7480  145.1650 C   0  0  0  0  0  3  0  0  0  0  0  0
  191.6320  176.6220  146.6380 C   0  0  0  0  0  2  0  0  0  0  0  0
  189.9600  177.3120  145.6200 C   0  0  0  0  0  0  0  0  0  0  0  0
  187.9550  177.3910  147.4980 C   0  0  0  0  0  3  0  0  0  0  0  0
  189.2280  176.9490  147.9410 C   0  0  0  0  0  3  0  0  0  0  0  0
  192.0850  178.1290  144.8650 O   0  0  0  0  0  1  0  0  0  0  0  0
  190.2020  176.9230  146.9630 C   0  0  0  0  0  0  0  0  0  0  0  0
  187.6950  177.7810  146.1390 C   0  0  0  0  0  0  0  0  0  0  0  0
  191.3680  177.0060  145.2720 C   0  0  0  0  0  0  0  0  0  0  0  0
  188.5900  177.7390  140.3350 C   0  0  0  0  0  2  0  0  0  0  0  0
  189.0920  178.3970  139.0570 C   0  0  0  0  0  2  0  0  0  0  0  0
  189.4110  177.6590  136.7330 C   0  0  0  0  0  3  0  0  0  0  0  0
  189.4980  177.3840  138.0360 C   0  0  0  0  0  3  0  0  0  0  0  0
  189.7570  176.6300  135.7070 C   0  0  0  0  0  2  0  0  0  0  0  0
  190.2430  175.3440  136.3540 C   0  0  0  0  0  2  0  0  0  0  0  0
  191.4300  174.7910  135.5750 C   0  0  0  0  0  2  0  0  0  0  0  0
  192.6620  174.5870  136.4670 C   0  0  1  0  0  3  0  0  0  0  0  0
  194.3380  171.1700  136.3370 C   0  0  0  0  0  2  0  0  0  0  0  0
  195.5010  172.1130  136.5940 C   0  0  0  0  0  2  0  0  0  0  0  0
  193.0870  172.0230  136.2300 C   0  0  2  0  0  3  0  0  0  0  0  0
  195.0660  173.4680  136.0770 C   0  0  0  0  0  2  0  0  0  0  0  0
  193.0440  172.6410  134.9560 O   0  0  0  0  0  0  0  0  0  0  0  0
  193.5530  173.4080  136.0170 C   0  0  2  0  0  0  0  0  0  0  0  0
  194.4640  176.1290  135.5290 C   0  0  0  0  0  1  0  0  0  0  0  0
  193.4540  175.8970  136.6480 C   0  0  2  0  0  3  0  0  0  0  0  0
  194.1010  175.9280  137.8870 O   0  0  0  0  0  0  0  0  0  0  0  0
  193.1760  176.5200  138.7550 C   0  0  0  0  0  2  0  0  0  0  0  0
  193.7250  176.6030  140.0330 O   0  0  0  0  0  1  0  0  0  0  0  0
  1  2  2  0  0  0  0
  1  3  1  0  0  0  0
  2  4  1  0  0  0  0
  3 46  1  6  0  0  0
  3  5  1  0  0  0  0
  4  5  1  0  0  0  0
  4 29  1  1  0  0  0
  6 12  1  0  0  0  0
  7 13  1  1  0  0  0
  7  8  1  0  0  0  0
  8 12  1  0  0  0  0
  8 10  2  0  0  0  0
  9  6  2  0  0  0  0
 11  7  1  0  0  0  0
 11  6  1  0  0  0  0
 12  2  1  0  0  0  0
 14 13  1  6  0  0  0
 14 26  1  0  0  0  0
 15 17  1  0  0  0  0
 15 14  1  0  0  0  0
 17 16  2  0  0  0  0
 19 22  2  0  0  0  0
 19 25  1  0  0  0  0
 20 18  1  1  0  0  0
 20 24  1  0  0  0  0
 20 19  1  0  0  0  0
 21 25  1  0  0  0  0
 21 17  1  1  0  0  0
 24 23  1  1  0  0  0
 24 21  1  0  0  0  0
 26 28  1  0  0  0  0
 28 27  1  0  0  0  0
 29 30  1  0  0  0  0
 30 31  2  0  0  0  0
 30 35  1  0  0  0  0
 31 34  1  0  0  0  0
 33 32  1  0  0  0  0
 34 44  1  0  0  0  0
 34 32  2  0  0  0  0
 35 33  2  0  0  0  0
 36 45  1  0  0  0  0
 37 39  2  0  0  0  0
 37 44  1  0  0  0  0
 38 43  1  0  0  0  0
 39 43  1  0  0  0  0
 40 41  1  0  0  0  0
 42 45  1  0  0  0  0
 43 41  2  0  0  0  0
 44 40  2  0  0  0  0
 45 39  1  0  0  0  0
 45 38  1  0  0  0  0
 47 46  1  0  0  0  0
 48 49  2  0  0  0  0
 49 47  1  0  0  0  0
 50 51  1  0  0  0  0
 50 48  1  0  0  0  0
 52 51  1  0  0  0  0
 53 52  1  6  0  0  0
 53 61  1  0  0  0  0
 54 55  1  0  0  0  0
 56 54  1  6  0  0  0
 57 55  1  0  0  0  0
 58 59  1  0  0  0  0
 58 56  1  0  0  0  0
 59 57  1  0  0  0  0
 59 56  1  0  0  0  0
 59 53  1  1  0  0  0
 61 60  1  6  0  0  0
 61 62  1  0  0  0  0
 62 63  1  0  0  0  0
 63 64  1  0  0  0  0
M  END
>  <MODEL>
6

>  <REMARK>
 VINA RESULT:      -6.7      2.816      8.346
  Name = 
  21 active torsions:
  status: ('A' for Active; 'I' for Inactive)
    1  A    between atoms: C_1  and  O_17
    2  A    between atoms: C_7  and  C_15
    3  A    between atoms: C_7  and  C_39
    4  A    between atoms: C_9  and  C_12
    5  A    between atoms: C_9  and  C_28
    6  A    between atoms: O_17  and  C_29
    7  A    between atoms: C_19  and  N_61
    8  A    between atoms: C_25  and  C_44
    9  A    between atoms: N_27  and  C_28
   10  A    between atoms: C_28  and  C_54
   11  A    between atoms: C_29  and  C_63
   12  A    between atoms: C_31  and  C_48
   13  A    between atoms: C_32  and  C_62
   14  A    between atoms: C_35  and  C_48
   15  A    between atoms: C_35  and  C_60
   16  A    between atoms: C_40  and  C_52
   17  A    between atoms: C_41  and  C_56
   18  A    between atoms: C_44  and  C_52
   19  A    between atoms: C_53  and  C_63
   20  A    between atoms: C_54  and  C_57
   21  A    between atoms: C_60  and  C_63
                            x       y       z     vdW  Elec       q    Type
                         _______ _______ _______ _____ _____    ______ ____

>  <TORSDO>
F 21

$$$$
=
 OpenBabel10222419103D

 64 71  0  0  1  0  0  0  0  0999 V2000
  184.0680  179.3630  138.9110 C   0  0  0  0  0  3  0  0  0  0  0  0
  183.2820  179.1660  139.9590 C   0  0  0  0  0  0  0  0  0  0  0  0
  185.5020  179.0290  139.1010 C   0  0  1  0  0  3  0  0  0  0  0  0
  183.9480  178.6530  141.1870 C   0  0  1  0  0  3  0  0  0  0  0  0
  185.6510  178.2030  140.7240 S   0  0  0  0  0  0  0  0  0  0  0  0
  180.8180  178.5700  140.3710 C   0  0  0  0  0  0  0  0  0  0  0  0
  179.6820  180.3640  139.4760 C   0  0  2  0  0  3  0  0  0  0  0  0
  181.1680  180.5160  139.3450 C   0  0  0  0  0  0  0  0  0  0  0  0
  181.0020  177.4590  140.9380 O   0  0  0  0  0  0  0  0  0  0  0  0
  181.7420  181.5220  138.8410 O   0  0  0  0  0  0  0  0  0  0  0  0
  179.5590  179.0960  140.1170 O   0  0  0  0  0  0  0  0  0  0  0  0
  181.8650  179.4070  139.9070 N   0  0  0  0  0  0  0  0  0  0  0  0
  179.0150  180.3220  138.1100 C   0  0  0  0  0  2  0  0  0  0  0  0
  180.0360  179.9830  137.0370 C   0  0  1  0  0  3  0  0  0  0  0  0
  179.8180  178.6310  136.5450 N   0  0  0  0  0  2  0  0  0  0  0  0
  182.0630  178.0160  136.7340 O   0  0  0  0  0  0  0  0  0  0  0  0
  180.8890  177.6950  136.4010 C   0  0  0  0  0  0  0  0  0  0  0  0
  181.6950  173.4170  137.5570 O   0  0  0  0  0  1  0  0  0  0  0  0
  181.9570  174.4790  135.4680 C   0  0  0  0  0  0  0  0  0  0  0  0
  181.0040  173.9800  136.4800 C   0  0  2  0  0  3  0  0  0  0  0  0
  180.6070  176.3310  135.8400 C   0  0  2  0  0  3  0  0  0  0  0  0
  182.8590  173.7710  134.9500 O   0  0  0  0  0  0  0  0  0  0  0  0
  180.5650  175.6460  138.1900 O   0  0  0  0  0  1  0  0  0  0  0  0
  180.2340  175.2500  136.8870 C   0  0  2  0  0  3  0  0  0  0  0  0
  181.7570  175.8300  135.1090 N   0  0  0  0  0  2  0  0  0  0  0  0
  180.0080  180.9910  135.8790 C   0  0  0  0  0  2  0  0  0  0  0  0
  180.5560  183.2690  136.3690 O   0  0  0  0  0  1  0  0  0  0  0  0
  179.4980  182.3650  136.3060 C   0  0  0  0  0  2  0  0  0  0  0  0
  183.9630  179.7480  142.2470 C   0  0  0  0  0  2  0  0  0  0  0  0
  184.3430  179.2100  143.5850 C   0  0  0  0  0  0  0  0  0  0  0  0
  185.6520  178.8020  143.8480 C   0  0  0  0  0  3  0  0  0  0  0  0
  184.9960  178.2280  146.0920 C   0  0  0  0  0  3  0  0  0  0  0  0
  183.7250  178.6240  145.8140 N   0  0  0  0  0  0  0  0  0  0  0  0
  185.9990  178.3040  145.1120 C   0  0  0  0  0  0  0  0  0  0  0  0
  183.3830  179.1110  144.5910 C   0  0  0  0  0  3  0  0  0  0  0  0
  191.0600  176.0570  143.4140 O   0  0  0  0  0  1  0  0  0  0  0  0
  188.3520  177.8440  144.3650 C   0  0  0  0  0  3  0  0  0  0  0  0
  191.3720  176.7980  145.6430 C   0  0  0  0  0  2  0  0  0  0  0  0
  189.6170  177.4370  144.7370 C   0  0  0  0  0  0  0  0  0  0  0  0
  187.7580  177.5410  146.7590 C   0  0  0  0  0  3  0  0  0  0  0  0
  189.0670  177.1300  147.1160 C   0  0  0  0  0  3  0  0  0  0  0  0
  191.6660  178.2610  143.8010 O   0  0  0  0  0  1  0  0  0  0  0  0
  189.9650  177.0890  146.0680 C   0  0  0  0  0  0  0  0  0  0  0  0
  187.3900  177.8900  145.4140 C   0  0  0  0  0  0  0  0  0  0  0  0
  190.9990  177.1410  144.2910 C   0  0  0  0  0  0  0  0  0  0  0  0
  185.9480  178.0880  137.9860 C   0  0  0  0  0  2  0  0  0  0  0  0
  187.4650  178.0170  137.8880 C   0  0  0  0  0  2  0  0  0  0  0  0
  188.8470  176.4540  136.5880 C   0  0  0  0  0  3  0  0  0  0  0  0
  187.9080  177.4030  136.6000 C   0  0  0  0  0  3  0  0  0  0  0  0
  189.3390  175.8790  135.3000 C   0  0  0  0  0  2  0  0  0  0  0  0
  190.7810  176.2790  135.0300 C   0  0  0  0  0  2  0  0  0  0  0  0
  191.7240  175.2660  135.6660 C   0  0  0  0  0  2  0  0  0  0  0  0
  192.8670  175.9440  136.4350 C   0  0  1  0  0  3  0  0  0  0  0  0
  191.7040  177.1630  139.8500 C   0  0  0  0  0  2  0  0  0  0  0  0
  193.2180  177.1990  139.9700 C   0  0  0  0  0  2  0  0  0  0  0  0
  191.3790  176.6430  138.4610 C   0  0  2  0  0  3  0  0  0  0  0  0
  193.7440  176.2080  138.9530 C   0  0  0  0  0  2  0  0  0  0  0  0
  191.5510  175.2370  138.4320 O   0  0  0  0  0  0  0  0  0  0  0  0
  192.6180  176.0180  137.9580 C   0  0  2  0  0  0  0  0  0  0  0  0
  194.7730  175.8170  134.7440 C   0  0  0  0  0  1  0  0  0  0  0  0
  194.2330  175.3230  136.0840 C   0  0  2  0  0  3  0  0  0  0  0  0
  194.1680  173.9260  136.0840 O   0  0  0  0  0  0  0  0  0  0  0  0
  195.1730  173.5260  136.9730 C   0  0  0  0  0  2  0  0  0  0  0  0
  196.3880  173.4470  136.2950 O   0  0  0  0  0  1  0  0  0  0  0  0
  1  3  1  0  0  0  0
  1  2  2  0  0  0  0
  2  4  1  0  0  0  0
  3 46  1  6  0  0  0
  3  5  1  0  0  0  0
  4 29  1  1  0  0  0
  5  4  1  0  0  0  0
  6  9  2  0  0  0  0
  7 13  1  6  0  0  0
  7 11  1  0  0  0  0
  8  7  1  0  0  0  0
  8 12  1  0  0  0  0
 10  8  2  0  0  0  0
 11  6  1  0  0  0  0
 12  2  1  0  0  0  0
 12  6  1  0  0  0  0
 14 26  1  6  0  0  0
 14 13  1  0  0  0  0
 15 14  1  0  0  0  0
 17 15  1  0  0  0  0
 17 16  2  0  0  0  0
 19 20  1  0  0  0  0
 20 24  1  0  0  0  0
 20 18  1  1  0  0  0
 21 17  1  1  0  0  0
 21 24  1  0  0  0  0
 22 19  2  0  0  0  0
 24 23  1  1  0  0  0
 25 19  1  0  0  0  0
 25 21  1  0  0  0  0
 26 28  1  0  0  0  0
 28 27  1  0  0  0  0
 29 30  1  0  0  0  0
 30 31  2  0  0  0  0
 30 35  1  0  0  0  0
 31 34  1  0  0  0  0
 33 32  1  0  0  0  0
 34 44  1  0  0  0  0
 34 32  2  0  0  0  0
 35 33  2  0  0  0  0
 36 45  1  0  0  0  0
 37 39  2  0  0  0  0
 37 44  1  0  0  0  0
 38 43  1  0  0  0  0
 39 43  1  0  0  0  0
 40 41  1  0  0  0  0
 42 45  1  0  0  0  0
 43 41  2  0  0  0  0
 44 40  2  0  0  0  0
 45 39  1  0  0  0  0
 45 38  1  0  0  0  0
 47 46  1  0  0  0  0
 48 49  2  0  0  0  0
 49 47  1  0  0  0  0
 50 48  1  0  0  0  0
 51 50  1  0  0  0  0
 51 52  1  0  0  0  0
 53 52  1  6  0  0  0
 54 55  1  0  0  0  0
 56 54  1  1  0  0  0
 57 55  1  0  0  0  0
 58 56  1  0  0  0  0
 59 53  1  6  0  0  0
 59 58  1  0  0  0  0
 59 56  1  0  0  0  0
 59 57  1  0  0  0  0
 61 60  1  6  0  0  0
 61 53  1  0  0  0  0
 62 61  1  0  0  0  0
 62 63  1  0  0  0  0
 64 63  1  0  0  0  0
M  END
>  <MODEL>
7

>  <REMARK>
 VINA RESULT:      -6.6      1.904      6.622
  Name = 
  21 active torsions:
  status: ('A' for Active; 'I' for Inactive)
    1  A    between atoms: C_1  and  O_17
    2  A    between atoms: C_7  and  C_15
    3  A    between atoms: C_7  and  C_39
    4  A    between atoms: C_9  and  C_12
    5  A    between atoms: C_9  and  C_28
    6  A    between atoms: O_17  and  C_29
    7  A    between atoms: C_19  and  N_61
    8  A    between atoms: C_25  and  C_44
    9  A    between atoms: N_27  and  C_28
   10  A    between atoms: C_28  and  C_54
   11  A    between atoms: C_29  and  C_63
   12  A    between atoms: C_31  and  C_48
   13  A    between atoms: C_32  and  C_62
   14  A    between atoms: C_35  and  C_48
   15  A    between atoms: C_35  and  C_60
   16  A    between atoms: C_40  and  C_52
   17  A    between atoms: C_41  and  C_56
   18  A    between atoms: C_44  and  C_52
   19  A    between atoms: C_53  and  C_63
   20  A    between atoms: C_54  and  C_57
   21  A    between atoms: C_60  and  C_63
                            x       y       z     vdW  Elec       q    Type
                         _______ _______ _______ _____ _____    ______ ____

>  <TORSDO>
F 21

$$$$
=
 OpenBabel10222419103D

 64 71  0  0  1  0  0  0  0  0999 V2000
  185.9650  178.6410  140.0110 C   0  0  0  0  0  3  0  0  0  0  0  0
  185.3440  178.1510  138.9500 C   0  0  0  0  0  0  0  0  0  0  0  0
  185.1100  178.9280  141.1910 C   0  0  1  0  0  3  0  0  0  0  0  0
  183.8710  177.9720  139.0790 C   0  0  1  0  0  3  0  0  0  0  0  0
  183.4500  178.2560  140.8280 S   0  0  0  0  0  0  0  0  0  0  0  0
  186.2350  176.4940  137.2020 C   0  0  0  0  0  0  0  0  0  0  0  0
  187.3880  177.8420  135.7310 C   0  0  2  0  0  3  0  0  0  0  0  0
  186.7680  178.6280  136.8490 C   0  0  0  0  0  0  0  0  0  0  0  0
  185.7610  175.4400  137.7060 O   0  0  0  0  0  0  0  0  0  0  0  0
  186.8300  179.8840  136.9600 O   0  0  0  0  0  0  0  0  0  0  0  0
  187.0140  176.5040  136.0530 O   0  0  0  0  0  0  0  0  0  0  0  0
  186.0510  177.7890  137.7510 N   0  0  0  0  0  0  0  0  0  0  0  0
  188.9030  177.9750  135.7460 C   0  0  0  0  0  2  0  0  0  0  0  0
  189.5220  176.8500  136.5610 C   0  0  1  0  0  3  0  0  0  0  0  0
  190.8640  176.5610  136.0790 N   0  0  0  0  0  2  0  0  0  0  0  0
  190.4530  174.2810  135.7870 O   0  0  0  0  0  0  0  0  0  0  0  0
  191.2730  175.2390  135.7230 C   0  0  0  0  0  0  0  0  0  0  0  0
  195.3580  175.1700  137.6190 O   0  0  0  0  0  1  0  0  0  0  0  0
  194.6560  176.1820  135.6070 C   0  0  0  0  0  0  0  0  0  0  0  0
  194.9280  174.9130  136.3120 C   0  0  2  0  0  3  0  0  0  0  0  0
  192.6870  174.9970  135.2820 C   0  0  2  0  0  3  0  0  0  0  0  0
  195.4930  177.1160  135.5030 O   0  0  0  0  0  0  0  0  0  0  0  0
  192.9900  174.1520  137.5600 O   0  0  0  0  0  1  0  0  0  0  0  0
  193.5630  174.2000  136.2830 C   0  0  2  0  0  3  0  0  0  0  0  0
  193.3690  176.2530  135.0320 N   0  0  0  0  0  2  0  0  0  0  0  0
  189.5420  177.1740  138.0610 C   0  0  0  0  0  2  0  0  0  0  0  0
  190.2790  176.2100  140.1250 O   0  0  0  0  0  1  0  0  0  0  0  0
  189.6140  175.9240  138.9340 C   0  0  0  0  0  2  0  0  0  0  0  0
  183.1600  178.9890  138.1950 C   0  0  0  0  0  2  0  0  0  0  0  0
  182.2430  178.3260  137.2240 C   0  0  0  0  0  0  0  0  0  0  0  0
  182.2080  176.9340  137.1090 C   0  0  0  0  0  3  0  0  0  0  0  0
  180.5150  177.1440  135.4100 C   0  0  0  0  0  3  0  0  0  0  0  0
  180.5700  178.4980  135.5320 N   0  0  0  0  0  0  0  0  0  0  0  0
  181.3370  176.3210  136.1960 C   0  0  0  0  0  0  0  0  0  0  0  0
  181.4090  179.0980  136.4170 C   0  0  0  0  0  3  0  0  0  0  0  0
  183.7100  171.2860  134.5960 O   0  0  0  0  0  1  0  0  0  0  0  0
  182.4740  174.0890  136.0270 C   0  0  0  0  0  3  0  0  0  0  0  0
  181.7030  170.7470  135.7330 C   0  0  0  0  0  2  0  0  0  0  0  0
  182.3140  172.7240  135.9070 C   0  0  0  0  0  0  0  0  0  0  0  0
  179.9910  174.1880  136.0230 C   0  0  0  0  0  3  0  0  0  0  0  0
  179.8530  172.7820  135.9040 C   0  0  0  0  0  3  0  0  0  0  0  0
  183.7390  171.0710  136.9040 O   0  0  0  0  0  1  0  0  0  0  0  0
  181.0460  172.0890  135.8460 C   0  0  0  0  0  0  0  0  0  0  0  0
  181.2680  174.8440  136.0800 C   0  0  0  0  0  0  0  0  0  0  0  0
  182.9860  171.4080  135.7820 C   0  0  0  0  0  0  0  0  0  0  0  0
  185.7030  178.2400  142.4170 C   0  0  0  0  0  2  0  0  0  0  0  0
  184.7100  178.1990  143.5690 C   0  0  0  0  0  2  0  0  0  0  0  0
  186.1010  178.1580  145.5960 C   0  0  0  0  0  3  0  0  0  0  0  0
  185.2670  178.8330  144.8030 C   0  0  0  0  0  3  0  0  0  0  0  0
  186.6130  178.7630  146.8630 C   0  0  0  0  0  2  0  0  0  0  0  0
  187.6150  177.8490  147.5480 C   0  0  0  0  0  2  0  0  0  0  0  0
  188.3730  177.0400  146.5030 C   0  0  0  0  0  2  0  0  0  0  0  0
  189.5330  177.8340  145.8870 C   0  0  1  0  0  3  0  0  0  0  0  0
  192.4280  175.4410  146.5100 C   0  0  0  0  0  2  0  0  0  0  0  0
  192.0990  175.9510  147.9030 C   0  0  0  0  0  2  0  0  0  0  0  0
  191.4830  176.1340  145.5460 C   0  0  2  0  0  3  0  0  0  0  0  0
  191.4200  177.2900  147.7110 C   0  0  0  0  0  2  0  0  0  0  0  0
  191.9310  177.4580  145.3150 O   0  0  0  0  0  0  0  0  0  0  0  0
  190.9240  177.2870  146.2790 C   0  0  2  0  0  0  0  0  0  0  0  0
  189.0510  176.6730  143.6670 C   0  0  0  0  0  1  0  0  0  0  0  0
  189.3640  177.9940  144.3630 C   0  0  2  0  0  3  0  0  0  0  0  0
  190.4970  178.5780  143.7870 O   0  0  0  0  0  0  0  0  0  0  0  0
  190.5270  178.0770  142.4800 C   0  0  0  0  0  2  0  0  0  0  0  0
  191.8480  178.0040  142.0420 O   0  0  0  0  0  1  0  0  0  0  0  0
  1  3  1  0  0  0  0
  2  4  1  0  0  0  0
  2  1  2  0  0  0  0
  3 46  1  1  0  0  0
  4 29  1  6  0  0  0
  4  5  1  0  0  0  0
  5  3  1  0  0  0  0
  6  9  2  0  0  0  0
  6 12  1  0  0  0  0
  7 13  1  1  0  0  0
  7 11  1  0  0  0  0
  7  8  1  0  0  0  0
  8 10  2  0  0  0  0
  8 12  1  0  0  0  0
 11  6  1  0  0  0  0
 12  2  1  0  0  0  0
 14 13  1  6  0  0  0
 14 26  1  0  0  0  0
 15 14  1  0  0  0  0
 17 16  2  0  0  0  0
 17 15  1  0  0  0  0
 19 20  1  0  0  0  0
 20 18  1  1  0  0  0
 21 17  1  1  0  0  0
 21 24  1  0  0  0  0
 22 19  2  0  0  0  0
 24 20  1  0  0  0  0
 24 23  1  1  0  0  0
 25 21  1  0  0  0  0
 25 19  1  0  0  0  0
 26 28  1  0  0  0  0
 28 27  1  0  0  0  0
 30 29  1  0  0  0  0
 31 30  1  0  0  0  0
 32 33  2  0  0  0  0
 32 34  1  0  0  0  0
 33 35  1  0  0  0  0
 34 31  2  0  0  0  0
 35 30  2  0  0  0  0
 36 45  1  0  0  0  0
 37 44  1  0  0  0  0
 38 45  1  0  0  0  0
 38 43  1  0  0  0  0
 39 37  2  0  0  0  0
 40 44  2  0  0  0  0
 41 40  1  0  0  0  0
 43 41  2  0  0  0  0
 43 39  1  0  0  0  0
 44 34  1  0  0  0  0
 45 39  1  0  0  0  0
 45 42  1  0  0  0  0
 46 47  1  0  0  0  0
 47 49  1  0  0  0  0
 48 50  1  0  0  0  0
 49 48  2  0  0  0  0
 50 51  1  0  0  0  0
 52 51  1  0  0  0  0
 53 52  1  6  0  0  0
 54 55  1  0  0  0  0
 56 59  1  0  0  0  0
 56 54  1  1  0  0  0
 57 55  1  0  0  0  0
 58 56  1  0  0  0  0
 58 59  1  0  0  0  0
 59 53  1  6  0  0  0
 59 57  1  0  0  0  0
 61 60  1  6  0  0  0
 61 53  1  0  0  0  0
 62 61  1  0  0  0  0
 63 62  1  0  0  0  0
 64 63  1  0  0  0  0
M  END
>  <MODEL>
8

>  <REMARK>
 VINA RESULT:      -6.4      2.459      7.521
  Name = 
  21 active torsions:
  status: ('A' for Active; 'I' for Inactive)
    1  A    between atoms: C_1  and  O_17
    2  A    between atoms: C_7  and  C_15
    3  A    between atoms: C_7  and  C_39
    4  A    between atoms: C_9  and  C_12
    5  A    between atoms: C_9  and  C_28
    6  A    between atoms: O_17  and  C_29
    7  A    between atoms: C_19  and  N_61
    8  A    between atoms: C_25  and  C_44
    9  A    between atoms: N_27  and  C_28
   10  A    between atoms: C_28  and  C_54
   11  A    between atoms: C_29  and  C_63
   12  A    between atoms: C_31  and  C_48
   13  A    between atoms: C_32  and  C_62
   14  A    between atoms: C_35  and  C_48
   15  A    between atoms: C_35  and  C_60
   16  A    between atoms: C_40  and  C_52
   17  A    between atoms: C_41  and  C_56
   18  A    between atoms: C_44  and  C_52
   19  A    between atoms: C_53  and  C_63
   20  A    between atoms: C_54  and  C_57
   21  A    between atoms: C_60  and  C_63
                            x       y       z     vdW  Elec       q    Type
                         _______ _______ _______ _____ _____    ______ ____

>  <TORSDO>
F 21

$$$$
=
 OpenBabel10222419103D

 64 71  0  0  1  0  0  0  0  0999 V2000
  189.8010  177.0040  139.2480 C   0  0  0  0  0  3  0  0  0  0  0  0
  189.3650  176.6940  138.0360 C   0  0  0  0  0  0  0  0  0  0  0  0
  191.1480  176.4900  139.6060 C   0  0  1  0  0  3  0  0  0  0  0  0
  190.2770  175.8590  137.2080 C   0  0  1  0  0  3  0  0  0  0  0  0
  191.8670  175.7660  138.0910 S   0  0  0  0  0  0  0  0  0  0  0  0
  187.7390  178.4720  137.1480 C   0  0  0  0  0  0  0  0  0  0  0  0
  185.7820  177.2960  136.8400 C   0  0  2  0  0  3  0  0  0  0  0  0
  186.8880  176.4240  137.3580 C   0  0  0  0  0  0  0  0  0  0  0  0
  188.5310  179.4530  137.1640 O   0  0  0  0  0  0  0  0  0  0  0  0
  186.7820  175.1840  137.5670 O   0  0  0  0  0  0  0  0  0  0  0  0
  186.4100  178.5730  136.7600 O   0  0  0  0  0  0  0  0  0  0  0  0
  188.0970  177.1560  137.5400 N   0  0  0  0  0  0  0  0  0  0  0  0
  184.6220  177.3480  137.8230 C   0  0  0  0  0  2  0  0  0  0  0  0
  183.5000  176.4320  137.3610 C   0  0  1  0  0  3  0  0  0  0  0  0
  182.2960  176.6830  138.1380 N   0  0  0  0  0  2  0  0  0  0  0  0
  181.8140  178.6980  137.0620 O   0  0  0  0  0  0  0  0  0  0  0  0
  181.5010  177.8550  137.9470 C   0  0  0  0  0  0  0  0  0  0  0  0
  180.6760  179.2780  142.1410 O   0  0  0  0  0  1  0  0  0  0  0  0
  179.7830  177.4270  140.9830 C   0  0  0  0  0  0  0  0  0  0  0  0
  179.8250  178.8990  141.0970 C   0  0  2  0  0  3  0  0  0  0  0  0
  180.2980  178.0820  138.8160 C   0  0  2  0  0  3  0  0  0  0  0  0
  179.4960  176.6610  141.9390 O   0  0  0  0  0  0  0  0  0  0  0  0
  181.6690  179.8400  139.8290 O   0  0  0  0  0  1  0  0  0  0  0  0
  180.3650  179.3380  139.7230 C   0  0  2  0  0  3  0  0  0  0  0  0
  180.0740  176.9440  139.6890 N   0  0  0  0  0  2  0  0  0  0  0  0
  183.2180  176.5840  135.8600 C   0  0  0  0  0  2  0  0  0  0  0  0
  183.1820  174.1910  135.7860 O   0  0  0  0  0  1  0  0  0  0  0  0
  182.5920  175.3330  135.2480 C   0  0  0  0  0  2  0  0  0  0  0  0
  189.6810  174.4650  137.0520 C   0  0  0  0  0  2  0  0  0  0  0  0
  190.5840  173.5670  136.2750 C   0  0  0  0  0  0  0  0  0  0  0  0
  191.9720  173.6900  136.3700 C   0  0  0  0  0  3  0  0  0  0  0  0
  192.2150  171.8660  134.8180 C   0  0  0  0  0  3  0  0  0  0  0  0
  190.8610  171.7670  134.7340 N   0  0  0  0  0  0  0  0  0  0  0  0
  192.8110  172.8360  135.6410 C   0  0  0  0  0  0  0  0  0  0  0  0
  190.0420  172.5900  135.4410 C   0  0  0  0  0  3  0  0  0  0  0  0
  197.6090  176.0400  136.1490 O   0  0  0  0  0  1  0  0  0  0  0  0
  194.8660  174.0770  136.3770 C   0  0  0  0  0  3  0  0  0  0  0  0
  198.2940  173.7790  136.3180 C   0  0  0  0  0  2  0  0  0  0  0  0
  196.2450  174.0910  136.4240 C   0  0  0  0  0  0  0  0  0  0  0  0
  195.1180  171.8880  135.2270 C   0  0  0  0  0  3  0  0  0  0  0  0
  196.5340  171.9250  135.2910 C   0  0  0  0  0  3  0  0  0  0  0  0
  197.5590  174.9930  138.2160 O   0  0  0  0  0  1  0  0  0  0  0  0
  197.0540  173.0510  135.8980 C   0  0  0  0  0  0  0  0  0  0  0  0
  194.2860  172.9370  135.7500 C   0  0  0  0  0  0  0  0  0  0  0  0
  197.4580  174.8350  136.8360 C   0  0  0  0  0  0  0  0  0  0  0  0
  192.0090  177.6490  140.0990 C   0  0  0  0  0  2  0  0  0  0  0  0
  192.3170  177.5230  141.5840 C   0  0  0  0  0  2  0  0  0  0  0  0
  191.1660  177.6740  143.7520 C   0  0  0  0  0  3  0  0  0  0  0  0
  191.0880  177.6870  142.4200 C   0  0  0  0  0  3  0  0  0  0  0  0
  189.9350  177.7740  144.5930 C   0  0  0  0  0  2  0  0  0  0  0  0
  188.6830  177.8570  143.7350 C   0  0  0  0  0  2  0  0  0  0  0  0
  187.7370  176.7170  144.0910 C   0  0  0  0  0  2  0  0  0  0  0  0
  186.3840  177.2280  144.6040 C   0  0  1  0  0  3  0  0  0  0  0  0
  186.6110  179.2750  147.8070 C   0  0  0  0  0  2  0  0  0  0  0  0
  187.8200  178.3600  147.8970 C   0  0  0  0  0  2  0  0  0  0  0  0
  185.8840  178.9270  146.5200 C   0  0  2  0  0  3  0  0  0  0  0  0
  187.5020  177.1550  147.0380 C   0  0  0  0  0  2  0  0  0  0  0  0
  185.1400  177.7360  146.7050 O   0  0  0  0  0  0  0  0  0  0  0  0
  186.4020  177.6090  146.1000 C   0  0  2  0  0  0  0  0  0  0  0  0
  184.3060  178.3020  143.5860 C   0  0  0  0  0  1  0  0  0  0  0  0
  185.8260  178.3520  143.7090 C   0  0  2  0  0  3  0  0  0  0  0  0
  186.4070  178.3200  142.4370 O   0  0  0  0  0  0  0  0  0  0  0  0
  185.8160  179.3880  141.7510 C   0  0  0  0  0  2  0  0  0  0  0  0
  185.6600  179.0480  140.4090 O   0  0  0  0  0  1  0  0  0  0  0  0
  1  3  1  0  0  0  0
  2  1  2  0  0  0  0
  3 46  1  6  0  0  0
  4 29  1  1  0  0  0
  4  2  1  0  0  0  0
  4  5  1  0  0  0  0
  5  3  1  0  0  0  0
  6  9  2  0  0  0  0
  6 12  1  0  0  0  0
  7  8  1  0  0  0  0
  7 13  1  1  0  0  0
  8 12  1  0  0  0  0
  8 10  2  0  0  0  0
 11  7  1  0  0  0  0
 11  6  1  0  0  0  0
 12  2  1  0  0  0  0
 14 26  1  6  0  0  0
 14 13  1  0  0  0  0
 14 15  1  0  0  0  0
 16 17  2  0  0  0  0
 17 15  1  0  0  0  0
 19 20  1  0  0  0  0
 19 22  2  0  0  0  0
 20 18  1  1  0  0  0
 21 17  1  1  0  0  0
 21 25  1  0  0  0  0
 21 24  1  0  0  0  0
 24 23  1  1  0  0  0
 24 20  1  0  0  0  0
 25 19  1  0  0  0  0
 28 27  1  0  0  0  0
 28 26  1  0  0  0  0
 30 31  1  0  0  0  0
 30 29  1  0  0  0  0
 32 34  1  0  0  0  0
 33 32  2  0  0  0  0
 33 35  1  0  0  0  0
 34 44  1  0  0  0  0
 34 31  2  0  0  0  0
 35 30  2  0  0  0  0
 36 45  1  0  0  0  0
 37 39  1  0  0  0  0
 38 45  1  0  0  0  0
 39 45  1  0  0  0  0
 40 41  2  0  0  0  0
 40 44  1  0  0  0  0
 41 43  1  0  0  0  0
 43 38  1  0  0  0  0
 43 39  2  0  0  0  0
 44 37  2  0  0  0  0
 45 42  1  0  0  0  0
 46 47  1  0  0  0  0
 47 49  1  0  0  0  0
 48 50  1  0  0  0  0
 49 48  2  0  0  0  0
 51 52  1  0  0  0  0
 51 50  1  0  0  0  0
 53 52  1  6  0  0  0
 54 55  1  0  0  0  0
 56 58  1  0  0  0  0
 56 54  1  1  0  0  0
 57 55  1  0  0  0  0
 59 53  1  6  0  0  0
 59 56  1  0  0  0  0
 59 58  1  0  0  0  0
 59 57  1  0  0  0  0
 61 60  1  6  0  0  0
 61 53  1  0  0  0  0
 62 61  1  0  0  0  0
 63 62  1  0  0  0  0
 64 63  1  0  0  0  0
M  END
>  <MODEL>
9

>  <REMARK>
 VINA RESULT:      -6.4      2.875      6.535
  Name = 
  21 active torsions:
  status: ('A' for Active; 'I' for Inactive)
    1  A    between atoms: C_1  and  O_17
    2  A    between atoms: C_7  and  C_15
    3  A    between atoms: C_7  and  C_39
    4  A    between atoms: C_9  and  C_12
    5  A    between atoms: C_9  and  C_28
    6  A    between atoms: O_17  and  C_29
    7  A    between atoms: C_19  and  N_61
    8  A    between atoms: C_25  and  C_44
    9  A    between atoms: N_27  and  C_28
   10  A    between atoms: C_28  and  C_54
   11  A    between atoms: C_29  and  C_63
   12  A    between atoms: C_31  and  C_48
   13  A    between atoms: C_32  and  C_62
   14  A    between atoms: C_35  and  C_48
   15  A    between atoms: C_35  and  C_60
   16  A    between atoms: C_40  and  C_52
   17  A    between atoms: C_41  and  C_56
   18  A    between atoms: C_44  and  C_52
   19  A    between atoms: C_53  and  C_63
   20  A    between atoms: C_54  and  C_57
   21  A    between atoms: C_60  and  C_63
                            x       y       z     vdW  Elec       q    Type
                         _______ _______ _______ _____ _____    ______ ____

>  <TORSDO>
F 21

$$$$
