=
 OpenBabel10222419013D

 38 40  0  0  1  0  0  0  0  0999 V2000
  189.5040  176.9090  141.4320 N   0  0  0  0  0  0  0  0  0  0  0  0
  188.7230  177.8590  140.8800 C   0  0  0  0  0  3  0  0  0  0  0  0
  190.1830  177.1680  139.4190 C   0  0  0  0  0  0  0  0  0  0  0  0
  190.3820  176.4670  140.5490 N   0  0  0  0  0  0  0  0  0  0  0  0
  189.1350  178.0580  139.5720 C   0  0  0  0  0  3  0  0  0  0  0  0
  188.0780  176.8930  144.8970 C   0  0  1  0  0  3  0  0  0  0  0  0
  190.2910  177.9890  144.2840 C   0  0  0  0  0  2  0  0  0  0  0  0
  190.4840  176.6880  143.6410 N   0  0  0  0  0  2  0  0  0  0  0  0
  189.3340  176.3580  142.7770 C   0  0  1  0  0  3  0  0  0  0  0  0
  187.9760  176.7730  143.3780 C   0  0  0  0  0  2  0  0  0  0  0  0
  189.1280  177.9360  145.2830 C   0  0  0  0  0  2  0  0  0  0  0  0
  186.7360  177.2670  145.4970 C   0  0  0  0  0  2  0  0  0  0  0  0
  186.2810  178.6170  144.9670 C   0  0  0  0  0  2  0  0  0  0  0  0
  184.7950  178.6010  144.6370 C   0  0  0  0  0  2  0  0  0  0  0  0
  185.1490  178.9010  141.2550 C   0  0  0  0  0  3  0  0  0  0  0  0
  181.9590  178.8300  143.2300 C   0  0  0  0  0  1  0  0  0  0  0  0
  183.3420  178.9340  142.6720 C   0  0  0  0  0  0  0  0  0  0  0  0
  184.4870  179.4870  143.4340 C   0  0  2  0  0  3  0  0  0  0  0  0
  183.7120  178.5970  141.4520 C   0  0  0  0  0  0  0  0  0  0  0  0
  185.6260  179.4890  142.5110 N   0  0  0  0  0  0  0  0  0  0  0  0
  182.1360  178.7490  139.6890 O   0  0  0  0  0  0  0  0  0  0  0  0
  182.8600  178.0040  140.4030 C   0  0  0  0  0  0  0  0  0  0  0  0
  182.8440  176.6330  140.1830 O   0  0  0  0  0  1  0  0  0  0  0  0
  190.9280  176.9390  138.1380 C   0  0  1  0  0  3  0  0  0  0  0  0
  193.3470  176.8810  138.0340 O   0  0  0  0  0  1  0  0  0  0  0  0
  192.2100  176.1200  138.3160 C   0  0  0  0  0  2  0  0  0  0  0  0
  190.7150  176.4210  135.7970 O   0  0  0  0  0  1  0  0  0  0  0  0
  190.0130  176.4640  137.0030 C   0  0  1  0  0  3  0  0  0  0  0  0
  189.3570  175.1180  137.2800 C   0  0  0  0  0  2  0  0  0  0  0  0
  188.4520  174.8100  136.2600 O   0  0  0  0  0  0  0  0  0  0  0  0
  187.1910  174.8610  136.8650 C   0  0  2  0  0  3  0  0  0  0  0  0
  185.4390  173.4980  137.7400 O   0  0  0  0  0  1  0  0  0  0  0  0
  186.7060  173.4510  137.1600 C   0  0  0  0  0  2  0  0  0  0  0  0
  186.2120  175.5630  135.9330 C   0  0  0  0  0  2  0  0  0  0  0  0
  185.5700  176.7760  136.5980 C   0  0  0  0  0  2  0  0  0  0  0  0
  186.6240  177.7660  137.0640 C   0  0  2  0  0  3  0  0  0  0  0  0
  186.0540  178.6770  137.9560 O   0  0  0  0  0  1  0  0  0  0  0  0
  187.1520  178.4850  135.9200 N   0  0  0  0  0  1  0  0  0  0  0  0
  2  1  1  0  0  0  0
  3  5  1  0  0  0  0
  3  4  2  0  0  0  0
  4  1  1  0  0  0  0
  5  2  2  0  0  0  0
  6 11  1  0  0  0  0
  6 12  1  6  0  0  0
  7 11  1  0  0  0  0
  8  7  1  0  0  0  0
  9  1  1  6  0  0  0
  9 10  1  0  0  0  0
  9  8  1  0  0  0  0
 10  6  1  0  0  0  0
 13 12  1  0  0  0  0
 14 13  1  0  0  0  0
 15 19  1  0  0  0  0
 15 20  2  0  0  0  0
 17 16  1  0  0  0  0
 17 18  1  0  0  0  0
 18 14  1  1  0  0  0
 19 17  2  0  0  0  0
 20 18  1  0  0  0  0
 21 22  2  0  0  0  0
 22 19  1  0  0  0  0
 23 22  1  0  0  0  0
 24 26  1  1  0  0  0
 24  3  1  0  0  0  0
 25 26  1  0  0  0  0
 28 27  1  6  0  0  0
 28 29  1  0  0  0  0
 28 24  1  0  0  0  0
 30 31  1  0  0  0  0
 30 29  1  0  0  0  0
 31 34  1  6  0  0  0
 31 33  1  0  0  0  0
 33 32  1  0  0  0  0
 34 35  1  0  0  0  0
 35 36  1  0  0  0  0
 36 38  1  6  0  0  0
 36 37  1  0  0  0  0
M  END
>  <MODEL>
1

>  <REMARK>
 VINA RESULT:      -6.9      0.000      0.000
  Name = 
  16 active torsions:
  status: ('A' for Active; 'I' for Inactive)
    1  A    between atoms: C_1  and  C_35
    2  A    between atoms: N_3  and  C_22
    3  A    between atoms: C_8  and  C_29
    4  A    between atoms: C_8  and  C_31
    5  A    between atoms: C_8  and  O_37
    6  A    between atoms: C_10  and  C_21
    7  A    between atoms: C_10  and  C_35
    8  A    between atoms: C_12  and  C_21
    9  A    between atoms: C_13  and  C_32
   10  A    between atoms: C_14  and  C_16
   11  A    between atoms: C_15  and  C_20
   12  A    between atoms: C_17  and  C_30
   13  A    between atoms: C_17  and  O_37
   14  A    between atoms: C_20  and  C_30
   15  A    between atoms: C_20  and  C_38
   16  A    between atoms: C_31  and  C_32
                            x       y       z     vdW  Elec       q    Type
                         _______ _______ _______ _____ _____    ______ ____

>  <TORSDO>
F 16

$$$$
=
 OpenBabel10222419013D

 38 40  0  0  1  0  0  0  0  0999 V2000
  190.6960  176.6260  141.9480 N   0  0  0  0  0  0  0  0  0  0  0  0
  191.8870  177.1790  141.6390 C   0  0  0  0  0  3  0  0  0  0  0  0
  190.6410  177.0680  139.8550 C   0  0  0  0  0  0  0  0  0  0  0  0
  189.9240  176.5720  140.8780 N   0  0  0  0  0  0  0  0  0  0  0  0
  191.8910  177.4770  140.2850 C   0  0  0  0  0  3  0  0  0  0  0  0
  188.6350  177.0230  145.0510 C   0  0  1  0  0  3  0  0  0  0  0  0
  190.9290  178.0760  144.7340 C   0  0  0  0  0  2  0  0  0  0  0  0
  191.2350  176.7090  144.3120 N   0  0  0  0  0  2  0  0  0  0  0  0
  190.2710  176.2480  143.2960 C   0  0  1  0  0  3  0  0  0  0  0  0
  188.8240  176.7090  143.5700 C   0  0  0  0  0  2  0  0  0  0  0  0
  189.5970  178.1280  145.4920 C   0  0  0  0  0  2  0  0  0  0  0  0
  187.2050  177.4440  145.3330 C   0  0  0  0  0  2  0  0  0  0  0  0
  186.4790  177.7450  144.0310 C   0  0  0  0  0  2  0  0  0  0  0  0
  185.0520  178.2010  144.2960 C   0  0  0  0  0  2  0  0  0  0  0  0
  184.6830  178.8790  140.9710 C   0  0  0  0  0  3  0  0  0  0  0  0
  182.0380  178.9450  143.6310 C   0  0  0  0  0  1  0  0  0  0  0  0
  183.2620  178.9510  142.7740 C   0  0  0  0  0  0  0  0  0  0  0  0
  184.6160  179.2630  143.2900 C   0  0  2  0  0  3  0  0  0  0  0  0
  183.2970  178.7280  141.4740 C   0  0  0  0  0  0  0  0  0  0  0  0
  185.5080  179.2440  142.1270 N   0  0  0  0  0  0  0  0  0  0  0  0
  181.9110  177.1670  140.3540 O   0  0  0  0  0  1  0  0  0  0  0  0
  182.1560  178.3770  140.6070 C   0  0  0  0  0  0  0  0  0  0  0  0
  181.3400  179.3600  140.0650 O   0  0  0  0  0  0  0  0  0  0  0  0
  190.1180  177.2490  138.4620 C   0  0  1  0  0  3  0  0  0  0  0  0
  190.9400  174.9860  138.1970 O   0  0  0  0  0  1  0  0  0  0  0  0
  190.0960  175.9540  137.6450 C   0  0  0  0  0  2  0  0  0  0  0  0
  189.0820  179.4030  138.1800 O   0  0  0  0  0  1  0  0  0  0  0  0
  188.8140  178.0560  138.4240 C   0  0  1  0  0  3  0  0  0  0  0  0
  187.8070  177.5260  137.4110 C   0  0  0  0  0  2  0  0  0  0  0  0
  186.5640  177.3460  138.0240 O   0  0  0  0  0  0  0  0  0  0  0  0
  185.6280  177.4700  136.9910 C   0  0  2  0  0  3  0  0  0  0  0  0
  183.3370  178.0120  137.3770 O   0  0  0  0  0  1  0  0  0  0  0  0
  184.2710  176.9810  137.4670 C   0  0  0  0  0  2  0  0  0  0  0  0
  186.0870  176.6470  135.7930 C   0  0  0  0  0  2  0  0  0  0  0  0
  185.4870  175.2460  135.8090 C   0  0  0  0  0  2  0  0  0  0  0  0
  186.5710  174.1870  135.9270 C   0  0  2  0  0  3  0  0  0  0  0  0
  186.9110  174.0080  137.2690 O   0  0  0  0  0  1  0  0  0  0  0  0
  187.7460  174.6140  135.1900 N   0  0  0  0  0  1  0  0  0  0  0  0
  2  1  1  0  0  0  0
  3  5  1  0  0  0  0
  3  4  2  0  0  0  0
  4  1  1  0  0  0  0
  5  2  2  0  0  0  0
  6 12  1  6  0  0  0
  6 11  1  0  0  0  0
  7 11  1  0  0  0  0
  8  7  1  0  0  0  0
  9  1  1  6  0  0  0
  9 10  1  0  0  0  0
  9  8  1  0  0  0  0
 10  6  1  0  0  0  0
 13 14  1  0  0  0  0
 13 12  1  0  0  0  0
 15 19  1  0  0  0  0
 15 20  2  0  0  0  0
 17 18  1  0  0  0  0
 17 16  1  0  0  0  0
 18 14  1  1  0  0  0
 19 17  2  0  0  0  0
 20 18  1  0  0  0  0
 21 22  1  0  0  0  0
 22 19  1  0  0  0  0
 23 22  2  0  0  0  0
 24 26  1  1  0  0  0
 24  3  1  0  0  0  0
 26 25  1  0  0  0  0
 28 27  1  6  0  0  0
 28 24  1  0  0  0  0
 29 30  1  0  0  0  0
 29 28  1  0  0  0  0
 31 34  1  6  0  0  0
 31 33  1  0  0  0  0
 31 30  1  0  0  0  0
 32 33  1  0  0  0  0
 34 35  1  0  0  0  0
 35 36  1  0  0  0  0
 36 38  1  6  0  0  0
 36 37  1  0  0  0  0
M  END
>  <MODEL>
2

>  <REMARK>
 VINA RESULT:      -6.8      1.461      2.365
  Name = 
  16 active torsions:
  status: ('A' for Active; 'I' for Inactive)
    1  A    between atoms: C_1  and  C_35
    2  A    between atoms: N_3  and  C_22
    3  A    between atoms: C_8  and  C_29
    4  A    between atoms: C_8  and  C_31
    5  A    between atoms: C_8  and  O_37
    6  A    between atoms: C_10  and  C_21
    7  A    between atoms: C_10  and  C_35
    8  A    between atoms: C_12  and  C_21
    9  A    between atoms: C_13  and  C_32
   10  A    between atoms: C_14  and  C_16
   11  A    between atoms: C_15  and  C_20
   12  A    between atoms: C_17  and  C_30
   13  A    between atoms: C_17  and  O_37
   14  A    between atoms: C_20  and  C_30
   15  A    between atoms: C_20  and  C_38
   16  A    between atoms: C_31  and  C_32
                            x       y       z     vdW  Elec       q    Type
                         _______ _______ _______ _____ _____    ______ ____

>  <TORSDO>
F 16

$$$$
=
 OpenBabel10222419013D

 38 40  0  0  1  0  0  0  0  0999 V2000
  183.5220  179.0570  143.0470 N   0  0  0  0  0  0  0  0  0  0  0  0
  182.5100  179.1560  143.9320 C   0  0  0  0  0  3  0  0  0  0  0  0
  181.7280  178.5840  141.9810 C   0  0  0  0  0  0  0  0  0  0  0  0
  183.0620  178.6900  141.8640 N   0  0  0  0  0  0  0  0  0  0  0  0
  181.3260  178.8600  143.2760 C   0  0  0  0  0  3  0  0  0  0  0  0
  186.9650  177.7640  143.7630 C   0  0  1  0  0  3  0  0  0  0  0  0
  185.2300  178.2350  145.5620 C   0  0  0  0  0  2  0  0  0  0  0  0
  185.1350  179.4860  144.8080 N   0  0  0  0  0  2  0  0  0  0  0  0
  184.9400  179.2150  143.3710 C   0  0  1  0  0  3  0  0  0  0  0  0
  185.7630  178.0160  142.8570 C   0  0  0  0  0  2  0  0  0  0  0  0
  186.5060  177.4700  145.1920 C   0  0  0  0  0  2  0  0  0  0  0  0
  187.7980  176.6080  143.2420 C   0  0  0  0  0  2  0  0  0  0  0  0
  188.7610  177.0940  142.1710 C   0  0  0  0  0  2  0  0  0  0  0  0
  190.0640  176.3080  142.2140 C   0  0  0  0  0  2  0  0  0  0  0  0
  190.6060  178.4360  144.8280 C   0  0  0  0  0  3  0  0  0  0  0  0
  192.0160  174.9930  144.3440 C   0  0  0  0  0  1  0  0  0  0  0  0
  191.4210  176.3620  144.2720 C   0  0  0  0  0  0  0  0  0  0  0  0
  191.1370  177.0600  142.9960 C   0  0  2  0  0  3  0  0  0  0  0  0
  191.1170  177.1290  145.3020 C   0  0  0  0  0  0  0  0  0  0  0  0
  190.6460  178.3920  143.3620 N   0  0  0  0  0  0  0  0  0  0  0  0
  190.2850  176.9890  147.5160 O   0  0  0  0  0  1  0  0  0  0  0  0
  191.2490  176.7820  146.7300 C   0  0  0  0  0  0  0  0  0  0  0  0
  192.4200  176.2250  147.2270 O   0  0  0  0  0  0  0  0  0  0  0  0
  180.8150  178.1270  140.8840 C   0  0  1  0  0  3  0  0  0  0  0  0
  179.2890  176.3690  141.5570 O   0  0  0  0  0  1  0  0  0  0  0  0
  179.4140  177.7490  141.3740 C   0  0  0  0  0  2  0  0  0  0  0  0
  180.7240  180.3910  140.0740 O   0  0  0  0  0  1  0  0  0  0  0  0
  180.8410  179.0610  139.6680 C   0  0  1  0  0  3  0  0  0  0  0  0
  182.0770  178.8820  138.7970 C   0  0  0  0  0  2  0  0  0  0  0  0
  182.3550  177.5210  138.6370 O   0  0  0  0  0  0  0  0  0  0  0  0
  183.3790  177.4690  137.6850 C   0  0  2  0  0  3  0  0  0  0  0  0
  183.3530  175.1720  138.3300 O   0  0  0  0  0  1  0  0  0  0  0  0
  183.6130  176.0280  137.2610 C   0  0  0  0  0  2  0  0  0  0  0  0
  184.6550  178.0480  138.2840 C   0  0  0  0  0  2  0  0  0  0  0  0
  185.8980  177.5510  137.5540 C   0  0  0  0  0  2  0  0  0  0  0  0
  187.1650  177.9860  138.2710 C   0  0  2  0  0  3  0  0  0  0  0  0
  186.8360  178.5960  139.4830 O   0  0  0  0  0  1  0  0  0  0  0  0
  187.8900  178.9310  137.4420 N   0  0  0  0  0  1  0  0  0  0  0  0
  1  9  1  0  0  0  0
  1  2  1  0  0  0  0
  3  5  1  0  0  0  0
  4  3  2  0  0  0  0
  4  1  1  0  0  0  0
  5  2  2  0  0  0  0
  6 12  1  6  0  0  0
  6 11  1  0  0  0  0
  8  7  1  0  0  0  0
  9 10  1  1  0  0  0
  9  8  1  0  0  0  0
 10  6  1  0  0  0  0
 11  7  1  0  0  0  0
 13 14  1  0  0  0  0
 13 12  1  0  0  0  0
 15 19  1  0  0  0  0
 17 16  1  0  0  0  0
 17 19  2  0  0  0  0
 18 14  1  1  0  0  0
 18 20  1  0  0  0  0
 18 17  1  0  0  0  0
 19 22  1  0  0  0  0
 20 15  2  0  0  0  0
 22 23  2  0  0  0  0
 22 21  1  0  0  0  0
 24 26  1  1  0  0  0
 24  3  1  0  0  0  0
 26 25  1  0  0  0  0
 28 27  1  1  0  0  0
 28 24  1  0  0  0  0
 29 28  1  0  0  0  0
 30 29  1  0  0  0  0
 31 33  1  1  0  0  0
 31 34  1  0  0  0  0
 31 30  1  0  0  0  0
 33 32  1  0  0  0  0
 35 36  1  0  0  0  0
 35 34  1  0  0  0  0
 36 38  1  6  0  0  0
 36 37  1  0  0  0  0
M  END
>  <MODEL>
3

>  <REMARK>
 VINA RESULT:      -6.8      2.933      7.550
  Name = 
  16 active torsions:
  status: ('A' for Active; 'I' for Inactive)
    1  A    between atoms: C_1  and  C_35
    2  A    between atoms: N_3  and  C_22
    3  A    between atoms: C_8  and  C_29
    4  A    between atoms: C_8  and  C_31
    5  A    between atoms: C_8  and  O_37
    6  A    between atoms: C_10  and  C_21
    7  A    between atoms: C_10  and  C_35
    8  A    between atoms: C_12  and  C_21
    9  A    between atoms: C_13  and  C_32
   10  A    between atoms: C_14  and  C_16
   11  A    between atoms: C_15  and  C_20
   12  A    between atoms: C_17  and  C_30
   13  A    between atoms: C_17  and  O_37
   14  A    between atoms: C_20  and  C_30
   15  A    between atoms: C_20  and  C_38
   16  A    between atoms: C_31  and  C_32
                            x       y       z     vdW  Elec       q    Type
                         _______ _______ _______ _____ _____    ______ ____

>  <TORSDO>
F 16

$$$$
=
 OpenBabel10222419013D

 38 40  0  0  1  0  0  0  0  0999 V2000
  182.7890  178.3740  142.2460 N   0  0  0  0  0  0  0  0  0  0  0  0
  182.1220  178.9990  143.2380 C   0  0  0  0  0  3  0  0  0  0  0  0
  184.1870  178.6580  143.8420 C   0  0  0  0  0  0  0  0  0  0  0  0
  184.0490  178.1800  142.5930 N   0  0  0  0  0  0  0  0  0  0  0  0
  182.9970  179.1980  144.2950 C   0  0  0  0  0  3  0  0  0  0  0  0
  183.0200  177.8920  138.5380 C   0  0  1  0  0  3  0  0  0  0  0  0
  182.4010  180.1000  139.6410 C   0  0  0  0  0  2  0  0  0  0  0  0
  181.4980  179.2090  140.3700 N   0  0  0  0  0  2  0  0  0  0  0  0
  182.2360  178.0610  140.9290 C   0  0  1  0  0  3  0  0  0  0  0  0
  183.3270  177.5160  139.9850 C   0  0  0  0  0  2  0  0  0  0  0  0
  182.9480  179.4130  138.3840 C   0  0  0  0  0  2  0  0  0  0  0  0
  184.0720  177.3300  137.6010 C   0  0  0  0  0  2  0  0  0  0  0  0
  185.3050  178.2180  137.6010 C   0  0  0  0  0  2  0  0  0  0  0  0
  186.5770  177.3840  137.5540 C   0  0  0  0  0  2  0  0  0  0  0  0
  189.0070  177.8610  139.9050 C   0  0  0  0  0  3  0  0  0  0  0  0
  189.4610  177.0420  136.2720 C   0  0  0  0  0  1  0  0  0  0  0  0
  189.0410  177.4590  137.6440 C   0  0  0  0  0  0  0  0  0  0  0  0
  187.8000  178.2210  137.9190 C   0  0  2  0  0  3  0  0  0  0  0  0
  189.7170  177.2490  138.7570 C   0  0  0  0  0  0  0  0  0  0  0  0
  187.8040  178.4980  139.3590 N   0  0  0  0  0  0  0  0  0  0  0  0
  191.9780  177.0790  139.4440 O   0  0  0  0  0  1  0  0  0  0  0  0
  190.9920  176.5200  138.8920 C   0  0  0  0  0  0  0  0  0  0  0  0
  191.1280  175.2200  138.4230 O   0  0  0  0  0  0  0  0  0  0  0  0
  185.4810  178.6940  144.5970 C   0  0  1  0  0  3  0  0  0  0  0  0
  185.6640  179.7520  146.7680 O   0  0  0  0  0  1  0  0  0  0  0  0
  185.3070  178.5710  146.1140 C   0  0  0  0  0  2  0  0  0  0  0  0
  186.8480  178.1570  142.6900 O   0  0  0  0  0  1  0  0  0  0  0  0
  186.5410  177.7650  143.9940 C   0  0  1  0  0  3  0  0  0  0  0  0
  187.8110  177.6750  144.8300 C   0  0  0  0  0  2  0  0  0  0  0  0
  188.6780  176.7270  144.2800 O   0  0  0  0  0  0  0  0  0  0  0  0
  189.8270  177.4450  143.9310 C   0  0  2  0  0  3  0  0  0  0  0  0
  190.1680  175.3430  142.8560 O   0  0  0  0  0  1  0  0  0  0  0  0
  190.6430  176.6510  142.9240 C   0  0  0  0  0  2  0  0  0  0  0  0
  190.6580  177.7060  145.1820 C   0  0  0  0  0  2  0  0  0  0  0  0
  191.3930  176.4530  145.6430 C   0  0  0  0  0  2  0  0  0  0  0  0
  191.1690  176.2020  147.1260 C   0  0  2  0  0  3  0  0  0  0  0  0
  190.2900  177.1570  147.6390 O   0  0  0  0  0  1  0  0  0  0  0  0
  192.4360  176.2910  147.8280 N   0  0  0  0  0  1  0  0  0  0  0  0
  1  4  1  0  0  0  0
  1  2  1  0  0  0  0
  2  5  2  0  0  0  0
  3  5  1  0  0  0  0
  3 24  1  0  0  0  0
  4  3  2  0  0  0  0
  6 12  1  6  0  0  0
  6 10  1  0  0  0  0
  7  8  1  0  0  0  0
  8  9  1  0  0  0  0
  9 10  1  6  0  0  0
  9  1  1  0  0  0  0
 11  6  1  0  0  0  0
 11  7  1  0  0  0  0
 13 12  1  0  0  0  0
 14 13  1  0  0  0  0
 16 17  1  0  0  0  0
 17 18  1  0  0  0  0
 17 19  2  0  0  0  0
 18 14  1  1  0  0  0
 18 20  1  0  0  0  0
 19 22  1  0  0  0  0
 19 15  1  0  0  0  0
 20 15  2  0  0  0  0
 22 21  1  0  0  0  0
 23 22  2  0  0  0  0
 24 26  1  1  0  0  0
 26 25  1  0  0  0  0
 28 27  1  6  0  0  0
 28 24  1  0  0  0  0
 28 29  1  0  0  0  0
 30 29  1  0  0  0  0
 31 33  1  6  0  0  0
 31 30  1  0  0  0  0
 31 34  1  0  0  0  0
 32 33  1  0  0  0  0
 34 35  1  0  0  0  0
 35 36  1  0  0  0  0
 36 37  1  1  0  0  0
 36 38  1  0  0  0  0
M  END
>  <MODEL>
4

>  <REMARK>
 VINA RESULT:      -6.7      3.278      8.610
  Name = 
  16 active torsions:
  status: ('A' for Active; 'I' for Inactive)
    1  A    between atoms: C_1  and  C_35
    2  A    between atoms: N_3  and  C_22
    3  A    between atoms: C_8  and  C_29
    4  A    between atoms: C_8  and  C_31
    5  A    between atoms: C_8  and  O_37
    6  A    between atoms: C_10  and  C_21
    7  A    between atoms: C_10  and  C_35
    8  A    between atoms: C_12  and  C_21
    9  A    between atoms: C_13  and  C_32
   10  A    between atoms: C_14  and  C_16
   11  A    between atoms: C_15  and  C_20
   12  A    between atoms: C_17  and  C_30
   13  A    between atoms: C_17  and  O_37
   14  A    between atoms: C_20  and  C_30
   15  A    between atoms: C_20  and  C_38
   16  A    between atoms: C_31  and  C_32
                            x       y       z     vdW  Elec       q    Type
                         _______ _______ _______ _____ _____    ______ ____

>  <TORSDO>
F 16

$$$$
=
 OpenBabel10222419013D

 38 40  0  0  1  0  0  0  0  0999 V2000
  182.1420  178.3400  141.7360 N   0  0  0  0  0  0  0  0  0  0  0  0
  181.6480  178.9860  142.8110 C   0  0  0  0  0  3  0  0  0  0  0  0
  183.7960  178.7100  143.0430 C   0  0  0  0  0  0  0  0  0  0  0  0
  183.4490  178.1840  141.8560 N   0  0  0  0  0  0  0  0  0  0  0  0
  182.6920  179.2420  143.6850 C   0  0  0  0  0  3  0  0  0  0  0  0
  181.7800  177.3590  138.1380 C   0  0  1  0  0  3  0  0  0  0  0  0
  181.6850  179.7640  138.9650 C   0  0  0  0  0  2  0  0  0  0  0  0
  180.7580  179.1490  139.9160 N   0  0  0  0  0  2  0  0  0  0  0  0
  181.3700  177.9670  140.5510 C   0  0  1  0  0  3  0  0  0  0  0  0
  182.2180  177.1200  139.5800 C   0  0  0  0  0  2  0  0  0  0  0  0
  181.9360  178.8360  137.7690 C   0  0  0  0  0  2  0  0  0  0  0  0
  182.5880  176.5030  137.1820 C   0  0  0  0  0  2  0  0  0  0  0  0
  183.0830  177.3420  136.0140 C   0  0  0  0  0  2  0  0  0  0  0  0
  184.5820  177.1680  135.8150 C   0  0  0  0  0  2  0  0  0  0  0  0
  187.5050  175.9280  137.0720 C   0  0  0  0  0  3  0  0  0  0  0  0
  185.4110  178.7140  138.4610 C   0  0  0  0  0  1  0  0  0  0  0  0
  186.0200  177.5270  137.7860 C   0  0  0  0  0  0  0  0  0  0  0  0
  185.2300  176.5220  137.0370 C   0  0  2  0  0  3  0  0  0  0  0  0
  187.2980  177.2010  137.8010 C   0  0  0  0  0  0  0  0  0  0  0  0
  186.1820  175.4920  136.6120 N   0  0  0  0  0  0  0  0  0  0  0  0
  188.9360  177.5120  139.4840 O   0  0  0  0  0  1  0  0  0  0  0  0
  188.3950  177.9560  138.4360 C   0  0  0  0  0  0  0  0  0  0  0  0
  188.8490  179.1510  137.8950 O   0  0  0  0  0  0  0  0  0  0  0  0
  185.2040  178.8010  143.5500 C   0  0  1  0  0  3  0  0  0  0  0  0
  185.3420  179.5520  145.8490 O   0  0  0  0  0  1  0  0  0  0  0  0
  185.3460  178.4220  145.0270 C   0  0  0  0  0  2  0  0  0  0  0  0
  186.6940  179.0410  141.6750 O   0  0  0  0  0  1  0  0  0  0  0  0
  186.2120  178.1260  142.6130 C   0  0  1  0  0  3  0  0  0  0  0  0
  187.3700  177.4650  143.3490 C   0  0  0  0  0  2  0  0  0  0  0  0
  188.5850  177.8750  142.7910 O   0  0  0  0  0  0  0  0  0  0  0  0
  189.4960  177.8570  143.8540 C   0  0  2  0  0  3  0  0  0  0  0  0
  190.9710  176.9110  142.2340 O   0  0  0  0  0  1  0  0  0  0  0  0
  190.5910  176.8410  143.5730 C   0  0  0  0  0  2  0  0  0  0  0  0
  188.7650  177.4900  145.1390 C   0  0  0  0  0  2  0  0  0  0  0  0
  189.7230  177.3700  146.3190 C   0  0  0  0  0  2  0  0  0  0  0  0
  188.9640  177.2000  147.6250 C   0  0  2  0  0  3  0  0  0  0  0  0
  187.5910  177.1720  147.3730 O   0  0  0  0  0  1  0  0  0  0  0  0
  189.2650  178.3120  148.5080 N   0  0  0  0  0  1  0  0  0  0  0  0
  1  4  1  0  0  0  0
  1  2  1  0  0  0  0
  2  5  2  0  0  0  0
  3 24  1  0  0  0  0
  3  5  1  0  0  0  0
  4  3  2  0  0  0  0
  6 12  1  6  0  0  0
  6 10  1  0  0  0  0
  7  8  1  0  0  0  0
  8  9  1  0  0  0  0
  9 10  1  6  0  0  0
  9  1  1  0  0  0  0
 11  6  1  0  0  0  0
 11  7  1  0  0  0  0
 13 12  1  0  0  0  0
 14 13  1  0  0  0  0
 15 19  1  0  0  0  0
 17 19  2  0  0  0  0
 17 16  1  0  0  0  0
 18 14  1  6  0  0  0
 18 17  1  0  0  0  0
 19 22  1  0  0  0  0
 20 18  1  0  0  0  0
 20 15  2  0  0  0  0
 22 21  1  0  0  0  0
 23 22  2  0  0  0  0
 24 26  1  1  0  0  0
 26 25  1  0  0  0  0
 28 27  1  6  0  0  0
 28 29  1  0  0  0  0
 28 24  1  0  0  0  0
 30 29  1  0  0  0  0
 30 31  1  0  0  0  0
 31 33  1  6  0  0  0
 31 34  1  0  0  0  0
 32 33  1  0  0  0  0
 34 35  1  0  0  0  0
 35 36  1  0  0  0  0
 36 37  1  6  0  0  0
 36 38  1  0  0  0  0
M  END
>  <MODEL>
5

>  <REMARK>
 VINA RESULT:      -6.7      3.126      8.437
  Name = 
  16 active torsions:
  status: ('A' for Active; 'I' for Inactive)
    1  A    between atoms: C_1  and  C_35
    2  A    between atoms: N_3  and  C_22
    3  A    between atoms: C_8  and  C_29
    4  A    between atoms: C_8  and  C_31
    5  A    between atoms: C_8  and  O_37
    6  A    between atoms: C_10  and  C_21
    7  A    between atoms: C_10  and  C_35
    8  A    between atoms: C_12  and  C_21
    9  A    between atoms: C_13  and  C_32
   10  A    between atoms: C_14  and  C_16
   11  A    between atoms: C_15  and  C_20
   12  A    between atoms: C_17  and  C_30
   13  A    between atoms: C_17  and  O_37
   14  A    between atoms: C_20  and  C_30
   15  A    between atoms: C_20  and  C_38
   16  A    between atoms: C_31  and  C_32
                            x       y       z     vdW  Elec       q    Type
                         _______ _______ _______ _____ _____    ______ ____

>  <TORSDO>
F 16

$$$$
=
 OpenBabel10222419013D

 38 40  0  0  1  0  0  0  0  0999 V2000
  187.7370  177.4190  146.6200 N   0  0  0  0  0  0  0  0  0  0  0  0
  188.0460  177.9090  147.8380 C   0  0  0  0  0  3  0  0  0  0  0  0
  189.8720  177.3740  146.7760 C   0  0  0  0  0  0  0  0  0  0  0  0
  188.8390  177.1100  145.9580 N   0  0  0  0  0  0  0  0  0  0  0  0
  189.4240  177.8920  147.9790 C   0  0  0  0  0  3  0  0  0  0  0  0
  185.1310  178.1860  144.0400 C   0  0  1  0  0  3  0  0  0  0  0  0
  185.5330  179.6090  146.1100 C   0  0  0  0  0  2  0  0  0  0  0  0
  185.4760  178.2880  146.7380 N   0  0  0  0  0  2  0  0  0  0  0  0
  186.3880  177.3480  146.0590 C   0  0  1  0  0  3  0  0  0  0  0  0
  186.4140  177.5190  144.5270 C   0  0  0  0  0  2  0  0  0  0  0  0
  184.9630  179.5620  144.6870 C   0  0  0  0  0  2  0  0  0  0  0  0
  185.1360  178.3250  142.5300 C   0  0  0  0  0  2  0  0  0  0  0  0
  183.7660  178.7620  142.0370 C   0  0  0  0  0  2  0  0  0  0  0  0
  183.4430  178.1270  140.6920 C   0  0  0  0  0  2  0  0  0  0  0  0
  180.4190  179.6340  141.1830 C   0  0  0  0  0  3  0  0  0  0  0  0
  181.9110  178.4910  137.9360 C   0  0  0  0  0  1  0  0  0  0  0  0
  181.4830  178.7700  139.3400 C   0  0  0  0  0  0  0  0  0  0  0  0
  181.9370  177.9710  140.5030 C   0  0  2  0  0  3  0  0  0  0  0  0
  180.6370  179.7090  139.7200 C   0  0  0  0  0  0  0  0  0  0  0  0
  181.2290  178.5110  141.6680 N   0  0  0  0  0  0  0  0  0  0  0  0
  178.9800  180.3740  138.1630 O   0  0  0  0  0  0  0  0  0  0  0  0
  179.9800  180.7070  138.8550 C   0  0  0  0  0  0  0  0  0  0  0  0
  180.4410  182.0150  138.7910 O   0  0  0  0  0  1  0  0  0  0  0  0
  191.3140  177.2250  146.3960 C   0  0  1  0  0  3  0  0  0  0  0  0
  192.6560  176.1710  148.1150 O   0  0  0  0  0  1  0  0  0  0  0  0
  191.9560  175.9400  146.9280 C   0  0  0  0  0  2  0  0  0  0  0  0
  191.7290  176.3000  144.2120 O   0  0  0  0  0  1  0  0  0  0  0  0
  191.5610  177.4990  144.9070 C   0  0  1  0  0  3  0  0  0  0  0  0
  190.4660  178.3360  144.2580 C   0  0  0  0  0  2  0  0  0  0  0  0
  190.5690  178.2600  142.8670 O   0  0  0  0  0  0  0  0  0  0  0  0
  189.3140  177.8170  142.4340 C   0  0  2  0  0  3  0  0  0  0  0  0
  188.6530  175.5840  142.9510 O   0  0  0  0  0  1  0  0  0  0  0  0
  189.3920  176.3480  142.0500 C   0  0  0  0  0  2  0  0  0  0  0  0
  188.8740  178.6450  141.2320 C   0  0  0  0  0  2  0  0  0  0  0  0
  189.2800  177.9900  139.9170 C   0  0  0  0  0  2  0  0  0  0  0  0
  188.2430  178.2440  138.8360 C   0  0  2  0  0  3  0  0  0  0  0  0
  188.6750  179.2750  137.9990 O   0  0  0  0  0  1  0  0  0  0  0  0
  186.9850  178.6240  139.4520 N   0  0  0  0  0  1  0  0  0  0  0  0
  1  2  1  0  0  0  0
  2  5  2  0  0  0  0
  3  5  1  0  0  0  0
  4  1  1  0  0  0  0
  4  3  2  0  0  0  0
  6 12  1  6  0  0  0
  6 10  1  0  0  0  0
  6 11  1  0  0  0  0
  7  8  1  0  0  0  0
  9 10  1  6  0  0  0
  9  1  1  0  0  0  0
  9  8  1  0  0  0  0
 11  7  1  0  0  0  0
 13 12  1  0  0  0  0
 14 13  1  0  0  0  0
 15 20  2  0  0  0  0
 16 17  1  0  0  0  0
 17 19  2  0  0  0  0
 17 18  1  0  0  0  0
 18 14  1  1  0  0  0
 18 20  1  0  0  0  0
 19 15  1  0  0  0  0
 21 22  2  0  0  0  0
 22 19  1  0  0  0  0
 23 22  1  0  0  0  0
 24  3  1  0  0  0  0
 24 26  1  6  0  0  0
 26 25  1  0  0  0  0
 28 27  1  6  0  0  0
 28 24  1  0  0  0  0
 29 28  1  0  0  0  0
 30 29  1  0  0  0  0
 31 34  1  6  0  0  0
 31 30  1  0  0  0  0
 33 31  1  0  0  0  0
 33 32  1  0  0  0  0
 35 34  1  0  0  0  0
 36 37  1  6  0  0  0
 36 38  1  0  0  0  0
 36 35  1  0  0  0  0
M  END
>  <MODEL>
6

>  <REMARK>
 VINA RESULT:      -6.6      3.370      5.886
  Name = 
  16 active torsions:
  status: ('A' for Active; 'I' for Inactive)
    1  A    between atoms: C_1  and  C_35
    2  A    between atoms: N_3  and  C_22
    3  A    between atoms: C_8  and  C_29
    4  A    between atoms: C_8  and  C_31
    5  A    between atoms: C_8  and  O_37
    6  A    between atoms: C_10  and  C_21
    7  A    between atoms: C_10  and  C_35
    8  A    between atoms: C_12  and  C_21
    9  A    between atoms: C_13  and  C_32
   10  A    between atoms: C_14  and  C_16
   11  A    between atoms: C_15  and  C_20
   12  A    between atoms: C_17  and  C_30
   13  A    between atoms: C_17  and  O_37
   14  A    between atoms: C_20  and  C_30
   15  A    between atoms: C_20  and  C_38
   16  A    between atoms: C_31  and  C_32
                            x       y       z     vdW  Elec       q    Type
                         _______ _______ _______ _____ _____    ______ ____

>  <TORSDO>
F 16

$$$$
=
 OpenBabel10222419013D

 38 40  0  0  1  0  0  0  0  0999 V2000
  190.7780  176.5700  141.9620 N   0  0  0  0  0  0  0  0  0  0  0  0
  191.9720  177.1500  141.7280 C   0  0  0  0  0  3  0  0  0  0  0  0
  190.8260  177.0570  139.8780 C   0  0  0  0  0  0  0  0  0  0  0  0
  190.0640  176.5260  140.8500 N   0  0  0  0  0  0  0  0  0  0  0  0
  192.0440  177.4770  140.3840 C   0  0  0  0  0  3  0  0  0  0  0  0
  188.6780  176.9680  145.0390 C   0  0  1  0  0  3  0  0  0  0  0  0
  191.0600  177.8390  144.8300 C   0  0  0  0  0  2  0  0  0  0  0  0
  191.2610  176.4750  144.3370 N   0  0  0  0  0  2  0  0  0  0  0  0
  190.2870  176.1550  143.2760 C   0  0  1  0  0  3  0  0  0  0  0  0
  188.8790  176.7220  143.5460 C   0  0  0  0  0  2  0  0  0  0  0  0
  189.7180  177.9620  145.5630 C   0  0  0  0  0  2  0  0  0  0  0  0
  187.2820  177.4930  145.3150 C   0  0  0  0  0  2  0  0  0  0  0  0
  186.6290  177.9540  144.0220 C   0  0  0  0  0  2  0  0  0  0  0  0
  185.1750  178.3420  144.2540 C   0  0  0  0  0  2  0  0  0  0  0  0
  184.7790  178.8180  140.8960 C   0  0  0  0  0  3  0  0  0  0  0  0
  182.1300  178.9010  143.5530 C   0  0  0  0  0  1  0  0  0  0  0  0
  183.3540  178.9190  142.6940 C   0  0  0  0  0  0  0  0  0  0  0  0
  184.6900  179.3240  143.1910 C   0  0  2  0  0  3  0  0  0  0  0  0
  183.4020  178.6270  141.4090 C   0  0  0  0  0  0  0  0  0  0  0  0
  185.5840  179.2850  142.0300 N   0  0  0  0  0  0  0  0  0  0  0  0
  181.4000  179.0000  140.1980 O   0  0  0  0  0  1  0  0  0  0  0  0
  182.2800  178.1750  140.5640 C   0  0  0  0  0  0  0  0  0  0  0  0
  182.1770  176.8520  140.1580 O   0  0  0  0  0  0  0  0  0  0  0  0
  190.3750  177.2590  138.4630 C   0  0  1  0  0  3  0  0  0  0  0  0
  190.3630  174.8770  138.0230 O   0  0  0  0  0  1  0  0  0  0  0  0
  190.7750  176.1160  137.5260 C   0  0  0  0  0  2  0  0  0  0  0  0
  188.7130  178.9190  138.9900 O   0  0  0  0  0  1  0  0  0  0  0  0
  188.9040  177.6830  138.3700 C   0  0  1  0  0  3  0  0  0  0  0  0
  188.3770  177.7220  136.9410 C   0  0  0  0  0  2  0  0  0  0  0  0
  187.0030  177.4680  136.9330 O   0  0  0  0  0  0  0  0  0  0  0  0
  186.8920  176.0730  136.9440 C   0  0  2  0  0  3  0  0  0  0  0  0
  187.1480  174.1700  135.5280 O   0  0  0  0  0  1  0  0  0  0  0  0
  187.5410  175.4970  135.6970 C   0  0  0  0  0  2  0  0  0  0  0  0
  185.4190  175.6850  136.9890 C   0  0  0  0  0  2  0  0  0  0  0  0
  184.5390  176.8540  137.4160 C   0  0  0  0  0  2  0  0  0  0  0  0
  183.2190  176.8480  136.6640 C   0  0  2  0  0  3  0  0  0  0  0  0
  183.4580  176.7720  135.2910 O   0  0  0  0  0  1  0  0  0  0  0  0
  182.4910  178.0700  136.9550 N   0  0  0  0  0  1  0  0  0  0  0  0
  2  1  1  0  0  0  0
  3  5  1  0  0  0  0
  3  4  2  0  0  0  0
  4  1  1  0  0  0  0
  5  2  2  0  0  0  0
  6 12  1  6  0  0  0
  6 11  1  0  0  0  0
  7 11  1  0  0  0  0
  8  7  1  0  0  0  0
  9  1  1  6  0  0  0
  9 10  1  0  0  0  0
  9  8  1  0  0  0  0
 10  6  1  0  0  0  0
 13 14  1  0  0  0  0
 13 12  1  0  0  0  0
 15 19  1  0  0  0  0
 15 20  2  0  0  0  0
 17 18  1  0  0  0  0
 17 16  1  0  0  0  0
 18 14  1  1  0  0  0
 19 17  2  0  0  0  0
 20 18  1  0  0  0  0
 21 22  1  0  0  0  0
 22 19  1  0  0  0  0
 23 22  2  0  0  0  0
 24 26  1  6  0  0  0
 24  3  1  0  0  0  0
 26 25  1  0  0  0  0
 28 24  1  0  0  0  0
 28 27  1  6  0  0  0
 29 28  1  0  0  0  0
 30 29  1  0  0  0  0
 30 31  1  0  0  0  0
 31 33  1  6  0  0  0
 31 34  1  0  0  0  0
 32 33  1  0  0  0  0
 34 35  1  0  0  0  0
 36 37  1  6  0  0  0
 36 38  1  0  0  0  0
 36 35  1  0  0  0  0
M  END
>  <MODEL>
7

>  <REMARK>
 VINA RESULT:      -6.6      1.665      2.089
  Name = 
  16 active torsions:
  status: ('A' for Active; 'I' for Inactive)
    1  A    between atoms: C_1  and  C_35
    2  A    between atoms: N_3  and  C_22
    3  A    between atoms: C_8  and  C_29
    4  A    between atoms: C_8  and  C_31
    5  A    between atoms: C_8  and  O_37
    6  A    between atoms: C_10  and  C_21
    7  A    between atoms: C_10  and  C_35
    8  A    between atoms: C_12  and  C_21
    9  A    between atoms: C_13  and  C_32
   10  A    between atoms: C_14  and  C_16
   11  A    between atoms: C_15  and  C_20
   12  A    between atoms: C_17  and  C_30
   13  A    between atoms: C_17  and  O_37
   14  A    between atoms: C_20  and  C_30
   15  A    between atoms: C_20  and  C_38
   16  A    between atoms: C_31  and  C_32
                            x       y       z     vdW  Elec       q    Type
                         _______ _______ _______ _____ _____    ______ ____

>  <TORSDO>
F 16

$$$$
=
 OpenBabel10222419013D

 38 40  0  0  1  0  0  0  0  0999 V2000
  187.2730  178.3000  140.3980 N   0  0  0  0  0  0  0  0  0  0  0  0
  188.4890  177.7800  140.6610 C   0  0  0  0  0  3  0  0  0  0  0  0
  187.9500  177.3770  138.5890 C   0  0  0  0  0  0  0  0  0  0  0  0
  186.9430  178.0790  139.1370 N   0  0  0  0  0  0  0  0  0  0  0  0
  188.9610  177.1690  139.5100 C   0  0  0  0  0  3  0  0  0  0  0  0
  185.0000  178.7360  143.3450 C   0  0  1  0  0  3  0  0  0  0  0  0
  184.1770  178.4610  140.9530 C   0  0  0  0  0  2  0  0  0  0  0  0
  185.1900  179.4960  140.7380 N   0  0  0  0  0  2  0  0  0  0  0  0
  186.4790  179.0960  141.3340 C   0  0  1  0  0  3  0  0  0  0  0  0
  186.3300  178.3740  142.6890 C   0  0  0  0  0  2  0  0  0  0  0  0
  183.8310  178.3370  142.4420 C   0  0  0  0  0  2  0  0  0  0  0  0
  184.8640  178.0560  144.6940 C   0  0  0  0  0  2  0  0  0  0  0  0
  185.8790  178.6210  145.6730 C   0  0  0  0  0  2  0  0  0  0  0  0
  186.9310  177.5800  146.0290 C   0  0  0  0  0  2  0  0  0  0  0  0
  189.7860  177.1530  147.8530 C   0  0  0  0  0  3  0  0  0  0  0  0
  189.4960  177.8810  144.1830 C   0  0  0  0  0  1  0  0  0  0  0  0
  189.3670  177.6960  145.6610 C   0  0  0  0  0  0  0  0  0  0  0  0
  188.2400  178.2410  146.4540 C   0  0  2  0  0  3  0  0  0  0  0  0
  190.2320  177.0780  146.4420 C   0  0  0  0  0  0  0  0  0  0  0  0
  188.5320  177.9150  147.8530 N   0  0  0  0  0  0  0  0  0  0  0  0
  191.6800  176.1740  144.7990 O   0  0  0  0  0  0  0  0  0  0  0  0
  191.4740  176.4000  146.0220 C   0  0  0  0  0  0  0  0  0  0  0  0
  192.4260  176.0080  146.9530 O   0  0  0  0  0  1  0  0  0  0  0  0
  188.0120  176.9700  137.1480 C   0  0  1  0  0  3  0  0  0  0  0  0
  186.6710  176.8590  135.1340 O   0  0  0  0  0  1  0  0  0  0  0  0
  186.6350  176.7240  136.5240 C   0  0  0  0  0  2  0  0  0  0  0  0
  189.0500  179.1280  136.9100 O   0  0  0  0  0  1  0  0  0  0  0  0
  188.9420  177.8670  136.3220 C   0  0  1  0  0  3  0  0  0  0  0  0
  190.3240  177.2650  136.1050 C   0  0  0  0  0  2  0  0  0  0  0  0
  190.2260  175.8760  135.9870 O   0  0  0  0  0  0  0  0  0  0  0  0
  191.4330  175.3820  136.4940 C   0  0  2  0  0  3  0  0  0  0  0  0
  189.8660  173.9490  137.5820 O   0  0  0  0  0  1  0  0  0  0  0  0
  191.1950  174.0440  137.1750 C   0  0  0  0  0  2  0  0  0  0  0  0
  192.0050  176.3790  137.4950 C   0  0  0  0  0  2  0  0  0  0  0  0
  193.3970  175.9710  137.9650 C   0  0  0  0  0  2  0  0  0  0  0  0
  194.3040  175.6600  136.7860 C   0  0  2  0  0  3  0  0  0  0  0  0
  195.4810  175.0630  137.2410 O   0  0  0  0  0  1  0  0  0  0  0  0
  194.6310  176.8910  136.0900 N   0  0  0  0  0  1  0  0  0  0  0  0
  1  2  1  0  0  0  0
  3  4  2  0  0  0  0
  3  5  1  0  0  0  0
  4  1  1  0  0  0  0
  5  2  2  0  0  0  0
  6 12  1  1  0  0  0
  7 11  1  0  0  0  0
  8  7  1  0  0  0  0
  8  9  1  0  0  0  0
  9  1  1  6  0  0  0
  9 10  1  0  0  0  0
 10  6  1  0  0  0  0
 11  6  1  0  0  0  0
 12 13  1  0  0  0  0
 13 14  1  0  0  0  0
 15 20  2  0  0  0  0
 16 17  1  0  0  0  0
 17 19  2  0  0  0  0
 17 18  1  0  0  0  0
 18 14  1  6  0  0  0
 18 20  1  0  0  0  0
 19 15  1  0  0  0  0
 21 22  2  0  0  0  0
 22 19  1  0  0  0  0
 22 23  1  0  0  0  0
 24 26  1  6  0  0  0
 24  3  1  0  0  0  0
 25 26  1  0  0  0  0
 28 27  1  1  0  0  0
 28 24  1  0  0  0  0
 29 28  1  0  0  0  0
 30 29  1  0  0  0  0
 30 31  1  0  0  0  0
 31 33  1  1  0  0  0
 31 34  1  0  0  0  0
 33 32  1  0  0  0  0
 34 35  1  0  0  0  0
 36 38  1  1  0  0  0
 36 37  1  0  0  0  0
 36 35  1  0  0  0  0
M  END
>  <MODEL>
8

>  <REMARK>
 VINA RESULT:      -6.6      2.835      6.062
  Name = 
  16 active torsions:
  status: ('A' for Active; 'I' for Inactive)
    1  A    between atoms: C_1  and  C_35
    2  A    between atoms: N_3  and  C_22
    3  A    between atoms: C_8  and  C_29
    4  A    between atoms: C_8  and  C_31
    5  A    between atoms: C_8  and  O_37
    6  A    between atoms: C_10  and  C_21
    7  A    between atoms: C_10  and  C_35
    8  A    between atoms: C_12  and  C_21
    9  A    between atoms: C_13  and  C_32
   10  A    between atoms: C_14  and  C_16
   11  A    between atoms: C_15  and  C_20
   12  A    between atoms: C_17  and  C_30
   13  A    between atoms: C_17  and  O_37
   14  A    between atoms: C_20  and  C_30
   15  A    between atoms: C_20  and  C_38
   16  A    between atoms: C_31  and  C_32
                            x       y       z     vdW  Elec       q    Type
                         _______ _______ _______ _____ _____    ______ ____

>  <TORSDO>
F 16

$$$$
=
 OpenBabel10222419013D

 38 40  0  0  1  0  0  0  0  0999 V2000
  183.3200  179.1140  143.4840 N   0  0  0  0  0  0  0  0  0  0  0  0
  182.5050  178.8530  144.5260 C   0  0  0  0  0  3  0  0  0  0  0  0
  181.3710  178.7710  142.6670 C   0  0  0  0  0  0  0  0  0  0  0  0
  182.6470  179.0470  142.3480 N   0  0  0  0  0  0  0  0  0  0  0  0
  181.2280  178.6280  144.0360 C   0  0  0  0  0  3  0  0  0  0  0  0
  186.8770  177.9490  143.6410 C   0  0  1  0  0  3  0  0  0  0  0  0
  185.4330  178.3640  145.6950 C   0  0  0  0  0  2  0  0  0  0  0  0
  185.1740  179.6070  144.9680 N   0  0  0  0  0  2  0  0  0  0  0  0
  184.7640  179.3240  143.5790 C   0  0  1  0  0  3  0  0  0  0  0  0
  185.5380  178.1540  142.9380 C   0  0  0  0  0  2  0  0  0  0  0  0
  186.6620  177.6440  145.1250 C   0  0  0  0  0  2  0  0  0  0  0  0
  187.6580  176.8220  142.9920 C   0  0  0  0  0  2  0  0  0  0  0  0
  188.6910  177.3840  142.0290 C   0  0  0  0  0  2  0  0  0  0  0  0
  189.9920  176.5980  142.1060 C   0  0  0  0  0  2  0  0  0  0  0  0
  190.3640  178.5660  144.8710 C   0  0  0  0  0  3  0  0  0  0  0  0
  191.8220  175.1620  144.2660 C   0  0  0  0  0  1  0  0  0  0  0  0
  191.2240  176.5320  144.2420 C   0  0  0  0  0  0  0  0  0  0  0  0
  191.0120  177.3040  142.9950 C   0  0  2  0  0  3  0  0  0  0  0  0
  190.8540  177.2330  145.2960 C   0  0  0  0  0  0  0  0  0  0  0  0
  190.4910  178.6100  143.4110 N   0  0  0  0  0  0  0  0  0  0  0  0
  189.8310  176.6230  147.3430 O   0  0  0  0  0  0  0  0  0  0  0  0
  190.9040  176.8020  146.7060 C   0  0  0  0  0  0  0  0  0  0  0  0
  192.1150  176.5830  147.3460 O   0  0  0  0  0  1  0  0  0  0  0  0
  180.2780  178.5450  141.6670 C   0  0  1  0  0  3  0  0  0  0  0  0
  179.9970  180.9270  142.0020 O   0  0  0  0  0  1  0  0  0  0  0  0
  179.4870  179.8130  141.3300 C   0  0  0  0  0  2  0  0  0  0  0  0
  180.0620  176.5260  140.3740 O   0  0  0  0  0  1  0  0  0  0  0  0
  180.7500  177.7380  140.4520 C   0  0  1  0  0  3  0  0  0  0  0  0
  180.6260  178.5000  139.1380 C   0  0  0  0  0  2  0  0  0  0  0  0
  181.8470  178.4760  138.4570 O   0  0  0  0  0  0  0  0  0  0  0  0
  182.0530  179.7950  138.0360 C   0  0  2  0  0  3  0  0  0  0  0  0
  184.1660  180.1420  139.0890 O   0  0  0  0  0  1  0  0  0  0  0  0
  182.8350  180.5550  139.0940 C   0  0  0  0  0  2  0  0  0  0  0  0
  180.7050  180.4670  137.8040 C   0  0  0  0  0  2  0  0  0  0  0  0
  180.8610  181.8340  137.1480 C   0  0  0  0  0  2  0  0  0  0  0  0
  180.1780  182.9160  137.9690 C   0  0  2  0  0  3  0  0  0  0  0  0
  179.3680  182.3290  138.9420 O   0  0  0  0  0  1  0  0  0  0  0  0
  179.3590  183.7390  137.0980 N   0  0  0  0  0  1  0  0  0  0  0  0
  1  9  1  0  0  0  0
  1  2  1  0  0  0  0
  3  5  1  0  0  0  0
  4  3  2  0  0  0  0
  4  1  1  0  0  0  0
  5  2  2  0  0  0  0
  6 12  1  6  0  0  0
  6 11  1  0  0  0  0
  8  7  1  0  0  0  0
  9 10  1  1  0  0  0
  9  8  1  0  0  0  0
 10  6  1  0  0  0  0
 11  7  1  0  0  0  0
 13 14  1  0  0  0  0
 13 12  1  0  0  0  0
 15 19  1  0  0  0  0
 17 16  1  0  0  0  0
 17 19  2  0  0  0  0
 18 14  1  6  0  0  0
 18 20  1  0  0  0  0
 18 17  1  0  0  0  0
 19 22  1  0  0  0  0
 20 15  2  0  0  0  0
 22 21  2  0  0  0  0
 22 23  1  0  0  0  0
 24 26  1  6  0  0  0
 24  3  1  0  0  0  0
 26 25  1  0  0  0  0
 28 27  1  6  0  0  0
 28 24  1  0  0  0  0
 29 28  1  0  0  0  0
 30 29  1  0  0  0  0
 31 34  1  1  0  0  0
 31 30  1  0  0  0  0
 31 33  1  0  0  0  0
 32 33  1  0  0  0  0
 35 34  1  0  0  0  0
 35 36  1  0  0  0  0
 36 38  1  6  0  0  0
 36 37  1  0  0  0  0
M  END
>  <MODEL>
9

>  <REMARK>
 VINA RESULT:      -6.5      4.155      8.348
  Name = 
  16 active torsions:
  status: ('A' for Active; 'I' for Inactive)
    1  A    between atoms: C_1  and  C_35
    2  A    between atoms: N_3  and  C_22
    3  A    between atoms: C_8  and  C_29
    4  A    between atoms: C_8  and  C_31
    5  A    between atoms: C_8  and  O_37
    6  A    between atoms: C_10  and  C_21
    7  A    between atoms: C_10  and  C_35
    8  A    between atoms: C_12  and  C_21
    9  A    between atoms: C_13  and  C_32
   10  A    between atoms: C_14  and  C_16
   11  A    between atoms: C_15  and  C_20
   12  A    between atoms: C_17  and  C_30
   13  A    between atoms: C_17  and  O_37
   14  A    between atoms: C_20  and  C_30
   15  A    between atoms: C_20  and  C_38
   16  A    between atoms: C_31  and  C_32
                            x       y       z     vdW  Elec       q    Type
                         _______ _______ _______ _____ _____    ______ ____

>  <TORSDO>
F 16

$$$$
