=
 OpenBabel10222418373D

 66 73  0  0  1  0  0  0  0  0999 V2000
  190.8310  176.7570  144.2800 C   0  0  0  0  0  3  0  0  0  0  0  0
  189.2070  177.4410  145.7470 C   0  0  0  0  0  0  0  0  0  0  0  0
  185.8570  177.9660  142.4800 C   0  0  0  0  0  3  0  0  0  0  0  0
  189.1880  177.7290  148.2540 C   0  0  0  0  0  1  0  0  0  0  0  0
  189.5410  176.9390  142.0400 C   0  0  0  0  0  0  0  0  0  0  0  0
  187.1990  178.1980  146.9510 N   0  0  0  0  0  0  0  0  0  0  0  0
  188.7210  177.4860  144.3830 C   0  0  0  0  0  0  0  0  0  0  0  0
  186.3620  178.1430  144.6330 C   0  0  0  0  0  0  0  0  0  0  0  0
  190.5270  176.9740  145.6250 C   0  0  0  0  0  0  0  0  0  0  0  0
  187.1740  177.7020  142.6080 N   0  0  0  0  0  0  0  0  0  0  0  0
  188.5060  177.8000  146.9190 C   0  0  0  0  0  0  0  0  0  0  0  0
  186.2390  178.3560  145.9980 C   0  0  0  0  0  3  0  0  0  0  0  0
  187.4670  177.7750  143.9170 C   0  0  0  0  0  0  0  0  0  0  0  0
  185.3170  178.2620  143.7280 C   0  0  0  0  0  3  0  0  0  0  0  0
  188.0990  177.3190  141.5270 C   0  0  0  0  0  0  0  0  0  0  0  0
  189.7140  177.0840  143.5360 C   0  0  0  0  0  0  0  0  0  0  0  0
  192.1610  175.4090  146.7400 C   0  0  0  0  0  1  0  0  0  0  0  0
  191.5020  176.7880  146.7490 C   0  0  0  0  0  2  0  0  0  0  0  0
  188.0750  178.3790  140.4150 C   0  0  0  0  0  2  0  0  0  0  0  0
  187.3150  177.8770  139.1940 C   0  0  2  0  0  3  0  0  0  0  0  0
  188.1810  177.9510  137.9220 C   0  0  2  0  0  3  0  0  0  0  0  0
  188.8400  179.2990  137.6150 C   0  0  0  0  0  1  0  0  0  0  0  0
  187.6630  177.2550  136.8040 O   0  0  0  0  0  0  0  0  0  0  0  0
  187.6440  178.1230  135.7020 C   0  0  0  0  0  1  0  0  0  0  0  0
  185.9940  178.5800  139.0780 C   0  0  0  0  0  3  0  0  0  0  0  0
  184.9270  178.0280  138.4940 C   0  0  0  0  0  3  0  0  0  0  0  0
  183.6490  178.7890  138.3610 C   0  0  0  0  0  2  0  0  0  0  0  0
  181.2520  178.6390  137.6500 C   0  0  0  0  0  2  0  0  0  0  0  0
  182.1000  176.8860  139.5390 S   0  0  0  0  0  0  0  0  0  0  0  0
  182.4870  177.8520  138.0540 C   0  0  2  0  0  3  0  0  0  0  0  0
  180.3010  177.2250  139.4350 C   0  0  2  0  0  0  0  0  0  0  0  0
  180.0460  177.8180  138.0580 C   0  0  0  0  0  2  0  0  0  0  0  0
  181.2660  178.8500  141.1980 C   0  0  0  0  0  2  0  0  0  0  0  0
  180.2080  178.0510  141.9340 C   0  0  0  0  0  2  0  0  0  0  0  0
  180.0370  178.3630  140.4650 C   0  0  0  0  0  3  0  0  0  0  0  0
  179.5460  175.9380  139.5450 N   0  0  0  0  0  0  0  0  0  0  0  0
  179.4570  175.0560  138.4420 N   0  0  0  0  0  0  0  0  0  0  0  0
  180.2680  174.0880  138.2760 N   0  0  0  0  0  0  0  0  0  0  0  0
  180.0940  173.1660  137.1620 C   0  0  0  0  0  2  0  0  0  0  0  0
  181.4120  173.0270  136.4050 C   0  0  1  0  0  3  0  0  0  0  0  0
  183.6930  173.6010  136.6360 C   0  0  0  0  0  2  0  0  0  0  0  0
  182.3110  174.2030  136.6570 C   0  0  0  0  0  2  0  0  0  0  0  0
  182.1860  171.8250  136.8920 C   0  0  0  0  0  2  0  0  0  0  0  0
  183.5860  172.2070  137.0520 N   0  0  0  0  0  2  0  0  0  0  0  0
  178.9330  175.4480  140.7730 C   0  0  0  0  0  2  0  0  0  0  0  0
  179.5880  174.2990  141.2130 O   0  0  0  0  0  1  0  0  0  0  0  0
  190.6580  177.6780  141.3090 C   0  0  0  0  0  2  0  0  0  0  0  0
  191.4330  176.7340  140.3910 C   0  0  0  0  0  2  0  0  0  0  0  0
  191.3790  177.1860  138.9360 C   0  0  0  0  0  2  0  0  0  0  0  0
  193.6040  174.4040  137.6190 C   0  0  1  0  0  3  0  0  0  0  0  0
  191.1310  174.8720  138.2710 O   0  0  0  0  0  0  0  0  0  0  0  0
  191.8320  176.0650  138.0080 C   0  0  2  0  0  3  0  0  0  0  0  0
  193.3280  175.8130  138.1440 C   0  0  0  0  0  2  0  0  0  0  0  0
  191.3740  173.9590  137.2070 C   0  0  2  0  0  3  0  0  0  0  0  0
  192.6710  174.0540  136.6200 O   0  0  0  0  0  0  0  0  0  0  0  0
  189.5200  175.1970  136.3520 F   0  0  0  0  0  0  0  0  0  0  0  0
  190.9170  174.2020  134.8980 F   0  0  0  0  0  0  0  0  0  0  0  0
  190.3060  174.0820  136.1290 C   0  0  0  0  0  0  0  0  0  0  0  0
  189.5070  172.9480  136.1290 F   0  0  0  0  0  0  0  0  0  0  0  0
  195.3130  174.7190  136.0010 O   0  0  0  0  0  0  0  0  0  0  0  0
  195.0110  174.2810  137.1040 C   0  0  0  0  0  0  0  0  0  0  0  0
  196.0680  173.6460  137.9610 C   0  0  0  0  0  2  0  0  0  0  0  0
  196.8740  174.6960  138.7250 C   0  0  1  0  0  3  0  0  0  0  0  0
  196.7190  174.5020  140.1020 O   0  0  0  0  0  1  0  0  0  0  0  0
  198.3470  174.5730  138.3830 C   0  0  0  0  0  2  0  0  0  0  0  0
  198.5620  174.8710  137.0370 O   0  0  0  0  0  1  0  0  0  0  0  0
  1  9  1  0  0  0  0
  2 11  1  0  0  0  0
  3 10  1  0  0  0  0
  3 14  2  0  0  0  0
  5 16  1  0  0  0  0
  7  2  1  0  0  0  0
  8 12  2  0  0  0  0
  9  2  2  0  0  0  0
  9 18  1  0  0  0  0
 10 13  1  0  0  0  0
 11  6  2  0  0  0  0
 11  4  1  0  0  0  0
 12  6  1  0  0  0  0
 13  7  2  0  0  0  0
 13  8  1  0  0  0  0
 14  8  1  0  0  0  0
 15  5  2  0  0  0  0
 15 10  1  0  0  0  0
 16  1  2  0  0  0  0
 16  7  1  0  0  0  0
 17 18  1  0  0  0  0
 19 15  1  0  0  0  0
 20 25  1  6  0  0  0
 20 19  1  0  0  0  0
 21 22  1  6  0  0  0
 21 20  1  0  0  0  0
 23 21  1  0  0  0  0
 24 23  1  0  0  0  0
 26 25  2  0  0  0  0
 27 26  1  0  0  0  0
 28 30  1  0  0  0  0
 28 32  1  0  0  0  0
 30 27  1  1  0  0  0
 30 29  1  0  0  0  0
 31 29  1  0  0  0  0
 31 36  1  1  0  0  0
 31 35  1  0  0  0  0
 32 31  1  0  0  0  0
 33 34  1  0  0  0  0
 35 33  1  0  0  0  0
 35 34  1  0  0  0  0
 36 45  1  0  0  0  0
 37 36  1  0  0  0  0
 38 37  2  0  0  0  0
 39 38  1  0  0  0  0
 40 42  1  0  0  0  0
 40 43  1  0  0  0  0
 40 39  1  1  0  0  0
 41 42  1  0  0  0  0
 41 44  1  0  0  0  0
 43 44  1  0  0  0  0
 45 46  1  0  0  0  0
 47  5  1  0  0  0  0
 48 47  1  0  0  0  0
 49 48  1  0  0  0  0
 50 61  1  6  0  0  0
 50 53  1  0  0  0  0
 52 53  1  0  0  0  0
 52 51  1  0  0  0  0
 52 49  1  1  0  0  0
 54 58  1  6  0  0  0
 54 51  1  0  0  0  0
 55 54  1  0  0  0  0
 55 50  1  0  0  0  0
 57 58  1  0  0  0  0
 58 56  1  0  0  0  0
 59 58  1  0  0  0  0
 60 61  2  0  0  0  0
 61 62  1  0  0  0  0
 62 63  1  0  0  0  0
 63 64  1  1  0  0  0
 65 63  1  0  0  0  0
 66 65  1  0  0  0  0
M  END
>  <MODEL>
1

>  <REMARK>
 VINA RESULT:      -7.9      0.000      0.000
  Name = 
  23 active torsions:
  status: ('A' for Active; 'I' for Inactive)
    1  A    between atoms: C_1  and  C_5
    2  A    between atoms: C_1  and  C_27
    3  A    between atoms: N_2  and  N_11
    4  A    between atoms: C_5  and  C_37
    5  A    between atoms: C_7  and  C_10
    6  A    between atoms: C_7  and  N_59
    7  A    between atoms: C_9  and  N_11
    8  A    between atoms: N_11  and  C_54
    9  A    between atoms: C_12  and  C_53
   10  A    between atoms: C_12  and  C_64
   11  A    between atoms: C_13  and  C_53
   12  A    between atoms: C_23  and  C_37
   13  A    between atoms: C_24  and  C_38
   14  A    between atoms: C_24  and  C_56
   15  A    between atoms: C_28  and  C_36
   16  A    between atoms: C_28  and  C_46
   17  A    between atoms: C_30  and  C_51
   18  A    between atoms: C_35  and  C_61
   19  A    between atoms: O_41  and  C_44
   20  A    between atoms: C_42  and  C_54
   21  A    between atoms: C_44  and  C_53
   22  A    between atoms: C_47  and  C_50
   23  A    between atoms: C_51  and  C_56
                            x       y       z     vdW  Elec       q    Type
                         _______ _______ _______ _____ _____    ______ ____

>  <TORSDO>
F 23

$$$$
=
 OpenBabel10222418373D

 66 73  0  0  1  0  0  0  0  0999 V2000
  189.2110  177.1140  143.1470 C   0  0  0  0  0  3  0  0  0  0  0  0
  189.2060  177.3750  145.4240 C   0  0  0  0  0  0  0  0  0  0  0  0
  184.6530  178.5370  145.7200 C   0  0  0  0  0  3  0  0  0  0  0  0
  190.9920  177.0640  147.1800 C   0  0  0  0  0  1  0  0  0  0  0  0
  186.7670  177.7740  142.5960 C   0  0  0  0  0  0  0  0  0  0  0  0
  188.7580  177.7560  147.8140 N   0  0  0  0  0  0  0  0  0  0  0  0
  187.9170  177.7230  144.8630 C   0  0  0  0  0  0  0  0  0  0  0  0
  186.5400  178.2200  146.8420 C   0  0  0  0  0  0  0  0  0  0  0  0
  189.9740  176.9970  144.3100 C   0  0  0  0  0  0  0  0  0  0  0  0
  185.6240  178.2970  144.8150 N   0  0  0  0  0  0  0  0  0  0  0  0
  189.5900  177.4230  146.7820 C   0  0  0  0  0  0  0  0  0  0  0  0
  187.4420  178.1000  147.8890 C   0  0  0  0  0  3  0  0  0  0  0  0
  186.7570  178.0700  145.5000 C   0  0  0  0  0  0  0  0  0  0  0  0
  185.1930  178.5120  147.0020 C   0  0  0  0  0  3  0  0  0  0  0  0
  185.4560  178.2120  143.3540 C   0  0  0  0  0  0  0  0  0  0  0  0
  187.9580  177.5670  143.5070 C   0  0  0  0  0  0  0  0  0  0  0  0
  191.6430  175.1890  143.7570 C   0  0  0  0  0  1  0  0  0  0  0  0
  191.4160  176.5860  144.3340 C   0  0  0  0  0  2  0  0  0  0  0  0
  184.8140  179.5030  142.8230 C   0  0  0  0  0  2  0  0  0  0  0  0
  183.5600  179.2000  142.0120 C   0  0  2  0  0  3  0  0  0  0  0  0
  182.2850  179.3720  142.8580 C   0  0  2  0  0  3  0  0  0  0  0  0
  182.0730  178.3690  143.9960 C   0  0  0  0  0  1  0  0  0  0  0  0
  181.1250  179.7230  142.1280 O   0  0  0  0  0  0  0  0  0  0  0  0
  180.0220  179.0580  142.6870 C   0  0  0  0  0  1  0  0  0  0  0  0
  183.6810  177.8560  141.3520 C   0  0  0  0  0  3  0  0  0  0  0  0
  182.7330  177.3500  140.5590 C   0  0  0  0  0  3  0  0  0  0  0  0
  182.8800  175.9870  139.9660 C   0  0  0  0  0  2  0  0  0  0  0  0
  183.6090  176.8490  137.7300 C   0  0  0  0  0  2  0  0  0  0  0  0
  180.9410  176.7300  138.2060 S   0  0  0  0  0  0  0  0  0  0  0  0
  182.5840  176.0090  138.4710 C   0  0  2  0  0  3  0  0  0  0  0  0
  181.5250  177.8760  136.8980 C   0  0  2  0  0  0  0  0  0  0  0  0
  182.9210  177.4170  136.5060 C   0  0  0  0  0  2  0  0  0  0  0  0
  180.7850  179.4680  138.7960 C   0  0  0  0  0  2  0  0  0  0  0  0
  180.5540  180.2450  137.5130 C   0  0  0  0  0  2  0  0  0  0  0  0
  181.6920  179.2540  137.6040 C   0  0  0  0  0  3  0  0  0  0  0  0
  180.6330  177.7610  135.7030 N   0  0  0  0  0  0  0  0  0  0  0  0
  179.6890  176.7110  135.6050 N   0  0  0  0  0  0  0  0  0  0  0  0
  180.0290  175.5110  135.3470 N   0  0  0  0  0  0  0  0  0  0  0  0
  179.0290  174.4520  135.3240 C   0  0  0  0  0  2  0  0  0  0  0  0
  179.7120  173.1000  135.5190 C   0  0  1  0  0  3  0  0  0  0  0  0
  181.2090  172.0360  137.0040 C   0  0  0  0  0  2  0  0  0  0  0  0
  181.0690  173.2620  136.1380 C   0  0  0  0  0  2  0  0  0  0  0  0
  178.9330  172.2420  136.4870 C   0  0  0  0  0  2  0  0  0  0  0  0
  179.8740  171.6130  137.4110 N   0  0  0  0  0  2  0  0  0  0  0  0
  180.5900  178.7280  134.6140 C   0  0  0  0  0  2  0  0  0  0  0  0
  179.3900  179.4380  134.6490 O   0  0  0  0  0  1  0  0  0  0  0  0
  187.1410  178.7020  141.4450 C   0  0  0  0  0  2  0  0  0  0  0  0
  188.1650  178.0470  140.5190 C   0  0  0  0  0  2  0  0  0  0  0  0
  187.6350  177.9090  139.0960 C   0  0  0  0  0  2  0  0  0  0  0  0
  190.8480  176.0920  138.2020 C   0  0  1  0  0  3  0  0  0  0  0  0
  188.2710  175.8910  137.9190 O   0  0  0  0  0  0  0  0  0  0  0  0
  188.6600  177.2150  138.2060 C   0  0  2  0  0  3  0  0  0  0  0  0
  190.0350  177.2070  138.8600 C   0  0  0  0  0  2  0  0  0  0  0  0
  189.0940  175.3950  136.8690 C   0  0  2  0  0  3  0  0  0  0  0  0
  190.4310  175.8920  136.8690 O   0  0  0  0  0  0  0  0  0  0  0  0
  188.8780  174.6970  134.5960 F   0  0  0  0  0  0  0  0  0  0  0  0
  187.0790  175.5500  135.6390 F   0  0  0  0  0  0  0  0  0  0  0  0
  188.4490  175.6390  135.5110 C   0  0  0  0  0  0  0  0  0  0  0  0
  188.7790  176.9070  135.0560 F   0  0  0  0  0  0  0  0  0  0  0  0
  192.8070  176.9380  139.2430 O   0  0  0  0  0  0  0  0  0  0  0  0
  192.3220  176.3830  138.2650 C   0  0  0  0  0  0  0  0  0  0  0  0
  193.2150  175.9620  137.1340 C   0  0  0  0  0  2  0  0  0  0  0  0
  193.6140  174.4910  137.2540 C   0  0  1  0  0  3  0  0  0  0  0  0
  194.0030  174.0030  136.0030 O   0  0  0  0  0  1  0  0  0  0  0  0
  194.7780  174.3430  138.2150 C   0  0  0  0  0  2  0  0  0  0  0  0
  195.8400  175.1570  137.8250 O   0  0  0  0  0  1  0  0  0  0  0  0
  1 16  2  0  0  0  0
  1  9  1  0  0  0  0
  2 11  1  0  0  0  0
  3 14  2  0  0  0  0
  5 15  2  0  0  0  0
  5 16  1  0  0  0  0
  6 12  1  0  0  0  0
  7  2  1  0  0  0  0
  7 13  2  0  0  0  0
  8 14  1  0  0  0  0
  8 12  2  0  0  0  0
  9 18  1  0  0  0  0
  9  2  2  0  0  0  0
 10 13  1  0  0  0  0
 10  3  1  0  0  0  0
 11  4  1  0  0  0  0
 11  6  2  0  0  0  0
 13  8  1  0  0  0  0
 15 10  1  0  0  0  0
 16  7  1  0  0  0  0
 17 18  1  0  0  0  0
 19 15  1  0  0  0  0
 20 25  1  1  0  0  0
 20 19  1  0  0  0  0
 20 21  1  0  0  0  0
 21 22  1  6  0  0  0
 23 24  1  0  0  0  0
 23 21  1  0  0  0  0
 26 25  2  0  0  0  0
 27 26  1  0  0  0  0
 28 30  1  0  0  0  0
 29 30  1  0  0  0  0
 30 27  1  1  0  0  0
 31 36  1  6  0  0  0
 31 35  1  0  0  0  0
 31 29  1  0  0  0  0
 32 31  1  0  0  0  0
 32 28  1  0  0  0  0
 34 35  1  0  0  0  0
 34 33  1  0  0  0  0
 35 33  1  0  0  0  0
 37 36  1  0  0  0  0
 38 37  2  0  0  0  0
 39 38  1  0  0  0  0
 40 39  1  1  0  0  0
 40 42  1  0  0  0  0
 40 43  1  0  0  0  0
 41 44  1  0  0  0  0
 42 41  1  0  0  0  0
 43 44  1  0  0  0  0
 45 46  1  0  0  0  0
 45 36  1  0  0  0  0
 47  5  1  0  0  0  0
 48 47  1  0  0  0  0
 49 48  1  0  0  0  0
 50 61  1  6  0  0  0
 50 53  1  0  0  0  0
 51 52  1  0  0  0  0
 52 53  1  0  0  0  0
 52 49  1  1  0  0  0
 54 58  1  6  0  0  0
 54 55  1  0  0  0  0
 54 51  1  0  0  0  0
 55 50  1  0  0  0  0
 56 58  1  0  0  0  0
 58 57  1  0  0  0  0
 59 58  1  0  0  0  0
 61 60  2  0  0  0  0
 62 63  1  0  0  0  0
 62 61  1  0  0  0  0
 63 64  1  6  0  0  0
 63 65  1  0  0  0  0
 66 65  1  0  0  0  0
M  END
>  <MODEL>
2

>  <REMARK>
 VINA RESULT:      -7.4      2.172      3.976
  Name = 
  23 active torsions:
  status: ('A' for Active; 'I' for Inactive)
    1  A    between atoms: C_1  and  C_5
    2  A    between atoms: C_1  and  C_27
    3  A    between atoms: N_2  and  N_11
    4  A    between atoms: C_5  and  C_37
    5  A    between atoms: C_7  and  C_10
    6  A    between atoms: C_7  and  N_59
    7  A    between atoms: C_9  and  N_11
    8  A    between atoms: N_11  and  C_54
    9  A    between atoms: C_12  and  C_53
   10  A    between atoms: C_12  and  C_64
   11  A    between atoms: C_13  and  C_53
   12  A    between atoms: C_23  and  C_37
   13  A    between atoms: C_24  and  C_38
   14  A    between atoms: C_24  and  C_56
   15  A    between atoms: C_28  and  C_36
   16  A    between atoms: C_28  and  C_46
   17  A    between atoms: C_30  and  C_51
   18  A    between atoms: C_35  and  C_61
   19  A    between atoms: O_41  and  C_44
   20  A    between atoms: C_42  and  C_54
   21  A    between atoms: C_44  and  C_53
   22  A    between atoms: C_47  and  C_50
   23  A    between atoms: C_51  and  C_56
                            x       y       z     vdW  Elec       q    Type
                         _______ _______ _______ _____ _____    ______ ____

>  <TORSDO>
F 23

$$$$
=
 OpenBabel10222418373D

 66 73  0  0  1  0  0  0  0  0999 V2000
  189.8100  177.3420  144.0960 C   0  0  0  0  0  3  0  0  0  0  0  0
  189.0180  177.8200  146.1930 C   0  0  0  0  0  0  0  0  0  0  0  0
  184.5170  178.2420  144.8760 C   0  0  0  0  0  3  0  0  0  0  0  0
  190.1450  177.9800  148.4450 C   0  0  0  0  0  1  0  0  0  0  0  0
  187.6240  177.5340  142.7170 C   0  0  0  0  0  0  0  0  0  0  0  0
  187.7600  178.3550  148.2400 N   0  0  0  0  0  0  0  0  0  0  0  0
  187.9550  177.8950  145.2120 C   0  0  0  0  0  0  0  0  0  0  0  0
  185.9500  178.3500  146.5650 C   0  0  0  0  0  0  0  0  0  0  0  0
  190.1520  177.4650  145.4440 C   0  0  0  0  0  0  0  0  0  0  0  0
  185.7550  178.0770  144.3650 N   0  0  0  0  0  0  0  0  0  0  0  0
  188.9220  178.0630  147.5810 C   0  0  0  0  0  0  0  0  0  0  0  0
  186.4620  178.4840  147.8480 C   0  0  0  0  0  3  0  0  0  0  0  0
  186.6150  178.1080  145.3960 C   0  0  0  0  0  0  0  0  0  0  0  0
  184.6010  178.4320  146.2510 C   0  0  0  0  0  3  0  0  0  0  0  0
  186.0930  177.8230  142.9540 C   0  0  0  0  0  0  0  0  0  0  0  0
  188.4620  177.6160  143.9750 C   0  0  0  0  0  0  0  0  0  0  0  0
  191.9510  175.8360  146.1290 C   0  0  0  0  0  1  0  0  0  0  0  0
  191.5430  177.3010  145.9770 C   0  0  0  0  0  2  0  0  0  0  0  0
  185.5080  178.9330  142.0660 C   0  0  0  0  0  2  0  0  0  0  0  0
  184.8650  178.3520  140.8130 C   0  0  2  0  0  3  0  0  0  0  0  0
  185.0900  179.2620  139.5900 C   0  0  2  0  0  3  0  0  0  0  0  0
  183.8450  179.9130  138.9790 C   0  0  0  0  0  1  0  0  0  0  0  0
  186.0520  178.7930  138.6650 O   0  0  0  0  0  0  0  0  0  0  0  0
  185.4100  177.9760  137.7220 C   0  0  0  0  0  1  0  0  0  0  0  0
  183.4230  178.0220  141.0740 C   0  0  0  0  0  3  0  0  0  0  0  0
  182.5730  178.8830  141.6380 C   0  0  0  0  0  3  0  0  0  0  0  0
  181.1610  178.4880  141.9210 C   0  0  0  0  0  2  0  0  0  0  0  0
  179.2880  177.4040  140.6600 C   0  0  0  0  0  2  0  0  0  0  0  0
  181.4130  178.2800  139.2190 S   0  0  0  0  0  0  0  0  0  0  0  0
  180.3220  178.5160  140.6490 C   0  0  2  0  0  3  0  0  0  0  0  0
  180.3490  176.9860  138.4710 C   0  0  2  0  0  0  0  0  0  0  0  0
  179.0250  177.0240  139.2170 C   0  0  0  0  0  2  0  0  0  0  0  0
  182.4260  175.7600  139.4030 C   0  0  0  0  0  2  0  0  0  0  0  0
  182.2130  175.1810  138.0170 C   0  0  0  0  0  2  0  0  0  0  0  0
  181.0280  175.6330  138.8400 C   0  0  0  0  0  3  0  0  0  0  0  0
  180.0970  177.3190  137.0350 N   0  0  0  0  0  0  0  0  0  0  0  0
  180.4910  178.5700  136.5050 N   0  0  0  0  0  0  0  0  0  0  0  0
  180.4660  178.8200  135.2560 N   0  0  0  0  0  0  0  0  0  0  0  0
  180.8160  180.1450  134.7640 C   0  0  0  0  0  2  0  0  0  0  0  0
  180.1800  181.2070  135.6570 C   0  0  1  0  0  3  0  0  0  0  0  0
  180.8010  182.7840  137.3030 C   0  0  0  0  0  2  0  0  0  0  0  0
  180.9030  181.3180  136.9680 C   0  0  0  0  0  2  0  0  0  0  0  0
  180.2920  182.5750  135.0260 C   0  0  0  0  0  2  0  0  0  0  0  0
  180.7000  183.5290  136.0530 N   0  0  0  0  0  2  0  0  0  0  0  0
  179.5270  176.3930  136.0650 C   0  0  0  0  0  2  0  0  0  0  0  0
  180.5400  175.6670  135.4410 O   0  0  0  0  0  1  0  0  0  0  0  0
  188.2410  178.3940  141.6190 C   0  0  0  0  0  2  0  0  0  0  0  0
  189.2940  177.6130  140.8340 C   0  0  0  0  0  2  0  0  0  0  0  0
  188.6640  176.7370  139.7560 C   0  0  0  0  0  2  0  0  0  0  0  0
  191.4520  175.6350  137.4250 C   0  0  1  0  0  3  0  0  0  0  0  0
  188.8850  176.0480  137.4460 O   0  0  0  0  0  0  0  0  0  0  0  0
  189.5280  176.7260  138.5010 C   0  0  2  0  0  3  0  0  0  0  0  0
  190.8780  176.0740  138.7710 C   0  0  0  0  0  2  0  0  0  0  0  0
  189.5890  176.3170  136.2390 C   0  0  2  0  0  3  0  0  0  0  0  0
  190.9980  176.4810  136.3900 O   0  0  0  0  0  0  0  0  0  0  0  0
  187.8270  177.1780  134.8770 F   0  0  0  0  0  0  0  0  0  0  0  0
  188.7300  178.5120  136.4450 F   0  0  0  0  0  0  0  0  0  0  0  0
  188.9990  177.5230  135.5220 C   0  0  0  0  0  0  0  0  0  0  0  0
  189.9100  178.0080  134.5940 F   0  0  0  0  0  0  0  0  0  0  0  0
  193.6070  176.6270  137.5000 O   0  0  0  0  0  0  0  0  0  0  0  0
  192.9540  175.5910  137.4610 C   0  0  0  0  0  0  0  0  0  0  0  0
  193.6630  174.2680  137.4830 C   0  0  0  0  0  2  0  0  0  0  0  0
  195.1640  174.4420  137.7170 C   0  0  1  0  0  3  0  0  0  0  0  0
  195.4830  174.0780  139.0280 O   0  0  0  0  0  1  0  0  0  0  0  0
  195.9460  173.5580  136.7650 C   0  0  0  0  0  2  0  0  0  0  0  0
  196.8850  174.3090  136.0590 O   0  0  0  0  0  1  0  0  0  0  0  0
  1  9  1  0  0  0  0
  2 11  1  0  0  0  0
  3 14  2  0  0  0  0
  5 15  2  0  0  0  0
  5 16  1  0  0  0  0
  7 13  2  0  0  0  0
  7  2  1  0  0  0  0
  8 12  2  0  0  0  0
  9 18  1  0  0  0  0
  9  2  2  0  0  0  0
 10  3  1  0  0  0  0
 10 13  1  0  0  0  0
 11  6  2  0  0  0  0
 11  4  1  0  0  0  0
 12  6  1  0  0  0  0
 13  8  1  0  0  0  0
 14  8  1  0  0  0  0
 15 10  1  0  0  0  0
 16  1  2  0  0  0  0
 16  7  1  0  0  0  0
 18 17  1  0  0  0  0
 19 15  1  0  0  0  0
 20 25  1  1  0  0  0
 20 19  1  0  0  0  0
 21 22  1  6  0  0  0
 21 20  1  0  0  0  0
 23 21  1  0  0  0  0
 24 23  1  0  0  0  0
 25 26  2  0  0  0  0
 26 27  1  0  0  0  0
 29 30  1  0  0  0  0
 30 28  1  0  0  0  0
 30 27  1  1  0  0  0
 31 36  1  6  0  0  0
 31 35  1  0  0  0  0
 31 32  1  0  0  0  0
 31 29  1  0  0  0  0
 32 28  1  0  0  0  0
 34 35  1  0  0  0  0
 34 33  1  0  0  0  0
 35 33  1  0  0  0  0
 37 36  1  0  0  0  0
 38 37  2  0  0  0  0
 39 38  1  0  0  0  0
 40 39  1  6  0  0  0
 40 42  1  0  0  0  0
 42 41  1  0  0  0  0
 43 40  1  0  0  0  0
 43 44  1  0  0  0  0
 44 41  1  0  0  0  0
 45 36  1  0  0  0  0
 46 45  1  0  0  0  0
 47  5  1  0  0  0  0
 48 47  1  0  0  0  0
 49 48  1  0  0  0  0
 50 61  1  1  0  0  0
 50 53  1  0  0  0  0
 51 52  1  0  0  0  0
 52 53  1  0  0  0  0
 52 49  1  1  0  0  0
 54 58  1  1  0  0  0
 54 55  1  0  0  0  0
 54 51  1  0  0  0  0
 55 50  1  0  0  0  0
 56 58  1  0  0  0  0
 58 57  1  0  0  0  0
 59 58  1  0  0  0  0
 61 62  1  0  0  0  0
 61 60  2  0  0  0  0
 62 63  1  0  0  0  0
 63 64  1  1  0  0  0
 65 63  1  0  0  0  0
 66 65  1  0  0  0  0
M  END
>  <MODEL>
3

>  <REMARK>
 VINA RESULT:      -6.9      2.404      4.064
  Name = 
  23 active torsions:
  status: ('A' for Active; 'I' for Inactive)
    1  A    between atoms: C_1  and  C_5
    2  A    between atoms: C_1  and  C_27
    3  A    between atoms: N_2  and  N_11
    4  A    between atoms: C_5  and  C_37
    5  A    between atoms: C_7  and  C_10
    6  A    between atoms: C_7  and  N_59
    7  A    between atoms: C_9  and  N_11
    8  A    between atoms: N_11  and  C_54
    9  A    between atoms: C_12  and  C_53
   10  A    between atoms: C_12  and  C_64
   11  A    between atoms: C_13  and  C_53
   12  A    between atoms: C_23  and  C_37
   13  A    between atoms: C_24  and  C_38
   14  A    between atoms: C_24  and  C_56
   15  A    between atoms: C_28  and  C_36
   16  A    between atoms: C_28  and  C_46
   17  A    between atoms: C_30  and  C_51
   18  A    between atoms: C_35  and  C_61
   19  A    between atoms: O_41  and  C_44
   20  A    between atoms: C_42  and  C_54
   21  A    between atoms: C_44  and  C_53
   22  A    between atoms: C_47  and  C_50
   23  A    between atoms: C_51  and  C_56
                            x       y       z     vdW  Elec       q    Type
                         _______ _______ _______ _____ _____    ______ ____

>  <TORSDO>
F 23

$$$$
=
 OpenBabel10222418373D

 66 73  0  0  1  0  0  0  0  0999 V2000
  186.5210  178.3610  144.5240 C   0  0  0  0  0  3  0  0  0  0  0  0
  188.3120  177.5580  145.7090 C   0  0  0  0  0  0  0  0  0  0  0  0
  191.2180  177.3330  142.0110 C   0  0  0  0  0  3  0  0  0  0  0  0
  188.6450  177.0520  148.1580 C   0  0  0  0  0  1  0  0  0  0  0  0
  187.5160  178.3800  142.1310 C   0  0  0  0  0  0  0  0  0  0  0  0
  190.4500  176.7060  146.5790 N   0  0  0  0  0  0  0  0  0  0  0  0
  188.6220  177.6340  144.2960 C   0  0  0  0  0  0  0  0  0  0  0  0
  190.9880  176.9670  144.1860 C   0  0  0  0  0  0  0  0  0  0  0  0
  186.9910  178.0290  145.7960 C   0  0  0  0  0  0  0  0  0  0  0  0
  189.9300  177.5800  142.3270 N   0  0  0  0  0  0  0  0  0  0  0  0
  189.1520  177.1010  146.7470 C   0  0  0  0  0  0  0  0  0  0  0  0
  191.2810  176.6360  145.5020 C   0  0  0  0  0  3  0  0  0  0  0  0
  189.8040  177.3910  143.6510 C   0  0  0  0  0  0  0  0  0  0  0  0
  191.9090  176.9310  143.1500 C   0  0  0  0  0  3  0  0  0  0  0  0
  188.8780  178.0520  141.4100 C   0  0  0  0  0  0  0  0  0  0  0  0
  187.5320  178.1050  143.6190 C   0  0  0  0  0  0  0  0  0  0  0  0
  184.7550  178.6370  146.7910 C   0  0  0  0  0  1  0  0  0  0  0  0
  186.1670  178.1130  147.0460 C   0  0  0  0  0  2  0  0  0  0  0  0
  188.7540  177.0930  140.2160 C   0  0  0  0  0  2  0  0  0  0  0  0
  189.0330  177.8130  138.9020 C   0  0  2  0  0  3  0  0  0  0  0  0
  188.1590  177.2600  137.7590 C   0  0  2  0  0  3  0  0  0  0  0  0
  188.0780  175.7360  137.6320 C   0  0  0  0  0  1  0  0  0  0  0  0
  188.2460  177.9720  136.5400 O   0  0  0  0  0  0  0  0  0  0  0  0
  187.0590  178.6970  136.3550 C   0  0  0  0  0  1  0  0  0  0  0  0
  190.5050  177.8050  138.6060 C   0  0  0  0  0  3  0  0  0  0  0  0
  191.2000  176.6810  138.4150 C   0  0  0  0  0  3  0  0  0  0  0  0
  192.6730  176.7250  138.1730 C   0  0  0  0  0  2  0  0  0  0  0  0
  194.0250  175.5620  136.4140 C   0  0  0  0  0  2  0  0  0  0  0  0
  191.7620  174.3280  137.2600 S   0  0  0  0  0  0  0  0  0  0  0  0
  193.1820  175.3810  137.6640 C   0  0  2  0  0  3  0  0  0  0  0  0
  192.4280  173.8570  135.6170 C   0  0  2  0  0  0  0  0  0  0  0  0
  193.8840  174.2960  135.5930 C   0  0  0  0  0  2  0  0  0  0  0  0
  190.9550  175.9420  135.2040 C   0  0  0  0  0  2  0  0  0  0  0  0
  190.1640  174.7790  134.6360 C   0  0  0  0  0  2  0  0  0  0  0  0
  191.6750  174.7590  134.5940 C   0  0  0  0  0  3  0  0  0  0  0  0
  192.3770  172.3700  135.4680 N   0  0  0  0  0  0  0  0  0  0  0  0
  193.2020  171.5370  136.2590 N   0  0  0  0  0  0  0  0  0  0  0  0
  194.4360  171.7860  136.4540 N   0  0  0  0  0  0  0  0  0  0  0  0
  195.2290  170.9370  137.3320 C   0  0  0  0  0  2  0  0  0  0  0  0
  196.4860  171.6850  137.7680 C   0  0  1  0  0  3  0  0  0  0  0  0
  198.0790  173.1950  136.8920 C   0  0  0  0  0  2  0  0  0  0  0  0
  197.4410  171.8560  136.6220 C   0  0  0  0  0  2  0  0  0  0  0  0
  196.1480  173.0870  138.2150 C   0  0  0  0  0  2  0  0  0  0  0  0
  197.1280  174.0070  137.6440 N   0  0  0  0  0  2  0  0  0  0  0  0
  191.4480  171.6630  134.5960 C   0  0  0  0  0  2  0  0  0  0  0  0
  191.5230  170.2900  134.8240 O   0  0  0  0  0  1  0  0  0  0  0  0
  186.3100  177.7040  141.4860 C   0  0  0  0  0  2  0  0  0  0  0  0
  185.4830  178.7050  140.6810 C   0  0  0  0  0  2  0  0  0  0  0  0
  184.0350  178.7560  141.1550 C   0  0  0  0  0  2  0  0  0  0  0  0
  181.5210  177.0670  138.8630 C   0  0  1  0  0  3  0  0  0  0  0  0
  181.8510  179.2500  140.2370 O   0  0  0  0  0  0  0  0  0  0  0  0
  183.0790  178.6100  139.9770 C   0  0  2  0  0  3  0  0  0  0  0  0
  182.8260  177.1440  139.6550 C   0  0  0  0  0  2  0  0  0  0  0  0
  181.1190  179.3370  139.0190 C   0  0  2  0  0  3  0  0  0  0  0  0
  181.3210  178.2490  138.1190 O   0  0  0  0  0  0  0  0  0  0  0  0
  181.4310  180.4720  136.9410 F   0  0  0  0  0  0  0  0  0  0  0  0
  180.3970  181.5550  138.6180 F   0  0  0  0  0  0  0  0  0  0  0  0
  181.3970  180.6560  138.3100 C   0  0  0  0  0  0  0  0  0  0  0  0
  182.6130  181.1700  138.7360 F   0  0  0  0  0  0  0  0  0  0  0  0
  180.4380  175.3140  137.6840 O   0  0  0  0  0  0  0  0  0  0  0  0
  181.4980  175.8590  137.9680 C   0  0  0  0  0  0  0  0  0  0  0  0
  182.7790  175.3340  137.3880 C   0  0  0  0  0  2  0  0  0  0  0  0
  182.5350  174.0960  136.5240 C   0  0  1  0  0  3  0  0  0  0  0  0
  181.8280  173.1390  137.2580 O   0  0  0  0  0  1  0  0  0  0  0  0
  181.7200  174.4680  135.3000 C   0  0  0  0  0  2  0  0  0  0  0  0
  182.2690  175.5820  134.6670 O   0  0  0  0  0  1  0  0  0  0  0  0
  1  9  1  0  0  0  0
  2  9  2  0  0  0  0
  2 11  1  0  0  0  0
  3 10  1  0  0  0  0
  3 14  2  0  0  0  0
  5 16  1  0  0  0  0
  6 11  2  0  0  0  0
  7  2  1  0  0  0  0
  8 12  2  0  0  0  0
  9 18  1  0  0  0  0
 10 13  1  0  0  0  0
 11  4  1  0  0  0  0
 12  6  1  0  0  0  0
 13  8  1  0  0  0  0
 13  7  2  0  0  0  0
 14  8  1  0  0  0  0
 15  5  2  0  0  0  0
 15 10  1  0  0  0  0
 16  7  1  0  0  0  0
 16  1  2  0  0  0  0
 17 18  1  0  0  0  0
 19 15  1  0  0  0  0
 20 25  1  6  0  0  0
 20 19  1  0  0  0  0
 21 22  1  6  0  0  0
 21 20  1  0  0  0  0
 23 21  1  0  0  0  0
 24 23  1  0  0  0  0
 26 25  2  0  0  0  0
 27 26  1  0  0  0  0
 28 30  1  0  0  0  0
 29 30  1  0  0  0  0
 30 27  1  6  0  0  0
 31 36  1  6  0  0  0
 31 29  1  0  0  0  0
 32 31  1  0  0  0  0
 32 28  1  0  0  0  0
 34 33  1  0  0  0  0
 35 34  1  0  0  0  0
 35 33  1  0  0  0  0
 35 31  1  0  0  0  0
 36 37  1  0  0  0  0
 37 38  2  0  0  0  0
 38 39  1  0  0  0  0
 40 39  1  6  0  0  0
 40 43  1  0  0  0  0
 41 44  1  0  0  0  0
 42 41  1  0  0  0  0
 42 40  1  0  0  0  0
 44 43  1  0  0  0  0
 45 46  1  0  0  0  0
 45 36  1  0  0  0  0
 47  5  1  0  0  0  0
 48 49  1  0  0  0  0
 48 47  1  0  0  0  0
 50 61  1  6  0  0  0
 50 53  1  0  0  0  0
 52 51  1  0  0  0  0
 52 49  1  1  0  0  0
 53 52  1  0  0  0  0
 54 58  1  6  0  0  0
 54 51  1  0  0  0  0
 55 50  1  0  0  0  0
 55 54  1  0  0  0  0
 56 58  1  0  0  0  0
 58 57  1  0  0  0  0
 58 59  1  0  0  0  0
 60 61  2  0  0  0  0
 62 61  1  0  0  0  0
 63 64  1  1  0  0  0
 63 62  1  0  0  0  0
 65 63  1  0  0  0  0
 66 65  1  0  0  0  0
M  END
>  <MODEL>
4

>  <REMARK>
 VINA RESULT:      -6.2      4.404     10.318
  Name = 
  23 active torsions:
  status: ('A' for Active; 'I' for Inactive)
    1  A    between atoms: C_1  and  C_5
    2  A    between atoms: C_1  and  C_27
    3  A    between atoms: N_2  and  N_11
    4  A    between atoms: C_5  and  C_37
    5  A    between atoms: C_7  and  C_10
    6  A    between atoms: C_7  and  N_59
    7  A    between atoms: C_9  and  N_11
    8  A    between atoms: N_11  and  C_54
    9  A    between atoms: C_12  and  C_53
   10  A    between atoms: C_12  and  C_64
   11  A    between atoms: C_13  and  C_53
   12  A    between atoms: C_23  and  C_37
   13  A    between atoms: C_24  and  C_38
   14  A    between atoms: C_24  and  C_56
   15  A    between atoms: C_28  and  C_36
   16  A    between atoms: C_28  and  C_46
   17  A    between atoms: C_30  and  C_51
   18  A    between atoms: C_35  and  C_61
   19  A    between atoms: O_41  and  C_44
   20  A    between atoms: C_42  and  C_54
   21  A    between atoms: C_44  and  C_53
   22  A    between atoms: C_47  and  C_50
   23  A    between atoms: C_51  and  C_56
                            x       y       z     vdW  Elec       q    Type
                         _______ _______ _______ _____ _____    ______ ____

>  <TORSDO>
F 23

$$$$
=
 OpenBabel10222418373D

 66 73  0  0  1  0  0  0  0  0999 V2000
  189.9240  177.1020  144.3210 C   0  0  0  0  0  3  0  0  0  0  0  0
  189.1850  177.7110  146.4040 C   0  0  0  0  0  0  0  0  0  0  0  0
  184.6820  178.2360  145.1340 C   0  0  0  0  0  3  0  0  0  0  0  0
  190.3550  177.9390  148.6290 C   0  0  0  0  0  1  0  0  0  0  0  0
  187.7240  177.3070  142.9670 C   0  0  0  0  0  0  0  0  0  0  0  0
  187.9820  178.3920  148.4400 N   0  0  0  0  0  0  0  0  0  0  0  0
  188.1090  177.7780  145.4360 C   0  0  0  0  0  0  0  0  0  0  0  0
  186.1450  178.3730  146.7950 C   0  0  0  0  0  0  0  0  0  0  0  0
  190.2930  177.2780  145.6560 C   0  0  0  0  0  0  0  0  0  0  0  0
  185.9040  178.0000  144.6140 N   0  0  0  0  0  0  0  0  0  0  0  0
  189.1210  178.0250  147.7790 C   0  0  0  0  0  0  0  0  0  0  0  0
  186.6830  178.5500  148.0620 C   0  0  0  0  0  3  0  0  0  0  0  0
  186.7820  178.0490  145.6300 C   0  0  0  0  0  0  0  0  0  0  0  0
  184.7950  178.4890  146.4980 C   0  0  0  0  0  3  0  0  0  0  0  0
  186.2090  177.6650  143.2130 C   0  0  0  0  0  0  0  0  0  0  0  0
  188.5850  177.4190  144.2070 C   0  0  0  0  0  0  0  0  0  0  0  0
  191.8800  175.7420  146.8720 C   0  0  0  0  0  1  0  0  0  0  0  0
  191.6860  177.0880  146.1770 C   0  0  0  0  0  2  0  0  0  0  0  0
  185.6500  178.7510  142.2800 C   0  0  0  0  0  2  0  0  0  0  0  0
  184.7790  178.1420  141.1880 C   0  0  2  0  0  3  0  0  0  0  0  0
  185.0890  178.7580  139.8100 C   0  0  2  0  0  3  0  0  0  0  0  0
  184.2100  179.9320  139.3680 C   0  0  0  0  0  1  0  0  0  0  0  0
  185.4180  177.8260  138.7980 O   0  0  0  0  0  0  0  0  0  0  0  0
  184.5170  177.9790  137.7340 C   0  0  0  0  0  1  0  0  0  0  0  0
  183.3310  178.2110  141.5790 C   0  0  0  0  0  3  0  0  0  0  0  0
  182.8870  178.9680  142.5860 C   0  0  0  0  0  3  0  0  0  0  0  0
  181.4430  178.9640  142.9650 C   0  0  0  0  0  2  0  0  0  0  0  0
  179.3370  178.2330  141.8220 C   0  0  0  0  0  2  0  0  0  0  0  0
  181.5060  178.6890  140.2580 S   0  0  0  0  0  0  0  0  0  0  0  0
  180.5560  179.1350  141.7370 C   0  0  2  0  0  3  0  0  0  0  0  0
  180.1840  177.6070  139.5900 C   0  0  2  0  0  0  0  0  0  0  0  0
  178.9310  177.8960  140.4020 C   0  0  0  0  0  2  0  0  0  0  0  0
  182.0880  175.8630  139.7230 C   0  0  0  0  0  2  0  0  0  0  0  0
  181.0390  175.2370  138.8230 C   0  0  0  0  0  2  0  0  0  0  0  0
  180.6220  176.1550  139.9490 C   0  0  0  0  0  3  0  0  0  0  0  0
  179.9200  177.9680  138.1630 N   0  0  0  0  0  0  0  0  0  0  0  0
  179.2970  177.0470  137.2890 N   0  0  0  0  0  0  0  0  0  0  0  0
  179.6130  176.9540  136.0580 N   0  0  0  0  0  0  0  0  0  0  0  0
  178.9920  175.9430  135.2140 C   0  0  0  0  0  2  0  0  0  0  0  0
  180.0730  175.0600  134.5940 C   0  0  1  0  0  3  0  0  0  0  0  0
  182.2990  174.3830  135.0030 C   0  0  0  0  0  2  0  0  0  0  0  0
  181.4430  175.6150  134.8560 C   0  0  0  0  0  2  0  0  0  0  0  0
  180.0730  173.6890  135.2270 C   0  0  0  0  0  2  0  0  0  0  0  0
  181.4550  173.2990  135.4940 N   0  0  0  0  0  2  0  0  0  0  0  0
  180.1860  179.2790  137.5850 C   0  0  0  0  0  2  0  0  0  0  0  0
  179.3470  180.2360  138.1550 O   0  0  0  0  0  1  0  0  0  0  0  0
  188.3540  178.0890  141.8190 C   0  0  0  0  0  2  0  0  0  0  0  0
  189.8270  177.7240  141.6470 C   0  0  0  0  0  2  0  0  0  0  0  0
  190.0060  176.4790  140.7850 C   0  0  0  0  0  2  0  0  0  0  0  0
  191.5250  176.2350  137.3120 C   0  0  1  0  0  3  0  0  0  0  0  0
  189.2200  176.4530  138.4960 O   0  0  0  0  0  0  0  0  0  0  0  0
  190.2740  176.8640  139.3350 C   0  0  2  0  0  3  0  0  0  0  0  0
  191.5800  176.2560  138.8400 C   0  0  0  0  0  2  0  0  0  0  0  0
  189.3770  177.0830  137.2290 C   0  0  2  0  0  3  0  0  0  0  0  0
  190.7300  177.2950  136.8280 O   0  0  0  0  0  0  0  0  0  0  0  0
  189.4180  179.4140  136.7120 F   0  0  0  0  0  0  0  0  0  0  0  0
  187.5320  178.2540  136.3220 F   0  0  0  0  0  0  0  0  0  0  0  0
  188.6070  178.3950  137.1750 C   0  0  0  0  0  0  0  0  0  0  0  0
  188.1390  178.7170  138.4410 F   0  0  0  0  0  0  0  0  0  0  0  0
  193.8390  176.7640  137.3470 O   0  0  0  0  0  0  0  0  0  0  0  0
  192.9040  176.2850  136.7170 C   0  0  0  0  0  0  0  0  0  0  0  0
  193.1500  175.7140  135.3510 C   0  0  0  0  0  2  0  0  0  0  0  0
  192.7240  174.2470  135.2730 C   0  0  1  0  0  3  0  0  0  0  0  0
  193.1140  173.5800  136.4380 O   0  0  0  0  0  1  0  0  0  0  0  0
  191.2170  174.1490  135.1390 C   0  0  0  0  0  2  0  0  0  0  0  0
  190.7240  173.1070  135.9250 O   0  0  0  0  0  1  0  0  0  0  0  0
  1  9  1  0  0  0  0
  2 11  1  0  0  0  0
  3 14  2  0  0  0  0
  5 15  2  0  0  0  0
  5 16  1  0  0  0  0
  7 13  2  0  0  0  0
  7  2  1  0  0  0  0
  8 12  2  0  0  0  0
  9 18  1  0  0  0  0
  9  2  2  0  0  0  0
 10  3  1  0  0  0  0
 10 13  1  0  0  0  0
 11  6  2  0  0  0  0
 11  4  1  0  0  0  0
 12  6  1  0  0  0  0
 13  8  1  0  0  0  0
 14  8  1  0  0  0  0
 15 10  1  0  0  0  0
 16  1  2  0  0  0  0
 16  7  1  0  0  0  0
 18 17  1  0  0  0  0
 19 15  1  0  0  0  0
 20 25  1  1  0  0  0
 20 19  1  0  0  0  0
 21 22  1  6  0  0  0
 21 20  1  0  0  0  0
 23 21  1  0  0  0  0
 24 23  1  0  0  0  0
 25 26  2  0  0  0  0
 26 27  1  0  0  0  0
 29 30  1  0  0  0  0
 30 28  1  0  0  0  0
 30 27  1  1  0  0  0
 31 36  1  6  0  0  0
 31 35  1  0  0  0  0
 31 29  1  0  0  0  0
 31 32  1  0  0  0  0
 32 28  1  0  0  0  0
 33 35  1  0  0  0  0
 34 33  1  0  0  0  0
 34 35  1  0  0  0  0
 37 36  1  0  0  0  0
 38 37  2  0  0  0  0
 39 38  1  0  0  0  0
 40 42  1  0  0  0  0
 40 39  1  1  0  0  0
 40 43  1  0  0  0  0
 41 44  1  0  0  0  0
 42 41  1  0  0  0  0
 43 44  1  0  0  0  0
 45 46  1  0  0  0  0
 45 36  1  0  0  0  0
 47  5  1  0  0  0  0
 48 47  1  0  0  0  0
 49 48  1  0  0  0  0
 50 61  1  6  0  0  0
 50 53  1  0  0  0  0
 51 52  1  0  0  0  0
 52 49  1  1  0  0  0
 53 52  1  0  0  0  0
 54 58  1  1  0  0  0
 54 51  1  0  0  0  0
 55 54  1  0  0  0  0
 55 50  1  0  0  0  0
 56 58  1  0  0  0  0
 57 58  1  0  0  0  0
 58 59  1  0  0  0  0
 61 60  2  0  0  0  0
 62 61  1  0  0  0  0
 63 62  1  0  0  0  0
 63 64  1  1  0  0  0
 65 63  1  0  0  0  0
 65 66  1  0  0  0  0
M  END
>  <MODEL>
5

>  <REMARK>
 VINA RESULT:      -5.9      2.461      3.554
  Name = 
  23 active torsions:
  status: ('A' for Active; 'I' for Inactive)
    1  A    between atoms: C_1  and  C_5
    2  A    between atoms: C_1  and  C_27
    3  A    between atoms: N_2  and  N_11
    4  A    between atoms: C_5  and  C_37
    5  A    between atoms: C_7  and  C_10
    6  A    between atoms: C_7  and  N_59
    7  A    between atoms: C_9  and  N_11
    8  A    between atoms: N_11  and  C_54
    9  A    between atoms: C_12  and  C_53
   10  A    between atoms: C_12  and  C_64
   11  A    between atoms: C_13  and  C_53
   12  A    between atoms: C_23  and  C_37
   13  A    between atoms: C_24  and  C_38
   14  A    between atoms: C_24  and  C_56
   15  A    between atoms: C_28  and  C_36
   16  A    between atoms: C_28  and  C_46
   17  A    between atoms: C_30  and  C_51
   18  A    between atoms: C_35  and  C_61
   19  A    between atoms: O_41  and  C_44
   20  A    between atoms: C_42  and  C_54
   21  A    between atoms: C_44  and  C_53
   22  A    between atoms: C_47  and  C_50
   23  A    between atoms: C_51  and  C_56
                            x       y       z     vdW  Elec       q    Type
                         _______ _______ _______ _____ _____    ______ ____

>  <TORSDO>
F 23

$$$$
=
 OpenBabel10222418373D

 66 73  0  0  1  0  0  0  0  0999 V2000
  188.9570  177.3840  143.1280 C   0  0  0  0  0  3  0  0  0  0  0  0
  188.9850  177.5050  145.4170 C   0  0  0  0  0  0  0  0  0  0  0  0
  184.3950  178.4590  145.8590 C   0  0  0  0  0  3  0  0  0  0  0  0
  190.8140  177.1610  147.1210 C   0  0  0  0  0  1  0  0  0  0  0  0
  186.4780  177.9750  142.6590 C   0  0  0  0  0  0  0  0  0  0  0  0
  188.5670  177.7210  147.8330 N   0  0  0  0  0  0  0  0  0  0  0  0
  187.6720  177.8330  144.9000 C   0  0  0  0  0  0  0  0  0  0  0  0
  186.3140  178.1510  146.9280 C   0  0  0  0  0  0  0  0  0  0  0  0
  189.7460  177.2270  144.2700 C   0  0  0  0  0  0  0  0  0  0  0  0
  185.3570  178.3140  144.9250 N   0  0  0  0  0  0  0  0  0  0  0  0
  189.3920  177.4850  146.7690 C   0  0  0  0  0  0  0  0  0  0  0  0
  187.2400  178.0050  147.9510 C   0  0  0  0  0  3  0  0  0  0  0  0
  186.5110  178.0930  145.5760 C   0  0  0  0  0  0  0  0  0  0  0  0
  184.9600  178.3780  147.1280 C   0  0  0  0  0  3  0  0  0  0  0  0
  185.1660  178.3120  143.4640 C   0  0  0  0  0  0  0  0  0  0  0  0
  187.6940  177.7620  143.5360 C   0  0  0  0  0  0  0  0  0  0  0  0
  191.4500  175.3970  143.9420 C   0  0  0  0  0  1  0  0  0  0  0  0
  191.2030  176.8740  144.2440 C   0  0  0  0  0  2  0  0  0  0  0  0
  184.4620  179.6060  143.0250 C   0  0  0  0  0  2  0  0  0  0  0  0
  183.2370  179.3020  142.1720 C   0  0  2  0  0  3  0  0  0  0  0  0
  181.9450  179.3230  143.0120 C   0  0  2  0  0  3  0  0  0  0  0  0
  181.8910  178.3770  144.2150 C   0  0  0  0  0  1  0  0  0  0  0  0
  180.7480  179.4330  142.2660 O   0  0  0  0  0  0  0  0  0  0  0  0
  179.7860  180.0870  143.0510 C   0  0  0  0  0  1  0  0  0  0  0  0
  183.4440  178.0310  141.3990 C   0  0  0  0  0  3  0  0  0  0  0  0
  182.4380  177.3450  140.8490 C   0  0  0  0  0  3  0  0  0  0  0  0
  182.6930  176.0600  140.1320 C   0  0  0  0  0  2  0  0  0  0  0  0
  183.6020  177.2160  138.1040 C   0  0  0  0  0  2  0  0  0  0  0  0
  180.9110  176.9050  138.2550 S   0  0  0  0  0  0  0  0  0  0  0  0
  182.5590  176.2420  138.6240 C   0  0  2  0  0  3  0  0  0  0  0  0
  181.5580  178.2250  137.1580 C   0  0  2  0  0  0  0  0  0  0  0  0
  183.0150  177.8880  136.8800 C   0  0  0  0  0  2  0  0  0  0  0  0
  180.8460  179.3870  139.3550 C   0  0  0  0  0  2  0  0  0  0  0  0
  180.2450  180.2320  138.2480 C   0  0  0  0  0  2  0  0  0  0  0  0
  181.5590  179.5170  138.0280 C   0  0  0  0  0  3  0  0  0  0  0  0
  180.8100  178.2060  135.8630 N   0  0  0  0  0  0  0  0  0  0  0  0
  180.7660  179.3550  135.0390 N   0  0  0  0  0  0  0  0  0  0  0  0
  180.6820  180.5340  135.5150 N   0  0  0  0  0  0  0  0  0  0  0  0
  180.7090  181.6890  134.6290 C   0  0  0  0  0  2  0  0  0  0  0  0
  180.1580  182.9090  135.3630 C   0  0  1  0  0  3  0  0  0  0  0  0
  180.8800  184.5890  136.8590 C   0  0  0  0  0  2  0  0  0  0  0  0
  180.8300  183.0910  136.6930 C   0  0  0  0  0  2  0  0  0  0  0  0
  180.4530  184.1750  134.5940 C   0  0  0  0  0  2  0  0  0  0  0  0
  180.9200  185.1910  135.5320 N   0  0  0  0  0  2  0  0  0  0  0  0
  180.1580  177.0270  135.3080 C   0  0  0  0  0  2  0  0  0  0  0  0
  179.1160  176.6170  136.1390 O   0  0  0  0  0  1  0  0  0  0  0  0
  186.7930  178.9860  141.5620 C   0  0  0  0  0  2  0  0  0  0  0  0
  187.8990  178.4730  140.6410 C   0  0  0  0  0  2  0  0  0  0  0  0
  187.5330  178.6350  139.1690 C   0  0  0  0  0  2  0  0  0  0  0  0
  190.3690  176.3000  138.2080 C   0  0  1  0  0  3  0  0  0  0  0  0
  187.7770  176.3520  138.4050 O   0  0  0  0  0  0  0  0  0  0  0  0
  188.3160  177.6500  138.3100 C   0  0  2  0  0  3  0  0  0  0  0  0
  189.7840  177.6180  138.7130 C   0  0  0  0  0  2  0  0  0  0  0  0
  188.3470  175.5480  137.3780 C   0  0  2  0  0  3  0  0  0  0  0  0
  189.6960  175.8700  137.0440 O   0  0  0  0  0  0  0  0  0  0  0  0
  187.4860  176.8290  135.5560 F   0  0  0  0  0  0  0  0  0  0  0  0
  187.9820  174.6630  135.2140 F   0  0  0  0  0  0  0  0  0  0  0  0
  187.4820  175.5700  136.1250 C   0  0  0  0  0  0  0  0  0  0  0  0
  186.1800  175.2150  136.4480 F   0  0  0  0  0  0  0  0  0  0  0  0
  192.6160  176.6700  138.8780 O   0  0  0  0  0  0  0  0  0  0  0  0
  191.8470  176.4200  137.9590 C   0  0  0  0  0  0  0  0  0  0  0  0
  192.3920  176.1990  136.5770 C   0  0  0  0  0  2  0  0  0  0  0  0
  193.3450  175.0040  136.5370 C   0  0  1  0  0  3  0  0  0  0  0  0
  192.6160  173.8140  136.6190 O   0  0  0  0  0  1  0  0  0  0  0  0
  194.1270  175.0040  135.2370 C   0  0  0  0  0  2  0  0  0  0  0  0
  194.5680  176.2920  134.9320 O   0  0  0  0  0  1  0  0  0  0  0  0
  1 16  2  0  0  0  0
  1  9  1  0  0  0  0
  2 11  1  0  0  0  0
  3 14  2  0  0  0  0
  5 15  2  0  0  0  0
  5 16  1  0  0  0  0
  6 12  1  0  0  0  0
  7  2  1  0  0  0  0
  7 13  2  0  0  0  0
  8 14  1  0  0  0  0
  8 12  2  0  0  0  0
  9  2  2  0  0  0  0
 10 13  1  0  0  0  0
 10  3  1  0  0  0  0
 11  4  1  0  0  0  0
 11  6  2  0  0  0  0
 13  8  1  0  0  0  0
 15 10  1  0  0  0  0
 16  7  1  0  0  0  0
 17 18  1  0  0  0  0
 18  9  1  0  0  0  0
 19 15  1  0  0  0  0
 20 25  1  1  0  0  0
 20 21  1  0  0  0  0
 20 19  1  0  0  0  0
 21 22  1  6  0  0  0
 23 21  1  0  0  0  0
 23 24  1  0  0  0  0
 26 25  2  0  0  0  0
 27 26  1  0  0  0  0
 28 30  1  0  0  0  0
 29 30  1  0  0  0  0
 30 27  1  1  0  0  0
 31 36  1  6  0  0  0
 31 35  1  0  0  0  0
 31 29  1  0  0  0  0
 32 31  1  0  0  0  0
 32 28  1  0  0  0  0
 34 33  1  0  0  0  0
 35 34  1  0  0  0  0
 35 33  1  0  0  0  0
 37 38  2  0  0  0  0
 37 36  1  0  0  0  0
 39 38  1  0  0  0  0
 40 39  1  6  0  0  0
 40 42  1  0  0  0  0
 42 41  1  0  0  0  0
 43 40  1  0  0  0  0
 43 44  1  0  0  0  0
 44 41  1  0  0  0  0
 45 36  1  0  0  0  0
 45 46  1  0  0  0  0
 47  5  1  0  0  0  0
 48 47  1  0  0  0  0
 49 48  1  0  0  0  0
 50 61  1  6  0  0  0
 50 53  1  0  0  0  0
 52 51  1  0  0  0  0
 52 53  1  0  0  0  0
 52 49  1  1  0  0  0
 54 58  1  6  0  0  0
 54 51  1  0  0  0  0
 55 54  1  0  0  0  0
 55 50  1  0  0  0  0
 56 58  1  0  0  0  0
 57 58  1  0  0  0  0
 58 59  1  0  0  0  0
 61 60  2  0  0  0  0
 62 61  1  0  0  0  0
 63 62  1  0  0  0  0
 63 64  1  6  0  0  0
 65 63  1  0  0  0  0
 66 65  1  0  0  0  0
M  END
>  <MODEL>
6

>  <REMARK>
 VINA RESULT:      -5.8      2.916      5.284
  Name = 
  23 active torsions:
  status: ('A' for Active; 'I' for Inactive)
    1  A    between atoms: C_1  and  C_5
    2  A    between atoms: C_1  and  C_27
    3  A    between atoms: N_2  and  N_11
    4  A    between atoms: C_5  and  C_37
    5  A    between atoms: C_7  and  C_10
    6  A    between atoms: C_7  and  N_59
    7  A    between atoms: C_9  and  N_11
    8  A    between atoms: N_11  and  C_54
    9  A    between atoms: C_12  and  C_53
   10  A    between atoms: C_12  and  C_64
   11  A    between atoms: C_13  and  C_53
   12  A    between atoms: C_23  and  C_37
   13  A    between atoms: C_24  and  C_38
   14  A    between atoms: C_24  and  C_56
   15  A    between atoms: C_28  and  C_36
   16  A    between atoms: C_28  and  C_46
   17  A    between atoms: C_30  and  C_51
   18  A    between atoms: C_35  and  C_61
   19  A    between atoms: O_41  and  C_44
   20  A    between atoms: C_42  and  C_54
   21  A    between atoms: C_44  and  C_53
   22  A    between atoms: C_47  and  C_50
   23  A    between atoms: C_51  and  C_56
                            x       y       z     vdW  Elec       q    Type
                         _______ _______ _______ _____ _____    ______ ____

>  <TORSDO>
F 23

$$$$
=
 OpenBabel10222418373D

 66 73  0  0  1  0  0  0  0  0999 V2000
  188.8980  177.2970  143.0290 C   0  0  0  0  0  3  0  0  0  0  0  0
  189.0970  177.3780  145.3120 C   0  0  0  0  0  0  0  0  0  0  0  0
  184.6130  178.5820  146.0990 C   0  0  0  0  0  3  0  0  0  0  0  0
  191.0210  176.9030  146.8730 C   0  0  0  0  0  1  0  0  0  0  0  0
  186.4300  178.0340  142.7490 C   0  0  0  0  0  0  0  0  0  0  0  0
  188.8670  177.5760  147.7540 N   0  0  0  0  0  0  0  0  0  0  0  0
  187.7710  177.7890  144.8960 C   0  0  0  0  0  0  0  0  0  0  0  0
  186.5830  178.1480  147.0210 C   0  0  0  0  0  0  0  0  0  0  0  0
  189.7560  177.0760  144.1090 C   0  0  0  0  0  0  0  0  0  0  0  0
  185.4960  178.3990  145.0950 N   0  0  0  0  0  0  0  0  0  0  0  0
  189.5990  177.3130  146.6300 C   0  0  0  0  0  0  0  0  0  0  0  0
  187.5700  177.9330  147.9720 C   0  0  0  0  0  3  0  0  0  0  0  0
  186.6790  178.1020  145.6580 C   0  0  0  0  0  0  0  0  0  0  0  0
  185.2620  178.4480  147.3220 C   0  0  0  0  0  3  0  0  0  0  0  0
  185.2000  178.4310  143.6520 C   0  0  0  0  0  0  0  0  0  0  0  0
  187.6910  177.7390  143.5330 C   0  0  0  0  0  0  0  0  0  0  0  0
  191.3360  175.1280  143.8500 C   0  0  0  0  0  1  0  0  0  0  0  0
  191.1850  176.6430  143.9730 C   0  0  0  0  0  2  0  0  0  0  0  0
  184.5420  179.7700  143.2820 C   0  0  0  0  0  2  0  0  0  0  0  0
  183.1990  179.5500  142.5970 C   0  0  2  0  0  3  0  0  0  0  0  0
  182.1470  179.0030  143.5820 C   0  0  2  0  0  3  0  0  0  0  0  0
  182.0090  177.4800  143.6640 C   0  0  0  0  0  1  0  0  0  0  0  0
  180.9350  179.7310  143.6280 O   0  0  0  0  0  0  0  0  0  0  0  0
  179.8730  178.8290  143.7970 C   0  0  0  0  0  1  0  0  0  0  0  0
  183.3750  178.7150  141.3620 C   0  0  0  0  0  3  0  0  0  0  0  0
  182.6460  177.6230  141.1150 C   0  0  0  0  0  3  0  0  0  0  0  0
  182.8940  176.7990  139.8940 C   0  0  0  0  0  2  0  0  0  0  0  0
  183.2350  178.9170  138.6010 C   0  0  0  0  0  2  0  0  0  0  0  0
  180.7390  177.8550  138.6100 S   0  0  0  0  0  0  0  0  0  0  0  0
  182.5300  177.5720  138.6320 C   0  0  2  0  0  3  0  0  0  0  0  0
  180.9060  179.6400  138.2240 C   0  0  2  0  0  0  0  0  0  0  0  0
  182.3530  179.8650  137.8150 C   0  0  0  0  0  2  0  0  0  0  0  0
  179.4370  180.0120  140.3190 C   0  0  0  0  0  2  0  0  0  0  0  0
  179.5890  181.3850  139.6920 C   0  0  0  0  0  2  0  0  0  0  0  0
  180.7080  180.3750  139.5830 C   0  0  0  0  0  3  0  0  0  0  0  0
  180.0250  179.9810  137.0640 N   0  0  0  0  0  0  0  0  0  0  0  0
  179.3970  178.9620  136.3100 N   0  0  0  0  0  0  0  0  0  0  0  0
  180.0070  177.9010  135.9560 N   0  0  0  0  0  0  0  0  0  0  0  0
  179.2990  176.8500  135.2400 C   0  0  0  0  0  2  0  0  0  0  0  0
  180.2990  175.8130  134.7330 C   0  0  1  0  0  3  0  0  0  0  0  0
  182.5830  175.2540  134.9590 C   0  0  0  0  0  2  0  0  0  0  0  0
  181.6730  176.4030  134.6050 C   0  0  0  0  0  2  0  0  0  0  0  0
  180.4440  174.6810  135.7220 C   0  0  0  0  0  2  0  0  0  0  0  0
  181.8630  174.3670  135.8660 N   0  0  0  0  0  2  0  0  0  0  0  0
  179.6730  181.3400  136.6720 C   0  0  0  0  0  2  0  0  0  0  0  0
  178.9550  181.3260  135.4770 O   0  0  0  0  0  1  0  0  0  0  0  0
  186.7230  179.0450  141.6450 C   0  0  0  0  0  2  0  0  0  0  0  0
  187.6770  178.4610  140.6040 C   0  0  0  0  0  2  0  0  0  0  0  0
  186.9350  177.9800  139.3620 C   0  0  0  0  0  2  0  0  0  0  0  0
  188.1110  176.2390  136.1980 C   0  0  1  0  0  3  0  0  0  0  0  0
  188.8970  177.9970  137.9450 O   0  0  0  0  0  0  0  0  0  0  0  0
  187.8660  177.1830  138.4550 C   0  0  2  0  0  3  0  0  0  0  0  0
  187.1000  176.5540  137.3000 C   0  0  0  0  0  2  0  0  0  0  0  0
  189.8860  177.1590  137.3570 C   0  0  2  0  0  3  0  0  0  0  0  0
  189.3810  175.9700  136.7500 O   0  0  0  0  0  0  0  0  0  0  0  0
  190.9060  175.4680  138.7000 F   0  0  0  0  0  0  0  0  0  0  0  0
  192.2070  177.0720  137.8110 F   0  0  0  0  0  0  0  0  0  0  0  0
  190.9720  176.8070  138.3650 C   0  0  0  0  0  0  0  0  0  0  0  0
  190.8160  177.5760  139.5090 F   0  0  0  0  0  0  0  0  0  0  0  0
  188.4380  174.4720  134.6460 O   0  0  0  0  0  0  0  0  0  0  0  0
  187.6450  175.0930  135.3430 C   0  0  0  0  0  0  0  0  0  0  0  0
  186.2010  174.6820  135.3670 C   0  0  0  0  0  2  0  0  0  0  0  0
  186.0070  173.3650  136.1200 C   0  0  1  0  0  3  0  0  0  0  0  0
  187.2400  172.9070  136.5960 O   0  0  0  0  0  1  0  0  0  0  0  0
  185.0790  173.5730  137.3020 C   0  0  0  0  0  2  0  0  0  0  0  0
  184.3710  172.4040  137.5780 O   0  0  0  0  0  1  0  0  0  0  0  0
  1 16  2  0  0  0  0
  1  9  1  0  0  0  0
  2 11  1  0  0  0  0
  3 14  2  0  0  0  0
  5 16  1  0  0  0  0
  5 15  2  0  0  0  0
  6 12  1  0  0  0  0
  7  2  1  0  0  0  0
  7 13  2  0  0  0  0
  8 14  1  0  0  0  0
  8 12  2  0  0  0  0
  9  2  2  0  0  0  0
 10 13  1  0  0  0  0
 10  3  1  0  0  0  0
 11  4  1  0  0  0  0
 11  6  2  0  0  0  0
 13  8  1  0  0  0  0
 15 10  1  0  0  0  0
 16  7  1  0  0  0  0
 17 18  1  0  0  0  0
 18  9  1  0  0  0  0
 19 15  1  0  0  0  0
 20 25  1  6  0  0  0
 20 19  1  0  0  0  0
 20 21  1  0  0  0  0
 21 23  1  0  0  0  0
 21 22  1  6  0  0  0
 23 24  1  0  0  0  0
 26 25  2  0  0  0  0
 27 26  1  0  0  0  0
 28 30  1  0  0  0  0
 29 30  1  0  0  0  0
 30 27  1  1  0  0  0
 31 36  1  6  0  0  0
 31 29  1  0  0  0  0
 31 35  1  0  0  0  0
 32 31  1  0  0  0  0
 32 28  1  0  0  0  0
 34 33  1  0  0  0  0
 35 34  1  0  0  0  0
 35 33  1  0  0  0  0
 37 36  1  0  0  0  0
 38 37  2  0  0  0  0
 39 38  1  0  0  0  0
 40 39  1  1  0  0  0
 40 43  1  0  0  0  0
 41 44  1  0  0  0  0
 42 40  1  0  0  0  0
 42 41  1  0  0  0  0
 43 44  1  0  0  0  0
 45 36  1  0  0  0  0
 46 45  1  0  0  0  0
 47  5  1  0  0  0  0
 48 47  1  0  0  0  0
 49 48  1  0  0  0  0
 50 61  1  1  0  0  0
 50 55  1  0  0  0  0
 50 53  1  0  0  0  0
 51 52  1  0  0  0  0
 52 49  1  6  0  0  0
 53 52  1  0  0  0  0
 54 51  1  0  0  0  0
 54 58  1  1  0  0  0
 55 54  1  0  0  0  0
 57 58  1  0  0  0  0
 58 56  1  0  0  0  0
 58 59  1  0  0  0  0
 60 61  2  0  0  0  0
 61 62  1  0  0  0  0
 62 63  1  0  0  0  0
 63 64  1  1  0  0  0
 63 65  1  0  0  0  0
 65 66  1  0  0  0  0
M  END
>  <MODEL>
7

>  <REMARK>
 VINA RESULT:      -5.1      3.176      5.502
  Name = 
  23 active torsions:
  status: ('A' for Active; 'I' for Inactive)
    1  A    between atoms: C_1  and  C_5
    2  A    between atoms: C_1  and  C_27
    3  A    between atoms: N_2  and  N_11
    4  A    between atoms: C_5  and  C_37
    5  A    between atoms: C_7  and  C_10
    6  A    between atoms: C_7  and  N_59
    7  A    between atoms: C_9  and  N_11
    8  A    between atoms: N_11  and  C_54
    9  A    between atoms: C_12  and  C_53
   10  A    between atoms: C_12  and  C_64
   11  A    between atoms: C_13  and  C_53
   12  A    between atoms: C_23  and  C_37
   13  A    between atoms: C_24  and  C_38
   14  A    between atoms: C_24  and  C_56
   15  A    between atoms: C_28  and  C_36
   16  A    between atoms: C_28  and  C_46
   17  A    between atoms: C_30  and  C_51
   18  A    between atoms: C_35  and  C_61
   19  A    between atoms: O_41  and  C_44
   20  A    between atoms: C_42  and  C_54
   21  A    between atoms: C_44  and  C_53
   22  A    between atoms: C_47  and  C_50
   23  A    between atoms: C_51  and  C_56
                            x       y       z     vdW  Elec       q    Type
                         _______ _______ _______ _____ _____    ______ ____

>  <TORSDO>
F 23

$$$$
=
 OpenBabel10222418373D

 66 73  0  0  1  0  0  0  0  0999 V2000
  184.0720  175.2390  137.8560 C   0  0  0  0  0  3  0  0  0  0  0  0
  183.4890  173.4050  136.6110 C   0  0  0  0  0  0  0  0  0  0  0  0
  187.8550  172.4950  135.1010 C   0  0  0  0  0  3  0  0  0  0  0  0
  181.2900  172.2230  136.2440 C   0  0  0  0  0  1  0  0  0  0  0  0
  186.6050  175.3750  137.3290 C   0  0  0  0  0  0  0  0  0  0  0  0
  183.3090  171.4140  135.1760 N   0  0  0  0  0  0  0  0  0  0  0  0
  184.8970  173.7080  136.4530 C   0  0  0  0  0  0  0  0  0  0  0  0
  185.7250  171.8800  135.0280 C   0  0  0  0  0  0  0  0  0  0  0  0
  183.0240  174.3870  137.5020 C   0  0  0  0  0  0  0  0  0  0  0  0
  187.1470  173.4140  135.7900 N   0  0  0  0  0  0  0  0  0  0  0  0
  182.7630  172.3630  135.9950 C   0  0  0  0  0  0  0  0  0  0  0  0
  184.5730  171.1630  134.7370 C   0  0  0  0  0  3  0  0  0  0  0  0
  185.8630  173.0180  135.7730 C   0  0  0  0  0  0  0  0  0  0  0  0
  186.9950  171.5260  134.5950 C   0  0  0  0  0  3  0  0  0  0  0  0
  187.6900  174.5830  136.5030 C   0  0  0  0  0  0  0  0  0  0  0  0
  185.2070  174.8100  137.1980 C   0  0  0  0  0  0  0  0  0  0  0  0
  181.0860  175.9780  137.7720 C   0  0  0  0  0  1  0  0  0  0  0  0
  181.6090  174.5550  137.9660 C   0  0  0  0  0  2  0  0  0  0  0  0
  188.5140  175.4500  135.5370 C   0  0  0  0  0  2  0  0  0  0  0  0
  189.9710  175.5270  135.9770 C   0  0  2  0  0  3  0  0  0  0  0  0
  190.6350  174.1360  135.9740 C   0  0  2  0  0  3  0  0  0  0  0  0
  191.4020  173.7380  137.2380 C   0  0  0  0  0  1  0  0  0  0  0  0
  191.2390  173.7640  134.7500 O   0  0  0  0  0  0  0  0  0  0  0  0
  192.0940  172.6750  134.9810 C   0  0  0  0  0  1  0  0  0  0  0  0
  190.0820  176.2560  137.2850 C   0  0  0  0  0  3  0  0  0  0  0  0
  191.1530  176.9780  137.6230 C   0  0  0  0  0  3  0  0  0  0  0  0
  191.2340  177.6440  138.9570 C   0  0  0  0  0  2  0  0  0  0  0  0
  189.1050  178.0320  140.2190 C   0  0  0  0  0  2  0  0  0  0  0  0
  191.0640  176.6450  141.4840 S   0  0  0  0  0  0  0  0  0  0  0  0
  190.2230  177.0460  139.9280 C   0  0  2  0  0  3  0  0  0  0  0  0
  189.7890  177.4610  142.5200 C   0  0  2  0  0  0  0  0  0  0  0  0
  188.5980  177.7340  141.6150 C   0  0  0  0  0  2  0  0  0  0  0  0
  191.7990  178.8000  143.4430 C   0  0  0  0  0  2  0  0  0  0  0  0
  190.6380  179.1490  144.3550 C   0  0  0  0  0  2  0  0  0  0  0  0
  190.3900  178.8490  142.8940 C   0  0  0  0  0  3  0  0  0  0  0  0
  189.3580  176.5260  143.6050 N   0  0  0  0  0  0  0  0  0  0  0  0
  188.1460  176.7410  144.3040 N   0  0  0  0  0  0  0  0  0  0  0  0
  187.6790  177.9070  144.5160 N   0  0  0  0  0  0  0  0  0  0  0  0
  186.3940  178.0750  145.1800 C   0  0  0  0  0  2  0  0  0  0  0  0
  186.5270  177.6960  146.6530 C   0  0  1  0  0  3  0  0  0  0  0  0
  188.0800  177.8690  148.4250 C   0  0  0  0  0  2  0  0  0  0  0  0
  187.9510  177.3770  147.0050 C   0  0  0  0  0  2  0  0  0  0  0  0
  186.1500  178.8580  147.5410 C   0  0  0  0  0  2  0  0  0  0  0  0
  187.1340  178.9630  148.6140 N   0  0  0  0  0  2  0  0  0  0  0  0
  190.0680  175.3060  143.9680 C   0  0  0  0  0  2  0  0  0  0  0  0
  191.2110  175.6160  144.7030 O   0  0  0  0  0  1  0  0  0  0  0  0
  186.5960  176.8720  137.0390 C   0  0  0  0  0  2  0  0  0  0  0  0
  186.0600  177.6610  138.2330 C   0  0  0  0  0  2  0  0  0  0  0  0
  184.9100  178.5810  137.8340 C   0  0  0  0  0  2  0  0  0  0  0  0
  181.7180  179.1310  139.8170 C   0  0  1  0  0  3  0  0  0  0  0  0
  183.9570  177.8120  139.9220 O   0  0  0  0  0  0  0  0  0  0  0  0
  184.0420  178.9100  139.0430 C   0  0  2  0  0  3  0  0  0  0  0  0
  182.6410  179.3240  138.6140 C   0  0  0  0  0  2  0  0  0  0  0  0
  183.3920  178.2570  141.1500 C   0  0  2  0  0  3  0  0  0  0  0  0
  182.4300  179.3040  141.0230 O   0  0  0  0  0  0  0  0  0  0  0  0
  185.1960  177.5640  142.5530 F   0  0  0  0  0  0  0  0  0  0  0  0
  185.3410  179.5510  141.5110 F   0  0  0  0  0  0  0  0  0  0  0  0
  184.4810  178.6690  142.1320 C   0  0  0  0  0  0  0  0  0  0  0  0
  183.9090  179.2940  143.2310 F   0  0  0  0  0  0  0  0  0  0  0  0
  180.2230  180.7350  140.7260 O   0  0  0  0  0  0  0  0  0  0  0  0
  180.5390  180.0610  139.7540 C   0  0  0  0  0  0  0  0  0  0  0  0
  179.7580  180.1910  138.4780 C   0  0  0  0  0  2  0  0  0  0  0  0
  179.8090  181.6190  137.9340 C   0  0  1  0  0  3  0  0  0  0  0  0
  181.1260  181.9530  137.6060 O   0  0  0  0  0  1  0  0  0  0  0  0
  178.9550  181.7320  136.6860 C   0  0  0  0  0  2  0  0  0  0  0  0
  179.2900  182.8800  135.9670 O   0  0  0  0  0  1  0  0  0  0  0  0
  2  9  2  0  0  0  0
  3 10  1  0  0  0  0
  6 11  2  0  0  0  0
  7  2  1  0  0  0  0
  7 16  1  0  0  0  0
  8 13  1  0  0  0  0
  9  1  1  0  0  0  0
  9 18  1  0  0  0  0
 10 15  1  0  0  0  0
 11  4  1  0  0  0  0
 11  2  1  0  0  0  0
 12  8  2  0  0  0  0
 12  6  1  0  0  0  0
 13 10  1  0  0  0  0
 13  7  2  0  0  0  0
 14  8  1  0  0  0  0
 14  3  2  0  0  0  0
 15  5  2  0  0  0  0
 16  5  1  0  0  0  0
 16  1  2  0  0  0  0
 17 18  1  0  0  0  0
 19 15  1  0  0  0  0
 20 19  1  1  0  0  0
 20 25  1  0  0  0  0
 21 20  1  0  0  0  0
 21 22  1  1  0  0  0
 23 24  1  0  0  0  0
 23 21  1  0  0  0  0
 25 26  2  0  0  0  0
 26 27  1  0  0  0  0
 28 32  1  0  0  0  0
 29 31  1  0  0  0  0
 30 27  1  6  0  0  0
 30 28  1  0  0  0  0
 30 29  1  0  0  0  0
 31 35  1  0  0  0  0
 31 36  1  1  0  0  0
 32 31  1  0  0  0  0
 33 34  1  0  0  0  0
 35 33  1  0  0  0  0
 35 34  1  0  0  0  0
 36 45  1  0  0  0  0
 36 37  1  0  0  0  0
 37 38  2  0  0  0  0
 38 39  1  0  0  0  0
 40 39  1  6  0  0  0
 40 42  1  0  0  0  0
 40 43  1  0  0  0  0
 41 44  1  0  0  0  0
 42 41  1  0  0  0  0
 43 44  1  0  0  0  0
 45 46  1  0  0  0  0
 47  5  1  0  0  0  0
 47 48  1  0  0  0  0
 49 48  1  0  0  0  0
 50 61  1  6  0  0  0
 50 55  1  0  0  0  0
 51 54  1  0  0  0  0
 52 49  1  6  0  0  0
 52 51  1  0  0  0  0
 53 52  1  0  0  0  0
 53 50  1  0  0  0  0
 54 58  1  1  0  0  0
 55 54  1  0  0  0  0
 57 58  1  0  0  0  0
 58 56  1  0  0  0  0
 58 59  1  0  0  0  0
 61 60  2  0  0  0  0
 62 61  1  0  0  0  0
 63 64  1  6  0  0  0
 63 62  1  0  0  0  0
 65 63  1  0  0  0  0
 66 65  1  0  0  0  0
M  END
>  <MODEL>
8

>  <REMARK>
 VINA RESULT:      -5.0      3.760     11.320
  Name = 
  23 active torsions:
  status: ('A' for Active; 'I' for Inactive)
    1  A    between atoms: C_1  and  C_5
    2  A    between atoms: C_1  and  C_27
    3  A    between atoms: N_2  and  N_11
    4  A    between atoms: C_5  and  C_37
    5  A    between atoms: C_7  and  C_10
    6  A    between atoms: C_7  and  N_59
    7  A    between atoms: C_9  and  N_11
    8  A    between atoms: N_11  and  C_54
    9  A    between atoms: C_12  and  C_53
   10  A    between atoms: C_12  and  C_64
   11  A    between atoms: C_13  and  C_53
   12  A    between atoms: C_23  and  C_37
   13  A    between atoms: C_24  and  C_38
   14  A    between atoms: C_24  and  C_56
   15  A    between atoms: C_28  and  C_36
   16  A    between atoms: C_28  and  C_46
   17  A    between atoms: C_30  and  C_51
   18  A    between atoms: C_35  and  C_61
   19  A    between atoms: O_41  and  C_44
   20  A    between atoms: C_42  and  C_54
   21  A    between atoms: C_44  and  C_53
   22  A    between atoms: C_47  and  C_50
   23  A    between atoms: C_51  and  C_56
                            x       y       z     vdW  Elec       q    Type
                         _______ _______ _______ _____ _____    ______ ____

>  <TORSDO>
F 23

$$$$
