=
 OpenBabel10222415153D

 34 39  0  0  1  0  0  0  0  0999 V2000
  188.5140  177.5900  135.7530 O   0  0  0  0  0  0  0  0  0  0  0  0
  183.4470  179.3200  143.1860 O   0  0  0  0  0  0  0  0  0  0  0  0
  185.2040  178.7890  141.7580 N   0  0  0  0  0  0  0  0  0  0  0  0
  184.8130  178.9990  140.4040 C   0  0  2  0  0  0  0  0  0  0  0  0
  183.8340  177.9110  139.9490 C   0  0  2  0  0  3  0  0  0  0  0  0
  185.8260  178.2600  146.5880 O   0  0  0  0  0  1  0  0  0  0  0  0
  187.8180  178.1110  141.5320 C   0  0  0  0  0  2  0  0  0  0  0  0
  185.4090  178.5470  144.2070 N   0  0  0  0  0  2  0  0  0  0  0  0
  184.9610  178.6180  145.5630 C   0  0  0  0  0  0  0  0  0  0  0  0
  185.9790  175.7130  137.6290 C   0  0  0  0  0  2  0  0  0  0  0  0
  189.1880  178.1090  137.9420 C   0  0  0  0  0  2  0  0  0  0  0  0
  184.7460  175.5700  136.9910 O   0  0  0  0  0  0  0  0  0  0  0  0
  187.0850  175.2530  136.7000 C   0  0  0  0  0  2  0  0  0  0  0  0
  186.5280  178.4870  141.2140 C   0  0  2  0  0  0  0  0  0  0  0  0
  186.1290  178.7230  139.8980 C   0  0  0  0  0  0  0  0  0  0  0  0
  181.3590  177.7120  139.6700 N   0  0  1  0  0  0  0  0  0  0  0  0
  183.7240  177.8850  138.4880 N   0  0  0  0  0  2  0  0  0  0  0  0
  188.6880  177.1720  136.8870 C   0  0  0  0  0  0  0  0  0  0  0  0
  183.7940  179.0030  145.8430 O   0  0  0  0  0  0  0  0  0  0  0  0
  184.6280  178.9000  143.0590 C   0  0  0  0  0  0  0  0  0  0  0  0
  188.6770  177.9890  140.4060 C   0  0  0  0  0  3  0  0  0  0  0  0
  188.4430  175.7220  137.2100 C   0  0  2  0  0  3  0  0  0  0  0  0
  188.2180  178.2430  139.0680 C   0  0  0  0  0  0  0  0  0  0  0  0
  186.9180  178.6240  138.8140 N   0  0  0  0  0  0  0  0  0  0  0  0
  182.4450  178.1040  140.5800 C   0  0  0  0  0  2  0  0  0  0  0  0
  183.8120  175.4680  138.0240 C   0  0  0  0  0  2  0  0  0  0  0  0
  182.9370  176.7140  138.0690 C   0  0  1  0  0  3  0  0  0  0  0  0
  181.7290  176.4720  138.9850 C   0  0  0  0  0  2  0  0  0  0  0  0
  189.6610  174.6810  135.4260 O   0  0  0  0  0  0  0  0  0  0  0  0
  190.4660  174.3060  137.5390 O   0  0  0  0  0  1  0  0  0  0  0  0
  189.5440  174.8690  136.6680 C   0  0  0  0  0  0  0  0  0  0  0  0
  179.9870  178.5320  141.5060 C   0  0  0  0  0  2  0  0  0  0  0  0
  179.1300  178.4820  140.2610 C   0  0  0  0  0  2  0  0  0  0  0  0
  180.1920  177.4200  140.4910 C   0  0  0  0  0  3  0  0  0  0  0  0
  1 18  2  0  0  0  0
  3 20  1  0  0  0  0
  4 15  1  6  0  0  0
  4 14  1  0  0  0  0
  4  3  1  0  0  0  0
  5  4  1  0  0  0  0
  5 25  1  1  0  0  0
  8  9  1  0  0  0  0
  9 19  2  0  0  0  0
  9  6  1  0  0  0  0
 11 23  1  0  0  0  0
 12 10  1  0  0  0  0
 12 26  1  0  0  0  0
 13 22  1  0  0  0  0
 13 10  1  0  0  0  0
 14  7  1  6  0  0  0
 14  3  1  0  0  0  0
 15 14  1  0  0  0  0
 16 34  1  1  0  0  0
 16 25  1  0  0  0  0
 17  5  1  0  0  0  0
 18 22  1  0  0  0  0
 18 11  1  0  0  0  0
 20  2  2  0  0  0  0
 20  8  1  0  0  0  0
 21  7  1  0  0  0  0
 22 31  1  6  0  0  0
 23 21  2  0  0  0  0
 24 23  1  0  0  0  0
 24 15  2  0  0  0  0
 27 26  1  1  0  0  0
 27 17  1  0  0  0  0
 27 28  1  0  0  0  0
 28 16  1  0  0  0  0
 29 31  2  0  0  0  0
 31 30  1  0  0  0  0
 33 34  1  0  0  0  0
 33 32  1  0  0  0  0
 34 32  1  0  0  0  0
M  END
>  <MODEL>
1

>  <REMARK>
 VINA RESULT:      -7.9      0.000      0.000
  Name = 
  2 active torsions:
  status: ('A' for Active; 'I' for Inactive)
    1  A    between atoms: N_19  and  C_27
    2  A    between atoms: C_21  and  C_28
                            x       y       z     vdW  Elec       q    Type
                         _______ _______ _______ _____ _____    ______ ____

>  <TORSDO>
F 2

$$$$
=
 OpenBabel10222415153D

 34 39  0  0  1  0  0  0  0  0999 V2000
  180.1260  180.8660  142.3840 O   0  0  0  0  0  0  0  0  0  0  0  0
  185.2800  176.3300  136.3200 O   0  0  0  0  0  0  0  0  0  0  0  0
  183.5490  176.9870  137.7260 N   0  0  0  0  0  0  0  0  0  0  0  0
  183.8220  178.2770  138.2670 C   0  0  2  0  0  0  0  0  0  0  0  0
  184.9330  178.1970  139.3200 C   0  0  2  0  0  3  0  0  0  0  0  0
  183.3020  172.6110  135.5400 O   0  0  0  0  0  1  0  0  0  0  0  0
  181.0670  176.4510  138.6720 C   0  0  0  0  0  2  0  0  0  0  0  0
  183.5280  174.7980  136.5850 N   0  0  0  0  0  2  0  0  0  0  0  0
  184.0380  173.7720  135.7280 C   0  0  0  0  0  0  0  0  0  0  0  0
  183.0320  178.6370  142.6370 C   0  0  0  0  0  2  0  0  0  0  0  0
  179.5070  179.2400  140.8060 C   0  0  0  0  0  2  0  0  0  0  0  0
  184.2320  179.2570  142.9870 O   0  0  0  0  0  0  0  0  0  0  0  0
  181.9600  179.0080  143.6440 C   0  0  0  0  0  2  0  0  0  0  0  0
  182.2600  177.0940  138.4100 C   0  0  2  0  0  0  0  0  0  0  0  0
  182.5390  178.3680  138.9070 C   0  0  0  0  0  0  0  0  0  0  0  0
  187.3870  178.6580  139.3920 N   0  0  1  0  0  0  0  0  0  0  0  0
  184.9600  179.4100  140.1430 N   0  0  0  0  0  2  0  0  0  0  0  0
  180.0870  179.6750  142.1160 C   0  0  0  0  0  0  0  0  0  0  0  0
  185.1430  173.9080  135.1380 O   0  0  0  0  0  0  0  0  0  0  0  0
  184.1750  176.0470  136.8540 C   0  0  0  0  0  0  0  0  0  0  0  0
  180.1740  177.2010  139.4840 C   0  0  0  0  0  3  0  0  0  0  0  0
  180.5770  178.6540  143.1090 C   0  0  2  0  0  3  0  0  0  0  0  0
  180.5080  178.5110  139.9730 C   0  0  0  0  0  0  0  0  0  0  0  0
  181.7140  179.1050  139.6710 N   0  0  0  0  0  0  0  0  0  0  0  0
  186.3080  177.9680  138.6710 C   0  0  0  0  0  2  0  0  0  0  0  0
  185.2290  178.4720  142.4040 C   0  0  0  0  0  2  0  0  0  0  0  0
  185.8970  179.2300  141.2630 C   0  0  1  0  0  3  0  0  0  0  0  0
  187.1800  178.5040  140.8330 C   0  0  0  0  0  2  0  0  0  0  0  0
  179.3680  177.3550  144.7220 O   0  0  0  0  0  0  0  0  0  0  0  0
  178.9520  179.6100  144.7380 O   0  0  0  0  0  1  0  0  0  0  0  0
  179.5950  178.4920  144.2240 C   0  0  0  0  0  0  0  0  0  0  0  0
  188.5500  177.4150  137.6520 C   0  0  0  0  0  2  0  0  0  0  0  0
  189.3120  178.6960  137.9070 C   0  0  0  0  0  2  0  0  0  0  0  0
  188.6320  177.9780  139.0600 C   0  0  0  0  0  3  0  0  0  0  0  0
  2 20  2  0  0  0  0
  3  4  1  0  0  0  0
  3 14  1  0  0  0  0
  4 14  1  0  0  0  0
  4 15  1  6  0  0  0
  4  5  1  0  0  0  0
  5 25  1  6  0  0  0
  5 17  1  0  0  0  0
  6  9  1  0  0  0  0
  7 21  1  0  0  0  0
  8 20  1  0  0  0  0
  9  8  1  0  0  0  0
 10 12  1  0  0  0  0
 10 13  1  0  0  0  0
 11 18  1  0  0  0  0
 14  7  1  1  0  0  0
 14 15  1  0  0  0  0
 15 24  2  0  0  0  0
 16 34  1  6  0  0  0
 16 28  1  0  0  0  0
 17 27  1  0  0  0  0
 18  1  2  0  0  0  0
 18 22  1  0  0  0  0
 19  9  2  0  0  0  0
 20  3  1  0  0  0  0
 21 23  2  0  0  0  0
 22 13  1  0  0  0  0
 22 31  1  1  0  0  0
 23 11  1  0  0  0  0
 24 23  1  0  0  0  0
 25 16  1  0  0  0  0
 26 12  1  0  0  0  0
 27 28  1  6  0  0  0
 27 26  1  0  0  0  0
 31 29  2  0  0  0  0
 31 30  1  0  0  0  0
 32 33  1  0  0  0  0
 32 34  1  0  0  0  0
 33 34  1  0  0  0  0
M  END
>  <MODEL>
2

>  <REMARK>
 VINA RESULT:      -7.5      2.244      8.621
  Name = 
  2 active torsions:
  status: ('A' for Active; 'I' for Inactive)
    1  A    between atoms: N_19  and  C_27
    2  A    between atoms: C_21  and  C_28
                            x       y       z     vdW  Elec       q    Type
                         _______ _______ _______ _____ _____    ______ ____

>  <TORSDO>
F 2

$$$$
=
 OpenBabel10222415153D

 34 39  0  0  1  0  0  0  0  0999 V2000
  189.4100  177.6210  135.9460 O   0  0  0  0  0  0  0  0  0  0  0  0
  182.3670  178.9090  141.6610 O   0  0  0  0  0  0  0  0  0  0  0  0
  184.5010  178.6610  140.7710 N   0  0  0  0  0  0  0  0  0  0  0  0
  184.4350  178.6130  139.3490 C   0  0  2  0  0  0  0  0  0  0  0  0
  183.8510  177.2760  138.8780 C   0  0  2  0  0  3  0  0  0  0  0  0
  183.9640  178.8510  145.6360 O   0  0  0  0  0  1  0  0  0  0  0  0
  187.1680  178.6140  141.2510 C   0  0  0  0  0  2  0  0  0  0  0  0
  184.1190  178.7550  143.2090 N   0  0  0  0  0  2  0  0  0  0  0  0
  183.3350  178.8700  144.3990 C   0  0  0  0  0  0  0  0  0  0  0  0
  186.9240  175.4130  137.5010 C   0  0  0  0  0  2  0  0  0  0  0  0
  189.3800  178.5340  138.1100 C   0  0  0  0  0  2  0  0  0  0  0  0
  185.9530  174.9050  136.6380 O   0  0  0  0  0  0  0  0  0  0  0  0
  188.3020  175.1320  136.9330 C   0  0  0  0  0  2  0  0  0  0  0  0
  185.9530  178.6280  140.5950 C   0  0  2  0  0  0  0  0  0  0  0  0
  185.8640  178.6090  139.2020 C   0  0  0  0  0  0  0  0  0  0  0  0
  181.6270  176.4540  138.0930 N   0  0  1  0  0  0  0  0  0  0  0  0
  184.1260  177.0580  137.4560 N   0  0  0  0  0  2  0  0  0  0  0  0
  189.3710  177.3900  137.1440 C   0  0  0  0  0  0  0  0  0  0  0  0
  182.0820  178.9900  144.3430 O   0  0  0  0  0  0  0  0  0  0  0  0
  183.6020  178.7760  141.8730 C   0  0  0  0  0  0  0  0  0  0  0  0
  188.2920  178.5760  140.3820 C   0  0  0  0  0  3  0  0  0  0  0  0
  189.3570  175.9700  137.6460 C   0  0  2  0  0  3  0  0  0  0  0  0
  188.1480  178.5560  138.9530 C   0  0  0  0  0  0  0  0  0  0  0  0
  186.9070  178.5800  138.3540 N   0  0  0  0  0  0  0  0  0  0  0  0
  182.3380  177.1980  139.1430 C   0  0  0  0  0  2  0  0  0  0  0  0
  184.8280  174.6980  137.4400 C   0  0  0  0  0  2  0  0  0  0  0  0
  183.7320  175.6920  137.0760 C   0  0  1  0  0  3  0  0  0  0  0  0
  182.4070  175.2710  137.7280 C   0  0  0  0  0  2  0  0  0  0  0  0
  190.8610  174.1030  137.5930 O   0  0  0  0  0  1  0  0  0  0  0  0
  191.8120  176.1630  137.2700 O   0  0  0  0  0  0  0  0  0  0  0  0
  190.7120  175.3530  137.5150 C   0  0  0  0  0  0  0  0  0  0  0  0
  179.7140  177.1090  139.4500 C   0  0  0  0  0  2  0  0  0  0  0  0
  179.2140  176.7560  138.0670 C   0  0  0  0  0  2  0  0  0  0  0  0
  180.3750  175.9840  138.6710 C   0  0  0  0  0  3  0  0  0  0  0  0
  1 18  2  0  0  0  0
  2 20  2  0  0  0  0
  3 20  1  0  0  0  0
  4 15  1  6  0  0  0
  4 14  1  0  0  0  0
  4  3  1  0  0  0  0
  5 25  1  6  0  0  0
  5  4  1  0  0  0  0
  8  9  1  0  0  0  0
  9  6  1  0  0  0  0
 11 23  1  0  0  0  0
 12 26  1  0  0  0  0
 12 10  1  0  0  0  0
 13 10  1  0  0  0  0
 13 22  1  0  0  0  0
 14  3  1  0  0  0  0
 14  7  1  1  0  0  0
 15 14  1  0  0  0  0
 16 34  1  1  0  0  0
 16 25  1  0  0  0  0
 17  5  1  0  0  0  0
 18 22  1  0  0  0  0
 18 11  1  0  0  0  0
 19  9  2  0  0  0  0
 20  8  1  0  0  0  0
 21  7  1  0  0  0  0
 22 31  1  6  0  0  0
 23 21  2  0  0  0  0
 24 23  1  0  0  0  0
 24 15  2  0  0  0  0
 27 26  1  1  0  0  0
 27 17  1  0  0  0  0
 27 28  1  0  0  0  0
 28 16  1  0  0  0  0
 30 31  2  0  0  0  0
 31 29  1  0  0  0  0
 33 34  1  0  0  0  0
 33 32  1  0  0  0  0
 34 32  1  0  0  0  0
M  END
>  <MODEL>
3

>  <REMARK>
 VINA RESULT:      -7.5      1.344      1.610
  Name = 
  2 active torsions:
  status: ('A' for Active; 'I' for Inactive)
    1  A    between atoms: N_19  and  C_27
    2  A    between atoms: C_21  and  C_28
                            x       y       z     vdW  Elec       q    Type
                         _______ _______ _______ _____ _____    ______ ____

>  <TORSDO>
F 2

$$$$
=
 OpenBabel10222415153D

 34 39  0  0  1  0  0  0  0  0999 V2000
  184.1810  180.5030  139.0940 O   0  0  0  0  0  0  0  0  0  0  0  0
  189.2370  173.8110  135.4080 O   0  0  0  0  0  0  0  0  0  0  0  0
  187.4810  175.0440  136.3070 N   0  0  0  0  0  0  0  0  0  0  0  0
  187.8750  176.4030  136.4740 C   0  0  2  0  0  0  0  0  0  0  0  0
  188.8540  176.5430  137.6440 C   0  0  2  0  0  3  0  0  0  0  0  0
  186.8510  170.2530  135.5030 O   0  0  0  0  0  1  0  0  0  0  0  0
  184.8680  175.0810  137.0210 C   0  0  0  0  0  2  0  0  0  0  0  0
  187.2720  172.6220  135.8740 N   0  0  0  0  0  2  0  0  0  0  0  0
  187.7180  171.3350  135.4370 C   0  0  0  0  0  0  0  0  0  0  0  0
  186.7120  178.1820  140.3900 C   0  0  0  0  0  2  0  0  0  0  0  0
  183.5030  178.5380  137.9990 C   0  0  0  0  0  2  0  0  0  0  0  0
  187.9460  178.7550  140.7010 O   0  0  0  0  0  0  0  0  0  0  0  0
  185.6070  178.9530  141.0850 C   0  0  0  0  0  2  0  0  0  0  0  0
  186.1580  175.4880  136.7460 C   0  0  2  0  0  0  0  0  0  0  0  0
  186.5600  176.8180  136.8760 C   0  0  0  0  0  0  0  0  0  0  0  0
  191.3290  176.7530  137.9110 N   0  0  1  0  0  0  0  0  0  0  0  0
  188.9670  177.9420  138.0660 N   0  0  0  0  0  2  0  0  0  0  0  0
  184.0050  179.2980  139.1870 C   0  0  0  0  0  0  0  0  0  0  0  0
  188.8850  171.1680  134.9910 O   0  0  0  0  0  0  0  0  0  0  0  0
  188.0550  173.8210  135.8470 C   0  0  0  0  0  0  0  0  0  0  0  0
  184.0110  176.1330  137.4440 C   0  0  0  0  0  3  0  0  0  0  0  0
  184.2480  178.5920  140.4950 C   0  0  2  0  0  3  0  0  0  0  0  0
  184.4720  177.4890  137.5640 C   0  0  0  0  0  0  0  0  0  0  0  0
  185.7720  177.8350  137.2670 N   0  0  0  0  0  0  0  0  0  0  0  0
  190.2420  175.9860  137.2860 C   0  0  0  0  0  2  0  0  0  0  0  0
  188.8780  177.7310  140.5180 C   0  0  0  0  0  2  0  0  0  0  0  0
  189.7540  178.0260  139.3070 C   0  0  1  0  0  3  0  0  0  0  0  0
  190.9600  177.0760  139.2910 C   0  0  0  0  0  2  0  0  0  0  0  0
  181.9550  178.9940  141.0690 O   0  0  0  0  0  0  0  0  0  0  0  0
  183.4400  179.0030  142.8150 O   0  0  0  0  0  1  0  0  0  0  0  0
  183.1480  178.8840  141.4630 C   0  0  0  0  0  0  0  0  0  0  0  0
  192.6870  175.1910  136.6290 C   0  0  0  0  0  2  0  0  0  0  0  0
  193.5500  176.3780  136.9940 C   0  0  0  0  0  2  0  0  0  0  0  0
  192.4950  175.8820  137.9690 C   0  0  0  0  0  3  0  0  0  0  0  0
  1 18  2  0  0  0  0
  2 20  2  0  0  0  0
  3  4  1  0  0  0  0
  3 14  1  0  0  0  0
  4 14  1  0  0  0  0
  4 15  1  6  0  0  0
  4  5  1  0  0  0  0
  5 25  1  6  0  0  0
  5 17  1  0  0  0  0
  7 21  1  0  0  0  0
  9  6  1  0  0  0  0
  9  8  1  0  0  0  0
 10 12  1  0  0  0  0
 10 13  1  0  0  0  0
 11 18  1  0  0  0  0
 14 15  1  0  0  0  0
 14  7  1  1  0  0  0
 15 24  2  0  0  0  0
 16 34  1  1  0  0  0
 16 28  1  0  0  0  0
 17 27  1  0  0  0  0
 18 22  1  0  0  0  0
 19  9  2  0  0  0  0
 20  8  1  0  0  0  0
 20  3  1  0  0  0  0
 21 23  2  0  0  0  0
 22 13  1  0  0  0  0
 22 31  1  1  0  0  0
 23 11  1  0  0  0  0
 24 23  1  0  0  0  0
 25 16  1  0  0  0  0
 26 12  1  0  0  0  0
 27 28  1  6  0  0  0
 27 26  1  0  0  0  0
 29 31  2  0  0  0  0
 31 30  1  0  0  0  0
 32 33  1  0  0  0  0
 32 34  1  0  0  0  0
 33 34  1  0  0  0  0
M  END
>  <MODEL>
4

>  <REMARK>
 VINA RESULT:      -7.3      2.889      8.740
  Name = 
  2 active torsions:
  status: ('A' for Active; 'I' for Inactive)
    1  A    between atoms: N_19  and  C_27
    2  A    between atoms: C_21  and  C_28
                            x       y       z     vdW  Elec       q    Type
                         _______ _______ _______ _____ _____    ______ ____

>  <TORSDO>
F 2

$$$$
=
 OpenBabel10222415153D

 34 39  0  0  1  0  0  0  0  0999 V2000
  191.9680  176.4810  135.9280 O   0  0  0  0  0  0  0  0  0  0  0  0
  185.6320  179.1870  141.9660 O   0  0  0  0  0  0  0  0  0  0  0  0
  187.5360  178.2800  140.9860 N   0  0  0  0  0  0  0  0  0  0  0  0
  187.5830  178.6220  139.6040 C   0  0  2  0  0  0  0  0  0  0  0  0
  186.5380  177.8280  138.8130 C   0  0  2  0  0  3  0  0  0  0  0  0
  186.6930  177.4610  145.7410 O   0  0  0  0  0  1  0  0  0  0  0  0
  189.8820  176.9780  141.3650 C   0  0  0  0  0  2  0  0  0  0  0  0
  187.0120  177.9170  143.3710 N   0  0  0  0  0  2  0  0  0  0  0  0
  186.2440  178.0550  144.5700 C   0  0  0  0  0  0  0  0  0  0  0  0
  188.6570  175.2380  136.9110 C   0  0  0  0  0  2  0  0  0  0  0  0
  192.1290  176.7470  138.2560 C   0  0  0  0  0  2  0  0  0  0  0  0
  187.6440  175.4270  135.9710 O   0  0  0  0  0  0  0  0  0  0  0  0
  189.8340  174.5460  136.2530 C   0  0  0  0  0  2  0  0  0  0  0  0
  188.8500  177.6740  140.7680 C   0  0  2  0  0  0  0  0  0  0  0  0
  188.8860  178.0430  139.4230 C   0  0  0  0  0  0  0  0  0  0  0  0
  184.2540  178.2610  137.8990 N   0  0  1  0  0  0  0  0  0  0  0  0
  186.8220  177.8750  137.3760 N   0  0  0  0  0  2  0  0  0  0  0  0
  191.7270  175.9970  137.0240 C   0  0  0  0  0  0  0  0  0  0  0  0
  185.1670  178.7100  144.5810 O   0  0  0  0  0  0  0  0  0  0  0  0
  186.6730  178.4890  142.1030 C   0  0  0  0  0  0  0  0  0  0  0  0
  190.9590  176.6810  140.4870 C   0  0  0  0  0  3  0  0  0  0  0  0
  191.0750  174.6450  137.1330 C   0  0  2  0  0  3  0  0  0  0  0  0
  190.9490  177.0830  139.1080 C   0  0  0  0  0  0  0  0  0  0  0  0
  189.8920  177.7840  138.5700 N   0  0  0  0  0  0  0  0  0  0  0  0
  185.1150  178.3410  139.0870 C   0  0  0  0  0  2  0  0  0  0  0  0
  186.4690  175.5290  136.7190 C   0  0  0  0  0  2  0  0  0  0  0  0
  185.9280  176.9520  136.6610 C   0  0  1  0  0  3  0  0  0  0  0  0
  184.4960  176.9900  137.2130 C   0  0  0  0  0  2  0  0  0  0  0  0
  191.7380  172.6260  136.0220 O   0  0  0  0  0  0  0  0  0  0  0  0
  193.3290  173.6060  137.3500 O   0  0  0  0  0  1  0  0  0  0  0  0
  192.0520  173.5620  136.8070 C   0  0  0  0  0  0  0  0  0  0  0  0
  182.7280  179.1590  139.5690 C   0  0  0  0  0  2  0  0  0  0  0  0
  182.2670  179.6280  138.2080 C   0  0  0  0  0  2  0  0  0  0  0  0
  182.8740  178.2450  138.3650 C   0  0  0  0  0  3  0  0  0  0  0  0
  1 18  2  0  0  0  0
  2 20  2  0  0  0  0
  3 20  1  0  0  0  0
  4 15  1  6  0  0  0
  4 14  1  0  0  0  0
  4  3  1  0  0  0  0
  5 25  1  6  0  0  0
  5  4  1  0  0  0  0
  8  9  1  0  0  0  0
  9 19  2  0  0  0  0
  9  6  1  0  0  0  0
 11 23  1  0  0  0  0
 12 26  1  0  0  0  0
 12 10  1  0  0  0  0
 13 10  1  0  0  0  0
 13 22  1  0  0  0  0
 14  3  1  0  0  0  0
 14  7  1  6  0  0  0
 15 14  1  0  0  0  0
 16 34  1  1  0  0  0
 16 25  1  0  0  0  0
 17  5  1  0  0  0  0
 18 22  1  0  0  0  0
 18 11  1  0  0  0  0
 20  8  1  0  0  0  0
 21  7  1  0  0  0  0
 22 31  1  6  0  0  0
 23 21  2  0  0  0  0
 24 23  1  0  0  0  0
 24 15  2  0  0  0  0
 27 26  1  1  0  0  0
 27 28  1  0  0  0  0
 27 17  1  0  0  0  0
 28 16  1  0  0  0  0
 29 31  2  0  0  0  0
 31 30  1  0  0  0  0
 33 34  1  0  0  0  0
 33 32  1  0  0  0  0
 34 32  1  0  0  0  0
M  END
>  <MODEL>
5

>  <REMARK>
 VINA RESULT:      -7.2      2.016      2.914
  Name = 
  2 active torsions:
  status: ('A' for Active; 'I' for Inactive)
    1  A    between atoms: N_19  and  C_27
    2  A    between atoms: C_21  and  C_28
                            x       y       z     vdW  Elec       q    Type
                         _______ _______ _______ _____ _____    ______ ____

>  <TORSDO>
F 2

$$$$
=
 OpenBabel10222415153D

 34 39  0  0  1  0  0  0  0  0999 V2000
  182.3100  180.1470  139.3330 O   0  0  0  0  0  0  0  0  0  0  0  0
  190.7240  176.5440  138.9560 O   0  0  0  0  0  0  0  0  0  0  0  0
  188.4800  177.0160  138.5690 N   0  0  0  0  0  0  0  0  0  0  0  0
  188.0910  178.1730  139.3030 C   0  0  2  0  0  0  0  0  0  0  0  0
  187.9860  177.8550  140.7990 C   0  0  2  0  0  3  0  0  0  0  0  0
  190.4980  173.1200  136.3900 O   0  0  0  0  0  0  0  0  0  0  0  0
  186.2530  176.4330  137.1390 C   0  0  0  0  0  2  0  0  0  0  0  0
  189.5900  175.0700  137.5300 N   0  0  0  0  0  2  0  0  0  0  0  0
  190.6850  174.1930  137.2500 C   0  0  0  0  0  0  0  0  0  0  0  0
  184.1880  177.7780  141.4160 C   0  0  0  0  0  2  0  0  0  0  0  0
  183.3190  178.8620  137.6450 C   0  0  0  0  0  2  0  0  0  0  0  0
  184.6020  178.2690  142.6540 O   0  0  0  0  0  0  0  0  0  0  0  0
  182.6980  178.0110  141.2530 C   0  0  0  0  0  2  0  0  0  0  0  0
  187.1320  177.0570  138.0010 C   0  0  2  0  0  0  0  0  0  0  0  0
  186.7830  178.2070  138.7110 C   0  0  0  0  0  0  0  0  0  0  0  0
  189.4190  178.1820  142.8180 N   0  0  1  0  0  0  0  0  0  0  0  0
  187.2340  178.8970  141.5030 N   0  0  0  0  0  2  0  0  0  0  0  0
  182.6250  179.0270  138.9620 C   0  0  0  0  0  0  0  0  0  0  0  0
  191.8180  174.3820  137.7680 O   0  0  0  0  0  1  0  0  0  0  0  0
  189.6490  176.2200  138.3820 C   0  0  0  0  0  0  0  0  0  0  0  0
  184.9840  177.0660  137.0530 C   0  0  0  0  0  3  0  0  0  0  0  0
  182.2820  177.8230  139.7980 C   0  0  2  0  0  3  0  0  0  0  0  0
  184.6700  178.2490  137.8060 C   0  0  0  0  0  0  0  0  0  0  0  0
  185.5940  178.8320  138.6460 N   0  0  0  0  0  0  0  0  0  0  0  0
  189.3750  177.6830  141.4360 C   0  0  0  0  0  2  0  0  0  0  0  0
  185.7650  177.5570  142.9550 C   0  0  0  0  0  2  0  0  0  0  0  0
  186.9790  178.4750  142.8890 C   0  0  1  0  0  3  0  0  0  0  0  0
  188.1960  177.7800  143.5160 C   0  0  0  0  0  2  0  0  0  0  0  0
  180.3470  177.0130  138.6360 O   0  0  0  0  0  0  0  0  0  0  0  0
  179.9960  177.7320  140.7840 O   0  0  0  0  0  1  0  0  0  0  0  0
  180.8240  177.5080  139.6930 C   0  0  0  0  0  0  0  0  0  0  0  0
  191.7630  177.5620  142.5920 C   0  0  0  0  0  2  0  0  0  0  0  0
  191.6380  178.5220  143.7540 C   0  0  0  0  0  2  0  0  0  0  0  0
  190.5320  177.5160  143.4820 C   0  0  0  0  0  3  0  0  0  0  0  0
  3  4  1  0  0  0  0
  4 15  1  6  0  0  0
  4  5  1  0  0  0  0
  5 25  1  1  0  0  0
  5 17  1  0  0  0  0
  6  9  2  0  0  0  0
  8 20  1  0  0  0  0
  9  8  1  0  0  0  0
  9 19  1  0  0  0  0
 10 12  1  0  0  0  0
 11 23  1  0  0  0  0
 11 18  1  0  0  0  0
 12 26  1  0  0  0  0
 13 10  1  0  0  0  0
 14  7  1  1  0  0  0
 14  3  1  0  0  0  0
 14 15  1  0  0  0  0
 14  4  1  0  0  0  0
 16 34  1  1  0  0  0
 16 28  1  0  0  0  0
 17 27  1  0  0  0  0
 18  1  2  0  0  0  0
 18 22  1  0  0  0  0
 20  3  1  0  0  0  0
 20  2  2  0  0  0  0
 21  7  1  0  0  0  0
 21 23  2  0  0  0  0
 22 31  1  1  0  0  0
 22 13  1  0  0  0  0
 23 24  1  0  0  0  0
 24 15  2  0  0  0  0
 25 16  1  0  0  0  0
 27 26  1  6  0  0  0
 27 28  1  0  0  0  0
 29 31  2  0  0  0  0
 31 30  1  0  0  0  0
 32 34  1  0  0  0  0
 32 33  1  0  0  0  0
 34 33  1  0  0  0  0
M  END
>  <MODEL>
6

>  <REMARK>
 VINA RESULT:      -7.1      2.528      7.860
  Name = 
  2 active torsions:
  status: ('A' for Active; 'I' for Inactive)
    1  A    between atoms: N_19  and  C_27
    2  A    between atoms: C_21  and  C_28
                            x       y       z     vdW  Elec       q    Type
                         _______ _______ _______ _____ _____    ______ ____

>  <TORSDO>
F 2

$$$$
=
 OpenBabel10222415153D

 34 39  0  0  1  0  0  0  0  0999 V2000
  187.0560  179.7560  136.2560 O   0  0  0  0  0  0  0  0  0  0  0  0
  189.7840  177.5560  144.7210 O   0  0  0  0  0  0  0  0  0  0  0  0
  189.5600  177.6730  142.4090 N   0  0  0  0  0  0  0  0  0  0  0  0
  188.6760  178.7330  142.0570 C   0  0  2  0  0  0  0  0  0  0  0  0
  187.2270  178.3640  142.3930 C   0  0  2  0  0  3  0  0  0  0  0  0
  192.4310  174.2080  144.3440 O   0  0  0  0  0  0  0  0  0  0  0  0
  190.4170  176.7790  139.9990 C   0  0  0  0  0  2  0  0  0  0  0  0
  190.9720  175.9580  143.4860 N   0  0  0  0  0  2  0  0  0  0  0  0
  191.5780  175.2750  144.5880 C   0  0  0  0  0  0  0  0  0  0  0  0
  185.6770  177.6640  138.9400 C   0  0  0  0  0  2  0  0  0  0  0  0
  189.0250  178.6930  136.9710 C   0  0  0  0  0  2  0  0  0  0  0  0
  184.5540  178.1830  139.5850 O   0  0  0  0  0  0  0  0  0  0  0  0
  185.4430  177.6600  137.4420 C   0  0  0  0  0  2  0  0  0  0  0  0
  189.7650  177.5130  140.9690 C   0  0  2  0  0  0  0  0  0  0  0  0
  188.9150  178.5730  140.6500 C   0  0  0  0  0  0  0  0  0  0  0  0
  185.6170  178.8630  144.2370 N   0  0  1  0  0  0  0  0  0  0  0  0
  186.2880  179.2530  141.7040 N   0  0  0  0  0  2  0  0  0  0  0  0
  187.5680  178.7110  136.6270 C   0  0  0  0  0  0  0  0  0  0  0  0
  191.3500  175.6280  145.7760 O   0  0  0  0  0  1  0  0  0  0  0  0
  190.0880  177.0790  143.5940 C   0  0  0  0  0  0  0  0  0  0  0  0
  190.1370  177.2020  138.6710 C   0  0  0  0  0  3  0  0  0  0  0  0
  186.7550  177.4460  136.6940 C   0  0  2  0  0  3  0  0  0  0  0  0
  189.2530  178.3000  138.3930 C   0  0  0  0  0  0  0  0  0  0  0  0
  188.6360  179.0010  139.4060 N   0  0  0  0  0  0  0  0  0  0  0  0
  186.9730  178.3990  143.9090 C   0  0  0  0  0  2  0  0  0  0  0  0
  184.6040  177.6580  140.8780 C   0  0  0  0  0  2  0  0  0  0  0  0
  184.9130  178.7600  141.8830 C   0  0  1  0  0  3  0  0  0  0  0  0
  184.6620  178.2530  143.3100 C   0  0  0  0  0  2  0  0  0  0  0  0
  187.4200  176.2970  134.6970 O   0  0  0  0  0  0  0  0  0  0  0  0
  185.2530  177.0440  134.7470 O   0  0  0  0  0  1  0  0  0  0  0  0
  186.5090  176.9050  135.3230 C   0  0  0  0  0  0  0  0  0  0  0  0
  186.5760  177.9150  146.2640 C   0  0  0  0  0  2  0  0  0  0  0  0
  185.9630  179.2530  146.6120 C   0  0  0  0  0  2  0  0  0  0  0  0
  185.3020  178.3660  145.5700 C   0  0  0  0  0  3  0  0  0  0  0  0
  1 18  2  0  0  0  0
  3 20  1  0  0  0  0
  4 15  1  1  0  0  0
  4  5  1  0  0  0  0
  4  3  1  0  0  0  0
  5 25  1  1  0  0  0
  6  9  2  0  0  0  0
  8 20  1  0  0  0  0
  8  9  1  0  0  0  0
  9 19  1  0  0  0  0
 10 12  1  0  0  0  0
 11 23  1  0  0  0  0
 12 26  1  0  0  0  0
 13 10  1  0  0  0  0
 14  7  1  6  0  0  0
 14  4  1  0  0  0  0
 14  3  1  0  0  0  0
 15 14  1  0  0  0  0
 16 34  1  1  0  0  0
 17 27  1  0  0  0  0
 17  5  1  0  0  0  0
 18 22  1  0  0  0  0
 18 11  1  0  0  0  0
 20  2  2  0  0  0  0
 21  7  1  0  0  0  0
 22 31  1  6  0  0  0
 22 13  1  0  0  0  0
 23 21  2  0  0  0  0
 23 24  1  0  0  0  0
 24 15  2  0  0  0  0
 25 16  1  0  0  0  0
 27 26  1  6  0  0  0
 27 28  1  0  0  0  0
 28 16  1  0  0  0  0
 29 31  2  0  0  0  0
 30 31  1  0  0  0  0
 32 33  1  0  0  0  0
 34 32  1  0  0  0  0
 34 33  1  0  0  0  0
M  END
>  <MODEL>
7

>  <REMARK>
 VINA RESULT:      -6.9      3.047      5.090
  Name = 
  2 active torsions:
  status: ('A' for Active; 'I' for Inactive)
    1  A    between atoms: N_19  and  C_27
    2  A    between atoms: C_21  and  C_28
                            x       y       z     vdW  Elec       q    Type
                         _______ _______ _______ _____ _____    ______ ____

>  <TORSDO>
F 2

$$$$
=
 OpenBabel10222415153D

 34 39  0  0  1  0  0  0  0  0999 V2000
  185.3050  180.5860  143.6170 O   0  0  0  0  0  0  0  0  0  0  0  0
  185.0370  176.2290  135.5630 O   0  0  0  0  0  0  0  0  0  0  0  0
  184.5710  176.9560  137.7220 N   0  0  0  0  0  0  0  0  0  0  0  0
  185.4010  178.0660  138.0530 C   0  0  2  0  0  0  0  0  0  0  0  0
  186.8460  177.6110  138.2880 C   0  0  2  0  0  3  0  0  0  0  0  0
  182.1110  173.1200  135.9270 O   0  0  0  0  0  1  0  0  0  0  0  0
  182.9600  176.7420  139.8910 C   0  0  0  0  0  2  0  0  0  0  0  0
  183.3980  175.0250  136.7270 N   0  0  0  0  0  2  0  0  0  0  0  0
  183.0900  174.0780  135.7010 C   0  0  0  0  0  0  0  0  0  0  0  0
  187.2290  177.8460  142.1110 C   0  0  0  0  0  2  0  0  0  0  0  0
  183.5510  179.3840  142.6180 C   0  0  0  0  0  2  0  0  0  0  0  0
  188.5340  178.1670  141.7380 O   0  0  0  0  0  0  0  0  0  0  0  0
  187.0050  178.2400  143.5580 C   0  0  0  0  0  2  0  0  0  0  0  0
  183.9340  177.1870  139.0190 C   0  0  2  0  0  0  0  0  0  0  0  0
  184.7410  178.2880  139.3090 C   0  0  0  0  0  0  0  0  0  0  0  0
  188.9690  177.5900  136.9720 N   0  0  1  0  0  0  0  0  0  0  0  0
  187.6120  178.6460  138.9880 N   0  0  0  0  0  2  0  0  0  0  0  0
  184.8360  179.4830  143.3810 C   0  0  0  0  0  0  0  0  0  0  0  0
  183.6910  174.1010  134.5940 O   0  0  0  0  0  0  0  0  0  0  0  0
  184.3700  176.0720  136.6210 C   0  0  0  0  0  0  0  0  0  0  0  0
  182.8690  177.5020  141.0880 C   0  0  0  0  0  3  0  0  0  0  0  0
  185.5170  178.2410  143.8900 C   0  0  2  0  0  3  0  0  0  0  0  0
  183.7240  178.6280  141.3420 C   0  0  0  0  0  0  0  0  0  0  0  0
  184.6740  179.0310  140.4290 N   0  0  0  0  0  0  0  0  0  0  0  0
  187.5410  177.2400  136.9680 C   0  0  0  0  0  2  0  0  0  0  0  0
  188.8250  177.3170  140.6690 C   0  0  0  0  0  2  0  0  0  0  0  0
  188.9290  178.1140  139.3750 C   0  0  1  0  0  3  0  0  0  0  0  0
  189.5470  177.2430  138.2720 C   0  0  0  0  0  2  0  0  0  0  0  0
  186.1410  177.4840  146.0790 O   0  0  0  0  0  1  0  0  0  0  0  0
  184.1600  178.6300  145.9430 O   0  0  0  0  0  0  0  0  0  0  0  0
  185.2950  178.0830  145.3600 C   0  0  0  0  0  0  0  0  0  0  0  0
  188.6460  176.4400  134.8510 C   0  0  0  0  0  2  0  0  0  0  0  0
  189.7000  177.5060  134.6550 C   0  0  0  0  0  2  0  0  0  0  0  0
  189.6210  176.7550  135.9730 C   0  0  0  0  0  3  0  0  0  0  0  0
  2 20  2  0  0  0  0
  3  4  1  0  0  0  0
  3 14  1  0  0  0  0
  4  5  1  0  0  0  0
  4 14  1  0  0  0  0
  4 15  1  6  0  0  0
  5 25  1  6  0  0  0
  5 17  1  0  0  0  0
  7 21  1  0  0  0  0
  9  6  1  0  0  0  0
  9  8  1  0  0  0  0
 10 13  1  0  0  0  0
 11 18  1  0  0  0  0
 12 10  1  0  0  0  0
 13 22  1  0  0  0  0
 14 15  1  0  0  0  0
 14  7  1  1  0  0  0
 15 24  2  0  0  0  0
 16 34  1  6  0  0  0
 16 28  1  0  0  0  0
 17 27  1  0  0  0  0
 18  1  2  0  0  0  0
 18 22  1  0  0  0  0
 19  9  2  0  0  0  0
 20  8  1  0  0  0  0
 20  3  1  0  0  0  0
 21 23  2  0  0  0  0
 22 31  1  1  0  0  0
 23 11  1  0  0  0  0
 24 23  1  0  0  0  0
 25 16  1  0  0  0  0
 26 12  1  0  0  0  0
 27 28  1  6  0  0  0
 27 26  1  0  0  0  0
 31 30  2  0  0  0  0
 31 29  1  0  0  0  0
 32 34  1  0  0  0  0
 33 32  1  0  0  0  0
 33 34  1  0  0  0  0
M  END
>  <MODEL>
8

>  <REMARK>
 VINA RESULT:      -6.7      2.329      7.961
  Name = 
  2 active torsions:
  status: ('A' for Active; 'I' for Inactive)
    1  A    between atoms: N_19  and  C_27
    2  A    between atoms: C_21  and  C_28
                            x       y       z     vdW  Elec       q    Type
                         _______ _______ _______ _____ _____    ______ ____

>  <TORSDO>
F 2

$$$$
=
 OpenBabel10222415153D

 34 39  0  0  1  0  0  0  0  0999 V2000
  193.0860  175.5020  135.1570 O   0  0  0  0  0  0  0  0  0  0  0  0
  185.8840  178.7010  139.8280 O   0  0  0  0  0  0  0  0  0  0  0  0
  187.9760  177.8670  139.2510 N   0  0  0  0  0  0  0  0  0  0  0  0
  188.1180  177.8410  137.8340 C   0  0  2  0  0  0  0  0  0  0  0  0
  187.2670  176.7210  137.2250 C   0  0  2  0  0  3  0  0  0  0  0  0
  186.7750  178.1970  143.9880 O   0  0  0  0  0  1  0  0  0  0  0  0
  190.4200  177.0770  140.1140 C   0  0  0  0  0  2  0  0  0  0  0  0
  187.2670  178.0630  141.6080 N   0  0  0  0  0  2  0  0  0  0  0  0
  186.3720  178.3910  142.6750 C   0  0  0  0  0  0  0  0  0  0  0  0
  189.8800  174.0740  136.2340 C   0  0  0  0  0  2  0  0  0  0  0  0
  192.9780  176.3860  137.3310 C   0  0  0  0  0  2  0  0  0  0  0  0
  188.9500  173.8580  135.2170 O   0  0  0  0  0  0  0  0  0  0  0  0
  191.1960  173.4200  135.8620 C   0  0  0  0  0  2  0  0  0  0  0  0
  189.3720  177.4300  139.2880 C   0  0  2  0  0  0  0  0  0  0  0  0
  189.4950  177.4380  137.8980 C   0  0  0  0  0  0  0  0  0  0  0  0
  185.0490  176.5530  136.0870 N   0  0  1  0  0  0  0  0  0  0  0  0
  187.6850  176.4350  135.8500 N   0  0  0  0  0  2  0  0  0  0  0  0
  192.8010  175.2900  136.3260 C   0  0  0  0  0  0  0  0  0  0  0  0
  185.2250  178.8570  142.4400 O   0  0  0  0  0  0  0  0  0  0  0  0
  186.9870  178.2280  140.2130 C   0  0  0  0  0  0  0  0  0  0  0  0
  191.6090  176.7270  139.4190 C   0  0  0  0  0  3  0  0  0  0  0  0
  192.3200  173.9300  136.7580 C   0  0  2  0  0  3  0  0  0  0  0  0
  191.6860  176.7500  137.9840 C   0  0  0  0  0  0  0  0  0  0  0  0
  190.6070  177.1200  137.2120 N   0  0  0  0  0  0  0  0  0  0  0  0
  185.7690  177.0680  137.2610 C   0  0  0  0  0  2  0  0  0  0  0  0
  187.7030  173.9730  135.8350 C   0  0  0  0  0  2  0  0  0  0  0  0
  186.9930  175.2340  135.3580 C   0  0  1  0  0  3  0  0  0  0  0  0
  185.5200  175.1990  135.7890 C   0  0  0  0  0  2  0  0  0  0  0  0
  194.4330  173.1440  137.5760 O   0  0  0  0  0  1  0  0  0  0  0  0
  193.4160  171.8250  136.0000 O   0  0  0  0  0  0  0  0  0  0  0  0
  193.4560  172.9590  136.8000 C   0  0  0  0  0  0  0  0  0  0  0  0
  183.0500  177.8410  136.6070 C   0  0  0  0  0  2  0  0  0  0  0  0
  182.7850  177.0430  135.3500 C   0  0  0  0  0  2  0  0  0  0  0  0
  183.6430  176.4510  136.4550 C   0  0  0  0  0  3  0  0  0  0  0  0
  1 18  2  0  0  0  0
  2 20  2  0  0  0  0
  3 14  1  0  0  0  0
  3 20  1  0  0  0  0
  4 15  1  6  0  0  0
  4  3  1  0  0  0  0
  4 14  1  0  0  0  0
  5 25  1  6  0  0  0
  5  4  1  0  0  0  0
  8  9  1  0  0  0  0
  9  6  1  0  0  0  0
 11 23  1  0  0  0  0
 12 26  1  0  0  0  0
 12 10  1  0  0  0  0
 13 10  1  0  0  0  0
 13 22  1  0  0  0  0
 14  7  1  1  0  0  0
 15 14  1  0  0  0  0
 16 34  1  1  0  0  0
 16 25  1  0  0  0  0
 17  5  1  0  0  0  0
 18 22  1  0  0  0  0
 18 11  1  0  0  0  0
 19  9  2  0  0  0  0
 20  8  1  0  0  0  0
 21  7  1  0  0  0  0
 22 31  1  6  0  0  0
 23 21  2  0  0  0  0
 24 15  2  0  0  0  0
 24 23  1  0  0  0  0
 27 28  1  1  0  0  0
 27 26  1  0  0  0  0
 27 17  1  0  0  0  0
 28 16  1  0  0  0  0
 30 31  2  0  0  0  0
 31 29  1  0  0  0  0
 33 34  1  0  0  0  0
 33 32  1  0  0  0  0
 34 32  1  0  0  0  0
M  END
>  <MODEL>
9

>  <REMARK>
 VINA RESULT:      -6.4      2.906      4.468
  Name = 
  2 active torsions:
  status: ('A' for Active; 'I' for Inactive)
    1  A    between atoms: N_19  and  C_27
    2  A    between atoms: C_21  and  C_28
                            x       y       z     vdW  Elec       q    Type
                         _______ _______ _______ _____ _____    ______ ____

>  <TORSDO>
F 2

$$$$
