=
 OpenBabel10222415563D

 36 40  0  0  0  0  0  0  0  0999 V2000
  187.9140  178.3330  139.9050 N   0  0  0  0  0  0  0  0  0  0  0  0
  190.1980  176.4980  137.5730 C   0  0  0  0  0  3  0  0  0  0  0  0
  186.7790  178.4490  139.2840 C   0  0  0  0  0  0  0  0  0  0  0  0
  186.6230  177.9900  137.8760 C   0  0  0  0  0  0  0  0  0  0  0  0
  190.1370  177.3140  140.2550 C   0  0  0  0  0  0  0  0  0  0  0  0
  184.2110  178.0380  138.1770 C   0  0  0  0  0  0  0  0  0  0  0  0
  189.1640  177.3220  138.0190 C   0  0  0  0  0  0  0  0  0  0  0  0
  184.3410  178.5850  139.4350 C   0  0  0  0  0  0  0  0  0  0  0  0
  182.8290  178.8300  140.1140 S   0  0  0  0  0  0  0  0  0  0  0  0
  188.0420  177.9940  136.7960 S   0  0  0  0  0  0  0  0  0  0  0  0
  191.1890  176.0600  138.4490 C   0  0  0  0  0  0  0  0  0  0  0  0
  180.5840  178.1250  138.5740 C   0  0  0  0  0  1  0  0  0  0  0  0
  182.0590  178.2240  138.7310 C   0  0  0  0  0  0  0  0  0  0  0  0
  185.4030  177.7840  137.3530 C   0  0  0  0  0  3  0  0  0  0  0  0
  189.1000  177.7140  139.3750 C   0  0  0  0  0  0  0  0  0  0  0  0
  191.1590  176.4870  139.7800 C   0  0  0  0  0  3  0  0  0  0  0  0
  185.6140  178.8390  140.0280 N   0  0  0  0  0  2  0  0  0  0  0  0
  182.9330  177.8410  137.7680 N   0  0  0  0  0  0  0  0  0  0  0  0
  192.2280  175.2090  137.9460 N   0  0  0  0  0  2  0  0  0  0  0  0
  193.9160  176.8100  137.6230 O   0  0  0  0  0  0  0  0  0  0  0  0
  193.5470  175.6080  137.5520 C   0  0  0  0  0  0  0  0  0  0  0  0
  194.4880  174.5840  137.0190 C   0  0  0  0  0  2  0  0  0  0  0  0
  196.6820  174.9310  137.8800 O   0  0  0  0  0  0  0  0  0  0  0  0
  195.4020  173.4080  139.0200 O   0  0  0  0  0  1  0  0  0  0  0  0
  195.5820  174.3310  137.9970 C   0  0  0  0  0  0  0  0  0  0  0  0
  190.1920  177.6780  141.6090 O   0  0  0  0  0  0  0  0  0  0  0  0
  190.3200  176.7610  142.6870 C   0  0  0  0  0  2  0  0  0  0  0  0
  187.9130  176.9500  143.3330 C   0  0  0  0  0  3  0  0  0  0  0  0
  189.6150  177.3930  145.0000 C   0  0  0  0  0  3  0  0  0  0  0  0
  188.6200  177.6670  145.9440 C   0  0  0  0  0  3  0  0  0  0  0  0
  187.2700  177.5760  145.5850 C   0  0  0  0  0  0  0  0  0  0  0  0
  186.9180  177.2240  144.2760 C   0  0  0  0  0  3  0  0  0  0  0  0
  189.2620  177.0260  143.6970 C   0  0  0  0  0  0  0  0  0  0  0  0
  186.2110  177.8850  146.5840 C   0  0  0  0  0  2  0  0  0  0  0  0
  185.4980  179.1700  146.2100 C   0  0  0  0  0  2  0  0  0  0  0  0
  184.0930  178.8930  145.9750 N   0  0  0  0  0  1  0  0  0  0  0  0
  2  7  2  0  0  0  0
  2 11  1  0  0  0  0
  3  1  2  0  0  0  0
  3 17  1  0  0  0  0
  4  3  1  0  0  0  0
  5 26  1  0  0  0  0
  6  8  2  0  0  0  0
  7 15  1  0  0  0  0
  8 17  1  0  0  0  0
  8  9  1  0  0  0  0
 10  4  1  0  0  0  0
 10  7  1  0  0  0  0
 11 16  2  0  0  0  0
 12 13  1  0  0  0  0
 13  9  1  0  0  0  0
 14  4  2  0  0  0  0
 14  6  1  0  0  0  0
 15  1  1  0  0  0  0
 15  5  2  0  0  0  0
 16  5  1  0  0  0  0
 18  6  1  0  0  0  0
 18 13  2  0  0  0  0
 19 11  1  0  0  0  0
 21 20  2  0  0  0  0
 21 19  1  0  0  0  0
 22 21  1  0  0  0  0
 22 25  1  0  0  0  0
 23 25  2  0  0  0  0
 25 24  1  0  0  0  0
 26 27  1  0  0  0  0
 27 33  1  0  0  0  0
 28 33  2  0  0  0  0
 28 32  1  0  0  0  0
 29 30  2  0  0  0  0
 31 30  1  0  0  0  0
 31 34  1  0  0  0  0
 32 31  2  0  0  0  0
 33 29  1  0  0  0  0
 35 34  1  0  0  0  0
 36 35  1  0  0  0  0
M  END
>  <MODEL>
1

>  <REMARK>
 VINA RESULT:      -9.1      0.000      0.000
  Name = 
  8 active torsions:
  status: ('A' for Active; 'I' for Inactive)
    1  A    between atoms: C_7  and  O_22
    2  A    between atoms: N_13  and  C_14
    3  A    between atoms: C_16  and  C_31
    4  A    between atoms: C_19  and  C_31
    5  A    between atoms: O_22  and  C_34
    6  A    between atoms: C_23  and  C_36
    7  A    between atoms: C_29  and  C_36
    8  A    between atoms: C_33  and  C_34
                            x       y       z     vdW  Elec       q    Type
                         _______ _______ _______ _____ _____    ______ ____

>  <TORSDO>
F 8

$$$$
=
 OpenBabel10222415563D

 36 40  0  0  0  0  0  0  0  0999 V2000
  187.6910  178.1950  138.9850 N   0  0  0  0  0  0  0  0  0  0  0  0
  190.1010  176.0550  137.0770 C   0  0  0  0  0  3  0  0  0  0  0  0
  186.5830  178.1850  138.3070 C   0  0  0  0  0  0  0  0  0  0  0  0
  186.4950  177.5000  136.9870 C   0  0  0  0  0  0  0  0  0  0  0  0
  189.9120  177.2940  139.5860 C   0  0  0  0  0  0  0  0  0  0  0  0
  184.0720  177.5450  137.1790 C   0  0  0  0  0  0  0  0  0  0  0  0
  189.0370  176.9180  137.3410 C   0  0  0  0  0  0  0  0  0  0  0  0
  184.1400  178.2920  138.3350 C   0  0  0  0  0  0  0  0  0  0  0  0
  182.5960  178.6110  138.9030 S   0  0  0  0  0  0  0  0  0  0  0  0
  187.9590  177.3590  135.9800 S   0  0  0  0  0  0  0  0  0  0  0  0
  191.0590  175.7870  138.0520 C   0  0  0  0  0  0  0  0  0  0  0  0
  180.4310  177.6190  137.4090 C   0  0  0  0  0  1  0  0  0  0  0  0
  181.8950  177.7730  137.6080 C   0  0  0  0  0  0  0  0  0  0  0  0
  185.3020  177.1860  136.4570 C   0  0  0  0  0  3  0  0  0  0  0  0
  188.9080  177.5240  138.6110 C   0  0  0  0  0  0  0  0  0  0  0  0
  190.9650  176.4220  139.2940 C   0  0  0  0  0  3  0  0  0  0  0  0
  185.3810  178.6660  138.9300 N   0  0  0  0  0  2  0  0  0  0  0  0
  182.8160  177.2580  136.7560 N   0  0  0  0  0  0  0  0  0  0  0  0
  192.1310  174.8870  137.7370 N   0  0  0  0  0  2  0  0  0  0  0  0
  193.8670  176.4420  137.4460 O   0  0  0  0  0  0  0  0  0  0  0  0
  193.4900  175.2410  137.4460 C   0  0  0  0  0  0  0  0  0  0  0  0
  194.4640  174.1680  137.1070 C   0  0  0  0  0  2  0  0  0  0  0  0
  195.4630  173.4310  139.1400 O   0  0  0  0  0  1  0  0  0  0  0  0
  196.7010  174.9210  137.9140 O   0  0  0  0  0  0  0  0  0  0  0  0
  195.5680  174.1400  138.1060 C   0  0  0  0  0  0  0  0  0  0  0  0
  189.9030  177.8740  140.8630 O   0  0  0  0  0  0  0  0  0  0  0  0
  190.6260  177.3760  141.9810 C   0  0  0  0  0  2  0  0  0  0  0  0
  190.3230  177.8990  144.4060 C   0  0  0  0  0  3  0  0  0  0  0  0
  188.4440  177.0290  143.1490 C   0  0  0  0  0  3  0  0  0  0  0  0
  187.6520  177.0740  144.3000 C   0  0  0  0  0  3  0  0  0  0  0  0
  188.1930  177.5380  145.5050 C   0  0  0  0  0  0  0  0  0  0  0  0
  189.5320  177.9440  145.5580 C   0  0  0  0  0  3  0  0  0  0  0  0
  189.7760  177.4500  143.1990 C   0  0  0  0  0  0  0  0  0  0  0  0
  187.3550  177.5690  146.7350 C   0  0  0  0  0  2  0  0  0  0  0  0
  188.1690  177.1210  147.9340 C   0  0  0  0  0  2  0  0  0  0  0  0
  188.1870  178.1770  148.9290 N   0  0  0  0  0  1  0  0  0  0  0  0
  2  7  2  0  0  0  0
  2 11  1  0  0  0  0
  3 17  1  0  0  0  0
  3  1  2  0  0  0  0
  4  3  1  0  0  0  0
  5 26  1  0  0  0  0
  6  8  2  0  0  0  0
  7 15  1  0  0  0  0
  8  9  1  0  0  0  0
  8 17  1  0  0  0  0
 10  4  1  0  0  0  0
 10  7  1  0  0  0  0
 11 16  2  0  0  0  0
 12 13  1  0  0  0  0
 13  9  1  0  0  0  0
 14  4  2  0  0  0  0
 14  6  1  0  0  0  0
 15  1  1  0  0  0  0
 15  5  2  0  0  0  0
 16  5  1  0  0  0  0
 18  6  1  0  0  0  0
 18 13  2  0  0  0  0
 19 11  1  0  0  0  0
 21 20  2  0  0  0  0
 21 19  1  0  0  0  0
 22 21  1  0  0  0  0
 22 25  1  0  0  0  0
 24 25  2  0  0  0  0
 25 23  1  0  0  0  0
 26 27  1  0  0  0  0
 27 33  1  0  0  0  0
 28 32  1  0  0  0  0
 29 33  1  0  0  0  0
 29 30  2  0  0  0  0
 30 31  1  0  0  0  0
 31 32  2  0  0  0  0
 31 34  1  0  0  0  0
 33 28  2  0  0  0  0
 34 35  1  0  0  0  0
 35 36  1  0  0  0  0
M  END
>  <MODEL>
2

>  <REMARK>
 VINA RESULT:      -8.5      1.240      1.666
  Name = 
  8 active torsions:
  status: ('A' for Active; 'I' for Inactive)
    1  A    between atoms: C_7  and  O_22
    2  A    between atoms: N_13  and  C_14
    3  A    between atoms: C_16  and  C_31
    4  A    between atoms: C_19  and  C_31
    5  A    between atoms: O_22  and  C_34
    6  A    between atoms: C_23  and  C_36
    7  A    between atoms: C_29  and  C_36
    8  A    between atoms: C_33  and  C_34
                            x       y       z     vdW  Elec       q    Type
                         _______ _______ _______ _____ _____    ______ ____

>  <TORSDO>
F 8

$$$$
=
 OpenBabel10222415563D

 36 40  0  0  0  0  0  0  0  0999 V2000
  187.4240  178.4110  140.2270 N   0  0  0  0  0  0  0  0  0  0  0  0
  189.2820  176.9680  137.3130 C   0  0  0  0  0  3  0  0  0  0  0  0
  186.1890  178.5380  139.8420 C   0  0  0  0  0  0  0  0  0  0  0  0
  185.7850  178.2310  138.4420 C   0  0  0  0  0  0  0  0  0  0  0  0
  189.7030  177.4750  140.0400 C   0  0  0  0  0  0  0  0  0  0  0  0
  183.4730  178.1200  139.1840 C   0  0  0  0  0  0  0  0  0  0  0  0
  188.3270  177.6830  138.0370 C   0  0  0  0  0  0  0  0  0  0  0  0
  183.8210  178.5290  140.4530 C   0  0  0  0  0  0  0  0  0  0  0  0
  182.4570  178.6190  141.4220 S   0  0  0  0  0  0  0  0  0  0  0  0
  186.9750  178.4290  137.1290 S   0  0  0  0  0  0  0  0  0  0  0  0
  190.4330  176.4880  137.9340 C   0  0  0  0  0  0  0  0  0  0  0  0
  179.9840  177.9750  140.2470 C   0  0  0  0  0  1  0  0  0  0  0  0
  181.4590  178.1310  140.1420 C   0  0  0  0  0  0  0  0  0  0  0  0
  184.4960  178.0220  138.1320 C   0  0  0  0  0  3  0  0  0  0  0  0
  188.5070  177.9180  139.4180 C   0  0  0  0  0  0  0  0  0  0  0  0
  190.6410  176.7600  139.2900 C   0  0  0  0  0  3  0  0  0  0  0  0
  185.1740  178.7810  140.8290 N   0  0  0  0  0  2  0  0  0  0  0  0
  182.1470  177.9040  138.9960 N   0  0  0  0  0  0  0  0  0  0  0  0
  191.3840  175.7520  137.1520 N   0  0  0  0  0  2  0  0  0  0  0  0
  190.5000  173.5910  137.4020 O   0  0  0  0  0  0  0  0  0  0  0  0
  191.3880  174.3380  136.9130 C   0  0  0  0  0  0  0  0  0  0  0  0
  192.4800  173.7410  136.0970 C   0  0  0  0  0  2  0  0  0  0  0  0
  194.0320  173.7140  137.9040 O   0  0  0  0  0  1  0  0  0  0  0  0
  194.7760  174.7070  135.9770 O   0  0  0  0  0  0  0  0  0  0  0  0
  193.8040  174.0400  136.7110 C   0  0  0  0  0  0  0  0  0  0  0  0
  190.0010  177.6890  141.3940 O   0  0  0  0  0  0  0  0  0  0  0  0
  190.2360  176.6560  142.3410 C   0  0  0  0  0  2  0  0  0  0  0  0
  188.0960  177.1550  143.5330 C   0  0  0  0  0  3  0  0  0  0  0  0
  190.1510  177.0320  144.8100 C   0  0  0  0  0  3  0  0  0  0  0  0
  189.4420  177.3240  145.9800 C   0  0  0  0  0  3  0  0  0  0  0  0
  188.0580  177.5250  145.9280 C   0  0  0  0  0  0  0  0  0  0  0  0
  187.3870  177.4470  144.7020 C   0  0  0  0  0  3  0  0  0  0  0  0
  189.4770  176.9390  143.5880 C   0  0  0  0  0  0  0  0  0  0  0  0
  187.3050  177.8530  147.1700 C   0  0  0  0  0  2  0  0  0  0  0  0
  185.8470  178.1100  146.8450 C   0  0  0  0  0  2  0  0  0  0  0  0
  185.5380  179.5080  147.0810 N   0  0  0  0  0  1  0  0  0  0  0  0
  2 11  2  0  0  0  0
  2  7  1  0  0  0  0
  3  1  2  0  0  0  0
  3 17  1  0  0  0  0
  4  3  1  0  0  0  0
  5 26  1  0  0  0  0
  6  8  2  0  0  0  0
  7 15  2  0  0  0  0
  8 17  1  0  0  0  0
  8  9  1  0  0  0  0
 10  7  1  0  0  0  0
 10  4  1  0  0  0  0
 11 16  1  0  0  0  0
 13 12  1  0  0  0  0
 13  9  1  0  0  0  0
 14  4  2  0  0  0  0
 14  6  1  0  0  0  0
 15  5  1  0  0  0  0
 15  1  1  0  0  0  0
 16  5  2  0  0  0  0
 18  6  1  0  0  0  0
 18 13  2  0  0  0  0
 19 11  1  0  0  0  0
 21 19  1  0  0  0  0
 21 20  2  0  0  0  0
 22 25  1  0  0  0  0
 22 21  1  0  0  0  0
 24 25  2  0  0  0  0
 25 23  1  0  0  0  0
 26 27  1  0  0  0  0
 27 33  1  0  0  0  0
 28 33  2  0  0  0  0
 28 32  1  0  0  0  0
 29 30  2  0  0  0  0
 31 30  1  0  0  0  0
 31 34  1  0  0  0  0
 32 31  2  0  0  0  0
 33 29  1  0  0  0  0
 35 36  1  0  0  0  0
 35 34  1  0  0  0  0
M  END
>  <MODEL>
3

>  <REMARK>
 VINA RESULT:      -8.4      1.426      1.607
  Name = 
  8 active torsions:
  status: ('A' for Active; 'I' for Inactive)
    1  A    between atoms: C_7  and  O_22
    2  A    between atoms: N_13  and  C_14
    3  A    between atoms: C_16  and  C_31
    4  A    between atoms: C_19  and  C_31
    5  A    between atoms: O_22  and  C_34
    6  A    between atoms: C_23  and  C_36
    7  A    between atoms: C_29  and  C_36
    8  A    between atoms: C_33  and  C_34
                            x       y       z     vdW  Elec       q    Type
                         _______ _______ _______ _____ _____    ______ ____

>  <TORSDO>
F 8

$$$$
=
 OpenBabel10222415563D

 36 40  0  0  0  0  0  0  0  0999 V2000
  187.3900  178.2540  139.2190 N   0  0  0  0  0  0  0  0  0  0  0  0
  189.8720  176.1510  137.3650 C   0  0  0  0  0  3  0  0  0  0  0  0
  186.3110  178.2640  138.4950 C   0  0  0  0  0  0  0  0  0  0  0  0
  186.2770  177.6100  137.1580 C   0  0  0  0  0  0  0  0  0  0  0  0
  189.5800  177.3310  139.8920 C   0  0  0  0  0  0  0  0  0  0  0  0
  183.8480  177.6590  137.2480 C   0  0  0  0  0  0  0  0  0  0  0  0
  188.8000  177.0110  137.6040 C   0  0  0  0  0  0  0  0  0  0  0  0
  183.8690  178.3780  138.4230 C   0  0  0  0  0  0  0  0  0  0  0  0
  182.3030  178.6890  138.9330 S   0  0  0  0  0  0  0  0  0  0  0  0
  187.7820  177.4880  136.2100 S   0  0  0  0  0  0  0  0  0  0  0  0
  190.7880  175.8560  138.3730 C   0  0  0  0  0  0  0  0  0  0  0  0
  180.2000  177.7390  137.3260 C   0  0  0  0  0  1  0  0  0  0  0  0
  181.6560  177.8840  137.5900 C   0  0  0  0  0  0  0  0  0  0  0  0
  185.1070  177.3130  136.5700 C   0  0  0  0  0  3  0  0  0  0  0  0
  188.6190  177.5880  138.8810 C   0  0  0  0  0  0  0  0  0  0  0  0
  190.6430  176.4630  139.6240 C   0  0  0  0  0  3  0  0  0  0  0  0
  185.0850  178.7340  139.0790 N   0  0  0  0  0  2  0  0  0  0  0  0
  182.6100  177.3850  136.7660 N   0  0  0  0  0  0  0  0  0  0  0  0
  191.8700  174.9610  138.0830 N   0  0  0  0  0  2  0  0  0  0  0  0
  193.6070  176.5220  137.8360 O   0  0  0  0  0  0  0  0  0  0  0  0
  193.2340  175.3190  137.8250 C   0  0  0  0  0  0  0  0  0  0  0  0
  194.2200  174.2500  137.5080 C   0  0  0  0  0  2  0  0  0  0  0  0
  196.5070  174.9050  137.3940 O   0  0  0  0  0  0  0  0  0  0  0  0
  195.7110  174.4550  139.4970 O   0  0  0  0  0  1  0  0  0  0  0  0
  195.5390  174.5660  138.1230 C   0  0  0  0  0  0  0  0  0  0  0  0
  189.5190  177.8820  141.1810 O   0  0  0  0  0  0  0  0  0  0  0  0
  188.5270  177.5650  142.1480 C   0  0  0  0  0  2  0  0  0  0  0  0
  188.4620  177.6400  144.6450 C   0  0  0  0  0  3  0  0  0  0  0  0
  190.4940  176.9110  143.5450 C   0  0  0  0  0  3  0  0  0  0  0  0
  191.1060  176.7370  144.7900 C   0  0  0  0  0  3  0  0  0  0  0  0
  190.3950  177.0070  145.9650 C   0  0  0  0  0  0  0  0  0  0  0  0
  189.0740  177.4660  145.8900 C   0  0  0  0  0  3  0  0  0  0  0  0
  189.1690  177.3540  143.4720 C   0  0  0  0  0  0  0  0  0  0  0  0
  191.0520  176.8390  147.2900 C   0  0  0  0  0  2  0  0  0  0  0  0
  192.1350  175.7810  147.2060 C   0  0  0  0  0  2  0  0  0  0  0  0
  193.0050  175.8870  148.3620 N   0  0  0  0  0  1  0  0  0  0  0  0
  2  7  2  0  0  0  0
  2 11  1  0  0  0  0
  3 17  1  0  0  0  0
  3  1  2  0  0  0  0
  4  3  1  0  0  0  0
  5 26  1  0  0  0  0
  6  8  2  0  0  0  0
  7 15  1  0  0  0  0
  8  9  1  0  0  0  0
  8 17  1  0  0  0  0
 10  4  1  0  0  0  0
 10  7  1  0  0  0  0
 11 16  2  0  0  0  0
 12 13  1  0  0  0  0
 13  9  1  0  0  0  0
 14  4  2  0  0  0  0
 14  6  1  0  0  0  0
 15  1  1  0  0  0  0
 15  5  2  0  0  0  0
 16  5  1  0  0  0  0
 18  6  1  0  0  0  0
 18 13  2  0  0  0  0
 19 11  1  0  0  0  0
 21 20  2  0  0  0  0
 21 19  1  0  0  0  0
 22 21  1  0  0  0  0
 22 25  1  0  0  0  0
 23 25  2  0  0  0  0
 25 24  1  0  0  0  0
 26 27  1  0  0  0  0
 27 33  1  0  0  0  0
 28 32  1  0  0  0  0
 29 30  2  0  0  0  0
 30 31  1  0  0  0  0
 31 34  1  0  0  0  0
 32 31  2  0  0  0  0
 33 29  1  0  0  0  0
 33 28  2  0  0  0  0
 35 34  1  0  0  0  0
 35 36  1  0  0  0  0
M  END
>  <MODEL>
4

>  <REMARK>
 VINA RESULT:      -8.4      1.995      2.535
  Name = 
  8 active torsions:
  status: ('A' for Active; 'I' for Inactive)
    1  A    between atoms: C_7  and  O_22
    2  A    between atoms: N_13  and  C_14
    3  A    between atoms: C_16  and  C_31
    4  A    between atoms: C_19  and  C_31
    5  A    between atoms: O_22  and  C_34
    6  A    between atoms: C_23  and  C_36
    7  A    between atoms: C_29  and  C_36
    8  A    between atoms: C_33  and  C_34
                            x       y       z     vdW  Elec       q    Type
                         _______ _______ _______ _____ _____    ______ ____

>  <TORSDO>
F 8

$$$$
=
 OpenBabel10222415563D

 36 40  0  0  0  0  0  0  0  0999 V2000
  186.7880  178.7130  140.8100 N   0  0  0  0  0  0  0  0  0  0  0  0
  186.9620  177.3330  137.3330 C   0  0  0  0  0  3  0  0  0  0  0  0
  185.5280  178.9090  141.0590 C   0  0  0  0  0  0  0  0  0  0  0  0
  184.4930  178.6860  140.0110 C   0  0  0  0  0  0  0  0  0  0  0  0
  188.6480  177.6930  139.5440 C   0  0  0  0  0  0  0  0  0  0  0  0
  182.8030  178.6370  141.7580 C   0  0  0  0  0  0  0  0  0  0  0  0
  186.5050  178.0520  138.4380 C   0  0  0  0  0  0  0  0  0  0  0  0
  183.7320  178.9720  142.7190 C   0  0  0  0  0  0  0  0  0  0  0  0
  182.9950  179.0720  144.2200 S   0  0  0  0  0  0  0  0  0  0  0  0
  184.9310  178.8960  138.2960 S   0  0  0  0  0  0  0  0  0  0  0  0
  188.2380  176.7760  137.3230 C   0  0  0  0  0  0  0  0  0  0  0  0
  180.2280  178.5890  144.3430 C   0  0  0  0  0  1  0  0  0  0  0  0
  181.4840  178.6880  143.5560 C   0  0  0  0  0  0  0  0  0  0  0  0
  183.2000  178.5460  140.3440 C   0  0  0  0  0  3  0  0  0  0  0  0
  187.3290  178.2140  139.5730 C   0  0  0  0  0  0  0  0  0  0  0  0
  189.0780  176.9760  138.4240 C   0  0  0  0  0  3  0  0  0  0  0  0
  185.1150  179.1480  142.4140 N   0  0  0  0  0  2  0  0  0  0  0  0
  181.5350  178.4860  142.2160 N   0  0  0  0  0  0  0  0  0  0  0  0
  188.6620  176.0390  136.1680 N   0  0  0  0  0  2  0  0  0  0  0  0
  188.1550  173.8630  136.8910 O   0  0  0  0  0  0  0  0  0  0  0  0
  188.6080  174.6170  135.9900 C   0  0  0  0  0  0  0  0  0  0  0  0
  189.1260  174.0210  134.7280 C   0  0  0  0  0  2  0  0  0  0  0  0
  191.3230  173.6920  135.5860 O   0  0  0  0  0  1  0  0  0  0  0  0
  190.3610  171.8580  134.6030 O   0  0  0  0  0  0  0  0  0  0  0  0
  190.3270  173.1860  135.0080 C   0  0  0  0  0  0  0  0  0  0  0  0
  189.5620  177.8300  140.6000 O   0  0  0  0  0  0  0  0  0  0  0  0
  190.0910  176.7480  141.3540 C   0  0  0  0  0  2  0  0  0  0  0  0
  191.0110  177.2650  143.6200 C   0  0  0  0  0  3  0  0  0  0  0  0
  188.6210  176.9630  143.3640 C   0  0  0  0  0  3  0  0  0  0  0  0
  188.4450  177.1850  144.7330 C   0  0  0  0  0  3  0  0  0  0  0  0
  189.5520  177.4550  145.5470 C   0  0  0  0  0  0  0  0  0  0  0  0
  190.8360  177.4880  144.9890 C   0  0  0  0  0  3  0  0  0  0  0  0
  189.9020  177.0120  142.8050 C   0  0  0  0  0  0  0  0  0  0  0  0
  189.3680  177.6740  147.0080 C   0  0  0  0  0  2  0  0  0  0  0  0
  188.0430  177.0930  147.4610 C   0  0  0  0  0  2  0  0  0  0  0  0
  187.1090  178.1700  147.7280 N   0  0  0  0  0  1  0  0  0  0  0  0
  1  3  2  0  0  0  0
  2  7  1  0  0  0  0
  3 17  1  0  0  0  0
  4 14  2  0  0  0  0
  4  3  1  0  0  0  0
  5 15  1  0  0  0  0
  5 26  1  0  0  0  0
  6 18  1  0  0  0  0
  6  8  2  0  0  0  0
  7 15  2  0  0  0  0
  8  9  1  0  0  0  0
 10  7  1  0  0  0  0
 10  4  1  0  0  0  0
 11  2  2  0  0  0  0
 11 16  1  0  0  0  0
 13  9  1  0  0  0  0
 13 12  1  0  0  0  0
 14  6  1  0  0  0  0
 15  1  1  0  0  0  0
 16  5  2  0  0  0  0
 17  8  1  0  0  0  0
 18 13  2  0  0  0  0
 19 11  1  0  0  0  0
 21 19  1  0  0  0  0
 21 20  2  0  0  0  0
 22 25  1  0  0  0  0
 22 21  1  0  0  0  0
 24 25  2  0  0  0  0
 25 23  1  0  0  0  0
 26 27  1  0  0  0  0
 27 33  1  0  0  0  0
 28 32  1  0  0  0  0
 29 30  2  0  0  0  0
 30 31  1  0  0  0  0
 31 34  1  0  0  0  0
 32 31  2  0  0  0  0
 33 29  1  0  0  0  0
 33 28  2  0  0  0  0
 34 35  1  0  0  0  0
 35 36  1  0  0  0  0
M  END
>  <MODEL>
5

>  <REMARK>
 VINA RESULT:      -7.8      3.027      3.848
  Name = 
  8 active torsions:
  status: ('A' for Active; 'I' for Inactive)
    1  A    between atoms: C_7  and  O_22
    2  A    between atoms: N_13  and  C_14
    3  A    between atoms: C_16  and  C_31
    4  A    between atoms: C_19  and  C_31
    5  A    between atoms: O_22  and  C_34
    6  A    between atoms: C_23  and  C_36
    7  A    between atoms: C_29  and  C_36
    8  A    between atoms: C_33  and  C_34
                            x       y       z     vdW  Elec       q    Type
                         _______ _______ _______ _____ _____    ______ ____

>  <TORSDO>
F 8

$$$$
=
 OpenBabel10222415563D

 36 40  0  0  0  0  0  0  0  0999 V2000
  190.9970  176.0910  139.1830 N   0  0  0  0  0  0  0  0  0  0  0  0
  187.7740  177.3380  137.7390 C   0  0  0  0  0  3  0  0  0  0  0  0
  191.7060  175.6730  138.1780 C   0  0  0  0  0  0  0  0  0  0  0  0
  191.1480  175.6560  136.7970 C   0  0  0  0  0  0  0  0  0  0  0  0
  189.1480  177.3890  140.1830 C   0  0  0  0  0  0  0  0  0  0  0  0
  193.4120  175.4580  135.9360 C   0  0  0  0  0  0  0  0  0  0  0  0
  188.9440  176.5910  137.8880 C   0  0  0  0  0  0  0  0  0  0  0  0
  193.9270  175.3430  137.2090 C   0  0  0  0  0  0  0  0  0  0  0  0
  195.5920  175.1670  137.1410 S   0  0  0  0  0  0  0  0  0  0  0  0
  189.3900  175.4630  136.5710 S   0  0  0  0  0  0  0  0  0  0  0  0
  187.2920  178.1230  138.7830 C   0  0  0  0  0  0  0  0  0  0  0  0
  196.7920  175.1280  134.5980 C   0  0  0  0  0  1  0  0  0  0  0  0
  195.5770  175.2340  135.4480 C   0  0  0  0  0  0  0  0  0  0  0  0
  191.9600  175.5650  135.7320 C   0  0  0  0  0  3  0  0  0  0  0  0
  189.6660  176.6330  139.1010 C   0  0  0  0  0  0  0  0  0  0  0  0
  187.9750  178.1290  140.0040 C   0  0  0  0  0  3  0  0  0  0  0  0
  193.1060  175.4160  138.3730 N   0  0  0  0  0  2  0  0  0  0  0  0
  194.3300  175.3870  134.9390 N   0  0  0  0  0  0  0  0  0  0  0  0
  186.0900  178.8790  138.5820 N   0  0  0  0  0  2  0  0  0  0  0  0
  184.9230  178.2740  140.5280 O   0  0  0  0  0  0  0  0  0  0  0  0
  184.9520  178.9290  139.4530 C   0  0  0  0  0  0  0  0  0  0  0  0
  183.7720  179.7480  139.0620 C   0  0  0  0  0  2  0  0  0  0  0  0
  181.5780  179.6020  139.9780 O   0  0  0  0  0  1  0  0  0  0  0  0
  182.3790  177.6790  139.0210 O   0  0  0  0  0  0  0  0  0  0  0  0
  182.5120  179.0170  139.3720 C   0  0  0  0  0  0  0  0  0  0  0  0
  189.7630  177.4690  141.4420 O   0  0  0  0  0  0  0  0  0  0  0  0
  189.7930  176.4140  142.3930 C   0  0  0  0  0  2  0  0  0  0  0  0
  187.5940  176.7420  143.5350 C   0  0  0  0  0  3  0  0  0  0  0  0
  189.6310  177.2450  144.7450 C   0  0  0  0  0  3  0  0  0  0  0  0
  188.8770  177.6260  145.8590 C   0  0  0  0  0  3  0  0  0  0  0  0
  187.4790  177.5590  145.8140 C   0  0  0  0  0  0  0  0  0  0  0  0
  186.8390  177.1230  144.6480 C   0  0  0  0  0  3  0  0  0  0  0  0
  188.9910  176.7940  143.5860 C   0  0  0  0  0  0  0  0  0  0  0  0
  186.6750  177.9820  146.9930 C   0  0  0  0  0  2  0  0  0  0  0  0
  185.8390  179.1990  146.6470 C   0  0  0  0  0  2  0  0  0  0  0  0
  184.4920  178.7810  146.3090 N   0  0  0  0  0  1  0  0  0  0  0  0
  2  7  2  0  0  0  0
  2 11  1  0  0  0  0
  3 17  1  0  0  0  0
  3  1  2  0  0  0  0
  4  3  1  0  0  0  0
  5 26  1  0  0  0  0
  6  8  2  0  0  0  0
  7 15  1  0  0  0  0
  8 17  1  0  0  0  0
  9  8  1  0  0  0  0
 10  4  1  0  0  0  0
 10  7  1  0  0  0  0
 11 16  2  0  0  0  0
 12 13  1  0  0  0  0
 13  9  1  0  0  0  0
 14  6  1  0  0  0  0
 14  4  2  0  0  0  0
 15  1  1  0  0  0  0
 15  5  2  0  0  0  0
 16  5  1  0  0  0  0
 18 13  2  0  0  0  0
 18  6  1  0  0  0  0
 19 11  1  0  0  0  0
 19 21  1  0  0  0  0
 21 20  2  0  0  0  0
 22 25  1  0  0  0  0
 22 21  1  0  0  0  0
 24 25  2  0  0  0  0
 25 23  1  0  0  0  0
 26 27  1  0  0  0  0
 27 33  1  0  0  0  0
 28 33  2  0  0  0  0
 28 32  1  0  0  0  0
 29 30  2  0  0  0  0
 31 30  1  0  0  0  0
 31 34  1  0  0  0  0
 32 31  2  0  0  0  0
 33 29  1  0  0  0  0
 35 34  1  0  0  0  0
 36 35  1  0  0  0  0
M  END
>  <MODEL>
6

>  <REMARK>
 VINA RESULT:      -7.6      2.943      7.969
  Name = 
  8 active torsions:
  status: ('A' for Active; 'I' for Inactive)
    1  A    between atoms: C_7  and  O_22
    2  A    between atoms: N_13  and  C_14
    3  A    between atoms: C_16  and  C_31
    4  A    between atoms: C_19  and  C_31
    5  A    between atoms: O_22  and  C_34
    6  A    between atoms: C_23  and  C_36
    7  A    between atoms: C_29  and  C_36
    8  A    between atoms: C_33  and  C_34
                            x       y       z     vdW  Elec       q    Type
                         _______ _______ _______ _____ _____    ______ ____

>  <TORSDO>
F 8

$$$$
=
 OpenBabel10222415563D

 36 40  0  0  0  0  0  0  0  0999 V2000
  186.9030  178.7290  140.5840 N   0  0  0  0  0  0  0  0  0  0  0  0
  183.2640  177.9010  140.8970 C   0  0  0  0  0  3  0  0  0  0  0  0
  187.4160  178.5560  141.7650 C   0  0  0  0  0  0  0  0  0  0  0  0
  186.5600  178.2080  142.9330 C   0  0  0  0  0  0  0  0  0  0  0  0
  185.1460  178.4010  138.8790 C   0  0  0  0  0  0  0  0  0  0  0  0
  188.5550  177.4960  144.1240 C   0  0  0  0  0  0  0  0  0  0  0  0
  184.5470  178.3280  141.2410 C   0  0  0  0  0  0  0  0  0  0  0  0
  189.3680  177.9350  143.1020 C   0  0  0  0  0  0  0  0  0  0  0  0
  190.9740  177.6450  143.4810 S   0  0  0  0  0  0  0  0  0  0  0  0
  184.8590  178.7440  142.9550 S   0  0  0  0  0  0  0  0  0  0  0  0
  182.9130  177.7020  139.5630 C   0  0  0  0  0  0  0  0  0  0  0  0
  191.5270  176.4460  145.9640 C   0  0  0  0  0  1  0  0  0  0  0  0
  190.5480  176.9700  144.9760 C   0  0  0  0  0  0  0  0  0  0  0  0
  187.0990  177.6940  144.0490 C   0  0  0  0  0  3  0  0  0  0  0  0
  185.5170  178.5510  140.2390 C   0  0  0  0  0  0  0  0  0  0  0  0
  183.8530  177.9700  138.5640 C   0  0  0  0  0  3  0  0  0  0  0  0
  188.8450  178.5030  141.9020 N   0  0  0  0  0  2  0  0  0  0  0  0
  189.2080  176.9630  145.1860 N   0  0  0  0  0  0  0  0  0  0  0  0
  181.5850  177.2560  139.2580 N   0  0  0  0  0  2  0  0  0  0  0  0
  180.3640  179.0830  140.0880 O   0  0  0  0  0  0  0  0  0  0  0  0
  180.3620  177.9550  139.5280 C   0  0  0  0  0  0  0  0  0  0  0  0
  179.0650  177.3190  139.1680 C   0  0  0  0  0  2  0  0  0  0  0  0
  179.1050  175.3950  140.5730 O   0  0  0  0  0  1  0  0  0  0  0  0
  179.2530  174.9800  138.3230 O   0  0  0  0  0  0  0  0  0  0  0  0
  179.1310  175.8490  139.3990 C   0  0  0  0  0  0  0  0  0  0  0  0
  186.0170  178.6340  137.8040 O   0  0  0  0  0  0  0  0  0  0  0  0
  186.3440  177.6750  136.8080 C   0  0  0  0  0  2  0  0  0  0  0  0
  187.8790  175.7100  136.9680 C   0  0  0  0  0  3  0  0  0  0  0  0
  188.7220  177.9070  137.5400 C   0  0  0  0  0  3  0  0  0  0  0  0
  189.9710  177.3520  137.8370 C   0  0  0  0  0  3  0  0  0  0  0  0
  190.1770  175.9750  137.6930 C   0  0  0  0  0  0  0  0  0  0  0  0
  189.1270  175.1540  137.2650 C   0  0  0  0  0  3  0  0  0  0  0  0
  187.6790  177.0880  137.0970 C   0  0  0  0  0  0  0  0  0  0  0  0
  191.5010  175.3810  138.0260 C   0  0  0  0  0  2  0  0  0  0  0  0
  192.5250  176.4770  138.2480 C   0  0  0  0  0  2  0  0  0  0  0  0
  193.8600  175.9150  138.1670 N   0  0  0  0  0  1  0  0  0  0  0  0
  1  3  2  0  0  0  0
  2  7  1  0  0  0  0
  3 17  1  0  0  0  0
  3  4  1  0  0  0  0
  4 10  1  0  0  0  0
  4 14  2  0  0  0  0
  5 15  1  0  0  0  0
  6 18  1  0  0  0  0
  7 10  1  0  0  0  0
  8  9  1  0  0  0  0
  8  6  2  0  0  0  0
  9 13  1  0  0  0  0
 11  2  2  0  0  0  0
 13 18  2  0  0  0  0
 13 12  1  0  0  0  0
 14  6  1  0  0  0  0
 15  1  1  0  0  0  0
 15  7  2  0  0  0  0
 16  5  2  0  0  0  0
 16 11  1  0  0  0  0
 17  8  1  0  0  0  0
 19 21  1  0  0  0  0
 19 11  1  0  0  0  0
 21 20  2  0  0  0  0
 22 25  1  0  0  0  0
 22 21  1  0  0  0  0
 24 25  2  0  0  0  0
 25 23  1  0  0  0  0
 26  5  1  0  0  0  0
 27 33  1  0  0  0  0
 27 26  1  0  0  0  0
 28 33  2  0  0  0  0
 28 32  1  0  0  0  0
 29 30  2  0  0  0  0
 31 30  1  0  0  0  0
 31 34  1  0  0  0  0
 32 31  2  0  0  0  0
 33 29  1  0  0  0  0
 34 35  1  0  0  0  0
 36 35  1  0  0  0  0
M  END
>  <MODEL>
7

>  <REMARK>
 VINA RESULT:      -7.4      3.976      9.705
  Name = 
  8 active torsions:
  status: ('A' for Active; 'I' for Inactive)
    1  A    between atoms: C_7  and  O_22
    2  A    between atoms: N_13  and  C_14
    3  A    between atoms: C_16  and  C_31
    4  A    between atoms: C_19  and  C_31
    5  A    between atoms: O_22  and  C_34
    6  A    between atoms: C_23  and  C_36
    7  A    between atoms: C_29  and  C_36
    8  A    between atoms: C_33  and  C_34
                            x       y       z     vdW  Elec       q    Type
                         _______ _______ _______ _____ _____    ______ ____

>  <TORSDO>
F 8

$$$$
=
 OpenBabel10222415563D

 36 40  0  0  0  0  0  0  0  0999 V2000
  188.9190  176.9160  139.8150 N   0  0  0  0  0  0  0  0  0  0  0  0
  185.8130  178.3250  138.2680 C   0  0  0  0  0  3  0  0  0  0  0  0
  189.6670  176.5190  138.8300 C   0  0  0  0  0  0  0  0  0  0  0  0
  189.1800  176.5780  137.4230 C   0  0  0  0  0  0  0  0  0  0  0  0
  187.0610  178.2290  140.7780 C   0  0  0  0  0  0  0  0  0  0  0  0
  191.4790  176.3460  136.6680 C   0  0  0  0  0  0  0  0  0  0  0  0
  186.9510  177.5360  138.4430 C   0  0  0  0  0  0  0  0  0  0  0  0
  191.9240  176.1600  137.9590 C   0  0  0  0  0  0  0  0  0  0  0  0
  193.5840  175.9350  137.9660 S   0  0  0  0  0  0  0  0  0  0  0  0
  187.4310  176.4510  137.1010 S   0  0  0  0  0  0  0  0  0  0  0  0
  185.3010  179.0800  139.3210 C   0  0  0  0  0  0  0  0  0  0  0  0
  194.9110  175.9660  135.4880 C   0  0  0  0  0  1  0  0  0  0  0  0
  193.6580  176.0740  136.2790 C   0  0  0  0  0  0  0  0  0  0  0  0
  190.0420  176.5070  136.3970 C   0  0  0  0  0  3  0  0  0  0  0  0
  187.6110  177.5030  139.6910 C   0  0  0  0  0  0  0  0  0  0  0  0
  185.9210  179.0120  140.5730 C   0  0  0  0  0  3  0  0  0  0  0  0
  191.0460  176.2090  139.0830 N   0  0  0  0  0  2  0  0  0  0  0  0
  192.4430  176.2880  135.7160 N   0  0  0  0  0  0  0  0  0  0  0  0
  184.1340  179.8810  139.0930 N   0  0  0  0  0  2  0  0  0  0  0  0
  182.4740  178.2920  139.5800 O   0  0  0  0  0  0  0  0  0  0  0  0
  182.7690  179.4650  139.2280 C   0  0  0  0  0  0  0  0  0  0  0  0
  181.6800  180.4310  138.9150 C   0  0  0  0  0  2  0  0  0  0  0  0
  179.4610  179.6000  139.1650 O   0  0  0  0  0  0  0  0  0  0  0  0
  180.4300  180.4230  141.0730 O   0  0  0  0  0  1  0  0  0  0  0  0
  180.4660  180.1160  139.7190 C   0  0  0  0  0  0  0  0  0  0  0  0
  187.6120  178.2350  142.0680 O   0  0  0  0  0  0  0  0  0  0  0  0
  186.9080  177.8780  143.2490 C   0  0  0  0  0  2  0  0  0  0  0  0
  189.2100  177.3670  144.0760 C   0  0  0  0  0  3  0  0  0  0  0  0
  187.4320  177.7010  145.6860 C   0  0  0  0  0  3  0  0  0  0  0  0
  188.3320  177.4690  146.7310 C   0  0  0  0  0  3  0  0  0  0  0  0
  189.6760  177.1940  146.4490 C   0  0  0  0  0  0  0  0  0  0  0  0
  190.1120  177.1360  145.1200 C   0  0  0  0  0  3  0  0  0  0  0  0
  187.8720  177.6590  144.3600 C   0  0  0  0  0  0  0  0  0  0  0  0
  190.6310  176.9300  147.5590 C   0  0  0  0  0  2  0  0  0  0  0  0
  191.7850  176.0780  147.0650 C   0  0  0  0  0  2  0  0  0  0  0  0
  192.8060  176.0030  148.0930 N   0  0  0  0  0  1  0  0  0  0  0  0
  2  7  2  0  0  0  0
  2 11  1  0  0  0  0
  3 17  1  0  0  0  0
  3  1  2  0  0  0  0
  4  3  1  0  0  0  0
  5 26  1  0  0  0  0
  6  8  2  0  0  0  0
  7 15  1  0  0  0  0
  8  9  1  0  0  0  0
  8 17  1  0  0  0  0
 10  4  1  0  0  0  0
 10  7  1  0  0  0  0
 11 16  2  0  0  0  0
 12 13  1  0  0  0  0
 13  9  1  0  0  0  0
 14  6  1  0  0  0  0
 14  4  2  0  0  0  0
 15  1  1  0  0  0  0
 15  5  2  0  0  0  0
 16  5  1  0  0  0  0
 18 13  2  0  0  0  0
 18  6  1  0  0  0  0
 19 21  1  0  0  0  0
 19 11  1  0  0  0  0
 21 20  2  0  0  0  0
 22 21  1  0  0  0  0
 22 25  1  0  0  0  0
 23 25  2  0  0  0  0
 25 24  1  0  0  0  0
 26 27  1  0  0  0  0
 27 33  1  0  0  0  0
 28 33  2  0  0  0  0
 28 32  1  0  0  0  0
 29 30  2  0  0  0  0
 31 30  1  0  0  0  0
 31 34  1  0  0  0  0
 32 31  2  0  0  0  0
 33 29  1  0  0  0  0
 35 34  1  0  0  0  0
 35 36  1  0  0  0  0
M  END
>  <MODEL>
8

>  <REMARK>
 VINA RESULT:      -7.4      3.739      8.425
  Name = 
  8 active torsions:
  status: ('A' for Active; 'I' for Inactive)
    1  A    between atoms: C_7  and  O_22
    2  A    between atoms: N_13  and  C_14
    3  A    between atoms: C_16  and  C_31
    4  A    between atoms: C_19  and  C_31
    5  A    between atoms: O_22  and  C_34
    6  A    between atoms: C_23  and  C_36
    7  A    between atoms: C_29  and  C_36
    8  A    between atoms: C_33  and  C_34
                            x       y       z     vdW  Elec       q    Type
                         _______ _______ _______ _____ _____    ______ ____

>  <TORSDO>
F 8

$$$$
=
 OpenBabel10222415563D

 36 40  0  0  0  0  0  0  0  0999 V2000
  187.4180  177.4500  138.4160 N   0  0  0  0  0  0  0  0  0  0  0  0
  190.4840  176.6230  136.4310 C   0  0  0  0  0  3  0  0  0  0  0  0
  186.4420  177.5240  137.5620 C   0  0  0  0  0  0  0  0  0  0  0  0
  186.6900  177.3930  136.0990 C   0  0  0  0  0  0  0  0  0  0  0  0
  189.6840  176.7570  139.1160 C   0  0  0  0  0  0  0  0  0  0  0  0
  184.3170  176.9710  135.7830 C   0  0  0  0  0  0  0  0  0  0  0  0
  189.2260  177.1360  136.7510 C   0  0  0  0  0  0  0  0  0  0  0  0
  184.0570  177.2170  137.1140 C   0  0  0  0  0  0  0  0  0  0  0  0
  182.4200  177.0420  137.4210 S   0  0  0  0  0  0  0  0  0  0  0  0
  188.2700  177.8870  135.4360 S   0  0  0  0  0  0  0  0  0  0  0  0
  191.3390  176.1590  137.4290 C   0  0  0  0  0  0  0  0  0  0  0  0
  180.7570  176.3650  135.2570 C   0  0  0  0  0  1  0  0  0  0  0  0
  182.1080  176.6640  135.7990 C   0  0  0  0  0  0  0  0  0  0  0  0
  185.6820  177.1200  135.2550 C   0  0  0  0  0  3  0  0  0  0  0  0
  188.7950  177.1790  138.0950 C   0  0  0  0  0  0  0  0  0  0  0  0
  190.9370  176.2450  138.7650 C   0  0  0  0  0  3  0  0  0  0  0  0
  185.0900  177.5280  138.0480 N   0  0  0  0  0  2  0  0  0  0  0  0
  183.2270  176.6700  135.0340 N   0  0  0  0  0  0  0  0  0  0  0  0
  192.6190  175.6340  137.0520 N   0  0  0  0  0  2  0  0  0  0  0  0
  192.0580  173.3630  136.8410 O   0  0  0  0  0  0  0  0  0  0  0  0
  192.9350  174.2630  136.7730 C   0  0  0  0  0  0  0  0  0  0  0  0
  194.3360  173.8960  136.4270 C   0  0  0  0  0  2  0  0  0  0  0  0
  195.7720  175.7850  136.2210 O   0  0  0  0  0  0  0  0  0  0  0  0
  195.6560  174.8550  138.3130 O   0  0  0  0  0  1  0  0  0  0  0  0
  195.2840  174.9040  136.9760 C   0  0  0  0  0  0  0  0  0  0  0  0
  189.3720  176.7920  140.4830 O   0  0  0  0  0  0  0  0  0  0  0  0
  189.7110  177.8580  141.3600 C   0  0  0  0  0  2  0  0  0  0  0  0
  189.4260  177.6120  143.8310 C   0  0  0  0  0  3  0  0  0  0  0  0
  187.4590  177.8950  142.4450 C   0  0  0  0  0  3  0  0  0  0  0  0
  186.6470  177.8160  143.5800 C   0  0  0  0  0  3  0  0  0  0  0  0
  187.2240  177.6430  144.8440 C   0  0  0  0  0  0  0  0  0  0  0  0
  188.6140  177.5340  144.9670 C   0  0  0  0  0  3  0  0  0  0  0  0
  188.8490  177.8020  142.5710 C   0  0  0  0  0  0  0  0  0  0  0  0
  186.3580  177.5420  146.0510 C   0  0  0  0  0  2  0  0  0  0  0  0
  185.6400  178.8550  146.2910 C   0  0  0  0  0  2  0  0  0  0  0  0
  184.2060  178.6340  146.2670 N   0  0  0  0  0  1  0  0  0  0  0  0
  2  7  2  0  0  0  0
  2 11  1  0  0  0  0
  3 17  1  0  0  0  0
  3  1  2  0  0  0  0
  4  3  1  0  0  0  0
  5 26  1  0  0  0  0
  6  8  2  0  0  0  0
  7 15  1  0  0  0  0
  8  9  1  0  0  0  0
  8 17  1  0  0  0  0
 10  4  1  0  0  0  0
 10  7  1  0  0  0  0
 11 16  2  0  0  0  0
 12 13  1  0  0  0  0
 13  9  1  0  0  0  0
 14  6  1  0  0  0  0
 14  4  2  0  0  0  0
 15  1  1  0  0  0  0
 15  5  2  0  0  0  0
 16  5  1  0  0  0  0
 18  6  1  0  0  0  0
 18 13  2  0  0  0  0
 19 11  1  0  0  0  0
 21 20  2  0  0  0  0
 21 19  1  0  0  0  0
 22 21  1  0  0  0  0
 22 25  1  0  0  0  0
 23 25  2  0  0  0  0
 25 24  1  0  0  0  0
 26 27  1  0  0  0  0
 27 33  1  0  0  0  0
 28 32  1  0  0  0  0
 29 33  1  0  0  0  0
 29 30  2  0  0  0  0
 30 31  1  0  0  0  0
 31 32  2  0  0  0  0
 31 34  1  0  0  0  0
 33 28  2  0  0  0  0
 34 35  1  0  0  0  0
 36 35  1  0  0  0  0
M  END
>  <MODEL>
9

>  <REMARK>
 VINA RESULT:      -7.1      1.779      2.090
  Name = 
  8 active torsions:
  status: ('A' for Active; 'I' for Inactive)
    1  A    between atoms: C_7  and  O_22
    2  A    between atoms: N_13  and  C_14
    3  A    between atoms: C_16  and  C_31
    4  A    between atoms: C_19  and  C_31
    5  A    between atoms: O_22  and  C_34
    6  A    between atoms: C_23  and  C_36
    7  A    between atoms: C_29  and  C_36
    8  A    between atoms: C_33  and  C_34
                            x       y       z     vdW  Elec       q    Type
                         _______ _______ _______ _____ _____    ______ ____

>  <TORSDO>
F 8

$$$$
