=
 OpenBabel10222419403D

 36 39  0  0  1  0  0  0  0  0999 V2000
  186.2190  178.1680  145.0160 C   0  0  0  0  0  0  0  0  0  0  0  0
  185.3860  178.6100  146.0680 C   0  0  0  0  0  0  0  0  0  0  0  0
  188.0250  177.8500  146.6110 C   0  0  0  0  0  3  0  0  0  0  0  0
  184.0680  178.9860  145.8420 O   0  0  0  0  0  1  0  0  0  0  0  0
  185.8820  178.6670  147.3730 C   0  0  0  0  0  3  0  0  0  0  0  0
  187.6730  178.3520  148.9110 F   0  0  0  0  0  0  0  0  0  0  0  0
  187.5390  177.7840  145.2980 C   0  0  0  0  0  0  0  0  0  0  0  0
  187.1980  178.2900  147.6450 C   0  0  0  0  0  0  0  0  0  0  0  0
  185.7740  178.0920  143.6550 N   0  0  0  0  0  2  0  0  0  0  0  0
  185.0830  179.1470  142.9240 C   0  0  0  0  0  2  0  0  0  0  0  0
  183.8720  178.5840  142.1760 C   0  0  2  0  0  3  0  0  0  0  0  0
  183.8890  178.8830  140.6800 C   0  0  1  0  0  3  0  0  0  0  0  0
  182.6590  179.1380  142.7570 N   0  0  0  0  0  0  0  0  0  0  0  0
  180.1480  179.6530  143.3120 Cl  0  0  0  0  0  0  0  0  0  0  0  0
  185.2900  178.8310  140.0830 C   0  0  0  0  0  1  0  0  0  0  0  0
  181.0670  177.9670  141.3630 N   0  0  0  0  0  0  0  0  0  0  0  0
  183.0730  177.8970  139.9980 N   0  0  0  0  0  2  0  0  0  0  0  0
  181.4350  178.8900  142.4030 C   0  0  0  0  0  0  0  0  0  0  0  0
  181.7400  177.5120  140.3440 C   0  0  0  0  0  3  0  0  0  0  0  0
  188.3610  177.3540  144.2500 O   0  0  0  0  0  0  0  0  0  0  0  0
  190.3130  176.1340  142.5870 C   0  0  0  0  0  2  0  0  0  0  0  0
  191.0410  176.7130  144.9000 C   0  0  0  0  0  2  0  0  0  0  0  0
  190.5050  178.1310  144.6710 C   0  0  0  0  0  2  0  0  0  0  0  0
  189.3730  178.1410  143.7300 N   0  0  0  0  0  0  0  0  0  0  0  0
  191.4720  176.1040  143.5740 C   0  0  0  0  0  2  0  0  0  0  0  0
  189.8020  177.5740  142.4410 C   0  0  2  0  0  3  0  0  0  0  0  0
  188.6980  177.6960  141.3880 C   0  0  2  0  0  3  0  0  0  0  0  0
  187.7410  176.7010  141.5460 F   0  0  0  0  0  0  0  0  0  0  0  0
  189.2750  177.7090  139.9710 C   0  0  1  0  0  0  0  0  0  0  0  0
  188.3680  177.9120  138.8210 C   0  0  0  0  0  2  0  0  0  0  0  0
  189.1500  178.9640  139.3510 O   0  0  0  0  0  0  0  0  0  0  0  0
  191.6590  177.7250  139.9780 O   0  0  0  0  0  0  0  0  0  0  0  0
  190.6050  177.0900  139.7020 C   0  0  0  0  0  0  0  0  0  0  0  0
  190.6650  175.8000  139.1660 O   0  0  0  0  0  0  0  0  0  0  0  0
  191.0090  176.3220  136.8330 C   0  0  0  0  0  1  0  0  0  0  0  0
  191.4510  175.4850  138.0240 C   0  0  0  0  0  2  0  0  0  0  0  0
  1  7  2  0  0  0  0
  1  2  1  0  0  0  0
  2  5  2  0  0  0  0
  3  8  2  0  0  0  0
  4  2  1  0  0  0  0
  5  8  1  0  0  0  0
  7  3  1  0  0  0  0
  8  6  1  0  0  0  0
  9  1  1  0  0  0  0
 10  9  1  0  0  0  0
 11 13  1  0  0  0  0
 11 10  1  1  0  0  0
 12 15  1  6  0  0  0
 12 11  1  0  0  0  0
 16 18  1  0  0  0  0
 17 19  1  0  0  0  0
 17 12  1  0  0  0  0
 18 13  2  0  0  0  0
 18 14  1  0  0  0  0
 19 16  2  0  0  0  0
 20  7  1  0  0  0  0
 21 25  1  0  0  0  0
 23 22  1  0  0  0  0
 24 20  1  0  0  0  0
 24 23  1  0  0  0  0
 25 22  1  0  0  0  0
 26 27  1  6  0  0  0
 26 21  1  0  0  0  0
 26 24  1  0  0  0  0
 27 28  1  6  0  0  0
 29 33  1  6  0  0  0
 29 27  1  0  0  0  0
 30 31  1  0  0  0  0
 30 29  1  0  0  0  0
 31 29  1  0  0  0  0
 33 32  2  0  0  0  0
 34 33  1  0  0  0  0
 35 36  1  0  0  0  0
 36 34  1  0  0  0  0
M  END
>  <MODEL>
1

>  <REMARK>
 VINA RESULT:      -8.4      0.000      0.000
  Name = 
  10 active torsions:
  status: ('A' for Active; 'I' for Inactive)
    1  A    between atoms: O_2  and  C_27
    2  A    between atoms: O_2  and  C_34
    3  A    between atoms: C_3  and  N_11
    4  A    between atoms: C_5  and  C_25
    5  A    between atoms: C_8  and  C_27
    6  A    between atoms: C_8  and  C_29
    7  A    between atoms: N_11  and  C_25
    8  A    between atoms: N_20  and  O_32
    9  A    between atoms: C_29  and  C_30
   10  A    between atoms: O_32  and  C_33
                            x       y       z     vdW  Elec       q    Type
                         _______ _______ _______ _____ _____    ______ ____

>  <TORSDO>
F 10

$$$$
=
 OpenBabel10222419403D

 36 39  0  0  1  0  0  0  0  0999 V2000
  185.9350  178.0400  143.2230 C   0  0  0  0  0  0  0  0  0  0  0  0
  186.2860  178.2350  144.5780 C   0  0  0  0  0  0  0  0  0  0  0  0
  183.6360  178.6200  143.7600 C   0  0  0  0  0  3  0  0  0  0  0  0
  187.5910  178.0640  145.0230 O   0  0  0  0  0  1  0  0  0  0  0  0
  185.3100  178.6160  145.5030 C   0  0  0  0  0  3  0  0  0  0  0  0
  183.0480  179.1720  145.9990 F   0  0  0  0  0  0  0  0  0  0  0  0
  184.6050  178.2410  142.8210 C   0  0  0  0  0  0  0  0  0  0  0  0
  183.9880  178.8060  145.0970 C   0  0  0  0  0  0  0  0  0  0  0  0
  186.8860  177.6440  142.2260 N   0  0  0  0  0  2  0  0  0  0  0  0
  187.9120  178.4970  141.6410 C   0  0  0  0  0  2  0  0  0  0  0  0
  188.6720  177.7530  140.5390 C   0  0  2  0  0  3  0  0  0  0  0  0
  190.1180  177.4350  140.9050 C   0  0  1  0  0  3  0  0  0  0  0  0
  188.6540  178.5590  139.3280 N   0  0  0  0  0  0  0  0  0  0  0  0
  188.9650  179.3910  136.8600 Cl  0  0  0  0  0  0  0  0  0  0  0  0
  190.2890  177.0730  142.3750 C   0  0  0  0  0  1  0  0  0  0  0  0
  189.8600  177.0240  137.9000 N   0  0  0  0  0  0  0  0  0  0  0  0
  190.5640  176.3080  140.1100 N   0  0  0  0  0  2  0  0  0  0  0  0
  189.1810  178.2610  138.1800 C   0  0  0  0  0  0  0  0  0  0  0  0
  190.4380  176.1660  138.6920 C   0  0  0  0  0  3  0  0  0  0  0  0
  184.2640  178.0400  141.4790 O   0  0  0  0  0  0  0  0  0  0  0  0
  182.8790  177.2450  139.1310 C   0  0  0  0  0  2  0  0  0  0  0  0
  185.0670  178.3890  138.7870 C   0  0  0  0  0  2  0  0  0  0  0  0
  184.5820  179.5090  139.7130 C   0  0  0  0  0  2  0  0  0  0  0  0
  183.6330  179.0120  140.7210 N   0  0  0  0  0  0  0  0  0  0  0  0
  183.8780  177.7410  138.0930 C   0  0  0  0  0  2  0  0  0  0  0  0
  182.4730  178.4080  140.0450 C   0  0  2  0  0  3  0  0  0  0  0  0
  181.3930  178.0060  141.0540 C   0  0  2  0  0  3  0  0  0  0  0  0
  180.7690  176.8230  140.6770 F   0  0  0  0  0  0  0  0  0  0  0  0
  180.3840  179.1350  141.2740 C   0  0  1  0  0  0  0  0  0  0  0  0
  179.6400  179.2040  142.5500 C   0  0  0  0  0  2  0  0  0  0  0  0
  180.7740  180.0110  142.3020 O   0  0  0  0  0  0  0  0  0  0  0  0
  179.1600  179.2470  139.2320 O   0  0  0  0  0  0  0  0  0  0  0  0
  179.8220  179.8700  140.1050 C   0  0  0  0  0  0  0  0  0  0  0  0
  180.0200  181.2510  140.0030 O   0  0  0  0  0  0  0  0  0  0  0  0
  181.7160  181.5500  138.3100 C   0  0  0  0  0  1  0  0  0  0  0  0
  180.3060  181.8910  138.7670 C   0  0  0  0  0  2  0  0  0  0  0  0
  1  2  1  0  0  0  0
  2  4  1  0  0  0  0
  2  5  2  0  0  0  0
  3  8  2  0  0  0  0
  7  1  2  0  0  0  0
  7  3  1  0  0  0  0
  8  5  1  0  0  0  0
  8  6  1  0  0  0  0
  9  1  1  0  0  0  0
 10  9  1  0  0  0  0
 11 12  1  0  0  0  0
 11 10  1  1  0  0  0
 12 15  1  1  0  0  0
 13 11  1  0  0  0  0
 14 18  1  0  0  0  0
 16 18  1  0  0  0  0
 16 19  2  0  0  0  0
 17 12  1  0  0  0  0
 18 13  2  0  0  0  0
 19 17  1  0  0  0  0
 20  7  1  0  0  0  0
 21 26  1  0  0  0  0
 22 23  1  0  0  0  0
 23 24  1  0  0  0  0
 24 20  1  0  0  0  0
 25 22  1  0  0  0  0
 25 21  1  0  0  0  0
 26 24  1  0  0  0  0
 26 27  1  1  0  0  0
 27 28  1  6  0  0  0
 27 29  1  0  0  0  0
 29 33  1  6  0  0  0
 29 31  1  0  0  0  0
 29 30  1  0  0  0  0
 31 30  1  0  0  0  0
 32 33  2  0  0  0  0
 34 33  1  0  0  0  0
 35 36  1  0  0  0  0
 36 34  1  0  0  0  0
M  END
>  <MODEL>
2

>  <REMARK>
 VINA RESULT:      -8.2      3.856      7.807
  Name = 
  10 active torsions:
  status: ('A' for Active; 'I' for Inactive)
    1  A    between atoms: O_2  and  C_27
    2  A    between atoms: O_2  and  C_34
    3  A    between atoms: C_3  and  N_11
    4  A    between atoms: C_5  and  C_25
    5  A    between atoms: C_8  and  C_27
    6  A    between atoms: C_8  and  C_29
    7  A    between atoms: N_11  and  C_25
    8  A    between atoms: N_20  and  O_32
    9  A    between atoms: C_29  and  C_30
   10  A    between atoms: O_32  and  C_33
                            x       y       z     vdW  Elec       q    Type
                         _______ _______ _______ _____ _____    ______ ____

>  <TORSDO>
F 10

$$$$
=
 OpenBabel10222419403D

 36 39  0  0  1  0  0  0  0  0999 V2000
  187.7250  177.9520  138.3660 C   0  0  0  0  0  0  0  0  0  0  0  0
  188.3720  177.9670  137.1100 C   0  0  0  0  0  0  0  0  0  0  0  0
  189.7750  177.1370  139.3860 C   0  0  0  0  0  3  0  0  0  0  0  0
  187.7150  178.3810  135.9580 O   0  0  0  0  0  1  0  0  0  0  0  0
  189.7070  177.5660  137.0090 C   0  0  0  0  0  3  0  0  0  0  0  0
  191.6990  176.7610  138.0360 F   0  0  0  0  0  0  0  0  0  0  0  0
  188.4370  177.5400  139.5020 C   0  0  0  0  0  0  0  0  0  0  0  0
  190.4070  177.1500  138.1430 C   0  0  0  0  0  0  0  0  0  0  0  0
  186.3560  178.3450  138.5360 N   0  0  0  0  0  2  0  0  0  0  0  0
  185.1980  177.6640  137.9720 C   0  0  0  0  0  2  0  0  0  0  0  0
  183.9540  177.9100  138.8300 C   0  0  2  0  0  3  0  0  0  0  0  0
  182.8490  176.8820  138.6080 C   0  0  1  0  0  3  0  0  0  0  0  0
  183.4340  179.2370  138.5370 N   0  0  0  0  0  0  0  0  0  0  0  0
  182.0210  181.4460  138.5770 Cl  0  0  0  0  0  0  0  0  0  0  0  0
  183.3890  175.4770  138.3710 C   0  0  0  0  0  1  0  0  0  0  0  0
  181.5920  179.2170  140.1040 N   0  0  0  0  0  0  0  0  0  0  0  0
  182.0020  176.8460  139.7840 N   0  0  0  0  0  2  0  0  0  0  0  0
  182.4000  179.8100  139.0720 C   0  0  0  0  0  0  0  0  0  0  0  0
  181.4170  177.9710  140.4440 C   0  0  0  0  0  3  0  0  0  0  0  0
  187.7880  177.5220  140.7420 O   0  0  0  0  0  0  0  0  0  0  0  0
  187.1590  176.9880  143.4590 C   0  0  0  0  0  2  0  0  0  0  0  0
  185.5010  178.3510  142.1900 C   0  0  0  0  0  2  0  0  0  0  0  0
  186.6490  179.2690  141.7550 C   0  0  0  0  0  2  0  0  0  0  0  0
  187.9250  178.5430  141.6660 N   0  0  0  0  0  0  0  0  0  0  0  0
  185.8260  177.7220  143.5370 C   0  0  0  0  0  2  0  0  0  0  0  0
  188.2480  177.9570  142.9770 C   0  0  2  0  0  3  0  0  0  0  0  0
  189.6370  177.3130  142.9690 C   0  0  2  0  0  3  0  0  0  0  0  0
  189.5500  175.9290  143.0630 F   0  0  0  0  0  0  0  0  0  0  0  0
  190.5330  177.9010  144.0610 C   0  0  1  0  0  0  0  0  0  0  0  0
  191.8040  178.5530  143.6820 C   0  0  0  0  0  2  0  0  0  0  0  0
  190.6400  179.3000  143.9730 O   0  0  0  0  0  0  0  0  0  0  0  0
  191.1070  176.5110  145.9110 O   0  0  0  0  0  0  0  0  0  0  0  0
  190.3830  177.4460  145.4730 C   0  0  0  0  0  0  0  0  0  0  0  0
  189.4520  178.0790  146.3020 O   0  0  0  0  0  0  0  0  0  0  0  0
  188.3360  177.7520  148.4200 C   0  0  0  0  0  1  0  0  0  0  0  0
  188.4010  177.3720  146.9480 C   0  0  0  0  0  2  0  0  0  0  0  0
  1  9  1  0  0  0  0
  1  7  1  0  0  0  0
  2  1  2  0  0  0  0
  3  7  2  0  0  0  0
  4  2  1  0  0  0  0
  5  2  1  0  0  0  0
  5  8  2  0  0  0  0
  6  8  1  0  0  0  0
  7 20  1  0  0  0  0
  8  3  1  0  0  0  0
 10  9  1  0  0  0  0
 11 10  1  6  0  0  0
 12 15  1  1  0  0  0
 12 11  1  0  0  0  0
 12 17  1  0  0  0  0
 13 11  1  0  0  0  0
 13 18  2  0  0  0  0
 14 18  1  0  0  0  0
 16 19  2  0  0  0  0
 17 19  1  0  0  0  0
 18 16  1  0  0  0  0
 20 24  1  0  0  0  0
 21 25  1  0  0  0  0
 22 25  1  0  0  0  0
 23 22  1  0  0  0  0
 24 23  1  0  0  0  0
 24 26  1  0  0  0  0
 26 27  1  6  0  0  0
 26 21  1  0  0  0  0
 27 28  1  1  0  0  0
 27 29  1  0  0  0  0
 29 33  1  1  0  0  0
 30 31  1  0  0  0  0
 30 29  1  0  0  0  0
 31 29  1  0  0  0  0
 33 32  2  0  0  0  0
 33 34  1  0  0  0  0
 34 36  1  0  0  0  0
 36 35  1  0  0  0  0
M  END
>  <MODEL>
3

>  <REMARK>
 VINA RESULT:      -8.1      2.589      6.332
  Name = 
  10 active torsions:
  status: ('A' for Active; 'I' for Inactive)
    1  A    between atoms: O_2  and  C_27
    2  A    between atoms: O_2  and  C_34
    3  A    between atoms: C_3  and  N_11
    4  A    between atoms: C_5  and  C_25
    5  A    between atoms: C_8  and  C_27
    6  A    between atoms: C_8  and  C_29
    7  A    between atoms: N_11  and  C_25
    8  A    between atoms: N_20  and  O_32
    9  A    between atoms: C_29  and  C_30
   10  A    between atoms: O_32  and  C_33
                            x       y       z     vdW  Elec       q    Type
                         _______ _______ _______ _____ _____    ______ ____

>  <TORSDO>
F 10

$$$$
=
 OpenBabel10222419403D

 36 39  0  0  1  0  0  0  0  0999 V2000
  188.7580  176.9170  138.3390 C   0  0  0  0  0  0  0  0  0  0  0  0
  189.5120  176.7720  137.1530 C   0  0  0  0  0  0  0  0  0  0  0  0
  190.8210  176.8890  139.6250 C   0  0  0  0  0  3  0  0  0  0  0  0
  188.9020  176.7190  135.9060 O   0  0  0  0  0  1  0  0  0  0  0  0
  190.9050  176.6850  137.2180 C   0  0  0  0  0  3  0  0  0  0  0  0
  192.9080  176.6540  138.5060 F   0  0  0  0  0  0  0  0  0  0  0  0
  189.4230  176.9800  139.5740 C   0  0  0  0  0  0  0  0  0  0  0  0
  191.5590  176.7420  138.4500 C   0  0  0  0  0  0  0  0  0  0  0  0
  187.3270  177.0050  138.3410 N   0  0  0  0  0  2  0  0  0  0  0  0
  186.5410  178.1140  137.8150 C   0  0  0  0  0  2  0  0  0  0  0  0
  185.1730  177.6270  137.3320 C   0  0  2  0  0  3  0  0  0  0  0  0
  184.0300  177.9870  138.2770 C   0  0  1  0  0  3  0  0  0  0  0  0
  185.2170  176.1810  137.1690 N   0  0  0  0  0  0  0  0  0  0  0  0
  184.5950  173.6980  136.6030 Cl  0  0  0  0  0  0  0  0  0  0  0  0
  184.2070  179.3560  138.9210 C   0  0  0  0  0  1  0  0  0  0  0  0
  182.9580  175.8770  136.3620 N   0  0  0  0  0  0  0  0  0  0  0  0
  182.7900  178.0010  137.5250 N   0  0  0  0  0  2  0  0  0  0  0  0
  184.2570  175.4080  136.7640 C   0  0  0  0  0  0  0  0  0  0  0  0
  182.3160  176.9740  136.6490 C   0  0  0  0  0  3  0  0  0  0  0  0
  188.6690  177.1180  140.7450 O   0  0  0  0  0  0  0  0  0  0  0  0
  187.6050  176.9610  143.3730 C   0  0  0  0  0  2  0  0  0  0  0  0
  186.2950  178.3030  141.7300 C   0  0  0  0  0  2  0  0  0  0  0  0
  187.5810  179.0620  141.3850 C   0  0  0  0  0  2  0  0  0  0  0  0
  188.7760  178.2250  141.5690 N   0  0  0  0  0  0  0  0  0  0  0  0
  186.3570  177.8100  143.1690 C   0  0  0  0  0  2  0  0  0  0  0  0
  188.8450  177.7700  142.9680 C   0  0  2  0  0  3  0  0  0  0  0  0
  190.1480  177.0130  143.2400 C   0  0  2  0  0  3  0  0  0  0  0  0
  189.9040  175.6690  143.4940 F   0  0  0  0  0  0  0  0  0  0  0  0
  190.9510  177.6680  144.3660 C   0  0  1  0  0  0  0  0  0  0  0  0
  191.8670  178.7840  144.0480 C   0  0  0  0  0  2  0  0  0  0  0  0
  190.5780  179.0050  144.5840 O   0  0  0  0  0  0  0  0  0  0  0  0
  191.9560  175.9550  145.6840 O   0  0  0  0  0  0  0  0  0  0  0  0
  191.1680  176.9380  145.6480 C   0  0  0  0  0  0  0  0  0  0  0  0
  190.5070  177.3690  146.8030 O   0  0  0  0  0  0  0  0  0  0  0  0
  188.1060  177.6370  146.8370 C   0  0  0  0  0  1  0  0  0  0  0  0
  189.2930  176.7800  147.2510 C   0  0  0  0  0  2  0  0  0  0  0  0
  1  9  1  0  0  0  0
  1  7  1  0  0  0  0
  2  5  1  0  0  0  0
  2  1  2  0  0  0  0
  4  2  1  0  0  0  0
  5  8  2  0  0  0  0
  7  3  2  0  0  0  0
  7 20  1  0  0  0  0
  8  6  1  0  0  0  0
  8  3  1  0  0  0  0
 10  9  1  0  0  0  0
 11 10  1  1  0  0  0
 11 12  1  0  0  0  0
 12 15  1  6  0  0  0
 13 11  1  0  0  0  0
 14 18  1  0  0  0  0
 16 19  2  0  0  0  0
 16 18  1  0  0  0  0
 17 12  1  0  0  0  0
 18 13  2  0  0  0  0
 19 17  1  0  0  0  0
 20 24  1  0  0  0  0
 22 25  1  0  0  0  0
 23 24  1  0  0  0  0
 23 22  1  0  0  0  0
 24 26  1  0  0  0  0
 25 21  1  0  0  0  0
 26 27  1  6  0  0  0
 26 21  1  0  0  0  0
 27 28  1  1  0  0  0
 27 29  1  0  0  0  0
 29 31  1  0  0  0  0
 29 33  1  1  0  0  0
 30 29  1  0  0  0  0
 30 31  1  0  0  0  0
 33 32  2  0  0  0  0
 33 34  1  0  0  0  0
 34 36  1  0  0  0  0
 35 36  1  0  0  0  0
M  END
>  <MODEL>
4

>  <REMARK>
 VINA RESULT:      -8.0      3.248      6.776
  Name = 
  10 active torsions:
  status: ('A' for Active; 'I' for Inactive)
    1  A    between atoms: O_2  and  C_27
    2  A    between atoms: O_2  and  C_34
    3  A    between atoms: C_3  and  N_11
    4  A    between atoms: C_5  and  C_25
    5  A    between atoms: C_8  and  C_27
    6  A    between atoms: C_8  and  C_29
    7  A    between atoms: N_11  and  C_25
    8  A    between atoms: N_20  and  O_32
    9  A    between atoms: C_29  and  C_30
   10  A    between atoms: O_32  and  C_33
                            x       y       z     vdW  Elec       q    Type
                         _______ _______ _______ _____ _____    ______ ____

>  <TORSDO>
F 10

$$$$
=
 OpenBabel10222419403D

 36 39  0  0  1  0  0  0  0  0999 V2000
  185.6970  178.1390  143.1220 C   0  0  0  0  0  0  0  0  0  0  0  0
  185.9330  178.3670  144.4960 C   0  0  0  0  0  0  0  0  0  0  0  0
  183.3530  178.6900  143.4570 C   0  0  0  0  0  3  0  0  0  0  0  0
  187.1990  178.2270  145.0490 O   0  0  0  0  0  1  0  0  0  0  0  0
  184.8790  178.7500  145.3300 C   0  0  0  0  0  3  0  0  0  0  0  0
  182.5760  179.2780  145.6290 F   0  0  0  0  0  0  0  0  0  0  0  0
  184.4020  178.3090  142.6080 C   0  0  0  0  0  0  0  0  0  0  0  0
  183.5920  178.9100  144.8140 C   0  0  0  0  0  0  0  0  0  0  0  0
  186.7320  177.7390  142.2140 N   0  0  0  0  0  2  0  0  0  0  0  0
  187.4830  178.6250  141.3340 C   0  0  0  0  0  2  0  0  0  0  0  0
  188.9780  178.2970  141.3830 C   0  0  2  0  0  3  0  0  0  0  0  0
  189.4060  177.2520  140.3570 C   0  0  1  0  0  3  0  0  0  0  0  0
  189.3130  177.8180  142.7160 N   0  0  0  0  0  0  0  0  0  0  0  0
  190.6210  176.9690  144.8240 Cl  0  0  0  0  0  0  0  0  0  0  0  0
  188.6610  177.3850  139.0340 C   0  0  0  0  0  1  0  0  0  0  0  0
  191.6840  177.5010  142.3600 N   0  0  0  0  0  0  0  0  0  0  0  0
  190.8230  177.4090  140.0930 N   0  0  0  0  0  2  0  0  0  0  0  0
  190.4810  177.4540  143.1480 C   0  0  0  0  0  0  0  0  0  0  0  0
  191.8630  177.5030  141.0700 C   0  0  0  0  0  3  0  0  0  0  0  0
  184.1740  178.0760  141.2470 O   0  0  0  0  0  0  0  0  0  0  0  0
  182.7870  177.1610  138.9440 C   0  0  0  0  0  2  0  0  0  0  0  0
  184.9990  178.2400  138.5440 C   0  0  0  0  0  2  0  0  0  0  0  0
  184.5310  179.4250  139.3950 C   0  0  0  0  0  2  0  0  0  0  0  0
  183.5670  179.0100  140.4260 N   0  0  0  0  0  0  0  0  0  0  0  0
  183.8010  177.5720  137.8840 C   0  0  0  0  0  2  0  0  0  0  0  0
  182.3980  178.3870  139.7820 C   0  0  2  0  0  3  0  0  0  0  0  0
  181.3060  178.0690  140.8060 C   0  0  2  0  0  3  0  0  0  0  0  0
  180.6270  176.9030  140.4720 F   0  0  0  0  0  0  0  0  0  0  0  0
  180.3500  179.2500  140.9900 C   0  0  1  0  0  0  0  0  0  0  0  0
  179.5110  179.3200  142.2050 C   0  0  0  0  0  2  0  0  0  0  0  0
  180.7050  180.0650  142.0780 O   0  0  0  0  0  0  0  0  0  0  0  0
  178.9480  179.6810  139.1100 O   0  0  0  0  0  0  0  0  0  0  0  0
  179.9280  180.0570  139.8090 C   0  0  0  0  0  0  0  0  0  0  0  0
  180.6140  181.2360  139.5040 O   0  0  0  0  0  0  0  0  0  0  0  0
  180.3810  182.6930  137.5910 C   0  0  0  0  0  1  0  0  0  0  0  0
  181.1170  181.5100  138.2030 C   0  0  0  0  0  2  0  0  0  0  0  0
  1  2  1  0  0  0  0
  2  4  1  0  0  0  0
  2  5  2  0  0  0  0
  3  8  2  0  0  0  0
  7  1  2  0  0  0  0
  7  3  1  0  0  0  0
  8  5  1  0  0  0  0
  8  6  1  0  0  0  0
  9  1  1  0  0  0  0
 10  9  1  0  0  0  0
 11 10  1  1  0  0  0
 11 13  1  0  0  0  0
 12 15  1  6  0  0  0
 12 11  1  0  0  0  0
 13 18  2  0  0  0  0
 16 18  1  0  0  0  0
 17 12  1  0  0  0  0
 17 19  1  0  0  0  0
 18 14  1  0  0  0  0
 19 16  2  0  0  0  0
 20  7  1  0  0  0  0
 21 26  1  0  0  0  0
 22 23  1  0  0  0  0
 23 24  1  0  0  0  0
 24 20  1  0  0  0  0
 25 22  1  0  0  0  0
 25 21  1  0  0  0  0
 26 24  1  0  0  0  0
 26 27  1  1  0  0  0
 27 28  1  6  0  0  0
 27 29  1  0  0  0  0
 29 33  1  6  0  0  0
 29 31  1  0  0  0  0
 29 30  1  0  0  0  0
 31 30  1  0  0  0  0
 32 33  2  0  0  0  0
 34 33  1  0  0  0  0
 35 36  1  0  0  0  0
 36 34  1  0  0  0  0
M  END
>  <MODEL>
5

>  <REMARK>
 VINA RESULT:      -7.9      3.834      7.936
  Name = 
  10 active torsions:
  status: ('A' for Active; 'I' for Inactive)
    1  A    between atoms: O_2  and  C_27
    2  A    between atoms: O_2  and  C_34
    3  A    between atoms: C_3  and  N_11
    4  A    between atoms: C_5  and  C_25
    5  A    between atoms: C_8  and  C_27
    6  A    between atoms: C_8  and  C_29
    7  A    between atoms: N_11  and  C_25
    8  A    between atoms: N_20  and  O_32
    9  A    between atoms: C_29  and  C_30
   10  A    between atoms: O_32  and  C_33
                            x       y       z     vdW  Elec       q    Type
                         _______ _______ _______ _____ _____    ______ ____

>  <TORSDO>
F 10

$$$$
=
 OpenBabel10222419403D

 36 39  0  0  1  0  0  0  0  0999 V2000
  186.5920  178.5760  141.1360 C   0  0  0  0  0  0  0  0  0  0  0  0
  185.1990  178.7790  141.2560 C   0  0  0  0  0  0  0  0  0  0  0  0
  186.7130  178.1530  143.5260 C   0  0  0  0  0  3  0  0  0  0  0  0
  184.4110  179.0800  140.1530 O   0  0  0  0  0  1  0  0  0  0  0  0
  184.5840  178.6680  142.5060 C   0  0  0  0  0  3  0  0  0  0  0  0
  184.7350  178.2560  144.8460 F   0  0  0  0  0  0  0  0  0  0  0  0
  187.3430  178.2580  142.2780 C   0  0  0  0  0  0  0  0  0  0  0  0
  185.3380  178.3580  143.6390 C   0  0  0  0  0  0  0  0  0  0  0  0
  187.2850  178.6810  139.8850 N   0  0  0  0  0  2  0  0  0  0  0  0
  187.8520  177.5720  139.1290 C   0  0  0  0  0  2  0  0  0  0  0  0
  187.1960  177.4630  137.7510 C   0  0  2  0  0  3  0  0  0  0  0  0
  187.5970  178.5840  136.7960 C   0  0  1  0  0  3  0  0  0  0  0  0
  185.7500  177.4740  137.9150 N   0  0  0  0  0  0  0  0  0  0  0  0
  183.1700  177.3670  137.4570 Cl  0  0  0  0  0  0  0  0  0  0  0  0
  189.0540  179.0010  136.9550 C   0  0  0  0  0  1  0  0  0  0  0  0
  185.1580  177.2250  135.5830 N   0  0  0  0  0  0  0  0  0  0  0  0
  187.4070  178.1270  135.4330 N   0  0  0  0  0  2  0  0  0  0  0  0
  184.8540  177.3870  136.9790 C   0  0  0  0  0  0  0  0  0  0  0  0
  186.2310  177.5090  134.9010 C   0  0  0  0  0  3  0  0  0  0  0  0
  188.7230  178.0650  142.1530 O   0  0  0  0  0  0  0  0  0  0  0  0
  191.4800  178.0860  142.8350 C   0  0  0  0  0  2  0  0  0  0  0  0
  190.9090  177.2060  140.5730 C   0  0  0  0  0  2  0  0  0  0  0  0
  189.8840  176.2800  141.2350 C   0  0  0  0  0  2  0  0  0  0  0  0
  189.3360  176.8650  142.4690 N   0  0  0  0  0  0  0  0  0  0  0  0
  192.0420  177.5020  141.5450 C   0  0  0  0  0  2  0  0  0  0  0  0
  190.4320  177.1270  143.4160 C   0  0  2  0  0  3  0  0  0  0  0  0
  189.8940  177.6030  144.7680 C   0  0  2  0  0  3  0  0  0  0  0  0
  189.8700  178.9910  144.8380 F   0  0  0  0  0  0  0  0  0  0  0  0
  190.6780  176.9890  145.9300 C   0  0  1  0  0  0  0  0  0  0  0  0
  191.6800  175.9380  145.6530 C   0  0  0  0  0  2  0  0  0  0  0  0
  192.0500  177.2850  145.8690 O   0  0  0  0  0  0  0  0  0  0  0  0
  190.9010  177.5070  148.2470 O   0  0  0  0  0  0  0  0  0  0  0  0
  190.1510  177.0930  147.3220 C   0  0  0  0  0  0  0  0  0  0  0  0
  188.8210  176.7470  147.5780 O   0  0  0  0  0  0  0  0  0  0  0  0
  186.9530  178.2540  147.3030 C   0  0  0  0  0  1  0  0  0  0  0  0
  187.9300  177.6090  148.2740 C   0  0  0  0  0  2  0  0  0  0  0  0
  1  2  2  0  0  0  0
  1  7  1  0  0  0  0
  2  5  1  0  0  0  0
  3  8  1  0  0  0  0
  4  2  1  0  0  0  0
  5  8  2  0  0  0  0
  7  3  2  0  0  0  0
  8  6  1  0  0  0  0
  9  1  1  0  0  0  0
 10  9  1  0  0  0  0
 11 13  1  0  0  0  0
 11 10  1  1  0  0  0
 12 15  1  6  0  0  0
 12 11  1  0  0  0  0
 16 18  1  0  0  0  0
 17 12  1  0  0  0  0
 18 14  1  0  0  0  0
 18 13  2  0  0  0  0
 19 17  1  0  0  0  0
 19 16  2  0  0  0  0
 20  7  1  0  0  0  0
 20 24  1  0  0  0  0
 21 26  1  0  0  0  0
 22 23  1  0  0  0  0
 22 25  1  0  0  0  0
 23 24  1  0  0  0  0
 24 26  1  0  0  0  0
 25 21  1  0  0  0  0
 26 27  1  1  0  0  0
 27 28  1  6  0  0  0
 27 29  1  0  0  0  0
 29 33  1  1  0  0  0
 30 31  1  0  0  0  0
 30 29  1  0  0  0  0
 31 29  1  0  0  0  0
 33 34  1  0  0  0  0
 33 32  2  0  0  0  0
 34 36  1  0  0  0  0
 35 36  1  0  0  0  0
M  END
>  <MODEL>
6

>  <REMARK>
 VINA RESULT:      -7.7      3.103      5.899
  Name = 
  10 active torsions:
  status: ('A' for Active; 'I' for Inactive)
    1  A    between atoms: O_2  and  C_27
    2  A    between atoms: O_2  and  C_34
    3  A    between atoms: C_3  and  N_11
    4  A    between atoms: C_5  and  C_25
    5  A    between atoms: C_8  and  C_27
    6  A    between atoms: C_8  and  C_29
    7  A    between atoms: N_11  and  C_25
    8  A    between atoms: N_20  and  O_32
    9  A    between atoms: C_29  and  C_30
   10  A    between atoms: O_32  and  C_33
                            x       y       z     vdW  Elec       q    Type
                         _______ _______ _______ _____ _____    ______ ____

>  <TORSDO>
F 10

$$$$
=
 OpenBabel10222419403D

 36 39  0  0  1  0  0  0  0  0999 V2000
  189.5590  177.0360  143.8420 C   0  0  0  0  0  0  0  0  0  0  0  0
  190.7580  176.5050  144.3700 C   0  0  0  0  0  0  0  0  0  0  0  0
  188.9860  177.8750  146.0490 C   0  0  0  0  0  3  0  0  0  0  0  0
  191.6680  175.8270  143.5690 O   0  0  0  0  0  1  0  0  0  0  0  0
  191.0520  176.6640  145.7270 C   0  0  0  0  0  3  0  0  0  0  0  0
  190.4590  177.4920  147.8790 F   0  0  0  0  0  0  0  0  0  0  0  0
  188.6790  177.7260  144.6900 C   0  0  0  0  0  0  0  0  0  0  0  0
  190.1690  177.3450  146.5650 C   0  0  0  0  0  0  0  0  0  0  0  0
  189.1960  176.9020  142.4610 N   0  0  0  0  0  2  0  0  0  0  0  0
  189.3730  177.9170  141.4310 C   0  0  0  0  0  2  0  0  0  0  0  0
  189.7050  177.2700  140.0840 C   0  0  2  0  0  3  0  0  0  0  0  0
  191.1460  177.4980  139.6380 C   0  0  1  0  0  3  0  0  0  0  0  0
  188.8050  177.8000  139.0710 N   0  0  0  0  0  0  0  0  0  0  0  0
  187.5390  178.2350  136.8160 Cl  0  0  0  0  0  0  0  0  0  0  0  0
  192.1340  177.4760  140.7980 C   0  0  0  0  0  1  0  0  0  0  0  0
  189.6180  176.4990  137.2020 N   0  0  0  0  0  0  0  0  0  0  0  0
  191.5200  176.4480  138.7100 N   0  0  0  0  0  2  0  0  0  0  0  0
  188.7680  177.4850  137.8130 C   0  0  0  0  0  0  0  0  0  0  0  0
  190.7760  176.0240  137.5640 C   0  0  0  0  0  3  0  0  0  0  0  0
  187.4920  178.2430  144.1610 O   0  0  0  0  0  0  0  0  0  0  0  0
  184.9810  179.5680  144.0840 C   0  0  0  0  0  2  0  0  0  0  0  0
  185.5350  178.3770  146.2030 C   0  0  0  0  0  2  0  0  0  0  0  0
  185.8570  177.1300  145.3720 C   0  0  0  0  0  2  0  0  0  0  0  0
  186.3440  177.4800  144.0280 N   0  0  0  0  0  0  0  0  0  0  0  0
  184.4930  179.2220  145.4850 C   0  0  0  0  0  2  0  0  0  0  0  0
  185.3230  178.2760  143.3280 C   0  0  2  0  0  3  0  0  0  0  0  0
  185.7280  178.5410  141.8760 C   0  0  2  0  0  3  0  0  0  0  0  0
  186.4110  179.7450  141.7570 F   0  0  0  0  0  0  0  0  0  0  0  0
  184.5200  178.4790  140.9380 C   0  0  1  0  0  0  0  0  0  0  0  0
  183.3790  177.6040  141.2830 C   0  0  0  0  0  2  0  0  0  0  0  0
  183.3540  178.9960  141.5280 O   0  0  0  0  0  0  0  0  0  0  0  0
  184.5540  180.1280  139.2170 O   0  0  0  0  0  0  0  0  0  0  0  0
  184.6570  178.9080  139.5160 C   0  0  0  0  0  0  0  0  0  0  0  0
  184.9210  177.9490  138.5340 O   0  0  0  0  0  0  0  0  0  0  0  0
  183.4700  176.1370  137.8660 C   0  0  0  0  0  1  0  0  0  0  0  0
  183.9490  177.5510  137.5760 C   0  0  0  0  0  2  0  0  0  0  0  0
  1  2  2  0  0  0  0
  1  7  1  0  0  0  0
  2  5  1  0  0  0  0
  3  8  1  0  0  0  0
  4  2  1  0  0  0  0
  5  8  2  0  0  0  0
  7  3  2  0  0  0  0
  8  6  1  0  0  0  0
  9  1  1  0  0  0  0
 10  9  1  0  0  0  0
 11 10  1  1  0  0  0
 12 11  1  0  0  0  0
 12 15  1  1  0  0  0
 13 11  1  0  0  0  0
 14 18  1  0  0  0  0
 16 19  2  0  0  0  0
 16 18  1  0  0  0  0
 17 12  1  0  0  0  0
 18 13  2  0  0  0  0
 19 17  1  0  0  0  0
 20  7  1  0  0  0  0
 21 25  1  0  0  0  0
 23 22  1  0  0  0  0
 24 20  1  0  0  0  0
 24 23  1  0  0  0  0
 25 22  1  0  0  0  0
 26 27  1  6  0  0  0
 26 24  1  0  0  0  0
 26 21  1  0  0  0  0
 27 28  1  1  0  0  0
 29 33  1  6  0  0  0
 29 30  1  0  0  0  0
 29 31  1  0  0  0  0
 29 27  1  0  0  0  0
 30 31  1  0  0  0  0
 32 33  2  0  0  0  0
 34 33  1  0  0  0  0
 36 35  1  0  0  0  0
 36 34  1  0  0  0  0
M  END
>  <MODEL>
7

>  <REMARK>
 VINA RESULT:      -7.6      3.113      6.261
  Name = 
  10 active torsions:
  status: ('A' for Active; 'I' for Inactive)
    1  A    between atoms: O_2  and  C_27
    2  A    between atoms: O_2  and  C_34
    3  A    between atoms: C_3  and  N_11
    4  A    between atoms: C_5  and  C_25
    5  A    between atoms: C_8  and  C_27
    6  A    between atoms: C_8  and  C_29
    7  A    between atoms: N_11  and  C_25
    8  A    between atoms: N_20  and  O_32
    9  A    between atoms: C_29  and  C_30
   10  A    between atoms: O_32  and  C_33
                            x       y       z     vdW  Elec       q    Type
                         _______ _______ _______ _____ _____    ______ ____

>  <TORSDO>
F 10

$$$$
=
 OpenBabel10222419403D

 36 39  0  0  1  0  0  0  0  0999 V2000
  189.2950  177.1310  143.8610 C   0  0  0  0  0  0  0  0  0  0  0  0
  190.4980  176.6030  144.3820 C   0  0  0  0  0  0  0  0  0  0  0  0
  188.7070  177.9180  146.0840 C   0  0  0  0  0  3  0  0  0  0  0  0
  191.4180  175.9530  143.5690 O   0  0  0  0  0  1  0  0  0  0  0  0
  190.7870  176.7380  145.7420 C   0  0  0  0  0  3  0  0  0  0  0  0
  190.1800  177.5150  147.9100 F   0  0  0  0  0  0  0  0  0  0  0  0
  188.4050  177.7940  144.7210 C   0  0  0  0  0  0  0  0  0  0  0  0
  189.8940  177.3920  146.5920 C   0  0  0  0  0  0  0  0  0  0  0  0
  188.9360  177.0220  142.4770 N   0  0  0  0  0  2  0  0  0  0  0  0
  189.4220  177.8750  141.4010 C   0  0  0  0  0  2  0  0  0  0  0  0
  189.6610  177.0580  140.1280 C   0  0  2  0  0  3  0  0  0  0  0  0
  191.0290  177.3000  139.4970 C   0  0  1  0  0  3  0  0  0  0  0  0
  188.6260  177.3840  139.1580 N   0  0  0  0  0  0  0  0  0  0  0  0
  187.1100  177.4150  137.0180 Cl  0  0  0  0  0  0  0  0  0  0  0  0
  192.1280  177.5020  140.5330 C   0  0  0  0  0  1  0  0  0  0  0  0
  189.3360  175.8740  137.4080 N   0  0  0  0  0  0  0  0  0  0  0  0
  191.3800  176.1490  138.6890 N   0  0  0  0  0  2  0  0  0  0  0  0
  188.4840  176.8880  137.9670 C   0  0  0  0  0  0  0  0  0  0  0  0
  190.5560  175.5220  137.7010 C   0  0  0  0  0  3  0  0  0  0  0  0
  187.2130  178.3080  144.2000 O   0  0  0  0  0  0  0  0  0  0  0  0
  184.7230  179.6030  143.7660 C   0  0  0  0  0  2  0  0  0  0  0  0
  185.0680  178.6060  146.0240 C   0  0  0  0  0  2  0  0  0  0  0  0
  185.4670  177.2940  145.3400 C   0  0  0  0  0  2  0  0  0  0  0  0
  186.0820  177.5290  144.0250 N   0  0  0  0  0  0  0  0  0  0  0  0
  184.1010  179.3770  145.1380 C   0  0  0  0  0  2  0  0  0  0  0  0
  185.1350  178.2530  143.1620 C   0  0  2  0  0  3  0  0  0  0  0  0
  185.6790  178.3940  141.7380 C   0  0  2  0  0  3  0  0  0  0  0  0
  186.6030  179.4280  141.6530 F   0  0  0  0  0  0  0  0  0  0  0  0
  184.5470  178.5600  140.7210 C   0  0  1  0  0  0  0  0  0  0  0  0
  184.5540  179.7260  139.8130 C   0  0  0  0  0  2  0  0  0  0  0  0
  184.9970  178.4510  139.3940 O   0  0  0  0  0  0  0  0  0  0  0  0
  183.0550  176.7330  140.3760 O   0  0  0  0  0  0  0  0  0  0  0  0
  183.2520  177.8500  140.9260 C   0  0  0  0  0  0  0  0  0  0  0  0
  182.2760  178.4270  141.7450 O   0  0  0  0  0  0  0  0  0  0  0  0
  179.9280  178.0220  141.3500 C   0  0  0  0  0  1  0  0  0  0  0  0
  181.0850  179.0020  141.2240 C   0  0  0  0  0  2  0  0  0  0  0  0
  1  2  2  0  0  0  0
  1  7  1  0  0  0  0
  2  5  1  0  0  0  0
  3  8  1  0  0  0  0
  4  2  1  0  0  0  0
  5  8  2  0  0  0  0
  7  3  2  0  0  0  0
  8  6  1  0  0  0  0
  9  1  1  0  0  0  0
 10  9  1  0  0  0  0
 11 10  1  1  0  0  0
 12 11  1  0  0  0  0
 12 15  1  1  0  0  0
 13 11  1  0  0  0  0
 14 18  1  0  0  0  0
 16 19  2  0  0  0  0
 16 18  1  0  0  0  0
 17 12  1  0  0  0  0
 18 13  2  0  0  0  0
 19 17  1  0  0  0  0
 20  7  1  0  0  0  0
 21 25  1  0  0  0  0
 23 22  1  0  0  0  0
 24 20  1  0  0  0  0
 24 23  1  0  0  0  0
 25 22  1  0  0  0  0
 26 27  1  6  0  0  0
 26 21  1  0  0  0  0
 26 24  1  0  0  0  0
 27 28  1  1  0  0  0
 29 33  1  1  0  0  0
 29 27  1  0  0  0  0
 30 29  1  0  0  0  0
 31 30  1  0  0  0  0
 31 29  1  0  0  0  0
 32 33  2  0  0  0  0
 33 34  1  0  0  0  0
 36 35  1  0  0  0  0
 36 34  1  0  0  0  0
M  END
>  <MODEL>
8

>  <REMARK>
 VINA RESULT:      -7.6      3.057      6.658
  Name = 
  10 active torsions:
  status: ('A' for Active; 'I' for Inactive)
    1  A    between atoms: O_2  and  C_27
    2  A    between atoms: O_2  and  C_34
    3  A    between atoms: C_3  and  N_11
    4  A    between atoms: C_5  and  C_25
    5  A    between atoms: C_8  and  C_27
    6  A    between atoms: C_8  and  C_29
    7  A    between atoms: N_11  and  C_25
    8  A    between atoms: N_20  and  O_32
    9  A    between atoms: C_29  and  C_30
   10  A    between atoms: O_32  and  C_33
                            x       y       z     vdW  Elec       q    Type
                         _______ _______ _______ _____ _____    ______ ____

>  <TORSDO>
F 10

$$$$
=
 OpenBabel10222419403D

 36 39  0  0  1  0  0  0  0  0999 V2000
  185.7750  178.1480  143.2610 C   0  0  0  0  0  0  0  0  0  0  0  0
  185.8370  178.4290  144.6440 C   0  0  0  0  0  0  0  0  0  0  0  0
  183.3940  178.6360  143.2930 C   0  0  0  0  0  3  0  0  0  0  0  0
  187.0310  178.3470  145.3500 O   0  0  0  0  0  1  0  0  0  0  0  0
  184.6800  178.8060  145.3320 C   0  0  0  0  0  3  0  0  0  0  0  0
  182.3450  179.2710  145.3330 F   0  0  0  0  0  0  0  0  0  0  0  0
  184.5470  178.2600  142.5900 C   0  0  0  0  0  0  0  0  0  0  0  0
  183.4620  178.9080  144.6600 C   0  0  0  0  0  0  0  0  0  0  0  0
  186.9230  177.7510  142.4990 N   0  0  0  0  0  2  0  0  0  0  0  0
  187.9040  176.7490  142.8960 C   0  0  0  0  0  2  0  0  0  0  0  0
  189.2100  176.9310  142.1180 C   0  0  2  0  0  3  0  0  0  0  0  0
  190.2220  177.8250  142.8290 C   0  0  1  0  0  3  0  0  0  0  0  0
  188.9070  177.5010  140.8140 N   0  0  0  0  0  0  0  0  0  0  0  0
  189.1090  178.4170  138.3650 Cl  0  0  0  0  0  0  0  0  0  0  0  0
  190.2130  177.6390  144.3420 C   0  0  0  0  0  1  0  0  0  0  0  0
  191.1640  177.5480  139.9480 N   0  0  0  0  0  0  0  0  0  0  0  0
  191.5500  177.5050  142.3440 N   0  0  0  0  0  2  0  0  0  0  0  0
  189.7490  177.7880  139.8690 C   0  0  0  0  0  0  0  0  0  0  0  0
  191.9520  177.4030  140.9760 C   0  0  0  0  0  3  0  0  0  0  0  0
  184.4920  177.9750  141.2220 O   0  0  0  0  0  0  0  0  0  0  0  0
  183.6650  176.8370  138.7550 C   0  0  0  0  0  2  0  0  0  0  0  0
  185.6020  178.4030  138.6530 C   0  0  0  0  0  2  0  0  0  0  0  0
  184.7670  179.4240  139.4320 C   0  0  0  0  0  2  0  0  0  0  0  0
  183.7980  178.7700  140.3250 N   0  0  0  0  0  0  0  0  0  0  0  0
  184.6860  177.5000  137.8390 C   0  0  0  0  0  2  0  0  0  0  0  0
  182.8980  177.9170  139.5320 C   0  0  2  0  0  3  0  0  0  0  0  0
  181.7850  177.3270  140.4020 C   0  0  2  0  0  3  0  0  0  0  0  0
  181.7000  175.9500  140.2440 F   0  0  0  0  0  0  0  0  0  0  0  0
  180.4430  178.0130  140.1320 C   0  0  1  0  0  0  0  0  0  0  0  0
  179.6940  177.6810  138.9020 C   0  0  0  0  0  2  0  0  0  0  0  0
  179.3650  177.1120  140.1530 O   0  0  0  0  0  0  0  0  0  0  0  0
  180.5510  180.3830  140.3710 O   0  0  0  0  0  0  0  0  0  0  0  0
  180.1080  179.2920  140.8230 C   0  0  0  0  0  0  0  0  0  0  0  0
  179.2860  179.2660  141.9530 O   0  0  0  0  0  0  0  0  0  0  0  0
  178.9310  179.3730  144.3400 C   0  0  0  0  0  1  0  0  0  0  0  0
  179.7250  178.7490  143.2030 C   0  0  0  0  0  2  0  0  0  0  0  0
  1  2  1  0  0  0  0
  2  5  2  0  0  0  0
  2  4  1  0  0  0  0
  3  8  2  0  0  0  0
  7  1  2  0  0  0  0
  7  3  1  0  0  0  0
  8  5  1  0  0  0  0
  8  6  1  0  0  0  0
  9 10  1  0  0  0  0
  9  1  1  0  0  0  0
 11 12  1  0  0  0  0
 11 10  1  1  0  0  0
 12 15  1  1  0  0  0
 13 11  1  0  0  0  0
 14 18  1  0  0  0  0
 16 19  2  0  0  0  0
 17 12  1  0  0  0  0
 18 16  1  0  0  0  0
 18 13  2  0  0  0  0
 19 17  1  0  0  0  0
 20  7  1  0  0  0  0
 21 26  1  0  0  0  0
 22 23  1  0  0  0  0
 23 24  1  0  0  0  0
 24 20  1  0  0  0  0
 25 22  1  0  0  0  0
 25 21  1  0  0  0  0
 26 24  1  0  0  0  0
 26 27  1  1  0  0  0
 27 28  1  6  0  0  0
 29 31  1  0  0  0  0
 29 27  1  0  0  0  0
 29 33  1  1  0  0  0
 30 29  1  0  0  0  0
 30 31  1  0  0  0  0
 32 33  2  0  0  0  0
 33 34  1  0  0  0  0
 34 36  1  0  0  0  0
 36 35  1  0  0  0  0
M  END
>  <MODEL>
9

>  <REMARK>
 VINA RESULT:      -7.6      3.568      8.008
  Name = 
  10 active torsions:
  status: ('A' for Active; 'I' for Inactive)
    1  A    between atoms: O_2  and  C_27
    2  A    between atoms: O_2  and  C_34
    3  A    between atoms: C_3  and  N_11
    4  A    between atoms: C_5  and  C_25
    5  A    between atoms: C_8  and  C_27
    6  A    between atoms: C_8  and  C_29
    7  A    between atoms: N_11  and  C_25
    8  A    between atoms: N_20  and  O_32
    9  A    between atoms: C_29  and  C_30
   10  A    between atoms: O_32  and  C_33
                            x       y       z     vdW  Elec       q    Type
                         _______ _______ _______ _____ _____    ______ ____

>  <TORSDO>
F 10

$$$$
