=
 OpenBabel10222418533D

 70 74  0  0  1  0  0  0  0  0999 V2000
  184.0400  176.2890  138.1740 C   0  0  0  0  0  2  0  0  0  0  0  0
  183.4390  176.7760  135.7560 C   0  0  2  0  0  3  0  0  0  0  0  0
  184.1110  177.2210  134.6030 O   0  0  0  0  0  0  0  0  0  0  0  0
  184.4250  176.1220  136.7010 C   0  0  1  0  0  3  0  0  0  0  0  0
  185.4850  177.2520  134.9150 C   0  0  0  0  0  2  0  0  0  0  0  0
  185.6820  176.8490  136.3610 C   0  0  2  0  0  3  0  0  0  0  0  0
  182.3810  175.8770  135.4090 O   0  0  0  0  0  0  0  0  0  0  0  0
  183.5330  173.4940  134.7750 S   0  0  0  0  0  0  0  0  0  0  0  0
  181.6370  173.7170  136.4130 C   0  0  0  0  0  3  0  0  0  0  0  0
  182.9880  172.0620  135.4740 C   0  0  0  0  0  0  0  0  0  0  0  0
  181.9450  172.3510  136.3510 C   0  0  0  0  0  3  0  0  0  0  0  0
  182.4440  174.4880  135.5800 C   0  0  0  0  0  0  0  0  0  0  0  0
  182.6630  169.6810  134.7760 N   0  0  0  0  0  1  0  0  0  0  0  0
  183.5240  170.7220  135.2070 C   0  0  0  0  0  0  0  0  0  0  0  0
  184.7470  170.4850  135.3720 O   0  0  0  0  0  0  0  0  0  0  0  0
  186.9450  176.0140  136.5560 C   0  0  0  0  0  2  0  0  0  0  0  0
  188.1050  176.7550  136.2920 O   0  0  0  0  0  0  0  0  0  0  0  0
  189.1490  175.8320  136.4230 C   0  0  2  0  0  3  0  0  0  0  0  0
  190.1950  177.6500  137.6290 O   0  0  0  0  0  1  0  0  0  0  0  0
  190.5900  173.5180  137.5970 O   0  0  0  0  0  0  0  0  0  0  0  0
  188.5520  174.4620  136.7480 C   0  0  0  0  0  2  0  0  0  0  0  0
  191.6030  174.2350  136.9500 C   0  0  1  0  0  3  0  0  0  0  0  0
  190.1250  176.2580  137.5370 C   0  0  2  0  0  3  0  0  0  0  0  0
  191.5450  175.7190  137.3290 C   0  0  0  0  0  2  0  0  0  0  0  0
  189.5930  173.3530  136.6290 C   0  0  0  0  0  2  0  0  0  0  0  0
  192.9550  173.6360  137.3310 C   0  0  0  0  0  2  0  0  0  0  0  0
  194.1030  174.5950  137.0340 C   0  0  0  0  0  2  0  0  0  0  0  0
  195.6880  174.7470  139.0890 C   0  0  1  0  0  3  0  0  0  0  0  0
  195.3930  174.1780  137.7320 C   0  0  2  0  0  0  0  0  0  0  0  0
  196.4640  173.4600  136.9220 C   0  0  0  0  0  1  0  0  0  0  0  0
  195.1080  173.4590  138.9120 O   0  0  0  0  0  0  0  0  0  0  0  0
  197.1730  174.6510  139.4910 C   0  0  0  0  0  2  0  0  0  0  0  0
  197.5050  175.3570  140.7720 C   0  0  0  0  0  0  0  0  0  0  0  0
  198.5920  174.9080  141.5870 N   0  0  0  0  0  1  0  0  0  0  0  0
  196.8500  176.3850  141.0980 O   0  0  0  0  0  0  0  0  0  0  0  0
  182.5370  176.3140  138.4130 C   0  0  0  0  0  2  0  0  0  0  0  0
  182.0740  177.7260  138.7340 C   0  0  0  0  0  2  0  0  0  0  0  0
  180.7690  177.6750  139.2200 O   0  0  0  0  0  0  0  0  0  0  0  0
  179.9440  178.1950  141.3950 C   0  0  0  0  0  2  0  0  0  0  0  0
  180.6860  178.7100  140.1560 C   0  0  2  0  0  3  0  0  0  0  0  0
  180.0960  179.0300  142.6420 C   0  0  0  0  0  0  0  0  0  0  0  0
  178.9500  180.6570  140.3300 C   0  0  0  0  0  2  0  0  0  0  0  0
  179.8880  180.3610  142.6820 C   0  0  0  0  0  3  0  0  0  0  0  0
  179.6300  181.3040  141.5320 C   0  0  0  0  0  2  0  0  0  0  0  0
  180.2790  180.2710  138.4300 O   0  0  0  0  0  0  0  0  0  0  0  0
  179.9770  179.8930  139.5540 C   0  0  0  0  0  0  0  0  0  0  0  0
  179.4280  177.8410  144.5890 O   0  0  0  0  0  0  0  0  0  0  0  0
  180.3850  178.3080  143.9070 C   0  0  0  0  0  0  0  0  0  0  0  0
  181.6850  178.1140  144.3790 O   0  0  0  0  0  0  0  0  0  0  0  0
  182.6390  179.1620  144.4210 C   0  0  0  0  0  2  0  0  0  0  0  0
  183.5710  179.0730  143.2130 C   0  0  0  0  0  2  0  0  0  0  0  0
  184.9590  178.8250  143.6410 N   0  0  0  0  0  0  0  0  0  0  0  0
  185.8830  178.8400  142.4870 C   0  0  2  0  0  3  0  0  0  0  0  0
  185.9070  178.6700  139.9890 O   0  0  0  0  0  0  0  0  0  0  0  0
  184.1270  177.8300  141.1560 O   0  0  0  0  0  1  0  0  0  0  0  0
  185.2440  178.4170  141.1790 C   0  0  0  0  0  0  0  0  0  0  0  0
  187.1240  177.9920  142.7620 C   0  0  0  0  0  2  0  0  0  0  0  0
  188.3800  178.8230  142.5730 C   0  0  0  0  0  2  0  0  0  0  0  0
  191.0210  178.8380  143.0170 O   0  0  0  0  0  0  0  0  0  0  0  0
  190.0940  176.9010  141.8480 O   0  0  0  0  0  0  0  0  0  0  0  0
  189.8560  177.8890  142.9570 S   0  0  0  0  0  0  0  0  0  0  0  0
  189.7320  176.9720  144.4910 C   0  0  0  0  0  2  0  0  0  0  0  0
  190.9690  177.1800  145.3480 C   0  0  0  0  0  2  0  0  0  0  0  0
  189.9510  177.0110  147.5720 C   0  0  0  0  0  2  0  0  0  0  0  0
  190.8170  176.5240  146.6830 C   0  0  0  0  0  0  0  0  0  0  0  0
  191.7430  175.4280  147.0850 C   0  0  0  0  0  1  0  0  0  0  0  0
  185.3660  179.8400  144.6120 C   0  0  0  0  0  2  0  0  0  0  0  0
  185.5540  179.2210  145.9930 C   0  0  0  0  0  2  0  0  0  0  0  0
  185.8960  177.7620  145.8820 C   0  0  0  0  0  3  0  0  0  0  0  0
  187.1040  177.3010  146.2330 C   0  0  0  0  0  2  0  0  0  0  0  0
  1 36  1  0  0  0  0
  2  7  1  6  0  0  0
  2  4  1  0  0  0  0
  3  5  1  0  0  0  0
  3  2  1  0  0  0  0
  4  1  1  1  0  0  0
  5  6  1  0  0  0  0
  6 16  1  6  0  0  0
  6  4  1  0  0  0  0
  7 12  1  0  0  0  0
  8 10  1  0  0  0  0
  8 12  1  0  0  0  0
 10 11  2  0  0  0  0
 11  9  1  0  0  0  0
 12  9  2  0  0  0  0
 13 14  1  0  0  0  0
 14 15  2  0  0  0  0
 14 10  1  0  0  0  0
 17 16  1  0  0  0  0
 18 17  1  1  0  0  0
 18 21  1  0  0  0  0
 18 23  1  0  0  0  0
 22 24  1  0  0  0  0
 22 26  1  1  0  0  0
 22 20  1  0  0  0  0
 23 19  1  6  0  0  0
 24 23  1  0  0  0  0
 25 21  1  0  0  0  0
 25 20  1  0  0  0  0
 27 26  1  0  0  0  0
 27 29  1  0  0  0  0
 28 32  1  6  0  0  0
 29 30  1  6  0  0  0
 29 31  1  0  0  0  0
 29 28  1  0  0  0  0
 31 28  1  0  0  0  0
 32 33  1  0  0  0  0
 33 35  2  0  0  0  0
 33 34  1  0  0  0  0
 36 37  1  0  0  0  0
 37 38  1  0  0  0  0
 39 41  1  0  0  0  0
 40 38  1  6  0  0  0
 40 39  1  0  0  0  0
 41 43  2  0  0  0  0
 41 48  1  0  0  0  0
 42 44  1  0  0  0  0
 44 43  1  0  0  0  0
 45 46  2  0  0  0  0
 46 40  1  0  0  0  0
 46 42  1  0  0  0  0
 48 49  1  0  0  0  0
 48 47  2  0  0  0  0
 49 50  1  0  0  0  0
 51 52  1  0  0  0  0
 51 50  1  0  0  0  0
 52 67  1  0  0  0  0
 53 57  1  1  0  0  0
 53 52  1  0  0  0  0
 54 56  2  0  0  0  0
 55 56  1  0  0  0  0
 56 53  1  0  0  0  0
 58 57  1  0  0  0  0
 58 61  1  0  0  0  0
 60 61  2  0  0  0  0
 61 59  2  0  0  0  0
 61 62  1  0  0  0  0
 62 63  1  0  0  0  0
 63 65  1  0  0  0  0
 65 66  1  0  0  0  0
 65 64  2  0  0  0  0
 67 68  1  0  0  0  0
 69 68  1  0  0  0  0
 69 70  2  0  0  0  0
M  END
>  <MODEL>
1

>  <REMARK>
 VINA RESULT:      -5.8      0.000      0.000
  Name = 
  32 active torsions:
  status: ('A' for Active; 'I' for Inactive)
    1  A    between atoms: C_1  and  O_49
    2  A    between atoms: C_3  and  C_51
    3  A    between atoms: C_4  and  N_22
    4  A    between atoms: C_4  and  C_41
    5  A    between atoms: C_7  and  C_51
    6  A    between atoms: C_7  and  S_58
    7  A    between atoms: C_8  and  O_34
    8  A    between atoms: O_9  and  C_63
    9  A    between atoms: O_9  and  C_70
   10  A    between atoms: C_10  and  C_47
   11  A    between atoms: C_11  and  C_26
   12  A    between atoms: C_11  and  C_42
   13  A    between atoms: C_15  and  C_41
   14  A    between atoms: O_19  and  C_24
   15  A    between atoms: O_19  and  C_60
   16  A    between atoms: N_22  and  C_46
   17  A    between atoms: N_22  and  C_69
   18  A    between atoms: C_23  and  C_37
   19  A    between atoms: C_23  and  S_58
   20  A    between atoms: C_26  and  C_60
   21  A    between atoms: C_27  and  C_69
   22  A    between atoms: C_28  and  C_40
   23  A    between atoms: C_29  and  C_47
   24  A    between atoms: C_30  and  O_49
   25  A    between atoms: C_30  and  C_65
   26  A    between atoms: C_31  and  C_63
   27  A    between atoms: C_33  and  C_61
   28  A    between atoms: O_34  and  C_68
   29  A    between atoms: C_37  and  C_69
   30  A    between atoms: C_40  and  C_55
   31  A    between atoms: C_46  and  C_70
   32  A    between atoms: C_50  and  C_55
                            x       y       z     vdW  Elec       q    Type
                         _______ _______ _______ _____ _____    ______ ____

>  <TORSDO>
F 32

$$$$
=
 OpenBabel10222418533D

 70 74  0  0  1  0  0  0  0  0999 V2000
  184.2100  177.0840  138.1160 C   0  0  0  0  0  2  0  0  0  0  0  0
  183.2850  177.5170  135.7920 C   0  0  2  0  0  3  0  0  0  0  0  0
  183.7390  178.1210  134.6050 O   0  0  0  0  0  0  0  0  0  0  0  0
  184.4690  177.0410  136.6070 C   0  0  1  0  0  3  0  0  0  0  0  0
  185.1050  178.4130  134.7890 C   0  0  0  0  0  2  0  0  0  0  0  0
  185.5210  178.0120  136.1880 C   0  0  2  0  0  3  0  0  0  0  0  0
  182.3920  176.4380  135.5010 O   0  0  0  0  0  0  0  0  0  0  0  0
  182.0100  173.8880  136.3730 S   0  0  0  0  0  0  0  0  0  0  0  0
  183.8100  174.5320  134.7390 C   0  0  0  0  0  3  0  0  0  0  0  0
  183.0010  172.6380  135.8350 C   0  0  0  0  0  0  0  0  0  0  0  0
  183.9380  173.1510  134.9420 C   0  0  0  0  0  3  0  0  0  0  0  0
  182.7700  175.0900  135.4780 C   0  0  0  0  0  0  0  0  0  0  0  0
  184.0650  170.4830  136.5340 N   0  0  0  0  0  1  0  0  0  0  0  0
  182.8960  171.2300  136.2380 C   0  0  0  0  0  0  0  0  0  0  0  0
  181.7710  170.6740  136.3090 O   0  0  0  0  0  0  0  0  0  0  0  0
  186.9350  177.4360  136.2230 C   0  0  0  0  0  2  0  0  0  0  0  0
  187.1520  176.6590  137.3700 O   0  0  0  0  0  0  0  0  0  0  0  0
  188.3970  176.0560  137.1550 C   0  0  2  0  0  3  0  0  0  0  0  0
  187.0580  174.4240  135.9730 O   0  0  0  0  0  1  0  0  0  0  0  0
  191.0200  175.6530  135.8260 O   0  0  0  0  0  0  0  0  0  0  0  0
  189.4120  177.1450  136.8050 C   0  0  0  0  0  2  0  0  0  0  0  0
  190.7820  174.4240  136.4520 C   0  0  1  0  0  3  0  0  0  0  0  0
  188.3190  175.0240  136.0140 C   0  0  2  0  0  3  0  0  0  0  0  0
  189.3720  173.9160  136.1350 C   0  0  0  0  0  2  0  0  0  0  0  0
  190.8410  176.6090  136.8320 C   0  0  0  0  0  2  0  0  0  0  0  0
  191.8330  173.4190  135.9860 C   0  0  0  0  0  2  0  0  0  0  0  0
  192.8740  173.1470  137.0660 C   0  0  0  0  0  2  0  0  0  0  0  0
  195.3760  173.0710  136.3640 C   0  0  1  0  0  3  0  0  0  0  0  0
  194.0650  172.3600  136.5300 C   0  0  2  0  0  0  0  0  0  0  0  0
  193.8160  170.9950  135.9020 C   0  0  0  0  0  1  0  0  0  0  0  0
  195.0800  172.2720  137.5050 O   0  0  0  0  0  0  0  0  0  0  0  0
  196.3510  172.3570  135.4080 C   0  0  0  0  0  2  0  0  0  0  0  0
  197.6020  171.8600  136.0710 C   0  0  0  0  0  0  0  0  0  0  0  0
  197.9270  170.4670  136.0540 N   0  0  0  0  0  1  0  0  0  0  0  0
  198.3920  172.6910  136.5960 O   0  0  0  0  0  0  0  0  0  0  0  0
  182.7330  177.0610  138.4820 C   0  0  0  0  0  2  0  0  0  0  0  0
  182.3190  178.3860  139.1030 C   0  0  0  0  0  2  0  0  0  0  0  0
  180.9970  178.2900  139.5330 O   0  0  0  0  0  0  0  0  0  0  0  0
  180.2160  178.5880  141.7660 C   0  0  0  0  0  2  0  0  0  0  0  0
  180.8720  179.2460  140.5460 C   0  0  2  0  0  3  0  0  0  0  0  0
  180.3510  179.3400  143.0660 C   0  0  0  0  0  0  0  0  0  0  0  0
  179.0040  181.0370  140.9190 C   0  0  0  0  0  2  0  0  0  0  0  0
  180.0470  180.6450  143.2120 C   0  0  0  0  0  3  0  0  0  0  0  0
  179.6780  181.6460  142.1440 C   0  0  0  0  0  2  0  0  0  0  0  0
  180.2880  180.8920  138.9550 O   0  0  0  0  0  0  0  0  0  0  0  0
  180.0560  180.4110  140.0560 C   0  0  0  0  0  0  0  0  0  0  0  0
  179.8510  177.9260  144.9100 O   0  0  0  0  0  0  0  0  0  0  0  0
  180.7390  178.5530  144.2640 C   0  0  0  0  0  0  0  0  0  0  0  0
  182.0590  178.4680  144.7100 O   0  0  0  0  0  0  0  0  0  0  0  0
  182.9430  179.5770  144.6720 C   0  0  0  0  0  2  0  0  0  0  0  0
  183.9370  179.4170  143.5230 C   0  0  0  0  0  2  0  0  0  0  0  0
  185.1210  178.6540  143.9580 N   0  0  0  0  0  0  0  0  0  0  0  0
  186.1470  178.6100  142.8950 C   0  0  2  0  0  3  0  0  0  0  0  0
  186.4860  178.0940  140.4680 O   0  0  0  0  0  0  0  0  0  0  0  0
  184.3940  177.9070  141.3750 O   0  0  0  0  0  1  0  0  0  0  0  0
  185.6140  178.1860  141.5400 C   0  0  0  0  0  0  0  0  0  0  0  0
  187.3220  177.7190  143.2970 C   0  0  0  0  0  2  0  0  0  0  0  0
  188.6350  178.4350  143.0380 C   0  0  0  0  0  2  0  0  0  0  0  0
  190.8880  177.3330  142.0980 O   0  0  0  0  0  0  0  0  0  0  0  0
  189.5320  175.9830  143.6210 O   0  0  0  0  0  0  0  0  0  0  0  0
  190.0400  177.3710  143.3400 S   0  0  0  0  0  0  0  0  0  0  0  0
  191.0280  177.8870  144.7420 C   0  0  0  0  0  2  0  0  0  0  0  0
  191.3860  176.7000  145.6200 C   0  0  0  0  0  2  0  0  0  0  0  0
  189.5810  176.4150  147.2540 C   0  0  0  0  0  2  0  0  0  0  0  0
  190.8130  176.8510  146.9930 C   0  0  0  0  0  0  0  0  0  0  0  0
  191.5510  177.6290  148.0270 C   0  0  0  0  0  1  0  0  0  0  0  0
  185.6850  179.2610  145.1630 C   0  0  0  0  0  2  0  0  0  0  0  0
  185.5850  178.3050  146.3470 C   0  0  0  0  0  2  0  0  0  0  0  0
  186.5530  178.6930  147.4290 C   0  0  0  0  0  3  0  0  0  0  0  0
  187.8770  178.6540  147.2240 C   0  0  0  0  0  2  0  0  0  0  0  0
  1 36  1  0  0  0  0
  2  7  1  6  0  0  0
  2  4  1  0  0  0  0
  3  5  1  0  0  0  0
  3  2  1  0  0  0  0
  4  1  1  1  0  0  0
  5  6  1  0  0  0  0
  6 16  1  6  0  0  0
  6  4  1  0  0  0  0
  9 11  1  0  0  0  0
  9 12  2  0  0  0  0
 10 14  1  0  0  0  0
 10  8  1  0  0  0  0
 11 10  2  0  0  0  0
 12  7  1  0  0  0  0
 12  8  1  0  0  0  0
 14 15  2  0  0  0  0
 14 13  1  0  0  0  0
 16 17  1  0  0  0  0
 18 17  1  6  0  0  0
 20 22  1  0  0  0  0
 20 25  1  0  0  0  0
 21 25  1  0  0  0  0
 21 18  1  0  0  0  0
 22 26  1  6  0  0  0
 23 19  1  1  0  0  0
 23 24  1  0  0  0  0
 23 18  1  0  0  0  0
 24 22  1  0  0  0  0
 26 27  1  0  0  0  0
 28 32  1  6  0  0  0
 28 29  1  0  0  0  0
 28 31  1  0  0  0  0
 29 30  1  6  0  0  0
 29 27  1  0  0  0  0
 29 31  1  0  0  0  0
 32 33  1  0  0  0  0
 33 35  2  0  0  0  0
 34 33  1  0  0  0  0
 36 37  1  0  0  0  0
 37 38  1  0  0  0  0
 39 41  1  0  0  0  0
 40 38  1  6  0  0  0
 40 39  1  0  0  0  0
 41 43  2  0  0  0  0
 41 48  1  0  0  0  0
 42 44  1  0  0  0  0
 44 43  1  0  0  0  0
 45 46  2  0  0  0  0
 46 40  1  0  0  0  0
 46 42  1  0  0  0  0
 48 49  1  0  0  0  0
 48 47  2  0  0  0  0
 50 49  1  0  0  0  0
 51 52  1  0  0  0  0
 51 50  1  0  0  0  0
 52 67  1  0  0  0  0
 53 57  1  1  0  0  0
 53 52  1  0  0  0  0
 54 56  2  0  0  0  0
 55 56  1  0  0  0  0
 56 53  1  0  0  0  0
 58 57  1  0  0  0  0
 58 61  1  0  0  0  0
 59 61  2  0  0  0  0
 61 60  2  0  0  0  0
 61 62  1  0  0  0  0
 62 63  1  0  0  0  0
 63 65  1  0  0  0  0
 65 64  2  0  0  0  0
 65 66  1  0  0  0  0
 67 68  1  0  0  0  0
 68 69  1  0  0  0  0
 70 69  2  0  0  0  0
M  END
>  <MODEL>
2

>  <REMARK>
 VINA RESULT:      -2.9      1.843      2.201
  Name = 
  32 active torsions:
  status: ('A' for Active; 'I' for Inactive)
    1  A    between atoms: C_1  and  O_49
    2  A    between atoms: C_3  and  C_51
    3  A    between atoms: C_4  and  N_22
    4  A    between atoms: C_4  and  C_41
    5  A    between atoms: C_7  and  C_51
    6  A    between atoms: C_7  and  S_58
    7  A    between atoms: C_8  and  O_34
    8  A    between atoms: O_9  and  C_63
    9  A    between atoms: O_9  and  C_70
   10  A    between atoms: C_10  and  C_47
   11  A    between atoms: C_11  and  C_26
   12  A    between atoms: C_11  and  C_42
   13  A    between atoms: C_15  and  C_41
   14  A    between atoms: O_19  and  C_24
   15  A    between atoms: O_19  and  C_60
   16  A    between atoms: N_22  and  C_46
   17  A    between atoms: N_22  and  C_69
   18  A    between atoms: C_23  and  C_37
   19  A    between atoms: C_23  and  S_58
   20  A    between atoms: C_26  and  C_60
   21  A    between atoms: C_27  and  C_69
   22  A    between atoms: C_28  and  C_40
   23  A    between atoms: C_29  and  C_47
   24  A    between atoms: C_30  and  O_49
   25  A    between atoms: C_30  and  C_65
   26  A    between atoms: C_31  and  C_63
   27  A    between atoms: C_33  and  C_61
   28  A    between atoms: O_34  and  C_68
   29  A    between atoms: C_37  and  C_69
   30  A    between atoms: C_40  and  C_55
   31  A    between atoms: C_46  and  C_70
   32  A    between atoms: C_50  and  C_55
                            x       y       z     vdW  Elec       q    Type
                         _______ _______ _______ _____ _____    ______ ____

>  <TORSDO>
F 32

$$$$
