=
 OpenBabel10222416403D

 30 34  0  0  1  0  0  0  0  0999 V2000
  190.0950  177.5270  143.5380 C   0  0  0  0  0  0  0  0  0  0  0  0
  189.4030  177.1190  145.7920 C   0  0  0  0  0  0  0  0  0  0  0  0
  190.0750  176.7470  141.2090 C   0  0  0  0  0  3  0  0  0  0  0  0
  190.6750  176.9810  146.2420 N   0  0  0  0  0  0  0  0  0  0  0  0
  187.2340  177.4450  145.5230 N   0  0  0  0  0  0  0  0  0  0  0  0
  191.6990  177.0980  145.3320 C   0  0  0  0  0  3  0  0  0  0  0  0
  187.8370  177.5530  144.3420 N   0  0  0  0  0  0  0  0  0  0  0  0
  188.1870  177.1620  146.4620 C   0  0  0  0  0  3  0  0  0  0  0  0
  189.6690  177.8560  142.1270 C   0  0  1  0  0  3  0  0  0  0  0  0
  188.1710  178.1660  141.9910 C   0  0  0  0  0  0  0  0  0  0  0  0
  187.7040  178.6450  140.8310 C   0  0  0  0  0  3  0  0  0  0  0  0
  187.2720  177.9880  143.1280 N   0  0  0  0  0  0  0  0  0  0  0  0
  189.4790  178.0110  139.1740 C   0  0  0  0  0  3  0  0  0  0  0  0
  188.4790  178.8000  139.5850 C   0  0  0  0  0  3  0  0  0  0  0  0
  189.1320  177.3680  144.5000 C   0  0  0  0  0  0  0  0  0  0  0  0
  190.0110  176.8210  139.8780 C   0  0  0  0  0  0  0  0  0  0  0  0
  191.4310  177.3810  143.9630 C   0  0  0  0  0  3  0  0  0  0  0  0
  183.0860  178.7200  142.8830 C   0  0  0  0  0  0  0  0  0  0  0  0
  183.7750  178.1890  141.7840 C   0  0  0  0  0  3  0  0  0  0  0  0
  183.7900  179.0050  144.0610 C   0  0  0  0  0  3  0  0  0  0  0  0
  185.8510  178.2190  143.0450 C   0  0  0  0  0  0  0  0  0  0  0  0
  185.1630  178.7590  144.1400 C   0  0  0  0  0  3  0  0  0  0  0  0
  185.1480  177.9430  141.8630 C   0  0  0  0  0  3  0  0  0  0  0  0
  180.7940  178.7330  143.9220 N   0  0  0  0  0  1  0  0  0  0  0  0
  181.1300  179.4230  141.7350 O   0  0  0  0  0  0  0  0  0  0  0  0
  181.6370  178.9800  142.8000 C   0  0  0  0  0  0  0  0  0  0  0  0
  191.6800  175.7380  138.2590 C   0  0  0  0  0  0  0  0  0  0  0  0
  192.3130  176.8020  138.0300 O   0  0  0  0  0  0  0  0  0  0  0  0
  190.5490  175.7170  139.1370 N   0  0  0  0  0  2  0  0  0  0  0  0
  192.1120  174.4790  137.5990 C   0  0  0  0  0  1  0  0  0  0  0  0
  1 17  2  0  0  0  0
  1 15  1  0  0  0  0
  2  4  1  0  0  0  0
  2  8  1  0  0  0  0
  5  8  2  0  0  0  0
  6  4  2  0  0  0  0
  7 15  1  0  0  0  0
  7  5  1  0  0  0  0
  9  3  1  6  0  0  0
  9  1  1  0  0  0  0
 10  9  1  0  0  0  0
 10 12  1  0  0  0  0
 11 10  2  0  0  0  0
 12  7  1  0  0  0  0
 13 14  2  0  0  0  0
 13 16  1  0  0  0  0
 14 11  1  0  0  0  0
 15  2  2  0  0  0  0
 16  3  2  0  0  0  0
 17  6  1  0  0  0  0
 18 20  1  0  0  0  0
 19 23  1  0  0  0  0
 19 18  2  0  0  0  0
 20 22  2  0  0  0  0
 21 12  1  0  0  0  0
 21 22  1  0  0  0  0
 23 21  2  0  0  0  0
 25 26  2  0  0  0  0
 26 18  1  0  0  0  0
 26 24  1  0  0  0  0
 27 29  1  0  0  0  0
 28 27  2  0  0  0  0
 29 16  1  0  0  0  0
 30 27  1  0  0  0  0
M  END
>  <MODEL>
1

>  <REMARK>
 VINA RESULT:      -9.6      0.000      0.000
  Name = 
  3 active torsions:
  status: ('A' for Active; 'I' for Inactive)
    1  A    between atoms: C_5  and  C_22
    2  A    between atoms: N_16  and  C_27
    3  A    between atoms: N_20  and  C_21
                            x       y       z     vdW  Elec       q    Type
                         _______ _______ _______ _____ _____    ______ ____

>  <TORSDO>
F 3

$$$$
=
 OpenBabel10222416403D

 30 34  0  0  1  0  0  0  0  0999 V2000
  190.1070  177.5200  143.5370 C   0  0  0  0  0  0  0  0  0  0  0  0
  189.4030  177.1150  145.7890 C   0  0  0  0  0  0  0  0  0  0  0  0
  190.0770  176.7510  141.2050 C   0  0  0  0  0  3  0  0  0  0  0  0
  190.6720  176.9510  146.2400 N   0  0  0  0  0  0  0  0  0  0  0  0
  187.2420  177.4850  145.5170 N   0  0  0  0  0  0  0  0  0  0  0  0
  191.7000  177.0520  145.3330 C   0  0  0  0  0  3  0  0  0  0  0  0
  187.8490  177.5870  144.3380 N   0  0  0  0  0  0  0  0  0  0  0  0
  188.1880  177.1790  146.4560 C   0  0  0  0  0  3  0  0  0  0  0  0
  189.6910  177.8630  142.1270 C   0  0  1  0  0  3  0  0  0  0  0  0
  188.2000  178.2030  141.9900 C   0  0  0  0  0  0  0  0  0  0  0  0
  187.7450  178.6960  140.8310 C   0  0  0  0  0  3  0  0  0  0  0  0
  187.2950  178.0380  143.1250 N   0  0  0  0  0  0  0  0  0  0  0  0
  189.5090  178.0350  139.1750 C   0  0  0  0  0  3  0  0  0  0  0  0
  188.5250  178.8420  139.5880 C   0  0  0  0  0  3  0  0  0  0  0  0
  189.1400  177.3760  144.4980 C   0  0  0  0  0  0  0  0  0  0  0  0
  190.0170  176.8320  139.8750 C   0  0  0  0  0  0  0  0  0  0  0  0
  191.4400  177.3450  143.9650 C   0  0  0  0  0  3  0  0  0  0  0  0
  183.1060  178.7520  142.8780 C   0  0  0  0  0  0  0  0  0  0  0  0
  183.8190  179.1220  144.0270 C   0  0  0  0  0  3  0  0  0  0  0  0
  183.7880  178.1460  141.8140 C   0  0  0  0  0  3  0  0  0  0  0  0
  185.8790  178.2970  143.0400 C   0  0  0  0  0  0  0  0  0  0  0  0
  185.1640  177.9170  141.8960 C   0  0  0  0  0  3  0  0  0  0  0  0
  185.1940  178.8940  144.1080 C   0  0  0  0  0  3  0  0  0  0  0  0
  181.0540  179.3420  141.5460 N   0  0  0  0  0  1  0  0  0  0  0  0
  180.9300  178.8920  143.8170 O   0  0  0  0  0  0  0  0  0  0  0  0
  181.6540  178.9930  142.7910 C   0  0  0  0  0  0  0  0  0  0  0  0
  191.6660  175.7250  138.2520 C   0  0  0  0  0  0  0  0  0  0  0  0
  192.3190  176.7780  138.0270 O   0  0  0  0  0  0  0  0  0  0  0  0
  190.5350  175.7210  139.1300 N   0  0  0  0  0  2  0  0  0  0  0  0
  192.0750  174.4600  137.5870 C   0  0  0  0  0  1  0  0  0  0  0  0
  1 17  2  0  0  0  0
  1 15  1  0  0  0  0
  2  4  1  0  0  0  0
  2  8  1  0  0  0  0
  5  8  2  0  0  0  0
  6  4  2  0  0  0  0
  7 15  1  0  0  0  0
  7  5  1  0  0  0  0
  9  3  1  6  0  0  0
  9  1  1  0  0  0  0
 10  9  1  0  0  0  0
 10 12  1  0  0  0  0
 11 10  2  0  0  0  0
 12  7  1  0  0  0  0
 13 14  2  0  0  0  0
 13 16  1  0  0  0  0
 14 11  1  0  0  0  0
 15  2  2  0  0  0  0
 16  3  2  0  0  0  0
 17  6  1  0  0  0  0
 18 19  1  0  0  0  0
 19 23  2  0  0  0  0
 20 22  1  0  0  0  0
 20 18  2  0  0  0  0
 21 12  1  0  0  0  0
 21 23  1  0  0  0  0
 22 21  2  0  0  0  0
 24 26  1  0  0  0  0
 26 18  1  0  0  0  0
 26 25  2  0  0  0  0
 27 29  1  0  0  0  0
 28 27  2  0  0  0  0
 29 16  1  0  0  0  0
 30 27  1  0  0  0  0
M  END
>  <MODEL>
2

>  <REMARK>
 VINA RESULT:      -9.5      0.600      1.067
  Name = 
  3 active torsions:
  status: ('A' for Active; 'I' for Inactive)
    1  A    between atoms: C_5  and  C_22
    2  A    between atoms: N_16  and  C_27
    3  A    between atoms: N_20  and  C_21
                            x       y       z     vdW  Elec       q    Type
                         _______ _______ _______ _____ _____    ______ ____

>  <TORSDO>
F 3

$$$$
=
 OpenBabel10222416403D

 30 34  0  0  1  0  0  0  0  0999 V2000
  188.1920  177.8030  137.8580 C   0  0  0  0  0  0  0  0  0  0  0  0
  190.3720  176.8230  137.9830 C   0  0  0  0  0  0  0  0  0  0  0  0
  185.7790  177.4970  138.2000 C   0  0  0  0  0  3  0  0  0  0  0  0
  190.5710  176.9030  136.6440 N   0  0  0  0  0  0  0  0  0  0  0  0
  190.5290  176.6790  140.1820 N   0  0  0  0  0  0  0  0  0  0  0  0
  189.5630  177.4270  135.8690 C   0  0  0  0  0  3  0  0  0  0  0  0
  189.3260  177.1470  139.8650 N   0  0  0  0  0  0  0  0  0  0  0  0
  191.2160  176.4530  139.0210 C   0  0  0  0  0  3  0  0  0  0  0  0
  186.9800  178.2850  138.6180 C   0  0  1  0  0  3  0  0  0  0  0  0
  187.1560  178.2570  140.1430 C   0  0  0  0  0  0  0  0  0  0  0  0
  186.2260  178.8250  140.9210 C   0  0  0  0  0  3  0  0  0  0  0  0
  188.3490  177.6610  140.7400 N   0  0  0  0  0  0  0  0  0  0  0  0
  184.2100  178.9500  139.4330 C   0  0  0  0  0  3  0  0  0  0  0  0
  184.9440  179.3910  140.4620 C   0  0  0  0  0  3  0  0  0  0  0  0
  189.2310  177.2430  138.5550 C   0  0  0  0  0  0  0  0  0  0  0  0
  184.5280  177.8060  138.5470 C   0  0  0  0  0  0  0  0  0  0  0  0
  188.3560  177.8940  136.4610 C   0  0  0  0  0  3  0  0  0  0  0  0
  188.9150  177.4260  144.9520 C   0  0  0  0  0  0  0  0  0  0  0  0
  187.8790  176.7100  144.3380 C   0  0  0  0  0  3  0  0  0  0  0  0
  189.7610  178.2170  144.1630 C   0  0  0  0  0  3  0  0  0  0  0  0
  188.5460  177.5650  142.1650 C   0  0  0  0  0  0  0  0  0  0  0  0
  189.5760  178.2890  142.7800 C   0  0  0  0  0  3  0  0  0  0  0  0
  187.6940  176.7810  142.9550 C   0  0  0  0  0  3  0  0  0  0  0  0
  190.3160  176.8140  146.9510 N   0  0  0  0  0  1  0  0  0  0  0  0
  188.2140  177.7620  147.1950 O   0  0  0  0  0  0  0  0  0  0  0  0
  189.1110  177.3510  146.4110 C   0  0  0  0  0  0  0  0  0  0  0  0
  182.5800  176.1400  138.6570 C   0  0  0  0  0  0  0  0  0  0  0  0
  182.6690  175.9530  139.8990 O   0  0  0  0  0  0  0  0  0  0  0  0
  183.4770  177.0190  137.9680 N   0  0  0  0  0  2  0  0  0  0  0  0
  181.5270  175.4280  137.8880 C   0  0  0  0  0  1  0  0  0  0  0  0
  1 15  2  0  0  0  0
  1  9  1  0  0  0  0
  2 15  1  0  0  0  0
  2  8  1  0  0  0  0
  3 16  2  0  0  0  0
  4  2  2  0  0  0  0
  6 17  2  0  0  0  0
  6  4  1  0  0  0  0
  7  5  1  0  0  0  0
  7 12  1  0  0  0  0
  8  5  2  0  0  0  0
  9  3  1  1  0  0  0
  9 10  1  0  0  0  0
 10 12  1  0  0  0  0
 10 11  2  0  0  0  0
 12 21  1  0  0  0  0
 13 14  2  0  0  0  0
 14 11  1  0  0  0  0
 15  7  1  0  0  0  0
 16 13  1  0  0  0  0
 17  1  1  0  0  0  0
 18 26  1  0  0  0  0
 19 18  1  0  0  0  0
 20 18  2  0  0  0  0
 21 22  2  0  0  0  0
 21 23  1  0  0  0  0
 22 20  1  0  0  0  0
 23 19  2  0  0  0  0
 26 24  1  0  0  0  0
 26 25  2  0  0  0  0
 27 28  2  0  0  0  0
 29 16  1  0  0  0  0
 29 27  1  0  0  0  0
 30 27  1  0  0  0  0
M  END
>  <MODEL>
3

>  <REMARK>
 VINA RESULT:      -8.8      3.122      6.819
  Name = 
  3 active torsions:
  status: ('A' for Active; 'I' for Inactive)
    1  A    between atoms: C_5  and  C_22
    2  A    between atoms: N_16  and  C_27
    3  A    between atoms: N_20  and  C_21
                            x       y       z     vdW  Elec       q    Type
                         _______ _______ _______ _____ _____    ______ ____

>  <TORSDO>
F 3

$$$$
=
 OpenBabel10222416403D

 30 34  0  0  1  0  0  0  0  0999 V2000
  187.0560  178.2980  138.0050 C   0  0  0  0  0  0  0  0  0  0  0  0
  189.2590  177.8180  138.8080 C   0  0  0  0  0  0  0  0  0  0  0  0
  184.7510  177.4960  137.7240 C   0  0  0  0  0  3  0  0  0  0  0  0
  189.8080  177.8740  137.5690 N   0  0  0  0  0  0  0  0  0  0  0  0
  188.8140  177.8190  140.9720 N   0  0  0  0  0  0  0  0  0  0  0  0
  188.9780  178.1300  136.5030 C   0  0  0  0  0  3  0  0  0  0  0  0
  187.6820  178.0010  140.2990 N   0  0  0  0  0  0  0  0  0  0  0  0
  189.8300  177.6900  140.0660 C   0  0  0  0  0  3  0  0  0  0  0  0
  185.6090  178.5440  138.3600 C   0  0  1  0  0  3  0  0  0  0  0  0
  185.3500  178.6290  139.8700 C   0  0  0  0  0  0  0  0  0  0  0  0
  184.1460  179.0200  140.3080 C   0  0  0  0  0  3  0  0  0  0  0  0
  186.4180  178.3340  140.8230 N   0  0  0  0  0  0  0  0  0  0  0  0
  182.6470  178.6350  138.3330 C   0  0  0  0  0  3  0  0  0  0  0  0
  182.9610  179.2740  139.4670 C   0  0  0  0  0  3  0  0  0  0  0  0
  187.9440  178.0100  139.0080 C   0  0  0  0  0  0  0  0  0  0  0  0
  183.4180  177.5450  137.6910 C   0  0  0  0  0  0  0  0  0  0  0  0
  187.5870  178.3540  136.7000 C   0  0  0  0  0  3  0  0  0  0  0  0
  185.8780  178.4090  145.0440 C   0  0  0  0  0  0  0  0  0  0  0  0
  185.1330  179.2650  144.2220 C   0  0  0  0  0  3  0  0  0  0  0  0
  186.8000  177.5290  144.4600 C   0  0  0  0  0  3  0  0  0  0  0  0
  186.2190  178.3520  142.2510 C   0  0  0  0  0  0  0  0  0  0  0  0
  186.9710  177.5030  143.0740 C   0  0  0  0  0  3  0  0  0  0  0  0
  185.3050  179.2390  142.8360 C   0  0  0  0  0  3  0  0  0  0  0  0
  186.8120  178.2440  147.3750 N   0  0  0  0  0  1  0  0  0  0  0  0
  184.5560  178.6280  147.0040 O   0  0  0  0  0  0  0  0  0  0  0  0
  185.6980  178.4350  146.5070 C   0  0  0  0  0  0  0  0  0  0  0  0
  181.9870  175.4280  137.4650 C   0  0  0  0  0  0  0  0  0  0  0  0
  181.8680  175.2470  138.7060 O   0  0  0  0  0  0  0  0  0  0  0  0
  182.7470  176.5230  136.9410 N   0  0  0  0  0  2  0  0  0  0  0  0
  181.3320  174.4810  136.5260 C   0  0  0  0  0  1  0  0  0  0  0  0
  1  9  1  0  0  0  0
  1 15  2  0  0  0  0
  2 15  1  0  0  0  0
  2  8  1  0  0  0  0
  4  2  2  0  0  0  0
  6 17  2  0  0  0  0
  6  4  1  0  0  0  0
  7 12  1  0  0  0  0
  7  5  1  0  0  0  0
  8  5  2  0  0  0  0
  9  3  1  1  0  0  0
  9 10  1  0  0  0  0
 10 11  2  0  0  0  0
 10 12  1  0  0  0  0
 12 21  1  0  0  0  0
 13 14  2  0  0  0  0
 14 11  1  0  0  0  0
 15  7  1  0  0  0  0
 16  3  2  0  0  0  0
 16 13  1  0  0  0  0
 17  1  1  0  0  0  0
 18 26  1  0  0  0  0
 19 18  2  0  0  0  0
 20 18  1  0  0  0  0
 21 23  2  0  0  0  0
 21 22  1  0  0  0  0
 22 20  2  0  0  0  0
 23 19  1  0  0  0  0
 26 25  2  0  0  0  0
 26 24  1  0  0  0  0
 27 28  2  0  0  0  0
 29 27  1  0  0  0  0
 29 16  1  0  0  0  0
 30 27  1  0  0  0  0
M  END
>  <MODEL>
4

>  <REMARK>
 VINA RESULT:      -8.5      3.522      6.378
  Name = 
  3 active torsions:
  status: ('A' for Active; 'I' for Inactive)
    1  A    between atoms: C_5  and  C_22
    2  A    between atoms: N_16  and  C_27
    3  A    between atoms: N_20  and  C_21
                            x       y       z     vdW  Elec       q    Type
                         _______ _______ _______ _____ _____    ______ ____

>  <TORSDO>
F 3

$$$$
=
 OpenBabel10222416403D

 30 34  0  0  1  0  0  0  0  0999 V2000
  190.4750  177.2720  139.1340 C   0  0  0  0  0  0  0  0  0  0  0  0
  191.7640  177.2790  141.1510 C   0  0  0  0  0  0  0  0  0  0  0  0
  188.7700  176.1240  137.7900 C   0  0  0  0  0  3  0  0  0  0  0  0
  192.9410  177.1420  140.4930 N   0  0  0  0  0  0  0  0  0  0  0  0
  190.1230  177.6850  142.5750 N   0  0  0  0  0  0  0  0  0  0  0  0
  192.9090  177.0470  139.1210 C   0  0  0  0  0  3  0  0  0  0  0  0
  189.6140  177.5630  141.3520 N   0  0  0  0  0  0  0  0  0  0  0  0
  191.4760  177.5030  142.4910 C   0  0  0  0  0  3  0  0  0  0  0  0
  189.1040  177.3900  138.5130 C   0  0  1  0  0  3  0  0  0  0  0  0
  188.0020  177.7620  139.5140 C   0  0  0  0  0  0  0  0  0  0  0  0
  186.7810  178.0720  139.0600 C   0  0  0  0  0  3  0  0  0  0  0  0
  188.2920  177.8260  140.9450 N   0  0  0  0  0  0  0  0  0  0  0  0
  186.7360  177.0710  136.7600 C   0  0  0  0  0  3  0  0  0  0  0  0
  186.3300  177.9750  137.6590 C   0  0  0  0  0  3  0  0  0  0  0  0
  190.5900  177.3300  140.4990 C   0  0  0  0  0  0  0  0  0  0  0  0
  187.7170  175.9830  136.9830 C   0  0  0  0  0  0  0  0  0  0  0  0
  191.6770  177.1170  138.4140 C   0  0  0  0  0  3  0  0  0  0  0  0
  185.2880  178.6830  143.8360 C   0  0  0  0  0  0  0  0  0  0  0  0
  186.2730  177.7230  144.1050 C   0  0  0  0  0  3  0  0  0  0  0  0
  185.3050  179.3560  142.6070 C   0  0  0  0  0  3  0  0  0  0  0  0
  187.2860  178.1240  141.9340 C   0  0  0  0  0  0  0  0  0  0  0  0
  186.2950  179.0760  141.6620 C   0  0  0  0  0  3  0  0  0  0  0  0
  187.2630  177.4430  143.1600 C   0  0  0  0  0  3  0  0  0  0  0  0
  184.5570  179.0030  146.2230 N   0  0  0  0  0  1  0  0  0  0  0  0
  183.0610  179.2150  144.4650 O   0  0  0  0  0  0  0  0  0  0  0  0
  184.2430  178.9790  144.8330 C   0  0  0  0  0  0  0  0  0  0  0  0
  186.7330  173.6470  136.5860 C   0  0  0  0  0  0  0  0  0  0  0  0
  185.9780  173.6770  137.5930 O   0  0  0  0  0  0  0  0  0  0  0  0
  187.6010  174.7420  136.2720 N   0  0  0  0  0  2  0  0  0  0  0  0
  186.7290  172.4480  135.7090 C   0  0  0  0  0  1  0  0  0  0  0  0
  1 15  2  0  0  0  0
  2  8  1  0  0  0  0
  4  2  2  0  0  0  0
  6  4  1  0  0  0  0
  7  5  1  0  0  0  0
  8  5  2  0  0  0  0
  9  3  1  1  0  0  0
  9  1  1  0  0  0  0
  9 10  1  0  0  0  0
 10 12  1  0  0  0  0
 11 10  2  0  0  0  0
 12  7  1  0  0  0  0
 12 21  1  0  0  0  0
 13 16  1  0  0  0  0
 13 14  2  0  0  0  0
 14 11  1  0  0  0  0
 15  2  1  0  0  0  0
 15  7  1  0  0  0  0
 16  3  2  0  0  0  0
 17  6  2  0  0  0  0
 17  1  1  0  0  0  0
 18 19  1  0  0  0  0
 18 26  1  0  0  0  0
 20 18  2  0  0  0  0
 21 23  1  0  0  0  0
 22 21  2  0  0  0  0
 22 20  1  0  0  0  0
 23 19  2  0  0  0  0
 25 26  2  0  0  0  0
 26 24  1  0  0  0  0
 27 28  2  0  0  0  0
 29 27  1  0  0  0  0
 29 16  1  0  0  0  0
 30 27  1  0  0  0  0
M  END
>  <MODEL>
5

>  <REMARK>
 VINA RESULT:      -8.5      2.942      4.198
  Name = 
  3 active torsions:
  status: ('A' for Active; 'I' for Inactive)
    1  A    between atoms: C_5  and  C_22
    2  A    between atoms: N_16  and  C_27
    3  A    between atoms: N_20  and  C_21
                            x       y       z     vdW  Elec       q    Type
                         _______ _______ _______ _____ _____    ______ ____

>  <TORSDO>
F 3

$$$$
=
 OpenBabel10222416403D

 30 34  0  0  1  0  0  0  0  0999 V2000
  186.6110  178.4480  139.0560 C   0  0  0  0  0  0  0  0  0  0  0  0
  188.8990  177.9080  138.6030 C   0  0  0  0  0  0  0  0  0  0  0  0
  184.4290  177.6460  139.8450 C   0  0  0  0  0  3  0  0  0  0  0  0
  188.7730  178.1440  137.2730 N   0  0  0  0  0  0  0  0  0  0  0  0
  189.5720  177.6050  140.6850 N   0  0  0  0  0  0  0  0  0  0  0  0
  187.5410  178.5260  136.7960 C   0  0  0  0  0  3  0  0  0  0  0  0
  188.2660  177.8540  140.6860 N   0  0  0  0  0  0  0  0  0  0  0  0
  190.0060  177.6210  139.3880 C   0  0  0  0  0  3  0  0  0  0  0  0
  185.5380  178.6140  140.1050 C   0  0  0  0  0  0  0  0  0  0  0  0
  186.0570  178.4870  141.5440 C   0  0  0  0  0  0  0  0  0  0  0  0
  185.2430  178.7910  142.5640 C   0  0  0  0  0  3  0  0  0  0  0  0
  187.4390  178.0870  141.8010 N   0  0  0  0  0  0  0  0  0  0  0  0
  182.9520  178.6490  141.5510 C   0  0  0  0  0  3  0  0  0  0  0  0
  183.8130  179.1330  142.4550 C   0  0  0  0  0  3  0  0  0  0  0  0
  187.8620  178.0440  139.4460 C   0  0  0  0  0  0  0  0  0  0  0  0
  183.2550  177.6720  140.4790 C   0  0  1  0  0  3  0  0  0  0  0  0
  186.4370  178.6930  137.6790 C   0  0  0  0  0  3  0  0  0  0  0  0
  188.9990  177.5040  145.7180 C   0  0  0  0  0  0  0  0  0  0  0  0
  189.7840  178.1120  144.7290 C   0  0  0  0  0  3  0  0  0  0  0  0
  187.6970  177.0920  145.4020 C   0  0  0  0  0  3  0  0  0  0  0  0
  187.9670  177.9060  143.1310 C   0  0  0  0  0  0  0  0  0  0  0  0
  187.1860  177.2890  144.1170 C   0  0  0  0  0  3  0  0  0  0  0  0
  189.2730  178.3090  143.4440 C   0  0  0  0  0  3  0  0  0  0  0  0
  188.9490  177.9530  148.1940 N   0  0  0  0  0  1  0  0  0  0  0  0
  190.5250  176.5340  147.2570 O   0  0  0  0  0  0  0  0  0  0  0  0
  189.5380  177.2950  147.0740 C   0  0  0  0  0  0  0  0  0  0  0  0
  181.2000  177.0060  139.0940 C   0  0  0  0  0  0  0  0  0  0  0  0
  181.0450  178.1450  138.5790 O   0  0  0  0  0  0  0  0  0  0  0  0
  182.2520  176.7480  140.0320 N   0  0  0  0  0  2  0  0  0  0  0  0
  180.2690  175.9090  138.7260 C   0  0  0  0  0  1  0  0  0  0  0  0
  1 15  2  0  0  0  0
  1  9  1  0  0  0  0
  2  8  1  0  0  0  0
  2 15  1  0  0  0  0
  3  9  2  0  0  0  0
  3 16  1  0  0  0  0
  4  2  2  0  0  0  0
  5  7  1  0  0  0  0
  6  4  1  0  0  0  0
  6 17  2  0  0  0  0
  7 12  1  0  0  0  0
  8  5  2  0  0  0  0
  9 10  1  0  0  0  0
 10 12  1  0  0  0  0
 10 11  2  0  0  0  0
 12 21  1  0  0  0  0
 13 14  2  0  0  0  0
 14 11  1  0  0  0  0
 15  7  1  0  0  0  0
 16 29  1  6  0  0  0
 16 13  1  0  0  0  0
 17  1  1  0  0  0  0
 18 26  1  0  0  0  0
 19 18  2  0  0  0  0
 20 18  1  0  0  0  0
 21 23  2  0  0  0  0
 21 22  1  0  0  0  0
 22 20  2  0  0  0  0
 23 19  1  0  0  0  0
 26 25  2  0  0  0  0
 26 24  1  0  0  0  0
 27 29  1  0  0  0  0
 28 27  2  0  0  0  0
 30 27  1  0  0  0  0
M  END
>  <MODEL>
6

>  <REMARK>
 VINA RESULT:      -8.2      2.870      7.170
  Name = 
  3 active torsions:
  status: ('A' for Active; 'I' for Inactive)
    1  A    between atoms: C_5  and  C_22
    2  A    between atoms: N_16  and  C_27
    3  A    between atoms: N_20  and  C_21
                            x       y       z     vdW  Elec       q    Type
                         _______ _______ _______ _____ _____    ______ ____

>  <TORSDO>
F 3

$$$$
=
 OpenBabel10222416403D

 30 34  0  0  1  0  0  0  0  0999 V2000
  185.7670  178.6670  144.2030 C   0  0  0  0  0  0  0  0  0  0  0  0
  183.4840  178.6730  144.9200 C   0  0  0  0  0  0  0  0  0  0  0  0
  187.6100  177.3730  143.2230 C   0  0  0  0  0  3  0  0  0  0  0  0
  183.8090  178.9000  146.2170 N   0  0  0  0  0  0  0  0  0  0  0  0
  182.5280  178.4900  142.9370 N   0  0  0  0  0  0  0  0  0  0  0  0
  185.1410  179.0000  146.5430 C   0  0  0  0  0  3  0  0  0  0  0  0
  183.8480  178.4350  142.7860 N   0  0  0  0  0  0  0  0  0  0  0  0
  182.2580  178.6310  144.2700 C   0  0  0  0  0  3  0  0  0  0  0  0
  186.7240  178.5630  143.0390 C   0  0  1  0  0  3  0  0  0  0  0  0
  186.0300  178.5300  141.6700 C   0  0  0  0  0  0  0  0  0  0  0  0
  186.7700  178.6200  140.5580 C   0  0  0  0  0  3  0  0  0  0  0  0
  184.5730  178.4500  141.5800 N   0  0  0  0  0  0  0  0  0  0  0  0
  189.0700  177.9780  141.3270 C   0  0  0  0  0  3  0  0  0  0  0  0
  188.2440  178.6280  140.4990 C   0  0  0  0  0  3  0  0  0  0  0  0
  184.4220  178.5520  143.9660 C   0  0  0  0  0  0  0  0  0  0  0  0
  188.6800  177.1170  142.4680 C   0  0  0  0  0  0  0  0  0  0  0  0
  186.1470  178.8930  145.5420 C   0  0  0  0  0  3  0  0  0  0  0  0
  182.4570  178.1980  137.8950 C   0  0  0  0  0  0  0  0  0  0  0  0
  182.8890  179.4420  138.3780 C   0  0  0  0  0  3  0  0  0  0  0  0
  182.7310  177.0430  138.6390 C   0  0  0  0  0  3  0  0  0  0  0  0
  183.8710  178.3690  140.3240 C   0  0  0  0  0  0  0  0  0  0  0  0
  183.4310  177.1280  139.8460 C   0  0  0  0  0  3  0  0  0  0  0  0
  183.5880  179.5270  139.5840 C   0  0  0  0  0  3  0  0  0  0  0  0
  181.1180  179.2670  136.0530 N   0  0  0  0  0  1  0  0  0  0  0  0
  181.6140  177.0030  136.0250 O   0  0  0  0  0  0  0  0  0  0  0  0
  181.7200  178.1080  136.6230 C   0  0  0  0  0  0  0  0  0  0  0  0
  190.7240  176.0370  143.5790 C   0  0  0  0  0  0  0  0  0  0  0  0
  191.2370  177.1280  143.9430 O   0  0  0  0  0  0  0  0  0  0  0  0
  189.4930  175.9980  142.8470 N   0  0  0  0  0  2  0  0  0  0  0  0
  191.4140  174.7630  143.9090 C   0  0  0  0  0  1  0  0  0  0  0  0
  1 17  2  0  0  0  0
  2  4  1  0  0  0  0
  4  6  2  0  0  0  0
  5  8  2  0  0  0  0
  7  5  1  0  0  0  0
  7 15  1  0  0  0  0
  8  2  1  0  0  0  0
  9  3  1  1  0  0  0
  9  1  1  0  0  0  0
 10  9  1  0  0  0  0
 11 10  2  0  0  0  0
 12 10  1  0  0  0  0
 12  7  1  0  0  0  0
 13 16  1  0  0  0  0
 14 11  1  0  0  0  0
 14 13  2  0  0  0  0
 15  1  1  0  0  0  0
 15  2  2  0  0  0  0
 16 29  1  0  0  0  0
 16  3  2  0  0  0  0
 17  6  1  0  0  0  0
 18 19  2  0  0  0  0
 18 20  1  0  0  0  0
 19 23  1  0  0  0  0
 20 22  2  0  0  0  0
 21 12  1  0  0  0  0
 22 21  1  0  0  0  0
 23 21  2  0  0  0  0
 24 26  1  0  0  0  0
 25 26  2  0  0  0  0
 26 18  1  0  0  0  0
 27 30  1  0  0  0  0
 27 28  2  0  0  0  0
 29 27  1  0  0  0  0
M  END
>  <MODEL>
7

>  <REMARK>
 VINA RESULT:      -8.1      3.175      4.953
  Name = 
  3 active torsions:
  status: ('A' for Active; 'I' for Inactive)
    1  A    between atoms: C_5  and  C_22
    2  A    between atoms: N_16  and  C_27
    3  A    between atoms: N_20  and  C_21
                            x       y       z     vdW  Elec       q    Type
                         _______ _______ _______ _____ _____    ______ ____

>  <TORSDO>
F 3

$$$$
=
 OpenBabel10222416403D

 30 34  0  0  1  0  0  0  0  0999 V2000
  187.4960  178.3070  145.1500 C   0  0  0  0  0  0  0  0  0  0  0  0
  185.2370  178.1220  144.3810 C   0  0  0  0  0  0  0  0  0  0  0  0
  189.6430  177.1700  145.5100 C   0  0  0  0  0  3  0  0  0  0  0  0
  184.7160  178.3750  145.6070 N   0  0  0  0  0  0  0  0  0  0  0  0
  185.6550  177.8620  142.2270 N   0  0  0  0  0  0  0  0  0  0  0  0
  185.5860  178.5850  146.6510 C   0  0  0  0  0  3  0  0  0  0  0  0
  186.8090  177.9160  142.8870 N   0  0  0  0  0  0  0  0  0  0  0  0
  184.6400  177.9800  143.1360 C   0  0  0  0  0  3  0  0  0  0  0  0
  188.9600  178.2830  144.7810 C   0  0  0  0  0  0  0  0  0  0  0  0
  189.2150  178.1930  143.2700 C   0  0  0  0  0  0  0  0  0  0  0  0
  190.4620  178.3450  142.8060 C   0  0  0  0  0  3  0  0  0  0  0  0
  188.1040  177.9930  142.3420 N   0  0  0  0  0  0  0  0  0  0  0  0
  191.8980  177.8950  144.8140 C   0  0  0  0  0  3  0  0  0  0  0  0
  191.6800  178.4750  143.6270 C   0  0  0  0  0  3  0  0  0  0  0  0
  186.5640  178.0810  144.1710 C   0  0  0  0  0  0  0  0  0  0  0  0
  190.9670  177.0040  145.5450 C   0  0  1  0  0  3  0  0  0  0  0  0
  186.9940  178.5620  146.4420 C   0  0  0  0  0  3  0  0  0  0  0  0
  188.6400  177.5340  138.1440 C   0  0  0  0  0  0  0  0  0  0  0  0
  187.5440  178.2530  138.6420 C   0  0  0  0  0  3  0  0  0  0  0  0
  189.5550  176.9710  139.0440 C   0  0  0  0  0  3  0  0  0  0  0  0
  188.2900  177.8540  140.9190 C   0  0  0  0  0  0  0  0  0  0  0  0
  189.3790  177.1280  140.4210 C   0  0  0  0  0  3  0  0  0  0  0  0
  187.3680  178.4090  140.0190 C   0  0  0  0  0  3  0  0  0  0  0  0
  189.9840  176.7140  136.1820 N   0  0  0  0  0  1  0  0  0  0  0  0
  187.9610  177.8060  135.8860 O   0  0  0  0  0  0  0  0  0  0  0  0
  188.8250  177.3690  136.6920 C   0  0  0  0  0  0  0  0  0  0  0  0
  191.9790  176.0900  147.7180 C   0  0  0  0  0  0  0  0  0  0  0  0
  192.0560  177.2140  148.2810 O   0  0  0  0  0  0  0  0  0  0  0  0
  191.4710  175.9560  146.3850 N   0  0  0  0  0  2  0  0  0  0  0  0
  192.4300  174.8780  148.4490 C   0  0  0  0  0  1  0  0  0  0  0  0
  1 17  2  0  0  0  0
  2  4  1  0  0  0  0
  3 16  1  0  0  0  0
  4  6  2  0  0  0  0
  5  7  1  0  0  0  0
  5  8  2  0  0  0  0
  7 15  1  0  0  0  0
  8  2  1  0  0  0  0
  9  1  1  0  0  0  0
  9  3  2  0  0  0  0
 10  9  1  0  0  0  0
 11 10  2  0  0  0  0
 11 14  1  0  0  0  0
 12  7  1  0  0  0  0
 12 10  1  0  0  0  0
 13 16  1  0  0  0  0
 14 13  2  0  0  0  0
 15  2  2  0  0  0  0
 15  1  1  0  0  0  0
 16 29  1  1  0  0  0
 17  6  1  0  0  0  0
 18 19  2  0  0  0  0
 18 20  1  0  0  0  0
 19 23  1  0  0  0  0
 20 22  2  0  0  0  0
 21 12  1  0  0  0  0
 22 21  1  0  0  0  0
 23 21  2  0  0  0  0
 24 26  1  0  0  0  0
 25 26  2  0  0  0  0
 26 18  1  0  0  0  0
 27 28  2  0  0  0  0
 27 30  1  0  0  0  0
 29 27  1  0  0  0  0
M  END
>  <MODEL>
8

>  <REMARK>
 VINA RESULT:      -8.0      2.672      6.349
  Name = 
  3 active torsions:
  status: ('A' for Active; 'I' for Inactive)
    1  A    between atoms: C_5  and  C_22
    2  A    between atoms: N_16  and  C_27
    3  A    between atoms: N_20  and  C_21
                            x       y       z     vdW  Elec       q    Type
                         _______ _______ _______ _____ _____    ______ ____

>  <TORSDO>
F 3

$$$$
=
 OpenBabel10222416403D

 30 34  0  0  1  0  0  0  0  0999 V2000
  187.6210  178.4280  141.0230 C   0  0  0  0  0  0  0  0  0  0  0  0
  186.5770  177.9470  138.9240 C   0  0  0  0  0  0  0  0  0  0  0  0
  188.5430  177.5270  143.1140 C   0  0  0  0  0  3  0  0  0  0  0  0
  185.4370  178.6070  139.2490 N   0  0  0  0  0  0  0  0  0  0  0  0
  188.2870  176.9520  137.9400 N   0  0  0  0  0  0  0  0  0  0  0  0
  185.3570  179.1850  140.4940 C   0  0  0  0  0  3  0  0  0  0  0  0
  188.6250  177.2550  139.1910 N   0  0  0  0  0  0  0  0  0  0  0  0
  186.9990  177.3650  137.7370 C   0  0  0  0  0  3  0  0  0  0  0  0
  188.8620  178.3010  141.8740 C   0  0  0  0  0  0  0  0  0  0  0  0
  190.0580  177.6890  141.1330 C   0  0  0  0  0  0  0  0  0  0  0  0
  191.2620  177.6880  141.7200 C   0  0  0  0  0  3  0  0  0  0  0  0
  189.8990  177.1560  139.7820 N   0  0  0  0  0  0  0  0  0  0  0  0
  190.7320  177.9980  144.1520 C   0  0  0  0  0  3  0  0  0  0  0  0
  191.5510  178.1200  143.1000 C   0  0  0  0  0  3  0  0  0  0  0  0
  187.6100  177.8560  139.7780 C   0  0  0  0  0  0  0  0  0  0  0  0
  189.3740  177.4070  144.1510 C   0  0  1  0  0  3  0  0  0  0  0  0
  186.4490  179.1140  141.4040 C   0  0  0  0  0  3  0  0  0  0  0  0
  193.0530  175.3140  137.5960 C   0  0  0  0  0  0  0  0  0  0  0  0
  193.2750  176.5200  138.2750 C   0  0  0  0  0  3  0  0  0  0  0  0
  191.7830  174.7240  137.6470 C   0  0  0  0  0  3  0  0  0  0  0  0
  190.9750  176.5280  139.0560 C   0  0  0  0  0  0  0  0  0  0  0  0
  190.7510  175.3280  138.3690 C   0  0  0  0  0  3  0  0  0  0  0  0
  192.2430  177.1250  138.9970 C   0  0  0  0  0  3  0  0  0  0  0  0
  195.4240  175.2920  136.7540 N   0  0  0  0  0  1  0  0  0  0  0  0
  193.9480  173.5790  136.2460 O   0  0  0  0  0  0  0  0  0  0  0  0
  194.1420  174.6760  136.8340 C   0  0  0  0  0  0  0  0  0  0  0  0
  188.8570  177.2260  146.6570 C   0  0  0  0  0  0  0  0  0  0  0  0
  189.3400  178.3520  146.9470 O   0  0  0  0  0  0  0  0  0  0  0  0
  188.8730  176.7310  145.3130 N   0  0  0  0  0  2  0  0  0  0  0  0
  188.2640  176.3890  147.7330 C   0  0  0  0  0  1  0  0  0  0  0  0
  1 17  1  0  0  0  0
  1  9  1  0  0  0  0
  2  4  2  0  0  0  0
  2 15  1  0  0  0  0
  3 16  1  0  0  0  0
  4  6  1  0  0  0  0
  5  7  1  0  0  0  0
  6 17  2  0  0  0  0
  7 15  1  0  0  0  0
  7 12  1  0  0  0  0
  8  5  2  0  0  0  0
  8  2  1  0  0  0  0
  9  3  2  0  0  0  0
 10 11  2  0  0  0  0
 10  9  1  0  0  0  0
 11 14  1  0  0  0  0
 12 10  1  0  0  0  0
 14 13  2  0  0  0  0
 15  1  2  0  0  0  0
 16 13  1  0  0  0  0
 16 29  1  1  0  0  0
 18 20  2  0  0  0  0
 18 19  1  0  0  0  0
 19 23  2  0  0  0  0
 20 22  1  0  0  0  0
 21 12  1  0  0  0  0
 22 21  2  0  0  0  0
 23 21  1  0  0  0  0
 24 26  1  0  0  0  0
 25 26  2  0  0  0  0
 26 18  1  0  0  0  0
 27 28  2  0  0  0  0
 27 30  1  0  0  0  0
 29 27  1  0  0  0  0
M  END
>  <MODEL>
9

>  <REMARK>
 VINA RESULT:      -7.6      2.949      8.467
  Name = 
  3 active torsions:
  status: ('A' for Active; 'I' for Inactive)
    1  A    between atoms: C_5  and  C_22
    2  A    between atoms: N_16  and  C_27
    3  A    between atoms: N_20  and  C_21
                            x       y       z     vdW  Elec       q    Type
                         _______ _______ _______ _____ _____    ______ ____

>  <TORSDO>
F 3

$$$$
