=
 OpenBabel10222419573D

 36 39  0  0  0  0  0  0  0  0999 V2000
  190.2370  176.9670  142.2090 C   0  0  0  0  0  3  0  0  0  0  0  0
  190.1260  177.2640  140.9130 C   0  0  0  0  0  0  0  0  0  0  0  0
  191.9600  175.7680  137.9420 C   0  0  0  0  0  3  0  0  0  0  0  0
  193.5410  176.9880  139.3040 C   0  0  0  0  0  3  0  0  0  0  0  0
  191.2020  176.8950  139.9630 C   0  0  0  0  0  0  0  0  0  0  0  0
  190.9350  176.1090  138.8290 C   0  0  0  0  0  3  0  0  0  0  0  0
  193.2670  176.2050  138.1720 C   0  0  0  0  0  0  0  0  0  0  0  0
  192.5160  177.3280  140.1890 C   0  0  0  0  0  3  0  0  0  0  0  0
  194.2690  175.8510  137.2650 O   0  0  0  0  0  0  0  0  0  0  0  0
  195.2420  173.8830  138.2290 C   0  0  0  0  0  1  0  0  0  0  0  0
  194.6160  174.4990  136.9950 C   0  0  0  0  0  2  0  0  0  0  0  0
  185.5340  179.0660  142.1870 C   0  0  0  0  0  3  0  0  0  0  0  0
  187.5660  178.5330  140.6500 C   0  0  0  0  0  0  0  0  0  0  0  0
  188.2220  178.5650  139.4300 C   0  0  0  0  0  2  0  0  0  0  0  0
  186.5490  178.8010  141.4160 C   0  0  0  0  0  0  0  0  0  0  0  0
  188.9590  177.9380  140.4330 N   0  0  0  0  0  0  0  0  0  0  0  0
  184.5480  177.9990  142.5110 C   0  0  0  0  0  2  0  0  0  0  0  0
  180.4870  179.1220  140.0300 O   0  0  0  0  0  0  0  0  0  0  0  0
  181.0250  179.2500  143.5320 C   0  0  0  0  0  3  0  0  0  0  0  0
  182.5110  178.5340  141.1640 C   0  0  0  0  0  0  0  0  0  0  0  0
  182.5150  179.0740  143.6140 C   0  0  0  0  0  2  0  0  0  0  0  0
  180.3750  179.2430  142.3740 C   0  0  0  0  0  3  0  0  0  0  0  0
  181.0940  178.9820  141.1250 C   0  0  0  0  0  0  0  0  0  0  0  0
  183.1520  178.5170  142.3580 C   0  0  0  0  0  0  0  0  0  0  0  0
  183.1500  178.0640  139.9050 C   0  0  0  0  0  0  0  0  0  0  0  0
  183.8010  178.9740  139.0220 N   0  0  0  0  0  1  0  0  0  0  0  0
  183.0850  176.8490  139.5820 O   0  0  0  0  0  0  0  0  0  0  0  0
  190.5310  176.9030  145.0180 O   0  0  0  0  0  0  0  0  0  0  0  0
  189.4110  177.2530  144.5530 C   0  0  0  0  0  0  0  0  0  0  0  0
  189.2090  177.3040  143.1400 N   0  0  0  0  0  2  0  0  0  0  0  0
  188.5490  177.7880  146.8340 C   0  0  0  0  0  3  0  0  0  0  0  0
  187.0010  177.7340  144.9760 C   0  0  0  0  0  3  0  0  0  0  0  0
  186.2000  178.2470  147.2030 C   0  0  0  0  0  3  0  0  0  0  0  0
  188.3070  177.5970  145.4660 C   0  0  0  0  0  0  0  0  0  0  0  0
  185.9510  178.0580  145.8420 C   0  0  0  0  0  3  0  0  0  0  0  0
  187.4990  178.1110  147.7000 C   0  0  0  0  0  3  0  0  0  0  0  0
  1 30  1  0  0  0  0
  2  1  2  0  0  0  0
  3  7  2  0  0  0  0
  3  6  1  0  0  0  0
  4  8  2  0  0  0  0
  5  8  1  0  0  0  0
  5  2  1  0  0  0  0
  6  5  2  0  0  0  0
  7  4  1  0  0  0  0
  9  7  1  0  0  0  0
 11  9  1  0  0  0  0
 11 10  1  0  0  0  0
 12 17  1  0  0  0  0
 13 15  2  0  0  0  0
 14 16  1  0  0  0  0
 14 13  1  0  0  0  0
 15 12  2  0  0  0  0
 16 13  1  0  0  0  0
 16  2  1  0  0  0  0
 18 23  2  0  0  0  0
 19 21  1  0  0  0  0
 20 24  2  0  0  0  0
 22 19  2  0  0  0  0
 23 20  1  0  0  0  0
 23 22  1  0  0  0  0
 24 17  1  0  0  0  0
 24 21  1  0  0  0  0
 25 20  1  0  0  0  0
 26 25  1  0  0  0  0
 27 25  2  0  0  0  0
 29 28  2  0  0  0  0
 29 34  1  0  0  0  0
 30 29  1  0  0  0  0
 31 36  1  0  0  0  0
 32 34  1  0  0  0  0
 32 35  2  0  0  0  0
 33 36  2  0  0  0  0
 34 31  2  0  0  0  0
 35 33  1  0  0  0  0
M  END
>  <MODEL>
1

>  <REMARK>
 VINA RESULT:      -8.9      0.000      0.000
  Name = 
  9 active torsions:
  status: ('A' for Active; 'I' for Inactive)
    1  A    between atoms: C_3  and  C_33
    2  A    between atoms: C_7  and  C_12
    3  A    between atoms: C_13  and  N_30
    4  A    between atoms: C_14  and  O_15
    5  A    between atoms: O_15  and  C_22
    6  A    between atoms: C_16  and  C_31
    7  A    between atoms: C_19  and  C_24
    8  A    between atoms: C_31  and  N_32
    9  A    between atoms: C_33  and  C_34
                            x       y       z     vdW  Elec       q    Type
                         _______ _______ _______ _____ _____    ______ ____

>  <TORSDO>
F 9

$$$$
=
 OpenBabel10222419573D

 36 39  0  0  0  0  0  0  0  0999 V2000
  189.7530  177.0130  137.7330 C   0  0  0  0  0  3  0  0  0  0  0  0
  189.6970  177.4200  139.0020 C   0  0  0  0  0  0  0  0  0  0  0  0
  187.1340  178.7880  141.4480 C   0  0  0  0  0  3  0  0  0  0  0  0
  186.0670  178.4470  139.3070 C   0  0  0  0  0  3  0  0  0  0  0  0
  188.4250  177.9160  139.5770 C   0  0  0  0  0  0  0  0  0  0  0  0
  188.3420  178.3230  140.9200 C   0  0  0  0  0  3  0  0  0  0  0  0
  185.9920  178.8550  140.6480 C   0  0  0  0  0  0  0  0  0  0  0  0
  187.2740  177.9830  138.7790 C   0  0  0  0  0  3  0  0  0  0  0  0
  184.8010  179.3280  141.2040 O   0  0  0  0  0  0  0  0  0  0  0  0
  184.2340  178.4640  143.3670 C   0  0  0  0  0  1  0  0  0  0  0  0
  183.8880  178.4840  141.8930 C   0  0  0  0  0  2  0  0  0  0  0  0
  191.4600  176.8200  143.7450 C   0  0  0  0  0  3  0  0  0  0  0  0
  191.5620  177.2100  141.1740 C   0  0  0  0  0  0  0  0  0  0  0  0
  192.2540  177.4220  139.9920 C   0  0  0  0  0  2  0  0  0  0  0  0
  191.5140  177.0150  142.4590 C   0  0  0  0  0  0  0  0  0  0  0  0
  190.8720  177.3720  139.8180 N   0  0  0  0  0  0  0  0  0  0  0  0
  191.1110  177.9470  144.6540 C   0  0  0  0  0  2  0  0  0  0  0  0
  188.3580  176.4880  148.4210 O   0  0  0  0  0  0  0  0  0  0  0  0
  187.3030  177.9540  145.3700 C   0  0  0  0  0  3  0  0  0  0  0  0
  189.7840  177.1900  146.6330 C   0  0  0  0  0  0  0  0  0  0  0  0
  188.5640  177.8920  144.5550 C   0  0  0  0  0  2  0  0  0  0  0  0
  187.2500  177.5190  146.6240 C   0  0  0  0  0  3  0  0  0  0  0  0
  188.4600  177.0270  147.2880 C   0  0  0  0  0  0  0  0  0  0  0  0
  189.8250  177.6660  145.3630 C   0  0  0  0  0  0  0  0  0  0  0  0
  191.0140  176.8870  147.4140 C   0  0  0  0  0  0  0  0  0  0  0  0
  191.7140  175.6580  147.2410 N   0  0  0  0  0  1  0  0  0  0  0  0
  191.4280  177.7050  148.2770 O   0  0  0  0  0  0  0  0  0  0  0  0
  190.6010  174.3190  137.8350 O   0  0  0  0  0  0  0  0  0  0  0  0
  191.3480  175.1480  137.2430 C   0  0  0  0  0  0  0  0  0  0  0  0
  190.9650  176.5220  137.1610 N   0  0  0  0  0  2  0  0  0  0  0  0
  193.6560  174.2240  137.4620 C   0  0  0  0  0  3  0  0  0  0  0  0
  192.8080  174.7570  135.2600 C   0  0  0  0  0  3  0  0  0  0  0  0
  195.0440  173.8610  135.5110 C   0  0  0  0  0  3  0  0  0  0  0  0
  192.6190  174.7030  136.6480 C   0  0  0  0  0  0  0  0  0  0  0  0
  194.0160  174.3370  134.6930 C   0  0  0  0  0  3  0  0  0  0  0  0
  194.8640  173.8050  136.8950 C   0  0  0  0  0  3  0  0  0  0  0  0
  1  2  2  0  0  0  0
  2  5  1  0  0  0  0
  2 16  1  0  0  0  0
  4  7  1  0  0  0  0
  5  6  2  0  0  0  0
  6  3  1  0  0  0  0
  7  9  1  0  0  0  0
  7  3  2  0  0  0  0
  8  4  2  0  0  0  0
  8  5  1  0  0  0  0
  9 11  1  0  0  0  0
 11 10  1  0  0  0  0
 12 17  1  0  0  0  0
 13 15  2  0  0  0  0
 14 13  1  0  0  0  0
 15 12  2  0  0  0  0
 16 14  1  0  0  0  0
 16 13  1  0  0  0  0
 17 24  1  0  0  0  0
 19 22  2  0  0  0  0
 20 23  1  0  0  0  0
 20 25  1  0  0  0  0
 21 24  1  0  0  0  0
 21 19  1  0  0  0  0
 22 23  1  0  0  0  0
 23 18  2  0  0  0  0
 24 20  2  0  0  0  0
 25 27  2  0  0  0  0
 26 25  1  0  0  0  0
 29 28  2  0  0  0  0
 30 29  1  0  0  0  0
 30  1  1  0  0  0  0
 32 34  1  0  0  0  0
 33 36  2  0  0  0  0
 34 29  1  0  0  0  0
 34 31  2  0  0  0  0
 35 32  2  0  0  0  0
 35 33  1  0  0  0  0
 36 31  1  0  0  0  0
M  END
>  <MODEL>
2

>  <REMARK>
 VINA RESULT:      -8.6      2.406      9.029
  Name = 
  9 active torsions:
  status: ('A' for Active; 'I' for Inactive)
    1  A    between atoms: C_3  and  C_33
    2  A    between atoms: C_7  and  C_12
    3  A    between atoms: C_13  and  N_30
    4  A    between atoms: C_14  and  O_15
    5  A    between atoms: O_15  and  C_22
    6  A    between atoms: C_16  and  C_31
    7  A    between atoms: C_19  and  C_24
    8  A    between atoms: C_31  and  N_32
    9  A    between atoms: C_33  and  C_34
                            x       y       z     vdW  Elec       q    Type
                         _______ _______ _______ _____ _____    ______ ____

>  <TORSDO>
F 9

$$$$
=
 OpenBabel10222419573D

 36 39  0  0  0  0  0  0  0  0999 V2000
  188.5820  175.7170  137.4710 C   0  0  0  0  0  3  0  0  0  0  0  0
  189.4840  176.3120  138.2550 C   0  0  0  0  0  0  0  0  0  0  0  0
  193.2610  176.4290  138.6310 C   0  0  0  0  0  3  0  0  0  0  0  0
  192.6680  174.5060  137.2930 C   0  0  0  0  0  3  0  0  0  0  0  0
  190.9210  175.9710  138.1400 C   0  0  0  0  0  0  0  0  0  0  0  0
  191.9090  176.7640  138.7480 C   0  0  0  0  0  3  0  0  0  0  0  0
  193.6500  175.3000  137.9050 C   0  0  0  0  0  0  0  0  0  0  0  0
  191.3170  174.8410  137.4110 C   0  0  0  0  0  3  0  0  0  0  0  0
  195.0080  174.9900  137.8100 O   0  0  0  0  0  0  0  0  0  0  0  0
  196.4630  174.6630  139.6870 C   0  0  0  0  0  1  0  0  0  0  0  0
  195.6260  173.9960  138.6160 C   0  0  0  0  0  2  0  0  0  0  0  0
  189.1850  177.4450  143.2130 C   0  0  0  0  0  3  0  0  0  0  0  0
  188.9000  177.7840  140.6480 C   0  0  0  0  0  0  0  0  0  0  0  0
  188.5030  178.5230  139.5450 C   0  0  0  0  0  2  0  0  0  0  0  0
  189.0410  177.6180  141.9310 C   0  0  0  0  0  0  0  0  0  0  0  0
  189.0620  177.2920  139.2090 N   0  0  0  0  0  0  0  0  0  0  0  0
  188.2240  176.5870  143.9600 C   0  0  0  0  0  2  0  0  0  0  0  0
  185.7460  179.2020  147.2650 O   0  0  0  0  0  0  0  0  0  0  0  0
  184.9610  178.6760  143.8480 C   0  0  0  0  0  3  0  0  0  0  0  0
  187.0310  177.9160  145.7100 C   0  0  0  0  0  0  0  0  0  0  0  0
  185.9240  177.5800  143.4840 C   0  0  0  0  0  2  0  0  0  0  0  0
  184.9250  179.2090  145.0640 C   0  0  0  0  0  3  0  0  0  0  0  0
  185.8900  178.7910  146.0840 C   0  0  0  0  0  0  0  0  0  0  0  0
  187.0720  177.4040  144.4550 C   0  0  0  0  0  0  0  0  0  0  0  0
  188.1150  177.6870  146.7040 C   0  0  0  0  0  0  0  0  0  0  0  0
  187.9540  176.7560  147.7710 N   0  0  0  0  0  1  0  0  0  0  0  0
  189.1810  178.3520  146.6370 O   0  0  0  0  0  0  0  0  0  0  0  0
  187.2920  177.6960  135.9200 O   0  0  0  0  0  0  0  0  0  0  0  0
  186.5920  177.0500  136.7500 C   0  0  0  0  0  0  0  0  0  0  0  0
  187.1950  176.0370  137.5580 N   0  0  0  0  0  2  0  0  0  0  0  0
  184.2430  176.9350  135.9150 C   0  0  0  0  0  3  0  0  0  0  0  0
  184.6900  178.0500  138.0140 C   0  0  0  0  0  3  0  0  0  0  0  0
  182.4230  177.9220  137.1710 C   0  0  0  0  0  3  0  0  0  0  0  0
  185.1560  177.3480  136.8950 C   0  0  0  0  0  0  0  0  0  0  0  0
  183.3270  178.3360  138.1520 C   0  0  0  0  0  3  0  0  0  0  0  0
  182.8800  177.2220  136.0520 C   0  0  0  0  0  3  0  0  0  0  0  0
  1 30  1  0  0  0  0
  1  2  2  0  0  0  0
  2 16  1  0  0  0  0
  3  6  1  0  0  0  0
  4  8  2  0  0  0  0
  4  7  1  0  0  0  0
  5  2  1  0  0  0  0
  5  6  2  0  0  0  0
  7  3  2  0  0  0  0
  8  5  1  0  0  0  0
  9  7  1  0  0  0  0
  9 11  1  0  0  0  0
 11 10  1  0  0  0  0
 12 17  1  0  0  0  0
 13 15  2  0  0  0  0
 14 13  1  0  0  0  0
 15 12  2  0  0  0  0
 16 14  1  0  0  0  0
 16 13  1  0  0  0  0
 17 24  1  0  0  0  0
 19 22  2  0  0  0  0
 20 23  1  0  0  0  0
 20 25  1  0  0  0  0
 21 19  1  0  0  0  0
 21 24  1  0  0  0  0
 22 23  1  0  0  0  0
 23 18  2  0  0  0  0
 24 20  2  0  0  0  0
 25 26  1  0  0  0  0
 27 25  2  0  0  0  0
 28 29  2  0  0  0  0
 29 34  1  0  0  0  0
 29 30  1  0  0  0  0
 31 36  2  0  0  0  0
 31 34  1  0  0  0  0
 32 35  1  0  0  0  0
 33 35  2  0  0  0  0
 34 32  2  0  0  0  0
 36 33  1  0  0  0  0
M  END
>  <MODEL>
3

>  <REMARK>
 VINA RESULT:      -8.3      2.683      6.343
  Name = 
  9 active torsions:
  status: ('A' for Active; 'I' for Inactive)
    1  A    between atoms: C_3  and  C_33
    2  A    between atoms: C_7  and  C_12
    3  A    between atoms: C_13  and  N_30
    4  A    between atoms: C_14  and  O_15
    5  A    between atoms: O_15  and  C_22
    6  A    between atoms: C_16  and  C_31
    7  A    between atoms: C_19  and  C_24
    8  A    between atoms: C_31  and  N_32
    9  A    between atoms: C_33  and  C_34
                            x       y       z     vdW  Elec       q    Type
                         _______ _______ _______ _____ _____    ______ ____

>  <TORSDO>
F 9

$$$$
=
 OpenBabel10222419573D

 36 39  0  0  0  0  0  0  0  0999 V2000
  190.6020  176.4830  140.6380 C   0  0  0  0  0  3  0  0  0  0  0  0
  189.4570  177.0880  140.9620 C   0  0  0  0  0  0  0  0  0  0  0  0
  189.7170  178.2260  144.5760 C   0  0  0  0  0  3  0  0  0  0  0  0
  187.5430  177.2310  144.2240 C   0  0  0  0  0  3  0  0  0  0  0  0
  189.1240  177.3560  142.3810 C   0  0  0  0  0  0  0  0  0  0  0  0
  190.0450  177.9790  143.2400 C   0  0  0  0  0  3  0  0  0  0  0  0
  188.4670  177.8550  145.0760 C   0  0  0  0  0  0  0  0  0  0  0  0
  187.8710  176.9840  142.8890 C   0  0  0  0  0  3  0  0  0  0  0  0
  188.1670  178.1190  146.4150 O   0  0  0  0  0  0  0  0  0  0  0  0
  188.2300  177.8830  148.8000 C   0  0  0  0  0  1  0  0  0  0  0  0
  188.9290  177.5850  147.4900 C   0  0  0  0  0  2  0  0  0  0  0  0
  184.8780  179.1030  139.9960 C   0  0  0  0  0  3  0  0  0  0  0  0
  187.2120  178.0770  139.4720 C   0  0  0  0  0  0  0  0  0  0  0  0
  188.1960  177.6520  138.5940 C   0  0  0  0  0  2  0  0  0  0  0  0
  186.0450  178.5900  139.7310 C   0  0  0  0  0  0  0  0  0  0  0  0
  188.5470  177.4870  139.9320 N   0  0  0  0  0  0  0  0  0  0  0  0
  183.7460  178.2150  140.3820 C   0  0  0  0  0  2  0  0  0  0  0  0
  180.4110  179.1480  143.8330 O   0  0  0  0  0  0  0  0  0  0  0  0
  183.9080  178.7110  144.2220 C   0  0  0  0  0  3  0  0  0  0  0  0
  181.9720  178.6750  142.0820 C   0  0  0  0  0  0  0  0  0  0  0  0
  184.3760  178.7490  142.7950 C   0  0  0  0  0  2  0  0  0  0  0  0
  182.6250  178.8190  144.5480 C   0  0  0  0  0  3  0  0  0  0  0  0
  181.6020  178.9030  143.5030 C   0  0  0  0  0  0  0  0  0  0  0  0
  183.2840  178.5350  141.7690 C   0  0  0  0  0  0  0  0  0  0  0  0
  180.8890  178.5460  141.0700 C   0  0  0  0  0  0  0  0  0  0  0  0
  180.4220  179.6780  140.3400 N   0  0  0  0  0  1  0  0  0  0  0  0
  180.3370  177.4310  140.8770 O   0  0  0  0  0  0  0  0  0  0  0  0
  193.0670  177.1820  139.4470 O   0  0  0  0  0  0  0  0  0  0  0  0
  192.2100  176.6000  138.7250 C   0  0  0  0  0  0  0  0  0  0  0  0
  190.9470  176.2230  139.2790 N   0  0  0  0  0  2  0  0  0  0  0  0
  191.4620  176.1690  136.3840 C   0  0  0  0  0  3  0  0  0  0  0  0
  193.8310  176.1990  136.8740 C   0  0  0  0  0  3  0  0  0  0  0  0
  193.0680  175.7810  134.6130 C   0  0  0  0  0  3  0  0  0  0  0  0
  192.5040  176.3200  137.3090 C   0  0  0  0  0  0  0  0  0  0  0  0
  194.1120  175.9300  135.5300 C   0  0  0  0  0  3  0  0  0  0  0  0
  191.7430  175.8990  135.0400 C   0  0  0  0  0  3  0  0  0  0  0  0
  1  2  2  0  0  0  0
  2  5  1  0  0  0  0
  3  7  1  0  0  0  0
  4  7  2  0  0  0  0
  5  8  2  0  0  0  0
  5  6  1  0  0  0  0
  6  3  2  0  0  0  0
  7  9  1  0  0  0  0
  8  4  1  0  0  0  0
  9 11  1  0  0  0  0
 11 10  1  0  0  0  0
 12 17  1  0  0  0  0
 13 15  2  0  0  0  0
 13 16  1  0  0  0  0
 14 13  1  0  0  0  0
 14 16  1  0  0  0  0
 15 12  2  0  0  0  0
 16  2  1  0  0  0  0
 17 24  1  0  0  0  0
 19 22  2  0  0  0  0
 20 23  1  0  0  0  0
 21 19  1  0  0  0  0
 23 18  2  0  0  0  0
 23 22  1  0  0  0  0
 24 20  2  0  0  0  0
 24 21  1  0  0  0  0
 25 20  1  0  0  0  0
 26 25  1  0  0  0  0
 27 25  2  0  0  0  0
 29 30  1  0  0  0  0
 29 28  2  0  0  0  0
 30  1  1  0  0  0  0
 31 34  1  0  0  0  0
 32 34  2  0  0  0  0
 33 36  1  0  0  0  0
 33 35  2  0  0  0  0
 34 29  1  0  0  0  0
 35 32  1  0  0  0  0
 36 31  2  0  0  0  0
M  END
>  <MODEL>
4

>  <REMARK>
 VINA RESULT:      -8.3      1.820      7.061
  Name = 
  9 active torsions:
  status: ('A' for Active; 'I' for Inactive)
    1  A    between atoms: C_3  and  C_33
    2  A    between atoms: C_7  and  C_12
    3  A    between atoms: C_13  and  N_30
    4  A    between atoms: C_14  and  O_15
    5  A    between atoms: O_15  and  C_22
    6  A    between atoms: C_16  and  C_31
    7  A    between atoms: C_19  and  C_24
    8  A    between atoms: C_31  and  N_32
    9  A    between atoms: C_33  and  C_34
                            x       y       z     vdW  Elec       q    Type
                         _______ _______ _______ _____ _____    ______ ____

>  <TORSDO>
F 9

$$$$
=
 OpenBabel10222419573D

 36 39  0  0  0  0  0  0  0  0999 V2000
  184.8340  179.2050  138.2740 C   0  0  0  0  0  3  0  0  0  0  0  0
  183.6860  179.1370  138.9510 C   0  0  0  0  0  0  0  0  0  0  0  0
  181.1430  181.8660  138.2370 C   0  0  0  0  0  3  0  0  0  0  0  0
  180.3640  179.7970  137.2600 C   0  0  0  0  0  3  0  0  0  0  0  0
  182.4800  179.8430  138.4580 C   0  0  0  0  0  0  0  0  0  0  0  0
  182.2850  181.2130  138.7080 C   0  0  0  0  0  3  0  0  0  0  0  0
  180.1770  181.1650  137.5100 C   0  0  0  0  0  0  0  0  0  0  0  0
  181.5060  179.1450  137.7310 C   0  0  0  0  0  3  0  0  0  0  0  0
  179.0480  181.8470  137.0500 O   0  0  0  0  0  0  0  0  0  0  0  0
  178.9310  184.1370  136.3500 C   0  0  0  0  0  1  0  0  0  0  0  0
  179.0770  182.6950  135.9100 C   0  0  0  0  0  2  0  0  0  0  0  0
  185.8070  178.3390  143.5140 C   0  0  0  0  0  3  0  0  0  0  0  0
  184.1270  178.0100  141.5530 C   0  0  0  0  0  0  0  0  0  0  0  0
  183.0290  177.4000  140.9670 C   0  0  0  0  0  2  0  0  0  0  0  0
  184.9650  178.1720  142.5350 C   0  0  0  0  0  0  0  0  0  0  0  0
  183.6150  178.3700  140.1570 N   0  0  0  0  0  0  0  0  0  0  0  0
  187.1650  177.7320  143.4390 C   0  0  0  0  0  2  0  0  0  0  0  0
  190.7450  176.9650  146.6790 O   0  0  0  0  0  0  0  0  0  0  0  0
  187.3600  177.8130  147.3080 C   0  0  0  0  0  3  0  0  0  0  0  0
  189.0580  177.3400  145.0230 C   0  0  0  0  0  0  0  0  0  0  0  0
  186.7440  177.6180  145.9510 C   0  0  0  0  0  2  0  0  0  0  0  0
  188.6550  177.6220  147.5300 C   0  0  0  0  0  3  0  0  0  0  0  0
  189.5530  177.2820  146.4230 C   0  0  0  0  0  0  0  0  0  0  0  0
  187.7390  177.5690  144.8100 C   0  0  0  0  0  0  0  0  0  0  0  0
  190.0380  177.2100  143.9100 C   0  0  0  0  0  0  0  0  0  0  0  0
  190.3510  175.9380  143.3470 N   0  0  0  0  0  1  0  0  0  0  0  0
  190.6390  178.2280  143.4780 O   0  0  0  0  0  0  0  0  0  0  0  0
  187.2680  179.0820  136.8450 O   0  0  0  0  0  0  0  0  0  0  0  0
  187.2120  178.4920  137.9600 C   0  0  0  0  0  0  0  0  0  0  0  0
  186.0050  178.5250  138.7250 N   0  0  0  0  0  2  0  0  0  0  0  0
  188.9060  178.0490  139.7380 C   0  0  0  0  0  3  0  0  0  0  0  0
  188.9920  176.7670  137.6880 C   0  0  0  0  0  3  0  0  0  0  0  0
  190.6210  176.3670  139.4340 C   0  0  0  0  0  3  0  0  0  0  0  0
  188.3840  177.7600  138.4690 C   0  0  0  0  0  0  0  0  0  0  0  0
  190.1070  176.0730  138.1690 C   0  0  0  0  0  3  0  0  0  0  0  0
  190.0220  177.3550  140.2180 C   0  0  0  0  0  3  0  0  0  0  0  0
  1 30  1  0  0  0  0
  1  2  2  0  0  0  0
  2 16  1  0  0  0  0
  3  6  1  0  0  0  0
  4  7  1  0  0  0  0
  4  8  2  0  0  0  0
  5  6  2  0  0  0  0
  5  2  1  0  0  0  0
  7  3  2  0  0  0  0
  8  5  1  0  0  0  0
  9  7  1  0  0  0  0
 11 10  1  0  0  0  0
 11  9  1  0  0  0  0
 13 15  2  0  0  0  0
 14 13  1  0  0  0  0
 15 12  2  0  0  0  0
 16 14  1  0  0  0  0
 16 13  1  0  0  0  0
 17 12  1  0  0  0  0
 17 24  1  0  0  0  0
 19 22  2  0  0  0  0
 20 23  1  0  0  0  0
 21 19  1  0  0  0  0
 23 18  2  0  0  0  0
 23 22  1  0  0  0  0
 24 20  2  0  0  0  0
 24 21  1  0  0  0  0
 25 20  1  0  0  0  0
 26 25  1  0  0  0  0
 27 25  2  0  0  0  0
 28 29  2  0  0  0  0
 29 34  1  0  0  0  0
 29 30  1  0  0  0  0
 31 36  1  0  0  0  0
 32 35  2  0  0  0  0
 32 34  1  0  0  0  0
 33 36  2  0  0  0  0
 34 31  2  0  0  0  0
 35 33  1  0  0  0  0
M  END
>  <MODEL>
5

>  <REMARK>
 VINA RESULT:      -8.3      2.775      9.534
  Name = 
  9 active torsions:
  status: ('A' for Active; 'I' for Inactive)
    1  A    between atoms: C_3  and  C_33
    2  A    between atoms: C_7  and  C_12
    3  A    between atoms: C_13  and  N_30
    4  A    between atoms: C_14  and  O_15
    5  A    between atoms: O_15  and  C_22
    6  A    between atoms: C_16  and  C_31
    7  A    between atoms: C_19  and  C_24
    8  A    between atoms: C_31  and  N_32
    9  A    between atoms: C_33  and  C_34
                            x       y       z     vdW  Elec       q    Type
                         _______ _______ _______ _____ _____    ______ ____

>  <TORSDO>
F 9

$$$$
=
 OpenBabel10222419573D

 36 39  0  0  0  0  0  0  0  0999 V2000
  188.7570  175.8470  137.0950 C   0  0  0  0  0  3  0  0  0  0  0  0
  189.7140  176.5110  137.7470 C   0  0  0  0  0  0  0  0  0  0  0  0
  193.4730  176.1640  138.1620 C   0  0  0  0  0  3  0  0  0  0  0  0
  192.8760  175.5470  135.9030 C   0  0  0  0  0  3  0  0  0  0  0  0
  191.1430  176.2420  137.4610 C   0  0  0  0  0  0  0  0  0  0  0  0
  192.1290  176.4210  138.4470 C   0  0  0  0  0  3  0  0  0  0  0  0
  193.8560  175.7250  136.8930 C   0  0  0  0  0  0  0  0  0  0  0  0
  191.5330  175.8040  136.1880 C   0  0  0  0  0  3  0  0  0  0  0  0
  195.2060  175.4730  136.6410 O   0  0  0  0  0  0  0  0  0  0  0  0
  195.4030  173.1220  137.0680 C   0  0  0  0  0  1  0  0  0  0  0  0
  195.9520  174.5030  137.3630 C   0  0  0  0  0  2  0  0  0  0  0  0
  188.7630  177.3280  142.6850 C   0  0  0  0  0  3  0  0  0  0  0  0
  189.0490  177.9070  140.1640 C   0  0  0  0  0  0  0  0  0  0  0  0
  189.0460  178.7980  139.1020 C   0  0  0  0  0  2  0  0  0  0  0  0
  188.9050  177.6210  141.4250 C   0  0  0  0  0  0  0  0  0  0  0  0
  189.3590  177.4940  138.7240 N   0  0  0  0  0  0  0  0  0  0  0  0
  187.5080  176.6840  143.1620 C   0  0  0  0  0  2  0  0  0  0  0  0
  184.2470  179.9240  144.8260 O   0  0  0  0  0  0  0  0  0  0  0  0
  186.6040  178.0330  146.6800 C   0  0  0  0  0  3  0  0  0  0  0  0
  185.8000  178.3410  143.9260 C   0  0  0  0  0  0  0  0  0  0  0  0
  187.4690  177.4740  145.5850 C   0  0  0  0  0  2  0  0  0  0  0  0
  185.5530  178.8050  146.4260 C   0  0  0  0  0  3  0  0  0  0  0  0
  185.1540  179.0780  145.0430 C   0  0  0  0  0  0  0  0  0  0  0  0
  186.8510  177.5320  144.2050 C   0  0  0  0  0  0  0  0  0  0  0  0
  185.2300  178.4700  142.5570 C   0  0  0  0  0  0  0  0  0  0  0  0
  185.7610  179.4040  141.6210 N   0  0  0  0  0  1  0  0  0  0  0  0
  184.2320  177.7780  142.2230 O   0  0  0  0  0  0  0  0  0  0  0  0
  187.2480  177.9000  135.8750 O   0  0  0  0  0  0  0  0  0  0  0  0
  186.6590  177.1510  136.7020 C   0  0  0  0  0  0  0  0  0  0  0  0
  187.3750  176.0960  137.3470 N   0  0  0  0  0  2  0  0  0  0  0  0
  184.8600  177.9870  138.2160 C   0  0  0  0  0  3  0  0  0  0  0  0
  184.2430  176.9620  136.1140 C   0  0  0  0  0  3  0  0  0  0  0  0
  182.5240  177.7820  137.6100 C   0  0  0  0  0  3  0  0  0  0  0  0
  185.2360  177.3700  137.0150 C   0  0  0  0  0  0  0  0  0  0  0  0
  182.8910  177.1670  136.4110 C   0  0  0  0  0  3  0  0  0  0  0  0
  183.5080  178.1910  138.5130 C   0  0  0  0  0  3  0  0  0  0  0  0
  1 30  1  0  0  0  0
  1  2  2  0  0  0  0
  2 16  1  0  0  0  0
  3  6  1  0  0  0  0
  4  8  2  0  0  0  0
  4  7  1  0  0  0  0
  5  2  1  0  0  0  0
  5  6  2  0  0  0  0
  7  3  2  0  0  0  0
  8  5  1  0  0  0  0
  9  7  1  0  0  0  0
  9 11  1  0  0  0  0
 10 11  1  0  0  0  0
 12 17  1  0  0  0  0
 13 15  2  0  0  0  0
 14 13  1  0  0  0  0
 15 12  2  0  0  0  0
 16 14  1  0  0  0  0
 16 13  1  0  0  0  0
 17 24  1  0  0  0  0
 18 23  2  0  0  0  0
 20 24  2  0  0  0  0
 20 23  1  0  0  0  0
 21 19  1  0  0  0  0
 22 19  2  0  0  0  0
 23 22  1  0  0  0  0
 24 21  1  0  0  0  0
 25 20  1  0  0  0  0
 26 25  1  0  0  0  0
 27 25  2  0  0  0  0
 28 29  2  0  0  0  0
 29 34  1  0  0  0  0
 29 30  1  0  0  0  0
 31 36  1  0  0  0  0
 32 35  2  0  0  0  0
 32 34  1  0  0  0  0
 33 36  2  0  0  0  0
 34 31  2  0  0  0  0
 35 33  1  0  0  0  0
M  END
>  <MODEL>
6

>  <REMARK>
 VINA RESULT:      -8.2      2.537      5.649
  Name = 
  9 active torsions:
  status: ('A' for Active; 'I' for Inactive)
    1  A    between atoms: C_3  and  C_33
    2  A    between atoms: C_7  and  C_12
    3  A    between atoms: C_13  and  N_30
    4  A    between atoms: C_14  and  O_15
    5  A    between atoms: O_15  and  C_22
    6  A    between atoms: C_16  and  C_31
    7  A    between atoms: C_19  and  C_24
    8  A    between atoms: C_31  and  N_32
    9  A    between atoms: C_33  and  C_34
                            x       y       z     vdW  Elec       q    Type
                         _______ _______ _______ _____ _____    ______ ____

>  <TORSDO>
F 9

$$$$
=
 OpenBabel10222419573D

 36 39  0  0  0  0  0  0  0  0999 V2000
  184.7430  178.2130  143.6980 C   0  0  0  0  0  3  0  0  0  0  0  0
  186.0310  178.1670  143.3500 C   0  0  0  0  0  0  0  0  0  0  0  0
  189.3030  177.0310  144.9060 C   0  0  0  0  0  3  0  0  0  0  0  0
  187.7590  177.6140  146.6710 C   0  0  0  0  0  3  0  0  0  0  0  0
  187.0680  177.8180  144.3480 C   0  0  0  0  0  0  0  0  0  0  0  0
  188.3350  177.3580  143.9520 C   0  0  0  0  0  3  0  0  0  0  0  0
  189.0240  177.1570  146.2690 C   0  0  0  0  0  0  0  0  0  0  0  0
  186.7920  177.9400  145.7170 C   0  0  0  0  0  3  0  0  0  0  0  0
  190.0140  176.8270  147.1970 O   0  0  0  0  0  0  0  0  0  0  0  0
  192.0510  175.6290  147.6010 C   0  0  0  0  0  1  0  0  0  0  0  0
  191.3930  176.7750  146.8600 C   0  0  0  0  0  2  0  0  0  0  0  0
  184.3720  178.6230  138.5530 C   0  0  0  0  0  3  0  0  0  0  0  0
  186.0810  178.6280  140.5170 C   0  0  0  0  0  0  0  0  0  0  0  0
  187.3570  178.7910  141.0330 C   0  0  0  0  0  2  0  0  0  0  0  0
  185.2290  178.6270  139.5330 C   0  0  0  0  0  0  0  0  0  0  0  0
  186.4130  178.4520  142.0000 N   0  0  0  0  0  0  0  0  0  0  0  0
  183.9360  177.3330  137.9520 C   0  0  0  0  0  2  0  0  0  0  0  0
  179.0790  177.3000  137.3970 O   0  0  0  0  0  0  0  0  0  0  0  0
  181.0090  175.7350  139.9260 C   0  0  0  0  0  3  0  0  0  0  0  0
  181.4640  177.3550  137.5810 C   0  0  0  0  0  0  0  0  0  0  0  0
  182.3590  176.3570  139.7010 C   0  0  0  0  0  2  0  0  0  0  0  0
  179.9610  176.0290  139.1650 C   0  0  0  0  0  3  0  0  0  0  0  0
  180.1100  176.9250  138.0150 C   0  0  0  0  0  0  0  0  0  0  0  0
  182.5290  177.0210  138.3520 C   0  0  0  0  0  0  0  0  0  0  0  0
  181.6070  178.0790  136.2880 C   0  0  0  0  0  0  0  0  0  0  0  0
  181.8740  177.3790  135.0760 N   0  0  0  0  0  1  0  0  0  0  0  0
  181.5360  179.3350  136.2590 O   0  0  0  0  0  0  0  0  0  0  0  0
  182.0230  178.6290  144.3420 O   0  0  0  0  0  0  0  0  0  0  0  0
  182.3630  178.7370  143.1310 C   0  0  0  0  0  0  0  0  0  0  0  0
  183.7270  178.5380  142.7510 N   0  0  0  0  0  2  0  0  0  0  0  0
  181.7210  179.7330  140.9350 C   0  0  0  0  0  3  0  0  0  0  0  0
  180.0160  178.6830  142.2910 C   0  0  0  0  0  3  0  0  0  0  0  0
  179.4290  179.6630  140.1560 C   0  0  0  0  0  3  0  0  0  0  0  0
  181.3540  179.0540  142.1050 C   0  0  0  0  0  0  0  0  0  0  0  0
  179.0560  178.9860  141.3200 C   0  0  0  0  0  3  0  0  0  0  0  0
  180.7610  180.0380  139.9640 C   0  0  0  0  0  3  0  0  0  0  0  0
  2  1  2  0  0  0  0
  2  5  1  0  0  0  0
  3  7  1  0  0  0  0
  5  8  2  0  0  0  0
  6  5  1  0  0  0  0
  6  3  2  0  0  0  0
  7  4  2  0  0  0  0
  7  9  1  0  0  0  0
  8  4  1  0  0  0  0
 11  9  1  0  0  0  0
 11 10  1  0  0  0  0
 12 15  2  0  0  0  0
 13 14  1  0  0  0  0
 13 16  1  0  0  0  0
 14 16  1  0  0  0  0
 15 13  2  0  0  0  0
 16  2  1  0  0  0  0
 17 24  1  0  0  0  0
 17 12  1  0  0  0  0
 18 23  2  0  0  0  0
 20 23  1  0  0  0  0
 20 24  2  0  0  0  0
 21 19  1  0  0  0  0
 22 19  2  0  0  0  0
 23 22  1  0  0  0  0
 24 21  1  0  0  0  0
 25 20  1  0  0  0  0
 26 25  1  0  0  0  0
 27 25  2  0  0  0  0
 29 28  2  0  0  0  0
 30 29  1  0  0  0  0
 30  1  1  0  0  0  0
 31 34  1  0  0  0  0
 33 35  2  0  0  0  0
 34 32  2  0  0  0  0
 34 29  1  0  0  0  0
 35 32  1  0  0  0  0
 36 33  1  0  0  0  0
 36 31  2  0  0  0  0
M  END
>  <MODEL>
7

>  <REMARK>
 VINA RESULT:      -8.2      4.140      6.746
  Name = 
  9 active torsions:
  status: ('A' for Active; 'I' for Inactive)
    1  A    between atoms: C_3  and  C_33
    2  A    between atoms: C_7  and  C_12
    3  A    between atoms: C_13  and  N_30
    4  A    between atoms: C_14  and  O_15
    5  A    between atoms: O_15  and  C_22
    6  A    between atoms: C_16  and  C_31
    7  A    between atoms: C_19  and  C_24
    8  A    between atoms: C_31  and  N_32
    9  A    between atoms: C_33  and  C_34
                            x       y       z     vdW  Elec       q    Type
                         _______ _______ _______ _____ _____    ______ ____

>  <TORSDO>
F 9

$$$$
=
 OpenBabel10222419573D

 36 39  0  0  0  0  0  0  0  0999 V2000
  190.8060  176.5740  140.9070 C   0  0  0  0  0  3  0  0  0  0  0  0
  190.4520  176.8820  139.6580 C   0  0  0  0  0  0  0  0  0  0  0  0
  191.6040  175.4870  136.3190 C   0  0  0  0  0  3  0  0  0  0  0  0
  193.5110  176.4140  137.4790 C   0  0  0  0  0  3  0  0  0  0  0  0
  191.3130  176.4950  138.5160 C   0  0  0  0  0  0  0  0  0  0  0  0
  190.7790  175.8460  137.3890 C   0  0  0  0  0  3  0  0  0  0  0  0
  192.9720  175.7680  136.3560 C   0  0  0  0  0  0  0  0  0  0  0  0
  192.6860  176.7730  138.5480 C   0  0  0  0  0  3  0  0  0  0  0  0
  193.7690  175.4000  135.2690 O   0  0  0  0  0  0  0  0  0  0  0  0
  195.1390  173.4810  134.8360 C   0  0  0  0  0  1  0  0  0  0  0  0
  195.0800  174.8750  135.4240 C   0  0  0  0  0  2  0  0  0  0  0  0
  186.3220  178.9270  141.8310 C   0  0  0  0  0  3  0  0  0  0  0  0
  187.9400  178.2470  139.9090 C   0  0  0  0  0  0  0  0  0  0  0  0
  188.3080  178.2030  138.5740 C   0  0  0  0  0  2  0  0  0  0  0  0
  187.1290  178.5890  140.8680 C   0  0  0  0  0  0  0  0  0  0  0  0
  189.2290  177.5860  139.4180 N   0  0  0  0  0  0  0  0  0  0  0  0
  185.3980  177.9160  142.4170 C   0  0  0  0  0  2  0  0  0  0  0  0
  181.0120  179.9010  143.2690 O   0  0  0  0  0  0  0  0  0  0  0  0
  182.1790  178.3470  140.3030 C   0  0  0  0  0  3  0  0  0  0  0  0
  183.1900  178.9690  142.9340 C   0  0  0  0  0  0  0  0  0  0  0  0
  183.4540  177.7110  140.7800 C   0  0  0  0  0  2  0  0  0  0  0  0
  181.4070  179.0700  141.1070 C   0  0  0  0  0  3  0  0  0  0  0  0
  181.8220  179.3380  142.4860 C   0  0  0  0  0  0  0  0  0  0  0  0
  183.9780  178.2570  142.0900 C   0  0  0  0  0  0  0  0  0  0  0  0
  183.6640  179.4460  144.2610 C   0  0  0  0  0  0  0  0  0  0  0  0
  183.3300  178.7500  145.4590 N   0  0  0  0  0  1  0  0  0  0  0  0
  184.3380  180.5070  144.3450 O   0  0  0  0  0  0  0  0  0  0  0  0
  191.4690  176.0730  143.6080 O   0  0  0  0  0  0  0  0  0  0  0  0
  190.3710  176.6500  143.3700 C   0  0  0  0  0  0  0  0  0  0  0  0
  189.9880  176.9280  142.0220 N   0  0  0  0  0  2  0  0  0  0  0  0
  190.0030  177.3340  145.7420 C   0  0  0  0  0  3  0  0  0  0  0  0
  188.0900  177.0720  144.2850 C   0  0  0  0  0  3  0  0  0  0  0  0
  187.7720  177.7320  146.5930 C   0  0  0  0  0  3  0  0  0  0  0  0
  189.4770  177.0240  144.4800 C   0  0  0  0  0  0  0  0  0  0  0  0
  187.2400  177.4250  145.3390 C   0  0  0  0  0  3  0  0  0  0  0  0
  189.1530  177.6860  146.7950 C   0  0  0  0  0  3  0  0  0  0  0  0
  1 30  1  0  0  0  0
  2  1  2  0  0  0  0
  3  7  2  0  0  0  0
  3  6  1  0  0  0  0
  4  8  2  0  0  0  0
  5  8  1  0  0  0  0
  5  2  1  0  0  0  0
  6  5  2  0  0  0  0
  7  4  1  0  0  0  0
  9 11  1  0  0  0  0
  9  7  1  0  0  0  0
 10 11  1  0  0  0  0
 12 17  1  0  0  0  0
 13 15  2  0  0  0  0
 14 16  1  0  0  0  0
 14 13  1  0  0  0  0
 15 12  2  0  0  0  0
 16  2  1  0  0  0  0
 16 13  1  0  0  0  0
 19 21  1  0  0  0  0
 19 22  2  0  0  0  0
 20 25  1  0  0  0  0
 21 24  1  0  0  0  0
 22 23  1  0  0  0  0
 23 20  1  0  0  0  0
 23 18  2  0  0  0  0
 24 17  1  0  0  0  0
 24 20  2  0  0  0  0
 25 27  2  0  0  0  0
 25 26  1  0  0  0  0
 29 28  2  0  0  0  0
 29 34  1  0  0  0  0
 30 29  1  0  0  0  0
 31 36  1  0  0  0  0
 32 34  1  0  0  0  0
 32 35  2  0  0  0  0
 33 36  2  0  0  0  0
 34 31  2  0  0  0  0
 35 33  1  0  0  0  0
M  END
>  <MODEL>
8

>  <REMARK>
 VINA RESULT:      -8.1      1.940      2.451
  Name = 
  9 active torsions:
  status: ('A' for Active; 'I' for Inactive)
    1  A    between atoms: C_3  and  C_33
    2  A    between atoms: C_7  and  C_12
    3  A    between atoms: C_13  and  N_30
    4  A    between atoms: C_14  and  O_15
    5  A    between atoms: O_15  and  C_22
    6  A    between atoms: C_16  and  C_31
    7  A    between atoms: C_19  and  C_24
    8  A    between atoms: C_31  and  N_32
    9  A    between atoms: C_33  and  C_34
                            x       y       z     vdW  Elec       q    Type
                         _______ _______ _______ _____ _____    ______ ____

>  <TORSDO>
F 9

$$$$
=
 OpenBabel10222419573D

 36 39  0  0  0  0  0  0  0  0999 V2000
  185.7350  177.9060  144.0320 C   0  0  0  0  0  3  0  0  0  0  0  0
  185.3350  178.2800  142.8150 C   0  0  0  0  0  0  0  0  0  0  0  0
  182.0050  178.6620  141.0290 C   0  0  0  0  0  3  0  0  0  0  0  0
  181.7260  179.2880  143.3460 C   0  0  0  0  0  3  0  0  0  0  0  0
  183.9050  178.5630  142.5480 C   0  0  0  0  0  0  0  0  0  0  0  0
  183.3550  178.3900  141.2660 C   0  0  0  0  0  3  0  0  0  0  0  0
  181.1820  179.1110  142.0650 C   0  0  0  0  0  0  0  0  0  0  0  0
  183.0750  179.0160  143.5830 C   0  0  0  0  0  3  0  0  0  0  0  0
  179.8360  179.3700  141.7970 O   0  0  0  0  0  0  0  0  0  0  0  0
  179.6630  181.2150  140.2760 C   0  0  0  0  0  1  0  0  0  0  0  0
  179.3230  180.6880  141.6550 C   0  0  0  0  0  2  0  0  0  0  0  0
  186.0410  178.0910  137.7730 C   0  0  0  0  0  3  0  0  0  0  0  0
  186.6730  178.3980  140.2790 C   0  0  0  0  0  0  0  0  0  0  0  0
  187.5800  178.6700  141.2910 C   0  0  0  0  0  2  0  0  0  0  0  0
  186.3600  178.2450  139.0250 C   0  0  0  0  0  0  0  0  0  0  0  0
  186.2930  178.4140  141.7610 N   0  0  0  0  0  0  0  0  0  0  0  0
  185.8980  176.7220  137.2050 C   0  0  0  0  0  2  0  0  0  0  0  0
  182.2770  173.4360  137.2060 O   0  0  0  0  0  0  0  0  0  0  0  0
  182.0700  176.9310  137.7690 C   0  0  0  0  0  3  0  0  0  0  0  0
  184.1120  174.9720  137.2040 C   0  0  0  0  0  0  0  0  0  0  0  0
  183.4400  177.3840  137.3510 C   0  0  0  0  0  2  0  0  0  0  0  0
  181.7100  175.6530  137.7400 C   0  0  0  0  0  3  0  0  0  0  0  0
  182.6780  174.6200  137.3650 C   0  0  0  0  0  0  0  0  0  0  0  0
  184.4710  176.2780  137.2670 C   0  0  0  0  0  0  0  0  0  0  0  0
  185.1070  173.8760  137.0420 C   0  0  0  0  0  0  0  0  0  0  0  0
  185.8200  173.7010  135.8210 N   0  0  0  0  0  1  0  0  0  0  0  0
  185.2990  173.0580  137.9790 O   0  0  0  0  0  0  0  0  0  0  0  0
  186.7930  177.5110  146.6220 O   0  0  0  0  0  0  0  0  0  0  0  0
  187.5910  177.4470  145.6460 C   0  0  0  0  0  0  0  0  0  0  0  0
  187.1070  177.6370  144.3150 N   0  0  0  0  0  2  0  0  0  0  0  0
  189.9170  177.1290  144.8000 C   0  0  0  0  0  3  0  0  0  0  0  0
  189.5050  176.9970  147.1790 C   0  0  0  0  0  3  0  0  0  0  0  0
  191.7490  176.6900  146.3210 C   0  0  0  0  0  3  0  0  0  0  0  0
  189.0220  177.1880  145.8780 C   0  0  0  0  0  0  0  0  0  0  0  0
  190.8630  176.7480  147.4000 C   0  0  0  0  0  3  0  0  0  0  0  0
  191.2750  176.8800  145.0210 C   0  0  0  0  0  3  0  0  0  0  0  0
  1 30  1  0  0  0  0
  2  1  2  0  0  0  0
  3  6  2  0  0  0  0
  3  7  1  0  0  0  0
  4  8  1  0  0  0  0
  5  2  1  0  0  0  0
  5  8  2  0  0  0  0
  6  5  1  0  0  0  0
  7  4  2  0  0  0  0
  9  7  1  0  0  0  0
 10 11  1  0  0  0  0
 11  9  1  0  0  0  0
 12 15  2  0  0  0  0
 13 14  1  0  0  0  0
 13 16  1  0  0  0  0
 14 16  1  0  0  0  0
 15 13  2  0  0  0  0
 16  2  1  0  0  0  0
 17 24  1  0  0  0  0
 17 12  1  0  0  0  0
 18 23  2  0  0  0  0
 20 24  2  0  0  0  0
 20 23  1  0  0  0  0
 21 19  1  0  0  0  0
 22 19  2  0  0  0  0
 23 22  1  0  0  0  0
 24 21  1  0  0  0  0
 25 20  1  0  0  0  0
 25 27  2  0  0  0  0
 26 25  1  0  0  0  0
 29 34  1  0  0  0  0
 29 28  2  0  0  0  0
 30 29  1  0  0  0  0
 31 36  2  0  0  0  0
 31 34  1  0  0  0  0
 32 35  1  0  0  0  0
 33 35  2  0  0  0  0
 34 32  2  0  0  0  0
 36 33  1  0  0  0  0
M  END
>  <MODEL>
9

>  <REMARK>
 VINA RESULT:      -8.1      3.882      7.691
  Name = 
  9 active torsions:
  status: ('A' for Active; 'I' for Inactive)
    1  A    between atoms: C_3  and  C_33
    2  A    between atoms: C_7  and  C_12
    3  A    between atoms: C_13  and  N_30
    4  A    between atoms: C_14  and  O_15
    5  A    between atoms: O_15  and  C_22
    6  A    between atoms: C_16  and  C_31
    7  A    between atoms: C_19  and  C_24
    8  A    between atoms: C_31  and  N_32
    9  A    between atoms: C_33  and  C_34
                            x       y       z     vdW  Elec       q    Type
                         _______ _______ _______ _____ _____    ______ ____

>  <TORSDO>
F 9

$$$$
