=
 OpenBabel10222415433D

 44 50  0  0  1  0  0  0  0  0999 V2000
  185.4170  178.2480  142.0150 C   0  0  0  0  0  0  0  0  0  0  0  0
  189.1460  178.5320  138.9900 C   0  0  0  0  0  2  0  0  0  0  0  0
  187.4130  177.5980  137.5220 C   0  0  0  0  0  3  0  0  0  0  0  0
  188.6250  178.2320  143.3310 C   0  0  2  0  0  3  0  0  0  0  0  0
  186.9310  177.5440  138.9580 C   0  0  0  0  0  3  0  0  0  0  0  0
  186.7780  178.0290  142.0400 C   0  0  0  0  0  0  0  0  0  0  0  0
  187.9610  178.1830  139.7510 N   0  0  0  0  0  0  0  0  0  0  0  0
  187.1990  177.9370  143.2800 N   0  0  0  0  0  0  0  0  0  0  0  0
  189.0040  178.3310  141.9120 N   0  0  0  0  0  0  0  0  0  0  0  0
  188.8030  178.2410  137.5390 C   0  0  2  0  0  3  0  0  0  0  0  0
  185.0150  178.2740  143.3560 C   0  0  0  0  0  3  0  0  0  0  0  0
  186.1720  178.1220  144.1270 C   0  0  0  0  0  3  0  0  0  0  0  0
  187.9290  178.2400  141.1810 C   0  0  0  0  0  0  0  0  0  0  0  0
  189.8640  177.3870  136.8970 C   0  0  0  0  0  0  0  0  0  0  0  0
  191.8750  175.7680  135.7650 C   0  0  0  0  0  0  0  0  0  0  0  0
  191.9060  176.0780  137.1340 C   0  0  0  0  0  0  0  0  0  0  0  0
  190.9070  176.8860  137.6920 C   0  0  0  0  0  3  0  0  0  0  0  0
  189.8150  177.0520  135.5290 C   0  0  0  0  0  3  0  0  0  0  0  0
  190.8180  176.2560  134.9660 C   0  0  0  0  0  3  0  0  0  0  0  0
  192.9250  175.5880  137.9410 O   0  0  0  0  0  1  0  0  0  0  0  0
  192.8930  174.9710  135.2230 O   0  0  0  0  0  0  0  0  0  0  0  0
  194.0480  175.5210  134.5940 C   0  0  0  0  0  1  0  0  0  0  0  0
  184.5810  178.6770  140.8860 C   0  0  0  0  0  0  0  0  0  0  0  0
  182.6020  178.4450  139.5280 C   0  0  0  0  0  0  0  0  0  0  0  0
  184.1750  180.1830  139.1260 N   0  0  0  0  0  0  0  0  0  0  0  0
  183.3910  178.0060  140.5950 C   0  0  0  0  0  3  0  0  0  0  0  0
  183.0210  179.5500  138.7900 C   0  0  0  0  0  3  0  0  0  0  0  0
  184.9300  179.7620  140.1430 N   0  0  0  0  0  0  0  0  0  0  0  0
  181.4000  177.7640  139.1540 N   0  0  0  0  0  2  0  0  0  0  0  0
  180.0760  178.3430  139.3590 C   0  0  0  0  0  2  0  0  0  0  0  0
  179.3470  179.4620  143.4100 C   0  0  0  0  0  3  0  0  0  0  0  0
  179.3970  178.1520  143.0440 N   0  0  0  0  0  0  0  0  0  0  0  0
  179.5510  180.4660  142.4600 C   0  0  0  0  0  3  0  0  0  0  0  0
  179.9020  178.7520  140.7840 C   0  0  0  0  0  0  0  0  0  0  0  0
  179.8210  180.1050  141.1380 C   0  0  0  0  0  3  0  0  0  0  0  0
  179.6600  177.7810  141.7610 C   0  0  0  0  0  3  0  0  0  0  0  0
  189.4320  177.1700  144.0340 C   0  0  0  0  0  0  0  0  0  0  0  0
  189.8270  176.0910  143.4070 C   0  0  0  0  0  0  0  0  0  0  0  0
  190.2050  175.0660  142.8190 O   0  0  0  0  0  0  0  0  0  0  0  0
  191.0220  176.7700  146.3200 S   0  0  0  0  0  0  0  0  0  0  0  0
  188.7290  177.7970  146.3540 N   0  0  0  0  0  0  0  0  0  0  0  0
  190.4390  177.2270  147.8420 C   0  0  0  0  0  3  0  0  0  0  0  0
  189.6360  177.2640  145.4940 C   0  0  0  0  0  0  0  0  0  0  0  0
  189.1650  177.7820  147.6460 C   0  0  0  0  0  3  0  0  0  0  0  0
  1  6  2  0  0  0  0
  1 11  1  0  0  0  0
  2  7  1  0  0  0  0
  3 10  1  0  0  0  0
  3  5  2  0  0  0  0
  4 37  1  6  0  0  0
  5  7  1  0  0  0  0
  6  8  1  0  0  0  0
  7 13  1  0  0  0  0
  8  4  1  0  0  0  0
  8 12  1  0  0  0  0
  9  4  1  0  0  0  0
 10 14  1  1  0  0  0
 10  2  1  0  0  0  0
 11 12  2  0  0  0  0
 13  9  2  0  0  0  0
 13  6  1  0  0  0  0
 14 17  1  0  0  0  0
 15 16  1  0  0  0  0
 16 17  2  0  0  0  0
 16 20  1  0  0  0  0
 18 14  2  0  0  0  0
 19 18  1  0  0  0  0
 19 15  2  0  0  0  0
 21 15  1  0  0  0  0
 22 21  1  0  0  0  0
 23  1  1  0  0  0  0
 24 26  2  0  0  0  0
 25 28  1  0  0  0  0
 26 23  1  0  0  0  0
 27 25  2  0  0  0  0
 27 24  1  0  0  0  0
 28 23  2  0  0  0  0
 29 30  1  0  0  0  0
 29 24  1  0  0  0  0
 30 34  1  0  0  0  0
 32 31  1  0  0  0  0
 33 31  2  0  0  0  0
 34 35  2  0  0  0  0
 34 36  1  0  0  0  0
 35 33  1  0  0  0  0
 36 32  2  0  0  0  0
 37 43  1  0  0  0  0
 38 37  2  0  0  0  0
 39 38  2  0  0  0  0
 40 42  1  0  0  0  0
 41 44  1  0  0  0  0
 43 40  1  0  0  0  0
 43 41  2  0  0  0  0
 44 42  2  0  0  0  0
M  END
>  <MODEL>
1

>  <REMARK>
 VINA RESULT:      -9.3      0.000      0.000
  Name = 
  8 active torsions:
  status: ('A' for Active; 'I' for Inactive)
    1  A    between atoms: C_1  and  C_35
    2  A    between atoms: O_2  and  C_13
    3  A    between atoms: N_3  and  C_9
    4  A    between atoms: N_3  and  C_40
    5  A    between atoms: C_4  and  C_7
    6  A    between atoms: C_15  and  C_17
    7  A    between atoms: C_17  and  C_36
    8  A    between atoms: C_30  and  C_40
                            x       y       z     vdW  Elec       q    Type
                         _______ _______ _______ _____ _____    ______ ____

>  <TORSDO>
F 8

$$$$
=
 OpenBabel10222415433D

 44 50  0  0  1  0  0  0  0  0999 V2000
  190.2440  177.0680  140.8220 C   0  0  0  0  0  0  0  0  0  0  0  0
  186.0570  179.3290  141.5240 C   0  0  0  0  0  2  0  0  0  0  0  0
  186.4280  178.3190  143.7310 C   0  0  0  0  0  3  0  0  0  0  0  0
  188.2340  177.7280  138.0740 C   0  0  2  0  0  3  0  0  0  0  0  0
  187.4150  177.7320  142.7430 C   0  0  0  0  0  3  0  0  0  0  0  0
  189.0730  177.2980  140.1310 C   0  0  0  0  0  0  0  0  0  0  0  0
  187.1940  178.4290  141.4930 N   0  0  0  0  0  0  0  0  0  0  0  0
  189.2350  177.0170  138.8590 N   0  0  0  0  0  0  0  0  0  0  0  0
  187.3550  178.3180  139.0960 N   0  0  0  0  0  0  0  0  0  0  0  0
  185.5840  179.3440  142.9680 C   0  0  2  0  0  3  0  0  0  0  0  0
  191.1590  176.6050  139.8680 C   0  0  0  0  0  3  0  0  0  0  0  0
  190.5020  176.6300  138.6330 C   0  0  0  0  0  3  0  0  0  0  0  0
  187.8640  178.0880  140.2740 C   0  0  0  0  0  0  0  0  0  0  0  0
  184.1040  179.0790  143.0500 C   0  0  0  0  0  0  0  0  0  0  0  0
  181.3340  178.5590  143.1330 C   0  0  0  0  0  0  0  0  0  0  0  0
  182.0140  178.5680  141.9050 C   0  0  0  0  0  0  0  0  0  0  0  0
  183.3900  178.8320  141.8680 C   0  0  0  0  0  3  0  0  0  0  0  0
  183.4280  179.0400  144.2870 C   0  0  0  0  0  3  0  0  0  0  0  0
  182.0520  178.7920  144.3260 C   0  0  0  0  0  3  0  0  0  0  0  0
  181.3290  178.3190  140.7220 O   0  0  0  0  0  1  0  0  0  0  0  0
  179.9550  178.3090  143.1470 O   0  0  0  0  0  0  0  0  0  0  0  0
  179.0500  179.0400  143.9720 C   0  0  0  0  0  1  0  0  0  0  0  0
  190.6010  177.4940  142.1810 C   0  0  0  0  0  0  0  0  0  0  0  0
  191.0040  176.9880  144.5040 C   0  0  0  0  0  0  0  0  0  0  0  0
  191.2930  179.1910  143.6550 N   0  0  0  0  0  0  0  0  0  0  0  0
  190.6420  176.5640  143.2220 C   0  0  0  0  0  3  0  0  0  0  0  0
  191.3260  178.3290  144.7050 C   0  0  0  0  0  3  0  0  0  0  0  0
  190.9450  178.7860  142.4320 N   0  0  0  0  0  0  0  0  0  0  0  0
  191.0130  176.0890  145.6180 N   0  0  0  0  0  2  0  0  0  0  0  0
  190.9320  176.5520  146.9990 C   0  0  0  0  0  2  0  0  0  0  0  0
  187.1300  178.2660  147.8960 C   0  0  0  0  0  3  0  0  0  0  0  0
  188.2120  178.5110  148.6850 N   0  0  0  0  0  0  0  0  0  0  0  0
  187.2530  177.4560  146.7650 C   0  0  0  0  0  3  0  0  0  0  0  0
  189.6130  177.2060  147.2510 C   0  0  0  0  0  0  0  0  0  0  0  0
  188.5030  176.9170  146.4490 C   0  0  0  0  0  3  0  0  0  0  0  0
  189.4370  177.9960  148.3930 C   0  0  0  0  0  3  0  0  0  0  0  0
  187.4550  176.8320  137.1430 C   0  0  0  0  0  0  0  0  0  0  0  0
  186.1460  176.8200  137.1500 C   0  0  0  0  0  0  0  0  0  0  0  0
  184.9050  176.8040  137.1510 O   0  0  0  0  0  0  0  0  0  0  0  0
  189.1580  176.1720  135.0040 S   0  0  0  0  0  0  0  0  0  0  0  0
  188.1580  174.4950  136.5850 N   0  0  0  0  0  0  0  0  0  0  0  0
  189.5600  174.5530  134.7160 C   0  0  0  0  0  3  0  0  0  0  0  0
  188.1760  175.8290  136.3320 C   0  0  0  0  0  0  0  0  0  0  0  0
  188.9180  173.7880  135.7020 C   0  0  0  0  0  3  0  0  0  0  0  0
  1 23  1  0  0  0  0
  2 10  1  0  0  0  0
  4 37  1  6  0  0  0
  4  8  1  0  0  0  0
  4  9  1  0  0  0  0
  5  3  2  0  0  0  0
  6 13  1  0  0  0  0
  6  1  2  0  0  0  0
  7  2  1  0  0  0  0
  7  5  1  0  0  0  0
  8  6  1  0  0  0  0
  9 13  2  0  0  0  0
 10 14  1  6  0  0  0
 10  3  1  0  0  0  0
 11  1  1  0  0  0  0
 12  8  1  0  0  0  0
 12 11  2  0  0  0  0
 13  7  1  0  0  0  0
 14 18  1  0  0  0  0
 15 21  1  0  0  0  0
 15 19  1  0  0  0  0
 16 15  2  0  0  0  0
 17 16  1  0  0  0  0
 17 14  2  0  0  0  0
 18 19  2  0  0  0  0
 20 16  1  0  0  0  0
 21 22  1  0  0  0  0
 23 28  2  0  0  0  0
 23 26  1  0  0  0  0
 24 27  1  0  0  0  0
 24 29  1  0  0  0  0
 25 27  2  0  0  0  0
 26 24  2  0  0  0  0
 28 25  1  0  0  0  0
 29 30  1  0  0  0  0
 30 34  1  0  0  0  0
 31 32  1  0  0  0  0
 33 31  2  0  0  0  0
 34 36  1  0  0  0  0
 35 33  1  0  0  0  0
 35 34  2  0  0  0  0
 36 32  2  0  0  0  0
 37 38  2  0  0  0  0
 38 39  2  0  0  0  0
 40 43  1  0  0  0  0
 42 40  1  0  0  0  0
 42 44  2  0  0  0  0
 43 41  2  0  0  0  0
 43 37  1  0  0  0  0
 44 41  1  0  0  0  0
M  END
>  <MODEL>
2

>  <REMARK>
 VINA RESULT:      -9.1      3.669      9.557
  Name = 
  8 active torsions:
  status: ('A' for Active; 'I' for Inactive)
    1  A    between atoms: C_1  and  C_35
    2  A    between atoms: O_2  and  C_13
    3  A    between atoms: N_3  and  C_9
    4  A    between atoms: N_3  and  C_40
    5  A    between atoms: C_4  and  C_7
    6  A    between atoms: C_15  and  C_17
    7  A    between atoms: C_17  and  C_36
    8  A    between atoms: C_30  and  C_40
                            x       y       z     vdW  Elec       q    Type
                         _______ _______ _______ _____ _____    ______ ____

>  <TORSDO>
F 8

$$$$
=
 OpenBabel10222415433D

 44 50  0  0  1  0  0  0  0  0999 V2000
  188.4070  177.9640  140.5690 C   0  0  0  0  0  0  0  0  0  0  0  0
  192.8890  176.7350  139.3330 C   0  0  0  0  0  2  0  0  0  0  0  0
  191.6000  175.7440  137.4930 C   0  0  0  0  0  3  0  0  0  0  0  0
  190.8150  177.7590  143.0550 C   0  0  2  0  0  3  0  0  0  0  0  0
  190.6480  176.1790  138.5890 C   0  0  0  0  0  3  0  0  0  0  0  0
  189.5590  177.5270  141.1880 C   0  0  0  0  0  0  0  0  0  0  0  0
  191.4650  176.8250  139.5960 N   0  0  0  0  0  0  0  0  0  0  0  0
  189.4750  177.7140  142.4850 N   0  0  0  0  0  0  0  0  0  0  0  0
  191.6800  177.3880  141.9240 N   0  0  0  0  0  0  0  0  0  0  0  0
  193.0140  176.1140  137.9520 C   0  0  2  0  0  3  0  0  0  0  0  0
  187.5820  178.4350  141.5980 C   0  0  0  0  0  3  0  0  0  0  0  0
  188.3070  178.3050  142.7880 C   0  0  0  0  0  3  0  0  0  0  0  0
  190.9490  177.2850  140.8490 C   0  0  0  0  0  0  0  0  0  0  0  0
  193.9600  174.9420  137.9730 C   0  0  0  0  0  0  0  0  0  0  0  0
  195.6980  172.7230  137.9500 C   0  0  0  0  0  0  0  0  0  0  0  0
  194.5770  172.7500  137.1050 C   0  0  0  0  0  0  0  0  0  0  0  0
  193.7130  173.8530  137.1230 C   0  0  0  0  0  3  0  0  0  0  0  0
  195.1020  174.9300  138.8000 C   0  0  0  0  0  3  0  0  0  0  0  0
  195.9590  173.8250  138.7940 C   0  0  0  0  0  3  0  0  0  0  0  0
  194.3170  171.6870  136.2510 O   0  0  0  0  0  1  0  0  0  0  0  0
  196.5420  171.6040  137.9280 O   0  0  0  0  0  0  0  0  0  0  0  0
  197.7710  171.5820  137.2060 C   0  0  0  0  0  1  0  0  0  0  0  0
  188.1700  178.1990  139.1390 C   0  0  0  0  0  0  0  0  0  0  0  0
  186.9430  177.7570  137.1110 C   0  0  0  0  0  0  0  0  0  0  0  0
  188.6840  179.3780  137.1690 N   0  0  0  0  0  0  0  0  0  0  0  0
  187.1620  177.5030  138.4680 C   0  0  0  0  0  3  0  0  0  0  0  0
  187.7310  178.7100  136.4680 C   0  0  0  0  0  3  0  0  0  0  0  0
  188.8950  179.1320  138.4640 N   0  0  0  0  0  0  0  0  0  0  0  0
  185.9590  177.0370  136.3620 N   0  0  0  0  0  2  0  0  0  0  0  0
  186.3130  176.0900  135.3090 C   0  0  0  0  0  2  0  0  0  0  0  0
  187.8310  172.5900  137.2180 C   0  0  0  0  0  3  0  0  0  0  0  0
  186.5180  172.9330  137.3260 N   0  0  0  0  0  0  0  0  0  0  0  0
  188.7030  173.3760  136.4620 C   0  0  0  0  0  3  0  0  0  0  0  0
  186.8450  174.8270  135.9030 C   0  0  0  0  0  0  0  0  0  0  0  0
  188.2050  174.5070  135.8090 C   0  0  0  0  0  3  0  0  0  0  0  0
  186.0150  174.0290  136.6970 C   0  0  0  0  0  3  0  0  0  0  0  0
  191.0050  176.8120  144.2140 C   0  0  0  0  0  0  0  0  0  0  0  0
  191.6220  175.6670  144.0620 C   0  0  0  0  0  0  0  0  0  0  0  0
  192.2070  174.5820  143.9250 O   0  0  0  0  0  0  0  0  0  0  0  0
  190.9680  176.7530  147.0260 S   0  0  0  0  0  0  0  0  0  0  0  0
  189.1310  177.7140  145.6070 N   0  0  0  0  0  0  0  0  0  0  0  0
  189.6420  177.3870  147.8640 C   0  0  0  0  0  3  0  0  0  0  0  0
  190.3370  177.0990  145.5000 C   0  0  0  0  0  0  0  0  0  0  0  0
  188.7440  177.8780  146.9040 C   0  0  0  0  0  3  0  0  0  0  0  0
  1  6  2  0  0  0  0
  1 11  1  0  0  0  0
  2  7  1  0  0  0  0
  3 10  1  0  0  0  0
  3  5  2  0  0  0  0
  4 37  1  1  0  0  0
  5  7  1  0  0  0  0
  6  8  1  0  0  0  0
  7 13  1  0  0  0  0
  8 12  1  0  0  0  0
  8  4  1  0  0  0  0
  9  4  1  0  0  0  0
 10 14  1  1  0  0  0
 10  2  1  0  0  0  0
 11 12  2  0  0  0  0
 13  6  1  0  0  0  0
 13  9  2  0  0  0  0
 14 18  1  0  0  0  0
 15 19  1  0  0  0  0
 16 17  1  0  0  0  0
 16 15  2  0  0  0  0
 17 14  2  0  0  0  0
 19 18  2  0  0  0  0
 20 16  1  0  0  0  0
 21 15  1  0  0  0  0
 22 21  1  0  0  0  0
 23  1  1  0  0  0  0
 24 26  2  0  0  0  0
 25 28  1  0  0  0  0
 26 23  1  0  0  0  0
 27 24  1  0  0  0  0
 27 25  2  0  0  0  0
 28 23  2  0  0  0  0
 29 24  1  0  0  0  0
 30 34  1  0  0  0  0
 30 29  1  0  0  0  0
 31 32  1  0  0  0  0
 33 31  2  0  0  0  0
 34 36  1  0  0  0  0
 35 34  2  0  0  0  0
 35 33  1  0  0  0  0
 36 32  2  0  0  0  0
 37 43  1  0  0  0  0
 38 37  2  0  0  0  0
 39 38  2  0  0  0  0
 40 42  1  0  0  0  0
 41 44  1  0  0  0  0
 43 41  2  0  0  0  0
 43 40  1  0  0  0  0
 44 42  2  0  0  0  0
M  END
>  <MODEL>
3

>  <REMARK>
 VINA RESULT:      -8.9      4.069      5.631
  Name = 
  8 active torsions:
  status: ('A' for Active; 'I' for Inactive)
    1  A    between atoms: C_1  and  C_35
    2  A    between atoms: O_2  and  C_13
    3  A    between atoms: N_3  and  C_9
    4  A    between atoms: N_3  and  C_40
    5  A    between atoms: C_4  and  C_7
    6  A    between atoms: C_15  and  C_17
    7  A    between atoms: C_17  and  C_36
    8  A    between atoms: C_30  and  C_40
                            x       y       z     vdW  Elec       q    Type
                         _______ _______ _______ _____ _____    ______ ____

>  <TORSDO>
F 8

$$$$
=
 OpenBabel10222415433D

 44 50  0  0  1  0  0  0  0  0999 V2000
  186.2280  178.0700  138.6670 C   0  0  0  0  0  0  0  0  0  0  0  0
  189.3820  178.6320  142.2530 C   0  0  0  0  0  2  0  0  0  0  0  0
  190.4650  176.8620  140.9410 C   0  0  0  0  0  3  0  0  0  0  0  0
  185.1020  179.3730  141.6770 C   0  0  2  0  0  3  0  0  0  0  0  0
  189.0480  177.0550  140.4410 C   0  0  0  0  0  3  0  0  0  0  0  0
  186.2060  178.2850  140.0290 C   0  0  0  0  0  0  0  0  0  0  0  0
  188.5030  178.1630  141.2000 N   0  0  0  0  0  0  0  0  0  0  0  0
  185.0070  178.6610  140.4080 N   0  0  0  0  0  0  0  0  0  0  0  0
  186.5100  179.1940  142.0640 N   0  0  0  0  0  0  0  0  0  0  0  0
  190.6850  177.8720  142.0710 C   0  0  2  0  0  3  0  0  0  0  0  0
  184.9260  178.3350  138.2230 C   0  0  0  0  0  3  0  0  0  0  0  0
  184.1950  178.7510  139.3410 C   0  0  0  0  0  3  0  0  0  0  0  0
  187.1410  178.5910  141.0950 C   0  0  0  0  0  0  0  0  0  0  0  0
  191.1200  177.2350  143.3650 C   0  0  0  0  0  0  0  0  0  0  0  0
  191.9650  175.9850  145.7460 C   0  0  0  0  0  0  0  0  0  0  0  0
  191.9910  175.2810  144.5320 C   0  0  0  0  0  0  0  0  0  0  0  0
  191.5660  175.9040  143.3510 C   0  0  0  0  0  3  0  0  0  0  0  0
  191.1220  177.9530  144.5780 C   0  0  0  0  0  3  0  0  0  0  0  0
  191.5330  177.3290  145.7610 C   0  0  0  0  0  3  0  0  0  0  0  0
  192.4350  173.9650  144.4930 O   0  0  0  0  0  1  0  0  0  0  0  0
  192.3800  175.3390  146.9190 O   0  0  0  0  0  0  0  0  0  0  0  0
  192.4300  175.9970  148.1830 C   0  0  0  0  0  1  0  0  0  0  0  0
  187.3910  177.9080  137.7850 C   0  0  0  0  0  0  0  0  0  0  0  0
  188.8080  176.5270  136.4070 C   0  0  0  0  0  0  0  0  0  0  0  0
  189.1940  178.8650  136.6170 N   0  0  0  0  0  0  0  0  0  0  0  0
  187.7070  176.6540  137.2590 C   0  0  0  0  0  3  0  0  0  0  0  0
  189.5540  177.6620  136.0970 C   0  0  0  0  0  3  0  0  0  0  0  0
  188.1440  178.9850  137.4320 N   0  0  0  0  0  0  0  0  0  0  0  0
  189.2070  175.2570  135.8790 N   0  0  0  0  0  2  0  0  0  0  0  0
  189.6290  174.1520  136.7340 C   0  0  0  0  0  2  0  0  0  0  0  0
  193.8380  174.5380  137.3090 C   0  0  0  0  0  3  0  0  0  0  0  0
  192.9640  175.3460  137.9700 N   0  0  0  0  0  0  0  0  0  0  0  0
  193.3650  173.5540  136.4380 C   0  0  0  0  0  3  0  0  0  0  0  0
  191.1000  174.2190  136.9830 C   0  0  0  0  0  0  0  0  0  0  0  0
  191.9860  173.4020  136.2700 C   0  0  0  0  0  3  0  0  0  0  0  0
  191.6180  175.2130  137.8190 C   0  0  0  0  0  3  0  0  0  0  0  0
  184.1760  178.8330  142.7380 C   0  0  0  0  0  0  0  0  0  0  0  0
  182.8870  178.7360  142.5290 C   0  0  0  0  0  0  0  0  0  0  0  0
  181.6650  178.6400  142.3380 O   0  0  0  0  0  0  0  0  0  0  0  0
  183.9450  179.0040  145.5360 S   0  0  0  0  0  0  0  0  0  0  0  0
  185.8630  177.9070  144.3400 N   0  0  0  0  0  0  0  0  0  0  0  0
  185.1530  178.3470  146.5220 C   0  0  0  0  0  3  0  0  0  0  0  0
  184.7030  178.5690  144.0920 C   0  0  0  0  0  0  0  0  0  0  0  0
  186.1150  177.7790  145.6730 C   0  0  0  0  0  3  0  0  0  0  0  0
  1  6  2  0  0  0  0
  3 10  1  0  0  0  0
  4  9  1  0  0  0  0
  4 37  1  1  0  0  0
  5  3  2  0  0  0  0
  5  7  1  0  0  0  0
  6  8  1  0  0  0  0
  6 13  1  0  0  0  0
  7  2  1  0  0  0  0
  8  4  1  0  0  0  0
 10  2  1  0  0  0  0
 10 14  1  1  0  0  0
 11  1  1  0  0  0  0
 11 12  2  0  0  0  0
 12  8  1  0  0  0  0
 13  7  1  0  0  0  0
 13  9  2  0  0  0  0
 14 18  1  0  0  0  0
 15 19  1  0  0  0  0
 15 21  1  0  0  0  0
 16 15  2  0  0  0  0
 17 14  2  0  0  0  0
 17 16  1  0  0  0  0
 18 19  2  0  0  0  0
 20 16  1  0  0  0  0
 21 22  1  0  0  0  0
 23  1  1  0  0  0  0
 24 26  1  0  0  0  0
 25 28  2  0  0  0  0
 26 23  2  0  0  0  0
 27 24  2  0  0  0  0
 27 25  1  0  0  0  0
 28 23  1  0  0  0  0
 29 24  1  0  0  0  0
 29 30  1  0  0  0  0
 30 34  1  0  0  0  0
 31 32  1  0  0  0  0
 33 31  2  0  0  0  0
 34 36  1  0  0  0  0
 35 33  1  0  0  0  0
 35 34  2  0  0  0  0
 36 32  2  0  0  0  0
 37 43  1  0  0  0  0
 38 37  2  0  0  0  0
 39 38  2  0  0  0  0
 40 42  1  0  0  0  0
 41 44  1  0  0  0  0
 43 41  2  0  0  0  0
 43 40  1  0  0  0  0
 44 42  2  0  0  0  0
M  END
>  <MODEL>
4

>  <REMARK>
 VINA RESULT:      -8.6      3.131      8.256
  Name = 
  8 active torsions:
  status: ('A' for Active; 'I' for Inactive)
    1  A    between atoms: C_1  and  C_35
    2  A    between atoms: O_2  and  C_13
    3  A    between atoms: N_3  and  C_9
    4  A    between atoms: N_3  and  C_40
    5  A    between atoms: C_4  and  C_7
    6  A    between atoms: C_15  and  C_17
    7  A    between atoms: C_17  and  C_36
    8  A    between atoms: C_30  and  C_40
                            x       y       z     vdW  Elec       q    Type
                         _______ _______ _______ _____ _____    ______ ____

>  <TORSDO>
F 8

$$$$
=
 OpenBabel10222415433D

 44 50  0  0  1  0  0  0  0  0999 V2000
  190.6570  177.2370  141.0880 C   0  0  0  0  0  0  0  0  0  0  0  0
  186.2870  179.2460  141.0790 C   0  0  0  0  0  2  0  0  0  0  0  0
  186.3430  178.2410  143.3180 C   0  0  0  0  0  3  0  0  0  0  0  0
  189.0970  177.8020  138.0430 C   0  0  2  0  0  3  0  0  0  0  0  0
  187.5140  177.7190  142.5100 C   0  0  0  0  0  3  0  0  0  0  0  0
  189.6060  177.4040  140.2110 C   0  0  0  0  0  0  0  0  0  0  0  0
  187.4640  178.4130  141.2390 N   0  0  0  0  0  0  0  0  0  0  0  0
  189.9940  177.1430  138.9850 N   0  0  0  0  0  0  0  0  0  0  0  0
  188.0280  178.3310  138.9030 N   0  0  0  0  0  0  0  0  0  0  0  0
  185.5800  179.2210  142.4230 C   0  0  2  0  0  3  0  0  0  0  0  0
  191.7430  176.8340  140.3010 C   0  0  0  0  0  3  0  0  0  0  0  0
  191.3010  176.8320  138.9740 C   0  0  0  0  0  3  0  0  0  0  0  0
  188.3460  178.1210  140.1500 C   0  0  0  0  0  0  0  0  0  0  0  0
  184.1240  178.8700  142.2580 C   0  0  0  0  0  0  0  0  0  0  0  0
  181.3860  178.2450  142.0170 C   0  0  0  0  0  0  0  0  0  0  0  0
  181.9010  178.6990  143.2410 C   0  0  0  0  0  0  0  0  0  0  0  0
  183.2630  179.0040  143.3590 C   0  0  0  0  0  3  0  0  0  0  0  0
  183.6030  178.4440  141.0200 C   0  0  0  0  0  3  0  0  0  0  0  0
  182.2460  178.1260  140.9030 C   0  0  0  0  0  3  0  0  0  0  0  0
  181.0660  178.8450  144.3420 O   0  0  0  0  0  1  0  0  0  0  0  0
  180.0230  177.9310  141.9240 O   0  0  0  0  0  0  0  0  0  0  0  0
  179.5100  177.0140  140.9600 C   0  0  0  0  0  1  0  0  0  0  0  0
  190.7570  177.6710  142.4870 C   0  0  0  0  0  0  0  0  0  0  0  0
  190.9590  177.1640  144.8360 C   0  0  0  0  0  0  0  0  0  0  0  0
  190.9300  179.4120  144.0590 N   0  0  0  0  0  0  0  0  0  0  0  0
  190.8450  176.7270  143.5130 C   0  0  0  0  0  3  0  0  0  0  0  0
  190.9950  178.5320  145.0930 C   0  0  0  0  0  3  0  0  0  0  0  0
  190.8180  178.9940  142.7970 N   0  0  0  0  0  0  0  0  0  0  0  0
  191.0000  176.2410  145.9300 N   0  0  0  0  0  2  0  0  0  0  0  0
  190.7350  176.6460  147.3070 C   0  0  0  0  0  2  0  0  0  0  0  0
  186.7840  178.2410  147.5060 C   0  0  0  0  0  3  0  0  0  0  0  0
  187.1330  177.3560  146.5330 N   0  0  0  0  0  0  0  0  0  0  0  0
  187.7160  178.6310  148.4690 C   0  0  0  0  0  3  0  0  0  0  0  0
  189.3370  177.1530  147.4400 C   0  0  0  0  0  0  0  0  0  0  0  0
  189.0030  178.0880  148.4280 C   0  0  0  0  0  3  0  0  0  0  0  0
  188.3810  176.8160  146.4760 C   0  0  0  0  0  3  0  0  0  0  0  0
  188.5380  176.8700  136.9960 C   0  0  0  0  0  0  0  0  0  0  0  0
  187.2580  176.8440  136.7250 C   0  0  0  0  0  0  0  0  0  0  0  0
  186.0460  176.8140  136.4630 O   0  0  0  0  0  0  0  0  0  0  0  0
  189.3730  174.1980  136.7220 S   0  0  0  0  0  0  0  0  0  0  0  0
  190.3640  176.1260  135.4520 N   0  0  0  0  0  0  0  0  0  0  0  0
  190.6250  173.8120  135.6500 C   0  0  0  0  0  3  0  0  0  0  0  0
  189.4190  175.8510  136.3890 C   0  0  0  0  0  0  0  0  0  0  0  0
  191.0290  175.0100  135.0400 C   0  0  0  0  0  3  0  0  0  0  0  0
  1 23  1  0  0  0  0
  2  7  1  0  0  0  0
  2 10  1  0  0  0  0
  4 37  1  6  0  0  0
  4  9  1  0  0  0  0
  4  8  1  0  0  0  0
  5  3  2  0  0  0  0
  6  1  2  0  0  0  0
  7  5  1  0  0  0  0
  8  6  1  0  0  0  0
  9 13  2  0  0  0  0
 10 14  1  6  0  0  0
 10  3  1  0  0  0  0
 11  1  1  0  0  0  0
 12  8  1  0  0  0  0
 12 11  2  0  0  0  0
 13  6  1  0  0  0  0
 13  7  1  0  0  0  0
 14 17  1  0  0  0  0
 15 16  1  0  0  0  0
 16 17  2  0  0  0  0
 16 20  1  0  0  0  0
 18 14  2  0  0  0  0
 19 18  1  0  0  0  0
 19 15  2  0  0  0  0
 21 15  1  0  0  0  0
 22 21  1  0  0  0  0
 23 28  2  0  0  0  0
 23 26  1  0  0  0  0
 24 27  1  0  0  0  0
 24 29  1  0  0  0  0
 25 27  2  0  0  0  0
 26 24  2  0  0  0  0
 28 25  1  0  0  0  0
 29 30  1  0  0  0  0
 30 34  1  0  0  0  0
 31 33  1  0  0  0  0
 32 31  2  0  0  0  0
 34 35  1  0  0  0  0
 35 33  2  0  0  0  0
 36 32  1  0  0  0  0
 36 34  2  0  0  0  0
 38 37  2  0  0  0  0
 39 38  2  0  0  0  0
 41 43  2  0  0  0  0
 42 40  1  0  0  0  0
 43 40  1  0  0  0  0
 43 37  1  0  0  0  0
 44 41  1  0  0  0  0
 44 42  2  0  0  0  0
M  END
>  <MODEL>
5

>  <REMARK>
 VINA RESULT:      -8.5      3.409      9.296
  Name = 
  8 active torsions:
  status: ('A' for Active; 'I' for Inactive)
    1  A    between atoms: C_1  and  C_35
    2  A    between atoms: O_2  and  C_13
    3  A    between atoms: N_3  and  C_9
    4  A    between atoms: N_3  and  C_40
    5  A    between atoms: C_4  and  C_7
    6  A    between atoms: C_15  and  C_17
    7  A    between atoms: C_17  and  C_36
    8  A    between atoms: C_30  and  C_40
                            x       y       z     vdW  Elec       q    Type
                         _______ _______ _______ _____ _____    ______ ____

>  <TORSDO>
F 8

$$$$
=
 OpenBabel10222415433D

 44 50  0  0  1  0  0  0  0  0999 V2000
  188.1910  178.1930  138.1940 C   0  0  0  0  0  0  0  0  0  0  0  0
  189.2490  176.0460  142.3660 C   0  0  0  0  0  2  0  0  0  0  0  0
  187.9550  177.9830  143.1430 C   0  0  0  0  0  3  0  0  0  0  0  0
  190.9800  176.1380  138.3420 C   0  0  2  0  0  3  0  0  0  0  0  0
  188.2880  178.1640  141.6760 C   0  0  0  0  0  3  0  0  0  0  0  0
  189.2620  177.5450  138.7730 C   0  0  0  0  0  0  0  0  0  0  0  0
  188.9750  176.9540  141.2690 N   0  0  0  0  0  0  0  0  0  0  0  0
  190.1510  177.2340  137.8580 N   0  0  0  0  0  0  0  0  0  0  0  0
  190.5570  175.9820  139.7420 N   0  0  0  0  0  0  0  0  0  0  0  0
  188.5430  176.6360  143.5750 C   0  0  2  0  0  3  0  0  0  0  0  0
  188.4910  178.2720  136.8290 C   0  0  0  0  0  3  0  0  0  0  0  0
  189.7130  177.6160  136.6460 C   0  0  0  0  0  3  0  0  0  0  0  0
  189.5500  176.7770  139.9700 C   0  0  0  0  0  0  0  0  0  0  0  0
  189.4820  176.7430  144.7470 C   0  0  0  0  0  0  0  0  0  0  0  0
  191.1810  176.9520  146.9880 C   0  0  0  0  0  0  0  0  0  0  0  0
  189.8210  177.2800  147.1000 C   0  0  0  0  0  0  0  0  0  0  0  0
  188.9810  177.1800  145.9830 C   0  0  0  0  0  3  0  0  0  0  0  0
  190.8410  176.3840  144.6400 C   0  0  0  0  0  3  0  0  0  0  0  0
  191.6850  176.4960  145.7500 C   0  0  0  0  0  3  0  0  0  0  0  0
  189.3010  177.7080  148.3150 O   0  0  0  0  0  1  0  0  0  0  0  0
  192.0080  177.0740  148.1130 O   0  0  0  0  0  0  0  0  0  0  0  0
  192.8200  176.0040  148.5900 C   0  0  0  0  0  1  0  0  0  0  0  0
  186.8710  178.4740  138.7750 C   0  0  0  0  0  0  0  0  0  0  0  0
  184.4640  178.4000  138.6570 C   0  0  0  0  0  0  0  0  0  0  0  0
  185.5780  179.2620  140.5740 N   0  0  0  0  0  0  0  0  0  0  0  0
  185.7090  178.1400  138.0760 C   0  0  0  0  0  3  0  0  0  0  0  0
  184.4190  178.9760  139.9250 C   0  0  0  0  0  3  0  0  0  0  0  0
  186.7660  179.0170  140.0180 N   0  0  0  0  0  0  0  0  0  0  0  0
  183.2410  178.1240  137.9650 N   0  0  0  0  0  2  0  0  0  0  0  0
  181.9340  178.4470  138.5270 C   0  0  0  0  0  2  0  0  0  0  0  0
  180.6330  182.0730  136.6960 C   0  0  0  0  0  3  0  0  0  0  0  0
  180.6460  180.9040  136.0010 N   0  0  0  0  0  0  0  0  0  0  0  0
  181.0330  182.1000  138.0340 C   0  0  0  0  0  3  0  0  0  0  0  0
  181.4070  179.7090  137.9280 C   0  0  0  0  0  0  0  0  0  0  0  0
  181.4300  180.9100  138.6480 C   0  0  0  0  0  3  0  0  0  0  0  0
  181.0290  179.7340  136.5820 C   0  0  0  0  0  3  0  0  0  0  0  0
  192.4590  176.4200  138.2510 C   0  0  0  0  0  0  0  0  0  0  0  0
  193.1040  176.9890  139.2380 C   0  0  0  0  0  0  0  0  0  0  0  0
  193.7210  177.5260  140.1700 O   0  0  0  0  0  0  0  0  0  0  0  0
  192.6450  175.1800  135.7330 S   0  0  0  0  0  0  0  0  0  0  0  0
  194.2980  176.8560  136.6090 N   0  0  0  0  0  0  0  0  0  0  0  0
  193.9400  175.5480  134.7060 C   0  0  0  0  0  3  0  0  0  0  0  0
  193.1580  176.2100  136.9660 C   0  0  0  0  0  0  0  0  0  0  0  0
  194.7320  176.4990  135.3670 C   0  0  0  0  0  3  0  0  0  0  0  0
  1  6  2  0  0  0  0
  1 23  1  0  0  0  0
  2 10  1  0  0  0  0
  3 10  1  0  0  0  0
  4 37  1  1  0  0  0
  4  9  1  0  0  0  0
  5  3  2  0  0  0  0
  6 13  1  0  0  0  0
  7  5  1  0  0  0  0
  7  2  1  0  0  0  0
  8  4  1  0  0  0  0
  8  6  1  0  0  0  0
  9 13  2  0  0  0  0
 10 14  1  1  0  0  0
 11  1  1  0  0  0  0
 12 11  2  0  0  0  0
 12  8  1  0  0  0  0
 13  7  1  0  0  0  0
 14 17  1  0  0  0  0
 15 16  1  0  0  0  0
 15 21  1  0  0  0  0
 16 20  1  0  0  0  0
 17 16  2  0  0  0  0
 18 14  2  0  0  0  0
 18 19  1  0  0  0  0
 19 15  2  0  0  0  0
 21 22  1  0  0  0  0
 23 28  1  0  0  0  0
 24 27  2  0  0  0  0
 26 24  1  0  0  0  0
 26 23  2  0  0  0  0
 27 25  1  0  0  0  0
 28 25  2  0  0  0  0
 29 30  1  0  0  0  0
 29 24  1  0  0  0  0
 31 33  1  0  0  0  0
 32 36  1  0  0  0  0
 32 31  2  0  0  0  0
 33 35  2  0  0  0  0
 34 30  1  0  0  0  0
 34 35  1  0  0  0  0
 36 34  2  0  0  0  0
 37 38  2  0  0  0  0
 38 39  2  0  0  0  0
 40 43  1  0  0  0  0
 41 43  2  0  0  0  0
 42 44  2  0  0  0  0
 42 40  1  0  0  0  0
 43 37  1  0  0  0  0
 44 41  1  0  0  0  0
M  END
>  <MODEL>
6

>  <REMARK>
 VINA RESULT:      -8.5      3.062      7.474
  Name = 
  8 active torsions:
  status: ('A' for Active; 'I' for Inactive)
    1  A    between atoms: C_1  and  C_35
    2  A    between atoms: O_2  and  C_13
    3  A    between atoms: N_3  and  C_9
    4  A    between atoms: N_3  and  C_40
    5  A    between atoms: C_4  and  C_7
    6  A    between atoms: C_15  and  C_17
    7  A    between atoms: C_17  and  C_36
    8  A    between atoms: C_30  and  C_40
                            x       y       z     vdW  Elec       q    Type
                         _______ _______ _______ _____ _____    ______ ____

>  <TORSDO>
F 8

$$$$
=
 OpenBabel10222415433D

 44 50  0  0  1  0  0  0  0  0999 V2000
  190.7070  177.1730  141.0020 C   0  0  0  0  0  0  0  0  0  0  0  0
  186.3450  179.2010  141.0030 C   0  0  0  0  0  2  0  0  0  0  0  0
  186.4180  178.2280  143.2560 C   0  0  0  0  0  3  0  0  0  0  0  0
  189.1220  177.7020  137.9630 C   0  0  2  0  0  3  0  0  0  0  0  0
  187.5790  177.6900  142.4450 C   0  0  0  0  0  3  0  0  0  0  0  0
  189.6480  177.3330  140.1320 C   0  0  0  0  0  0  0  0  0  0  0  0
  187.5200  178.3660  141.1650 N   0  0  0  0  0  0  0  0  0  0  0  0
  190.0240  177.0530  138.9060 N   0  0  0  0  0  0  0  0  0  0  0  0
  188.0630  178.2480  138.8250 N   0  0  0  0  0  0  0  0  0  0  0  0
  185.6510  179.1990  142.3540 C   0  0  2  0  0  3  0  0  0  0  0  0
  191.7840  176.7550  140.2110 C   0  0  0  0  0  3  0  0  0  0  0  0
  191.3300  176.7350  138.8880 C   0  0  0  0  0  3  0  0  0  0  0  0
  188.3910  178.0550  140.0720 C   0  0  0  0  0  0  0  0  0  0  0  0
  184.1920  178.8520  142.2080 C   0  0  0  0  0  0  0  0  0  0  0  0
  181.4500  178.2330  142.0020 C   0  0  0  0  0  0  0  0  0  0  0  0
  181.9880  178.6530  143.2280 C   0  0  0  0  0  0  0  0  0  0  0  0
  183.3520  178.9550  143.3280 C   0  0  0  0  0  3  0  0  0  0  0  0
  183.6470  178.4590  140.9690 C   0  0  0  0  0  3  0  0  0  0  0  0
  182.2880  178.1440  140.8690 C   0  0  0  0  0  3  0  0  0  0  0  0
  181.1750  178.7700  144.3480 O   0  0  0  0  0  1  0  0  0  0  0  0
  180.0860  177.9200  141.9270 O   0  0  0  0  0  0  0  0  0  0  0  0
  179.2290  178.4520  140.9180 C   0  0  0  0  0  1  0  0  0  0  0  0
  190.8220  177.6270  142.3940 C   0  0  0  0  0  0  0  0  0  0  0  0
  191.0110  177.1520  144.7510 C   0  0  0  0  0  0  0  0  0  0  0  0
  191.0480  179.3870  143.9370 N   0  0  0  0  0  0  0  0  0  0  0  0
  190.8820  176.6980  143.4350 C   0  0  0  0  0  3  0  0  0  0  0  0
  191.0880  178.5230  144.9850 C   0  0  0  0  0  3  0  0  0  0  0  0
  190.9220  178.9530  142.6810 N   0  0  0  0  0  0  0  0  0  0  0  0
  191.0260  176.2470  145.8590 N   0  0  0  0  0  2  0  0  0  0  0  0
  190.7980  176.6860  147.2320 C   0  0  0  0  0  2  0  0  0  0  0  0
  186.8410  178.2550  147.5140 C   0  0  0  0  0  3  0  0  0  0  0  0
  187.1830  177.3950  146.5170 N   0  0  0  0  0  0  0  0  0  0  0  0
  187.7830  178.6270  148.4760 C   0  0  0  0  0  3  0  0  0  0  0  0
  189.3980  177.1820  147.3930 C   0  0  0  0  0  0  0  0  0  0  0  0
  189.0720  178.0920  148.4060 C   0  0  0  0  0  3  0  0  0  0  0  0
  188.4330  176.8620  146.4330 C   0  0  0  0  0  3  0  0  0  0  0  0
  188.5490  176.7580  136.9350 C   0  0  0  0  0  0  0  0  0  0  0  0
  189.3180  176.1560  136.0630 C   0  0  0  0  0  0  0  0  0  0  0  0
  190.0410  175.5820  135.2340 O   0  0  0  0  0  0  0  0  0  0  0  0
  186.0860  177.7470  136.0030 S   0  0  0  0  0  0  0  0  0  0  0  0
  186.3570  175.5960  137.2730 N   0  0  0  0  0  0  0  0  0  0  0  0
  184.6640  176.8780  136.2970 C   0  0  0  0  0  3  0  0  0  0  0  0
  187.0830  176.6410  136.7970 C   0  0  0  0  0  0  0  0  0  0  0  0
  185.0270  175.7190  136.9990 C   0  0  0  0  0  3  0  0  0  0  0  0
  1 23  1  0  0  0  0
  2  7  1  0  0  0  0
  2 10  1  0  0  0  0
  4 37  1  6  0  0  0
  4  9  1  0  0  0  0
  4  8  1  0  0  0  0
  5  3  2  0  0  0  0
  6  1  2  0  0  0  0
  7  5  1  0  0  0  0
  8  6  1  0  0  0  0
  9 13  2  0  0  0  0
 10 14  1  6  0  0  0
 10  3  1  0  0  0  0
 11  1  1  0  0  0  0
 12  8  1  0  0  0  0
 12 11  2  0  0  0  0
 13  6  1  0  0  0  0
 13  7  1  0  0  0  0
 14 17  1  0  0  0  0
 15 16  1  0  0  0  0
 16 17  2  0  0  0  0
 16 20  1  0  0  0  0
 18 14  2  0  0  0  0
 19 18  1  0  0  0  0
 19 15  2  0  0  0  0
 21 15  1  0  0  0  0
 22 21  1  0  0  0  0
 23 28  2  0  0  0  0
 23 26  1  0  0  0  0
 24 27  1  0  0  0  0
 24 29  1  0  0  0  0
 25 27  2  0  0  0  0
 26 24  2  0  0  0  0
 28 25  1  0  0  0  0
 29 30  1  0  0  0  0
 30 34  1  0  0  0  0
 31 33  1  0  0  0  0
 32 31  2  0  0  0  0
 34 35  1  0  0  0  0
 35 33  2  0  0  0  0
 36 32  1  0  0  0  0
 36 34  2  0  0  0  0
 38 37  2  0  0  0  0
 39 38  2  0  0  0  0
 40 42  1  0  0  0  0
 40 43  1  0  0  0  0
 42 44  2  0  0  0  0
 43 37  1  0  0  0  0
 43 41  2  0  0  0  0
 44 41  1  0  0  0  0
M  END
>  <MODEL>
7

>  <REMARK>
 VINA RESULT:      -8.5      3.350      9.269
  Name = 
  8 active torsions:
  status: ('A' for Active; 'I' for Inactive)
    1  A    between atoms: C_1  and  C_35
    2  A    between atoms: O_2  and  C_13
    3  A    between atoms: N_3  and  C_9
    4  A    between atoms: N_3  and  C_40
    5  A    between atoms: C_4  and  C_7
    6  A    between atoms: C_15  and  C_17
    7  A    between atoms: C_17  and  C_36
    8  A    between atoms: C_30  and  C_40
                            x       y       z     vdW  Elec       q    Type
                         _______ _______ _______ _____ _____    ______ ____

>  <TORSDO>
F 8

$$$$
=
 OpenBabel10222415433D

 44 50  0  0  1  0  0  0  0  0999 V2000
  181.7690  178.5450  142.3930 C   0  0  0  0  0  0  0  0  0  0  0  0
  185.7520  178.8950  139.7200 C   0  0  0  0  0  2  0  0  0  0  0  0
  184.3840  177.3930  138.3410 C   0  0  0  0  0  3  0  0  0  0  0  0
  184.7510  179.3680  143.9600 C   0  0  2  0  0  3  0  0  0  0  0  0
  183.7420  177.5370  139.7060 C   0  0  0  0  0  3  0  0  0  0  0  0
  183.1340  178.5850  142.5850 C   0  0  0  0  0  0  0  0  0  0  0  0
  184.5520  178.4950  140.4300 N   0  0  0  0  0  0  0  0  0  0  0  0
  183.4070  178.8160  143.8480 N   0  0  0  0  0  0  0  0  0  0  0  0
  185.2830  179.2510  142.5930 N   0  0  0  0  0  0  0  0  0  0  0  0
  185.6410  178.2670  138.3410 C   0  0  2  0  0  3  0  0  0  0  0  0
  181.2050  178.7630  143.6570 C   0  0  0  0  0  3  0  0  0  0  0  0
  182.2670  178.9760  144.5420 C   0  0  0  0  0  3  0  0  0  0  0  0
  184.3340  178.8260  141.8060 C   0  0  0  0  0  0  0  0  0  0  0  0
  186.8960  177.5080  137.9940 C   0  0  0  0  0  0  0  0  0  0  0  0
  189.2760  176.1160  137.4080 C   0  0  0  0  0  0  0  0  0  0  0  0
  189.2620  177.1010  138.4080 C   0  0  0  0  0  0  0  0  0  0  0  0
  188.0790  177.7940  138.6930 C   0  0  0  0  0  3  0  0  0  0  0  0
  186.9000  176.4990  137.0110 C   0  0  0  0  0  3  0  0  0  0  0  0
  188.0830  175.8140  136.7140 C   0  0  0  0  0  3  0  0  0  0  0  0
  190.4200  177.3960  139.1180 O   0  0  0  0  0  1  0  0  0  0  0  0
  190.4740  175.4450  137.1270 O   0  0  0  0  0  0  0  0  0  0  0  0
  191.0300  175.3820  135.8160 C   0  0  0  0  0  1  0  0  0  0  0  0
  181.0220  178.5860  141.1300 C   0  0  0  0  0  0  0  0  0  0  0  0
  180.3020  179.7610  139.1500 C   0  0  0  0  0  0  0  0  0  0  0  0
  179.7150  177.4840  139.5150 N   0  0  0  0  0  0  0  0  0  0  0  0
  181.0040  179.7510  140.3590 C   0  0  0  0  0  3  0  0  0  0  0  0
  179.6490  178.6000  138.7410 C   0  0  0  0  0  3  0  0  0  0  0  0
  180.3820  177.4770  140.6700 N   0  0  0  0  0  0  0  0  0  0  0  0
  180.2080  180.9410  138.3460 N   0  0  0  0  0  2  0  0  0  0  0  0
  181.1980  182.0110  138.4070 C   0  0  0  0  0  2  0  0  0  0  0  0
  180.7210  184.6280  135.0720 C   0  0  0  0  0  3  0  0  0  0  0  0
  181.3360  185.0500  136.2110 N   0  0  0  0  0  0  0  0  0  0  0  0
  180.2480  183.3180  134.9730 C   0  0  0  0  0  3  0  0  0  0  0  0
  181.0940  182.8870  137.2020 C   0  0  0  0  0  0  0  0  0  0  0  0
  180.4290  182.4470  136.0510 C   0  0  0  0  0  3  0  0  0  0  0  0
  181.5230  184.2160  137.2700 C   0  0  0  0  0  3  0  0  0  0  0  0
  185.6230  178.6280  144.9440 C   0  0  0  0  0  0  0  0  0  0  0  0
  185.4550  178.7640  146.2350 C   0  0  0  0  0  0  0  0  0  0  0  0
  185.3010  178.8870  147.4600 O   0  0  0  0  0  0  0  0  0  0  0  0
  188.3670  178.0170  145.0410 S   0  0  0  0  0  0  0  0  0  0  0  0
  186.7330  176.9380  143.4670 N   0  0  0  0  0  0  0  0  0  0  0  0
  189.0100  176.8590  143.9870 C   0  0  0  0  0  3  0  0  0  0  0  0
  186.7930  177.8740  144.4500 C   0  0  0  0  0  0  0  0  0  0  0  0
  187.9470  176.3740  143.2100 C   0  0  0  0  0  3  0  0  0  0  0  0
  1  6  2  0  0  0  0
  1 11  1  0  0  0  0
  2  7  1  0  0  0  0
  3  5  2  0  0  0  0
  4 37  1  1  0  0  0
  5  7  1  0  0  0  0
  6  8  1  0  0  0  0
  7 13  1  0  0  0  0
  8  4  1  0  0  0  0
  8 12  1  0  0  0  0
  9  4  1  0  0  0  0
 10 14  1  1  0  0  0
 10  3  1  0  0  0  0
 10  2  1  0  0  0  0
 11 12  2  0  0  0  0
 13  6  1  0  0  0  0
 13  9  2  0  0  0  0
 14 17  1  0  0  0  0
 15 16  1  0  0  0  0
 16 17  2  0  0  0  0
 16 20  1  0  0  0  0
 18 14  2  0  0  0  0
 19 18  1  0  0  0  0
 19 15  2  0  0  0  0
 21 15  1  0  0  0  0
 22 21  1  0  0  0  0
 23  1  1  0  0  0  0
 24 26  1  0  0  0  0
 25 28  2  0  0  0  0
 26 23  2  0  0  0  0
 27 24  2  0  0  0  0
 27 25  1  0  0  0  0
 28 23  1  0  0  0  0
 29 30  1  0  0  0  0
 29 24  1  0  0  0  0
 31 32  1  0  0  0  0
 32 36  2  0  0  0  0
 33 31  2  0  0  0  0
 33 35  1  0  0  0  0
 34 36  1  0  0  0  0
 34 30  1  0  0  0  0
 35 34  2  0  0  0  0
 37 38  2  0  0  0  0
 38 39  2  0  0  0  0
 41 43  2  0  0  0  0
 42 40  1  0  0  0  0
 43 37  1  0  0  0  0
 43 40  1  0  0  0  0
 44 41  1  0  0  0  0
 44 42  2  0  0  0  0
M  END
>  <MODEL>
8

>  <REMARK>
 VINA RESULT:      -8.4      3.003      4.679
  Name = 
  8 active torsions:
  status: ('A' for Active; 'I' for Inactive)
    1  A    between atoms: C_1  and  C_35
    2  A    between atoms: O_2  and  C_13
    3  A    between atoms: N_3  and  C_9
    4  A    between atoms: N_3  and  C_40
    5  A    between atoms: C_4  and  C_7
    6  A    between atoms: C_15  and  C_17
    7  A    between atoms: C_17  and  C_36
    8  A    between atoms: C_30  and  C_40
                            x       y       z     vdW  Elec       q    Type
                         _______ _______ _______ _____ _____    ______ ____

>  <TORSDO>
F 8

$$$$
=
 OpenBabel10222415433D

 44 50  0  0  1  0  0  0  0  0999 V2000
  188.1430  178.1530  138.1390 C   0  0  0  0  0  0  0  0  0  0  0  0
  189.2460  176.0120  142.3020 C   0  0  0  0  0  2  0  0  0  0  0  0
  187.9420  177.9370  143.0890 C   0  0  0  0  0  3  0  0  0  0  0  0
  190.9490  176.1190  138.2660 C   0  0  2  0  0  3  0  0  0  0  0  0
  188.2640  178.1220  141.6200 C   0  0  0  0  0  3  0  0  0  0  0  0
  189.2230  177.5130  138.7100 C   0  0  0  0  0  0  0  0  0  0  0  0
  188.9570  176.9180  141.2080 N   0  0  0  0  0  0  0  0  0  0  0  0
  190.1080  177.2100  137.7890 N   0  0  0  0  0  0  0  0  0  0  0  0
  190.5370  175.9590  139.6690 N   0  0  0  0  0  0  0  0  0  0  0  0
  188.5420  176.5950  143.5160 C   0  0  2  0  0  3  0  0  0  0  0  0
  188.4340  178.2350  136.7720 C   0  0  0  0  0  3  0  0  0  0  0  0
  189.6590  177.5890  136.5800 C   0  0  0  0  0  3  0  0  0  0  0  0
  189.5250  176.7470  139.9050 C   0  0  0  0  0  0  0  0  0  0  0  0
  189.4890  176.7080  144.6820 C   0  0  0  0  0  0  0  0  0  0  0  0
  191.2010  176.9290  146.9110 C   0  0  0  0  0  0  0  0  0  0  0  0
  189.8410  177.2550  147.0310 C   0  0  0  0  0  0  0  0  0  0  0  0
  188.9940  177.1490  145.9200 C   0  0  0  0  0  3  0  0  0  0  0  0
  190.8480  176.3520  144.5680 C   0  0  0  0  0  3  0  0  0  0  0  0
  191.6990  176.4700  145.6720 C   0  0  0  0  0  3  0  0  0  0  0  0
  189.3270  177.6860  148.2470 O   0  0  0  0  0  1  0  0  0  0  0  0
  192.0340  177.0580  148.0310 O   0  0  0  0  0  0  0  0  0  0  0  0
  192.8500  175.9900  148.5090 C   0  0  0  0  0  1  0  0  0  0  0  0
  186.8250  178.4240  138.7280 C   0  0  0  0  0  0  0  0  0  0  0  0
  184.4190  178.2970  138.6440 C   0  0  0  0  0  0  0  0  0  0  0  0
  185.5380  179.2370  140.5210 N   0  0  0  0  0  0  0  0  0  0  0  0
  185.6620  178.0460  138.0550 C   0  0  0  0  0  3  0  0  0  0  0  0
  184.3770  178.9080  139.8950 C   0  0  0  0  0  3  0  0  0  0  0  0
  186.7240  179.0000  139.9570 N   0  0  0  0  0  0  0  0  0  0  0  0
  183.1930  177.9760  137.9770 N   0  0  0  0  0  2  0  0  0  0  0  0
  181.9130  178.5520  138.3730 C   0  0  0  0  0  2  0  0  0  0  0  0
  179.6700  175.6880  140.6010 C   0  0  0  0  0  3  0  0  0  0  0  0
  179.4660  177.0220  140.7720 N   0  0  0  0  0  0  0  0  0  0  0  0
  180.6120  175.2330  139.6750 C   0  0  0  0  0  3  0  0  0  0  0  0
  181.0820  177.5350  139.0840 C   0  0  0  0  0  0  0  0  0  0  0  0
  181.3280  176.1660  138.9200 C   0  0  0  0  0  3  0  0  0  0  0  0
  180.1530  177.9460  140.0450 C   0  0  0  0  0  3  0  0  0  0  0  0
  192.4250  176.4130  138.1660 C   0  0  0  0  0  0  0  0  0  0  0  0
  193.0710  176.9870  139.1480 C   0  0  0  0  0  0  0  0  0  0  0  0
  193.6900  177.5310  140.0760 O   0  0  0  0  0  0  0  0  0  0  0  0
  192.5370  175.2780  135.5940 S   0  0  0  0  0  0  0  0  0  0  0  0
  194.3090  176.7760  136.5570 N   0  0  0  0  0  0  0  0  0  0  0  0
  193.8660  175.5880  134.5940 C   0  0  0  0  0  3  0  0  0  0  0  0
  193.1180  176.2070  136.8770 C   0  0  0  0  0  0  0  0  0  0  0  0
  194.7240  176.4420  135.3020 C   0  0  0  0  0  3  0  0  0  0  0  0
  1  6  2  0  0  0  0
  1 23  1  0  0  0  0
  2 10  1  0  0  0  0
  3 10  1  0  0  0  0
  4 37  1  1  0  0  0
  4  9  1  0  0  0  0
  5  3  2  0  0  0  0
  6 13  1  0  0  0  0
  7  5  1  0  0  0  0
  7  2  1  0  0  0  0
  8  4  1  0  0  0  0
  8  6  1  0  0  0  0
  9 13  2  0  0  0  0
 10 14  1  1  0  0  0
 11  1  1  0  0  0  0
 12 11  2  0  0  0  0
 12  8  1  0  0  0  0
 13  7  1  0  0  0  0
 14 17  1  0  0  0  0
 15 16  1  0  0  0  0
 15 21  1  0  0  0  0
 16 20  1  0  0  0  0
 17 16  2  0  0  0  0
 18 14  2  0  0  0  0
 18 19  1  0  0  0  0
 19 15  2  0  0  0  0
 21 22  1  0  0  0  0
 23 28  1  0  0  0  0
 24 27  2  0  0  0  0
 26 24  1  0  0  0  0
 26 23  2  0  0  0  0
 27 25  1  0  0  0  0
 28 25  2  0  0  0  0
 29 30  1  0  0  0  0
 29 24  1  0  0  0  0
 30 34  1  0  0  0  0
 31 32  1  0  0  0  0
 33 31  2  0  0  0  0
 34 36  1  0  0  0  0
 35 34  2  0  0  0  0
 35 33  1  0  0  0  0
 36 32  2  0  0  0  0
 37 38  2  0  0  0  0
 38 39  2  0  0  0  0
 40 43  1  0  0  0  0
 41 43  2  0  0  0  0
 42 44  2  0  0  0  0
 42 40  1  0  0  0  0
 43 37  1  0  0  0  0
 44 41  1  0  0  0  0
M  END
>  <MODEL>
9

>  <REMARK>
 VINA RESULT:      -8.4      2.887      7.325
  Name = 
  8 active torsions:
  status: ('A' for Active; 'I' for Inactive)
    1  A    between atoms: C_1  and  C_35
    2  A    between atoms: O_2  and  C_13
    3  A    between atoms: N_3  and  C_9
    4  A    between atoms: N_3  and  C_40
    5  A    between atoms: C_4  and  C_7
    6  A    between atoms: C_15  and  C_17
    7  A    between atoms: C_17  and  C_36
    8  A    between atoms: C_30  and  C_40
                            x       y       z     vdW  Elec       q    Type
                         _______ _______ _______ _____ _____    ______ ____

>  <TORSDO>
F 8

$$$$
