=
 OpenBabel10222421003D

 38 41  0  0  1  0  0  0  0  0999 V2000
  188.6540  176.5450  142.6810 C   0  0  0  0  0  2  0  0  0  0  0  0
  191.5920  177.1300  140.5810 O   0  0  0  0  0  0  0  0  0  0  0  0
  190.0360  176.8070  142.3020 N   0  0  0  0  0  0  0  0  0  0  0  0
  190.3810  177.0770  140.9300 C   0  0  0  0  0  0  0  0  0  0  0  0
  189.3560  176.3040  138.8760 O   0  0  0  0  0  0  0  0  0  0  0  0
  190.1850  176.7480  137.8260 C   0  0  0  0  0  2  0  0  0  0  0  0
  189.2430  178.7480  139.4180 C   0  0  0  0  0  2  0  0  0  0  0  0
  189.3100  177.2860  139.9010 C   0  0  2  0  0  3  0  0  0  0  0  0
  189.5300  177.9140  137.0710 C   0  0  2  0  0  3  0  0  0  0  0  0
  188.6930  178.8020  137.9990 C   0  0  0  0  0  2  0  0  0  0  0  0
  188.7120  177.4360  135.8730 C   0  0  0  0  0  2  0  0  0  0  0  0
  187.3330  178.0820  135.8140 C   0  0  0  0  0  2  0  0  0  0  0  0
  186.2570  177.0150  135.7060 C   0  0  0  0  0  2  0  0  0  0  0  0
  185.1930  177.8420  137.8190 C   0  0  0  0  0  1  0  0  0  0  0  0
  185.7280  176.6300  137.0790 C   0  0  0  0  0  2  0  0  0  0  0  0
  191.0760  176.5550  143.2960 C   0  0  0  0  0  2  0  0  0  0  0  0
  191.8760  177.7630  145.2120 O   0  0  0  0  0  1  0  0  0  0  0  0
  191.6700  177.8540  143.8360 C   0  0  2  0  0  3  0  0  0  0  0  0
  190.8090  178.9850  143.5390 N   0  0  0  0  0  1  0  0  0  0  0  0
  188.4810  176.7200  144.1810 C   0  0  0  0  0  2  0  0  0  0  0  0
  183.4600  179.1170  144.8580 C   0  0  0  0  0  3  0  0  0  0  0  0
  185.6300  178.4120  145.9810 C   0  0  0  0  0  0  0  0  0  0  0  0
  185.1600  178.2440  143.6590 C   0  0  0  0  0  0  0  0  0  0  0  0
  187.7600  177.5750  146.8480 C   0  0  0  0  0  1  0  0  0  0  0  0
  184.1820  178.5010  142.7940 N   0  0  0  0  0  0  0  0  0  0  0  0
  184.7740  178.6330  144.9100 C   0  0  0  0  0  0  0  0  0  0  0  0
  185.2910  178.7490  147.1500 O   0  0  0  0  0  0  0  0  0  0  0  0
  181.9830  179.0420  142.6890 C   0  0  0  0  0  0  0  0  0  0  0  0
  186.8420  177.8100  145.7360 N   0  0  0  0  0  0  0  0  0  0  0  0
  182.3280  178.5600  141.4720 C   0  0  0  0  0  0  0  0  0  0  0  0
  183.1800  179.0040  143.4930 C   0  0  0  0  0  0  0  0  0  0  0  0
  183.7750  178.1050  141.4620 C   0  0  0  0  0  3  0  0  0  0  0  0
  187.1890  177.4170  144.4580 C   0  0  2  0  0  3  0  0  0  0  0  0
  186.3330  177.6230  143.4120 N   0  0  0  0  0  0  0  0  0  0  0  0
  180.7270  179.4440  143.1520 O   0  0  0  0  0  0  0  0  0  0  0  0
  179.8550  178.5810  143.8660 C   0  0  0  0  0  1  0  0  0  0  0  0
  181.5150  178.4900  140.3390 O   0  0  0  0  0  0  0  0  0  0  0  0
  180.4590  177.5500  140.2170 C   0  0  0  0  0  1  0  0  0  0  0  0
  1 20  1  0  0  0  0
  2  4  2  0  0  0  0
  3  1  1  0  0  0  0
  3 16  1  0  0  0  0
  4  3  1  0  0  0  0
  5  8  1  0  0  0  0
  6  5  1  0  0  0  0
  7  8  1  0  0  0  0
  8  4  1  1  0  0  0
  9 11  1  6  0  0  0
  9  6  1  0  0  0  0
  9 10  1  0  0  0  0
 10  7  1  0  0  0  0
 12 11  1  0  0  0  0
 13 12  1  0  0  0  0
 13 15  1  0  0  0  0
 15 14  1  0  0  0  0
 16 18  1  0  0  0  0
 18 19  1  1  0  0  0
 18 17  1  0  0  0  0
 21 26  2  0  0  0  0
 22 27  2  0  0  0  0
 23 26  1  0  0  0  0
 25 31  1  0  0  0  0
 25 23  1  0  0  0  0
 26 22  1  0  0  0  0
 28 35  1  0  0  0  0
 28 31  2  0  0  0  0
 29 22  1  0  0  0  0
 29 24  1  0  0  0  0
 30 28  1  0  0  0  0
 31 21  1  0  0  0  0
 32 30  2  0  0  0  0
 32 25  1  0  0  0  0
 33 20  1  1  0  0  0
 33 29  1  0  0  0  0
 34 23  2  0  0  0  0
 34 33  1  0  0  0  0
 35 36  1  0  0  0  0
 37 30  1  0  0  0  0
 38 37  1  0  0  0  0
M  END
>  <MODEL>
1

>  <REMARK>
 VINA RESULT:      -8.2      0.000      0.000
  Name = 
  12 active torsions:
  status: ('A' for Active; 'I' for Inactive)
    1  A    between atoms: C_4  and  C_12
    2  A    between atoms: C_4  and  N_21
    3  A    between atoms: O_9  and  C_14
    4  A    between atoms: C_12  and  C_24
    5  A    between atoms: C_13  and  C_32
    6  A    between atoms: C_16  and  O_28
    7  A    between atoms: N_21  and  C_32
    8  A    between atoms: C_22  and  C_30
    9  A    between atoms: C_26  and  C_31
   10  A    between atoms: C_26  and  C_35
   11  A    between atoms: C_27  and  C_38
   12  A    between atoms: C_30  and  C_31
                            x       y       z     vdW  Elec       q    Type
                         _______ _______ _______ _____ _____    ______ ____

>  <TORSDO>
F 12

$$$$
=
 OpenBabel10222421003D

 38 41  0  0  1  0  0  0  0  0999 V2000
  189.3360  177.4440  139.3380 C   0  0  0  0  0  2  0  0  0  0  0  0
  190.2010  176.8000  135.8430 O   0  0  0  0  0  0  0  0  0  0  0  0
  189.2370  177.4210  137.8850 N   0  0  0  0  0  0  0  0  0  0  0  0
  190.1850  176.6770  137.0980 C   0  0  0  0  0  0  0  0  0  0  0  0
  192.3650  176.4320  138.1250 O   0  0  0  0  0  0  0  0  0  0  0  0
  193.2970  176.3610  137.0700 C   0  0  0  0  0  2  0  0  0  0  0  0
  191.3620  174.4470  136.9720 C   0  0  0  0  0  2  0  0  0  0  0  0
  191.1700  175.7580  137.7580 C   0  0  2  0  0  3  0  0  0  0  0  0
  193.8210  174.9280  136.9020 C   0  0  2  0  0  3  0  0  0  0  0  0
  192.7510  173.8820  137.2340 C   0  0  0  0  0  2  0  0  0  0  0  0
  195.1010  174.6860  137.6990 C   0  0  0  0  0  2  0  0  0  0  0  0
  195.0630  173.3790  138.4810 C   0  0  0  0  0  2  0  0  0  0  0  0
  196.1400  172.4330  137.9790 C   0  0  0  0  0  2  0  0  0  0  0  0
  195.0440  170.2090  137.6060 C   0  0  0  0  0  1  0  0  0  0  0  0
  195.5800  171.4660  136.9460 C   0  0  0  0  0  2  0  0  0  0  0  0
  188.3100  178.3530  137.2490 C   0  0  0  0  0  2  0  0  0  0  0  0
  186.9640  178.0760  135.2770 O   0  0  0  0  0  1  0  0  0  0  0  0
  187.1420  177.6260  136.5850 C   0  0  2  0  0  3  0  0  0  0  0  0
  185.9160  177.8100  137.3420 N   0  0  0  0  0  1  0  0  0  0  0  0
  188.4890  178.5740  139.9010 C   0  0  0  0  0  2  0  0  0  0  0  0
  187.3920  177.4500  145.2820 C   0  0  0  0  0  3  0  0  0  0  0  0
  186.4230  178.1050  143.0230 C   0  0  0  0  0  0  0  0  0  0  0  0
  188.6970  177.5610  143.4450 C   0  0  0  0  0  0  0  0  0  0  0  0
  185.7420  178.8020  140.7790 C   0  0  0  0  0  1  0  0  0  0  0  0
  189.4920  177.2020  144.4500 N   0  0  0  0  0  0  0  0  0  0  0  0
  187.4160  177.6890  143.9010 C   0  0  0  0  0  0  0  0  0  0  0  0
  185.2340  178.2450  143.4240 O   0  0  0  0  0  0  0  0  0  0  0  0
  189.5570  177.0470  146.7110 C   0  0  0  0  0  0  0  0  0  0  0  0
  186.7720  178.3700  141.7200 N   0  0  0  0  0  0  0  0  0  0  0  0
  190.8390  177.0240  146.2780 C   0  0  0  0  0  0  0  0  0  0  0  0
  188.7330  177.1450  145.5310 C   0  0  0  0  0  0  0  0  0  0  0  0
  190.9030  177.1920  144.7710 C   0  0  0  0  0  3  0  0  0  0  0  0
  188.0830  178.2450  141.3010 C   0  0  2  0  0  3  0  0  0  0  0  0
  189.0570  177.8500  142.1760 N   0  0  0  0  0  0  0  0  0  0  0  0
  189.0710  177.0470  148.0220 O   0  0  0  0  0  0  0  0  0  0  0  0
  188.4130  178.1640  148.6000 C   0  0  0  0  0  1  0  0  0  0  0  0
  191.9830  176.8490  147.0590 O   0  0  0  0  0  0  0  0  0  0  0  0
  192.2830  175.6220  147.7050 C   0  0  0  0  0  1  0  0  0  0  0  0
  1 20  1  0  0  0  0
  2  4  2  0  0  0  0
  3  1  1  0  0  0  0
  4  3  1  0  0  0  0
  6  5  1  0  0  0  0
  7 10  1  0  0  0  0
  7  8  1  0  0  0  0
  8  4  1  6  0  0  0
  8  5  1  0  0  0  0
  9  6  1  0  0  0  0
  9 10  1  0  0  0  0
  9 11  1  1  0  0  0
 11 12  1  0  0  0  0
 13 12  1  0  0  0  0
 15 14  1  0  0  0  0
 15 13  1  0  0  0  0
 16  3  1  0  0  0  0
 18 17  1  6  0  0  0
 18 16  1  0  0  0  0
 18 19  1  0  0  0  0
 21 31  1  0  0  0  0
 22 27  2  0  0  0  0
 22 26  1  0  0  0  0
 23 26  1  0  0  0  0
 23 25  1  0  0  0  0
 24 29  1  0  0  0  0
 25 32  1  0  0  0  0
 25 31  1  0  0  0  0
 26 21  2  0  0  0  0
 28 35  1  0  0  0  0
 29 22  1  0  0  0  0
 30 28  1  0  0  0  0
 30 37  1  0  0  0  0
 31 28  2  0  0  0  0
 32 30  2  0  0  0  0
 33 20  1  1  0  0  0
 33 29  1  0  0  0  0
 33 34  1  0  0  0  0
 34 23  2  0  0  0  0
 35 36  1  0  0  0  0
 37 38  1  0  0  0  0
M  END
>  <MODEL>
2

>  <REMARK>
 VINA RESULT:      -7.8      3.587      7.394
  Name = 
  12 active torsions:
  status: ('A' for Active; 'I' for Inactive)
    1  A    between atoms: C_4  and  C_12
    2  A    between atoms: C_4  and  N_21
    3  A    between atoms: O_9  and  C_14
    4  A    between atoms: C_12  and  C_24
    5  A    between atoms: C_13  and  C_32
    6  A    between atoms: C_16  and  O_28
    7  A    between atoms: N_21  and  C_32
    8  A    between atoms: C_22  and  C_30
    9  A    between atoms: C_26  and  C_31
   10  A    between atoms: C_26  and  C_35
   11  A    between atoms: C_27  and  C_38
   12  A    between atoms: C_30  and  C_31
                            x       y       z     vdW  Elec       q    Type
                         _______ _______ _______ _____ _____    ______ ____

>  <TORSDO>
F 12

$$$$
=
 OpenBabel10222421003D

 38 41  0  0  1  0  0  0  0  0999 V2000
  188.8060  176.8500  142.9500 C   0  0  0  0  0  2  0  0  0  0  0  0
  191.8090  177.5150  140.9690 O   0  0  0  0  0  0  0  0  0  0  0  0
  190.1420  177.3180  142.6020 N   0  0  0  0  0  0  0  0  0  0  0  0
  190.6010  177.2750  141.2380 C   0  0  0  0  0  0  0  0  0  0  0  0
  190.2910  176.2010  139.0890 O   0  0  0  0  0  0  0  0  0  0  0  0
  190.8070  177.0890  138.1230 C   0  0  0  0  0  2  0  0  0  0  0  0
  188.8320  178.1550  139.6660 C   0  0  0  0  0  2  0  0  0  0  0  0
  189.6540  176.9350  140.1250 C   0  0  2  0  0  3  0  0  0  0  0  0
  189.6700  177.7580  137.3370 C   0  0  2  0  0  3  0  0  0  0  0  0
  188.4300  177.9910  138.2070 C   0  0  0  0  0  2  0  0  0  0  0  0
  189.3210  176.9900  136.0640 C   0  0  0  0  0  2  0  0  0  0  0  0
  190.4290  176.0350  135.6370 C   0  0  0  0  0  2  0  0  0  0  0  0
  189.8590  174.6520  135.3720 C   0  0  0  0  0  2  0  0  0  0  0  0
  191.6810  173.7360  136.8280 C   0  0  0  0  0  1  0  0  0  0  0  0
  190.2000  173.6940  136.5030 C   0  0  0  0  0  2  0  0  0  0  0  0
  191.0710  177.6000  143.6920 C   0  0  0  0  0  2  0  0  0  0  0  0
  191.8630  176.7780  145.8060 O   0  0  0  0  0  1  0  0  0  0  0  0
  191.2430  176.3970  144.6170 C   0  0  2  0  0  3  0  0  0  0  0  0
  192.0140  175.3490  143.9710 N   0  0  0  0  0  1  0  0  0  0  0  0
  188.5740  176.9970  144.4450 C   0  0  0  0  0  2  0  0  0  0  0  0
  183.3570  178.9820  144.9620 C   0  0  0  0  0  3  0  0  0  0  0  0
  185.5060  178.3540  146.1700 C   0  0  0  0  0  0  0  0  0  0  0  0
  185.1840  178.3160  143.8170 C   0  0  0  0  0  0  0  0  0  0  0  0
  187.6390  177.6110  147.1120 C   0  0  0  0  0  1  0  0  0  0  0  0
  184.2410  178.5630  142.9110 N   0  0  0  0  0  0  0  0  0  0  0  0
  184.6990  178.5890  145.0650 C   0  0  0  0  0  0  0  0  0  0  0  0
  185.0760  178.5830  147.3350 O   0  0  0  0  0  0  0  0  0  0  0  0
  182.0180  178.9540  142.7050 C   0  0  0  0  0  0  0  0  0  0  0  0
  186.7710  177.8580  145.9630 N   0  0  0  0  0  0  0  0  0  0  0  0
  182.4670  178.5840  141.4840 C   0  0  0  0  0  0  0  0  0  0  0  0
  183.1660  178.9440  143.5780 C   0  0  0  0  0  0  0  0  0  0  0  0
  183.9420  178.2340  141.5340 C   0  0  0  0  0  3  0  0  0  0  0  0
  187.2200  177.5800  144.6860 C   0  0  2  0  0  3  0  0  0  0  0  0
  186.4130  177.7990  143.6040 N   0  0  0  0  0  0  0  0  0  0  0  0
  180.7100  179.2330  143.1150 O   0  0  0  0  0  0  0  0  0  0  0  0
  179.9770  178.3870  143.9870 C   0  0  0  0  0  1  0  0  0  0  0  0
  181.7280  178.5360  140.3000 O   0  0  0  0  0  0  0  0  0  0  0  0
  180.6340  177.6510  140.1210 C   0  0  0  0  0  1  0  0  0  0  0  0
  1 20  1  0  0  0  0
  2  4  2  0  0  0  0
  3  1  1  0  0  0  0
  3 16  1  0  0  0  0
  4  3  1  0  0  0  0
  5  8  1  0  0  0  0
  6  5  1  0  0  0  0
  7  8  1  0  0  0  0
  8  4  1  1  0  0  0
  9 11  1  6  0  0  0
  9  6  1  0  0  0  0
  9 10  1  0  0  0  0
 10  7  1  0  0  0  0
 12 11  1  0  0  0  0
 13 12  1  0  0  0  0
 13 15  1  0  0  0  0
 15 14  1  0  0  0  0
 16 18  1  0  0  0  0
 18 19  1  6  0  0  0
 18 17  1  0  0  0  0
 21 26  2  0  0  0  0
 22 27  2  0  0  0  0
 23 26  1  0  0  0  0
 25 31  1  0  0  0  0
 25 23  1  0  0  0  0
 26 22  1  0  0  0  0
 28 35  1  0  0  0  0
 28 31  2  0  0  0  0
 29 22  1  0  0  0  0
 29 24  1  0  0  0  0
 30 32  2  0  0  0  0
 30 28  1  0  0  0  0
 31 21  1  0  0  0  0
 32 25  1  0  0  0  0
 33 20  1  1  0  0  0
 33 29  1  0  0  0  0
 34 23  2  0  0  0  0
 34 33  1  0  0  0  0
 35 36  1  0  0  0  0
 37 30  1  0  0  0  0
 38 37  1  0  0  0  0
M  END
>  <MODEL>
3

>  <REMARK>
 VINA RESULT:      -7.7      1.215      1.972
  Name = 
  12 active torsions:
  status: ('A' for Active; 'I' for Inactive)
    1  A    between atoms: C_4  and  C_12
    2  A    between atoms: C_4  and  N_21
    3  A    between atoms: O_9  and  C_14
    4  A    between atoms: C_12  and  C_24
    5  A    between atoms: C_13  and  C_32
    6  A    between atoms: C_16  and  O_28
    7  A    between atoms: N_21  and  C_32
    8  A    between atoms: C_22  and  C_30
    9  A    between atoms: C_26  and  C_31
   10  A    between atoms: C_26  and  C_35
   11  A    between atoms: C_27  and  C_38
   12  A    between atoms: C_30  and  C_31
                            x       y       z     vdW  Elec       q    Type
                         _______ _______ _______ _____ _____    ______ ____

>  <TORSDO>
F 12

$$$$
=
 OpenBabel10222421003D

 38 41  0  0  1  0  0  0  0  0999 V2000
  184.2620  178.5340  140.0500 C   0  0  0  0  0  2  0  0  0  0  0  0
  183.6510  177.5240  136.5880 O   0  0  0  0  0  0  0  0  0  0  0  0
  183.5420  178.1800  138.8330 N   0  0  0  0  0  0  0  0  0  0  0  0
  184.2480  177.6630  137.6900 C   0  0  0  0  0  0  0  0  0  0  0  0
  186.5480  178.4120  137.5720 O   0  0  0  0  0  0  0  0  0  0  0  0
  186.8660  178.5100  136.2020 C   0  0  0  0  0  2  0  0  0  0  0  0
  186.0380  176.0320  136.9750 C   0  0  0  0  0  2  0  0  0  0  0  0
  185.6980  177.2950  137.7910 C   0  0  2  0  0  3  0  0  0  0  0  0
  187.7920  177.3620  135.7740 C   0  0  2  0  0  3  0  0  0  0  0  0
  187.4970  176.0690  136.5440 C   0  0  0  0  0  2  0  0  0  0  0  0
  189.2670  177.7450  135.8750 C   0  0  0  0  0  2  0  0  0  0  0  0
  190.0010  176.9600  136.9550 C   0  0  0  0  0  2  0  0  0  0  0  0
  189.9780  177.7230  138.2680 C   0  0  0  0  0  2  0  0  0  0  0  0
  191.4910  177.3150  140.2230 C   0  0  0  0  0  1  0  0  0  0  0  0
  190.2960  176.8060  139.4390 C   0  0  0  0  0  2  0  0  0  0  0  0
  182.1440  178.5850  138.7250 C   0  0  0  0  0  2  0  0  0  0  0  0
  181.4540  180.8640  139.0500 O   0  0  0  0  0  1  0  0  0  0  0  0
  182.0020  179.9800  138.1210 C   0  0  2  0  0  3  0  0  0  0  0  0
  181.1800  179.9490  136.9240 N   0  0  0  0  0  1  0  0  0  0  0  0
  183.3060  178.5660  141.2320 C   0  0  0  0  0  2  0  0  0  0  0  0
  186.5830  178.1710  145.7620 C   0  0  0  0  0  3  0  0  0  0  0  0
  184.2500  178.6750  144.8820 C   0  0  0  0  0  0  0  0  0  0  0  0
  186.0890  177.9350  143.5730 C   0  0  0  0  0  0  0  0  0  0  0  0
  182.1190  179.1900  143.7950 C   0  0  0  0  0  1  0  0  0  0  0  0
  187.3710  177.6040  143.7070 N   0  0  0  0  0  0  0  0  0  0  0  0
  185.5700  178.2520  144.7970 C   0  0  0  0  0  0  0  0  0  0  0  0
  183.7510  178.9870  145.9990 O   0  0  0  0  0  0  0  0  0  0  0  0
  189.0960  177.6930  145.1740 C   0  0  0  0  0  0  0  0  0  0  0  0
  183.5120  178.7540  143.7250 N   0  0  0  0  0  0  0  0  0  0  0  0
  189.6320  177.4830  143.9500 C   0  0  0  0  0  0  0  0  0  0  0  0
  187.6670  177.7500  144.9870 C   0  0  0  0  0  0  0  0  0  0  0  0
  188.5530  177.4750  142.8830 C   0  0  0  0  0  3  0  0  0  0  0  0
  184.0780  178.4410  142.5040 C   0  0  2  0  0  3  0  0  0  0  0  0
  185.3830  178.0410  142.4260 N   0  0  0  0  0  0  0  0  0  0  0  0
  189.7460  177.8920  146.3970 O   0  0  0  0  0  0  0  0  0  0  0  0
  190.0510  176.8330  147.2900 C   0  0  0  0  0  1  0  0  0  0  0  0
  190.9790  177.2710  143.6510 O   0  0  0  0  0  0  0  0  0  0  0  0
  191.6020  176.0050  143.8030 C   0  0  0  0  0  1  0  0  0  0  0  0
  1 20  1  0  0  0  0
  2  4  2  0  0  0  0
  3  1  1  0  0  0  0
  4  3  1  0  0  0  0
  5  8  1  0  0  0  0
  6  5  1  0  0  0  0
  7  8  1  0  0  0  0
  8  4  1  6  0  0  0
  9 11  1  1  0  0  0
  9  6  1  0  0  0  0
  9 10  1  0  0  0  0
 10  7  1  0  0  0  0
 11 12  1  0  0  0  0
 12 13  1  0  0  0  0
 13 15  1  0  0  0  0
 15 14  1  0  0  0  0
 16  3  1  0  0  0  0
 18 19  1  6  0  0  0
 18 16  1  0  0  0  0
 18 17  1  0  0  0  0
 22 27  2  0  0  0  0
 23 25  1  0  0  0  0
 23 26  1  0  0  0  0
 25 31  1  0  0  0  0
 26 22  1  0  0  0  0
 26 21  2  0  0  0  0
 28 35  1  0  0  0  0
 29 24  1  0  0  0  0
 29 22  1  0  0  0  0
 30 28  1  0  0  0  0
 31 28  2  0  0  0  0
 31 21  1  0  0  0  0
 32 25  1  0  0  0  0
 32 30  2  0  0  0  0
 33 20  1  6  0  0  0
 33 29  1  0  0  0  0
 34 33  1  0  0  0  0
 34 23  2  0  0  0  0
 35 36  1  0  0  0  0
 37 38  1  0  0  0  0
 37 30  1  0  0  0  0
M  END
>  <MODEL>
4

>  <REMARK>
 VINA RESULT:      -7.7      2.128      6.697
  Name = 
  12 active torsions:
  status: ('A' for Active; 'I' for Inactive)
    1  A    between atoms: C_4  and  C_12
    2  A    between atoms: C_4  and  N_21
    3  A    between atoms: O_9  and  C_14
    4  A    between atoms: C_12  and  C_24
    5  A    between atoms: C_13  and  C_32
    6  A    between atoms: C_16  and  O_28
    7  A    between atoms: N_21  and  C_32
    8  A    between atoms: C_22  and  C_30
    9  A    between atoms: C_26  and  C_31
   10  A    between atoms: C_26  and  C_35
   11  A    between atoms: C_27  and  C_38
   12  A    between atoms: C_30  and  C_31
                            x       y       z     vdW  Elec       q    Type
                         _______ _______ _______ _____ _____    ______ ____

>  <TORSDO>
F 12

$$$$
=
 OpenBabel10222421003D

 38 41  0  0  1  0  0  0  0  0999 V2000
  184.3410  179.1200  141.0020 C   0  0  0  0  0  2  0  0  0  0  0  0
  182.2060  178.3840  143.8800 O   0  0  0  0  0  0  0  0  0  0  0  0
  183.1440  178.8360  141.7820 N   0  0  0  0  0  0  0  0  0  0  0  0
  183.1980  178.7990  143.2200 C   0  0  0  0  0  0  0  0  0  0  0  0
  185.6170  178.7560  143.3330 O   0  0  0  0  0  0  0  0  0  0  0  0
  185.9680  177.5090  143.8880 C   0  0  0  0  0  2  0  0  0  0  0  0
  184.3280  179.0050  145.4680 C   0  0  0  0  0  2  0  0  0  0  0  0
  184.4320  179.2410  143.9490 C   0  0  2  0  0  3  0  0  0  0  0  0
  186.4490  177.6730  145.3370 C   0  0  2  0  0  3  0  0  0  0  0  0
  185.7180  178.8110  146.0600 C   0  0  0  0  0  2  0  0  0  0  0  0
  187.9640  177.8430  145.4240 C   0  0  0  0  0  2  0  0  0  0  0  0
  188.4610  177.9090  146.8640 C   0  0  0  0  0  2  0  0  0  0  0  0
  189.4080  176.7560  147.1470 C   0  0  0  0  0  2  0  0  0  0  0  0
  191.7930  175.9870  147.0960 C   0  0  0  0  0  1  0  0  0  0  0  0
  190.8280  177.0960  146.7200 C   0  0  0  0  0  2  0  0  0  0  0  0
  181.9620  178.3610  141.0690 C   0  0  0  0  0  2  0  0  0  0  0  0
  179.8340  179.1870  141.8200 O   0  0  0  0  0  1  0  0  0  0  0  0
  180.8950  179.4470  140.9530 C   0  0  2  0  0  3  0  0  0  0  0  0
  180.4040  179.5530  139.5900 N   0  0  0  0  0  1  0  0  0  0  0  0
  184.0790  178.8590  139.5280 C   0  0  0  0  0  2  0  0  0  0  0  0
  188.8530  176.6660  137.5730 C   0  0  0  0  0  3  0  0  0  0  0  0
  186.3830  177.0800  137.1280 C   0  0  0  0  0  0  0  0  0  0  0  0
  187.5970  177.8690  139.0110 C   0  0  0  0  0  0  0  0  0  0  0  0
  183.9820  177.5240  136.9640 C   0  0  0  0  0  1  0  0  0  0  0  0
  188.8250  177.8300  139.5240 N   0  0  0  0  0  0  0  0  0  0  0  0
  187.5820  177.2040  137.8170 C   0  0  0  0  0  0  0  0  0  0  0  0
  186.3390  176.4580  136.0300 O   0  0  0  0  0  0  0  0  0  0  0  0
  190.8230  176.7840  139.3030 C   0  0  0  0  0  0  0  0  0  0  0  0
  185.2520  177.6370  137.6770 N   0  0  0  0  0  0  0  0  0  0  0  0
  190.8100  177.3510  140.5320 C   0  0  0  0  0  0  0  0  0  0  0  0
  189.5620  177.1190  138.6890 C   0  0  0  0  0  0  0  0  0  0  0  0
  189.4770  178.0230  140.8010 C   0  0  0  0  0  3  0  0  0  0  0  0
  185.3060  178.2880  138.8950 C   0  0  2  0  0  3  0  0  0  0  0  0
  186.4880  178.3920  139.5750 N   0  0  0  0  0  0  0  0  0  0  0  0
  191.8000  175.9710  138.7200 O   0  0  0  0  0  0  0  0  0  0  0  0
  192.5730  176.3770  137.6000 C   0  0  0  0  0  1  0  0  0  0  0  0
  191.8560  177.3680  141.4570 O   0  0  0  0  0  0  0  0  0  0  0  0
  191.6860  176.9600  142.8050 C   0  0  0  0  0  1  0  0  0  0  0  0
  1  3  1  0  0  0  0
  3  4  1  0  0  0  0
  4  2  2  0  0  0  0
  5  6  1  0  0  0  0
  5  8  1  0  0  0  0
  6  9  1  0  0  0  0
  7 10  1  0  0  0  0
  8  4  1  6  0  0  0
  8  7  1  0  0  0  0
  9 11  1  6  0  0  0
  9 10  1  0  0  0  0
 11 12  1  0  0  0  0
 12 13  1  0  0  0  0
 15 14  1  0  0  0  0
 15 13  1  0  0  0  0
 16  3  1  0  0  0  0
 18 19  1  6  0  0  0
 18 16  1  0  0  0  0
 18 17  1  0  0  0  0
 20  1  1  0  0  0  0
 21 26  2  0  0  0  0
 21 31  1  0  0  0  0
 22 29  1  0  0  0  0
 22 26  1  0  0  0  0
 23 25  1  0  0  0  0
 23 34  2  0  0  0  0
 24 29  1  0  0  0  0
 25 32  1  0  0  0  0
 26 23  1  0  0  0  0
 27 22  2  0  0  0  0
 28 30  1  0  0  0  0
 29 33  1  0  0  0  0
 30 32  2  0  0  0  0
 30 37  1  0  0  0  0
 31 28  2  0  0  0  0
 31 25  1  0  0  0  0
 33 20  1  1  0  0  0
 33 34  1  0  0  0  0
 35 28  1  0  0  0  0
 36 35  1  0  0  0  0
 37 38  1  0  0  0  0
M  END
>  <MODEL>
5

>  <REMARK>
 VINA RESULT:      -7.6      2.265      9.274
  Name = 
  12 active torsions:
  status: ('A' for Active; 'I' for Inactive)
    1  A    between atoms: C_4  and  C_12
    2  A    between atoms: C_4  and  N_21
    3  A    between atoms: O_9  and  C_14
    4  A    between atoms: C_12  and  C_24
    5  A    between atoms: C_13  and  C_32
    6  A    between atoms: C_16  and  O_28
    7  A    between atoms: N_21  and  C_32
    8  A    between atoms: C_22  and  C_30
    9  A    between atoms: C_26  and  C_31
   10  A    between atoms: C_26  and  C_35
   11  A    between atoms: C_27  and  C_38
   12  A    between atoms: C_30  and  C_31
                            x       y       z     vdW  Elec       q    Type
                         _______ _______ _______ _____ _____    ______ ____

>  <TORSDO>
F 12

$$$$
=
 OpenBabel10222421003D

 38 41  0  0  1  0  0  0  0  0999 V2000
  189.5390  176.8910  139.3820 C   0  0  0  0  0  2  0  0  0  0  0  0
  188.7850  176.6950  135.8080 O   0  0  0  0  0  0  0  0  0  0  0  0
  189.7210  176.9620  137.9380 N   0  0  0  0  0  0  0  0  0  0  0  0
  188.5980  176.8070  137.0500 C   0  0  0  0  0  0  0  0  0  0  0  0
  186.6440  175.4590  137.5310 O   0  0  0  0  0  0  0  0  0  0  0  0
  185.9720  175.2810  136.3050 C   0  0  0  0  0  2  0  0  0  0  0  0
  186.3170  177.8890  137.0110 C   0  0  0  0  0  2  0  0  0  0  0  0
  187.1990  176.7660  137.5890 C   0  0  2  0  0  3  0  0  0  0  0  0
  184.6950  176.1340  136.2540 C   0  0  2  0  0  3  0  0  0  0  0  0
  184.8570  177.4570  137.0110 C   0  0  0  0  0  2  0  0  0  0  0  0
  183.4690  175.3630  136.7380 C   0  0  0  0  0  2  0  0  0  0  0  0
  183.2890  175.4440  138.2490 C   0  0  0  0  0  2  0  0  0  0  0  0
  181.8120  175.4160  138.6050 C   0  0  0  0  0  2  0  0  0  0  0  0
  182.6330  177.3230  140.0100 C   0  0  0  0  0  1  0  0  0  0  0  0
  181.5210  176.3120  139.8000 C   0  0  0  0  0  2  0  0  0  0  0  0
  191.0860  176.9540  137.4210 C   0  0  0  0  0  2  0  0  0  0  0  0
  193.3070  176.7640  138.3190 O   0  0  0  0  0  1  0  0  0  0  0  0
  192.0360  176.1890  138.3400 C   0  0  2  0  0  3  0  0  0  0  0  0
  192.1200  174.7910  137.9570 N   0  0  0  0  0  1  0  0  0  0  0  0
  188.8930  178.1690  139.8910 C   0  0  0  0  0  2  0  0  0  0  0  0
  187.5380  177.4990  145.2890 C   0  0  0  0  0  3  0  0  0  0  0  0
  186.6930  178.0500  142.9540 C   0  0  0  0  0  0  0  0  0  0  0  0
  188.9110  177.4000  143.5010 C   0  0  0  0  0  0  0  0  0  0  0  0
  186.1370  178.6260  140.6410 C   0  0  0  0  0  1  0  0  0  0  0  0
  189.6450  177.0660  144.5600 N   0  0  0  0  0  0  0  0  0  0  0  0
  187.6250  177.6380  143.8970 C   0  0  0  0  0  0  0  0  0  0  0  0
  185.5020  178.2900  143.2960 O   0  0  0  0  0  0  0  0  0  0  0  0
  189.6210  177.0680  146.8260 C   0  0  0  0  0  0  0  0  0  0  0  0
  187.1040  178.2000  141.6500 N   0  0  0  0  0  0  0  0  0  0  0  0
  190.9130  176.9370  146.4470 C   0  0  0  0  0  0  0  0  0  0  0  0
  188.8470  177.1320  145.6100 C   0  0  0  0  0  0  0  0  0  0  0  0
  191.0410  176.9930  144.9360 C   0  0  0  0  0  3  0  0  0  0  0  0
  188.4180  177.9660  141.2930 C   0  0  2  0  0  3  0  0  0  0  0  0
  189.3330  177.5760  142.2310 N   0  0  0  0  0  0  0  0  0  0  0  0
  189.0900  177.1910  148.1140 O   0  0  0  0  0  0  0  0  0  0  0  0
  188.2830  178.2880  148.5140 C   0  0  0  0  0  1  0  0  0  0  0  0
  192.0160  176.7480  147.2830 O   0  0  0  0  0  0  0  0  0  0  0  0
  192.4440  175.4610  147.6990 C   0  0  0  0  0  1  0  0  0  0  0  0
  1 20  1  0  0  0  0
  2  4  2  0  0  0  0
  3  1  1  0  0  0  0
  4  3  1  0  0  0  0
  5  8  1  0  0  0  0
  6  5  1  0  0  0  0
  7  8  1  0  0  0  0
  8  4  1  6  0  0  0
  9  6  1  0  0  0  0
  9 11  1  1  0  0  0
  9 10  1  0  0  0  0
 10  7  1  0  0  0  0
 11 12  1  0  0  0  0
 12 13  1  0  0  0  0
 13 15  1  0  0  0  0
 15 14  1  0  0  0  0
 16  3  1  0  0  0  0
 16 18  1  0  0  0  0
 17 18  1  0  0  0  0
 18 19  1  6  0  0  0
 21 31  1  0  0  0  0
 22 27  2  0  0  0  0
 22 26  1  0  0  0  0
 23 26  1  0  0  0  0
 23 25  1  0  0  0  0
 24 29  1  0  0  0  0
 25 32  1  0  0  0  0
 25 31  1  0  0  0  0
 26 21  2  0  0  0  0
 28 35  1  0  0  0  0
 29 22  1  0  0  0  0
 30 28  1  0  0  0  0
 30 37  1  0  0  0  0
 31 28  2  0  0  0  0
 32 30  2  0  0  0  0
 33 20  1  1  0  0  0
 33 29  1  0  0  0  0
 33 34  1  0  0  0  0
 34 23  2  0  0  0  0
 35 36  1  0  0  0  0
 37 38  1  0  0  0  0
M  END
>  <MODEL>
6

>  <REMARK>
 VINA RESULT:      -7.5      2.509      6.349
  Name = 
  12 active torsions:
  status: ('A' for Active; 'I' for Inactive)
    1  A    between atoms: C_4  and  C_12
    2  A    between atoms: C_4  and  N_21
    3  A    between atoms: O_9  and  C_14
    4  A    between atoms: C_12  and  C_24
    5  A    between atoms: C_13  and  C_32
    6  A    between atoms: C_16  and  O_28
    7  A    between atoms: N_21  and  C_32
    8  A    between atoms: C_22  and  C_30
    9  A    between atoms: C_26  and  C_31
   10  A    between atoms: C_26  and  C_35
   11  A    between atoms: C_27  and  C_38
   12  A    between atoms: C_30  and  C_31
                            x       y       z     vdW  Elec       q    Type
                         _______ _______ _______ _____ _____    ______ ____

>  <TORSDO>
F 12

$$$$
=
 OpenBabel10222421003D

 38 41  0  0  1  0  0  0  0  0999 V2000
  191.4650  176.0910  139.0650 C   0  0  0  0  0  2  0  0  0  0  0  0
  191.1930  175.6520  135.4440 O   0  0  0  0  0  0  0  0  0  0  0  0
  191.7880  176.1770  137.6470 N   0  0  0  0  0  0  0  0  0  0  0  0
  190.8450  175.7380  136.6520 C   0  0  0  0  0  0  0  0  0  0  0  0
  189.3390  174.0030  137.4210 O   0  0  0  0  0  0  0  0  0  0  0  0
  189.0310  173.2150  136.2940 C   0  0  0  0  0  2  0  0  0  0  0  0
  188.4060  175.8510  136.0100 C   0  0  0  0  0  2  0  0  0  0  0  0
  189.4440  175.3670  137.0410 C   0  0  2  0  0  3  0  0  0  0  0  0
  187.5970  173.4860  135.8160 C   0  0  2  0  0  3  0  0  0  0  0  0
  187.1830  174.9440  136.0400 C   0  0  0  0  0  2  0  0  0  0  0  0
  186.5910  172.5200  136.4390 C   0  0  0  0  0  2  0  0  0  0  0  0
  185.8210  173.1470  137.5950 C   0  0  0  0  0  2  0  0  0  0  0  0
  184.3810  172.6630  137.5920 C   0  0  0  0  0  2  0  0  0  0  0  0
  183.2560  172.4690  135.3610 C   0  0  0  0  0  1  0  0  0  0  0  0
  184.1090  171.7620  136.3970 C   0  0  0  0  0  2  0  0  0  0  0  0
  193.1660  176.4920  137.2790 C   0  0  0  0  0  2  0  0  0  0  0  0
  194.8700  175.3740  138.5510 O   0  0  0  0  0  1  0  0  0  0  0  0
  194.0790  175.2750  137.4070 C   0  0  2  0  0  3  0  0  0  0  0  0
  194.9220  175.1300  136.2330 N   0  0  0  0  0  1  0  0  0  0  0  0
  191.3880  177.4830  139.6690 C   0  0  0  0  0  2  0  0  0  0  0  0
  188.2920  177.4990  144.3420 C   0  0  0  0  0  3  0  0  0  0  0  0
  188.3160  177.8690  141.8260 C   0  0  0  0  0  0  0  0  0  0  0  0
  190.1490  177.1000  143.1260 C   0  0  0  0  0  0  0  0  0  0  0  0
  188.6070  178.2430  139.4250 C   0  0  0  0  0  1  0  0  0  0  0  0
  190.4590  176.8190  144.3890 N   0  0  0  0  0  0  0  0  0  0  0  0
  188.8400  177.4820  143.0520 C   0  0  0  0  0  0  0  0  0  0  0  0
  187.1130  178.2410  141.7340 O   0  0  0  0  0  0  0  0  0  0  0  0
  189.7020  177.0610  146.5120 C   0  0  0  0  0  0  0  0  0  0  0  0
  189.1410  177.8470  140.7260 N   0  0  0  0  0  0  0  0  0  0  0  0
  191.0240  176.7850  146.5950 C   0  0  0  0  0  0  0  0  0  0  0  0
  189.3760  177.0600  145.1070 C   0  0  0  0  0  0  0  0  0  0  0  0
  191.6400  176.6710  145.2130 C   0  0  0  0  0  3  0  0  0  0  0  0
  190.4650  177.4690  140.8440 C   0  0  2  0  0  3  0  0  0  0  0  0
  190.9770  177.1050  142.0590 N   0  0  0  0  0  0  0  0  0  0  0  0
  188.8000  177.3630  147.5370 O   0  0  0  0  0  0  0  0  0  0  0  0
  188.9940  178.4360  148.4450 C   0  0  0  0  0  1  0  0  0  0  0  0
  191.7680  176.5950  147.7620 O   0  0  0  0  0  0  0  0  0  0  0  0
  192.7490  175.5770  147.8810 C   0  0  0  0  0  1  0  0  0  0  0  0
  1 20  1  0  0  0  0
  2  4  2  0  0  0  0
  3  1  1  0  0  0  0
  4  3  1  0  0  0  0
  6  5  1  0  0  0  0
  7 10  1  0  0  0  0
  7  8  1  0  0  0  0
  8  4  1  6  0  0  0
  8  5  1  0  0  0  0
  9 10  1  0  0  0  0
  9  6  1  0  0  0  0
  9 11  1  1  0  0  0
 11 12  1  0  0  0  0
 13 12  1  0  0  0  0
 14 15  1  0  0  0  0
 15 13  1  0  0  0  0
 16 18  1  0  0  0  0
 16  3  1  0  0  0  0
 18 19  1  6  0  0  0
 18 17  1  0  0  0  0
 21 31  1  0  0  0  0
 22 26  1  0  0  0  0
 23 25  1  0  0  0  0
 24 29  1  0  0  0  0
 25 31  1  0  0  0  0
 25 32  1  0  0  0  0
 26 23  1  0  0  0  0
 26 21  2  0  0  0  0
 27 22  2  0  0  0  0
 28 30  1  0  0  0  0
 28 35  1  0  0  0  0
 29 33  1  0  0  0  0
 29 22  1  0  0  0  0
 30 37  1  0  0  0  0
 31 28  2  0  0  0  0
 32 30  2  0  0  0  0
 33 20  1  1  0  0  0
 33 34  1  0  0  0  0
 34 23  2  0  0  0  0
 35 36  1  0  0  0  0
 37 38  1  0  0  0  0
M  END
>  <MODEL>
7

>  <REMARK>
 VINA RESULT:      -7.3      3.843      6.888
  Name = 
  12 active torsions:
  status: ('A' for Active; 'I' for Inactive)
    1  A    between atoms: C_4  and  C_12
    2  A    between atoms: C_4  and  N_21
    3  A    between atoms: O_9  and  C_14
    4  A    between atoms: C_12  and  C_24
    5  A    between atoms: C_13  and  C_32
    6  A    between atoms: C_16  and  O_28
    7  A    between atoms: N_21  and  C_32
    8  A    between atoms: C_22  and  C_30
    9  A    between atoms: C_26  and  C_31
   10  A    between atoms: C_26  and  C_35
   11  A    between atoms: C_27  and  C_38
   12  A    between atoms: C_30  and  C_31
                            x       y       z     vdW  Elec       q    Type
                         _______ _______ _______ _____ _____    ______ ____

>  <TORSDO>
F 12

$$$$
=
 OpenBabel10222421003D

 38 41  0  0  1  0  0  0  0  0999 V2000
  187.9730  177.5060  142.3560 C   0  0  0  0  0  2  0  0  0  0  0  0
  189.0700  178.2650  145.7620 O   0  0  0  0  0  0  0  0  0  0  0  0
  188.8580  177.7750  143.4820 N   0  0  0  0  0  0  0  0  0  0  0  0
  188.3350  177.8620  144.8200 C   0  0  0  0  0  0  0  0  0  0  0  0
  186.0660  177.6970  143.9870 O   0  0  0  0  0  0  0  0  0  0  0  0
  185.5300  178.9990  144.0330 C   0  0  0  0  0  2  0  0  0  0  0  0
  186.4110  178.0770  146.4400 C   0  0  0  0  0  2  0  0  0  0  0  0
  186.9120  177.4850  145.1090 C   0  0  2  0  0  3  0  0  0  0  0  0
  184.5170  179.1310  145.1800 C   0  0  2  0  0  3  0  0  0  0  0  0
  184.9010  178.2690  146.3880 C   0  0  0  0  0  2  0  0  0  0  0  0
  183.0890  178.8420  144.7220 C   0  0  0  0  0  2  0  0  0  0  0  0
  182.9030  179.0560  143.2250 C   0  0  0  0  0  2  0  0  0  0  0  0
  181.4270  179.0050  142.8660 C   0  0  0  0  0  2  0  0  0  0  0  0
  179.2940  178.9990  144.1820 C   0  0  0  0  0  1  0  0  0  0  0  0
  180.6240  178.3050  143.9510 C   0  0  0  0  0  2  0  0  0  0  0  0
  190.2280  178.1870  143.1890 C   0  0  0  0  0  2  0  0  0  0  0  0
  190.5480  175.8820  142.5920 O   0  0  0  0  0  1  0  0  0  0  0  0
  191.1810  176.9950  143.1440 C   0  0  2  0  0  3  0  0  0  0  0  0
  191.6770  176.6730  144.4710 N   0  0  0  0  0  1  0  0  0  0  0  0
  188.0410  178.6470  141.3540 C   0  0  0  0  0  2  0  0  0  0  0  0
  189.9900  176.4600  136.5750 C   0  0  0  0  0  3  0  0  0  0  0  0
  187.9610  177.3820  137.8000 C   0  0  0  0  0  0  0  0  0  0  0  0
  190.1780  177.3260  138.6500 C   0  0  0  0  0  0  0  0  0  0  0  0
  186.1470  178.2320  139.2070 C   0  0  0  0  0  1  0  0  0  0  0  0
  191.3980  176.9300  138.2940 N   0  0  0  0  0  0  0  0  0  0  0  0
  189.3060  177.0880  137.6250 C   0  0  0  0  0  0  0  0  0  0  0  0
  187.1320  177.1580  136.8740 O   0  0  0  0  0  0  0  0  0  0  0  0
  192.4980  175.7040  136.7370 C   0  0  0  0  0  0  0  0  0  0  0  0
  187.5570  177.9090  139.0050 N   0  0  0  0  0  0  0  0  0  0  0  0
  193.3360  175.8440  137.7910 C   0  0  0  0  0  0  0  0  0  0  0  0
  191.2910  176.4140  137.0830 C   0  0  0  0  0  0  0  0  0  0  0  0
  192.6600  176.5990  138.9200 C   0  0  0  0  0  3  0  0  0  0  0  0
  188.4680  178.1190  140.0230 C   0  0  2  0  0  3  0  0  0  0  0  0
  189.7890  177.8120  139.8480 N   0  0  0  0  0  0  0  0  0  0  0  0
  192.6820  174.9750  135.5580 O   0  0  0  0  0  0  0  0  0  0  0  0
  192.5690  173.5620  135.4990 C   0  0  0  0  0  1  0  0  0  0  0  0
  194.6560  175.3990  137.8750 O   0  0  0  0  0  0  0  0  0  0  0  0
  194.9940  174.1000  138.3360 C   0  0  0  0  0  1  0  0  0  0  0  0
  1  3  1  0  0  0  0
  3  4  1  0  0  0  0
  4  2  2  0  0  0  0
  5  6  1  0  0  0  0
  5  8  1  0  0  0  0
  6  9  1  0  0  0  0
  8  4  1  6  0  0  0
  8  7  1  0  0  0  0
  9 11  1  6  0  0  0
  9 10  1  0  0  0  0
 10  7  1  0  0  0  0
 12 11  1  0  0  0  0
 13 12  1  0  0  0  0
 13 15  1  0  0  0  0
 15 14  1  0  0  0  0
 16  3  1  0  0  0  0
 18 17  1  1  0  0  0
 18 16  1  0  0  0  0
 18 19  1  0  0  0  0
 20  1  1  0  0  0  0
 21 31  1  0  0  0  0
 21 26  2  0  0  0  0
 22 29  1  0  0  0  0
 23 34  2  0  0  0  0
 25 23  1  0  0  0  0
 25 32  1  0  0  0  0
 26 22  1  0  0  0  0
 26 23  1  0  0  0  0
 27 22  2  0  0  0  0
 28 31  2  0  0  0  0
 28 30  1  0  0  0  0
 29 24  1  0  0  0  0
 29 33  1  0  0  0  0
 30 37  1  0  0  0  0
 30 32  2  0  0  0  0
 31 25  1  0  0  0  0
 33 20  1  1  0  0  0
 34 33  1  0  0  0  0
 35 28  1  0  0  0  0
 36 35  1  0  0  0  0
 37 38  1  0  0  0  0
M  END
>  <MODEL>
8

>  <REMARK>
 VINA RESULT:      -7.3      2.515      8.793
  Name = 
  12 active torsions:
  status: ('A' for Active; 'I' for Inactive)
    1  A    between atoms: C_4  and  C_12
    2  A    between atoms: C_4  and  N_21
    3  A    between atoms: O_9  and  C_14
    4  A    between atoms: C_12  and  C_24
    5  A    between atoms: C_13  and  C_32
    6  A    between atoms: C_16  and  O_28
    7  A    between atoms: N_21  and  C_32
    8  A    between atoms: C_22  and  C_30
    9  A    between atoms: C_26  and  C_31
   10  A    between atoms: C_26  and  C_35
   11  A    between atoms: C_27  and  C_38
   12  A    between atoms: C_30  and  C_31
                            x       y       z     vdW  Elec       q    Type
                         _______ _______ _______ _____ _____    ______ ____

>  <TORSDO>
F 12

$$$$
=
 OpenBabel10222421003D

 38 41  0  0  1  0  0  0  0  0999 V2000
  187.4900  177.5140  142.1770 C   0  0  0  0  0  2  0  0  0  0  0  0
  191.0620  177.7070  141.4100 O   0  0  0  0  0  0  0  0  0  0  0  0
  188.7200  177.7470  141.4310 N   0  0  0  0  0  0  0  0  0  0  0  0
  189.9930  177.3500  141.9750 C   0  0  0  0  0  0  0  0  0  0  0  0
  189.4140  177.1430  144.3180 O   0  0  0  0  0  0  0  0  0  0  0  0
  190.3350  177.9390  145.0280 C   0  0  0  0  0  2  0  0  0  0  0  0
  191.4890  176.0030  143.4980 C   0  0  0  0  0  2  0  0  0  0  0  0
  190.0640  176.5170  143.2210 C   0  0  2  0  0  3  0  0  0  0  0  0
  191.3570  177.0620  145.7660 C   0  0  2  0  0  3  0  0  0  0  0  0
  191.6800  175.7790  144.9920 C   0  0  0  0  0  2  0  0  0  0  0  0
  190.9210  176.7530  147.1970 C   0  0  0  0  0  2  0  0  0  0  0  0
  189.4100  176.8310  147.3760 C   0  0  0  0  0  2  0  0  0  0  0  0
  189.0570  177.8780  148.4190 C   0  0  0  0  0  2  0  0  0  0  0  0
  187.0490  177.8700  146.9180 C   0  0  0  0  0  1  0  0  0  0  0  0
  187.7270  178.5430  148.0970 C   0  0  0  0  0  2  0  0  0  0  0  0
  188.6490  178.5980  140.2470 C   0  0  0  0  0  2  0  0  0  0  0  0
  189.4890  177.8530  138.1220 O   0  0  0  0  0  1  0  0  0  0  0  0
  188.3920  177.7860  138.9800 C   0  0  2  0  0  3  0  0  0  0  0  0
  187.2000  178.2530  138.2940 N   0  0  0  0  0  1  0  0  0  0  0  0
  186.8440  178.8400  142.5450 C   0  0  0  0  0  2  0  0  0  0  0  0
  181.4800  178.4150  140.9750 C   0  0  0  0  0  3  0  0  0  0  0  0
  183.0900  178.7620  142.9130 C   0  0  0  0  0  0  0  0  0  0  0  0
  183.7010  178.5910  140.6240 C   0  0  0  0  0  0  0  0  0  0  0  0
  184.8310  178.9970  144.6170 C   0  0  0  0  0  1  0  0  0  0  0  0
  183.1440  178.4130  139.4290 N   0  0  0  0  0  0  0  0  0  0  0  0
  182.7250  178.6300  141.5800 C   0  0  0  0  0  0  0  0  0  0  0  0
  182.2080  178.7860  143.8160 O   0  0  0  0  0  0  0  0  0  0  0  0
  181.1960  177.8200  138.4340 C   0  0  0  0  0  0  0  0  0  0  0  0
  184.4270  178.8510  143.2200 N   0  0  0  0  0  0  0  0  0  0  0  0
  182.1700  177.6770  137.5070 C   0  0  0  0  0  0  0  0  0  0  0  0
  181.8430  178.3000  139.6300 C   0  0  0  0  0  0  0  0  0  0  0  0
  183.5310  177.9880  138.1010 C   0  0  0  0  0  3  0  0  0  0  0  0
  185.3850  178.7910  142.2260 C   0  0  2  0  0  3  0  0  0  0  0  0
  185.0190  178.6450  140.9170 N   0  0  0  0  0  0  0  0  0  0  0  0
  179.8340  177.5160  138.3350 O   0  0  0  0  0  0  0  0  0  0  0  0
  179.3530  176.2060  138.0810 C   0  0  0  0  0  1  0  0  0  0  0  0
  182.0040  177.3190  136.1670 O   0  0  0  0  0  0  0  0  0  0  0  0
  181.5590  178.2400  135.1830 C   0  0  0  0  0  1  0  0  0  0  0  0
  1 20  1  0  0  0  0
  2  4  2  0  0  0  0
  3  4  1  0  0  0  0
  3  1  1  0  0  0  0
  5  6  1  0  0  0  0
  6  9  1  0  0  0  0
  7 10  1  0  0  0  0
  8  4  1  6  0  0  0
  8  7  1  0  0  0  0
  8  5  1  0  0  0  0
  9 11  1  1  0  0  0
 10  9  1  0  0  0  0
 11 12  1  0  0  0  0
 12 13  1  0  0  0  0
 14 15  1  0  0  0  0
 15 13  1  0  0  0  0
 16  3  1  0  0  0  0
 18 17  1  6  0  0  0
 18 16  1  0  0  0  0
 19 18  1  0  0  0  0
 21 26  2  0  0  0  0
 22 29  1  0  0  0  0
 22 27  2  0  0  0  0
 23 34  2  0  0  0  0
 23 26  1  0  0  0  0
 25 31  1  0  0  0  0
 25 23  1  0  0  0  0
 26 22  1  0  0  0  0
 28 31  2  0  0  0  0
 29 24  1  0  0  0  0
 30 32  2  0  0  0  0
 30 28  1  0  0  0  0
 31 21  1  0  0  0  0
 32 25  1  0  0  0  0
 33 20  1  1  0  0  0
 33 29  1  0  0  0  0
 34 33  1  0  0  0  0
 35 28  1  0  0  0  0
 36 35  1  0  0  0  0
 37 30  1  0  0  0  0
 38 37  1  0  0  0  0
M  END
>  <MODEL>
9

>  <REMARK>
 VINA RESULT:      -7.3      2.211      6.115
  Name = 
  12 active torsions:
  status: ('A' for Active; 'I' for Inactive)
    1  A    between atoms: C_4  and  C_12
    2  A    between atoms: C_4  and  N_21
    3  A    between atoms: O_9  and  C_14
    4  A    between atoms: C_12  and  C_24
    5  A    between atoms: C_13  and  C_32
    6  A    between atoms: C_16  and  O_28
    7  A    between atoms: N_21  and  C_32
    8  A    between atoms: C_22  and  C_30
    9  A    between atoms: C_26  and  C_31
   10  A    between atoms: C_26  and  C_35
   11  A    between atoms: C_27  and  C_38
   12  A    between atoms: C_30  and  C_31
                            x       y       z     vdW  Elec       q    Type
                         _______ _______ _______ _____ _____    ______ ____

>  <TORSDO>
F 12

$$$$
