=
 OpenBabel10222415233D

 47 53  0  0  1  0  0  0  0  0999 V2000
  192.3350  175.5070  138.5090 F   0  0  0  0  0  0  0  0  0  0  0  0
  188.8780  177.2130  140.6230 C   0  0  1  0  0  3  0  0  0  0  0  0
  190.4220  176.9460  138.5090 C   0  0  0  0  0  0  0  0  0  0  0  0
  188.2420  178.3370  138.4520 C   0  0  1  0  0  3  0  0  0  0  0  0
  189.3760  177.5050  136.3880 C   0  0  0  0  0  3  0  0  0  0  0  0
  188.3250  178.4740  139.9740 C   0  0  0  0  0  2  0  0  0  0  0  0
  190.6530  177.1830  140.2790 S   0  0  0  0  0  0  0  0  0  0  0  0
  191.3490  176.1430  137.8230 C   0  0  0  0  0  0  0  0  0  0  0  0
  189.3960  177.6060  137.7880 C   0  0  0  0  0  0  0  0  0  0  0  0
  191.2920  176.0340  136.4260 C   0  0  0  0  0  0  0  0  0  0  0  0
  190.3200  176.7340  135.7130 C   0  0  0  0  0  3  0  0  0  0  0  0
  189.5340  176.7410  144.3040 N   0  0  0  0  0  0  0  0  0  0  0  0
  186.2280  178.0310  144.9560 C   0  0  0  0  0  2  0  0  0  0  0  0
  186.8470  177.7070  146.2990 C   0  0  0  0  0  3  0  0  0  0  0  0
  188.6470  177.1870  142.1040 C   0  0  0  0  0  0  0  0  0  0  0  0
  187.4490  177.6600  142.6800 C   0  0  0  0  0  3  0  0  0  0  0  0
  188.0560  177.2340  146.2160 N   0  0  0  0  0  0  0  0  0  0  0  0
  189.6890  176.7390  142.9470 C   0  0  0  0  0  3  0  0  0  0  0  0
  188.3700  177.1870  144.8380 C   0  0  0  0  0  0  0  0  0  0  0  0
  187.3450  177.6360  144.0660 C   0  0  0  0  0  0  0  0  0  0  0  0
  185.7890  178.2440  138.4980 C   0  0  0  0  0  3  0  0  0  0  0  0
  186.9330  177.7150  138.0710 C   0  0  0  0  0  3  0  0  0  0  0  0
  184.2270  177.5090  138.0290 S   0  0  0  0  0  0  0  0  0  0  0  0
  182.1660  178.3880  141.3890 N   0  0  0  0  0  0  0  0  0  0  0  0
  183.4990  178.8980  141.7070 C   0  0  0  0  0  2  0  0  0  0  0  0
  182.2060  177.9910  139.9700 C   0  0  2  0  0  3  0  0  0  0  0  0
  184.4680  178.3780  140.6550 C   0  0  0  0  0  2  0  0  0  0  0  0
  183.6300  177.5010  139.7560 C   0  0  2  0  0  3  0  0  0  0  0  0
  180.7370  179.3190  135.5990 C   0  0  0  0  0  1  0  0  0  0  0  0
  179.9440  179.2310  136.8870 C   0  0  0  0  0  0  0  0  0  0  0  0
  178.9420  180.3090  137.2390 C   0  0  0  0  0  1  0  0  0  0  0  0
  181.8100  179.0920  139.0060 C   0  0  0  0  0  0  0  0  0  0  0  0
  180.7900  178.8440  138.0460 N   0  0  0  0  0  0  0  0  0  0  0  0
  179.7410  177.9780  137.4190 C   0  0  0  0  0  2  0  0  0  0  0  0
  182.3880  180.2130  139.0280 O   0  0  0  0  0  0  0  0  0  0  0  0
  181.1780  179.4210  141.6960 C   0  0  0  0  0  2  0  0  0  0  0  0
  180.1710  178.8830  142.5930 N   0  0  0  0  0  1  0  0  0  0  0  0
  192.3090  175.2350  135.6760 C   0  0  0  0  0  2  0  0  0  0  0  0
  193.3030  176.1170  135.0760 N   0  0  0  0  0  2  0  0  0  0  0  0
  196.0600  174.0470  136.2920 C   0  0  0  0  0  0  0  0  0  0  0  0
  197.1410  175.0710  136.4750 C   0  0  0  0  0  2  0  0  0  0  0  0
  197.1020  176.0630  135.3090 C   0  0  0  0  0  2  0  0  0  0  0  0
  196.3420  172.7240  136.3960 F   0  0  0  0  0  0  0  0  0  0  0  0
  194.5550  175.9190  135.7880 C   0  0  2  0  0  3  0  0  0  0  0  0
  195.6990  176.6540  135.0640 C   0  0  1  0  0  3  0  0  0  0  0  0
  195.6890  178.0030  135.4220 O   0  0  0  0  0  1  0  0  0  0  0  0
  194.8360  174.4470  135.9350 C   0  0  0  0  0  3  0  0  0  0  0  0
  2 15  1  1  0  0  0
  3  7  1  0  0  0  0
  4 22  1  1  0  0  0
  4  6  1  0  0  0  0
  5  9  1  0  0  0  0
  6  2  1  0  0  0  0
  7  2  1  0  0  0  0
  8  3  1  0  0  0  0
  8  1  1  0  0  0  0
  9  4  1  0  0  0  0
  9  3  2  0  0  0  0
 10  8  2  0  0  0  0
 11  5  2  0  0  0  0
 11 10  1  0  0  0  0
 12 19  2  0  0  0  0
 13 14  1  0  0  0  0
 15 16  1  0  0  0  0
 15 18  2  0  0  0  0
 16 20  2  0  0  0  0
 17 14  2  0  0  0  0
 18 12  1  0  0  0  0
 19 17  1  0  0  0  0
 20 19  1  0  0  0  0
 20 13  1  0  0  0  0
 22 21  2  0  0  0  0
 23 21  1  0  0  0  0
 24 36  1  0  0  0  0
 24 25  1  0  0  0  0
 26 32  1  6  0  0  0
 26 24  1  0  0  0  0
 27 25  1  0  0  0  0
 28 23  1  6  0  0  0
 28 26  1  0  0  0  0
 28 27  1  0  0  0  0
 29 30  1  0  0  0  0
 30 31  1  0  0  0  0
 30 34  1  0  0  0  0
 30 33  1  0  0  0  0
 32 35  2  0  0  0  0
 33 32  1  0  0  0  0
 34 33  1  0  0  0  0
 36 37  1  0  0  0  0
 38 10  1  0  0  0  0
 39 38  1  0  0  0  0
 40 43  1  0  0  0  0
 40 41  1  0  0  0  0
 42 41  1  0  0  0  0
 44 39  1  6  0  0  0
 44 47  1  0  0  0  0
 45 42  1  0  0  0  0
 45 46  1  1  0  0  0
 45 44  1  0  0  0  0
 47 40  2  0  0  0  0
M  END
>  <MODEL>
1

>  <REMARK>
 VINA RESULT:      -8.3      0.000      0.000
  Name = 
  9 active torsions:
  status: ('A' for Active; 'I' for Inactive)
    1  A    between atoms: C_2  and  S_16
    2  A    between atoms: C_7  and  C_17
    3  A    between atoms: C_10  and  C_21
    4  A    between atoms: S_16  and  C_46
    5  A    between atoms: C_19  and  N_29
    6  A    between atoms: C_19  and  C_37
    7  A    between atoms: N_20  and  C_30
    8  A    between atoms: C_22  and  C_31
    9  A    between atoms: C_26  and  N_29
                            x       y       z     vdW  Elec       q    Type
                         _______ _______ _______ _____ _____    ______ ____

>  <TORSDO>
F 9

$$$$
=
 OpenBabel10222415233D

 47 53  0  0  1  0  0  0  0  0999 V2000
  188.1200  178.0680  142.2900 F   0  0  0  0  0  0  0  0  0  0  0  0
  188.1390  176.9020  138.0510 C   0  0  1  0  0  3  0  0  0  0  0  0
  189.3230  177.7420  140.2460 C   0  0  0  0  0  0  0  0  0  0  0  0
  190.6480  177.1910  138.0950 C   0  0  1  0  0  3  0  0  0  0  0  0
  191.7180  177.3420  140.3460 C   0  0  0  0  0  3  0  0  0  0  0  0
  189.3630  177.3900  137.2870 C   0  0  0  0  0  2  0  0  0  0  0  0
  187.8110  178.1220  139.3450 S   0  0  0  0  0  0  0  0  0  0  0  0
  189.2900  177.8050  141.6500 C   0  0  0  0  0  0  0  0  0  0  0  0
  190.5460  177.4670  139.5840 C   0  0  0  0  0  0  0  0  0  0  0  0
  190.4700  177.6490  142.3920 C   0  0  0  0  0  0  0  0  0  0  0  0
  191.6820  177.4400  141.7360 C   0  0  0  0  0  3  0  0  0  0  0  0
  185.9890  175.8830  135.1280 N   0  0  0  0  0  0  0  0  0  0  0  0
  183.1790  177.4200  136.7890 C   0  0  0  0  0  2  0  0  0  0  0  0
  182.6640  176.8570  135.4810 C   0  0  0  0  0  3  0  0  0  0  0  0
  186.9360  176.7630  137.1670 C   0  0  0  0  0  0  0  0  0  0  0  0
  185.6670  177.2410  137.5540 C   0  0  0  0  0  3  0  0  0  0  0  0
  183.5780  176.2620  134.7740 N   0  0  0  0  0  0  0  0  0  0  0  0
  187.0690  176.0700  135.9420 C   0  0  0  0  0  3  0  0  0  0  0  0
  184.7790  176.3620  135.5110 C   0  0  0  0  0  0  0  0  0  0  0  0
  184.6020  177.0250  136.6860 C   0  0  0  0  0  0  0  0  0  0  0  0
  192.2400  175.6440  137.0430 C   0  0  0  0  0  3  0  0  0  0  0  0
  191.1930  175.8170  137.8470 C   0  0  0  0  0  3  0  0  0  0  0  0
  192.8980  174.0050  136.7620 S   0  0  0  0  0  0  0  0  0  0  0  0
  196.3120  174.6560  134.7060 N   0  0  0  0  0  0  0  0  0  0  0  0
  196.0780  175.9590  135.3280 C   0  0  0  0  0  2  0  0  0  0  0  0
  195.3110  173.7410  135.2810 C   0  0  2  0  0  3  0  0  0  0  0  0
  194.6680  175.9630  135.9010 C   0  0  0  0  0  2  0  0  0  0  0  0
  194.0930  174.6190  135.5240 C   0  0  2  0  0  3  0  0  0  0  0  0
  195.1250  169.8830  138.1290 C   0  0  0  0  0  1  0  0  0  0  0  0
  196.2020  170.2930  137.1450 C   0  0  0  0  0  0  0  0  0  0  0  0
  197.6630  170.1360  137.5070 C   0  0  0  0  0  1  0  0  0  0  0  0
  195.7750  173.0190  136.5310 C   0  0  0  0  0  0  0  0  0  0  0  0
  195.9150  171.6040  136.5060 N   0  0  0  0  0  0  0  0  0  0  0  0
  195.8750  170.2780  135.8080 C   0  0  0  0  0  2  0  0  0  0  0  0
  196.0150  173.6520  137.5950 O   0  0  0  0  0  0  0  0  0  0  0  0
  197.6980  174.2600  134.9470 C   0  0  0  0  0  2  0  0  0  0  0  0
  198.4120  175.3450  135.5950 N   0  0  0  0  0  1  0  0  0  0  0  0
  190.4620  177.7770  143.8810 C   0  0  0  0  0  2  0  0  0  0  0  0
  189.4700  176.8800  144.4610 N   0  0  0  0  0  2  0  0  0  0  0  0
  186.5760  177.9680  146.4110 C   0  0  0  0  0  0  0  0  0  0  0  0
  187.1940  178.1950  147.7580 C   0  0  0  0  0  2  0  0  0  0  0  0
  188.2060  177.0820  148.0460 C   0  0  0  0  0  2  0  0  0  0  0  0
  185.2270  178.0020  146.2590 F   0  0  0  0  0  0  0  0  0  0  0  0
  188.8500  177.5720  145.5800 C   0  0  2  0  0  3  0  0  0  0  0  0
  189.2220  176.8780  146.9040 C   0  0  1  0  0  3  0  0  0  0  0  0
  190.4840  177.3050  147.3180 O   0  0  0  0  0  1  0  0  0  0  0  0
  187.3600  177.6410  145.3790 C   0  0  0  0  0  3  0  0  0  0  0  0
  2 15  1  6  0  0  0
  2  7  1  0  0  0  0
  3  8  1  0  0  0  0
  4 22  1  1  0  0  0
  4  9  1  0  0  0  0
  5 11  2  0  0  0  0
  6  2  1  0  0  0  0
  6  4  1  0  0  0  0
  7  3  1  0  0  0  0
  8  1  1  0  0  0  0
  8 10  2  0  0  0  0
  9  3  2  0  0  0  0
  9  5  1  0  0  0  0
 10 38  1  0  0  0  0
 11 10  1  0  0  0  0
 12 19  2  0  0  0  0
 12 18  1  0  0  0  0
 14 13  1  0  0  0  0
 15 16  1  0  0  0  0
 17 14  2  0  0  0  0
 17 19  1  0  0  0  0
 18 15  2  0  0  0  0
 19 20  1  0  0  0  0
 20 13  1  0  0  0  0
 20 16  2  0  0  0  0
 21 22  2  0  0  0  0
 23 21  1  0  0  0  0
 24 36  1  0  0  0  0
 24 26  1  0  0  0  0
 24 25  1  0  0  0  0
 25 27  1  0  0  0  0
 26 28  1  0  0  0  0
 26 32  1  1  0  0  0
 28 27  1  0  0  0  0
 28 23  1  1  0  0  0
 30 31  1  0  0  0  0
 30 29  1  0  0  0  0
 32 35  2  0  0  0  0
 33 32  1  0  0  0  0
 33 30  1  0  0  0  0
 34 33  1  0  0  0  0
 34 30  1  0  0  0  0
 36 37  1  0  0  0  0
 38 39  1  0  0  0  0
 40 41  1  0  0  0  0
 41 42  1  0  0  0  0
 43 40  1  0  0  0  0
 44 39  1  6  0  0  0
 44 45  1  0  0  0  0
 45 46  1  1  0  0  0
 45 42  1  0  0  0  0
 47 44  1  0  0  0  0
 47 40  2  0  0  0  0
M  END
>  <MODEL>
2

>  <REMARK>
 VINA RESULT:      -8.3      3.940     11.953
  Name = 
  9 active torsions:
  status: ('A' for Active; 'I' for Inactive)
    1  A    between atoms: C_2  and  S_16
    2  A    between atoms: C_7  and  C_17
    3  A    between atoms: C_10  and  C_21
    4  A    between atoms: S_16  and  C_46
    5  A    between atoms: C_19  and  N_29
    6  A    between atoms: C_19  and  C_37
    7  A    between atoms: N_20  and  C_30
    8  A    between atoms: C_22  and  C_31
    9  A    between atoms: C_26  and  N_29
                            x       y       z     vdW  Elec       q    Type
                         _______ _______ _______ _____ _____    ______ ____

>  <TORSDO>
F 9

$$$$
=
 OpenBabel10222415233D

 47 53  0  0  1  0  0  0  0  0999 V2000
  186.7300  173.6530  136.3860 F   0  0  0  0  0  0  0  0  0  0  0  0
  190.0180  176.2240  137.7670 C   0  0  1  0  0  3  0  0  0  0  0  0
  187.5440  175.8290  136.9600 C   0  0  0  0  0  0  0  0  0  0  0  0
  188.3710  178.1400  137.7780 C   0  0  1  0  0  3  0  0  0  0  0  0
  185.9530  177.5370  137.6380 C   0  0  0  0  0  3  0  0  0  0  0  0
  189.8050  177.7020  137.4700 C   0  0  0  0  0  2  0  0  0  0  0  0
  189.1890  175.3020  136.4500 S   0  0  0  0  0  0  0  0  0  0  0  0
  186.4840  174.9180  136.8200 C   0  0  0  0  0  0  0  0  0  0  0  0
  187.2820  177.1470  137.4140 C   0  0  0  0  0  0  0  0  0  0  0  0
  185.1660  175.3220  137.0760 C   0  0  0  0  0  0  0  0  0  0  0  0
  184.9040  176.6350  137.4620 C   0  0  0  0  0  3  0  0  0  0  0  0
  193.7030  176.4200  138.5340 N   0  0  0  0  0  0  0  0  0  0  0  0
  194.0970  173.1900  136.9770 C   0  0  0  0  0  2  0  0  0  0  0  0
  195.4690  173.6240  137.4460 C   0  0  0  0  0  3  0  0  0  0  0  0
  191.4710  175.8560  137.8080 C   0  0  0  0  0  0  0  0  0  0  0  0
  191.9430  174.6270  137.3000 C   0  0  0  0  0  3  0  0  0  0  0  0
  195.4770  174.7810  138.0380 N   0  0  0  0  0  0  0  0  0  0  0  0
  192.3780  176.7390  138.4370 C   0  0  0  0  0  3  0  0  0  0  0  0
  194.1400  175.2410  138.0280 C   0  0  0  0  0  0  0  0  0  0  0  0
  193.3020  174.3570  137.4240 C   0  0  0  0  0  0  0  0  0  0  0  0
  188.2750  177.6150  140.1750 C   0  0  0  0  0  3  0  0  0  0  0  0
  188.2630  178.5400  139.2180 C   0  0  0  0  0  3  0  0  0  0  0  0
  188.1620  178.0970  141.8940 S   0  0  0  0  0  0  0  0  0  0  0  0
  191.1430  176.3740  144.0050 N   0  0  0  0  0  0  0  0  0  0  0  0
  191.8820  177.2280  143.0760 C   0  0  0  0  0  2  0  0  0  0  0  0
  189.7190  176.7100  143.8270 C   0  0  2  0  0  3  0  0  0  0  0  0
  190.9110  177.7230  142.0140 C   0  0  0  0  0  2  0  0  0  0  0  0
  189.5960  177.0620  142.3530 C   0  0  2  0  0  3  0  0  0  0  0  0
  186.0540  179.0660  145.8390 C   0  0  0  0  0  1  0  0  0  0  0  0
  186.9890  178.0460  146.4580 C   0  0  0  0  0  0  0  0  0  0  0  0
  187.5200  178.2520  147.8600 C   0  0  0  0  0  1  0  0  0  0  0  0
  189.2220  177.8140  144.7400 C   0  0  0  0  0  0  0  0  0  0  0  0
  188.0470  177.6030  145.5120 N   0  0  0  0  0  0  0  0  0  0  0  0
  186.9100  176.7530  145.9930 C   0  0  0  0  0  2  0  0  0  0  0  0
  189.8210  178.9210  144.8040 O   0  0  0  0  0  0  0  0  0  0  0  0
  191.6480  176.5990  145.3580 C   0  0  0  0  0  2  0  0  0  0  0  0
  192.0560  175.3350  145.9440 N   0  0  0  0  0  1  0  0  0  0  0  0
  184.0210  174.3820  136.8700 C   0  0  0  0  0  2  0  0  0  0  0  0
  183.7070  174.2730  135.4510 N   0  0  0  0  0  2  0  0  0  0  0  0
  183.1210  170.7020  135.9690 C   0  0  0  0  0  0  0  0  0  0  0  0
  181.6440  170.6050  135.7240 C   0  0  0  0  0  2  0  0  0  0  0  0
  180.9460  171.8130  136.3540 C   0  0  0  0  0  2  0  0  0  0  0  0
  183.8060  169.6420  136.4680 F   0  0  0  0  0  0  0  0  0  0  0  0
  182.9510  173.0450  135.2600 C   0  0  2  0  0  3  0  0  0  0  0  0
  181.5730  173.1590  135.9400 C   0  0  1  0  0  3  0  0  0  0  0  0
  180.6950  173.8490  135.1040 O   0  0  0  0  0  1  0  0  0  0  0  0
  183.7390  171.8710  135.7780 C   0  0  0  0  0  3  0  0  0  0  0  0
  1  8  1  0  0  0  0
  2 15  1  6  0  0  0
  3  9  1  0  0  0  0
  4 22  1  1  0  0  0
  6  2  1  0  0  0  0
  6  4  1  0  0  0  0
  7  3  1  0  0  0  0
  7  2  1  0  0  0  0
  8  3  2  0  0  0  0
  8 10  1  0  0  0  0
  9  5  2  0  0  0  0
  9  4  1  0  0  0  0
 10 11  2  0  0  0  0
 11  5  1  0  0  0  0
 13 20  1  0  0  0  0
 13 14  1  0  0  0  0
 14 17  2  0  0  0  0
 15 18  2  0  0  0  0
 16 20  2  0  0  0  0
 16 15  1  0  0  0  0
 18 12  1  0  0  0  0
 19 17  1  0  0  0  0
 19 12  2  0  0  0  0
 20 19  1  0  0  0  0
 21 23  1  0  0  0  0
 22 21  2  0  0  0  0
 24 36  1  0  0  0  0
 25 24  1  0  0  0  0
 26 24  1  0  0  0  0
 26 32  1  1  0  0  0
 27 28  1  0  0  0  0
 27 25  1  0  0  0  0
 28 23  1  1  0  0  0
 28 26  1  0  0  0  0
 29 30  1  0  0  0  0
 30 31  1  0  0  0  0
 32 35  2  0  0  0  0
 32 33  1  0  0  0  0
 33 34  1  0  0  0  0
 33 30  1  0  0  0  0
 34 30  1  0  0  0  0
 36 37  1  0  0  0  0
 38 10  1  0  0  0  0
 39 38  1  0  0  0  0
 40 43  1  0  0  0  0
 41 40  1  0  0  0  0
 41 42  1  0  0  0  0
 44 39  1  1  0  0  0
 44 47  1  0  0  0  0
 44 45  1  0  0  0  0
 45 46  1  6  0  0  0
 45 42  1  0  0  0  0
 47 40  2  0  0  0  0
M  END
>  <MODEL>
3

>  <REMARK>
 VINA RESULT:      -7.9      4.272      9.588
  Name = 
  9 active torsions:
  status: ('A' for Active; 'I' for Inactive)
    1  A    between atoms: C_2  and  S_16
    2  A    between atoms: C_7  and  C_17
    3  A    between atoms: C_10  and  C_21
    4  A    between atoms: S_16  and  C_46
    5  A    between atoms: C_19  and  N_29
    6  A    between atoms: C_19  and  C_37
    7  A    between atoms: N_20  and  C_30
    8  A    between atoms: C_22  and  C_31
    9  A    between atoms: C_26  and  N_29
                            x       y       z     vdW  Elec       q    Type
                         _______ _______ _______ _____ _____    ______ ____

>  <TORSDO>
F 9

$$$$
=
 OpenBabel10222415233D

 47 53  0  0  1  0  0  0  0  0999 V2000
  193.5090  176.0950  138.7140 F   0  0  0  0  0  0  0  0  0  0  0  0
  189.5920  176.9690  140.5100 C   0  0  1  0  0  3  0  0  0  0  0  0
  191.2340  176.7940  138.4610 C   0  0  0  0  0  0  0  0  0  0  0  0
  188.7240  177.3480  138.1670 C   0  0  1  0  0  3  0  0  0  0  0  0
  190.1600  176.5280  136.2960 C   0  0  0  0  0  3  0  0  0  0  0  0
  188.6880  177.8170  139.6240 C   0  0  0  0  0  2  0  0  0  0  0  0
  191.2930  177.4530  140.1350 S   0  0  0  0  0  0  0  0  0  0  0  0
  192.4020  176.2150  137.9350 C   0  0  0  0  0  0  0  0  0  0  0  0
  190.0820  176.9160  137.6420 C   0  0  0  0  0  0  0  0  0  0  0  0
  192.4470  175.8080  136.5940 C   0  0  0  0  0  0  0  0  0  0  0  0
  191.3340  175.9870  135.7750 C   0  0  0  0  0  3  0  0  0  0  0  0
  190.1780  177.7080  144.1590 N   0  0  0  0  0  0  0  0  0  0  0  0
  186.6200  177.4150  144.6850 C   0  0  0  0  0  2  0  0  0  0  0  0
  187.2400  177.7320  146.0300 C   0  0  0  0  0  3  0  0  0  0  0  0
  189.3140  177.1750  141.9680 C   0  0  0  0  0  0  0  0  0  0  0  0
  188.0020  177.1510  142.4880 C   0  0  0  0  0  3  0  0  0  0  0  0
  188.5320  177.8730  145.9880 N   0  0  0  0  0  0  0  0  0  0  0  0
  190.3940  177.4700  142.8310 C   0  0  0  0  0  3  0  0  0  0  0  0
  188.9110  177.6660  144.6420 C   0  0  0  0  0  0  0  0  0  0  0  0
  187.8410  177.3970  143.8470 C   0  0  0  0  0  0  0  0  0  0  0  0
  186.6100  176.5050  137.2450 C   0  0  0  0  0  3  0  0  0  0  0  0
  187.7080  176.2670  137.9590 C   0  0  0  0  0  3  0  0  0  0  0  0
  185.4070  175.2070  136.9840 S   0  0  0  0  0  0  0  0  0  0  0  0
  182.6220  177.7230  135.4930 N   0  0  0  0  0  0  0  0  0  0  0  0
  182.2330  176.4480  134.8930 C   0  0  0  0  0  2  0  0  0  0  0  0
  183.6920  177.4130  136.4580 C   0  0  2  0  0  3  0  0  0  0  0  0
  183.3610  175.4520  135.1230 C   0  0  0  0  0  2  0  0  0  0  0  0
  184.4340  176.2410  135.8340 C   0  0  2  0  0  3  0  0  0  0  0  0
  184.1880  177.9260  141.2030 C   0  0  0  0  0  1  0  0  0  0  0  0
  183.2050  178.6000  140.2670 C   0  0  0  0  0  0  0  0  0  0  0  0
  181.7630  178.7890  140.6850 C   0  0  0  0  0  1  0  0  0  0  0  0
  183.1970  177.1180  137.8600 C   0  0  0  0  0  0  0  0  0  0  0  0
  183.3300  178.1110  138.8690 N   0  0  0  0  0  0  0  0  0  0  0  0
  183.7180  179.4800  139.3410 C   0  0  0  0  0  2  0  0  0  0  0  0
  182.6930  175.9990  138.1480 O   0  0  0  0  0  0  0  0  0  0  0  0
  181.4410  178.3470  136.0850 C   0  0  0  0  0  2  0  0  0  0  0  0
  180.2410  177.7490  135.5300 N   0  0  0  0  0  1  0  0  0  0  0  0
  193.7030  175.2500  136.0030 C   0  0  0  0  0  2  0  0  0  0  0  0
  193.9070  173.8790  136.4530 N   0  0  0  0  0  2  0  0  0  0  0  0
  197.4050  174.9160  136.2350 C   0  0  0  0  0  0  0  0  0  0  0  0
  197.9960  174.2190  137.4250 C   0  0  0  0  0  2  0  0  0  0  0  0
  197.0200  174.3090  138.6010 C   0  0  0  0  0  2  0  0  0  0  0  0
  198.1340  175.8260  135.5410 F   0  0  0  0  0  0  0  0  0  0  0  0
  195.3250  173.7120  136.7280 C   0  0  2  0  0  3  0  0  0  0  0  0
  195.5920  173.8530  138.2390 C   0  0  1  0  0  3  0  0  0  0  0  0
  195.3090  172.6460  138.8790 O   0  0  0  0  0  1  0  0  0  0  0  0
  196.1250  174.6990  135.9210 C   0  0  0  0  0  3  0  0  0  0  0  0
  2 15  1  1  0  0  0
  3  7  1  0  0  0  0
  4 22  1  1  0  0  0
  4  6  1  0  0  0  0
  5  9  1  0  0  0  0
  6  2  1  0  0  0  0
  7  2  1  0  0  0  0
  8  3  1  0  0  0  0
  8  1  1  0  0  0  0
  9  4  1  0  0  0  0
  9  3  2  0  0  0  0
 10  8  2  0  0  0  0
 11  5  2  0  0  0  0
 11 10  1  0  0  0  0
 12 19  2  0  0  0  0
 13 14  1  0  0  0  0
 15 16  1  0  0  0  0
 15 18  2  0  0  0  0
 16 20  2  0  0  0  0
 17 14  2  0  0  0  0
 18 12  1  0  0  0  0
 19 17  1  0  0  0  0
 20 19  1  0  0  0  0
 20 13  1  0  0  0  0
 21 22  2  0  0  0  0
 23 21  1  0  0  0  0
 24 36  1  0  0  0  0
 24 26  1  0  0  0  0
 25 27  1  0  0  0  0
 25 24  1  0  0  0  0
 26 32  1  1  0  0  0
 27 28  1  0  0  0  0
 28 26  1  0  0  0  0
 28 23  1  1  0  0  0
 30 31  1  0  0  0  0
 30 29  1  0  0  0  0
 32 35  2  0  0  0  0
 32 33  1  0  0  0  0
 33 34  1  0  0  0  0
 33 30  1  0  0  0  0
 34 30  1  0  0  0  0
 37 36  1  0  0  0  0
 38 39  1  0  0  0  0
 38 10  1  0  0  0  0
 40 41  1  0  0  0  0
 41 42  1  0  0  0  0
 43 40  1  0  0  0  0
 44 39  1  1  0  0  0
 44 45  1  0  0  0  0
 45 42  1  0  0  0  0
 45 46  1  1  0  0  0
 47 40  2  0  0  0  0
 47 44  1  0  0  0  0
M  END
>  <MODEL>
4

>  <REMARK>
 VINA RESULT:      -7.9      2.146      3.370
  Name = 
  9 active torsions:
  status: ('A' for Active; 'I' for Inactive)
    1  A    between atoms: C_2  and  S_16
    2  A    between atoms: C_7  and  C_17
    3  A    between atoms: C_10  and  C_21
    4  A    between atoms: S_16  and  C_46
    5  A    between atoms: C_19  and  N_29
    6  A    between atoms: C_19  and  C_37
    7  A    between atoms: N_20  and  C_30
    8  A    between atoms: C_22  and  C_31
    9  A    between atoms: C_26  and  N_29
                            x       y       z     vdW  Elec       q    Type
                         _______ _______ _______ _____ _____    ______ ____

>  <TORSDO>
F 9

$$$$
=
 OpenBabel10222415233D

 47 53  0  0  1  0  0  0  0  0999 V2000
  186.9650  173.2880  136.2040 F   0  0  0  0  0  0  0  0  0  0  0  0
  190.0660  176.0190  137.7050 C   0  0  1  0  0  3  0  0  0  0  0  0
  187.6590  175.5070  136.7730 C   0  0  0  0  0  0  0  0  0  0  0  0
  188.3460  177.8660  137.5820 C   0  0  1  0  0  3  0  0  0  0  0  0
  185.9650  177.1610  137.3230 C   0  0  0  0  0  3  0  0  0  0  0  0
  189.8110  177.4810  137.3630 C   0  0  0  0  0  2  0  0  0  0  0  0
  189.3490  175.0380  136.3660 S   0  0  0  0  0  0  0  0  0  0  0  0
  186.6450  174.5500  136.5950 C   0  0  0  0  0  0  0  0  0  0  0  0
  187.3190  176.8220  137.1810 C   0  0  0  0  0  0  0  0  0  0  0  0
  185.3000  174.9050  136.7690 C   0  0  0  0  0  0  0  0  0  0  0  0
  184.9640  176.2140  137.1110 C   0  0  0  0  0  3  0  0  0  0  0  0
  193.6950  176.3930  138.6500 N   0  0  0  0  0  0  0  0  0  0  0  0
  194.2940  173.1250  137.2430 C   0  0  0  0  0  2  0  0  0  0  0  0
  195.6230  173.6310  137.7630 C   0  0  0  0  0  3  0  0  0  0  0  0
  191.5270  175.7120  137.8340 C   0  0  0  0  0  0  0  0  0  0  0  0
  192.0730  174.4860  137.4000 C   0  0  0  0  0  3  0  0  0  0  0  0
  195.5540  174.8090  138.3100 N   0  0  0  0  0  0  0  0  0  0  0  0
  192.3670  176.6540  138.4730 C   0  0  0  0  0  3  0  0  0  0  0  0
  194.2040  175.2140  138.2140 C   0  0  0  0  0  0  0  0  0  0  0  0
  193.4320  174.2750  137.6030 C   0  0  0  0  0  0  0  0  0  0  0  0
  188.5880  177.5310  140.0030 C   0  0  0  0  0  3  0  0  0  0  0  0
  188.1420  178.2900  139.0050 C   0  0  0  0  0  3  0  0  0  0  0  0
  188.3570  178.0490  141.7000 S   0  0  0  0  0  0  0  0  0  0  0  0
  191.0990  176.2670  144.0700 N   0  0  0  0  0  0  0  0  0  0  0  0
  191.9380  177.0920  143.2010 C   0  0  0  0  0  2  0  0  0  0  0  0
  189.7050  176.6390  143.7690 C   0  0  2  0  0  3  0  0  0  0  0  0
  191.0750  177.6020  142.0560 C   0  0  0  0  0  2  0  0  0  0  0  0
  189.7180  176.9800  142.2860 C   0  0  2  0  0  3  0  0  0  0  0  0
  185.9480  179.0940  145.4660 C   0  0  0  0  0  1  0  0  0  0  0  0
  186.8120  178.0650  146.1660 C   0  0  0  0  0  0  0  0  0  0  0  0
  187.2370  178.2780  147.6030 C   0  0  0  0  0  1  0  0  0  0  0  0
  189.1630  177.7640  144.6270 C   0  0  0  0  0  0  0  0  0  0  0  0
  187.9280  177.5870  145.3100 N   0  0  0  0  0  0  0  0  0  0  0  0
  186.7400  176.7670  145.7120 C   0  0  0  0  0  2  0  0  0  0  0  0
  189.7790  178.8610  144.7250 O   0  0  0  0  0  0  0  0  0  0  0  0
  191.4940  176.4910  145.4590 C   0  0  0  0  0  2  0  0  0  0  0  0
  192.1770  175.3160  145.9680 N   0  0  0  0  0  1  0  0  0  0  0  0
  184.2070  173.9150  136.5210 C   0  0  0  0  0  2  0  0  0  0  0  0
  182.9600  174.6050  136.2140 N   0  0  0  0  0  2  0  0  0  0  0  0
  180.5580  174.8530  138.9590 C   0  0  0  0  0  0  0  0  0  0  0  0
  179.5870  173.7660  138.6030 C   0  0  0  0  0  2  0  0  0  0  0  0
  179.3500  173.7750  137.0900 C   0  0  0  0  0  2  0  0  0  0  0  0
  180.2790  175.7220  139.9630 F   0  0  0  0  0  0  0  0  0  0  0  0
  181.9290  174.0610  137.0840 C   0  0  2  0  0  3  0  0  0  0  0  0
  180.6570  173.7560  136.2710 C   0  0  1  0  0  3  0  0  0  0  0  0
  180.7930  172.5220  135.6340 O   0  0  0  0  0  1  0  0  0  0  0  0
  181.6580  175.0140  138.2180 C   0  0  0  0  0  3  0  0  0  0  0  0
  1  8  1  0  0  0  0
  2 15  1  6  0  0  0
  3  9  1  0  0  0  0
  4 22  1  1  0  0  0
  6  4  1  0  0  0  0
  6  2  1  0  0  0  0
  7  3  1  0  0  0  0
  7  2  1  0  0  0  0
  8 10  1  0  0  0  0
  8  3  2  0  0  0  0
  9  5  2  0  0  0  0
  9  4  1  0  0  0  0
 10 11  2  0  0  0  0
 11  5  1  0  0  0  0
 13 20  1  0  0  0  0
 13 14  1  0  0  0  0
 14 17  2  0  0  0  0
 15 18  2  0  0  0  0
 16 20  2  0  0  0  0
 16 15  1  0  0  0  0
 18 12  1  0  0  0  0
 19 17  1  0  0  0  0
 19 12  2  0  0  0  0
 20 19  1  0  0  0  0
 21 23  1  0  0  0  0
 22 21  2  0  0  0  0
 24 36  1  0  0  0  0
 25 24  1  0  0  0  0
 26 24  1  0  0  0  0
 26 32  1  1  0  0  0
 27 28  1  0  0  0  0
 27 25  1  0  0  0  0
 28 23  1  1  0  0  0
 28 26  1  0  0  0  0
 29 30  1  0  0  0  0
 30 31  1  0  0  0  0
 32 35  2  0  0  0  0
 32 33  1  0  0  0  0
 33 34  1  0  0  0  0
 33 30  1  0  0  0  0
 34 30  1  0  0  0  0
 36 37  1  0  0  0  0
 38 10  1  0  0  0  0
 39 38  1  0  0  0  0
 40 43  1  0  0  0  0
 41 40  1  0  0  0  0
 42 41  1  0  0  0  0
 44 39  1  6  0  0  0
 44 47  1  0  0  0  0
 45 46  1  1  0  0  0
 45 44  1  0  0  0  0
 45 42  1  0  0  0  0
 47 40  2  0  0  0  0
M  END
>  <MODEL>
5

>  <REMARK>
 VINA RESULT:      -7.9      4.108      9.971
  Name = 
  9 active torsions:
  status: ('A' for Active; 'I' for Inactive)
    1  A    between atoms: C_2  and  S_16
    2  A    between atoms: C_7  and  C_17
    3  A    between atoms: C_10  and  C_21
    4  A    between atoms: S_16  and  C_46
    5  A    between atoms: C_19  and  N_29
    6  A    between atoms: C_19  and  C_37
    7  A    between atoms: N_20  and  C_30
    8  A    between atoms: C_22  and  C_31
    9  A    between atoms: C_26  and  N_29
                            x       y       z     vdW  Elec       q    Type
                         _______ _______ _______ _____ _____    ______ ____

>  <TORSDO>
F 9

$$$$
=
 OpenBabel10222415233D

 47 53  0  0  1  0  0  0  0  0999 V2000
  183.7820  178.8350  145.7380 F   0  0  0  0  0  0  0  0  0  0  0  0
  187.9220  177.6920  144.7980 C   0  0  1  0  0  3  0  0  0  0  0  0
  185.3770  177.9600  144.1840 C   0  0  0  0  0  0  0  0  0  0  0  0
  187.1400  177.2090  142.4450 C   0  0  1  0  0  3  0  0  0  0  0  0
  184.8990  178.1070  141.8050 C   0  0  0  0  0  3  0  0  0  0  0  0
  188.0430  176.7630  143.5980 C   0  0  0  0  0  2  0  0  0  0  0  0
  186.3300  177.3340  145.5780 S   0  0  0  0  0  0  0  0  0  0  0  0
  184.1650  178.6170  144.4530 C   0  0  0  0  0  0  0  0  0  0  0  0
  185.7710  177.7350  142.8400 C   0  0  0  0  0  0  0  0  0  0  0  0
  183.3230  179.0040  143.4010 C   0  0  0  0  0  0  0  0  0  0  0  0
  183.6830  178.7280  142.0830 C   0  0  0  0  0  3  0  0  0  0  0  0
  189.9190  177.9510  147.9840 N   0  0  0  0  0  0  0  0  0  0  0  0
  192.3020  175.6470  146.5590 C   0  0  0  0  0  2  0  0  0  0  0  0
  192.8050  176.0020  147.9420 C   0  0  0  0  0  3  0  0  0  0  0  0
  189.0300  177.4890  145.7880 C   0  0  0  0  0  0  0  0  0  0  0  0
  190.1060  176.6130  145.5330 C   0  0  0  0  0  3  0  0  0  0  0  0
  192.0330  176.8290  148.5820 N   0  0  0  0  0  0  0  0  0  0  0  0
  188.9530  178.1440  147.0380 C   0  0  0  0  0  3  0  0  0  0  0  0
  190.9530  177.1160  147.7150 C   0  0  0  0  0  0  0  0  0  0  0  0
  191.0630  176.4570  146.5300 C   0  0  0  0  0  0  0  0  0  0  0  0
  188.2280  177.8890  140.3510 C   0  0  0  0  0  3  0  0  0  0  0  0
  187.8640  178.2050  141.5920 C   0  0  0  0  0  3  0  0  0  0  0  0
  189.0780  179.0860  139.3300 S   0  0  0  0  0  0  0  0  0  0  0  0
  189.3230  176.5210  136.2200 N   0  0  0  0  0  0  0  0  0  0  0  0
  189.0990  175.6150  137.3450 C   0  0  0  0  0  2  0  0  0  0  0  0
  189.1630  177.8860  136.7530 C   0  0  2  0  0  3  0  0  0  0  0  0
  189.2790  176.4060  138.6330 C   0  0  0  0  0  2  0  0  0  0  0  0
  189.6720  177.7930  138.1840 C   0  0  2  0  0  3  0  0  0  0  0  0
  184.5030  177.1350  135.8880 C   0  0  0  0  0  1  0  0  0  0  0  0
  185.2120  177.3080  137.2160 C   0  0  0  0  0  0  0  0  0  0  0  0
  184.5820  178.1390  138.3120 C   0  0  0  0  0  1  0  0  0  0  0  0
  187.7490  178.4260  136.6650 C   0  0  0  0  0  0  0  0  0  0  0  0
  186.6610  177.5950  137.0490 N   0  0  0  0  0  0  0  0  0  0  0  0
  186.0930  176.3200  137.5950 C   0  0  0  0  0  2  0  0  0  0  0  0
  187.5250  179.5900  136.2350 O   0  0  0  0  0  0  0  0  0  0  0  0
  188.3900  176.1830  135.1470 C   0  0  0  0  0  2  0  0  0  0  0  0
  188.3200  174.7410  134.9960 N   0  0  0  0  0  1  0  0  0  0  0  0
  182.0000  179.6480  143.6730 C   0  0  0  0  0  2  0  0  0  0  0  0
  180.9570  178.6350  143.7730 N   0  0  0  0  0  2  0  0  0  0  0  0
  179.7330  180.4800  140.8640 C   0  0  0  0  0  0  0  0  0  0  0  0
  178.9320  179.4260  140.1590 C   0  0  0  0  0  2  0  0  0  0  0  0
  179.6790  178.0910  140.2290 C   0  0  0  0  0  2  0  0  0  0  0  0
  179.9820  181.6710  140.2620 F   0  0  0  0  0  0  0  0  0  0  0  0
  180.0190  178.8590  142.6840 C   0  0  2  0  0  3  0  0  0  0  0  0
  180.1120  177.7120  141.6600 C   0  0  1  0  0  3  0  0  0  0  0  0
  179.3590  176.6250  142.1050 O   0  0  0  0  0  1  0  0  0  0  0  0
  180.2770  180.2010  142.0520 C   0  0  0  0  0  3  0  0  0  0  0  0
  2  7  1  0  0  0  0
  2 15  1  1  0  0  0
  3  8  1  0  0  0  0
  3  7  1  0  0  0  0
  4 22  1  1  0  0  0
  4  9  1  0  0  0  0
  4  6  1  0  0  0  0
  5 11  2  0  0  0  0
  5  9  1  0  0  0  0
  6  2  1  0  0  0  0
  8  1  1  0  0  0  0
  9  3  2  0  0  0  0
 10 38  1  0  0  0  0
 10  8  2  0  0  0  0
 11 10  1  0  0  0  0
 13 14  1  0  0  0  0
 14 17  2  0  0  0  0
 15 18  2  0  0  0  0
 16 15  1  0  0  0  0
 16 20  2  0  0  0  0
 18 12  1  0  0  0  0
 19 12  2  0  0  0  0
 19 17  1  0  0  0  0
 20 13  1  0  0  0  0
 20 19  1  0  0  0  0
 21 22  2  0  0  0  0
 23 21  1  0  0  0  0
 24 26  1  0  0  0  0
 24 25  1  0  0  0  0
 25 27  1  0  0  0  0
 26 32  1  1  0  0  0
 26 28  1  0  0  0  0
 28 27  1  0  0  0  0
 28 23  1  1  0  0  0
 29 30  1  0  0  0  0
 30 34  1  0  0  0  0
 30 31  1  0  0  0  0
 32 33  1  0  0  0  0
 33 30  1  0  0  0  0
 33 34  1  0  0  0  0
 35 32  2  0  0  0  0
 36 24  1  0  0  0  0
 37 36  1  0  0  0  0
 38 39  1  0  0  0  0
 40 47  2  0  0  0  0
 41 42  1  0  0  0  0
 41 40  1  0  0  0  0
 42 45  1  0  0  0  0
 43 40  1  0  0  0  0
 44 39  1  1  0  0  0
 45 46  1  1  0  0  0
 45 44  1  0  0  0  0
 47 44  1  0  0  0  0
M  END
>  <MODEL>
6

>  <REMARK>
 VINA RESULT:      -7.6      4.736      9.978
  Name = 
  9 active torsions:
  status: ('A' for Active; 'I' for Inactive)
    1  A    between atoms: C_2  and  S_16
    2  A    between atoms: C_7  and  C_17
    3  A    between atoms: C_10  and  C_21
    4  A    between atoms: S_16  and  C_46
    5  A    between atoms: C_19  and  N_29
    6  A    between atoms: C_19  and  C_37
    7  A    between atoms: N_20  and  C_30
    8  A    between atoms: C_22  and  C_31
    9  A    between atoms: C_26  and  N_29
                            x       y       z     vdW  Elec       q    Type
                         _______ _______ _______ _____ _____    ______ ____

>  <TORSDO>
F 9

$$$$
=
 OpenBabel10222415233D

 47 53  0  0  1  0  0  0  0  0999 V2000
  182.7370  178.0840  143.5000 F   0  0  0  0  0  0  0  0  0  0  0  0
  182.9290  177.2150  139.1940 C   0  0  1  0  0  3  0  0  0  0  0  0
  183.7530  178.4550  141.3650 C   0  0  0  0  0  0  0  0  0  0  0  0
  184.9750  178.6940  139.0980 C   0  0  1  0  0  3  0  0  0  0  0  0
  186.0390  179.2760  141.2810 C   0  0  0  0  0  3  0  0  0  0  0  0
  183.6870  178.2640  138.3920 C   0  0  0  0  0  2  0  0  0  0  0  0
  182.1710  178.0750  140.5930 S   0  0  0  0  0  0  0  0  0  0  0  0
  183.8220  178.4480  142.7690 C   0  0  0  0  0  0  0  0  0  0  0  0
  184.8890  178.8360  140.6070 C   0  0  0  0  0  0  0  0  0  0  0  0
  184.9920  178.8660  143.4200 C   0  0  0  0  0  0  0  0  0  0  0  0
  186.0870  179.2990  142.6740 C   0  0  0  0  0  3  0  0  0  0  0  0
  180.1890  176.7050  136.6580 N   0  0  0  0  0  0  0  0  0  0  0  0
  180.1750  173.2030  137.5270 C   0  0  0  0  0  2  0  0  0  0  0  0
  179.1230  173.3950  136.4550 C   0  0  0  0  0  3  0  0  0  0  0  0
  181.8700  176.5330  138.3820 C   0  0  0  0  0  0  0  0  0  0  0  0
  181.6380  175.1450  138.4740 C   0  0  0  0  0  3  0  0  0  0  0  0
  179.0220  174.6220  136.0370 N   0  0  0  0  0  0  0  0  0  0  0  0
  181.1320  177.2960  137.4490 C   0  0  0  0  0  3  0  0  0  0  0  0
  179.9710  175.3710  136.7710 C   0  0  0  0  0  0  0  0  0  0  0  0
  180.6640  174.5960  137.6480 C   0  0  0  0  0  0  0  0  0  0  0  0
  186.7410  177.9410  137.5660 C   0  0  0  0  0  3  0  0  0  0  0  0
  186.0930  177.7710  138.7160 C   0  0  0  0  0  3  0  0  0  0  0  0
  188.0860  176.8490  137.1210 S   0  0  0  0  0  0  0  0  0  0  0  0
  191.2250  177.4820  139.5810 N   0  0  0  0  0  0  0  0  0  0  0  0
  190.1610  177.1440  140.5260 C   0  0  0  0  0  2  0  0  0  0  0  0
  190.6710  177.2440  138.2360 C   0  0  2  0  0  3  0  0  0  0  0  0
  188.8370  177.1650  139.7750 C   0  0  0  0  0  2  0  0  0  0  0  0
  189.1960  177.5880  138.3700 C   0  0  2  0  0  3  0  0  0  0  0  0
  191.8340  174.3440  134.5940 C   0  0  0  0  0  1  0  0  0  0  0  0
  192.6720  174.7670  135.7830 C   0  0  0  0  0  0  0  0  0  0  0  0
  193.5520  173.7600  136.4910 C   0  0  0  0  0  1  0  0  0  0  0  0
  190.9040  175.8420  137.7080 C   0  0  0  0  0  0  0  0  0  0  0  0
  191.9150  175.6240  136.7320 N   0  0  0  0  0  0  0  0  0  0  0  0
  193.0380  176.0920  135.8580 C   0  0  0  0  0  2  0  0  0  0  0  0
  190.1990  174.8740  138.1050 O   0  0  0  0  0  0  0  0  0  0  0  0
  192.4080  176.6830  139.8950 C   0  0  0  0  0  2  0  0  0  0  0  0
  193.6060  177.4660  139.6540 N   0  0  0  0  0  1  0  0  0  0  0  0
  185.0600  178.9260  144.9120 C   0  0  0  0  0  2  0  0  0  0  0  0
  185.6750  177.7140  145.4390 N   0  0  0  0  0  2  0  0  0  0  0  0
  187.9910  178.0670  148.2450 C   0  0  0  0  0  0  0  0  0  0  0  0
  189.3150  178.0610  147.5390 C   0  0  0  0  0  2  0  0  0  0  0  0
  189.2870  177.0170  146.4190 C   0  0  0  0  0  2  0  0  0  0  0  0
  187.9340  178.0000  149.5990 F   0  0  0  0  0  0  0  0  0  0  0  0
  186.9550  178.0850  146.0210 C   0  0  2  0  0  3  0  0  0  0  0  0
  188.0670  177.1640  145.4860 C   0  0  1  0  0  3  0  0  0  0  0  0
  188.4860  177.6150  144.2340 O   0  0  0  0  0  1  0  0  0  0  0  0
  186.8670  178.0480  147.5230 C   0  0  0  0  0  3  0  0  0  0  0  0
  2 15  1  6  0  0  0
  2  7  1  0  0  0  0
  3  8  1  0  0  0  0
  4 22  1  1  0  0  0
  4  9  1  0  0  0  0
  5 11  2  0  0  0  0
  6  4  1  0  0  0  0
  6  2  1  0  0  0  0
  7  3  1  0  0  0  0
  8 10  2  0  0  0  0
  8  1  1  0  0  0  0
  9  5  1  0  0  0  0
  9  3  2  0  0  0  0
 10 38  1  0  0  0  0
 11 10  1  0  0  0  0
 12 19  2  0  0  0  0
 12 18  1  0  0  0  0
 13 20  1  0  0  0  0
 14 13  1  0  0  0  0
 15 16  1  0  0  0  0
 17 14  2  0  0  0  0
 17 19  1  0  0  0  0
 18 15  2  0  0  0  0
 19 20  1  0  0  0  0
 20 16  2  0  0  0  0
 21 22  2  0  0  0  0
 23 21  1  0  0  0  0
 24 36  1  0  0  0  0
 24 25  1  0  0  0  0
 26 32  1  1  0  0  0
 26 28  1  0  0  0  0
 26 24  1  0  0  0  0
 27 25  1  0  0  0  0
 28 23  1  6  0  0  0
 28 27  1  0  0  0  0
 29 30  1  0  0  0  0
 30 34  1  0  0  0  0
 30 31  1  0  0  0  0
 30 33  1  0  0  0  0
 32 35  2  0  0  0  0
 33 32  1  0  0  0  0
 34 33  1  0  0  0  0
 37 36  1  0  0  0  0
 38 39  1  0  0  0  0
 40 43  1  0  0  0  0
 41 40  1  0  0  0  0
 42 41  1  0  0  0  0
 44 39  1  6  0  0  0
 44 47  1  0  0  0  0
 45 46  1  6  0  0  0
 45 44  1  0  0  0  0
 45 42  1  0  0  0  0
 47 40  2  0  0  0  0
M  END
>  <MODEL>
7

>  <REMARK>
 VINA RESULT:      -7.3      4.052     10.625
  Name = 
  9 active torsions:
  status: ('A' for Active; 'I' for Inactive)
    1  A    between atoms: C_2  and  S_16
    2  A    between atoms: C_7  and  C_17
    3  A    between atoms: C_10  and  C_21
    4  A    between atoms: S_16  and  C_46
    5  A    between atoms: C_19  and  N_29
    6  A    between atoms: C_19  and  C_37
    7  A    between atoms: N_20  and  C_30
    8  A    between atoms: C_22  and  C_31
    9  A    between atoms: C_26  and  N_29
                            x       y       z     vdW  Elec       q    Type
                         _______ _______ _______ _____ _____    ______ ____

>  <TORSDO>
F 9

$$$$
=
 OpenBabel10222415233D

 47 53  0  0  1  0  0  0  0  0999 V2000
  187.6690  177.2820  143.4580 F   0  0  0  0  0  0  0  0  0  0  0  0
  184.5290  178.0410  140.4760 C   0  0  1  0  0  3  0  0  0  0  0  0
  187.0340  178.0510  141.2820 C   0  0  0  0  0  0  0  0  0  0  0  0
  186.3650  178.6860  138.8660 C   0  0  1  0  0  3  0  0  0  0  0  0
  188.6910  178.0410  139.5040 C   0  0  0  0  0  3  0  0  0  0  0  0
  184.9540  178.9970  139.3700 C   0  0  0  0  0  2  0  0  0  0  0  0
  185.4360  178.5260  141.9630 S   0  0  0  0  0  0  0  0  0  0  0  0
  187.9910  177.5080  142.1570 C   0  0  0  0  0  0  0  0  0  0  0  0
  187.3750  178.2850  139.9260 C   0  0  0  0  0  0  0  0  0  0  0  0
  189.2920  177.2470  141.7060 C   0  0  0  0  0  0  0  0  0  0  0  0
  189.6430  177.5350  140.3880 C   0  0  0  0  0  3  0  0  0  0  0  0
  180.8360  177.3830  140.1040 N   0  0  0  0  0  0  0  0  0  0  0  0
  180.2910  179.3370  143.0880 C   0  0  0  0  0  2  0  0  0  0  0  0
  178.9320  178.8670  142.6140 C   0  0  0  0  0  3  0  0  0  0  0  0
  183.0540  178.0950  140.7390 C   0  0  0  0  0  0  0  0  0  0  0  0
  182.5210  178.7650  141.8600 C   0  0  0  0  0  3  0  0  0  0  0  0
  178.9780  178.1380  141.5390 N   0  0  0  0  0  0  0  0  0  0  0  0
  182.1820  177.3950  139.8740 C   0  0  0  0  0  3  0  0  0  0  0  0
  180.3420  178.0450  141.1800 C   0  0  0  0  0  0  0  0  0  0  0  0
  181.1430  178.7230  142.0440 C   0  0  0  0  0  0  0  0  0  0  0  0
  185.1630  177.4470  137.1190 C   0  0  0  0  0  3  0  0  0  0  0  0
  186.2990  177.6550  137.7800 C   0  0  0  0  0  3  0  0  0  0  0  0
  185.0910  176.2270  135.8130 S   0  0  0  0  0  0  0  0  0  0  0  0
  183.1360  173.0160  137.2880 N   0  0  0  0  0  0  0  0  0  0  0  0
  182.1130  173.6350  136.4480 C   0  0  0  0  0  2  0  0  0  0  0  0
  184.3840  173.7550  137.0290 C   0  0  2  0  0  3  0  0  0  0  0  0
  182.6010  175.0220  136.0520 C   0  0  0  0  0  2  0  0  0  0  0  0
  183.9270  175.1810  136.7560 C   0  0  2  0  0  3  0  0  0  0  0  0
  188.6970  173.0500  135.0470 C   0  0  0  0  0  1  0  0  0  0  0  0
  187.8220  172.0720  135.8050 C   0  0  0  0  0  0  0  0  0  0  0  0
  187.6840  170.6430  135.3250 C   0  0  0  0  0  1  0  0  0  0  0  0
  185.2250  173.1810  135.9060 C   0  0  0  0  0  0  0  0  0  0  0  0
  186.5180  172.6660  136.1970 N   0  0  0  0  0  0  0  0  0  0  0  0
  187.6220  172.3120  137.1460 C   0  0  0  0  0  2  0  0  0  0  0  0
  184.8040  173.1760  134.7170 O   0  0  0  0  0  0  0  0  0  0  0  0
  183.2060  171.5900  136.9740 C   0  0  0  0  0  2  0  0  0  0  0  0
  182.3030  171.2850  135.8800 N   0  0  0  0  0  1  0  0  0  0  0  0
  190.3390  176.7290  142.6400 C   0  0  0  0  0  2  0  0  0  0  0  0
  190.5570  177.6740  143.7280 N   0  0  0  0  0  2  0  0  0  0  0  0
  191.8690  175.9960  146.6990 C   0  0  0  0  0  0  0  0  0  0  0  0
  190.7020  176.0960  147.6360 C   0  0  0  0  0  2  0  0  0  0  0  0
  190.0570  177.4780  147.4970 C   0  0  0  0  0  2  0  0  0  0  0  0
  193.0730  175.5570  147.1460 F   0  0  0  0  0  0  0  0  0  0  0  0
  190.4010  176.9490  144.9790 C   0  0  2  0  0  3  0  0  0  0  0  0
  189.7350  177.8510  146.0350 C   0  0  1  0  0  3  0  0  0  0  0  0
  188.3530  177.8530  145.8450 O   0  0  0  0  0  1  0  0  0  0  0  0
  191.7360  176.4300  145.4430 C   0  0  0  0  0  3  0  0  0  0  0  0
  2 15  1  1  0  0  0
  2  7  1  0  0  0  0
  3  7  1  0  0  0  0
  3  8  1  0  0  0  0
  4 22  1  6  0  0  0
  4  6  1  0  0  0  0
  4  9  1  0  0  0  0
  5  9  1  0  0  0  0
  5 11  2  0  0  0  0
  6  2  1  0  0  0  0
  8  1  1  0  0  0  0
  9  3  2  0  0  0  0
 10  8  2  0  0  0  0
 10 38  1  0  0  0  0
 11 10  1  0  0  0  0
 12 19  2  0  0  0  0
 14 13  1  0  0  0  0
 15 16  1  0  0  0  0
 16 20  2  0  0  0  0
 17 14  2  0  0  0  0
 18 12  1  0  0  0  0
 18 15  2  0  0  0  0
 19 17  1  0  0  0  0
 19 20  1  0  0  0  0
 20 13  1  0  0  0  0
 21 22  2  0  0  0  0
 23 21  1  0  0  0  0
 25 24  1  0  0  0  0
 26 32  1  6  0  0  0
 26 24  1  0  0  0  0
 27 25  1  0  0  0  0
 27 28  1  0  0  0  0
 28 23  1  6  0  0  0
 28 26  1  0  0  0  0
 29 30  1  0  0  0  0
 30 33  1  0  0  0  0
 30 34  1  0  0  0  0
 31 30  1  0  0  0  0
 32 33  1  0  0  0  0
 33 34  1  0  0  0  0
 35 32  2  0  0  0  0
 36 24  1  0  0  0  0
 37 36  1  0  0  0  0
 38 39  1  0  0  0  0
 40 43  1  0  0  0  0
 40 41  1  0  0  0  0
 42 41  1  0  0  0  0
 44 39  1  6  0  0  0
 44 47  1  0  0  0  0
 44 45  1  0  0  0  0
 45 46  1  1  0  0  0
 45 42  1  0  0  0  0
 47 40  2  0  0  0  0
M  END
>  <MODEL>
8

>  <REMARK>
 VINA RESULT:      -7.2      4.802      8.237
  Name = 
  9 active torsions:
  status: ('A' for Active; 'I' for Inactive)
    1  A    between atoms: C_2  and  S_16
    2  A    between atoms: C_7  and  C_17
    3  A    between atoms: C_10  and  C_21
    4  A    between atoms: S_16  and  C_46
    5  A    between atoms: C_19  and  N_29
    6  A    between atoms: C_19  and  C_37
    7  A    between atoms: N_20  and  C_30
    8  A    between atoms: C_22  and  C_31
    9  A    between atoms: C_26  and  N_29
                            x       y       z     vdW  Elec       q    Type
                         _______ _______ _______ _____ _____    ______ ____

>  <TORSDO>
F 9

$$$$
=
 OpenBabel10222415233D

 47 53  0  0  1  0  0  0  0  0999 V2000
  185.3430  176.7750  136.5120 F   0  0  0  0  0  0  0  0  0  0  0  0
  189.2950  176.4450  138.4110 C   0  0  1  0  0  3  0  0  0  0  0  0
  186.9620  177.6110  138.0650 C   0  0  0  0  0  0  0  0  0  0  0  0
  188.6300  178.3860  139.8840 C   0  0  1  0  0  3  0  0  0  0  0  0
  186.2040  178.9780  139.9270 C   0  0  0  0  0  3  0  0  0  0  0  0
  189.7580  177.7280  139.0870 C   0  0  0  0  0  2  0  0  0  0  0  0
  188.2580  176.9360  137.0130 S   0  0  0  0  0  0  0  0  0  0  0  0
  185.6280  177.4730  137.6430 C   0  0  0  0  0  0  0  0  0  0  0  0
  187.2530  178.3410  139.2450 C   0  0  0  0  0  0  0  0  0  0  0  0
  184.5940  178.0960  138.3560 C   0  0  0  0  0  0  0  0  0  0  0  0
  184.8880  178.8640  139.4810 C   0  0  0  0  0  3  0  0  0  0  0  0
  191.1910  173.7300  136.6100 N   0  0  0  0  0  0  0  0  0  0  0  0
  194.2540  175.2230  137.7950 C   0  0  0  0  0  2  0  0  0  0  0  0
  194.6430  174.0140  136.9710 C   0  0  0  0  0  3  0  0  0  0  0  0
  190.4430  175.6120  137.9240 C   0  0  0  0  0  0  0  0  0  0  0  0
  191.7830  175.9560  138.2000 C   0  0  0  0  0  3  0  0  0  0  0  0
  193.6270  173.3750  136.4700 N   0  0  0  0  0  0  0  0  0  0  0  0
  190.1710  174.4890  137.1100 C   0  0  0  0  0  3  0  0  0  0  0  0
  192.4720  174.0690  136.8970 C   0  0  0  0  0  0  0  0  0  0  0  0
  192.7800  175.1460  137.6680 C   0  0  0  0  0  0  0  0  0  0  0  0
  189.4110  176.8270  141.6120 C   0  0  0  0  0  3  0  0  0  0  0  0
  188.5900  177.8160  141.2690 C   0  0  0  0  0  3  0  0  0  0  0  0
  189.3730  176.1590  143.2720 S   0  0  0  0  0  0  0  0  0  0  0  0
  186.9950  178.4750  145.5710 N   0  0  0  0  0  0  0  0  0  0  0  0
  186.0430  177.5060  145.0300 C   0  0  0  0  0  2  0  0  0  0  0  0
  188.3320  178.0120  145.1600 C   0  0  2  0  0  3  0  0  0  0  0  0
  186.7340  176.7410  143.9090 C   0  0  0  0  0  2  0  0  0  0  0  0
  188.1060  177.3630  143.8040 C   0  0  2  0  0  3  0  0  0  0  0  0
  191.8150  174.8730  146.1790 C   0  0  0  0  0  1  0  0  0  0  0  0
  191.6880  176.3260  146.5910 C   0  0  0  0  0  0  0  0  0  0  0  0
  192.0540  176.7540  147.9950 C   0  0  0  0  0  1  0  0  0  0  0  0
  189.0000  177.0830  146.1540 C   0  0  0  0  0  0  0  0  0  0  0  0
  190.4140  176.9350  146.1270 N   0  0  0  0  0  0  0  0  0  0  0  0
  191.7740  177.2740  145.5960 C   0  0  0  0  0  2  0  0  0  0  0  0
  188.3190  176.4240  146.9860 O   0  0  0  0  0  0  0  0  0  0  0  0
  186.8070  178.5640  147.0180 C   0  0  0  0  0  2  0  0  0  0  0  0
  185.4140  178.8390  147.3150 N   0  0  0  0  0  1  0  0  0  0  0  0
  183.1770  178.0110  137.8840 C   0  0  0  0  0  2  0  0  0  0  0  0
  182.2600  178.2400  138.9940 N   0  0  0  0  0  2  0  0  0  0  0  0
  181.1350  181.6040  138.1100 C   0  0  0  0  0  0  0  0  0  0  0  0
  179.9710  181.3030  137.2130 C   0  0  0  0  0  2  0  0  0  0  0  0
  180.3230  180.1180  136.3080 C   0  0  0  0  0  2  0  0  0  0  0  0
  181.6010  182.8740  138.2280 F   0  0  0  0  0  0  0  0  0  0  0  0
  181.2560  179.1930  138.5460 C   0  0  2  0  0  3  0  0  0  0  0  0
  180.8620  178.9010  137.0860 C   0  0  1  0  0  3  0  0  0  0  0  0
  179.9230  177.8700  137.0520 O   0  0  0  0  0  1  0  0  0  0  0  0
  181.7670  180.5980  138.7210 C   0  0  0  0  0  3  0  0  0  0  0  0
  1  8  1  0  0  0  0
  2 15  1  6  0  0  0
  2  6  1  0  0  0  0
  3  9  1  0  0  0  0
  4 22  1  1  0  0  0
  6  4  1  0  0  0  0
  7  3  1  0  0  0  0
  7  2  1  0  0  0  0
  8  3  2  0  0  0  0
  8 10  1  0  0  0  0
  9  4  1  0  0  0  0
  9  5  2  0  0  0  0
 10 11  2  0  0  0  0
 11  5  1  0  0  0  0
 12 19  2  0  0  0  0
 12 18  1  0  0  0  0
 14 13  1  0  0  0  0
 15 16  1  0  0  0  0
 17 19  1  0  0  0  0
 17 14  2  0  0  0  0
 18 15  2  0  0  0  0
 19 20  1  0  0  0  0
 20 13  1  0  0  0  0
 20 16  2  0  0  0  0
 21 23  1  0  0  0  0
 22 21  2  0  0  0  0
 24 36  1  0  0  0  0
 25 24  1  0  0  0  0
 26 24  1  0  0  0  0
 26 32  1  1  0  0  0
 27 25  1  0  0  0  0
 28 23  1  1  0  0  0
 28 27  1  0  0  0  0
 28 26  1  0  0  0  0
 29 30  1  0  0  0  0
 30 31  1  0  0  0  0
 32 35  2  0  0  0  0
 33 32  1  0  0  0  0
 33 30  1  0  0  0  0
 34 33  1  0  0  0  0
 34 30  1  0  0  0  0
 36 37  1  0  0  0  0
 38 10  1  0  0  0  0
 38 39  1  0  0  0  0
 40 43  1  0  0  0  0
 40 47  2  0  0  0  0
 41 40  1  0  0  0  0
 42 45  1  0  0  0  0
 42 41  1  0  0  0  0
 44 47  1  0  0  0  0
 44 39  1  6  0  0  0
 45 46  1  1  0  0  0
 45 44  1  0  0  0  0
M  END
>  <MODEL>
9

>  <REMARK>
 VINA RESULT:      -6.8      3.505     10.490
  Name = 
  9 active torsions:
  status: ('A' for Active; 'I' for Inactive)
    1  A    between atoms: C_2  and  S_16
    2  A    between atoms: C_7  and  C_17
    3  A    between atoms: C_10  and  C_21
    4  A    between atoms: S_16  and  C_46
    5  A    between atoms: C_19  and  N_29
    6  A    between atoms: C_19  and  C_37
    7  A    between atoms: N_20  and  C_30
    8  A    between atoms: C_22  and  C_31
    9  A    between atoms: C_26  and  N_29
                            x       y       z     vdW  Elec       q    Type
                         _______ _______ _______ _____ _____    ______ ____

>  <TORSDO>
F 9

$$$$
