=
 OpenBabel10222418083D

 25 29  0  0  1  0  0  0  0  0999 V2000
  190.0940  176.1490  141.8990 N   0  0  0  0  0  0  0  0  0  0  0  0
  190.1290  178.2860  143.7370 C   0  0  0  0  0  2  0  0  0  0  0  0
  190.7360  177.2110  141.5330 C   0  0  0  0  0  0  0  0  0  0  0  0
  190.9970  178.3550  142.4850 C   0  0  0  0  0  2  0  0  0  0  0  0
  189.4020  176.0260  143.1680 C   0  0  0  0  0  2  0  0  0  0  0  0
  190.0860  176.8520  144.2610 C   0  0  2  0  0  3  0  0  0  0  0  0
  189.3380  176.7730  145.5230 N   0  0  2  0  0  0  0  0  0  0  0  0
  186.1220  179.1730  147.0170 C   0  0  0  0  0  0  0  0  0  0  0  0
  186.9930  178.0350  147.4790 C   0  0  2  0  0  3  0  0  0  0  0  0
  188.1750  177.6410  145.4320 C   0  0  1  0  0  3  0  0  0  0  0  0
  185.8930  178.2950  144.7220 C   0  0  0  0  0  3  0  0  0  0  0  0
  188.3480  178.5120  148.0720 C   0  0  0  0  0  2  0  0  0  0  0  0
  189.4790  177.4530  147.9780 C   0  0  0  0  0  2  0  0  0  0  0  0
  186.8340  177.1350  144.9400 C   0  0  2  0  0  3  0  0  0  0  0  0
  187.2010  176.9730  146.4020 C   0  0  2  0  0  3  0  0  0  0  0  0
  185.5810  179.2100  145.6490 C   0  0  0  0  0  3  0  0  0  0  0  0
  190.1620  177.4000  146.5820 C   0  0  0  0  0  2  0  0  0  0  0  0
  185.8170  180.0910  147.8240 O   0  0  0  0  0  0  0  0  0  0  0  0
  191.4270  177.2170  140.2090 C   0  0  0  0  0  2  0  0  0  0  0  0
  191.2180  174.9850  138.2540 O   0  0  0  0  0  0  0  0  0  0  0  0
  189.5630  178.0670  138.6410 C   0  0  0  0  0  3  0  0  0  0  0  0
  189.6300  176.2500  137.1260 O   0  0  0  0  0  0  0  0  0  0  0  0
  188.9750  177.4970  137.3330 C   0  0  0  0  0  3  0  0  0  0  0  0
  190.4640  177.0370  139.1330 N   0  0  0  0  0  0  0  0  0  0  0  0
  190.4870  176.0070  138.1720 C   0  0  0  0  0  0  0  0  0  0  0  0
  1  5  1  0  0  0  0
  2  6  1  0  0  0  0
  3  1  2  0  0  0  0
  3  4  1  0  0  0  0
  4  2  1  0  0  0  0
  6  5  1  6  0  0  0
  6  7  1  0  0  0  0
  7 17  1  1  0  0  0
  8  9  1  0  0  0  0
  8 18  2  0  0  0  0
  9 12  1  6  0  0  0
 10  7  1  0  0  0  0
 10 15  1  0  0  0  0
 11 14  1  0  0  0  0
 11 16  2  0  0  0  0
 13 12  1  0  0  0  0
 14 10  1  0  0  0  0
 14 15  1  0  0  0  0
 15  9  1  0  0  0  0
 16  8  1  0  0  0  0
 17 13  1  0  0  0  0
 19  3  1  0  0  0  0
 21 24  1  0  0  0  0
 22 23  1  0  0  0  0
 22 25  1  0  0  0  0
 23 21  2  0  0  0  0
 24 19  1  0  0  0  0
 25 20  2  0  0  0  0
 25 24  1  0  0  0  0
M  END
>  <MODEL>
1

>  <REMARK>
 VINA RESULT:      -8.8      0.000      0.000
  Name = 
  3 active torsions:
  status: ('A' for Active; 'I' for Inactive)
    1  A    between atoms: N_1  and  C_24
    2  A    between atoms: C_16  and  C_19
    3  A    between atoms: N_18  and  C_19
                            x       y       z     vdW  Elec       q    Type
                         _______ _______ _______ _____ _____    ______ ____

>  <TORSDO>
F 3

$$$$
=
 OpenBabel10222418083D

 25 29  0  0  1  0  0  0  0  0999 V2000
  190.5040  176.3890  140.9990 N   0  0  0  0  0  0  0  0  0  0  0  0
  188.2150  177.6830  142.0160 C   0  0  0  0  0  2  0  0  0  0  0  0
  189.9100  177.2160  140.2020 C   0  0  0  0  0  0  0  0  0  0  0  0
  188.7910  178.1170  140.6720 C   0  0  0  0  0  2  0  0  0  0  0  0
  190.0430  176.0990  142.3440 C   0  0  0  0  0  2  0  0  0  0  0  0
  189.3470  177.3100  142.9700 C   0  0  2  0  0  3  0  0  0  0  0  0
  188.8260  176.9830  144.3050 N   0  0  2  0  0  0  0  0  0  0  0  0
  185.9230  178.9810  146.7370 C   0  0  0  0  0  0  0  0  0  0  0  0
  186.8560  177.8040  146.8280 C   0  0  2  0  0  3  0  0  0  0  0  0
  187.6680  177.8200  144.5740 C   0  0  1  0  0  3  0  0  0  0  0  0
  185.3000  178.5270  144.3930 C   0  0  0  0  0  3  0  0  0  0  0  0
  188.2950  178.2030  147.2600 C   0  0  0  0  0  2  0  0  0  0  0  0
  189.3890  177.2110  146.7830 C   0  0  0  0  0  2  0  0  0  0  0  0
  186.2600  177.3740  144.2320 C   0  0  2  0  0  3  0  0  0  0  0  0
  186.8730  176.9600  145.5560 C   0  0  2  0  0  3  0  0  0  0  0  0
  185.1550  179.2500  145.5110 C   0  0  0  0  0  3  0  0  0  0  0  0
  189.8220  177.4300  145.3060 C   0  0  0  0  0  2  0  0  0  0  0  0
  185.7650  179.7290  147.7380 O   0  0  0  0  0  0  0  0  0  0  0  0
  190.4860  177.4500  138.8430 C   0  0  0  0  0  2  0  0  0  0  0  0
  189.0390  179.6140  137.4050 O   0  0  0  0  0  0  0  0  0  0  0  0
  188.7370  176.1090  137.5050 C   0  0  0  0  0  3  0  0  0  0  0  0
  187.6370  177.9740  136.5460 O   0  0  0  0  0  0  0  0  0  0  0  0
  187.5650  176.5530  136.6030 C   0  0  0  0  0  3  0  0  0  0  0  0
  189.4520  177.3330  137.8270 N   0  0  0  0  0  0  0  0  0  0  0  0
  188.7300  178.4020  137.2610 C   0  0  0  0  0  0  0  0  0  0  0  0
  1  5  1  0  0  0  0
  3  4  1  0  0  0  0
  3  1  2  0  0  0  0
  4  2  1  0  0  0  0
  5  6  1  0  0  0  0
  6  2  1  6  0  0  0
  6  7  1  0  0  0  0
  7 10  1  0  0  0  0
  7 17  1  1  0  0  0
  8  9  1  0  0  0  0
  8 18  2  0  0  0  0
  9 12  1  6  0  0  0
 10 15  1  0  0  0  0
 11 16  2  0  0  0  0
 13 12  1  0  0  0  0
 14 11  1  0  0  0  0
 14 10  1  0  0  0  0
 14 15  1  0  0  0  0
 15  9  1  0  0  0  0
 16  8  1  0  0  0  0
 17 13  1  0  0  0  0
 19  3  1  0  0  0  0
 21 24  1  0  0  0  0
 22 23  1  0  0  0  0
 22 25  1  0  0  0  0
 23 21  2  0  0  0  0
 24 19  1  0  0  0  0
 25 20  2  0  0  0  0
 25 24  1  0  0  0  0
M  END
>  <MODEL>
2

>  <REMARK>
 VINA RESULT:      -8.6      1.580      1.907
  Name = 
  3 active torsions:
  status: ('A' for Active; 'I' for Inactive)
    1  A    between atoms: N_1  and  C_24
    2  A    between atoms: C_16  and  C_19
    3  A    between atoms: N_18  and  C_19
                            x       y       z     vdW  Elec       q    Type
                         _______ _______ _______ _____ _____    ______ ____

>  <TORSDO>
F 3

$$$$
=
 OpenBabel10222418083D

 25 29  0  0  1  0  0  0  0  0999 V2000
  190.6410  176.3920  141.0270 N   0  0  0  0  0  0  0  0  0  0  0  0
  188.2200  177.5310  141.9150 C   0  0  0  0  0  2  0  0  0  0  0  0
  190.0200  177.1500  140.1830 C   0  0  0  0  0  0  0  0  0  0  0  0
  188.8170  177.9730  140.5820 C   0  0  0  0  0  2  0  0  0  0  0  0
  190.1490  176.1030  142.3610 C   0  0  0  0  0  2  0  0  0  0  0  0
  189.3370  177.2730  142.9230 C   0  0  2  0  0  3  0  0  0  0  0  0
  188.7880  176.9410  144.2450 N   0  0  2  0  0  0  0  0  0  0  0  0
  185.9020  178.9820  146.6620 C   0  0  0  0  0  0  0  0  0  0  0  0
  186.8030  177.7790  146.7510 C   0  0  2  0  0  3  0  0  0  0  0  0
  187.6480  177.8050  144.5090 C   0  0  1  0  0  3  0  0  0  0  0  0
  185.3020  178.5750  144.3030 C   0  0  0  0  0  3  0  0  0  0  0  0
  188.2450  178.1360  147.2090 C   0  0  0  0  0  2  0  0  0  0  0  0
  189.3200  177.1220  146.7350 C   0  0  0  0  0  2  0  0  0  0  0  0
  186.2350  177.4000  144.1400 C   0  0  2  0  0  3  0  0  0  0  0  0
  186.8170  176.9530  145.4670 C   0  0  2  0  0  3  0  0  0  0  0  0
  185.1580  179.2870  145.4290 C   0  0  0  0  0  3  0  0  0  0  0  0
  189.7810  177.3500  145.2670 C   0  0  0  0  0  2  0  0  0  0  0  0
  185.7480  179.7200  147.6710 O   0  0  0  0  0  0  0  0  0  0  0  0
  190.6320  177.3920  138.8420 C   0  0  0  0  0  2  0  0  0  0  0  0
  193.5620  176.8980  138.7060 O   0  0  0  0  0  0  0  0  0  0  0  0
  190.7220  175.1070  137.6470 C   0  0  0  0  0  3  0  0  0  0  0  0
  193.0810  174.9520  137.5310 O   0  0  0  0  0  0  0  0  0  0  0  0
  191.9040  174.2550  137.1380 C   0  0  0  0  0  3  0  0  0  0  0  0
  191.3330  176.2020  138.3820 N   0  0  0  0  0  0  0  0  0  0  0  0
  192.7290  176.0730  138.2430 C   0  0  0  0  0  0  0  0  0  0  0  0
  1  5  1  0  0  0  0
  3  4  1  0  0  0  0
  3  1  2  0  0  0  0
  4  2  1  0  0  0  0
  5  6  1  0  0  0  0
  6  2  1  6  0  0  0
  6  7  1  0  0  0  0
  7 10  1  0  0  0  0
  7 17  1  1  0  0  0
  8  9  1  0  0  0  0
  8 18  2  0  0  0  0
  9 12  1  6  0  0  0
 10 15  1  0  0  0  0
 11 16  2  0  0  0  0
 13 12  1  0  0  0  0
 14 11  1  0  0  0  0
 14 10  1  0  0  0  0
 14 15  1  0  0  0  0
 15  9  1  0  0  0  0
 16  8  1  0  0  0  0
 17 13  1  0  0  0  0
 19  3  1  0  0  0  0
 21 24  1  0  0  0  0
 22 25  1  0  0  0  0
 23 22  1  0  0  0  0
 23 21  2  0  0  0  0
 24 19  1  0  0  0  0
 25 24  1  0  0  0  0
 25 20  2  0  0  0  0
M  END
>  <MODEL>
3

>  <REMARK>
 VINA RESULT:      -8.5      1.473      1.977
  Name = 
  3 active torsions:
  status: ('A' for Active; 'I' for Inactive)
    1  A    between atoms: N_1  and  C_24
    2  A    between atoms: C_16  and  C_19
    3  A    between atoms: N_18  and  C_19
                            x       y       z     vdW  Elec       q    Type
                         _______ _______ _______ _____ _____    ______ ____

>  <TORSDO>
F 3

$$$$
=
 OpenBabel10222418083D

 25 29  0  0  1  0  0  0  0  0999 V2000
  188.4910  178.4560  140.4390 N   0  0  0  0  0  0  0  0  0  0  0  0
  190.0720  176.7520  142.0350 C   0  0  0  0  0  2  0  0  0  0  0  0
  189.5070  177.9050  139.8590 C   0  0  0  0  0  0  0  0  0  0  0  0
  190.3270  176.8290  140.5330 C   0  0  0  0  0  2  0  0  0  0  0  0
  188.1560  178.2510  141.8360 C   0  0  0  0  0  2  0  0  0  0  0  0
  188.5740  176.8570  142.3130 C   0  0  2  0  0  3  0  0  0  0  0  0
  188.2900  176.6870  143.7450 N   0  0  2  0  0  0  0  0  0  0  0  0
  186.0100  179.1050  146.4450 C   0  0  0  0  0  0  0  0  0  0  0  0
  186.8720  177.8720  146.4850 C   0  0  2  0  0  3  0  0  0  0  0  0
  187.2540  177.6310  144.1310 C   0  0  1  0  0  3  0  0  0  0  0  0
  184.9390  178.4990  144.3050 C   0  0  0  0  0  3  0  0  0  0  0  0
  188.3870  178.1950  146.6120 C   0  0  0  0  0  2  0  0  0  0  0  0
  189.3140  177.0850  146.0480 C   0  0  0  0  0  2  0  0  0  0  0  0
  185.7830  177.2660  144.0910 C   0  0  2  0  0  3  0  0  0  0  0  0
  186.6040  176.9230  145.3190 C   0  0  2  0  0  3  0  0  0  0  0  0
  185.0460  179.3250  145.3540 C   0  0  0  0  0  3  0  0  0  0  0  0
  189.4790  177.1420  144.5030 C   0  0  0  0  0  2  0  0  0  0  0  0
  186.0840  179.9460  147.3790 O   0  0  0  0  0  0  0  0  0  0  0  0
  189.7450  178.1750  138.4090 C   0  0  0  0  0  2  0  0  0  0  0  0
  187.5820  179.6040  136.9500 O   0  0  0  0  0  0  0  0  0  0  0  0
  188.2910  176.2130  137.5770 C   0  0  0  0  0  3  0  0  0  0  0  0
  186.6030  177.5320  136.5700 O   0  0  0  0  0  0  0  0  0  0  0  0
  186.9400  176.1740  136.8320 C   0  0  0  0  0  3  0  0  0  0  0  0
  188.6680  177.6170  137.6050 N   0  0  0  0  0  0  0  0  0  0  0  0
  187.6100  178.3470  137.0270 C   0  0  0  0  0  0  0  0  0  0  0  0
  1  5  1  0  0  0  0
  2  6  1  0  0  0  0
  3  1  2  0  0  0  0
  3  4  1  0  0  0  0
  4  2  1  0  0  0  0
  6  5  1  1  0  0  0
  6  7  1  0  0  0  0
  7 10  1  0  0  0  0
  7 17  1  1  0  0  0
  8  9  1  0  0  0  0
  8 18  2  0  0  0  0
  9 12  1  6  0  0  0
 10 15  1  0  0  0  0
 11 16  2  0  0  0  0
 13 12  1  0  0  0  0
 14 10  1  0  0  0  0
 14 11  1  0  0  0  0
 14 15  1  0  0  0  0
 15  9  1  0  0  0  0
 16  8  1  0  0  0  0
 17 13  1  0  0  0  0
 19  3  1  0  0  0  0
 20 25  2  0  0  0  0
 21 24  1  0  0  0  0
 22 23  1  0  0  0  0
 22 25  1  0  0  0  0
 23 21  2  0  0  0  0
 24 19  1  0  0  0  0
 25 24  1  0  0  0  0
M  END
>  <MODEL>
4

>  <REMARK>
 VINA RESULT:      -8.1      1.901      2.474
  Name = 
  3 active torsions:
  status: ('A' for Active; 'I' for Inactive)
    1  A    between atoms: N_1  and  C_24
    2  A    between atoms: C_16  and  C_19
    3  A    between atoms: N_18  and  C_19
                            x       y       z     vdW  Elec       q    Type
                         _______ _______ _______ _____ _____    ______ ____

>  <TORSDO>
F 3

$$$$
=
 OpenBabel10222418083D

 25 29  0  0  1  0  0  0  0  0999 V2000
  183.8910  178.9550  145.4340 N   0  0  0  0  0  0  0  0  0  0  0  0
  185.8680  178.5340  143.4690 C   0  0  0  0  0  2  0  0  0  0  0  0
  183.4680  178.6880  144.2410 C   0  0  0  0  0  0  0  0  0  0  0  0
  184.4050  178.2560  143.1380 C   0  0  0  0  0  2  0  0  0  0  0  0
  185.2960  179.0580  145.7830 C   0  0  0  0  0  2  0  0  0  0  0  0
  186.1570  178.1370  144.9140 C   0  0  2  0  0  3  0  0  0  0  0  0
  187.5830  178.3010  145.2320 N   0  0  2  0  0  0  0  0  0  0  0  0
  191.0160  176.1490  143.8490 C   0  0  0  0  0  0  0  0  0  0  0  0
  190.6880  177.2440  144.8260 C   0  0  2  0  0  3  0  0  0  0  0  0
  188.3640  177.5020  144.3010 C   0  0  1  0  0  3  0  0  0  0  0  0
  189.4410  176.9680  142.1340 C   0  0  0  0  0  3  0  0  0  0  0  0
  190.2280  176.7050  146.2100 C   0  0  0  0  0  2  0  0  0  0  0  0
  189.3220  177.6890  146.9960 C   0  0  0  0  0  2  0  0  0  0  0  0
  188.8850  178.0740  142.9970 C   0  0  2  0  0  3  0  0  0  0  0  0
  189.6920  178.2580  144.2680 C   0  0  2  0  0  3  0  0  0  0  0  0
  190.3890  176.1020  142.5180 C   0  0  0  0  0  3  0  0  0  0  0  0
  187.8350  177.6580  146.5430 C   0  0  0  0  0  2  0  0  0  0  0  0
  191.8710  175.2760  144.1550 O   0  0  0  0  0  0  0  0  0  0  0  0
  181.9960  178.5890  144.0030 C   0  0  0  0  0  2  0  0  0  0  0  0
  179.9930  180.6240  143.1700 O   0  0  0  0  0  0  0  0  0  0  0  0
  182.0880  178.3930  141.4320 C   0  0  0  0  0  3  0  0  0  0  0  0
  180.3800  179.9680  140.9770 O   0  0  0  0  0  0  0  0  0  0  0  0
  181.2590  179.0630  140.3160 C   0  0  0  0  0  3  0  0  0  0  0  0
  181.6680  179.0470  142.6610 N   0  0  0  0  0  0  0  0  0  0  0  0
  180.6300  179.9390  142.3270 C   0  0  0  0  0  0  0  0  0  0  0  0
  1  5  1  0  0  0  0
  3  1  2  0  0  0  0
  4  2  1  0  0  0  0
  4  3  1  0  0  0  0
  6  2  1  6  0  0  0
  6  7  1  0  0  0  0
  6  5  1  0  0  0  0
  7 17  1  1  0  0  0
  8 18  2  0  0  0  0
  8  9  1  0  0  0  0
  9 12  1  1  0  0  0
 10  7  1  0  0  0  0
 11 16  2  0  0  0  0
 11 14  1  0  0  0  0
 12 13  1  0  0  0  0
 14 15  1  0  0  0  0
 14 10  1  0  0  0  0
 15 10  1  0  0  0  0
 15  9  1  0  0  0  0
 16  8  1  0  0  0  0
 17 13  1  0  0  0  0
 19  3  1  0  0  0  0
 21 24  1  0  0  0  0
 22 25  1  0  0  0  0
 23 22  1  0  0  0  0
 23 21  2  0  0  0  0
 24 19  1  0  0  0  0
 25 24  1  0  0  0  0
 25 20  2  0  0  0  0
M  END
>  <MODEL>
5

>  <REMARK>
 VINA RESULT:      -7.7      4.116      7.042
  Name = 
  3 active torsions:
  status: ('A' for Active; 'I' for Inactive)
    1  A    between atoms: N_1  and  C_24
    2  A    between atoms: C_16  and  C_19
    3  A    between atoms: N_18  and  C_19
                            x       y       z     vdW  Elec       q    Type
                         _______ _______ _______ _____ _____    ______ ____

>  <TORSDO>
F 3

$$$$
=
 OpenBabel10222418083D

 25 29  0  0  1  0  0  0  0  0999 V2000
  188.4050  177.7250  139.0150 N   0  0  0  0  0  0  0  0  0  0  0  0
  190.3020  177.4250  141.0790 C   0  0  0  0  0  2  0  0  0  0  0  0
  189.5070  177.1260  138.6990 C   0  0  0  0  0  0  0  0  0  0  0  0
  190.5280  176.7290  139.7400 C   0  0  0  0  0  2  0  0  0  0  0  0
  188.1240  178.2440  140.3400 C   0  0  0  0  0  2  0  0  0  0  0  0
  188.8150  177.4130  141.4250 C   0  0  2  0  0  3  0  0  0  0  0  0
  188.5770  177.9880  142.7560 N   0  0  2  0  0  0  0  0  0  0  0  0
  190.1060  176.8670  146.5950 C   0  0  0  0  0  0  0  0  0  0  0  0
  189.1310  177.8540  146.0110 C   0  0  2  0  0  3  0  0  0  0  0  0
  189.5350  177.4170  143.6900 C   0  0  1  0  0  3  0  0  0  0  0  0
  191.7470  177.1440  144.7730 C   0  0  0  0  0  3  0  0  0  0  0  0
  187.7150  177.2500  145.7920 C   0  0  0  0  0  2  0  0  0  0  0  0
  186.8990  177.9590  144.6780 C   0  0  0  0  0  2  0  0  0  0  0  0
  190.8750  178.0720  143.9630 C   0  0  2  0  0  3  0  0  0  0  0  0
  189.6530  178.5210  144.7400 C   0  0  2  0  0  3  0  0  0  0  0  0
  191.4000  176.5990  145.9470 C   0  0  0  0  0  3  0  0  0  0  0  0
  187.2710  177.4880  143.2430 C   0  0  0  0  0  2  0  0  0  0  0  0
  189.8300  176.2860  147.6790 O   0  0  0  0  0  0  0  0  0  0  0  0
  189.6790  176.6160  137.3050 C   0  0  0  0  0  2  0  0  0  0  0  0
  190.9280  173.9270  137.5420 O   0  0  0  0  0  0  0  0  0  0  0  0
  187.7320  175.0730  136.6120 C   0  0  0  0  0  3  0  0  0  0  0  0
  188.9350  173.0380  136.7470 O   0  0  0  0  0  0  0  0  0  0  0  0
  187.6510  173.5460  136.3970 C   0  0  0  0  0  3  0  0  0  0  0  0
  189.0570  175.3080  137.1630 N   0  0  0  0  0  0  0  0  0  0  0  0
  189.7300  174.0710  137.1820 C   0  0  0  0  0  0  0  0  0  0  0  0
  1  5  1  0  0  0  0
  2  6  1  0  0  0  0
  3  1  2  0  0  0  0
  3  4  1  0  0  0  0
  4  2  1  0  0  0  0
  6  5  1  6  0  0  0
  6  7  1  0  0  0  0
  7 17  1  1  0  0  0
  7 10  1  0  0  0  0
  8 18  2  0  0  0  0
  9 12  1  6  0  0  0
  9  8  1  0  0  0  0
 10 14  1  0  0  0  0
 10 15  1  0  0  0  0
 11 16  2  0  0  0  0
 13 12  1  0  0  0  0
 14 15  1  0  0  0  0
 14 11  1  0  0  0  0
 15  9  1  0  0  0  0
 16  8  1  0  0  0  0
 17 13  1  0  0  0  0
 19  3  1  0  0  0  0
 21 24  1  0  0  0  0
 22 25  1  0  0  0  0
 23 21  2  0  0  0  0
 23 22  1  0  0  0  0
 24 25  1  0  0  0  0
 24 19  1  0  0  0  0
 25 20  2  0  0  0  0
M  END
>  <MODEL>
6

>  <REMARK>
 VINA RESULT:      -7.7      2.199      3.810
  Name = 
  3 active torsions:
  status: ('A' for Active; 'I' for Inactive)
    1  A    between atoms: N_1  and  C_24
    2  A    between atoms: C_16  and  C_19
    3  A    between atoms: N_18  and  C_19
                            x       y       z     vdW  Elec       q    Type
                         _______ _______ _______ _____ _____    ______ ____

>  <TORSDO>
F 3

$$$$
=
 OpenBabel10222418083D

 25 29  0  0  1  0  0  0  0  0999 V2000
  184.1450  178.9150  143.8600 N   0  0  0  0  0  0  0  0  0  0  0  0
  186.7810  178.4720  142.9660 C   0  0  0  0  0  2  0  0  0  0  0  0
  184.2860  178.6380  142.6050 C   0  0  0  0  0  0  0  0  0  0  0  0
  185.6110  178.1940  142.0280 C   0  0  0  0  0  2  0  0  0  0  0  0
  185.2540  179.0190  144.7900 C   0  0  0  0  0  2  0  0  0  0  0  0
  186.4040  178.0890  144.3950 C   0  0  2  0  0  3  0  0  0  0  0  0
  187.5460  178.2530  145.3050 N   0  0  2  0  0  0  0  0  0  0  0  0
  191.3570  176.3030  145.3820 C   0  0  0  0  0  0  0  0  0  0  0  0
  190.5820  177.3010  146.1990 C   0  0  2  0  0  3  0  0  0  0  0  0
  188.6930  177.5560  144.7460 C   0  0  1  0  0  3  0  0  0  0  0  0
  190.6200  177.2380  143.2200 C   0  0  0  0  0  3  0  0  0  0  0  0
  189.6070  176.6310  147.2090 C   0  0  0  0  0  2  0  0  0  0  0  0
  188.3980  177.5230  147.5970 C   0  0  0  0  0  2  0  0  0  0  0  0
  189.6880  178.2520  143.8370 C   0  0  2  0  0  3  0  0  0  0  0  0
  189.8630  178.3390  145.3410 C   0  0  2  0  0  3  0  0  0  0  0  0
  191.3610  176.3620  143.9110 C   0  0  0  0  0  3  0  0  0  0  0  0
  187.2510  177.5010  146.5470 C   0  0  0  0  0  2  0  0  0  0  0  0
  192.0480  175.4240  145.9630 O   0  0  0  0  0  0  0  0  0  0  0  0
  183.0690  178.5390  141.7440 C   0  0  0  0  0  2  0  0  0  0  0  0
  184.1810  180.1110  139.4770 O   0  0  0  0  0  0  0  0  0  0  0  0
  183.0560  176.7960  139.8440 C   0  0  0  0  0  3  0  0  0  0  0  0
  183.8440  178.2410  138.1420 O   0  0  0  0  0  0  0  0  0  0  0  0
  183.3970  176.9040  138.3420 C   0  0  0  0  0  3  0  0  0  0  0  0
  183.4260  178.0830  140.4100 N   0  0  0  0  0  0  0  0  0  0  0  0
  183.8490  178.9030  139.3460 C   0  0  0  0  0  0  0  0  0  0  0  0
  1  5  1  0  0  0  0
  3  1  2  0  0  0  0
  4  3  1  0  0  0  0
  4  2  1  0  0  0  0
  6  2  1  6  0  0  0
  6  5  1  0  0  0  0
  6  7  1  0  0  0  0
  7 17  1  1  0  0  0
  8 18  2  0  0  0  0
  8  9  1  0  0  0  0
  9 12  1  6  0  0  0
 10  7  1  0  0  0  0
 10 15  1  0  0  0  0
 11 14  1  0  0  0  0
 11 16  2  0  0  0  0
 12 13  1  0  0  0  0
 14 10  1  0  0  0  0
 14 15  1  0  0  0  0
 15  9  1  0  0  0  0
 16  8  1  0  0  0  0
 17 13  1  0  0  0  0
 19  3  1  0  0  0  0
 21 24  1  0  0  0  0
 22 23  1  0  0  0  0
 22 25  1  0  0  0  0
 23 21  2  0  0  0  0
 24 19  1  0  0  0  0
 25 20  2  0  0  0  0
 25 24  1  0  0  0  0
M  END
>  <MODEL>
7

>  <REMARK>
 VINA RESULT:      -7.5      3.939      5.588
  Name = 
  3 active torsions:
  status: ('A' for Active; 'I' for Inactive)
    1  A    between atoms: N_1  and  C_24
    2  A    between atoms: C_16  and  C_19
    3  A    between atoms: N_18  and  C_19
                            x       y       z     vdW  Elec       q    Type
                         _______ _______ _______ _____ _____    ______ ____

>  <TORSDO>
F 3

$$$$
=
 OpenBabel10222418083D

 25 29  0  0  1  0  0  0  0  0999 V2000
  189.3900  177.2800  138.6380 N   0  0  0  0  0  0  0  0  0  0  0  0
  191.0020  177.5160  140.9380 C   0  0  0  0  0  2  0  0  0  0  0  0
  190.6150  176.8830  138.5230 C   0  0  0  0  0  0  0  0  0  0  0  0
  191.5360  176.7740  139.7170 C   0  0  0  0  0  2  0  0  0  0  0  0
  188.8370  177.8380  139.8580 C   0  0  0  0  0  2  0  0  0  0  0  0
  189.5090  177.2440  141.0990 C   0  0  2  0  0  3  0  0  0  0  0  0
  188.9870  177.8650  142.3240 N   0  0  2  0  0  0  0  0  0  0  0  0
  189.7000  176.9420  146.4450 C   0  0  0  0  0  0  0  0  0  0  0  0
  188.8510  177.8770  145.6260 C   0  0  2  0  0  3  0  0  0  0  0  0
  189.7390  177.3600  143.4620 C   0  0  1  0  0  3  0  0  0  0  0  0
  191.6810  177.1920  144.9930 C   0  0  0  0  0  3  0  0  0  0  0  0
  187.5240  177.2260  145.1440 C   0  0  0  0  0  2  0  0  0  0  0  0
  186.9450  177.8660  143.8550 C   0  0  0  0  0  2  0  0  0  0  0  0
  190.9800  178.0620  143.9780 C   0  0  2  0  0  3  0  0  0  0  0  0
  189.6130  178.5070  144.4630 C   0  0  2  0  0  3  0  0  0  0  0  0
  191.1060  176.6850  146.0920 C   0  0  0  0  0  3  0  0  0  0  0  0
  187.6180  177.3480  142.5510 C   0  0  0  0  0  2  0  0  0  0  0  0
  189.2150  176.3980  147.4720 O   0  0  0  0  0  0  0  0  0  0  0  0
  191.0700  176.3080  137.2210 C   0  0  0  0  0  2  0  0  0  0  0  0
  193.9290  177.1280  137.2080 O   0  0  0  0  0  0  0  0  0  0  0  0
  192.2680  174.0300  137.3970 C   0  0  0  0  0  3  0  0  0  0  0  0
  194.4760  174.8710  137.2530 O   0  0  0  0  0  0  0  0  0  0  0  0
  193.7610  173.6430  137.3470 C   0  0  0  0  0  3  0  0  0  0  0  0
  192.2530  175.4840  137.4160 N   0  0  0  0  0  0  0  0  0  0  0  0
  193.5880  175.9180  137.2910 C   0  0  0  0  0  0  0  0  0  0  0  0
  1  5  1  0  0  0  0
  2  6  1  0  0  0  0
  3  1  2  0  0  0  0
  3  4  1  0  0  0  0
  4  2  1  0  0  0  0
  6  5  1  6  0  0  0
  6  7  1  0  0  0  0
  7 17  1  1  0  0  0
  7 10  1  0  0  0  0
  8 18  2  0  0  0  0
  9 12  1  6  0  0  0
  9  8  1  0  0  0  0
 10 14  1  0  0  0  0
 10 15  1  0  0  0  0
 11 16  2  0  0  0  0
 13 12  1  0  0  0  0
 14 15  1  0  0  0  0
 14 11  1  0  0  0  0
 15  9  1  0  0  0  0
 16  8  1  0  0  0  0
 17 13  1  0  0  0  0
 19 24  1  0  0  0  0
 19  3  1  0  0  0  0
 20 25  2  0  0  0  0
 21 24  1  0  0  0  0
 22 25  1  0  0  0  0
 22 23  1  0  0  0  0
 23 21  2  0  0  0  0
 25 24  1  0  0  0  0
M  END
>  <MODEL>
8

>  <REMARK>
 VINA RESULT:      -7.4      2.238      4.122
  Name = 
  3 active torsions:
  status: ('A' for Active; 'I' for Inactive)
    1  A    between atoms: N_1  and  C_24
    2  A    between atoms: C_16  and  C_19
    3  A    between atoms: N_18  and  C_19
                            x       y       z     vdW  Elec       q    Type
                         _______ _______ _______ _____ _____    ______ ____

>  <TORSDO>
F 3

$$$$
=
 OpenBabel10222418083D

 25 29  0  0  1  0  0  0  0  0999 V2000
  183.0190  178.7000  141.9680 N   0  0  0  0  0  0  0  0  0  0  0  0
  184.8060  178.2890  144.1090 C   0  0  0  0  0  2  0  0  0  0  0  0
  182.6400  179.1380  143.1250 C   0  0  0  0  0  0  0  0  0  0  0  0
  183.5690  179.1570  144.3160 C   0  0  0  0  0  2  0  0  0  0  0  0
  184.2780  178.0150  141.7420 C   0  0  0  0  0  2  0  0  0  0  0  0
  185.3630  178.5060  142.7040 C   0  0  2  0  0  3  0  0  0  0  0  0
  186.6120  177.7580  142.5100 N   0  0  2  0  0  0  0  0  0  0  0  0
  190.2250  177.7110  144.8080 C   0  0  0  0  0  0  0  0  0  0  0  0
  189.6900  177.1210  143.5310 C   0  0  2  0  0  3  0  0  0  0  0  0
  187.4270  177.8890  143.7070 C   0  0  1  0  0  3  0  0  0  0  0  0
  188.1080  177.4050  146.0400 C   0  0  0  0  0  3  0  0  0  0  0  0
  189.8320  178.0790  142.3150 C   0  0  0  0  0  2  0  0  0  0  0  0
  188.7950  177.8180  141.1900 C   0  0  0  0  0  2  0  0  0  0  0  0
  187.3440  176.8900  144.8450 C   0  0  2  0  0  3  0  0  0  0  0  0
  188.2590  176.6070  143.6690 C   0  0  2  0  0  3  0  0  0  0  0  0
  189.3940  177.7790  146.0220 C   0  0  0  0  0  3  0  0  0  0  0  0
  187.4040  178.4550  141.4690 C   0  0  0  0  0  2  0  0  0  0  0  0
  191.4160  178.1190  144.8550 O   0  0  0  0  0  0  0  0  0  0  0  0
  181.3290  179.8460  143.2350 C   0  0  0  0  0  2  0  0  0  0  0  0
  179.7180  177.4630  143.9930 O   0  0  0  0  0  0  0  0  0  0  0  0
  180.0710  179.3450  141.0390 C   0  0  0  0  0  3  0  0  0  0  0  0
  178.9640  177.3940  141.7970 O   0  0  0  0  0  0  0  0  0  0  0  0
  179.1250  178.1950  140.6310 C   0  0  0  0  0  3  0  0  0  0  0  0
  180.3110  179.1520  142.4600 N   0  0  0  0  0  0  0  0  0  0  0  0
  179.6600  177.9610  142.8380 C   0  0  0  0  0  0  0  0  0  0  0  0
  1  3  2  0  0  0  0
  2  4  1  0  0  0  0
  3 19  1  0  0  0  0
  3  4  1  0  0  0  0
  5  1  1  0  0  0  0
  6  5  1  6  0  0  0
  6  2  1  0  0  0  0
  7 17  1  6  0  0  0
  7  6  1  0  0  0  0
  7 10  1  0  0  0  0
  8 18  2  0  0  0  0
  8 16  1  0  0  0  0
  9 12  1  6  0  0  0
  9 15  1  0  0  0  0
  9  8  1  0  0  0  0
 10 14  1  0  0  0  0
 13 17  1  0  0  0  0
 13 12  1  0  0  0  0
 14 11  1  0  0  0  0
 15 10  1  0  0  0  0
 15 14  1  0  0  0  0
 16 11  2  0  0  0  0
 21 24  1  0  0  0  0
 22 25  1  0  0  0  0
 23 21  2  0  0  0  0
 23 22  1  0  0  0  0
 24 25  1  0  0  0  0
 24 19  1  0  0  0  0
 25 20  2  0  0  0  0
M  END
>  <MODEL>
9

>  <REMARK>
 VINA RESULT:      -7.4      4.910      7.569
  Name = 
  3 active torsions:
  status: ('A' for Active; 'I' for Inactive)
    1  A    between atoms: N_1  and  C_24
    2  A    between atoms: C_16  and  C_19
    3  A    between atoms: N_18  and  C_19
                            x       y       z     vdW  Elec       q    Type
                         _______ _______ _______ _____ _____    ______ ____

>  <TORSDO>
F 3

$$$$
