=
 OpenBabel10222416533D

 41 44  0  0  1  0  0  0  0  0999 V2000
  189.4410  177.2420  140.7890 C   0  0  1  0  0  3  0  0  0  0  0  0
  191.2320  174.1760  136.9980 C   0  0  1  0  0  3  0  0  0  0  0  0
  191.2640  173.7780  135.5300 C   0  0  0  0  0  1  0  0  0  0  0  0
  191.8640  177.9820  140.6300 C   0  0  0  0  0  2  0  0  0  0  0  0
  188.8340  174.2300  136.8660 O   0  0  0  0  0  0  0  0  0  0  0  0
  189.7730  175.6900  138.4110 N   0  0  0  0  0  0  0  0  0  0  0  0
  193.2090  177.4540  140.2230 C   0  0  0  0  0  3  0  0  0  0  0  0
  192.3410  175.2050  137.2750 C   0  0  1  0  0  3  0  0  0  0  0  0
  190.9290  176.2630  139.0330 C   0  0  0  0  0  0  0  0  0  0  0  0
  193.3380  176.5610  139.2440 C   0  0  0  0  0  3  0  0  0  0  0  0
  189.8820  174.7050  137.3830 C   0  0  0  0  0  0  0  0  0  0  0  0
  192.1600  175.9890  138.5630 C   0  0  2  0  0  3  0  0  0  0  0  0
  190.7730  177.1000  140.1960 N   0  0  0  0  0  0  0  0  0  0  0  0
  194.7310  176.2930  136.0280 O   0  0  0  0  0  0  0  0  0  0  0  0
  196.0430  174.4640  136.5920 N   0  0  0  0  0  1  0  0  0  0  0  0
  193.6600  174.5730  137.2030 N   0  0  0  0  0  2  0  0  0  0  0  0
  194.8080  175.1670  136.5880 C   0  0  0  0  0  0  0  0  0  0  0  0
  189.8470  177.6240  144.6270 C   0  0  0  0  0  2  0  0  0  0  0  0
  191.6350  176.2970  143.3380 C   0  0  0  0  0  2  0  0  0  0  0  0
  190.4180  175.7490  142.5880 C   0  0  0  0  0  2  0  0  0  0  0  0
  191.2360  176.9720  144.6660 C   0  0  2  0  0  3  0  0  0  0  0  0
  189.3950  176.8520  142.2720 C   0  0  1  0  0  3  0  0  0  0  0  0
  189.4750  178.0660  143.2150 C   0  0  0  0  0  2  0  0  0  0  0  0
  191.2850  175.9770  145.8170 C   0  0  0  0  0  2  0  0  0  0  0  0
  191.4950  176.6780  147.1520 C   0  0  0  0  0  2  0  0  0  0  0  0
  192.4300  175.8740  148.0350 C   0  0  0  0  0  1  0  0  0  0  0  0
  188.8590  178.6240  140.5200 C   0  0  0  0  0  2  0  0  0  0  0  0
  187.4480  178.5000  139.9760 C   0  0  1  0  0  3  0  0  0  0  0  0
  187.0210  178.2330  137.5280 C   0  0  0  0  0  1  0  0  0  0  0  0
  187.4240  177.5240  138.8080 C   0  0  0  0  0  2  0  0  0  0  0  0
  186.5790  178.0140  141.0380 N   0  0  0  0  0  2  0  0  0  0  0  0
  185.4150  178.8870  141.1110 C   0  0  0  0  0  2  0  0  0  0  0  0
  185.2620  179.4510  142.5170 C   0  0  0  0  0  2  0  0  0  0  0  0
  185.9360  178.2350  144.5700 C   0  0  0  0  0  2  0  0  0  0  0  0
  185.3840  179.0630  145.7040 C   0  0  1  0  0  3  0  0  0  0  0  0
  183.9340  179.1260  145.5560 N   0  0  0  0  0  2  0  0  0  0  0  0
  184.9010  178.3340  143.4820 C   0  0  1  0  0  3  0  0  0  0  0  0
  183.6160  178.6820  144.2020 C   0  0  0  0  0  2  0  0  0  0  0  0
  185.7510  178.4210  147.0310 C   0  0  0  0  0  2  0  0  0  0  0  0
  187.9050  178.0000  148.0980 C   0  0  0  0  0  2  0  0  0  0  0  0
  187.1570  177.9290  147.0000 C   0  0  0  0  0  3  0  0  0  0  0  0
  1 27  1  1  0  0  0
  2  3  1  6  0  0  0
  2  8  1  0  0  0  0
  2 11  1  0  0  0  0
  5 11  2  0  0  0  0
  6  9  2  0  0  0  0
  7  4  1  0  0  0  0
  8 16  1  1  0  0  0
  8 12  1  0  0  0  0
  9 13  1  0  0  0  0
 10  7  2  0  0  0  0
 11  6  1  0  0  0  0
 12  9  1  0  0  0  0
 12 10  1  6  0  0  0
 13  4  1  0  0  0  0
 13  1  1  0  0  0  0
 14 17  2  0  0  0  0
 17 15  1  0  0  0  0
 17 16  1  0  0  0  0
 18 21  1  0  0  0  0
 19 21  1  0  0  0  0
 20 19  1  0  0  0  0
 21 24  1  1  0  0  0
 22  1  1  6  0  0  0
 22 20  1  0  0  0  0
 22 23  1  0  0  0  0
 23 18  1  0  0  0  0
 24 25  1  0  0  0  0
 25 26  1  0  0  0  0
 28 30  1  6  0  0  0
 28 27  1  0  0  0  0
 28 31  1  0  0  0  0
 29 30  1  0  0  0  0
 31 32  1  0  0  0  0
 32 33  1  0  0  0  0
 34 35  1  0  0  0  0
 35 39  1  1  0  0  0
 36 35  1  0  0  0  0
 37 33  1  6  0  0  0
 37 38  1  0  0  0  0
 37 34  1  0  0  0  0
 38 36  1  0  0  0  0
 41 39  1  0  0  0  0
 41 40  2  0  0  0  0
M  END
>  <MODEL>
1

>  <REMARK>
 VINA RESULT:      -7.7      0.000      0.000
  Name = 
  14 active torsions:
  status: ('A' for Active; 'I' for Inactive)
    1  A    between atoms: C_4  and  C_21
    2  A    between atoms: C_4  and  C_35
    3  A    between atoms: C_12  and  C_31
    4  A    between atoms: C_15  and  C_31
    5  A    between atoms: C_16  and  N_28
    6  A    between atoms: N_18  and  C_21
    7  A    between atoms: N_18  and  C_39
    8  A    between atoms: C_24  and  C_26
    9  A    between atoms: C_25  and  C_30
   10  A    between atoms: C_26  and  C_34
   11  A    between atoms: C_30  and  C_32
   12  A    between atoms: C_30  and  N_38
   13  A    between atoms: C_32  and  C_39
   14  A    between atoms: C_36  and  C_39
                            x       y       z     vdW  Elec       q    Type
                         _______ _______ _______ _____ _____    ______ ____

>  <TORSDO>
F 14

$$$$
=
 OpenBabel10222416533D

 41 44  0  0  1  0  0  0  0  0999 V2000
  188.0650  178.2950  142.3240 C   0  0  1  0  0  3  0  0  0  0  0  0
  183.8560  179.3040  139.4530 C   0  0  1  0  0  3  0  0  0  0  0  0
  182.9110  178.9260  138.3220 C   0  0  0  0  0  1  0  0  0  0  0  0
  186.1960  177.9170  143.9990 C   0  0  0  0  0  2  0  0  0  0  0  0
  185.6980  178.8600  137.9760 O   0  0  0  0  0  0  0  0  0  0  0  0
  186.1290  178.5000  140.2310 N   0  0  0  0  0  0  0  0  0  0  0  0
  184.7870  178.3560  144.2790 C   0  0  0  0  0  3  0  0  0  0  0  0
  183.3390  178.7120  140.7750 C   0  0  1  0  0  3  0  0  0  0  0  0
  185.6800  178.4750  141.5910 C   0  0  0  0  0  0  0  0  0  0  0  0
  183.9450  178.6580  143.2930 C   0  0  0  0  0  3  0  0  0  0  0  0
  185.2560  178.8530  139.1580 C   0  0  0  0  0  0  0  0  0  0  0  0
  184.3770  178.6490  141.8810 C   0  0  2  0  0  3  0  0  0  0  0  0
  186.6380  178.3080  142.6560 N   0  0  0  0  0  0  0  0  0  0  0  0
  180.6610  177.5910  140.9330 O   0  0  0  0  0  0  0  0  0  0  0  0
  179.7210  179.5560  141.7320 N   0  0  0  0  0  1  0  0  0  0  0  0
  182.1230  179.4010  141.2080 N   0  0  0  0  0  2  0  0  0  0  0  0
  180.8300  178.7900  141.2810 C   0  0  0  0  0  0  0  0  0  0  0  0
  191.3170  177.9720  144.4130 C   0  0  0  0  0  2  0  0  0  0  0  0
  190.3850  175.8620  143.2750 C   0  0  0  0  0  2  0  0  0  0  0  0
  189.0430  176.4330  143.7380 C   0  0  0  0  0  2  0  0  0  0  0  0
  191.5730  176.5130  144.0120 C   0  0  2  0  0  3  0  0  0  0  0  0
  188.9610  177.9530  143.5210 C   0  0  1  0  0  3  0  0  0  0  0  0
  190.3320  178.6490  143.4640 C   0  0  0  0  0  2  0  0  0  0  0  0
  191.9430  175.7140  145.2540 C   0  0  0  0  0  2  0  0  0  0  0  0
  191.6630  176.5020  146.5270 C   0  0  0  0  0  2  0  0  0  0  0  0
  192.3080  175.8270  147.7230 C   0  0  0  0  0  1  0  0  0  0  0  0
  188.3420  177.4210  141.1070 C   0  0  0  0  0  2  0  0  0  0  0  0
  189.5430  177.9510  140.3460 C   0  0  1  0  0  3  0  0  0  0  0  0
  191.9790  177.3970  140.2990 C   0  0  0  0  0  1  0  0  0  0  0  0
  190.5710  176.8460  140.1590 C   0  0  0  0  0  2  0  0  0  0  0  0
  189.0960  178.4300  139.0450 N   0  0  0  0  0  2  0  0  0  0  0  0
  188.8650  177.2760  138.1880 C   0  0  0  0  0  2  0  0  0  0  0  0
  189.5620  177.4620  136.8480 C   0  0  0  0  0  2  0  0  0  0  0  0
  191.1300  175.7890  135.9040 C   0  0  0  0  0  2  0  0  0  0  0  0
  191.5230  174.9270  137.0780 C   0  0  1  0  0  3  0  0  0  0  0  0
  190.3150  174.3060  137.6100 N   0  0  0  0  0  2  0  0  0  0  0  0
  189.6820  176.1230  136.1400 C   0  0  1  0  0  3  0  0  0  0  0  0
  189.1750  175.0230  137.0470 C   0  0  0  0  0  2  0  0  0  0  0  0
  192.5070  173.8630  136.6240 C   0  0  0  0  0  2  0  0  0  0  0  0
  194.0650  175.1580  137.9850 C   0  0  0  0  0  2  0  0  0  0  0  0
  193.8860  174.1990  137.0810 C   0  0  0  0  0  3  0  0  0  0  0  0
  1 27  1  6  0  0  0
  1 13  1  0  0  0  0
  2  3  1  6  0  0  0
  2  8  1  0  0  0  0
  4  7  1  0  0  0  0
  5 11  2  0  0  0  0
  6  9  2  0  0  0  0
  8 16  1  1  0  0  0
  8 12  1  0  0  0  0
  9 12  1  0  0  0  0
  9 13  1  0  0  0  0
 10  7  2  0  0  0  0
 11  2  1  0  0  0  0
 11  6  1  0  0  0  0
 12 10  1  1  0  0  0
 13  4  1  0  0  0  0
 14 17  2  0  0  0  0
 16 17  1  0  0  0  0
 17 15  1  0  0  0  0
 19 20  1  0  0  0  0
 19 21  1  0  0  0  0
 21 18  1  0  0  0  0
 21 24  1  1  0  0  0
 22  1  1  6  0  0  0
 22 20  1  0  0  0  0
 23 22  1  0  0  0  0
 23 18  1  0  0  0  0
 24 25  1  0  0  0  0
 25 26  1  0  0  0  0
 28 30  1  6  0  0  0
 28 27  1  0  0  0  0
 30 29  1  0  0  0  0
 31 28  1  0  0  0  0
 32 31  1  0  0  0  0
 33 32  1  0  0  0  0
 34 37  1  0  0  0  0
 34 35  1  0  0  0  0
 35 39  1  6  0  0  0
 35 36  1  0  0  0  0
 37 33  1  1  0  0  0
 37 38  1  0  0  0  0
 38 36  1  0  0  0  0
 39 41  1  0  0  0  0
 41 40  2  0  0  0  0
M  END
>  <MODEL>
2

>  <REMARK>
 VINA RESULT:      -7.5      2.622      8.418
  Name = 
  14 active torsions:
  status: ('A' for Active; 'I' for Inactive)
    1  A    between atoms: C_4  and  C_21
    2  A    between atoms: C_4  and  C_35
    3  A    between atoms: C_12  and  C_31
    4  A    between atoms: C_15  and  C_31
    5  A    between atoms: C_16  and  N_28
    6  A    between atoms: N_18  and  C_21
    7  A    between atoms: N_18  and  C_39
    8  A    between atoms: C_24  and  C_26
    9  A    between atoms: C_25  and  C_30
   10  A    between atoms: C_26  and  C_34
   11  A    between atoms: C_30  and  C_32
   12  A    between atoms: C_30  and  N_38
   13  A    between atoms: C_32  and  C_39
   14  A    between atoms: C_36  and  C_39
                            x       y       z     vdW  Elec       q    Type
                         _______ _______ _______ _____ _____    ______ ____

>  <TORSDO>
F 14

$$$$
=
 OpenBabel10222416533D

 41 44  0  0  1  0  0  0  0  0999 V2000
  188.0050  178.3280  142.3830 C   0  0  1  0  0  3  0  0  0  0  0  0
  183.7270  179.3850  139.6350 C   0  0  1  0  0  3  0  0  0  0  0  0
  182.7670  179.0390  138.5060 C   0  0  0  0  0  1  0  0  0  0  0  0
  186.1740  177.8460  144.0740 C   0  0  0  0  0  2  0  0  0  0  0  0
  185.5480  179.0370  138.1070 O   0  0  0  0  0  0  0  0  0  0  0  0
  186.0270  178.5880  140.3360 N   0  0  0  0  0  0  0  0  0  0  0  0
  184.7640  178.2470  144.3980 C   0  0  0  0  0  3  0  0  0  0  0  0
  183.2450  178.7270  140.9390 C   0  0  1  0  0  3  0  0  0  0  0  0
  185.6040  178.4980  141.7020 C   0  0  0  0  0  0  0  0  0  0  0  0
  183.8990  178.5760  143.4410 C   0  0  0  0  0  3  0  0  0  0  0  0
  185.1280  178.9720  139.2950 C   0  0  0  0  0  0  0  0  0  0  0  0
  184.3040  178.6360  142.0230 C   0  0  2  0  0  3  0  0  0  0  0  0
  186.5850  178.3020  142.7410 N   0  0  0  0  0  0  0  0  0  0  0  0
  180.5700  177.5910  140.9950 O   0  0  0  0  0  0  0  0  0  0  0  0
  179.6220  179.4820  141.9500 N   0  0  0  0  0  1  0  0  0  0  0  0
  182.0250  179.3760  141.4220 N   0  0  0  0  0  2  0  0  0  0  0  0
  180.7330  178.7580  141.4410 C   0  0  0  0  0  0  0  0  0  0  0  0
  191.3080  178.0030  144.3910 C   0  0  0  0  0  2  0  0  0  0  0  0
  190.3500  175.8950  143.2710 C   0  0  0  0  0  2  0  0  0  0  0  0
  189.0190  176.4640  143.7690 C   0  0  0  0  0  2  0  0  0  0  0  0
  191.5550  176.5440  143.9810 C   0  0  2  0  0  3  0  0  0  0  0  0
  188.9300  177.9840  143.5580 C   0  0  1  0  0  3  0  0  0  0  0  0
  190.3000  178.6810  143.4690 C   0  0  0  0  0  2  0  0  0  0  0  0
  191.9560  175.7430  145.2110 C   0  0  0  0  0  2  0  0  0  0  0  0
  191.6160  176.4870  146.4960 C   0  0  0  0  0  2  0  0  0  0  0  0
  192.3140  175.8470  147.6810 C   0  0  0  0  0  1  0  0  0  0  0  0
  188.2800  177.4840  141.1450 C   0  0  0  0  0  2  0  0  0  0  0  0
  189.4100  178.0950  140.3370 C   0  0  1  0  0  3  0  0  0  0  0  0
  191.8260  177.4570  140.3270 C   0  0  0  0  0  1  0  0  0  0  0  0
  190.4190  177.0210  139.9590 C   0  0  0  0  0  2  0  0  0  0  0  0
  188.8530  178.6910  139.1310 N   0  0  0  0  0  2  0  0  0  0  0  0
  188.9560  177.7180  138.0520 C   0  0  0  0  0  2  0  0  0  0  0  0
  188.6230  178.3700  136.7170 C   0  0  0  0  0  2  0  0  0  0  0  0
  187.7400  176.0750  136.3960 C   0  0  0  0  0  2  0  0  0  0  0  0
  186.2400  176.2390  136.3880 C   0  0  1  0  0  3  0  0  0  0  0  0
  185.8860  177.1220  135.2820 N   0  0  0  0  0  2  0  0  0  0  0  0
  188.2650  177.3010  135.6980 C   0  0  1  0  0  3  0  0  0  0  0  0
  187.1120  177.7820  134.8430 C   0  0  0  0  0  2  0  0  0  0  0  0
  185.5790  174.8830  136.2130 C   0  0  0  0  0  2  0  0  0  0  0  0
  185.2760  172.9320  137.6460 C   0  0  0  0  0  2  0  0  0  0  0  0
  186.0610  173.9310  137.2520 C   0  0  0  0  0  3  0  0  0  0  0  0
  1 27  1  6  0  0  0
  1 13  1  0  0  0  0
  2  3  1  6  0  0  0
  2  8  1  0  0  0  0
  4  7  1  0  0  0  0
  5 11  2  0  0  0  0
  6  9  2  0  0  0  0
  8 16  1  1  0  0  0
  8 12  1  0  0  0  0
  9 12  1  0  0  0  0
  9 13  1  0  0  0  0
 10  7  2  0  0  0  0
 11  2  1  0  0  0  0
 11  6  1  0  0  0  0
 12 10  1  1  0  0  0
 13  4  1  0  0  0  0
 14 17  2  0  0  0  0
 16 17  1  0  0  0  0
 17 15  1  0  0  0  0
 19 20  1  0  0  0  0
 19 21  1  0  0  0  0
 21 18  1  0  0  0  0
 21 24  1  1  0  0  0
 22  1  1  6  0  0  0
 22 20  1  0  0  0  0
 23 22  1  0  0  0  0
 23 18  1  0  0  0  0
 24 25  1  0  0  0  0
 25 26  1  0  0  0  0
 28 30  1  6  0  0  0
 28 27  1  0  0  0  0
 30 29  1  0  0  0  0
 31 28  1  0  0  0  0
 32 31  1  0  0  0  0
 33 32  1  0  0  0  0
 35 39  1  6  0  0  0
 35 34  1  0  0  0  0
 36 35  1  0  0  0  0
 37 34  1  0  0  0  0
 37 33  1  1  0  0  0
 38 36  1  0  0  0  0
 38 37  1  0  0  0  0
 39 41  1  0  0  0  0
 41 40  2  0  0  0  0
M  END
>  <MODEL>
3

>  <REMARK>
 VINA RESULT:      -7.5      3.298      8.196
  Name = 
  14 active torsions:
  status: ('A' for Active; 'I' for Inactive)
    1  A    between atoms: C_4  and  C_21
    2  A    between atoms: C_4  and  C_35
    3  A    between atoms: C_12  and  C_31
    4  A    between atoms: C_15  and  C_31
    5  A    between atoms: C_16  and  N_28
    6  A    between atoms: N_18  and  C_21
    7  A    between atoms: N_18  and  C_39
    8  A    between atoms: C_24  and  C_26
    9  A    between atoms: C_25  and  C_30
   10  A    between atoms: C_26  and  C_34
   11  A    between atoms: C_30  and  C_32
   12  A    between atoms: C_30  and  N_38
   13  A    between atoms: C_32  and  C_39
   14  A    between atoms: C_36  and  C_39
                            x       y       z     vdW  Elec       q    Type
                         _______ _______ _______ _____ _____    ______ ____

>  <TORSDO>
F 14

$$$$
=
 OpenBabel10222416533D

 41 44  0  0  1  0  0  0  0  0999 V2000
  187.9620  177.4540  142.1050 C   0  0  1  0  0  3  0  0  0  0  0  0
  189.1840  176.4060  137.1680 C   0  0  1  0  0  3  0  0  0  0  0  0
  189.1020  176.7520  135.6880 C   0  0  0  0  0  1  0  0  0  0  0  0
  190.4510  177.9530  142.0740 C   0  0  0  0  0  2  0  0  0  0  0  0
  186.8090  176.7370  137.3110 O   0  0  0  0  0  0  0  0  0  0  0  0
  187.9920  177.1940  139.2590 N   0  0  0  0  0  0  0  0  0  0  0  0
  191.6990  177.5600  141.3390 C   0  0  0  0  0  3  0  0  0  0  0  0
  190.4260  177.0720  137.7830 C   0  0  1  0  0  3  0  0  0  0  0  0
  189.2370  177.2930  139.9600 C   0  0  0  0  0  0  0  0  0  0  0  0
  191.6720  177.2310  140.0490 C   0  0  0  0  0  3  0  0  0  0  0  0
  187.9310  176.8110  137.8850 C   0  0  0  0  0  0  0  0  0  0  0  0
  190.4020  177.1630  139.2980 C   0  0  2  0  0  3  0  0  0  0  0  0
  189.2390  177.4880  141.3880 N   0  0  0  0  0  0  0  0  0  0  0  0
  191.0690  174.2380  137.8800 O   0  0  0  0  0  0  0  0  0  0  0  0
  193.1230  174.5130  136.8330 N   0  0  0  0  0  1  0  0  0  0  0  0
  191.6490  176.4310  137.2950 N   0  0  0  0  0  2  0  0  0  0  0  0
  191.9030  175.0230  137.3540 C   0  0  0  0  0  0  0  0  0  0  0  0
  187.4960  177.0110  145.9310 C   0  0  0  0  0  2  0  0  0  0  0  0
  189.7920  177.7810  145.0640 C   0  0  0  0  0  2  0  0  0  0  0  0
  189.5190  176.7410  143.9740 C   0  0  0  0  0  2  0  0  0  0  0  0
  188.8730  177.5870  146.2870 C   0  0  2  0  0  3  0  0  0  0  0  0
  188.0620  176.7910  143.4850 C   0  0  1  0  0  3  0  0  0  0  0  0
  187.0810  177.3870  144.5110 C   0  0  0  0  0  2  0  0  0  0  0  0
  189.5330  176.6890  147.3240 C   0  0  0  0  0  2  0  0  0  0  0  0
  191.0210  176.9880  147.4540 C   0  0  0  0  0  2  0  0  0  0  0  0
  191.8250  175.7020  147.4350 C   0  0  0  0  0  1  0  0  0  0  0  0
  187.3170  178.8330  142.1550 C   0  0  0  0  0  2  0  0  0  0  0  0
  185.8550  178.7410  141.7580 C   0  0  1  0  0  3  0  0  0  0  0  0
  183.8940  178.5100  143.2890 C   0  0  0  0  0  1  0  0  0  0  0  0
  184.9890  179.4390  142.7960 C   0  0  0  0  0  2  0  0  0  0  0  0
  185.6820  179.3820  140.4630 N   0  0  0  0  0  2  0  0  0  0  0  0
  184.6620  178.6510  139.7240 C   0  0  0  0  0  2  0  0  0  0  0  0
  183.6210  179.6110  139.1660 C   0  0  0  0  0  2  0  0  0  0  0  0
  181.7410  178.4950  140.3360 C   0  0  0  0  0  2  0  0  0  0  0  0
  180.8010  179.6160  140.7080 C   0  0  1  0  0  3  0  0  0  0  0  0
  180.3700  180.2730  139.4800 N   0  0  0  0  0  2  0  0  0  0  0  0
  182.2960  178.8880  138.9930 C   0  0  1  0  0  3  0  0  0  0  0  0
  181.2700  179.8400  138.4150 C   0  0  0  0  0  2  0  0  0  0  0  0
  179.6050  179.0530  141.4540 C   0  0  0  0  0  2  0  0  0  0  0  0
  180.1150  178.6010  143.7970 C   0  0  0  0  0  2  0  0  0  0  0  0
  180.0530  178.1460  142.5490 C   0  0  0  0  0  3  0  0  0  0  0  0
  1 27  1  1  0  0  0
  2  3  1  6  0  0  0
  2  8  1  0  0  0  0
  2 11  1  0  0  0  0
  5 11  2  0  0  0  0
  6  9  2  0  0  0  0
  7  4  1  0  0  0  0
  8 16  1  1  0  0  0
  8 12  1  0  0  0  0
  9 13  1  0  0  0  0
 10  7  2  0  0  0  0
 11  6  1  0  0  0  0
 12  9  1  0  0  0  0
 12 10  1  6  0  0  0
 13  4  1  0  0  0  0
 13  1  1  0  0  0  0
 15 17  1  0  0  0  0
 16 17  1  0  0  0  0
 17 14  2  0  0  0  0
 18 21  1  0  0  0  0
 19 21  1  0  0  0  0
 20 19  1  0  0  0  0
 21 24  1  1  0  0  0
 22  1  1  6  0  0  0
 22 20  1  0  0  0  0
 22 23  1  0  0  0  0
 23 18  1  0  0  0  0
 24 25  1  0  0  0  0
 26 25  1  0  0  0  0
 28 27  1  1  0  0  0
 28 30  1  0  0  0  0
 30 29  1  0  0  0  0
 31 28  1  0  0  0  0
 32 31  1  0  0  0  0
 33 32  1  0  0  0  0
 34 35  1  0  0  0  0
 35 39  1  6  0  0  0
 36 35  1  0  0  0  0
 37 33  1  1  0  0  0
 37 34  1  0  0  0  0
 38 37  1  0  0  0  0
 38 36  1  0  0  0  0
 39 41  1  0  0  0  0
 41 40  2  0  0  0  0
M  END
>  <MODEL>
4

>  <REMARK>
 VINA RESULT:      -7.2      2.546      4.120
  Name = 
  14 active torsions:
  status: ('A' for Active; 'I' for Inactive)
    1  A    between atoms: C_4  and  C_21
    2  A    between atoms: C_4  and  C_35
    3  A    between atoms: C_12  and  C_31
    4  A    between atoms: C_15  and  C_31
    5  A    between atoms: C_16  and  N_28
    6  A    between atoms: N_18  and  C_21
    7  A    between atoms: N_18  and  C_39
    8  A    between atoms: C_24  and  C_26
    9  A    between atoms: C_25  and  C_30
   10  A    between atoms: C_26  and  C_34
   11  A    between atoms: C_30  and  C_32
   12  A    between atoms: C_30  and  N_38
   13  A    between atoms: C_32  and  C_39
   14  A    between atoms: C_36  and  C_39
                            x       y       z     vdW  Elec       q    Type
                         _______ _______ _______ _____ _____    ______ ____

>  <TORSDO>
F 14

$$$$
=
 OpenBabel10222416533D

 41 44  0  0  1  0  0  0  0  0999 V2000
  181.5760  178.4530  139.4650 C   0  0  1  0  0  3  0  0  0  0  0  0
  185.7300  176.6720  136.9070 C   0  0  1  0  0  3  0  0  0  0  0  0
  187.2070  176.3080  136.8850 C   0  0  0  0  0  1  0  0  0  0  0  0
  180.9780  176.0060  139.1540 C   0  0  0  0  0  2  0  0  0  0  0  0
  186.3210  178.7410  137.9750 O   0  0  0  0  0  0  0  0  0  0  0  0
  184.2170  177.9150  138.5140 N   0  0  0  0  0  2  0  0  0  0  0  0
  181.2560  174.8560  138.2290 C   0  0  0  0  0  3  0  0  0  0  0  0
  184.9020  175.4340  137.2910 C   0  0  1  0  0  3  0  0  0  0  0  0
  183.2170  176.8970  138.3970 C   0  0  0  0  0  0  0  0  0  0  0  0
  182.4310  174.7260  137.6160 C   0  0  0  0  0  3  0  0  0  0  0  0
  185.4720  177.8180  137.8410 C   0  0  0  0  0  0  0  0  0  0  0  0
  183.4900  175.7450  137.7570 C   0  0  0  0  0  0  0  0  0  0  0  0
  181.8970  177.1280  138.9290 N   0  0  0  0  0  0  0  0  0  0  0  0
  186.0170  172.7510  137.3830 O   0  0  0  0  0  0  0  0  0  0  0  0
  185.4050  172.2570  135.2000 N   0  0  0  0  0  1  0  0  0  0  0  0
  184.9140  174.4500  136.2070 N   0  0  0  0  0  2  0  0  0  0  0  0
  185.4650  173.1330  136.3170 C   0  0  0  0  0  0  0  0  0  0  0  0
  180.5500  180.4130  136.2790 C   0  0  0  0  0  2  0  0  0  0  0  0
  181.2910  181.7510  138.3470 C   0  0  0  0  0  2  0  0  0  0  0  0
  180.4640  180.6990  139.0910 C   0  0  0  0  0  2  0  0  0  0  0  0
  180.9640  181.7800  136.8410 C   0  0  2  0  0  3  0  0  0  0  0  0
  180.6920  179.2870  138.5280 C   0  0  1  0  0  3  0  0  0  0  0  0
  181.1800  179.2690  137.0680 C   0  0  0  0  0  2  0  0  0  0  0  0
  179.8670  182.7920  136.5430 C   0  0  0  0  0  2  0  0  0  0  0  0
  180.0200  183.3870  135.1500 C   0  0  0  0  0  2  0  0  0  0  0  0
  180.6880  184.7470  135.2230 C   0  0  0  0  0  1  0  0  0  0  0  0
  181.0160  178.3570  140.8790 C   0  0  0  0  0  2  0  0  0  0  0  0
  181.9450  179.0520  141.8570 C   0  0  1  0  0  3  0  0  0  0  0  0
  180.1890  178.2640  143.4500 C   0  0  0  0  0  1  0  0  0  0  0  0
  181.2070  179.3500  143.1540 C   0  0  0  0  0  2  0  0  0  0  0  0
  183.0770  178.1780  142.1270 N   0  0  0  0  0  2  0  0  0  0  0  0
  184.3010  178.9320  141.8950 C   0  0  0  0  0  2  0  0  0  0  0  0
  184.9060  179.3810  143.2180 C   0  0  0  0  0  2  0  0  0  0  0  0
  186.1100  177.8380  144.7410 C   0  0  0  0  0  2  0  0  0  0  0  0
  186.3500  178.6440  145.9930 C   0  0  1  0  0  3  0  0  0  0  0  0
  185.0540  179.0450  146.5310 N   0  0  0  0  0  2  0  0  0  0  0  0
  184.7550  178.2780  144.2530 C   0  0  1  0  0  3  0  0  0  0  0  0
  184.0630  178.8270  145.4820 C   0  0  0  0  0  2  0  0  0  0  0  0
  187.1050  177.8020  147.0060 C   0  0  0  0  0  2  0  0  0  0  0  0
  189.4110  177.0400  147.2410 C   0  0  0  0  0  2  0  0  0  0  0  0
  188.3950  177.3270  146.4320 C   0  0  0  0  0  3  0  0  0  0  0  0
  1 27  1  1  0  0  0
  2  3  1  1  0  0  0
  2  8  1  0  0  0  0
  2 11  1  0  0  0  0
  7  4  1  0  0  0  0
  8 16  1  6  0  0  0
  8 12  1  0  0  0  0
  9  6  1  0  0  0  0
  9 13  1  0  0  0  0
 10 12  1  0  0  0  0
 10  7  2  0  0  0  0
 11  5  2  0  0  0  0
 11  6  1  0  0  0  0
 12  9  2  0  0  0  0
 13  4  1  0  0  0  0
 13  1  1  0  0  0  0
 15 17  1  0  0  0  0
 16 17  1  0  0  0  0
 17 14  2  0  0  0  0
 18 21  1  0  0  0  0
 18 23  1  0  0  0  0
 19 20  1  0  0  0  0
 21 24  1  1  0  0  0
 21 19  1  0  0  0  0
 22 20  1  0  0  0  0
 22  1  1  1  0  0  0
 23 22  1  0  0  0  0
 25 26  1  0  0  0  0
 25 24  1  0  0  0  0
 28 27  1  6  0  0  0
 28 31  1  0  0  0  0
 28 30  1  0  0  0  0
 30 29  1  0  0  0  0
 32 31  1  0  0  0  0
 32 33  1  0  0  0  0
 34 35  1  0  0  0  0
 35 36  1  0  0  0  0
 35 39  1  1  0  0  0
 37 33  1  6  0  0  0
 37 34  1  0  0  0  0
 37 38  1  0  0  0  0
 38 36  1  0  0  0  0
 41 39  1  0  0  0  0
 41 40  2  0  0  0  0
M  END
>  <MODEL>
5

>  <REMARK>
 VINA RESULT:      -7.2      4.653      9.055
  Name = 
  14 active torsions:
  status: ('A' for Active; 'I' for Inactive)
    1  A    between atoms: C_4  and  C_21
    2  A    between atoms: C_4  and  C_35
    3  A    between atoms: C_12  and  C_31
    4  A    between atoms: C_15  and  C_31
    5  A    between atoms: C_16  and  N_28
    6  A    between atoms: N_18  and  C_21
    7  A    between atoms: N_18  and  C_39
    8  A    between atoms: C_24  and  C_26
    9  A    between atoms: C_25  and  C_30
   10  A    between atoms: C_26  and  C_34
   11  A    between atoms: C_30  and  C_32
   12  A    between atoms: C_30  and  N_38
   13  A    between atoms: C_32  and  C_39
   14  A    between atoms: C_36  and  C_39
                            x       y       z     vdW  Elec       q    Type
                         _______ _______ _______ _____ _____    ______ ____

>  <TORSDO>
F 14

$$$$
=
 OpenBabel10222416533D

 41 44  0  0  1  0  0  0  0  0999 V2000
  185.2750  178.8050  140.9160 C   0  0  1  0  0  3  0  0  0  0  0  0
  188.0820  177.3520  136.7950 C   0  0  1  0  0  3  0  0  0  0  0  0
  188.6800  177.6660  135.4310 C   0  0  0  0  0  1  0  0  0  0  0  0
  187.6110  178.6810  141.9010 C   0  0  0  0  0  2  0  0  0  0  0  0
  185.9970  178.2570  136.0160 O   0  0  0  0  0  0  0  0  0  0  0  0
  186.3760  178.4660  138.3000 N   0  0  0  0  0  0  0  0  0  0  0  0
  188.9200  177.9750  141.6900 C   0  0  0  0  0  3  0  0  0  0  0  0
  189.0940  177.7120  137.8950 C   0  0  1  0  0  3  0  0  0  0  0  0
  187.2240  178.2780  139.4390 C   0  0  0  0  0  0  0  0  0  0  0  0
  189.3320  177.6270  140.4730 C   0  0  0  0  0  3  0  0  0  0  0  0
  186.7800  178.0700  136.9880 C   0  0  0  0  0  0  0  0  0  0  0  0
  188.4900  177.8490  139.2810 C   0  0  2  0  0  3  0  0  0  0  0  0
  186.7010  178.5070  140.7630 N   0  0  0  0  0  0  0  0  0  0  0  0
  188.9660  174.8230  137.5970 O   0  0  0  0  0  0  0  0  0  0  0  0
  191.2690  174.5570  137.7020 N   0  0  0  0  0  1  0  0  0  0  0  0
  190.2220  176.7790  137.8820 N   0  0  0  0  0  2  0  0  0  0  0  0
  190.0980  175.3620  137.7140 C   0  0  0  0  0  0  0  0  0  0  0  0
  182.5320  179.1900  138.2000 C   0  0  0  0  0  2  0  0  0  0  0  0
  182.1420  177.4950  140.0960 C   0  0  0  0  0  2  0  0  0  0  0  0
  183.6250  177.1890  139.8730 C   0  0  0  0  0  2  0  0  0  0  0  0
  181.5300  178.2690  138.9110 C   0  0  2  0  0  3  0  0  0  0  0  0
  184.4510  178.4700  139.6670 C   0  0  1  0  0  3  0  0  0  0  0  0
  183.6280  179.6640  139.1500 C   0  0  0  0  0  2  0  0  0  0  0  0
  180.9260  177.3130  137.8920 C   0  0  0  0  0  2  0  0  0  0  0  0
  181.8620  177.0900  136.7130 C   0  0  0  0  0  2  0  0  0  0  0  0
  182.1590  175.6120  136.5420 C   0  0  0  0  0  1  0  0  0  0  0  0
  184.7120  178.1780  142.1840 C   0  0  0  0  0  2  0  0  0  0  0  0
  183.9870  179.2270  143.0070 C   0  0  1  0  0  3  0  0  0  0  0  0
  181.4920  179.2710  143.1410 C   0  0  0  0  0  1  0  0  0  0  0  0
  182.7570  178.6160  143.6640 C   0  0  0  0  0  2  0  0  0  0  0  0
  184.8930  179.7250  144.0320 N   0  0  0  0  0  2  0  0  0  0  0  0
  184.6950  178.9360  145.2400 C   0  0  0  0  0  2  0  0  0  0  0  0
  185.8830  179.0960  146.1790 C   0  0  0  0  0  2  0  0  0  0  0  0
  187.4710  177.4510  145.2190 C   0  0  0  0  0  2  0  0  0  0  0  0
  188.8320  177.9320  145.6580 C   0  0  1  0  0  3  0  0  0  0  0  0
  188.8630  177.9360  147.1160 N   0  0  0  0  0  2  0  0  0  0  0  0
  186.5630  177.7530  146.3810 C   0  0  1  0  0  3  0  0  0  0  0  0
  187.4840  177.8260  147.5810 C   0  0  0  0  0  2  0  0  0  0  0  0
  189.9020  177.0040  145.1100 C   0  0  0  0  0  2  0  0  0  0  0  0
  191.8590  176.0440  146.2070 C   0  0  0  0  0  2  0  0  0  0  0  0
  191.1580  177.1320  145.9020 C   0  0  0  0  0  3  0  0  0  0  0  0
  1 27  1  1  0  0  0
  2  3  1  6  0  0  0
  2 11  1  0  0  0  0
  2  8  1  0  0  0  0
  5 11  2  0  0  0  0
  6  9  2  0  0  0  0
  7  4  1  0  0  0  0
  8 16  1  1  0  0  0
  8 12  1  0  0  0  0
  9 13  1  0  0  0  0
 10  7  2  0  0  0  0
 11  6  1  0  0  0  0
 12  9  1  0  0  0  0
 12 10  1  1  0  0  0
 13  1  1  0  0  0  0
 13  4  1  0  0  0  0
 14 17  2  0  0  0  0
 15 17  1  0  0  0  0
 17 16  1  0  0  0  0
 18 21  1  0  0  0  0
 18 23  1  0  0  0  0
 20 19  1  0  0  0  0
 21 24  1  6  0  0  0
 21 19  1  0  0  0  0
 22 20  1  0  0  0  0
 22  1  1  1  0  0  0
 23 22  1  0  0  0  0
 25 24  1  0  0  0  0
 26 25  1  0  0  0  0
 28 27  1  1  0  0  0
 28 30  1  0  0  0  0
 28 31  1  0  0  0  0
 29 30  1  0  0  0  0
 31 32  1  0  0  0  0
 32 33  1  0  0  0  0
 34 35  1  0  0  0  0
 34 37  1  0  0  0  0
 35 39  1  6  0  0  0
 35 36  1  0  0  0  0
 36 38  1  0  0  0  0
 37 33  1  6  0  0  0
 37 38  1  0  0  0  0
 39 41  1  0  0  0  0
 41 40  2  0  0  0  0
M  END
>  <MODEL>
6

>  <REMARK>
 VINA RESULT:      -7.1      2.598      6.604
  Name = 
  14 active torsions:
  status: ('A' for Active; 'I' for Inactive)
    1  A    between atoms: C_4  and  C_21
    2  A    between atoms: C_4  and  C_35
    3  A    between atoms: C_12  and  C_31
    4  A    between atoms: C_15  and  C_31
    5  A    between atoms: C_16  and  N_28
    6  A    between atoms: N_18  and  C_21
    7  A    between atoms: N_18  and  C_39
    8  A    between atoms: C_24  and  C_26
    9  A    between atoms: C_25  and  C_30
   10  A    between atoms: C_26  and  C_34
   11  A    between atoms: C_30  and  C_32
   12  A    between atoms: C_30  and  N_38
   13  A    between atoms: C_32  and  C_39
   14  A    between atoms: C_36  and  C_39
                            x       y       z     vdW  Elec       q    Type
                         _______ _______ _______ _____ _____    ______ ____

>  <TORSDO>
F 14

$$$$
=
 OpenBabel10222416533D

 41 44  0  0  1  0  0  0  0  0999 V2000
  184.3740  178.8740  139.1430 C   0  0  1  0  0  3  0  0  0  0  0  0
  189.4860  178.0310  139.4930 C   0  0  1  0  0  3  0  0  0  0  0  0
  190.6730  177.4150  140.2190 C   0  0  0  0  0  1  0  0  0  0  0  0
  184.7720  177.3080  137.1850 C   0  0  0  0  0  2  0  0  0  0  0  0
  188.7040  178.8600  141.6070 O   0  0  0  0  0  0  0  0  0  0  0  0
  187.0430  178.3990  140.0490 N   0  0  0  0  0  2  0  0  0  0  0  0
  185.8590  176.9000  136.2330 C   0  0  0  0  0  3  0  0  0  0  0  0
  188.9620  177.0430  138.4370 C   0  0  1  0  0  3  0  0  0  0  0  0
  186.6520  177.9170  138.7580 C   0  0  0  0  0  0  0  0  0  0  0  0
  187.1380  176.8850  136.6040 C   0  0  0  0  0  3  0  0  0  0  0  0
  188.4100  178.4260  140.4600 C   0  0  0  0  0  0  0  0  0  0  0  0
  187.5560  177.3400  137.9450 C   0  0  0  0  0  0  0  0  0  0  0  0
  185.2920  178.0920  138.3120 N   0  0  0  0  0  0  0  0  0  0  0  0
  190.6270  174.7420  137.8170 O   0  0  0  0  0  0  0  0  0  0  0  0
  191.5750  175.7400  135.9480 N   0  0  0  0  0  1  0  0  0  0  0  0
  189.9120  176.9190  137.3300 N   0  0  0  0  0  2  0  0  0  0  0  0
  190.6950  175.7500  137.0640 C   0  0  0  0  0  0  0  0  0  0  0  0
  181.4000  181.2310  138.3370 C   0  0  0  0  0  2  0  0  0  0  0  0
  180.8800  178.8580  139.1820 C   0  0  0  0  0  2  0  0  0  0  0  0
  182.0350  178.4770  138.2520 C   0  0  0  0  0  2  0  0  0  0  0  0
  180.3330  180.2660  138.8740 C   0  0  2  0  0  3  0  0  0  0  0  0
  183.2030  179.4720  138.3510 C   0  0  1  0  0  3  0  0  0  0  0  0
  182.7910  180.8690  138.8480 C   0  0  0  0  0  2  0  0  0  0  0  0
  179.1830  180.1960  137.8800 C   0  0  0  0  0  2  0  0  0  0  0  0
  179.5970  180.7160  136.5100 C   0  0  0  0  0  2  0  0  0  0  0  0
  179.6420  179.5830  135.5020 C   0  0  0  0  0  1  0  0  0  0  0  0
  183.9220  178.0840  140.3640 C   0  0  0  0  0  2  0  0  0  0  0  0
  183.7110  179.0180  141.5410 C   0  0  1  0  0  3  0  0  0  0  0  0
  181.5310  179.2540  142.7410 C   0  0  0  0  0  1  0  0  0  0  0  0
  182.7590  178.3830  142.5450 C   0  0  0  0  0  2  0  0  0  0  0  0
  184.9970  179.2680  142.1750 N   0  0  0  0  0  2  0  0  0  0  0  0
  185.3560  178.0940  142.9580 C   0  0  0  0  0  2  0  0  0  0  0  0
  185.6580  178.4880  144.3970 C   0  0  0  0  0  2  0  0  0  0  0  0
  187.6900  177.0690  144.4840 C   0  0  0  0  0  2  0  0  0  0  0  0
  188.6710  177.8540  145.3190 C   0  0  1  0  0  3  0  0  0  0  0  0
  188.0850  178.0530  146.6400 N   0  0  0  0  0  2  0  0  0  0  0  0
  186.3480  177.3380  145.1120 C   0  0  1  0  0  3  0  0  0  0  0  0
  186.6620  177.7410  146.5370 C   0  0  0  0  0  2  0  0  0  0  0  0
  189.9760  177.0860  145.4320 C   0  0  0  0  0  2  0  0  0  0  0  0
  191.5120  176.6510  147.2760 C   0  0  0  0  0  2  0  0  0  0  0  0
  190.2540  176.7370  146.8530 C   0  0  0  0  0  3  0  0  0  0  0  0
  1 27  1  1  0  0  0
  2  3  1  1  0  0  0
  2 11  1  0  0  0  0
  4 13  1  0  0  0  0
  6 11  1  0  0  0  0
  7 10  2  0  0  0  0
  7  4  1  0  0  0  0
  8 16  1  6  0  0  0
  8  2  1  0  0  0  0
  9  6  1  0  0  0  0
 10 12  1  0  0  0  0
 11  5  2  0  0  0  0
 12  8  1  0  0  0  0
 12  9  2  0  0  0  0
 13  9  1  0  0  0  0
 13  1  1  0  0  0  0
 15 17  1  0  0  0  0
 17 16  1  0  0  0  0
 17 14  2  0  0  0  0
 18 23  1  0  0  0  0
 18 21  1  0  0  0  0
 20 22  1  0  0  0  0
 20 19  1  0  0  0  0
 21 24  1  6  0  0  0
 21 19  1  0  0  0  0
 22 23  1  0  0  0  0
 22  1  1  1  0  0  0
 25 24  1  0  0  0  0
 26 25  1  0  0  0  0
 28 27  1  6  0  0  0
 28 31  1  0  0  0  0
 28 30  1  0  0  0  0
 30 29  1  0  0  0  0
 31 32  1  0  0  0  0
 32 33  1  0  0  0  0
 34 37  1  0  0  0  0
 34 35  1  0  0  0  0
 35 39  1  1  0  0  0
 35 36  1  0  0  0  0
 37 33  1  6  0  0  0
 37 38  1  0  0  0  0
 38 36  1  0  0  0  0
 39 41  1  0  0  0  0
 41 40  2  0  0  0  0
M  END
>  <MODEL>
7

>  <REMARK>
 VINA RESULT:      -7.0      3.332      7.453
  Name = 
  14 active torsions:
  status: ('A' for Active; 'I' for Inactive)
    1  A    between atoms: C_4  and  C_21
    2  A    between atoms: C_4  and  C_35
    3  A    between atoms: C_12  and  C_31
    4  A    between atoms: C_15  and  C_31
    5  A    between atoms: C_16  and  N_28
    6  A    between atoms: N_18  and  C_21
    7  A    between atoms: N_18  and  C_39
    8  A    between atoms: C_24  and  C_26
    9  A    between atoms: C_25  and  C_30
   10  A    between atoms: C_26  and  C_34
   11  A    between atoms: C_30  and  C_32
   12  A    between atoms: C_30  and  N_38
   13  A    between atoms: C_32  and  C_39
   14  A    between atoms: C_36  and  C_39
                            x       y       z     vdW  Elec       q    Type
                         _______ _______ _______ _____ _____    ______ ____

>  <TORSDO>
F 14

$$$$
=
 OpenBabel10222416533D

 41 44  0  0  1  0  0  0  0  0999 V2000
  184.4790  178.0480  141.4220 C   0  0  1  0  0  3  0  0  0  0  0  0
  188.3460  176.8320  144.6690 C   0  0  1  0  0  3  0  0  0  0  0  0
  189.7930  176.9910  145.1140 C   0  0  0  0  0  1  0  0  0  0  0  0
  183.7060  179.1440  143.5770 C   0  0  0  0  0  2  0  0  0  0  0  0
  189.1340  176.5750  142.4140 O   0  0  0  0  0  0  0  0  0  0  0  0
  187.0170  177.5100  142.6220 N   0  0  0  0  0  0  0  0  0  0  0  0
  183.8530  179.0010  145.0650 C   0  0  0  0  0  3  0  0  0  0  0  0
  187.4640  177.8460  145.4170 C   0  0  1  0  0  3  0  0  0  0  0  0
  185.9480  177.9880  143.4460 C   0  0  0  0  0  0  0  0  0  0  0  0
  184.9770  178.5440  145.6110 C   0  0  0  0  0  3  0  0  0  0  0  0
  188.2200  176.9840  143.1820 C   0  0  0  0  0  0  0  0  0  0  0  0
  186.1070  178.0850  144.7790 C   0  0  2  0  0  3  0  0  0  0  0  0
  184.6800  178.3250  142.8470 N   0  0  0  0  0  0  0  0  0  0  0  0
  189.0470  178.8860  147.6220 O   0  0  0  0  0  0  0  0  0  0  0  0
  187.9300  177.6250  149.2190 N   0  0  0  0  0  1  0  0  0  0  0  0
  187.3460  177.4830  146.8300 N   0  0  0  0  0  2  0  0  0  0  0  0
  188.1450  178.0440  147.8780 C   0  0  0  0  0  0  0  0  0  0  0  0
  181.3450  176.9510  139.4180 C   0  0  0  0  0  2  0  0  0  0  0  0
  182.3290  179.2830  138.9610 C   0  0  0  0  0  2  0  0  0  0  0  0
  182.4910  179.3070  140.4830 C   0  0  0  0  0  2  0  0  0  0  0  0
  181.3500  178.1830  138.5030 C   0  0  2  0  0  3  0  0  0  0  0  0
  183.0000  177.9620  141.0270 C   0  0  1  0  0  3  0  0  0  0  0  0
  182.6900  176.7630  140.1120 C   0  0  0  0  0  2  0  0  0  0  0  0
  179.9330  178.7290  138.3960 C   0  0  0  0  0  2  0  0  0  0  0  0
  179.9310  180.2230  138.1040 C   0  0  0  0  0  2  0  0  0  0  0  0
  179.4780  181.0030  139.3240 C   0  0  0  0  0  1  0  0  0  0  0  0
  185.2700  179.0170  140.5530 C   0  0  0  0  0  2  0  0  0  0  0  0
  186.0830  178.2520  139.5250 C   0  0  1  0  0  3  0  0  0  0  0  0
  185.1430  177.3320  137.4010 C   0  0  0  0  0  1  0  0  0  0  0  0
  185.5980  178.5870  138.1220 C   0  0  0  0  0  2  0  0  0  0  0  0
  187.4830  178.6280  139.6630 N   0  0  0  0  0  2  0  0  0  0  0  0
  188.3000  177.5640  139.0960 C   0  0  0  0  0  2  0  0  0  0  0  0
  189.4660  178.1510  138.3130 C   0  0  0  0  0  2  0  0  0  0  0  0
  191.2770  176.7540  137.3560 C   0  0  0  0  0  2  0  0  0  0  0  0
  191.1760  175.4400  138.0890 C   0  0  1  0  0  3  0  0  0  0  0  0
  189.8550  174.8760  137.8310 N   0  0  0  0  0  2  0  0  0  0  0  0
  189.8530  177.2100  137.1840 C   0  0  1  0  0  3  0  0  0  0  0  0
  189.0290  175.9430  137.2750 C   0  0  0  0  0  2  0  0  0  0  0  0
  192.2580  174.4950  137.5970 C   0  0  0  0  0  2  0  0  0  0  0  0
  194.6700  174.5350  137.9630 C   0  0  0  0  0  2  0  0  0  0  0  0
  193.5790  175.1850  137.5690 C   0  0  0  0  0  3  0  0  0  0  0  0
  1 27  1  6  0  0  0
  1 13  1  0  0  0  0
  2  3  1  1  0  0  0
  2  8  1  0  0  0  0
  4  7  1  0  0  0  0
  5 11  2  0  0  0  0
  6 11  1  0  0  0  0
  6  9  2  0  0  0  0
  7 10  2  0  0  0  0
  8 16  1  1  0  0  0
  9 12  1  0  0  0  0
 11  2  1  0  0  0  0
 12  8  1  0  0  0  0
 12 10  1  6  0  0  0
 13  9  1  0  0  0  0
 13  4  1  0  0  0  0
 14 17  2  0  0  0  0
 16 17  1  0  0  0  0
 17 15  1  0  0  0  0
 18 23  1  0  0  0  0
 19 20  1  0  0  0  0
 20 22  1  0  0  0  0
 21 24  1  1  0  0  0
 21 19  1  0  0  0  0
 21 18  1  0  0  0  0
 22  1  1  6  0  0  0
 23 22  1  0  0  0  0
 25 24  1  0  0  0  0
 25 26  1  0  0  0  0
 28 30  1  6  0  0  0
 28 31  1  0  0  0  0
 28 27  1  0  0  0  0
 29 30  1  0  0  0  0
 32 31  1  0  0  0  0
 33 32  1  0  0  0  0
 34 35  1  0  0  0  0
 35 39  1  6  0  0  0
 36 35  1  0  0  0  0
 37 38  1  0  0  0  0
 37 34  1  0  0  0  0
 37 33  1  1  0  0  0
 38 36  1  0  0  0  0
 41 39  1  0  0  0  0
 41 40  2  0  0  0  0
M  END
>  <MODEL>
8

>  <REMARK>
 VINA RESULT:      -6.9      3.463      9.641
  Name = 
  14 active torsions:
  status: ('A' for Active; 'I' for Inactive)
    1  A    between atoms: C_4  and  C_21
    2  A    between atoms: C_4  and  C_35
    3  A    between atoms: C_12  and  C_31
    4  A    between atoms: C_15  and  C_31
    5  A    between atoms: C_16  and  N_28
    6  A    between atoms: N_18  and  C_21
    7  A    between atoms: N_18  and  C_39
    8  A    between atoms: C_24  and  C_26
    9  A    between atoms: C_25  and  C_30
   10  A    between atoms: C_26  and  C_34
   11  A    between atoms: C_30  and  C_32
   12  A    between atoms: C_30  and  N_38
   13  A    between atoms: C_32  and  C_39
   14  A    between atoms: C_36  and  C_39
                            x       y       z     vdW  Elec       q    Type
                         _______ _______ _______ _____ _____    ______ ____

>  <TORSDO>
F 14

$$$$
=
 OpenBabel10222416533D

 41 44  0  0  1  0  0  0  0  0999 V2000
  189.3860  177.1310  139.5870 C   0  0  1  0  0  3  0  0  0  0  0  0
  191.5310  173.3680  136.7220 C   0  0  1  0  0  3  0  0  0  0  0  0
  191.7520  172.7040  135.3700 C   0  0  0  0  0  1  0  0  0  0  0  0
  191.8440  177.7580  139.6700 C   0  0  0  0  0  2  0  0  0  0  0  0
  189.1840  173.4650  136.2180 O   0  0  0  0  0  0  0  0  0  0  0  0
  189.9710  175.1580  137.6030 N   0  0  0  0  0  0  0  0  0  0  0  0
  193.2030  177.1260  139.5740 C   0  0  0  0  0  3  0  0  0  0  0  0
  192.6450  174.3970  136.9770 C   0  0  1  0  0  3  0  0  0  0  0  0
  191.0550  175.8020  138.2820 C   0  0  0  0  0  0  0  0  0  0  0  0
  193.4220  176.0640  138.8010 C   0  0  0  0  0  3  0  0  0  0  0  0
  190.1720  173.9970  136.7960 C   0  0  0  0  0  0  0  0  0  0  0  0
  192.3240  175.4100  138.0620 C   0  0  2  0  0  3  0  0  0  0  0  0
  190.7800  176.8440  139.2390 N   0  0  0  0  0  0  0  0  0  0  0  0
  195.0780  174.6560  135.4080 O   0  0  0  0  0  0  0  0  0  0  0  0
  196.2870  173.2100  136.7620 N   0  0  0  0  0  1  0  0  0  0  0  0
  193.9220  173.7250  137.2200 N   0  0  0  0  0  2  0  0  0  0  0  0
  195.0960  173.9050  136.4200 C   0  0  0  0  0  0  0  0  0  0  0  0
  188.1830  177.7500  143.2220 C   0  0  0  0  0  2  0  0  0  0  0  0
  190.7150  177.6630  142.7740 C   0  0  0  0  0  2  0  0  0  0  0  0
  190.3220  176.5020  141.8560 C   0  0  0  0  0  2  0  0  0  0  0  0
  189.5930  178.0130  143.7720 C   0  0  2  0  0  3  0  0  0  0  0  0
  189.0510  176.8140  141.0500 C   0  0  1  0  0  3  0  0  0  0  0  0
  188.1430  177.8720  141.7020 C   0  0  0  0  0  2  0  0  0  0  0  0
  189.7680  177.2480  145.0760 C   0  0  0  0  0  2  0  0  0  0  0  0
  188.5330  177.3610  145.9590 C   0  0  0  0  0  2  0  0  0  0  0  0
  188.9200  177.7850  147.3630 C   0  0  0  0  0  1  0  0  0  0  0  0
  188.9940  178.5460  139.1820 C   0  0  0  0  0  2  0  0  0  0  0  0
  188.1690  178.5160  137.9090 C   0  0  1  0  0  3  0  0  0  0  0  0
  188.2520  177.8870  135.4920 C   0  0  0  0  0  1  0  0  0  0  0  0
  189.0730  178.2730  136.7090 C   0  0  0  0  0  2  0  0  0  0  0  0
  187.1910  177.4420  138.0120 N   0  0  0  0  0  2  0  0  0  0  0  0
  185.8860  177.9770  137.6480 C   0  0  0  0  0  2  0  0  0  0  0  0
  184.7810  177.1960  138.3440 C   0  0  0  0  0  2  0  0  0  0  0  0
  183.4520  177.6270  140.3930 C   0  0  0  0  0  2  0  0  0  0  0  0
  184.4200  178.2860  141.3460 C   0  0  1  0  0  3  0  0  0  0  0  0
  184.8930  179.5210  140.7300 N   0  0  0  0  0  2  0  0  0  0  0  0
  183.8280  178.1570  139.0350 C   0  0  1  0  0  3  0  0  0  0  0  0
  184.5400  179.4640  139.3140 C   0  0  0  0  0  2  0  0  0  0  0  0
  183.7190  178.5860  142.6590 C   0  0  0  0  0  2  0  0  0  0  0  0
  184.9430  178.6070  144.7690 C   0  0  0  0  0  2  0  0  0  0  0  0
  184.6650  179.2180  143.6220 C   0  0  0  0  0  3  0  0  0  0  0  0
  1 27  1  1  0  0  0
  2  3  1  6  0  0  0
  2 11  1  0  0  0  0
  2  8  1  0  0  0  0
  5 11  2  0  0  0  0
  6  9  2  0  0  0  0
  7  4  1  0  0  0  0
  8 16  1  1  0  0  0
  8 12  1  0  0  0  0
  9 13  1  0  0  0  0
 10  7  2  0  0  0  0
 11  6  1  0  0  0  0
 12  9  1  0  0  0  0
 12 10  1  6  0  0  0
 13  1  1  0  0  0  0
 13  4  1  0  0  0  0
 14 17  2  0  0  0  0
 17 15  1  0  0  0  0
 17 16  1  0  0  0  0
 18 21  1  0  0  0  0
 19 21  1  0  0  0  0
 20 19  1  0  0  0  0
 21 24  1  1  0  0  0
 22  1  1  6  0  0  0
 22 23  1  0  0  0  0
 22 20  1  0  0  0  0
 23 18  1  0  0  0  0
 24 25  1  0  0  0  0
 25 26  1  0  0  0  0
 28 30  1  6  0  0  0
 28 31  1  0  0  0  0
 28 27  1  0  0  0  0
 29 30  1  0  0  0  0
 32 31  1  0  0  0  0
 32 33  1  0  0  0  0
 34 35  1  0  0  0  0
 35 39  1  1  0  0  0
 36 35  1  0  0  0  0
 37 33  1  1  0  0  0
 37 38  1  0  0  0  0
 37 34  1  0  0  0  0
 38 36  1  0  0  0  0
 39 41  1  0  0  0  0
 41 40  2  0  0  0  0
M  END
>  <MODEL>
9

>  <REMARK>
 VINA RESULT:      -6.7      1.651      2.766
  Name = 
  14 active torsions:
  status: ('A' for Active; 'I' for Inactive)
    1  A    between atoms: C_4  and  C_21
    2  A    between atoms: C_4  and  C_35
    3  A    between atoms: C_12  and  C_31
    4  A    between atoms: C_15  and  C_31
    5  A    between atoms: C_16  and  N_28
    6  A    between atoms: N_18  and  C_21
    7  A    between atoms: N_18  and  C_39
    8  A    between atoms: C_24  and  C_26
    9  A    between atoms: C_25  and  C_30
   10  A    between atoms: C_26  and  C_34
   11  A    between atoms: C_30  and  C_32
   12  A    between atoms: C_30  and  N_38
   13  A    between atoms: C_32  and  C_39
   14  A    between atoms: C_36  and  C_39
                            x       y       z     vdW  Elec       q    Type
                         _______ _______ _______ _____ _____    ______ ____

>  <TORSDO>
F 14

$$$$
