=
 OpenBabel10222418183D

 34 37  0  0  1  0  0  0  0  0999 V2000
  190.2390  176.3140  138.6670 C   0  0  1  0  0  3  0  0  0  0  0  0
  185.8880  177.5430  136.7500 O   0  0  0  0  0  0  0  0  0  0  0  0
  188.4080  175.2690  137.4510 N   0  0  0  0  0  0  0  0  0  0  0  0
  187.1210  175.4920  136.8450 C   0  0  0  0  0  2  0  0  0  0  0  0
  186.8900  176.9390  137.0950 C   0  0  0  0  0  0  0  0  0  0  0  0
  188.0330  177.5460  137.8280 C   0  0  1  0  0  3  0  0  0  0  0  0
  188.9090  176.3350  137.9640 C   0  0  0  0  0  0  0  0  0  0  0  0
  188.6890  178.6300  137.0200 C   0  0  0  0  0  3  0  0  0  0  0  0
  188.9610  179.7160  137.5080 O   0  0  0  0  0  0  0  0  0  0  0  0
  191.3900  176.4660  137.6750 C   0  0  1  0  0  3  0  0  0  0  0  0
  192.5300  176.9910  138.3370 O   0  0  0  0  0  0  0  0  0  0  0  0
  193.5950  176.1310  138.3290 N   0  0  0  0  0  0  0  0  0  0  0  0
  191.8720  175.0950  137.1880 C   0  0  0  0  0  2  0  0  0  0  0  0
  193.2750  175.0580  137.6980 C   0  0  0  0  0  0  0  0  0  0  0  0
  194.4580  173.5620  136.0620 C   0  0  0  0  0  1  0  0  0  0  0  0
  194.2400  173.9220  137.5250 C   0  0  1  0  0  3  0  0  0  0  0  0
  195.5450  174.2250  138.1880 C   0  0  0  0  0  0  0  0  0  0  0  0
  196.5250  174.9180  137.4900 O   0  0  0  0  0  0  0  0  0  0  0  0
  195.7790  173.8280  139.3630 O   0  0  0  0  0  1  0  0  0  0  0  0
  190.2990  177.3790  139.6610 N   0  0  0  0  0  2  0  0  0  0  0  0
  191.5700  177.3110  141.6050 O   0  0  0  0  0  1  0  0  0  0  0  0
  190.4630  176.7590  140.9620 C   0  0  1  0  0  3  0  0  0  0  0  0
  189.2130  177.0010  141.7910 C   0  0  0  0  0  2  0  0  0  0  0  0
  189.2190  176.1240  143.0340 C   0  0  0  0  0  2  0  0  0  0  0  0
  188.0420  176.3240  143.7630 O   0  0  0  0  0  0  0  0  0  0  0  0
  184.7100  178.6120  145.0500 C   0  0  0  0  0  3  0  0  0  0  0  0
  188.1220  177.6430  144.2210 C   0  0  1  0  0  3  0  0  0  0  0  0
  186.5570  178.0810  146.1160 C   0  0  0  0  0  0  0  0  0  0  0  0
  186.8400  178.0390  144.8040 N   0  0  0  0  0  0  0  0  0  0  0  0
  189.2410  177.7570  145.2670 C   0  0  0  0  0  2  0  0  0  0  0  0
  188.8030  177.1320  146.5970 C   0  0  0  0  0  2  0  0  0  0  0  0
  185.2460  178.4530  146.3230 C   0  0  0  0  0  3  0  0  0  0  0  0
  187.5900  177.8680  147.1770 C   0  0  0  0  0  2  0  0  0  0  0  0
  185.7190  178.3440  144.1330 C   0  0  0  0  0  3  0  0  0  0  0  0
  1 20  1  1  0  0  0
  2  5  2  0  0  0  0
  3  7  2  0  0  0  0
  4  5  1  0  0  0  0
  4  3  1  0  0  0  0
  5  6  1  0  0  0  0
  6  8  1  6  0  0  0
  6  7  1  0  0  0  0
  7  1  1  0  0  0  0
  8  9  2  0  0  0  0
 10 11  1  0  0  0  0
 10  1  1  1  0  0  0
 12 11  1  0  0  0  0
 13 10  1  0  0  0  0
 13 14  1  0  0  0  0
 14 12  2  0  0  0  0
 16 15  1  6  0  0  0
 16 14  1  0  0  0  0
 16 17  1  0  0  0  0
 17 19  1  0  0  0  0
 18 17  2  0  0  0  0
 20 22  1  0  0  0  0
 22 21  1  1  0  0  0
 22 23  1  0  0  0  0
 23 24  1  0  0  0  0
 24 25  1  0  0  0  0
 26 32  1  0  0  0  0
 27 25  1  1  0  0  0
 27 29  1  0  0  0  0
 27 30  1  0  0  0  0
 28 32  2  0  0  0  0
 28 33  1  0  0  0  0
 29 28  1  0  0  0  0
 30 31  1  0  0  0  0
 31 33  1  0  0  0  0
 34 29  1  0  0  0  0
 34 26  2  0  0  0  0
M  END
>  <MODEL>
1

>  <REMARK>
 VINA RESULT:      -8.1      0.000      0.000
  Name = 
  11 active torsions:
  status: ('A' for Active; 'I' for Inactive)
    1  A    between atoms: C_2  and  C_25
    2  A    between atoms: C_3  and  O_13
    3  A    between atoms: C_5  and  C_15
    4  A    between atoms: C_5  and  C_30
    5  A    between atoms: N_8  and  C_25
    6  A    between atoms: N_8  and  C_30
    7  A    between atoms: C_9  and  C_33
    8  A    between atoms: O_13  and  C_15
    9  A    between atoms: C_19  and  C_28
   10  A    between atoms: C_25  and  C_31
   11  A    between atoms: C_27  and  C_33
                            x       y       z     vdW  Elec       q    Type
                         _______ _______ _______ _____ _____    ______ ____

>  <TORSDO>
F 11

$$$$
=
 OpenBabel10222418183D

 34 37  0  0  1  0  0  0  0  0999 V2000
  190.5520  176.3510  138.7100 C   0  0  1  0  0  3  0  0  0  0  0  0
  186.2060  177.9230  137.0460 O   0  0  0  0  0  0  0  0  0  0  0  0
  188.6060  175.4710  137.5410 N   0  0  0  0  0  0  0  0  0  0  0  0
  187.3110  175.7970  137.0040 C   0  0  0  0  0  2  0  0  0  0  0  0
  187.1830  177.2440  137.3200 C   0  0  0  0  0  0  0  0  0  0  0  0
  188.3930  177.7490  138.0230 C   0  0  1  0  0  3  0  0  0  0  0  0
  189.1950  176.4820  138.0710 C   0  0  0  0  0  0  0  0  0  0  0  0
  189.0790  178.8230  137.2280 C   0  0  0  0  0  3  0  0  0  0  0  0
  188.8610  180.0080  137.4300 O   0  0  0  0  0  0  0  0  0  0  0  0
  191.6580  176.3310  137.6590 C   0  0  1  0  0  3  0  0  0  0  0  0
  192.8200  176.9660  138.1690 O   0  0  0  0  0  0  0  0  0  0  0  0
  193.8920  176.1200  138.2660 N   0  0  0  0  0  0  0  0  0  0  0  0
  192.1320  174.8970  137.3960 C   0  0  0  0  0  2  0  0  0  0  0  0
  193.5560  174.9520  137.8440 C   0  0  0  0  0  0  0  0  0  0  0  0
  194.6690  173.1850  136.4470 C   0  0  0  0  0  1  0  0  0  0  0  0
  194.5240  173.8060  137.8300 C   0  0  1  0  0  3  0  0  0  0  0  0
  195.8580  174.2280  138.3550 C   0  0  0  0  0  0  0  0  0  0  0  0
  196.7710  174.8320  137.5010 O   0  0  0  0  0  0  0  0  0  0  0  0
  196.1770  174.0100  139.5560 O   0  0  0  0  0  1  0  0  0  0  0  0
  190.7750  177.4490  139.6430 N   0  0  0  0  0  2  0  0  0  0  0  0
  192.0440  177.3410  141.5870 O   0  0  0  0  0  1  0  0  0  0  0  0
  190.8790  176.8830  140.9750 C   0  0  1  0  0  3  0  0  0  0  0  0
  189.6690  177.3030  141.7910 C   0  0  0  0  0  2  0  0  0  0  0  0
  190.0500  177.4950  143.2510 C   0  0  0  0  0  2  0  0  0  0  0  0
  189.0050  178.1220  143.9370 O   0  0  0  0  0  0  0  0  0  0  0  0
  189.1900  177.8160  148.1640 C   0  0  0  0  0  3  0  0  0  0  0  0
  188.3990  177.1040  144.6800 C   0  0  1  0  0  3  0  0  0  0  0  0
  187.4480  177.9420  146.8310 C   0  0  0  0  0  0  0  0  0  0  0  0
  188.4570  177.4350  146.1040 N   0  0  0  0  0  0  0  0  0  0  0  0
  186.9410  176.9380  144.2300 C   0  0  0  0  0  2  0  0  0  0  0  0
  186.0760  178.0860  144.7640 C   0  0  0  0  0  2  0  0  0  0  0  0
  187.8480  178.1790  148.1280 C   0  0  0  0  0  3  0  0  0  0  0  0
  186.0590  178.0960  146.2960 C   0  0  0  0  0  2  0  0  0  0  0  0
  189.5380  177.3650  146.8960 C   0  0  0  0  0  3  0  0  0  0  0  0
  1 20  1  1  0  0  0
  2  5  2  0  0  0  0
  3  7  2  0  0  0  0
  4  5  1  0  0  0  0
  4  3  1  0  0  0  0
  5  6  1  0  0  0  0
  6  8  1  6  0  0  0
  6  7  1  0  0  0  0
  7  1  1  0  0  0  0
  8  9  2  0  0  0  0
 10 11  1  0  0  0  0
 10  1  1  1  0  0  0
 11 12  1  0  0  0  0
 13 10  1  0  0  0  0
 13 14  1  0  0  0  0
 14 12  2  0  0  0  0
 16 15  1  6  0  0  0
 16 14  1  0  0  0  0
 16 17  1  0  0  0  0
 17 19  1  0  0  0  0
 18 17  2  0  0  0  0
 20 22  1  0  0  0  0
 22 21  1  1  0  0  0
 22 23  1  0  0  0  0
 23 24  1  0  0  0  0
 24 25  1  0  0  0  0
 27 25  1  6  0  0  0
 27 29  1  0  0  0  0
 28 32  2  0  0  0  0
 29 28  1  0  0  0  0
 29 34  1  0  0  0  0
 30 27  1  0  0  0  0
 30 31  1  0  0  0  0
 31 33  1  0  0  0  0
 32 26  1  0  0  0  0
 33 28  1  0  0  0  0
 34 26  2  0  0  0  0
M  END
>  <MODEL>
2

>  <REMARK>
 VINA RESULT:      -8.0      0.837      1.741
  Name = 
  11 active torsions:
  status: ('A' for Active; 'I' for Inactive)
    1  A    between atoms: C_2  and  C_25
    2  A    between atoms: C_3  and  O_13
    3  A    between atoms: C_5  and  C_15
    4  A    between atoms: C_5  and  C_30
    5  A    between atoms: N_8  and  C_25
    6  A    between atoms: N_8  and  C_30
    7  A    between atoms: C_9  and  C_33
    8  A    between atoms: O_13  and  C_15
    9  A    between atoms: C_19  and  C_28
   10  A    between atoms: C_25  and  C_31
   11  A    between atoms: C_27  and  C_33
                            x       y       z     vdW  Elec       q    Type
                         _______ _______ _______ _____ _____    ______ ____

>  <TORSDO>
F 11

$$$$
=
 OpenBabel10222418183D

 34 37  0  0  1  0  0  0  0  0999 V2000
  190.0170  177.4610  139.5970 C   0  0  1  0  0  3  0  0  0  0  0  0
  191.6190  175.5460  135.3670 O   0  0  0  0  0  0  0  0  0  0  0  0
  189.2490  175.9290  137.8670 N   0  0  0  0  0  0  0  0  0  0  0  0
  189.5930  175.2960  136.6220 C   0  0  0  0  0  2  0  0  0  0  0  0
  190.9560  175.8250  136.3530 C   0  0  0  0  0  0  0  0  0  0  0  0
  191.3960  176.7470  137.4340 C   0  0  1  0  0  3  0  0  0  0  0  0
  190.1840  176.6880  138.3160 C   0  0  0  0  0  0  0  0  0  0  0  0
  192.6260  176.2310  138.1270 C   0  0  0  0  0  3  0  0  0  0  0  0
  193.3580  176.9700  138.7650 O   0  0  0  0  0  0  0  0  0  0  0  0
  189.0670  178.6410  139.4090 C   0  0  1  0  0  3  0  0  0  0  0  0
  189.1170  179.0890  138.0630 O   0  0  0  0  0  0  0  0  0  0  0  0
  187.9190  178.9560  137.4110 N   0  0  0  0  0  0  0  0  0  0  0  0
  187.6100  178.1970  139.5740 C   0  0  0  0  0  2  0  0  0  0  0  0
  187.0460  178.4610  138.2150 C   0  0  0  0  0  0  0  0  0  0  0  0
  185.3910  176.7280  137.4620 C   0  0  0  0  0  1  0  0  0  0  0  0
  185.6340  178.1960  137.7860 C   0  0  1  0  0  3  0  0  0  0  0  0
  184.6640  178.6700  138.8200 C   0  0  0  0  0  0  0  0  0  0  0  0
  184.4730  180.0320  139.0070 O   0  0  0  0  0  0  0  0  0  0  0  0
  184.0420  177.8470  139.5460 O   0  0  0  0  0  1  0  0  0  0  0  0
  189.5170  176.5860  140.6500 N   0  0  0  0  0  2  0  0  0  0  0  0
  191.3970  177.5210  141.6420 O   0  0  0  0  0  1  0  0  0  0  0  0
  190.5900  176.3860  141.6050 C   0  0  1  0  0  3  0  0  0  0  0  0
  189.9940  176.1330  142.9800 C   0  0  0  0  0  2  0  0  0  0  0  0
  188.5330  176.5540  143.0140 C   0  0  0  0  0  2  0  0  0  0  0  0
  188.0450  176.4700  144.3220 O   0  0  0  0  0  0  0  0  0  0  0  0
  184.6790  178.6970  145.6290 C   0  0  0  0  0  3  0  0  0  0  0  0
  188.1090  177.7780  144.8150 C   0  0  1  0  0  3  0  0  0  0  0  0
  186.5180  178.1550  146.7020 C   0  0  0  0  0  0  0  0  0  0  0  0
  186.8160  178.1480  145.3920 N   0  0  0  0  0  0  0  0  0  0  0  0
  189.2140  177.8740  145.8760 C   0  0  0  0  0  2  0  0  0  0  0  0
  188.7670  177.2120  147.1850 C   0  0  0  0  0  2  0  0  0  0  0  0
  185.2020  178.5100  146.9030 C   0  0  0  0  0  3  0  0  0  0  0  0
  187.5410  177.9230  147.7690 C   0  0  0  0  0  2  0  0  0  0  0  0
  185.7000  178.4610  144.7160 C   0  0  0  0  0  3  0  0  0  0  0  0
  1 20  1  1  0  0  0
  2  5  2  0  0  0  0
  3  7  2  0  0  0  0
  4  3  1  0  0  0  0
  5  4  1  0  0  0  0
  5  6  1  0  0  0  0
  6  8  1  1  0  0  0
  6  7  1  0  0  0  0
  7  1  1  0  0  0  0
  8  9  2  0  0  0  0
 10 13  1  0  0  0  0
 10  1  1  6  0  0  0
 11 10  1  0  0  0  0
 12 11  1  0  0  0  0
 12 14  2  0  0  0  0
 14 13  1  0  0  0  0
 16 15  1  1  0  0  0
 16 14  1  0  0  0  0
 16 17  1  0  0  0  0
 17 18  2  0  0  0  0
 17 19  1  0  0  0  0
 20 22  1  0  0  0  0
 22 21  1  1  0  0  0
 22 23  1  0  0  0  0
 23 24  1  0  0  0  0
 24 25  1  0  0  0  0
 26 32  1  0  0  0  0
 27 25  1  1  0  0  0
 27 29  1  0  0  0  0
 27 30  1  0  0  0  0
 28 32  2  0  0  0  0
 28 33  1  0  0  0  0
 29 28  1  0  0  0  0
 30 31  1  0  0  0  0
 31 33  1  0  0  0  0
 34 29  1  0  0  0  0
 34 26  2  0  0  0  0
M  END
>  <MODEL>
3

>  <REMARK>
 VINA RESULT:      -8.0      1.955      5.283
  Name = 
  11 active torsions:
  status: ('A' for Active; 'I' for Inactive)
    1  A    between atoms: C_2  and  C_25
    2  A    between atoms: C_3  and  O_13
    3  A    between atoms: C_5  and  C_15
    4  A    between atoms: C_5  and  C_30
    5  A    between atoms: N_8  and  C_25
    6  A    between atoms: N_8  and  C_30
    7  A    between atoms: C_9  and  C_33
    8  A    between atoms: O_13  and  C_15
    9  A    between atoms: C_19  and  C_28
   10  A    between atoms: C_25  and  C_31
   11  A    between atoms: C_27  and  C_33
                            x       y       z     vdW  Elec       q    Type
                         _______ _______ _______ _____ _____    ______ ____

>  <TORSDO>
F 11

$$$$
=
 OpenBabel10222418183D

 34 37  0  0  1  0  0  0  0  0999 V2000
  190.0070  177.5290  139.4150 C   0  0  1  0  0  3  0  0  0  0  0  0
  191.4520  175.4710  135.1960 O   0  0  0  0  0  0  0  0  0  0  0  0
  189.2230  175.8650  137.8210 N   0  0  0  0  0  0  0  0  0  0  0  0
  189.5260  175.1820  136.5900 C   0  0  0  0  0  2  0  0  0  0  0  0
  190.8370  175.7680  136.2070 C   0  0  0  0  0  0  0  0  0  0  0  0
  191.2890  176.7710  137.2080 C   0  0  1  0  0  3  0  0  0  0  0  0
  190.1390  176.6960  138.1680 C   0  0  0  0  0  0  0  0  0  0  0  0
  192.5870  176.3610  137.8460 C   0  0  0  0  0  3  0  0  0  0  0  0
  193.6600  176.7680  137.4300 O   0  0  0  0  0  0  0  0  0  0  0  0
  189.0520  178.6990  139.1970 C   0  0  1  0  0  3  0  0  0  0  0  0
  189.0490  179.0710  137.8270 O   0  0  0  0  0  0  0  0  0  0  0  0
  187.8280  178.9050  137.2310 N   0  0  0  0  0  0  0  0  0  0  0  0
  187.6020  178.2700  139.4430 C   0  0  0  0  0  2  0  0  0  0  0  0
  186.9860  178.4590  138.0950 C   0  0  0  0  0  0  0  0  0  0  0  0
  185.3120  176.6980  137.4560 C   0  0  0  0  0  1  0  0  0  0  0  0
  185.5580  178.1740  137.7360 C   0  0  1  0  0  3  0  0  0  0  0  0
  184.6320  178.6640  138.8030 C   0  0  0  0  0  0  0  0  0  0  0  0
  183.7290  177.7830  139.3850 O   0  0  0  0  0  1  0  0  0  0  0  0
  184.6380  179.8750  139.1560 O   0  0  0  0  0  0  0  0  0  0  0  0
  189.5370  176.7050  140.5220 N   0  0  0  0  0  2  0  0  0  0  0  0
  191.6040  177.5180  141.2040 O   0  0  0  0  0  1  0  0  0  0  0  0
  190.6390  176.5440  141.4510 C   0  0  1  0  0  3  0  0  0  0  0  0
  190.1180  176.6830  142.8710 C   0  0  0  0  0  2  0  0  0  0  0  0
  188.9780  177.6870  142.9260 C   0  0  0  0  0  2  0  0  0  0  0  0
  188.8770  178.2240  144.2130 O   0  0  0  0  0  0  0  0  0  0  0  0
  189.1430  177.9110  148.4360 C   0  0  0  0  0  3  0  0  0  0  0  0
  188.2490  177.2300  144.9700 C   0  0  1  0  0  3  0  0  0  0  0  0
  187.3780  178.1050  147.1410 C   0  0  0  0  0  0  0  0  0  0  0  0
  188.3510  177.5590  146.3930 N   0  0  0  0  0  0  0  0  0  0  0  0
  186.7760  177.1200  144.5530 C   0  0  0  0  0  2  0  0  0  0  0  0
  185.9680  178.3010  145.1040 C   0  0  0  0  0  2  0  0  0  0  0  0
  187.8160  178.3260  148.4290 C   0  0  0  0  0  3  0  0  0  0  0  0
  185.9840  178.3110  146.6360 C   0  0  0  0  0  2  0  0  0  0  0  0
  189.4450  177.4470  147.1610 C   0  0  0  0  0  3  0  0  0  0  0  0
  1 20  1  1  0  0  0
  2  5  2  0  0  0  0
  3  7  2  0  0  0  0
  4  3  1  0  0  0  0
  5  4  1  0  0  0  0
  5  6  1  0  0  0  0
  6  8  1  1  0  0  0
  6  7  1  0  0  0  0
  7  1  1  0  0  0  0
  9  8  2  0  0  0  0
 10  1  1  6  0  0  0
 10 13  1  0  0  0  0
 11 10  1  0  0  0  0
 12 11  1  0  0  0  0
 12 14  2  0  0  0  0
 14 13  1  0  0  0  0
 16 15  1  1  0  0  0
 16 14  1  0  0  0  0
 16 17  1  0  0  0  0
 17 19  2  0  0  0  0
 17 18  1  0  0  0  0
 20 22  1  0  0  0  0
 22 21  1  6  0  0  0
 22 23  1  0  0  0  0
 23 24  1  0  0  0  0
 24 25  1  0  0  0  0
 27 25  1  6  0  0  0
 27 29  1  0  0  0  0
 28 32  2  0  0  0  0
 29 28  1  0  0  0  0
 29 34  1  0  0  0  0
 30 27  1  0  0  0  0
 30 31  1  0  0  0  0
 31 33  1  0  0  0  0
 32 26  1  0  0  0  0
 33 28  1  0  0  0  0
 34 26  2  0  0  0  0
M  END
>  <MODEL>
4

>  <REMARK>
 VINA RESULT:      -7.9      2.051      5.577
  Name = 
  11 active torsions:
  status: ('A' for Active; 'I' for Inactive)
    1  A    between atoms: C_2  and  C_25
    2  A    between atoms: C_3  and  O_13
    3  A    between atoms: C_5  and  C_15
    4  A    between atoms: C_5  and  C_30
    5  A    between atoms: N_8  and  C_25
    6  A    between atoms: N_8  and  C_30
    7  A    between atoms: C_9  and  C_33
    8  A    between atoms: O_13  and  C_15
    9  A    between atoms: C_19  and  C_28
   10  A    between atoms: C_25  and  C_31
   11  A    between atoms: C_27  and  C_33
                            x       y       z     vdW  Elec       q    Type
                         _______ _______ _______ _____ _____    ______ ____

>  <TORSDO>
F 11

$$$$
=
 OpenBabel10222418183D

 34 37  0  0  1  0  0  0  0  0999 V2000
  186.6210  177.8140  138.5840 C   0  0  1  0  0  3  0  0  0  0  0  0
  181.8660  178.8960  137.9980 O   0  0  0  0  0  0  0  0  0  0  0  0
  184.9960  179.4400  139.3840 N   0  0  0  0  0  0  0  0  0  0  0  0
  183.6230  179.8650  139.3070 C   0  0  0  0  0  2  0  0  0  0  0  0
  183.0320  178.8850  138.3590 C   0  0  0  0  0  0  0  0  0  0  0  0
  184.0500  177.9010  137.9000 C   0  0  1  0  0  3  0  0  0  0  0  0
  185.2400  178.4060  138.6620 C   0  0  0  0  0  0  0  0  0  0  0  0
  183.6760  176.5010  138.2980 C   0  0  0  0  0  3  0  0  0  0  0  0
  182.9490  176.2810  139.2540 O   0  0  0  0  0  0  0  0  0  0  0  0
  187.1040  177.7270  137.1380 C   0  0  1  0  0  3  0  0  0  0  0  0
  188.2750  178.5130  136.9730 O   0  0  0  0  0  0  0  0  0  0  0  0
  189.3700  177.7710  136.6220 N   0  0  0  0  0  0  0  0  0  0  0  0
  187.5870  176.3100  136.8110 C   0  0  0  0  0  2  0  0  0  0  0  0
  189.0350  176.5340  136.5180 C   0  0  0  0  0  0  0  0  0  0  0  0
  191.2990  176.0500  135.5400 C   0  0  0  0  0  1  0  0  0  0  0  0
  190.0270  175.4720  136.1460 C   0  0  1  0  0  3  0  0  0  0  0  0
  190.3550  174.6120  137.3240 C   0  0  0  0  0  0  0  0  0  0  0  0
  191.0310  175.1600  138.4070 O   0  0  0  0  0  1  0  0  0  0  0  0
  190.0560  173.3860  137.3310 O   0  0  0  0  0  0  0  0  0  0  0  0
  187.5540  178.6120  139.3700 N   0  0  0  0  0  2  0  0  0  0  0  0
  189.6920  177.9610  140.0080 O   0  0  0  0  0  1  0  0  0  0  0  0
  188.3340  177.7020  140.1870 C   0  0  1  0  0  3  0  0  0  0  0  0
  187.9610  177.8970  141.6470 C   0  0  0  0  0  2  0  0  0  0  0  0
  188.4600  176.7310  142.4860 C   0  0  0  0  0  2  0  0  0  0  0  0
  187.7130  176.6380  143.6640 O   0  0  0  0  0  0  0  0  0  0  0  0
  184.5180  178.6940  145.5510 C   0  0  0  0  0  3  0  0  0  0  0  0
  187.8310  177.8950  144.2660 C   0  0  1  0  0  3  0  0  0  0  0  0
  186.4680  178.0760  146.3500 C   0  0  0  0  0  0  0  0  0  0  0  0
  186.6140  178.1950  145.0210 N   0  0  0  0  0  0  0  0  0  0  0  0
  189.0520  177.9060  145.1980 C   0  0  0  0  0  2  0  0  0  0  0  0
  188.7590  177.1200  146.4820 C   0  0  0  0  0  2  0  0  0  0  0  0
  185.1840  178.3960  146.7340 C   0  0  0  0  0  3  0  0  0  0  0  0
  187.6080  177.7590  147.2670 C   0  0  0  0  0  2  0  0  0  0  0  0
  185.4270  178.5560  144.5090 C   0  0  0  0  0  3  0  0  0  0  0  0
  1  7  1  0  0  0  0
  1 20  1  1  0  0  0
  2  5  2  0  0  0  0
  4  3  1  0  0  0  0
  5  4  1  0  0  0  0
  6  8  1  1  0  0  0
  6  5  1  0  0  0  0
  6  7  1  0  0  0  0
  7  3  2  0  0  0  0
  8  9  2  0  0  0  0
 10  1  1  1  0  0  0
 11 10  1  0  0  0  0
 12 11  1  0  0  0  0
 13 10  1  0  0  0  0
 14 12  2  0  0  0  0
 14 13  1  0  0  0  0
 16 15  1  1  0  0  0
 16 14  1  0  0  0  0
 16 17  1  0  0  0  0
 17 19  2  0  0  0  0
 17 18  1  0  0  0  0
 20 22  1  0  0  0  0
 22 21  1  1  0  0  0
 22 23  1  0  0  0  0
 23 24  1  0  0  0  0
 24 25  1  0  0  0  0
 26 32  1  0  0  0  0
 27 25  1  1  0  0  0
 27 29  1  0  0  0  0
 27 30  1  0  0  0  0
 28 32  2  0  0  0  0
 28 33  1  0  0  0  0
 29 28  1  0  0  0  0
 30 31  1  0  0  0  0
 31 33  1  0  0  0  0
 34 29  1  0  0  0  0
 34 26  2  0  0  0  0
M  END
>  <MODEL>
5

>  <REMARK>
 VINA RESULT:      -7.9      2.541      3.875
  Name = 
  11 active torsions:
  status: ('A' for Active; 'I' for Inactive)
    1  A    between atoms: C_2  and  C_25
    2  A    between atoms: C_3  and  O_13
    3  A    between atoms: C_5  and  C_15
    4  A    between atoms: C_5  and  C_30
    5  A    between atoms: N_8  and  C_25
    6  A    between atoms: N_8  and  C_30
    7  A    between atoms: C_9  and  C_33
    8  A    between atoms: O_13  and  C_15
    9  A    between atoms: C_19  and  C_28
   10  A    between atoms: C_25  and  C_31
   11  A    between atoms: C_27  and  C_33
                            x       y       z     vdW  Elec       q    Type
                         _______ _______ _______ _____ _____    ______ ____

>  <TORSDO>
F 11

$$$$
=
 OpenBabel10222418183D

 34 37  0  0  1  0  0  0  0  0999 V2000
  186.5590  177.9790  139.3880 C   0  0  1  0  0  3  0  0  0  0  0  0
  181.9590  178.9980  140.7760 O   0  0  0  0  0  0  0  0  0  0  0  0
  184.7690  179.5280  138.8170 N   0  0  0  0  0  0  0  0  0  0  0  0
  183.4220  179.9320  139.1250 C   0  0  0  0  0  2  0  0  0  0  0  0
  183.0480  179.0050  140.2250 C   0  0  0  0  0  0  0  0  0  0  0  0
  184.1680  178.0830  140.5540 C   0  0  1  0  0  3  0  0  0  0  0  0
  185.1840  178.5660  139.5610 C   0  0  0  0  0  0  0  0  0  0  0  0
  184.6310  178.2680  141.9720 C   0  0  0  0  0  3  0  0  0  0  0  0
  184.9390  179.3670  142.4060 O   0  0  0  0  0  0  0  0  0  0  0  0
  186.9790  177.9840  137.9210 C   0  0  1  0  0  3  0  0  0  0  0  0
  187.9500  178.9960  137.7010 O   0  0  0  0  0  0  0  0  0  0  0  0
  189.1590  178.4970  137.2950 N   0  0  0  0  0  0  0  0  0  0  0  0
  187.7330  176.6970  137.5670 C   0  0  0  0  0  2  0  0  0  0  0  0
  189.0860  177.2170  137.2050 C   0  0  0  0  0  0  0  0  0  0  0  0
  191.4630  176.5660  137.6990 C   0  0  0  0  0  1  0  0  0  0  0  0
  190.2600  176.3830  136.7840 C   0  0  1  0  0  3  0  0  0  0  0  0
  189.8850  174.9390  136.6970 C   0  0  0  0  0  0  0  0  0  0  0  0
  189.1080  174.4950  135.6350 O   0  0  0  0  0  0  0  0  0  0  0  0
  190.2390  174.1250  137.5940 O   0  0  0  0  0  1  0  0  0  0  0  0
  187.5270  178.7260  140.1830 N   0  0  0  0  0  2  0  0  0  0  0  0
  189.6600  177.8640  140.5060 O   0  0  0  0  0  1  0  0  0  0  0  0
  188.3310  177.7660  140.9140 C   0  0  1  0  0  3  0  0  0  0  0  0
  188.2270  178.0580  142.4020 C   0  0  0  0  0  2  0  0  0  0  0  0
  187.9100  176.7880  143.1740 C   0  0  0  0  0  2  0  0  0  0  0  0
  189.0500  176.3460  143.8520 O   0  0  0  0  0  0  0  0  0  0  0  0
  187.5460  177.7800  147.5510 C   0  0  0  0  0  3  0  0  0  0  0  0
  189.5370  177.4780  144.5150 C   0  0  1  0  0  3  0  0  0  0  0  0
  189.5830  177.1750  146.9930 C   0  0  0  0  0  0  0  0  0  0  0  0
  188.9640  177.5430  145.8600 N   0  0  0  0  0  0  0  0  0  0  0  0
  191.0690  177.4110  144.5910 C   0  0  0  0  0  2  0  0  0  0  0  0
  191.5140  176.3850  145.6410 C   0  0  0  0  0  2  0  0  0  0  0  0
  188.7480  177.3220  148.0790 C   0  0  0  0  0  3  0  0  0  0  0  0
  191.0270  176.7820  147.0390 C   0  0  0  0  0  2  0  0  0  0  0  0
  187.7100  177.9020  146.1760 C   0  0  0  0  0  3  0  0  0  0  0  0
  1  7  1  0  0  0  0
  1 20  1  1  0  0  0
  3  4  1  0  0  0  0
  3  7  2  0  0  0  0
  4  5  1  0  0  0  0
  5  6  1  0  0  0  0
  5  2  2  0  0  0  0
  6  8  1  1  0  0  0
  7  6  1  0  0  0  0
  8  9  2  0  0  0  0
 10  1  1  1  0  0  0
 11 10  1  0  0  0  0
 12 11  1  0  0  0  0
 13 10  1  0  0  0  0
 14 12  2  0  0  0  0
 14 13  1  0  0  0  0
 16 14  1  0  0  0  0
 16 15  1  1  0  0  0
 17 16  1  0  0  0  0
 17 19  1  0  0  0  0
 18 17  2  0  0  0  0
 20 22  1  0  0  0  0
 22 21  1  6  0  0  0
 22 23  1  0  0  0  0
 23 24  1  0  0  0  0
 24 25  1  0  0  0  0
 26 32  1  0  0  0  0
 27 25  1  1  0  0  0
 27 30  1  0  0  0  0
 27 29  1  0  0  0  0
 28 33  1  0  0  0  0
 28 32  2  0  0  0  0
 29 34  1  0  0  0  0
 29 28  1  0  0  0  0
 30 31  1  0  0  0  0
 31 33  1  0  0  0  0
 34 26  2  0  0  0  0
M  END
>  <MODEL>
6

>  <REMARK>
 VINA RESULT:      -7.7      2.856      4.451
  Name = 
  11 active torsions:
  status: ('A' for Active; 'I' for Inactive)
    1  A    between atoms: C_2  and  C_25
    2  A    between atoms: C_3  and  O_13
    3  A    between atoms: C_5  and  C_15
    4  A    between atoms: C_5  and  C_30
    5  A    between atoms: N_8  and  C_25
    6  A    between atoms: N_8  and  C_30
    7  A    between atoms: C_9  and  C_33
    8  A    between atoms: O_13  and  C_15
    9  A    between atoms: C_19  and  C_28
   10  A    between atoms: C_25  and  C_31
   11  A    between atoms: C_27  and  C_33
                            x       y       z     vdW  Elec       q    Type
                         _______ _______ _______ _____ _____    ______ ____

>  <TORSDO>
F 11

$$$$
=
 OpenBabel10222418183D

 34 37  0  0  1  0  0  0  0  0999 V2000
  186.7350  177.7830  138.5010 C   0  0  1  0  0  3  0  0  0  0  0  0
  181.9610  178.7810  137.9220 O   0  0  0  0  0  0  0  0  0  0  0  0
  185.0480  179.2800  139.4170 N   0  0  0  0  0  0  0  0  0  0  0  0
  183.6640  179.6710  139.3520 C   0  0  0  0  0  2  0  0  0  0  0  0
  183.1200  178.7690  138.3040 C   0  0  0  0  0  0  0  0  0  0  0  0
  184.1750  177.8620  137.7760 C   0  0  1  0  0  3  0  0  0  0  0  0
  185.3350  178.3260  138.6060 C   0  0  0  0  0  0  0  0  0  0  0  0
  183.8360  176.4210  138.0330 C   0  0  0  0  0  3  0  0  0  0  0  0
  183.2530  176.0720  139.0470 O   0  0  0  0  0  0  0  0  0  0  0  0
  187.1810  177.6820  137.0450 C   0  0  1  0  0  3  0  0  0  0  0  0
  188.2720  178.5610  136.8130 O   0  0  0  0  0  0  0  0  0  0  0  0
  189.4180  177.9040  136.4530 N   0  0  0  0  0  0  0  0  0  0  0  0
  187.7780  176.3020  136.7530 C   0  0  0  0  0  2  0  0  0  0  0  0
  189.1910  176.6400  136.4050 C   0  0  0  0  0  0  0  0  0  0  0  0
  190.9920  176.0380  134.7590 C   0  0  0  0  0  1  0  0  0  0  0  0
  190.2620  175.6550  136.0390 C   0  0  1  0  0  3  0  0  0  0  0  0
  191.2340  175.4820  137.1620 C   0  0  0  0  0  0  0  0  0  0  0  0
  192.2950  176.3690  137.2940 O   0  0  0  0  0  0  0  0  0  0  0  0
  191.1210  174.5200  137.9710 O   0  0  0  0  0  1  0  0  0  0  0  0
  187.6590  178.6310  139.2450 N   0  0  0  0  0  2  0  0  0  0  0  0
  189.6900  177.6870  139.8620 O   0  0  0  0  0  1  0  0  0  0  0  0
  188.3460  177.7950  140.2110 C   0  0  1  0  0  3  0  0  0  0  0  0
  188.2200  178.4200  141.5900 C   0  0  0  0  0  2  0  0  0  0  0  0
  188.7390  177.4680  142.6560 C   0  0  0  0  0  2  0  0  0  0  0  0
  188.6680  178.0780  143.9130 O   0  0  0  0  0  0  0  0  0  0  0  0
  189.3430  177.7470  148.0880 C   0  0  0  0  0  3  0  0  0  0  0  0
  188.0510  177.1330  144.7380 C   0  0  1  0  0  3  0  0  0  0  0  0
  187.4740  178.0690  146.9800 C   0  0  0  0  0  0  0  0  0  0  0  0
  188.3220  177.4530  146.1400 N   0  0  0  0  0  0  0  0  0  0  0  0
  186.5380  177.1310  144.4750 C   0  0  0  0  0  2  0  0  0  0  0  0
  185.8790  178.3680  145.0970 C   0  0  0  0  0  2  0  0  0  0  0  0
  188.0570  178.2580  148.2140 C   0  0  0  0  0  3  0  0  0  0  0  0
  186.0540  178.3780  146.6200 C   0  0  0  0  0  2  0  0  0  0  0  0
  189.4780  177.2620  146.7930 C   0  0  0  0  0  3  0  0  0  0  0  0
  1  7  1  0  0  0  0
  1 20  1  1  0  0  0
  2  5  2  0  0  0  0
  4  3  1  0  0  0  0
  5  4  1  0  0  0  0
  6  8  1  1  0  0  0
  6  5  1  0  0  0  0
  6  7  1  0  0  0  0
  7  3  2  0  0  0  0
  8  9  2  0  0  0  0
 10  1  1  1  0  0  0
 11 10  1  0  0  0  0
 12 11  1  0  0  0  0
 13 10  1  0  0  0  0
 14 12  2  0  0  0  0
 14 13  1  0  0  0  0
 16 15  1  6  0  0  0
 16 14  1  0  0  0  0
 16 17  1  0  0  0  0
 17 18  2  0  0  0  0
 17 19  1  0  0  0  0
 20 22  1  0  0  0  0
 22 21  1  6  0  0  0
 22 23  1  0  0  0  0
 23 24  1  0  0  0  0
 24 25  1  0  0  0  0
 26 32  1  0  0  0  0
 27 25  1  6  0  0  0
 27 29  1  0  0  0  0
 28 32  2  0  0  0  0
 29 34  1  0  0  0  0
 29 28  1  0  0  0  0
 30 27  1  0  0  0  0
 30 31  1  0  0  0  0
 31 33  1  0  0  0  0
 33 28  1  0  0  0  0
 34 26  2  0  0  0  0
M  END
>  <MODEL>
7

>  <REMARK>
 VINA RESULT:      -7.7      2.499      4.081
  Name = 
  11 active torsions:
  status: ('A' for Active; 'I' for Inactive)
    1  A    between atoms: C_2  and  C_25
    2  A    between atoms: C_3  and  O_13
    3  A    between atoms: C_5  and  C_15
    4  A    between atoms: C_5  and  C_30
    5  A    between atoms: N_8  and  C_25
    6  A    between atoms: N_8  and  C_30
    7  A    between atoms: C_9  and  C_33
    8  A    between atoms: O_13  and  C_15
    9  A    between atoms: C_19  and  C_28
   10  A    between atoms: C_25  and  C_31
   11  A    between atoms: C_27  and  C_33
                            x       y       z     vdW  Elec       q    Type
                         _______ _______ _______ _____ _____    ______ ____

>  <TORSDO>
F 11

$$$$
=
 OpenBabel10222418183D

 34 37  0  0  1  0  0  0  0  0999 V2000
  190.2900  176.5200  138.0360 C   0  0  1  0  0  3  0  0  0  0  0  0
  195.0420  175.2800  137.9370 O   0  0  0  0  0  0  0  0  0  0  0  0
  191.6670  174.5560  137.6200 N   0  0  0  0  0  0  0  0  0  0  0  0
  193.0160  174.0580  137.5590 C   0  0  0  0  0  2  0  0  0  0  0  0
  193.8220  175.2610  137.8920 C   0  0  0  0  0  0  0  0  0  0  0  0
  192.9490  176.4370  138.1510 C   0  0  1  0  0  3  0  0  0  0  0  0
  191.6080  175.7990  137.9380 C   0  0  0  0  0  0  0  0  0  0  0  0
  193.1170  176.9460  139.5550 C   0  0  0  0  0  3  0  0  0  0  0  0
  193.9840  177.7560  139.8420 O   0  0  0  0  0  0  0  0  0  0  0  0
  189.3610  176.1270  136.8900 C   0  0  1  0  0  3  0  0  0  0  0  0
  188.4150  175.1710  137.3440 O   0  0  0  0  0  0  0  0  0  0  0  0
  187.1240  175.6230  137.2750 N   0  0  0  0  0  0  0  0  0  0  0  0
  188.4840  177.3120  136.4710 C   0  0  0  0  0  2  0  0  0  0  0  0
  187.1120  176.8150  136.7930 C   0  0  0  0  0  0  0  0  0  0  0  0
  184.8320  176.8260  135.7360 C   0  0  0  0  0  1  0  0  0  0  0  0
  185.8360  177.5790  136.5980 C   0  0  1  0  0  3  0  0  0  0  0  0
  185.2250  177.9420  137.9140 C   0  0  0  0  0  0  0  0  0  0  0  0
  184.0960  177.2640  138.3560 O   0  0  0  0  0  0  0  0  0  0  0  0
  185.7040  178.8780  138.6110 O   0  0  0  0  0  1  0  0  0  0  0  0
  189.6520  176.2280  139.3140 N   0  0  0  0  0  2  0  0  0  0  0  0
  188.9000  178.4130  139.5560 O   0  0  0  0  0  1  0  0  0  0  0  0
  189.7110  177.4310  140.1210 C   0  0  1  0  0  3  0  0  0  0  0  0
  189.2310  177.1130  141.5270 C   0  0  0  0  0  2  0  0  0  0  0  0
  190.3330  176.4360  142.3270 C   0  0  0  0  0  2  0  0  0  0  0  0
  189.8800  176.1590  143.6210 O   0  0  0  0  0  0  0  0  0  0  0  0
  187.2560  177.6340  146.6110 C   0  0  0  0  0  3  0  0  0  0  0  0
  190.0860  177.3430  144.3360 C   0  0  1  0  0  3  0  0  0  0  0  0
  189.3930  177.1370  146.7260 C   0  0  0  0  0  0  0  0  0  0  0  0
  189.1300  177.4230  145.4400 N   0  0  0  0  0  0  0  0  0  0  0  0
  191.5240  177.3760  144.8730 C   0  0  0  0  0  2  0  0  0  0  0  0
  191.6790  176.4210  146.0630 C   0  0  0  0  0  2  0  0  0  0  0  0
  188.2620  177.2730  147.5010 C   0  0  0  0  0  3  0  0  0  0  0  0
  190.7720  176.8390  147.2250 C   0  0  0  0  0  2  0  0  0  0  0  0
  187.8230  177.7130  145.3450 C   0  0  0  0  0  3  0  0  0  0  0  0
  1 20  1  1  0  0  0
  3  7  2  0  0  0  0
  4  3  1  0  0  0  0
  4  5  1  0  0  0  0
  5  2  2  0  0  0  0
  5  6  1  0  0  0  0
  6  8  1  1  0  0  0
  7  1  1  0  0  0  0
  7  6  1  0  0  0  0
  8  9  2  0  0  0  0
 10 11  1  0  0  0  0
 10  1  1  1  0  0  0
 12 11  1  0  0  0  0
 13 14  1  0  0  0  0
 13 10  1  0  0  0  0
 14 12  2  0  0  0  0
 16 15  1  6  0  0  0
 16 14  1  0  0  0  0
 16 17  1  0  0  0  0
 17 18  2  0  0  0  0
 17 19  1  0  0  0  0
 20 22  1  0  0  0  0
 22 21  1  6  0  0  0
 22 23  1  0  0  0  0
 23 24  1  0  0  0  0
 24 25  1  0  0  0  0
 26 32  1  0  0  0  0
 27 25  1  1  0  0  0
 27 30  1  0  0  0  0
 27 29  1  0  0  0  0
 28 33  1  0  0  0  0
 28 32  2  0  0  0  0
 29 28  1  0  0  0  0
 30 31  1  0  0  0  0
 31 33  1  0  0  0  0
 34 29  1  0  0  0  0
 34 26  2  0  0  0  0
M  END
>  <MODEL>
8

>  <REMARK>
 VINA RESULT:      -7.6      1.806      5.706
  Name = 
  11 active torsions:
  status: ('A' for Active; 'I' for Inactive)
    1  A    between atoms: C_2  and  C_25
    2  A    between atoms: C_3  and  O_13
    3  A    between atoms: C_5  and  C_15
    4  A    between atoms: C_5  and  C_30
    5  A    between atoms: N_8  and  C_25
    6  A    between atoms: N_8  and  C_30
    7  A    between atoms: C_9  and  C_33
    8  A    between atoms: O_13  and  C_15
    9  A    between atoms: C_19  and  C_28
   10  A    between atoms: C_25  and  C_31
   11  A    between atoms: C_27  and  C_33
                            x       y       z     vdW  Elec       q    Type
                         _______ _______ _______ _____ _____    ______ ____

>  <TORSDO>
F 11

$$$$
=
 OpenBabel10222418183D

 34 37  0  0  1  0  0  0  0  0999 V2000
  190.5550  176.9190  141.4860 C   0  0  1  0  0  3  0  0  0  0  0  0
  191.4790  175.8180  136.7890 O   0  0  0  0  0  0  0  0  0  0  0  0
  192.3660  177.1290  139.8730 N   0  0  0  0  0  0  0  0  0  0  0  0
  192.7670  176.8660  138.5150 C   0  0  0  0  0  2  0  0  0  0  0  0
  191.5590  176.2210  137.9380 C   0  0  0  0  0  0  0  0  0  0  0  0
  190.4710  176.1200  138.9480 C   0  0  1  0  0  3  0  0  0  0  0  0
  191.1620  176.7550  140.1180 C   0  0  0  0  0  0  0  0  0  0  0  0
  189.2550  176.8930  138.5210 C   0  0  0  0  0  3  0  0  0  0  0  0
  189.3100  178.0890  138.2790 O   0  0  0  0  0  0  0  0  0  0  0  0
  191.6200  176.8360  142.5760 C   0  0  1  0  0  3  0  0  0  0  0  0
  191.9800  178.1430  142.9980 O   0  0  0  0  0  0  0  0  0  0  0  0
  191.6850  178.3790  144.3140 N   0  0  0  0  0  0  0  0  0  0  0  0
  191.0470  176.2050  143.8490 C   0  0  0  0  0  2  0  0  0  0  0  0
  191.1630  177.3240  144.8320 C   0  0  0  0  0  0  0  0  0  0  0  0
  189.3070  176.7620  146.4310 C   0  0  0  0  0  1  0  0  0  0  0  0
  190.7310  177.2770  146.2680 C   0  0  1  0  0  3  0  0  0  0  0  0
  191.6790  176.4570  147.0840 C   0  0  0  0  0  0  0  0  0  0  0  0
  192.1200  175.2340  146.5970 O   0  0  0  0  0  0  0  0  0  0  0  0
  192.0550  176.8490  148.2220 O   0  0  0  0  0  1  0  0  0  0  0  0
  189.8550  178.1950  141.5740 N   0  0  0  0  0  2  0  0  0  0  0  0
  188.1520  177.6940  143.0730 O   0  0  0  0  0  1  0  0  0  0  0  0
  188.4400  177.9120  141.7270 C   0  0  1  0  0  3  0  0  0  0  0  0
  187.6370  179.0950  141.2130 C   0  0  0  0  0  2  0  0  0  0  0  0
  186.3180  178.6260  140.6190 C   0  0  0  0  0  2  0  0  0  0  0  0
  185.2510  179.2110  141.3070 O   0  0  0  0  0  0  0  0  0  0  0  0
  184.7600  178.6660  145.4850 C   0  0  0  0  0  3  0  0  0  0  0  0
  184.5640  178.1400  141.8860 C   0  0  1  0  0  3  0  0  0  0  0  0
  183.2530  178.8320  143.8950 C   0  0  0  0  0  0  0  0  0  0  0  0
  184.3810  178.3890  143.3160 N   0  0  0  0  0  0  0  0  0  0  0  0
  183.2030  177.9690  141.1970 C   0  0  0  0  0  2  0  0  0  0  0  0
  182.2290  179.0660  141.6420 C   0  0  0  0  0  2  0  0  0  0  0  0
  183.4310  179.0020  145.2510 C   0  0  0  0  0  3  0  0  0  0  0  0
  181.9640  178.9870  143.1500 C   0  0  0  0  0  2  0  0  0  0  0  0
  185.3210  178.2960  144.2690 C   0  0  0  0  0  3  0  0  0  0  0  0
  1 20  1  6  0  0  0
  2  5  2  0  0  0  0
  3  7  2  0  0  0  0
  4  3  1  0  0  0  0
  5  4  1  0  0  0  0
  5  6  1  0  0  0  0
  6  8  1  6  0  0  0
  6  7  1  0  0  0  0
  7  1  1  0  0  0  0
  9  8  2  0  0  0  0
 10  1  1  6  0  0  0
 10 11  1  0  0  0  0
 10 13  1  0  0  0  0
 11 12  1  0  0  0  0
 12 14  2  0  0  0  0
 13 14  1  0  0  0  0
 14 16  1  0  0  0  0
 16 15  1  6  0  0  0
 16 17  1  0  0  0  0
 17 19  1  0  0  0  0
 18 17  2  0  0  0  0
 20 22  1  0  0  0  0
 22 21  1  1  0  0  0
 23 22  1  0  0  0  0
 24 23  1  0  0  0  0
 24 25  1  0  0  0  0
 27 25  1  6  0  0  0
 27 29  1  0  0  0  0
 28 32  2  0  0  0  0
 29 28  1  0  0  0  0
 29 34  1  0  0  0  0
 30 31  1  0  0  0  0
 30 27  1  0  0  0  0
 31 33  1  0  0  0  0
 32 26  1  0  0  0  0
 33 28  1  0  0  0  0
 34 26  2  0  0  0  0
M  END
>  <MODEL>
9

>  <REMARK>
 VINA RESULT:      -7.5      2.690      5.935
  Name = 
  11 active torsions:
  status: ('A' for Active; 'I' for Inactive)
    1  A    between atoms: C_2  and  C_25
    2  A    between atoms: C_3  and  O_13
    3  A    between atoms: C_5  and  C_15
    4  A    between atoms: C_5  and  C_30
    5  A    between atoms: N_8  and  C_25
    6  A    between atoms: N_8  and  C_30
    7  A    between atoms: C_9  and  C_33
    8  A    between atoms: O_13  and  C_15
    9  A    between atoms: C_19  and  C_28
   10  A    between atoms: C_25  and  C_31
   11  A    between atoms: C_27  and  C_33
                            x       y       z     vdW  Elec       q    Type
                         _______ _______ _______ _____ _____    ______ ____

>  <TORSDO>
F 11

$$$$
