=
 OpenBabel10222420143D

 52 56  0  0  1  0  0  0  0  0999 V2000
  190.7370  176.7360  137.5160 C   0  0  1  0  0  3  0  0  0  0  0  0
  188.3620  175.8120  135.3500 C   0  0  0  0  0  2  0  0  0  0  0  0
  189.6330  177.6100  137.9840 N   0  0  0  0  0  0  0  0  0  0  0  0
  190.7540  175.3170  138.1210 C   0  0  0  0  0  1  0  0  0  0  0  0
  190.6770  176.7210  135.9840 C   0  0  2  0  0  3  0  0  0  0  0  0
  187.2950  178.0530  137.0160 C   0  0  0  0  0  3  0  0  0  0  0  0
  189.2390  177.0450  135.6120 C   0  0  2  0  0  3  0  0  0  0  0  0
  188.7830  177.8800  136.8040 C   0  0  2  0  0  3  0  0  0  0  0  0
  186.6630  175.5910  137.2270 C   0  0  0  0  0  2  0  0  0  0  0  0
  186.3840  177.0900  137.2100 C   0  0  0  0  0  0  0  0  0  0  0  0
  187.9860  175.0930  136.6360 C   0  0  0  0  0  2  0  0  0  0  0  0
  184.2420  176.5140  135.1930 C   0  0  0  0  0  1  0  0  0  0  0  0
  182.3990  178.3740  137.8430 C   0  0  0  0  0  0  0  0  0  0  0  0
  182.7160  177.7040  136.7010 N   0  0  0  0  0  0  0  0  0  0  0  0
  183.3970  178.6060  138.7970 C   0  0  0  0  0  3  0  0  0  0  0  0
  184.6620  178.1730  138.5620 N   0  0  0  0  0  0  0  0  0  0  0  0
  181.0510  178.8190  138.0580 N   0  0  0  0  0  0  0  0  0  0  0  0
  184.9890  177.5200  137.4110 C   0  0  0  0  0  0  0  0  0  0  0  0
  183.9790  177.2730  136.4540 C   0  0  0  0  0  0  0  0  0  0  0  0
  180.0890  178.4950  137.1640 O   0  0  0  0  0  1  0  0  0  0  0  0
  180.7060  179.7350  139.1380 C   0  0  0  0  0  2  0  0  0  0  0  0
  180.0880  181.0140  138.6040 C   0  0  0  0  0  2  0  0  0  0  0  0
  181.1180  181.8560  137.8700 C   0  0  0  0  0  2  0  0  0  0  0  0
  180.8110  181.9270  136.5090 O   0  0  0  0  0  1  0  0  0  0  0  0
  188.8810  177.0930  139.1390 C   0  0  0  0  0  2  0  0  0  0  0  0
  190.2380  176.2030  141.5220 O   0  0  0  0  0  0  0  0  0  0  0  0
  189.7630  177.3720  141.5030 C   0  0  0  0  0  0  0  0  0  0  0  0
  189.1510  177.8960  140.3240 N   0  0  0  0  0  2  0  0  0  0  0  0
  189.8210  178.2030  142.7410 C   0  0  0  0  0  2  0  0  0  0  0  0
  188.8500  177.7400  143.7920 C   0  0  0  0  0  0  0  0  0  0  0  0
  187.7940  177.2020  143.4930 O   0  0  0  0  0  0  0  0  0  0  0  0
  190.5510  177.4600  145.4240 O   0  0  0  0  0  1  0  0  0  0  0  0
  189.2310  177.8900  145.2330 C   0  0  2  0  0  3  0  0  0  0  0  0
  187.5840  178.0110  147.0980 C   0  0  0  0  0  2  0  0  0  0  0  0
  188.7620  177.1670  147.5640 C   0  0  0  0  0  2  0  0  0  0  0  0
  188.2900  177.0790  146.1190 C   0  0  0  0  0  3  0  0  0  0  0  0
  191.3050  175.5220  135.2750 C   0  0  0  0  0  2  0  0  0  0  0  0
  192.6840  175.8920  134.7770 C   0  0  0  0  0  2  0  0  0  0  0  0
  193.9910  173.6750  137.1650 C   0  0  2  0  0  3  0  0  0  0  0  0
  193.1250  173.9110  136.0660 O   0  0  0  0  0  0  0  0  0  0  0  0
  193.9190  174.7350  138.0720 O   0  0  0  0  0  1  0  0  0  0  0  0
  195.7980  174.2720  135.5440 C   0  0  2  0  0  3  0  0  0  0  0  0
  194.9150  175.3580  135.4740 O   0  0  0  0  0  0  0  0  0  0  0  0
  195.4510  173.4150  136.7580 C   0  0  2  0  0  3  0  0  0  0  0  0
  193.6800  174.7960  135.0940 C   0  0  2  0  0  3  0  0  0  0  0  0
  195.6520  171.9490  136.4150 C   0  0  0  0  0  2  0  0  0  0  0  0
  196.4270  171.3300  137.3930 O   0  0  0  0  0  1  0  0  0  0  0  0
  197.2340  174.7630  135.6240 C   0  0  0  0  0  2  0  0  0  0  0  0
  198.3210  174.8690  137.9050 C   0  0  0  0  0  0  0  0  0  0  0  0
  198.8660  173.5930  137.7460 O   0  0  0  0  0  0  0  0  0  0  0  0
  197.4670  175.4220  136.9060 N   0  0  0  0  0  2  0  0  0  0  0  0
  198.5530  175.5270  138.9500 O   0  0  0  0  0  1  0  0  0  0  0  0
  1  3  1  0  0  0  0
  1  4  1  1  0  0  0
  2 11  1  0  0  0  0
  3 25  1  0  0  0  0
  5 37  1  1  0  0  0
  5  1  1  0  0  0  0
  6 10  2  0  0  0  0
  7  2  1  1  0  0  0
  7  5  1  0  0  0  0
  7  8  1  0  0  0  0
  8  6  1  1  0  0  0
  8  3  1  0  0  0  0
 10  9  1  0  0  0  0
 10 18  1  0  0  0  0
 11  9  1  0  0  0  0
 12 19  1  0  0  0  0
 13 17  1  0  0  0  0
 13 15  1  0  0  0  0
 14 13  2  0  0  0  0
 16 15  2  0  0  0  0
 17 21  1  0  0  0  0
 18 16  1  0  0  0  0
 19 14  1  0  0  0  0
 19 18  2  0  0  0  0
 20 17  1  0  0  0  0
 22 21  1  0  0  0  0
 23 22  1  0  0  0  0
 24 23  1  0  0  0  0
 25 28  1  0  0  0  0
 27 26  2  0  0  0  0
 27 29  1  0  0  0  0
 28 27  1  0  0  0  0
 29 30  1  0  0  0  0
 30 33  1  0  0  0  0
 31 30  2  0  0  0  0
 33 32  1  6  0  0  0
 33 36  1  0  0  0  0
 34 35  1  0  0  0  0
 36 34  1  0  0  0  0
 36 35  1  0  0  0  0
 38 37  1  0  0  0  0
 39 41  1  1  0  0  0
 40 39  1  0  0  0  0
 42 48  1  1  0  0  0
 42 44  1  0  0  0  0
 43 42  1  0  0  0  0
 44 46  1  6  0  0  0
 44 39  1  0  0  0  0
 45 38  1  1  0  0  0
 45 43  1  0  0  0  0
 45 40  1  0  0  0  0
 46 47  1  0  0  0  0
 48 51  1  0  0  0  0
 49 52  1  0  0  0  0
 50 49  2  0  0  0  0
 51 49  1  0  0  0  0
M  END
>  <MODEL>
1

>  <REMARK>
 VINA RESULT:      -7.0      0.000      0.000
  Name = 
  16 active torsions:
  status: ('A' for Active; 'I' for Inactive)
    1  A    between atoms: C_1  and  C_24
    2  A    between atoms: C_1  and  C_47
    3  A    between atoms: C_10  and  C_17
    4  A    between atoms: N_12  and  C_32
    5  A    between atoms: C_13  and  C_24
    6  A    between atoms: C_13  and  C_42
    7  A    between atoms: C_15  and  C_43
    8  A    between atoms: C_17  and  C_29
    9  A    between atoms: C_21  and  C_48
   10  A    between atoms: C_22  and  C_49
   11  A    between atoms: C_29  and  N_36
   12  A    between atoms: C_32  and  N_51
   13  A    between atoms: C_34  and  C_44
   14  A    between atoms: C_34  and  C_49
   15  A    between atoms: C_37  and  C_39
   16  A    between atoms: N_38  and  C_48
                            x       y       z     vdW  Elec       q    Type
                         _______ _______ _______ _____ _____    ______ ____

>  <TORSDO>
F 16

$$$$
=
 OpenBabel10222420143D

 52 56  0  0  1  0  0  0  0  0999 V2000
  190.8700  176.7370  137.4590 C   0  0  1  0  0  3  0  0  0  0  0  0
  188.6370  175.6290  135.2290 C   0  0  0  0  0  2  0  0  0  0  0  0
  189.7050  177.5650  137.8560 N   0  0  0  0  0  0  0  0  0  0  0  0
  190.9330  175.3380  138.1080 C   0  0  0  0  0  1  0  0  0  0  0  0
  190.8750  176.6740  135.9270 C   0  0  2  0  0  3  0  0  0  0  0  0
  187.3900  177.8600  136.7810 C   0  0  0  0  0  3  0  0  0  0  0  0
  189.4390  176.9130  135.4880 C   0  0  2  0  0  3  0  0  0  0  0  0
  188.8930  177.7580  136.6340 C   0  0  2  0  0  3  0  0  0  0  0  0
  186.8750  175.3750  137.0430 C   0  0  0  0  0  2  0  0  0  0  0  0
  186.5220  176.8570  136.9690 C   0  0  0  0  0  0  0  0  0  0  0  0
  188.2440  174.9290  136.5210 C   0  0  0  0  0  2  0  0  0  0  0  0
  184.6090  176.6340  134.6700 C   0  0  0  0  0  1  0  0  0  0  0  0
  182.4520  177.9380  137.4130 C   0  0  0  0  0  0  0  0  0  0  0  0
  182.9020  177.4980  136.2060 N   0  0  0  0  0  0  0  0  0  0  0  0
  183.3430  178.0050  138.4920 C   0  0  0  0  0  3  0  0  0  0  0  0
  184.6390  177.6420  138.3120 N   0  0  0  0  0  0  0  0  0  0  0  0
  181.0750  178.3150  137.5670 N   0  0  0  0  0  0  0  0  0  0  0  0
  185.1000  177.2200  137.1010 C   0  0  0  0  0  0  0  0  0  0  0  0
  184.1970  177.1400  136.0160 C   0  0  0  0  0  0  0  0  0  0  0  0
  180.2170  178.1480  136.5340 O   0  0  0  0  0  1  0  0  0  0  0  0
  180.5950  179.0080  138.7550 C   0  0  0  0  0  2  0  0  0  0  0  0
  179.7320  178.1020  139.6140 C   0  0  0  0  0  2  0  0  0  0  0  0
  180.4530  177.7090  140.8920 C   0  0  0  0  0  2  0  0  0  0  0  0
  179.5340  177.4720  141.9180 O   0  0  0  0  0  1  0  0  0  0  0  0
  188.9330  177.0440  138.9950 C   0  0  0  0  0  2  0  0  0  0  0  0
  190.2660  176.1880  141.4040 O   0  0  0  0  0  0  0  0  0  0  0  0
  189.7680  177.3470  141.3730 C   0  0  0  0  0  0  0  0  0  0  0  0
  189.1660  177.8550  140.1820 N   0  0  0  0  0  2  0  0  0  0  0  0
  189.7850  178.1830  142.6090 C   0  0  0  0  0  2  0  0  0  0  0  0
  190.3250  177.4390  143.8000 C   0  0  0  0  0  0  0  0  0  0  0  0
  191.5270  177.3180  143.9850 O   0  0  0  0  0  0  0  0  0  0  0  0
  188.0790  176.8070  144.2330 O   0  0  0  0  0  1  0  0  0  0  0  0
  189.3550  176.8960  144.8040 C   0  0  2  0  0  3  0  0  0  0  0  0
  189.4230  176.9370  147.2940 C   0  0  0  0  0  2  0  0  0  0  0  0
  188.0650  177.4610  146.8510 C   0  0  0  0  0  2  0  0  0  0  0  0
  189.3090  177.7930  146.0370 C   0  0  0  0  0  3  0  0  0  0  0  0
  191.5910  175.4890  135.2810 C   0  0  0  0  0  2  0  0  0  0  0  0
  192.9550  175.9240  134.7950 C   0  0  0  0  0  2  0  0  0  0  0  0
  194.2050  173.2990  136.7630 C   0  0  2  0  0  3  0  0  0  0  0  0
  193.3800  173.7350  135.6930 O   0  0  0  0  0  0  0  0  0  0  0  0
  194.0750  174.1600  137.8550 O   0  0  0  0  0  1  0  0  0  0  0  0
  196.0660  174.2200  135.3710 C   0  0  2  0  0  3  0  0  0  0  0  0
  195.1660  175.2880  135.4730 O   0  0  0  0  0  0  0  0  0  0  0  0
  195.6860  173.1390  136.3780 C   0  0  2  0  0  3  0  0  0  0  0  0
  193.9590  174.7980  134.9370 C   0  0  2  0  0  3  0  0  0  0  0  0
  195.9290  171.7700  135.7660 C   0  0  0  0  0  2  0  0  0  0  0  0
  195.1760  170.8060  136.4340 O   0  0  0  0  0  1  0  0  0  0  0  0
  197.4870  174.7010  135.6080 C   0  0  0  0  0  2  0  0  0  0  0  0
  198.3390  174.8830  137.9810 C   0  0  0  0  0  0  0  0  0  0  0  0
  198.9310  173.6200  137.9060 O   0  0  0  0  0  0  0  0  0  0  0  0
  197.5750  175.3910  136.8910 N   0  0  0  0  0  2  0  0  0  0  0  0
  198.4490  175.5670  139.0300 O   0  0  0  0  0  1  0  0  0  0  0  0
  1  3  1  0  0  0  0
  1  4  1  1  0  0  0
  2 11  1  0  0  0  0
  3 25  1  0  0  0  0
  5 37  1  1  0  0  0
  5  1  1  0  0  0  0
  6 10  2  0  0  0  0
  7  2  1  1  0  0  0
  7  5  1  0  0  0  0
  7  8  1  0  0  0  0
  8  6  1  1  0  0  0
  8  3  1  0  0  0  0
 10  9  1  0  0  0  0
 10 18  1  0  0  0  0
 11  9  1  0  0  0  0
 12 19  1  0  0  0  0
 13 17  1  0  0  0  0
 13 15  1  0  0  0  0
 14 13  2  0  0  0  0
 16 15  2  0  0  0  0
 17 21  1  0  0  0  0
 18 16  1  0  0  0  0
 19 14  1  0  0  0  0
 19 18  2  0  0  0  0
 20 17  1  0  0  0  0
 21 22  1  0  0  0  0
 22 23  1  0  0  0  0
 23 24  1  0  0  0  0
 25 28  1  0  0  0  0
 27 26  2  0  0  0  0
 27 29  1  0  0  0  0
 28 27  1  0  0  0  0
 29 30  1  0  0  0  0
 30 31  2  0  0  0  0
 30 33  1  0  0  0  0
 33 32  1  6  0  0  0
 33 36  1  0  0  0  0
 35 34  1  0  0  0  0
 36 35  1  0  0  0  0
 36 34  1  0  0  0  0
 38 37  1  0  0  0  0
 39 41  1  1  0  0  0
 40 39  1  0  0  0  0
 42 43  1  0  0  0  0
 42 48  1  1  0  0  0
 42 44  1  0  0  0  0
 44 46  1  6  0  0  0
 44 39  1  0  0  0  0
 45 38  1  1  0  0  0
 45 43  1  0  0  0  0
 45 40  1  0  0  0  0
 46 47  1  0  0  0  0
 48 51  1  0  0  0  0
 49 52  1  0  0  0  0
 50 49  2  0  0  0  0
 51 49  1  0  0  0  0
M  END
>  <MODEL>
2

>  <REMARK>
 VINA RESULT:      -7.0      1.019      1.582
  Name = 
  16 active torsions:
  status: ('A' for Active; 'I' for Inactive)
    1  A    between atoms: C_1  and  C_24
    2  A    between atoms: C_1  and  C_47
    3  A    between atoms: C_10  and  C_17
    4  A    between atoms: N_12  and  C_32
    5  A    between atoms: C_13  and  C_24
    6  A    between atoms: C_13  and  C_42
    7  A    between atoms: C_15  and  C_43
    8  A    between atoms: C_17  and  C_29
    9  A    between atoms: C_21  and  C_48
   10  A    between atoms: C_22  and  C_49
   11  A    between atoms: C_29  and  N_36
   12  A    between atoms: C_32  and  N_51
   13  A    between atoms: C_34  and  C_44
   14  A    between atoms: C_34  and  C_49
   15  A    between atoms: C_37  and  C_39
   16  A    between atoms: N_38  and  C_48
                            x       y       z     vdW  Elec       q    Type
                         _______ _______ _______ _____ _____    ______ ____

>  <TORSDO>
F 16

$$$$
=
 OpenBabel10222420143D

 52 56  0  0  1  0  0  0  0  0999 V2000
  191.0450  176.6560  137.6350 C   0  0  1  0  0  3  0  0  0  0  0  0
  188.8360  175.7970  135.2740 C   0  0  0  0  0  2  0  0  0  0  0  0
  189.8890  177.4730  138.0800 N   0  0  0  0  0  0  0  0  0  0  0  0
  191.0650  175.2050  138.1600 C   0  0  0  0  0  1  0  0  0  0  0  0
  191.0800  176.7270  136.1040 C   0  0  2  0  0  3  0  0  0  0  0  0
  187.6040  177.9120  136.9910 C   0  0  0  0  0  3  0  0  0  0  0  0
  189.6600  177.0360  135.6600 C   0  0  2  0  0  3  0  0  0  0  0  0
  189.1070  177.7890  136.8650 C   0  0  2  0  0  3  0  0  0  0  0  0
  187.0310  175.4260  137.0250 C   0  0  0  0  0  2  0  0  0  0  0  0
  186.7110  176.9170  137.0740 C   0  0  0  0  0  0  0  0  0  0  0  0
  188.4020  174.9970  136.4920 C   0  0  0  0  0  2  0  0  0  0  0  0
  185.7320  178.5830  139.3660 C   0  0  0  0  0  1  0  0  0  0  0  0
  182.6210  177.9600  137.4120 C   0  0  0  0  0  0  0  0  0  0  0  0
  183.5010  178.3740  138.3650 N   0  0  0  0  0  0  0  0  0  0  0  0
  183.0920  177.2140  136.3250 C   0  0  0  0  0  3  0  0  0  0  0  0
  184.4120  176.9050  136.2470 N   0  0  0  0  0  0  0  0  0  0  0  0
  181.2320  178.3040  137.5270 N   0  0  0  0  0  0  0  0  0  0  0  0
  185.2940  177.2990  137.2090 C   0  0  0  0  0  0  0  0  0  0  0  0
  184.8210  178.0640  138.2990 C   0  0  0  0  0  0  0  0  0  0  0  0
  180.8230  179.1070  138.5360 O   0  0  0  0  0  1  0  0  0  0  0  0
  180.2170  177.6990  136.6750 C   0  0  0  0  0  2  0  0  0  0  0  0
  179.1710  176.9650  137.4940 C   0  0  0  0  0  2  0  0  0  0  0  0
  179.7200  175.6590  138.0410 C   0  0  0  0  0  2  0  0  0  0  0  0
  179.0600  174.5710  137.4640 O   0  0  0  0  0  1  0  0  0  0  0  0
  189.0820  176.8720  139.1540 C   0  0  0  0  0  2  0  0  0  0  0  0
  190.4940  176.0240  141.5210 O   0  0  0  0  0  0  0  0  0  0  0  0
  189.8770  177.1240  141.5520 C   0  0  0  0  0  0  0  0  0  0  0  0
  189.2270  177.6340  140.3870 N   0  0  0  0  0  2  0  0  0  0  0  0
  189.8050  177.8850  142.8340 C   0  0  0  0  0  2  0  0  0  0  0  0
  189.0130  177.1640  143.8890 C   0  0  0  0  0  0  0  0  0  0  0  0
  187.9560  176.6090  143.6260 O   0  0  0  0  0  0  0  0  0  0  0  0
  189.0410  178.0980  146.0700 O   0  0  0  0  0  1  0  0  0  0  0  0
  189.5770  177.0780  145.2740 C   0  0  2  0  0  3  0  0  0  0  0  0
  191.7200  175.8320  145.5220 C   0  0  0  0  0  2  0  0  0  0  0  0
  191.6580  176.8860  146.6190 C   0  0  0  0  0  2  0  0  0  0  0  0
  191.0980  177.1940  145.2370 C   0  0  0  0  0  3  0  0  0  0  0  0
  191.7850  175.5860  135.3710 C   0  0  0  0  0  2  0  0  0  0  0  0
  193.2300  175.9580  135.1230 C   0  0  0  0  0  2  0  0  0  0  0  0
  193.4370  172.4660  135.4210 C   0  0  2  0  0  3  0  0  0  0  0  0
  193.3920  173.6190  134.5940 O   0  0  0  0  0  0  0  0  0  0  0  0
  192.5050  172.5790  136.4560 O   0  0  0  0  0  1  0  0  0  0  0  0
  195.5550  173.4760  136.2820 C   0  0  2  0  0  3  0  0  0  0  0  0
  194.6110  174.5010  136.4330 O   0  0  0  0  0  0  0  0  0  0  0  0
  194.8350  172.1640  135.9870 C   0  0  2  0  0  3  0  0  0  0  0  0
  194.1110  174.7260  135.1360 C   0  0  2  0  0  3  0  0  0  0  0  0
  195.6460  171.3560  134.9890 C   0  0  0  0  0  2  0  0  0  0  0  0
  195.4680  169.9930  135.2190 O   0  0  0  0  0  1  0  0  0  0  0  0
  196.4070  173.3530  137.5350 C   0  0  0  0  0  2  0  0  0  0  0  0
  196.5120  174.8360  139.5800 C   0  0  0  0  0  0  0  0  0  0  0  0
  197.9090  174.8420  139.5500 O   0  0  0  0  0  0  0  0  0  0  0  0
  195.7710  174.0580  138.6430 N   0  0  0  0  0  2  0  0  0  0  0  0
  195.9000  175.4930  140.4590 O   0  0  0  0  0  1  0  0  0  0  0  0
  1  3  1  0  0  0  0
  1  4  1  6  0  0  0
  2 11  1  0  0  0  0
  3 25  1  0  0  0  0
  5 37  1  6  0  0  0
  5  1  1  0  0  0  0
  6 10  2  0  0  0  0
  7  2  1  1  0  0  0
  7  5  1  0  0  0  0
  7  8  1  0  0  0  0
  8  6  1  1  0  0  0
  8  3  1  0  0  0  0
  9 10  1  0  0  0  0
 10 18  1  0  0  0  0
 11  9  1  0  0  0  0
 13 17  1  0  0  0  0
 13 14  1  0  0  0  0
 15 13  2  0  0  0  0
 16 15  1  0  0  0  0
 16 18  2  0  0  0  0
 17 20  1  0  0  0  0
 18 19  1  0  0  0  0
 19 14  2  0  0  0  0
 19 12  1  0  0  0  0
 21 22  1  0  0  0  0
 21 17  1  0  0  0  0
 22 23  1  0  0  0  0
 24 23  1  0  0  0  0
 25 28  1  0  0  0  0
 26 27  2  0  0  0  0
 27 29  1  0  0  0  0
 28 27  1  0  0  0  0
 29 30  1  0  0  0  0
 30 33  1  0  0  0  0
 31 30  2  0  0  0  0
 33 32  1  1  0  0  0
 34 35  1  0  0  0  0
 36 33  1  0  0  0  0
 36 34  1  0  0  0  0
 36 35  1  0  0  0  0
 38 37  1  0  0  0  0
 39 44  1  0  0  0  0
 39 41  1  1  0  0  0
 40 45  1  0  0  0  0
 40 39  1  0  0  0  0
 42 43  1  0  0  0  0
 42 48  1  1  0  0  0
 44 46  1  6  0  0  0
 44 42  1  0  0  0  0
 45 38  1  1  0  0  0
 45 43  1  0  0  0  0
 46 47  1  0  0  0  0
 48 51  1  0  0  0  0
 49 52  1  0  0  0  0
 50 49  2  0  0  0  0
 51 49  1  0  0  0  0
M  END
>  <MODEL>
3

>  <REMARK>
 VINA RESULT:      -6.0      1.674      2.386
  Name = 
  16 active torsions:
  status: ('A' for Active; 'I' for Inactive)
    1  A    between atoms: C_1  and  C_24
    2  A    between atoms: C_1  and  C_47
    3  A    between atoms: C_10  and  C_17
    4  A    between atoms: N_12  and  C_32
    5  A    between atoms: C_13  and  C_24
    6  A    between atoms: C_13  and  C_42
    7  A    between atoms: C_15  and  C_43
    8  A    between atoms: C_17  and  C_29
    9  A    between atoms: C_21  and  C_48
   10  A    between atoms: C_22  and  C_49
   11  A    between atoms: C_29  and  N_36
   12  A    between atoms: C_32  and  N_51
   13  A    between atoms: C_34  and  C_44
   14  A    between atoms: C_34  and  C_49
   15  A    between atoms: C_37  and  C_39
   16  A    between atoms: N_38  and  C_48
                            x       y       z     vdW  Elec       q    Type
                         _______ _______ _______ _____ _____    ______ ____

>  <TORSDO>
F 16

$$$$
=
 OpenBabel10222420143D

 52 56  0  0  1  0  0  0  0  0999 V2000
  190.6270  177.0180  137.9060 C   0  0  1  0  0  3  0  0  0  0  0  0
  188.5800  175.8840  135.5160 C   0  0  0  0  0  2  0  0  0  0  0  0
  189.4260  177.8340  138.2120 N   0  0  0  0  0  0  0  0  0  0  0  0
  190.6560  175.6210  138.5600 C   0  0  0  0  0  1  0  0  0  0  0  0
  190.7470  176.9540  136.3790 C   0  0  2  0  0  3  0  0  0  0  0  0
  187.1960  178.1020  136.9660 C   0  0  0  0  0  3  0  0  0  0  0  0
  189.3460  177.1770  135.8330 C   0  0  2  0  0  3  0  0  0  0  0  0
  188.7060  178.0160  136.9330 C   0  0  2  0  0  3  0  0  0  0  0  0
  186.6890  175.6130  137.1930 C   0  0  0  0  0  2  0  0  0  0  0  0
  186.3260  177.0910  137.0900 C   0  0  0  0  0  0  0  0  0  0  0  0
  188.0980  175.1810  136.7760 C   0  0  0  0  0  2  0  0  0  0  0  0
  184.5500  176.6540  134.7140 C   0  0  0  0  0  1  0  0  0  0  0  0
  182.2240  178.1330  137.2200 C   0  0  0  0  0  0  0  0  0  0  0  0
  182.7480  177.6070  136.0790 N   0  0  0  0  0  0  0  0  0  0  0  0
  183.0520  178.3000  138.3380 C   0  0  0  0  0  3  0  0  0  0  0  0
  184.3610  177.9470  138.2600 N   0  0  0  0  0  0  0  0  0  0  0  0
  180.8360  178.4970  137.2670 N   0  0  0  0  0  0  0  0  0  0  0  0
  184.8950  177.4380  137.1130 C   0  0  0  0  0  0  0  0  0  0  0  0
  184.0560  177.2580  135.9900 C   0  0  0  0  0  0  0  0  0  0  0  0
  180.0400  178.2350  136.2050 O   0  0  0  0  0  1  0  0  0  0  0  0
  180.2810  179.2730  138.3680 C   0  0  0  0  0  2  0  0  0  0  0  0
  180.3440  180.7630  138.0830 C   0  0  0  0  0  2  0  0  0  0  0  0
  179.9610  181.5720  139.3100 C   0  0  0  0  0  2  0  0  0  0  0  0
  179.4040  180.7430  140.2880 O   0  0  0  0  0  1  0  0  0  0  0  0
  188.5760  177.3060  139.2910 C   0  0  0  0  0  2  0  0  0  0  0  0
  189.7620  176.3340  141.7330 O   0  0  0  0  0  0  0  0  0  0  0  0
  189.2980  177.5070  141.7170 C   0  0  0  0  0  0  0  0  0  0  0  0
  188.7710  178.0710  140.5150 N   0  0  0  0  0  2  0  0  0  0  0  0
  189.2770  178.3020  142.9800 C   0  0  0  0  0  2  0  0  0  0  0  0
  190.5780  178.2270  143.7290 C   0  0  0  0  0  0  0  0  0  0  0  0
  191.6500  178.3950  143.1660 O   0  0  0  0  0  0  0  0  0  0  0  0
  191.7350  177.4100  145.6340 O   0  0  0  0  0  1  0  0  0  0  0  0
  190.5390  178.0050  145.2100 C   0  0  2  0  0  3  0  0  0  0  0  0
  188.4330  177.8700  146.5330 C   0  0  0  0  0  2  0  0  0  0  0  0
  189.3990  176.8290  147.0790 C   0  0  0  0  0  2  0  0  0  0  0  0
  189.3580  177.1160  145.5840 C   0  0  0  0  0  3  0  0  0  0  0  0
  191.5230  175.7760  135.7910 C   0  0  0  0  0  2  0  0  0  0  0  0
  192.2990  175.0810  136.8870 C   0  0  0  0  0  2  0  0  0  0  0  0
  195.1460  174.6890  134.8710 C   0  0  2  0  0  3  0  0  0  0  0  0
  194.0850  175.5090  135.3360 O   0  0  0  0  0  0  0  0  0  0  0  0
  194.6760  173.4030  134.5940 O   0  0  0  0  0  1  0  0  0  0  0  0
  195.8480  174.6690  137.2700 C   0  0  2  0  0  3  0  0  0  0  0  0
  194.5100  174.2550  137.3100 O   0  0  0  0  0  0  0  0  0  0  0  0
  196.3480  174.6260  135.8290 C   0  0  2  0  0  3  0  0  0  0  0  0
  193.7870  175.3090  136.7170 C   0  0  2  0  0  3  0  0  0  0  0  0
  197.2810  175.7990  135.5840 C   0  0  0  0  0  2  0  0  0  0  0  0
  198.6070  175.3860  135.6920 O   0  0  0  0  0  1  0  0  0  0  0  0
  196.7020  173.7840  138.1620 C   0  0  0  0  0  2  0  0  0  0  0  0
  196.5790  171.3180  137.6180 C   0  0  0  0  0  0  0  0  0  0  0  0
  197.6020  171.4370  136.6740 O   0  0  0  0  0  0  0  0  0  0  0  0
  196.0860  172.4690  138.3000 N   0  0  0  0  0  2  0  0  0  0  0  0
  196.0620  170.1950  137.8480 O   0  0  0  0  0  1  0  0  0  0  0  0
  1  3  1  0  0  0  0
  1  4  1  6  0  0  0
  2 11  1  0  0  0  0
  3 25  1  0  0  0  0
  5 37  1  1  0  0  0
  5  1  1  0  0  0  0
  6 10  2  0  0  0  0
  7  2  1  1  0  0  0
  7  5  1  0  0  0  0
  7  8  1  0  0  0  0
  8  6  1  1  0  0  0
  8  3  1  0  0  0  0
 10 18  1  0  0  0  0
 10  9  1  0  0  0  0
 11  9  1  0  0  0  0
 12 19  1  0  0  0  0
 13 17  1  0  0  0  0
 13 15  1  0  0  0  0
 14 13  2  0  0  0  0
 16 15  2  0  0  0  0
 17 21  1  0  0  0  0
 18 16  1  0  0  0  0
 19 14  1  0  0  0  0
 19 18  2  0  0  0  0
 20 17  1  0  0  0  0
 22 21  1  0  0  0  0
 22 23  1  0  0  0  0
 23 24  1  0  0  0  0
 25 28  1  0  0  0  0
 27 26  2  0  0  0  0
 27 29  1  0  0  0  0
 28 27  1  0  0  0  0
 29 30  1  0  0  0  0
 30 33  1  0  0  0  0
 31 30  2  0  0  0  0
 33 36  1  0  0  0  0
 33 32  1  6  0  0  0
 34 35  1  0  0  0  0
 36 34  1  0  0  0  0
 36 35  1  0  0  0  0
 37 38  1  0  0  0  0
 39 41  1  1  0  0  0
 39 40  1  0  0  0  0
 39 44  1  0  0  0  0
 40 45  1  0  0  0  0
 42 43  1  0  0  0  0
 42 48  1  1  0  0  0
 44 46  1  6  0  0  0
 44 42  1  0  0  0  0
 45 38  1  6  0  0  0
 45 43  1  0  0  0  0
 46 47  1  0  0  0  0
 48 51  1  0  0  0  0
 49 52  1  0  0  0  0
 49 51  1  0  0  0  0
 50 49  2  0  0  0  0
M  END
>  <MODEL>
4

>  <REMARK>
 VINA RESULT:      -5.8      1.339      2.067
  Name = 
  16 active torsions:
  status: ('A' for Active; 'I' for Inactive)
    1  A    between atoms: C_1  and  C_24
    2  A    between atoms: C_1  and  C_47
    3  A    between atoms: C_10  and  C_17
    4  A    between atoms: N_12  and  C_32
    5  A    between atoms: C_13  and  C_24
    6  A    between atoms: C_13  and  C_42
    7  A    between atoms: C_15  and  C_43
    8  A    between atoms: C_17  and  C_29
    9  A    between atoms: C_21  and  C_48
   10  A    between atoms: C_22  and  C_49
   11  A    between atoms: C_29  and  N_36
   12  A    between atoms: C_32  and  N_51
   13  A    between atoms: C_34  and  C_44
   14  A    between atoms: C_34  and  C_49
   15  A    between atoms: C_37  and  C_39
   16  A    between atoms: N_38  and  C_48
                            x       y       z     vdW  Elec       q    Type
                         _______ _______ _______ _____ _____    ______ ____

>  <TORSDO>
F 16

$$$$
=
 OpenBabel10222420143D

 52 56  0  0  1  0  0  0  0  0999 V2000
  190.6230  177.4660  138.5100 C   0  0  1  0  0  3  0  0  0  0  0  0
  188.8600  175.7400  136.2520 C   0  0  0  0  0  2  0  0  0  0  0  0
  189.3820  178.2790  138.5040 N   0  0  0  0  0  0  0  0  0  0  0  0
  190.6110  176.2530  139.4640 C   0  0  0  0  0  1  0  0  0  0  0  0
  190.9040  177.0670  137.0560 C   0  0  2  0  0  3  0  0  0  0  0  0
  187.2890  178.1660  137.0180 C   0  0  0  0  0  3  0  0  0  0  0  0
  189.5640  177.1020  136.3390 C   0  0  2  0  0  3  0  0  0  0  0  0
  188.7960  178.1390  137.1530 C   0  0  2  0  0  3  0  0  0  0  0  0
  186.8090  175.7710  137.7540 C   0  0  0  0  0  2  0  0  0  0  0  0
  186.4310  177.1710  137.2830 C   0  0  0  0  0  0  0  0  0  0  0  0
  188.2630  175.3170  137.5850 C   0  0  0  0  0  2  0  0  0  0  0  0
  184.9920  176.3990  134.7680 C   0  0  0  0  0  1  0  0  0  0  0  0
  182.3170  178.0350  136.7790 C   0  0  0  0  0  0  0  0  0  0  0  0
  183.0000  177.4120  135.7800 N   0  0  0  0  0  0  0  0  0  0  0  0
  182.9870  178.3600  137.9650 C   0  0  0  0  0  3  0  0  0  0  0  0
  184.3050  178.0600  138.0930 N   0  0  0  0  0  0  0  0  0  0  0  0
  180.9240  178.3390  136.6100 N   0  0  0  0  0  0  0  0  0  0  0  0
  184.9990  177.4540  137.0870 C   0  0  0  0  0  0  0  0  0  0  0  0
  184.3190  177.1150  135.8960 C   0  0  0  0  0  0  0  0  0  0  0  0
  180.2800  177.9270  135.4930 O   0  0  0  0  0  1  0  0  0  0  0  0
  180.2060  179.2040  137.5370 C   0  0  0  0  0  2  0  0  0  0  0  0
  179.6510  178.4190  138.7110 C   0  0  0  0  0  2  0  0  0  0  0  0
  179.8440  176.9250  138.5120 C   0  0  0  0  0  2  0  0  0  0  0  0
  180.6770  176.4030  139.5050 O   0  0  0  0  0  1  0  0  0  0  0  0
  188.4340  177.9690  139.5870 C   0  0  0  0  0  2  0  0  0  0  0  0
  187.2110  178.2890  142.1780 O   0  0  0  0  0  0  0  0  0  0  0  0
  188.4660  178.1740  142.1170 C   0  0  0  0  0  0  0  0  0  0  0  0
  189.1210  177.9340  140.8700 N   0  0  0  0  0  2  0  0  0  0  0  0
  189.2750  178.3200  143.3620 C   0  0  0  0  0  2  0  0  0  0  0  0
  188.7360  177.4950  144.4980 C   0  0  0  0  0  0  0  0  0  0  0  0
  187.9580  176.5730  144.3050 O   0  0  0  0  0  0  0  0  0  0  0  0
  190.0360  176.7300  146.3310 O   0  0  0  0  0  1  0  0  0  0  0  0
  189.2250  177.7820  145.8850 C   0  0  2  0  0  3  0  0  0  0  0  0
  188.5670  178.2680  148.2380 C   0  0  0  0  0  2  0  0  0  0  0  0
  188.0790  176.8690  147.8920 C   0  0  0  0  0  2  0  0  0  0  0  0
  188.0470  177.9660  146.8370 C   0  0  0  0  0  3  0  0  0  0  0  0
  191.7600  175.8210  136.8300 C   0  0  0  0  0  2  0  0  0  0  0  0
  192.6090  176.0070  135.5930 C   0  0  0  0  0  2  0  0  0  0  0  0
  195.4960  174.1900  134.7640 C   0  0  2  0  0  3  0  0  0  0  0  0
  194.7470  175.3920  134.6810 O   0  0  0  0  0  0  0  0  0  0  0  0
  194.6570  173.0860  134.5940 O   0  0  0  0  0  1  0  0  0  0  0  0
  195.5230  174.6700  137.2170 C   0  0  2  0  0  3  0  0  0  0  0  0
  194.1630  174.7130  136.8830 O   0  0  0  0  0  0  0  0  0  0  0  0
  196.3080  174.0520  136.0630 C   0  0  2  0  0  3  0  0  0  0  0  0
  194.0650  175.7110  135.8930 C   0  0  2  0  0  3  0  0  0  0  0  0
  197.6460  174.7580  135.9280 C   0  0  0  0  0  2  0  0  0  0  0  0
  197.5530  176.0590  136.4200 O   0  0  0  0  0  1  0  0  0  0  0  0
  195.7280  173.8740  138.4950 C   0  0  0  0  0  2  0  0  0  0  0  0
  197.2190  175.2540  140.0000 C   0  0  0  0  0  0  0  0  0  0  0  0
  198.3690  174.7550  139.3820 O   0  0  0  0  0  0  0  0  0  0  0  0
  195.9300  174.7800  139.6210 N   0  0  0  0  0  2  0  0  0  0  0  0
  197.3190  176.1030  140.9210 O   0  0  0  0  0  1  0  0  0  0  0  0
  1  4  1  1  0  0  0
  2 11  1  0  0  0  0
  3  1  1  0  0  0  0
  3 25  1  0  0  0  0
  5 37  1  1  0  0  0
  5  1  1  0  0  0  0
  6 10  2  0  0  0  0
  7  2  1  1  0  0  0
  7  5  1  0  0  0  0
  7  8  1  0  0  0  0
  8  6  1  1  0  0  0
  8  3  1  0  0  0  0
 10  9  1  0  0  0  0
 11  9  1  0  0  0  0
 12 19  1  0  0  0  0
 13 15  1  0  0  0  0
 14 19  1  0  0  0  0
 14 13  2  0  0  0  0
 15 16  2  0  0  0  0
 17 13  1  0  0  0  0
 17 21  1  0  0  0  0
 18 10  1  0  0  0  0
 18 16  1  0  0  0  0
 19 18  2  0  0  0  0
 20 17  1  0  0  0  0
 21 22  1  0  0  0  0
 23 22  1  0  0  0  0
 23 24  1  0  0  0  0
 25 28  1  0  0  0  0
 27 26  2  0  0  0  0
 27 29  1  0  0  0  0
 28 27  1  0  0  0  0
 29 30  1  0  0  0  0
 30 33  1  0  0  0  0
 31 30  2  0  0  0  0
 33 32  1  1  0  0  0
 33 36  1  0  0  0  0
 35 34  1  0  0  0  0
 36 35  1  0  0  0  0
 36 34  1  0  0  0  0
 38 37  1  0  0  0  0
 39 41  1  1  0  0  0
 39 44  1  0  0  0  0
 40 39  1  0  0  0  0
 40 45  1  0  0  0  0
 42 48  1  1  0  0  0
 43 42  1  0  0  0  0
 44 46  1  6  0  0  0
 44 42  1  0  0  0  0
 45 38  1  6  0  0  0
 45 43  1  0  0  0  0
 46 47  1  0  0  0  0
 48 51  1  0  0  0  0
 49 52  1  0  0  0  0
 50 49  2  0  0  0  0
 51 49  1  0  0  0  0
M  END
>  <MODEL>
5

>  <REMARK>
 VINA RESULT:      -5.7      1.568      2.147
  Name = 
  16 active torsions:
  status: ('A' for Active; 'I' for Inactive)
    1  A    between atoms: C_1  and  C_24
    2  A    between atoms: C_1  and  C_47
    3  A    between atoms: C_10  and  C_17
    4  A    between atoms: N_12  and  C_32
    5  A    between atoms: C_13  and  C_24
    6  A    between atoms: C_13  and  C_42
    7  A    between atoms: C_15  and  C_43
    8  A    between atoms: C_17  and  C_29
    9  A    between atoms: C_21  and  C_48
   10  A    between atoms: C_22  and  C_49
   11  A    between atoms: C_29  and  N_36
   12  A    between atoms: C_32  and  N_51
   13  A    between atoms: C_34  and  C_44
   14  A    between atoms: C_34  and  C_49
   15  A    between atoms: C_37  and  C_39
   16  A    between atoms: N_38  and  C_48
                            x       y       z     vdW  Elec       q    Type
                         _______ _______ _______ _____ _____    ______ ____

>  <TORSDO>
F 16

$$$$
=
 OpenBabel10222420143D

 52 56  0  0  1  0  0  0  0  0999 V2000
  190.1580  175.9520  135.7740 C   0  0  1  0  0  3  0  0  0  0  0  0
  192.5200  176.0740  138.1390 C   0  0  0  0  0  2  0  0  0  0  0  0
  189.2960  175.8540  136.9780 N   0  0  0  0  0  0  0  0  0  0  0  0
  190.5100  177.3880  135.3320 C   0  0  0  0  0  1  0  0  0  0  0  0
  191.4030  175.0990  136.0440 C   0  0  2  0  0  3  0  0  0  0  0  0
  189.8830  175.6020  139.4660 C   0  0  0  0  0  3  0  0  0  0  0  0
  191.5530  175.0330  137.5550 C   0  0  2  0  0  3  0  0  0  0  0  0
  190.1130  175.2020  138.0250 C   0  0  2  0  0  3  0  0  0  0  0  0
  191.1880  177.7940  139.4530 C   0  0  0  0  0  2  0  0  0  0  0  0
  190.3230  176.7080  140.0830 C   0  0  0  0  0  0  0  0  0  0  0  0
  191.9200  177.4710  138.1460 C   0  0  0  0  0  2  0  0  0  0  0  0
  188.1570  178.6000  140.9310 C   0  0  0  0  0  1  0  0  0  0  0  0
  189.3110  177.1640  144.1690 C   0  0  0  0  0  0  0  0  0  0  0  0
  188.6550  177.8980  143.2280 N   0  0  0  0  0  0  0  0  0  0  0  0
  190.2960  176.2550  143.7620 C   0  0  0  0  0  3  0  0  0  0  0  0
  190.5870  176.1310  142.4420 N   0  0  0  0  0  0  0  0  0  0  0  0
  188.9780  177.3220  145.5570 N   0  0  0  0  0  0  0  0  0  0  0  0
  189.9480  176.8780  141.4970 C   0  0  0  0  0  0  0  0  0  0  0  0
  188.9450  177.7860  141.9080 C   0  0  0  0  0  0  0  0  0  0  0  0
  187.9570  178.1350  145.9110 O   0  0  0  0  0  1  0  0  0  0  0  0
  189.7970  176.7450  146.6150 C   0  0  0  0  0  2  0  0  0  0  0  0
  191.2720  176.7840  146.2580 C   0  0  0  0  0  2  0  0  0  0  0  0
  192.1080  176.0640  147.3020 C   0  0  0  0  0  2  0  0  0  0  0  0
  192.3100  176.8840  148.4160 O   0  0  0  0  0  1  0  0  0  0  0  0
  188.6940  177.1240  137.4130 C   0  0  0  0  0  2  0  0  0  0  0  0
  186.7760  179.2080  136.8710 O   0  0  0  0  0  0  0  0  0  0  0  0
  186.3510  178.0940  137.2830 C   0  0  0  0  0  0  0  0  0  0  0  0
  187.2450  177.0000  137.4930 N   0  0  0  0  0  2  0  0  0  0  0  0
  184.8980  177.9320  137.5820 C   0  0  0  0  0  2  0  0  0  0  0  0
  184.4780  178.6740  138.8200 C   0  0  0  0  0  0  0  0  0  0  0  0
  185.2960  179.2150  139.5480 O   0  0  0  0  0  0  0  0  0  0  0  0
  182.6140  180.1350  138.9830 O   0  0  0  0  0  1  0  0  0  0  0  0
  183.0150  178.7990  139.1170 C   0  0  2  0  0  3  0  0  0  0  0  0
  181.3650  177.5990  140.5480 C   0  0  0  0  0  2  0  0  0  0  0  0
  181.4820  179.0270  141.0600 C   0  0  0  0  0  2  0  0  0  0  0  0
  182.7160  178.3080  140.5300 C   0  0  0  0  0  3  0  0  0  0  0  0
  192.6650  175.4400  135.2530 C   0  0  0  0  0  2  0  0  0  0  0  0
  193.4940  174.1910  135.0550 C   0  0  0  0  0  2  0  0  0  0  0  0
  196.7020  172.8580  135.5630 C   0  0  2  0  0  3  0  0  0  0  0  0
  195.8530  173.7660  134.8770 O   0  0  0  0  0  0  0  0  0  0  0  0
  196.0790  171.6140  135.6860 O   0  0  0  0  0  1  0  0  0  0  0  0
  196.0420  174.1660  137.5880 C   0  0  2  0  0  3  0  0  0  0  0  0
  194.8180  173.7980  137.0160 O   0  0  0  0  0  0  0  0  0  0  0  0
  197.1660  173.3650  136.9390 C   0  0  2  0  0  3  0  0  0  0  0  0
  194.8500  174.3380  135.7150 C   0  0  2  0  0  3  0  0  0  0  0  0
  198.3950  174.2460  136.7920 C   0  0  0  0  0  2  0  0  0  0  0  0
  198.0180  175.5850  136.7200 O   0  0  0  0  0  1  0  0  0  0  0  0
  196.0140  173.9360  139.0900 C   0  0  0  0  0  2  0  0  0  0  0  0
  197.0120  175.6930  140.6100 C   0  0  0  0  0  0  0  0  0  0  0  0
  198.1170  174.8830  140.8820 O   0  0  0  0  0  0  0  0  0  0  0  0
  195.9470  175.2130  139.7920 N   0  0  0  0  0  2  0  0  0  0  0  0
  196.9330  176.8410  141.1150 O   0  0  0  0  0  1  0  0  0  0  0  0
  1  4  1  1  0  0  0
  1  5  1  0  0  0  0
  1  3  1  0  0  0  0
  2 11  1  0  0  0  0
  3 25  1  0  0  0  0
  3  8  1  0  0  0  0
  5 37  1  6  0  0  0
  5  7  1  0  0  0  0
  6 10  2  0  0  0  0
  7  8  1  0  0  0  0
  7  2  1  1  0  0  0
  8  6  1  1  0  0  0
  9 10  1  0  0  0  0
 10 18  1  0  0  0  0
 11  9  1  0  0  0  0
 12 19  1  0  0  0  0
 13 17  1  0  0  0  0
 14 13  2  0  0  0  0
 15 13  1  0  0  0  0
 16 15  2  0  0  0  0
 17 20  1  0  0  0  0
 17 21  1  0  0  0  0
 18 19  2  0  0  0  0
 18 16  1  0  0  0  0
 19 14  1  0  0  0  0
 22 21  1  0  0  0  0
 22 23  1  0  0  0  0
 23 24  1  0  0  0  0
 25 28  1  0  0  0  0
 26 27  2  0  0  0  0
 27 28  1  0  0  0  0
 27 29  1  0  0  0  0
 29 30  1  0  0  0  0
 30 33  1  0  0  0  0
 30 31  2  0  0  0  0
 33 32  1  1  0  0  0
 33 36  1  0  0  0  0
 34 35  1  0  0  0  0
 36 34  1  0  0  0  0
 36 35  1  0  0  0  0
 38 37  1  0  0  0  0
 39 41  1  1  0  0  0
 39 44  1  0  0  0  0
 40 39  1  0  0  0  0
 40 45  1  0  0  0  0
 42 48  1  1  0  0  0
 43 42  1  0  0  0  0
 44 46  1  6  0  0  0
 44 42  1  0  0  0  0
 45 38  1  6  0  0  0
 45 43  1  0  0  0  0
 47 46  1  0  0  0  0
 48 51  1  0  0  0  0
 49 50  2  0  0  0  0
 49 52  1  0  0  0  0
 51 49  1  0  0  0  0
M  END
>  <MODEL>
6

>  <REMARK>
 VINA RESULT:      -5.5      2.375      7.016
  Name = 
  16 active torsions:
  status: ('A' for Active; 'I' for Inactive)
    1  A    between atoms: C_1  and  C_24
    2  A    between atoms: C_1  and  C_47
    3  A    between atoms: C_10  and  C_17
    4  A    between atoms: N_12  and  C_32
    5  A    between atoms: C_13  and  C_24
    6  A    between atoms: C_13  and  C_42
    7  A    between atoms: C_15  and  C_43
    8  A    between atoms: C_17  and  C_29
    9  A    between atoms: C_21  and  C_48
   10  A    between atoms: C_22  and  C_49
   11  A    between atoms: C_29  and  N_36
   12  A    between atoms: C_32  and  N_51
   13  A    between atoms: C_34  and  C_44
   14  A    between atoms: C_34  and  C_49
   15  A    between atoms: C_37  and  C_39
   16  A    between atoms: N_38  and  C_48
                            x       y       z     vdW  Elec       q    Type
                         _______ _______ _______ _____ _____    ______ ____

>  <TORSDO>
F 16

$$$$
=
 OpenBabel10222420143D

 52 56  0  0  1  0  0  0  0  0999 V2000
  189.0380  176.2130  135.2360 C   0  0  1  0  0  3  0  0  0  0  0  0
  190.7500  177.0700  137.9790 C   0  0  0  0  0  2  0  0  0  0  0  0
  187.9270  176.2190  136.2190 N   0  0  0  0  0  0  0  0  0  0  0  0
  189.3570  177.5810  134.5960 C   0  0  0  0  0  1  0  0  0  0  0  0
  190.2540  175.5950  135.9380 C   0  0  2  0  0  3  0  0  0  0  0  0
  187.9250  176.4970  138.7730 C   0  0  0  0  0  3  0  0  0  0  0  0
  190.0450  175.8210  137.4260 C   0  0  2  0  0  3  0  0  0  0  0  0
  188.5250  175.8790  137.5290 C   0  0  2  0  0  3  0  0  0  0  0  0
  188.9960  178.8050  138.5940 C   0  0  0  0  0  2  0  0  0  0  0  0
  188.1060  177.7430  139.2300 C   0  0  0  0  0  0  0  0  0  0  0  0
  190.0440  178.3530  137.5710 C   0  0  0  0  0  2  0  0  0  0  0  0
  189.1560  177.0240  141.9450 C   0  0  0  0  0  1  0  0  0  0  0  0
  185.9880  178.8190  142.7360 C   0  0  0  0  0  0  0  0  0  0  0  0
  187.1540  178.1240  142.8420 N   0  0  0  0  0  0  0  0  0  0  0  0
  185.5230  179.1830  141.4660 C   0  0  0  0  0  3  0  0  0  0  0  0
  186.2340  178.8270  140.3660 N   0  0  0  0  0  0  0  0  0  0  0  0
  185.2610  179.1780  143.9210 N   0  0  0  0  0  0  0  0  0  0  0  0
  187.3910  178.1130  140.4650 C   0  0  0  0  0  0  0  0  0  0  0  0
  187.8670  177.7570  141.7470 C   0  0  0  0  0  0  0  0  0  0  0  0
  185.7840  178.8980  145.1370 O   0  0  0  0  0  1  0  0  0  0  0  0
  183.9060  179.7100  143.8610 C   0  0  0  0  0  2  0  0  0  0  0  0
  182.9030  178.6290  143.5010 C   0  0  0  0  0  2  0  0  0  0  0  0
  181.4910  179.1890  143.4460 C   0  0  0  0  0  2  0  0  0  0  0  0
  181.1030  179.4070  142.1210 O   0  0  0  0  0  1  0  0  0  0  0  0
  187.1280  177.4550  136.2440 C   0  0  0  0  0  2  0  0  0  0  0  0
  184.7040  177.7320  137.7790 O   0  0  0  0  0  0  0  0  0  0  0  0
  184.6210  177.2820  136.6040 C   0  0  0  0  0  0  0  0  0  0  0  0
  185.7770  177.1980  135.7680 N   0  0  0  0  0  2  0  0  0  0  0  0
  183.3010  176.8080  136.0940 C   0  0  0  0  0  2  0  0  0  0  0  0
  182.9340  175.4490  136.6230 C   0  0  0  0  0  0  0  0  0  0  0  0
  183.4020  174.4280  136.1400 O   0  0  0  0  0  0  0  0  0  0  0  0
  182.7470  175.6130  138.9830 O   0  0  0  0  0  1  0  0  0  0  0  0
  182.0230  175.3650  137.8090 C   0  0  2  0  0  3  0  0  0  0  0  0
  179.9000  174.0990  137.5030 C   0  0  0  0  0  2  0  0  0  0  0  0
  180.3020  173.9970  138.9670 C   0  0  0  0  0  2  0  0  0  0  0  0
  181.3720  173.9880  137.8840 C   0  0  0  0  0  3  0  0  0  0  0  0
  191.6320  175.9550  135.3860 C   0  0  0  0  0  2  0  0  0  0  0  0
  192.4230  174.6910  135.1320 C   0  0  0  0  0  2  0  0  0  0  0  0
  195.7890  173.7070  134.9720 C   0  0  2  0  0  3  0  0  0  0  0  0
  194.7820  174.6610  134.6710 O   0  0  0  0  0  0  0  0  0  0  0  0
  195.3180  172.4150  134.7300 O   0  0  0  0  0  1  0  0  0  0  0  0
  195.2110  174.2210  137.3490 C   0  0  2  0  0  3  0  0  0  0  0  0
  193.9790  173.8890  136.7700 O   0  0  0  0  0  0  0  0  0  0  0  0
  196.3390  173.8180  136.4040 C   0  0  2  0  0  3  0  0  0  0  0  0
  193.8170  174.8050  135.7120 C   0  0  2  0  0  3  0  0  0  0  0  0
  197.4460  174.8570  136.4670 C   0  0  0  0  0  2  0  0  0  0  0  0
  196.9810  176.0800  135.9880 O   0  0  0  0  0  1  0  0  0  0  0  0
  195.3650  173.5330  138.6950 C   0  0  0  0  0  2  0  0  0  0  0  0
  196.3070  175.3100  140.2270 C   0  0  0  0  0  0  0  0  0  0  0  0
  195.1050  176.0200  140.2060 O   0  0  0  0  0  0  0  0  0  0  0  0
  196.4670  174.1330  139.4400 N   0  0  0  0  0  2  0  0  0  0  0  0
  197.2710  175.7280  140.9180 O   0  0  0  0  0  1  0  0  0  0  0  0
  1  4  1  1  0  0  0
  1  5  1  0  0  0  0
  1  3  1  0  0  0  0
  3 25  1  0  0  0  0
  3  8  1  0  0  0  0
  5 37  1  6  0  0  0
  5  7  1  0  0  0  0
  6 10  2  0  0  0  0
  7  8  1  0  0  0  0
  7  2  1  6  0  0  0
  8  6  1  1  0  0  0
  9 10  1  0  0  0  0
 10 18  1  0  0  0  0
 11  2  1  0  0  0  0
 11  9  1  0  0  0  0
 13 14  1  0  0  0  0
 13 17  1  0  0  0  0
 15 13  2  0  0  0  0
 16 18  2  0  0  0  0
 16 15  1  0  0  0  0
 17 20  1  0  0  0  0
 18 19  1  0  0  0  0
 19 12  1  0  0  0  0
 19 14  2  0  0  0  0
 21 17  1  0  0  0  0
 22 21  1  0  0  0  0
 23 22  1  0  0  0  0
 24 23  1  0  0  0  0
 27 26  2  0  0  0  0
 28 25  1  0  0  0  0
 28 27  1  0  0  0  0
 29 27  1  0  0  0  0
 29 30  1  0  0  0  0
 30 33  1  0  0  0  0
 31 30  2  0  0  0  0
 33 36  1  0  0  0  0
 33 32  1  1  0  0  0
 34 36  1  0  0  0  0
 34 35  1  0  0  0  0
 36 35  1  0  0  0  0
 38 37  1  0  0  0  0
 39 41  1  1  0  0  0
 39 44  1  0  0  0  0
 40 39  1  0  0  0  0
 40 45  1  0  0  0  0
 42 48  1  1  0  0  0
 43 42  1  0  0  0  0
 44 46  1  6  0  0  0
 44 42  1  0  0  0  0
 45 38  1  6  0  0  0
 45 43  1  0  0  0  0
 47 46  1  0  0  0  0
 48 51  1  0  0  0  0
 49 52  1  0  0  0  0
 50 49  2  0  0  0  0
 51 49  1  0  0  0  0
M  END
>  <MODEL>
7

>  <REMARK>
 VINA RESULT:      -5.5      2.902      5.979
  Name = 
  16 active torsions:
  status: ('A' for Active; 'I' for Inactive)
    1  A    between atoms: C_1  and  C_24
    2  A    between atoms: C_1  and  C_47
    3  A    between atoms: C_10  and  C_17
    4  A    between atoms: N_12  and  C_32
    5  A    between atoms: C_13  and  C_24
    6  A    between atoms: C_13  and  C_42
    7  A    between atoms: C_15  and  C_43
    8  A    between atoms: C_17  and  C_29
    9  A    between atoms: C_21  and  C_48
   10  A    between atoms: C_22  and  C_49
   11  A    between atoms: C_29  and  N_36
   12  A    between atoms: C_32  and  N_51
   13  A    between atoms: C_34  and  C_44
   14  A    between atoms: C_34  and  C_49
   15  A    between atoms: C_37  and  C_39
   16  A    between atoms: N_38  and  C_48
                            x       y       z     vdW  Elec       q    Type
                         _______ _______ _______ _____ _____    ______ ____

>  <TORSDO>
F 16

$$$$
=
 OpenBabel10222420143D

 52 56  0  0  1  0  0  0  0  0999 V2000
  190.9880  174.9870  135.1990 C   0  0  1  0  0  3  0  0  0  0  0  0
  193.0430  175.3530  137.8130 C   0  0  0  0  0  2  0  0  0  0  0  0
  189.9790  175.1240  136.2790 N   0  0  0  0  0  0  0  0  0  0  0  0
  191.4940  176.3160  134.6010 C   0  0  0  0  0  1  0  0  0  0  0  0
  192.1250  174.1230  135.7560 C   0  0  2  0  0  3  0  0  0  0  0  0
  190.2350  175.2330  138.8330 C   0  0  0  0  0  3  0  0  0  0  0  0
  192.0820  174.2860  137.2660 C   0  0  2  0  0  3  0  0  0  0  0  0
  190.6110  174.6010  137.5100 C   0  0  2  0  0  3  0  0  0  0  0  0
  191.6860  177.3250  138.6690 C   0  0  0  0  0  2  0  0  0  0  0  0
  190.6730  176.3960  139.3320 C   0  0  0  0  0  0  0  0  0  0  0  0
  192.5490  176.7640  137.5340 C   0  0  0  0  0  2  0  0  0  0  0  0
  192.4720  177.1000  141.6260 C   0  0  0  0  0  1  0  0  0  0  0  0
  189.0700  177.5430  143.0800 C   0  0  0  0  0  0  0  0  0  0  0  0
  190.4210  177.4770  142.9180 N   0  0  0  0  0  0  0  0  0  0  0  0
  188.2380  177.2490  141.9930 C   0  0  0  0  0  3  0  0  0  0  0  0
  188.7890  176.8920  140.8050 N   0  0  0  0  0  0  0  0  0  0  0  0
  188.5220  177.9210  144.3520 N   0  0  0  0  0  0  0  0  0  0  0  0
  190.1400  176.8050  140.6430 C   0  0  0  0  0  0  0  0  0  0  0  0
  190.9800  177.1150  141.7360 C   0  0  0  0  0  0  0  0  0  0  0  0
  189.3510  178.2930  145.3540 O   0  0  0  0  0  1  0  0  0  0  0  0
  187.1020  177.7820  144.6490 C   0  0  0  0  0  2  0  0  0  0  0  0
  186.8610  177.6260  146.1390 C   0  0  0  0  0  2  0  0  0  0  0  0
  185.5370  178.2470  146.5490 C   0  0  0  0  0  2  0  0  0  0  0  0
  185.6830  179.6220  146.7470 O   0  0  0  0  0  1  0  0  0  0  0  0
  189.4210  176.4760  136.4380 C   0  0  0  0  0  2  0  0  0  0  0  0
  187.4480  178.2150  135.2570 O   0  0  0  0  0  0  0  0  0  0  0  0
  187.0630  177.3520  136.0920 C   0  0  0  0  0  0  0  0  0  0  0  0
  187.9810  176.4110  136.6500 N   0  0  0  0  0  2  0  0  0  0  0  0
  185.6340  177.3360  136.5210 C   0  0  0  0  0  2  0  0  0  0  0  0
  185.4120  178.0700  137.8150 C   0  0  0  0  0  0  0  0  0  0  0  0
  186.3170  178.6780  138.3660 O   0  0  0  0  0  0  0  0  0  0  0  0
  183.0820  178.0800  137.3630 O   0  0  0  0  0  1  0  0  0  0  0  0
  184.0310  178.0980  138.3940 C   0  0  2  0  0  3  0  0  0  0  0  0
  182.9650  179.0050  140.4540 C   0  0  0  0  0  2  0  0  0  0  0  0
  182.3650  179.7280  139.2560 C   0  0  0  0  0  2  0  0  0  0  0  0
  183.8390  179.3440  139.2510 C   0  0  0  0  0  3  0  0  0  0  0  0
  193.4960  174.2700  135.0980 C   0  0  0  0  0  2  0  0  0  0  0  0
  194.1280  172.9070  134.9290 C   0  0  0  0  0  2  0  0  0  0  0  0
  196.3800  171.6880  137.3310 C   0  0  2  0  0  3  0  0  0  0  0  0
  195.8400  171.6190  136.0200 O   0  0  0  0  0  0  0  0  0  0  0  0
  195.3570  171.8660  138.2660 O   0  0  0  0  0  1  0  0  0  0  0  0
  197.0970  173.9820  136.6440 C   0  0  2  0  0  3  0  0  0  0  0  0
  195.7230  173.9670  136.3730 O   0  0  0  0  0  0  0  0  0  0  0  0
  197.4570  172.7720  137.5020 C   0  0  2  0  0  3  0  0  0  0  0  0
  195.5440  172.9010  135.4690 C   0  0  2  0  0  3  0  0  0  0  0  0
  198.8160  172.2400  137.0790 C   0  0  0  0  0  2  0  0  0  0  0  0
  198.8610  170.8570  137.2450 O   0  0  0  0  0  1  0  0  0  0  0  0
  197.4840  175.2730  137.3450 C   0  0  0  0  0  2  0  0  0  0  0  0
  198.2880  175.2080  139.7410 C   0  0  0  0  0  0  0  0  0  0  0  0
  197.1060  175.7980  140.1940 O   0  0  0  0  0  0  0  0  0  0  0  0
  198.5110  175.0100  138.3470 N   0  0  0  0  0  2  0  0  0  0  0  0
  199.1800  174.8780  140.5630 O   0  0  0  0  0  1  0  0  0  0  0  0
  1  4  1  1  0  0  0
  1  5  1  0  0  0  0
  1  3  1  0  0  0  0
  3 25  1  0  0  0  0
  3  8  1  0  0  0  0
  5 37  1  6  0  0  0
  5  7  1  0  0  0  0
  6 10  2  0  0  0  0
  7  8  1  0  0  0  0
  7  2  1  6  0  0  0
  8  6  1  1  0  0  0
  9 10  1  0  0  0  0
 10 18  1  0  0  0  0
 11  2  1  0  0  0  0
 11  9  1  0  0  0  0
 12 19  1  0  0  0  0
 13 17  1  0  0  0  0
 14 13  1  0  0  0  0
 15 13  2  0  0  0  0
 16 15  1  0  0  0  0
 17 21  1  0  0  0  0
 17 20  1  0  0  0  0
 18 16  2  0  0  0  0
 18 19  1  0  0  0  0
 19 14  2  0  0  0  0
 21 22  1  0  0  0  0
 22 23  1  0  0  0  0
 23 24  1  0  0  0  0
 25 28  1  0  0  0  0
 26 27  2  0  0  0  0
 27 29  1  0  0  0  0
 27 28  1  0  0  0  0
 29 30  1  0  0  0  0
 30 31  2  0  0  0  0
 30 33  1  0  0  0  0
 33 32  1  6  0  0  0
 33 36  1  0  0  0  0
 35 34  1  0  0  0  0
 36 35  1  0  0  0  0
 36 34  1  0  0  0  0
 38 37  1  0  0  0  0
 39 44  1  0  0  0  0
 39 41  1  1  0  0  0
 40 39  1  0  0  0  0
 42 48  1  1  0  0  0
 42 44  1  0  0  0  0
 43 42  1  0  0  0  0
 44 46  1  6  0  0  0
 45 38  1  1  0  0  0
 45 40  1  0  0  0  0
 45 43  1  0  0  0  0
 46 47  1  0  0  0  0
 48 51  1  0  0  0  0
 49 50  2  0  0  0  0
 49 52  1  0  0  0  0
 51 49  1  0  0  0  0
M  END
>  <MODEL>
8

>  <REMARK>
 VINA RESULT:      -5.5      2.365      6.422
  Name = 
  16 active torsions:
  status: ('A' for Active; 'I' for Inactive)
    1  A    between atoms: C_1  and  C_24
    2  A    between atoms: C_1  and  C_47
    3  A    between atoms: C_10  and  C_17
    4  A    between atoms: N_12  and  C_32
    5  A    between atoms: C_13  and  C_24
    6  A    between atoms: C_13  and  C_42
    7  A    between atoms: C_15  and  C_43
    8  A    between atoms: C_17  and  C_29
    9  A    between atoms: C_21  and  C_48
   10  A    between atoms: C_22  and  C_49
   11  A    between atoms: C_29  and  N_36
   12  A    between atoms: C_32  and  N_51
   13  A    between atoms: C_34  and  C_44
   14  A    between atoms: C_34  and  C_49
   15  A    between atoms: C_37  and  C_39
   16  A    between atoms: N_38  and  C_48
                            x       y       z     vdW  Elec       q    Type
                         _______ _______ _______ _____ _____    ______ ____

>  <TORSDO>
F 16

$$$$
=
 OpenBabel10222420143D

 52 56  0  0  1  0  0  0  0  0999 V2000
  191.7130  175.0550  135.0530 C   0  0  1  0  0  3  0  0  0  0  0  0
  193.3550  175.2840  137.9580 C   0  0  0  0  0  2  0  0  0  0  0  0
  190.5550  175.1620  135.9740 N   0  0  0  0  0  0  0  0  0  0  0  0
  192.3140  176.4010  134.5940 C   0  0  0  0  0  1  0  0  0  0  0  0
  192.7470  174.1530  135.7360 C   0  0  2  0  0  3  0  0  0  0  0  0
  190.4250  175.1630  138.5390 C   0  0  0  0  0  3  0  0  0  0  0  0
  192.4790  174.2540  137.2290 C   0  0  2  0  0  3  0  0  0  0  0  0
  190.9900  174.5800  137.2620 C   0  0  2  0  0  3  0  0  0  0  0  0
  191.9010  177.2380  138.6840 C   0  0  0  0  0  2  0  0  0  0  0  0
  190.7930  176.2980  139.1480 C   0  0  0  0  0  0  0  0  0  0  0  0
  192.9200  176.7120  137.6680 C   0  0  0  0  0  2  0  0  0  0  0  0
  188.6200  178.3650  139.1640 C   0  0  0  0  0  1  0  0  0  0  0  0
  188.7760  177.3060  142.7320 C   0  0  0  0  0  0  0  0  0  0  0  0
  188.4440  177.9400  141.5740 N   0  0  0  0  0  0  0  0  0  0  0  0
  189.7660  176.3160  142.7100 C   0  0  0  0  0  3  0  0  0  0  0  0
  190.3850  176.0150  141.5400 N   0  0  0  0  0  0  0  0  0  0  0  0
  188.1010  177.6510  143.9520 N   0  0  0  0  0  0  0  0  0  0  0  0
  190.0710  176.6610  140.3810 C   0  0  0  0  0  0  0  0  0  0  0  0
  189.0630  177.6510  140.4010 C   0  0  0  0  0  0  0  0  0  0  0  0
  187.0830  178.5410  143.9250 O   0  0  0  0  0  1  0  0  0  0  0  0
  188.5700  177.1810  145.2490 C   0  0  0  0  0  2  0  0  0  0  0  0
  190.0310  177.5260  145.4690 C   0  0  0  0  0  2  0  0  0  0  0  0
  190.6790  176.5670  146.4530 C   0  0  0  0  0  2  0  0  0  0  0  0
  192.0370  176.8620  146.6010 O   0  0  0  0  0  1  0  0  0  0  0  0
  189.9900  176.5150  136.1050 C   0  0  0  0  0  2  0  0  0  0  0  0
  187.2790  176.1330  137.0090 O   0  0  0  0  0  0  0  0  0  0  0  0
  187.4760  176.3680  135.7850 C   0  0  0  0  0  0  0  0  0  0  0  0
  188.7880  176.6450  135.2930 N   0  0  0  0  0  2  0  0  0  0  0  0
  186.3220  176.3280  134.8390 C   0  0  0  0  0  2  0  0  0  0  0  0
  185.1390  175.5920  135.4040 C   0  0  0  0  0  0  0  0  0  0  0  0
  184.2470  176.1780  135.9980 O   0  0  0  0  0  0  0  0  0  0  0  0
  183.7460  173.7940  134.7270 O   0  0  0  0  0  1  0  0  0  0  0  0
  185.0360  174.1160  135.1680 C   0  0  2  0  0  3  0  0  0  0  0  0
  186.1660  172.1050  136.1090 C   0  0  0  0  0  2  0  0  0  0  0  0
  184.6750  171.9860  136.3960 C   0  0  0  0  0  2  0  0  0  0  0  0
  185.3520  173.3490  136.4480 C   0  0  0  0  0  3  0  0  0  0  0  0
  194.2030  174.3070  135.2980 C   0  0  0  0  0  2  0  0  0  0  0  0
  194.6790  173.0240  134.6550 C   0  0  0  0  0  2  0  0  0  0  0  0
  196.2300  171.0270  137.0910 C   0  0  2  0  0  3  0  0  0  0  0  0
  195.8200  171.2100  135.7450 O   0  0  0  0  0  0  0  0  0  0  0  0
  195.2230  171.4480  137.9630 O   0  0  0  0  0  1  0  0  0  0  0  0
  197.6580  173.0330  136.6630 C   0  0  2  0  0  3  0  0  0  0  0  0
  196.3740  173.4540  136.2960 O   0  0  0  0  0  0  0  0  0  0  0  0
  197.5600  171.7200  137.4330 C   0  0  2  0  0  3  0  0  0  0  0  0
  195.9710  172.5540  135.2900 C   0  0  2  0  0  3  0  0  0  0  0  0
  198.7320  170.8270  137.0610 C   0  0  0  0  0  2  0  0  0  0  0  0
  198.6650  169.6290  137.7680 O   0  0  0  0  0  1  0  0  0  0  0  0
  198.3450  174.0980  137.5020 C   0  0  0  0  0  2  0  0  0  0  0  0
  197.9770  175.2750  139.7100 C   0  0  0  0  0  0  0  0  0  0  0  0
  199.0300  176.1570  139.4580 O   0  0  0  0  0  0  0  0  0  0  0  0
  197.6780  174.2240  138.7940 N   0  0  0  0  0  2  0  0  0  0  0  0
  197.3060  175.3820  140.7670 O   0  0  0  0  0  1  0  0  0  0  0  0
  1  4  1  1  0  0  0
  1  5  1  0  0  0  0
  1  3  1  0  0  0  0
  3 25  1  0  0  0  0
  3  8  1  0  0  0  0
  5 37  1  1  0  0  0
  5  7  1  0  0  0  0
  6 10  2  0  0  0  0
  7  8  1  0  0  0  0
  7  2  1  6  0  0  0
  8  6  1  1  0  0  0
  9 10  1  0  0  0  0
 10 18  1  0  0  0  0
 11  2  1  0  0  0  0
 11  9  1  0  0  0  0
 12 19  1  0  0  0  0
 13 17  1  0  0  0  0
 14 13  2  0  0  0  0
 15 13  1  0  0  0  0
 16 15  2  0  0  0  0
 17 21  1  0  0  0  0
 18 19  2  0  0  0  0
 18 16  1  0  0  0  0
 19 14  1  0  0  0  0
 20 17  1  0  0  0  0
 21 22  1  0  0  0  0
 22 23  1  0  0  0  0
 23 24  1  0  0  0  0
 27 26  2  0  0  0  0
 28 27  1  0  0  0  0
 28 25  1  0  0  0  0
 29 30  1  0  0  0  0
 29 27  1  0  0  0  0
 30 31  2  0  0  0  0
 33 32  1  1  0  0  0
 33 30  1  0  0  0  0
 33 36  1  0  0  0  0
 34 35  1  0  0  0  0
 34 36  1  0  0  0  0
 35 36  1  0  0  0  0
 38 37  1  0  0  0  0
 39 44  1  0  0  0  0
 39 41  1  1  0  0  0
 40 39  1  0  0  0  0
 42 44  1  0  0  0  0
 42 48  1  1  0  0  0
 43 42  1  0  0  0  0
 44 46  1  6  0  0  0
 45 38  1  1  0  0  0
 45 40  1  0  0  0  0
 45 43  1  0  0  0  0
 46 47  1  0  0  0  0
 48 51  1  0  0  0  0
 49 52  1  0  0  0  0
 50 49  2  0  0  0  0
 51 49  1  0  0  0  0
M  END
>  <MODEL>
9

>  <REMARK>
 VINA RESULT:      -5.5      3.337      7.190
  Name = 
  16 active torsions:
  status: ('A' for Active; 'I' for Inactive)
    1  A    between atoms: C_1  and  C_24
    2  A    between atoms: C_1  and  C_47
    3  A    between atoms: C_10  and  C_17
    4  A    between atoms: N_12  and  C_32
    5  A    between atoms: C_13  and  C_24
    6  A    between atoms: C_13  and  C_42
    7  A    between atoms: C_15  and  C_43
    8  A    between atoms: C_17  and  C_29
    9  A    between atoms: C_21  and  C_48
   10  A    between atoms: C_22  and  C_49
   11  A    between atoms: C_29  and  N_36
   12  A    between atoms: C_32  and  N_51
   13  A    between atoms: C_34  and  C_44
   14  A    between atoms: C_34  and  C_49
   15  A    between atoms: C_37  and  C_39
   16  A    between atoms: N_38  and  C_48
                            x       y       z     vdW  Elec       q    Type
                         _______ _______ _______ _____ _____    ______ ____

>  <TORSDO>
F 16

$$$$
