=
 OpenBabel10222418063D

 25 28  0  0  1  0  0  0  0  0999 V2000
  189.6780  177.5770  144.2720 C   0  0  0  0  0  0  0  0  0  0  0  0
  189.8980  177.2200  142.9330 C   0  0  0  0  0  0  0  0  0  0  0  0
  187.3710  176.5640  143.9270 C   0  0  1  0  0  3  0  0  0  0  0  0
  192.0320  178.3610  142.9680 C   0  0  0  0  0  3  0  0  0  0  0  0
  188.8710  176.4840  142.2630 N   0  0  0  0  0  2  0  0  0  0  0  0
  187.9990  175.7200  142.9810 O   0  0  0  0  0  0  0  0  0  0  0  0
  190.6660  178.2870  144.9670 C   0  0  0  0  0  3  0  0  0  0  0  0
  191.8390  178.6780  144.3160 C   0  0  0  0  0  3  0  0  0  0  0  0
  188.3950  177.1390  144.9460 C   0  0  2  0  0  3  0  0  0  0  0  0
  191.0610  177.6380  142.2680 C   0  0  0  0  0  0  0  0  0  0  0  0
  186.5280  177.5760  143.2840 N   0  0  0  0  0  0  0  0  0  0  0  0
  185.8300  179.2120  141.9390 N   0  0  0  0  0  0  0  0  0  0  0  0
  186.8710  178.4380  142.3050 C   0  0  0  0  0  3  0  0  0  0  0  0
  185.2300  177.7790  143.5600 C   0  0  0  0  0  3  0  0  0  0  0  0
  184.8210  178.8010  142.7320 C   0  0  0  0  0  0  0  0  0  0  0  0
  183.4370  179.3410  142.6560 C   0  0  0  0  0  2  0  0  0  0  0  0
  182.6830  178.8510  143.7210 O   0  0  0  0  0  1  0  0  0  0  0  0
  188.9040  177.9630  148.2290 O   0  0  0  0  0  0  0  0  0  0  0  0
  187.7840  178.2370  145.8210 C   0  0  2  0  0  3  0  0  0  0  0  0
  188.1290  177.9680  147.2870 C   0  0  0  0  0  0  0  0  0  0  0  0
  186.7580  177.7110  146.6670 C   0  0  1  0  0  3  0  0  0  0  0  0
  185.8100  178.8140  147.0900 C   0  0  0  0  0  2  0  0  0  0  0  0
  184.5020  178.4530  146.7680 O   0  0  0  0  0  1  0  0  0  0  0  0
  191.4630  177.0620  139.7690 N   0  0  0  0  0  0  0  0  0  0  0  0
  191.2840  177.3200  140.8830 C   0  0  0  0  0  0  0  0  0  0  0  0
  1  7  1  0  0  0  0
  2  1  2  0  0  0  0
  3 11  1  6  0  0  0
  3  9  1  0  0  0  0
  4  8  1  0  0  0  0
  5  2  1  0  0  0  0
  5  6  1  0  0  0  0
  6  3  1  0  0  0  0
  8  7  2  0  0  0  0
  9  1  1  6  0  0  0
  9 19  1  0  0  0  0
 10  2  1  0  0  0  0
 10  4  2  0  0  0  0
 11 14  1  0  0  0  0
 12 13  2  0  0  0  0
 12 15  1  0  0  0  0
 13 11  1  0  0  0  0
 15 14  2  0  0  0  0
 16 15  1  0  0  0  0
 16 17  1  0  0  0  0
 19 21  1  0  0  0  0
 19 20  1  1  0  0  0
 20 18  2  0  0  0  0
 21 22  1  1  0  0  0
 21 20  1  0  0  0  0
 23 22  1  0  0  0  0
 24 25  3  0  0  0  0
 25 10  1  0  0  0  0
M  END
>  <MODEL>
1

>  <REMARK>
 VINA RESULT:      -7.4      0.000      0.000
  Name = 
  5 active torsions:
  status: ('A' for Active; 'I' for Inactive)
    1  A    between atoms: C_1  and  C_25
    2  A    between atoms: C_2  and  CA_23
    3  A    between atoms: C_5  and  N_10
    4  A    between atoms: C_13  and  C_17
    5  A    between atoms: C_19  and  C_24
                            x       y       z     vdW  Elec       q    Type
                         _______ _______ _______ _____ _____    ______ ____

>  <TORSDO>
F 5

$$$$
=
 OpenBabel10222418063D

 25 28  0  0  1  0  0  0  0  0999 V2000
  189.7060  177.7310  142.4370 C   0  0  0  0  0  0  0  0  0  0  0  0
  191.0170  177.7830  141.9420 C   0  0  0  0  0  0  0  0  0  0  0  0
  190.7510  178.4550  144.6400 C   0  0  1  0  0  3  0  0  0  0  0  0
  190.2710  176.8490  139.8370 C   0  0  0  0  0  3  0  0  0  0  0  0
  192.0420  178.2620  142.8170 N   0  0  0  0  0  2  0  0  0  0  0  0
  191.7250  179.1020  143.8440 O   0  0  0  0  0  0  0  0  0  0  0  0
  188.6720  177.2800  141.6060 C   0  0  0  0  0  3  0  0  0  0  0  0
  188.9560  176.8390  140.3090 C   0  0  0  0  0  3  0  0  0  0  0  0
  189.4350  178.2130  143.8470 C   0  0  2  0  0  3  0  0  0  0  0  0
  191.3090  177.3130  140.6520 C   0  0  0  0  0  0  0  0  0  0  0  0
  191.2870  177.2590  145.2970 N   0  0  0  0  0  0  0  0  0  0  0  0
  192.1250  175.2210  145.6370 N   0  0  0  0  0  0  0  0  0  0  0  0
  191.6520  176.0940  144.7250 C   0  0  0  0  0  3  0  0  0  0  0  0
  191.5350  177.1550  146.6120 C   0  0  0  0  0  3  0  0  0  0  0  0
  192.0380  175.8870  146.8050 C   0  0  0  0  0  0  0  0  0  0  0  0
  192.4970  175.3350  148.1070 C   0  0  0  0  0  2  0  0  0  0  0  0
  193.2260  176.3030  148.7960 O   0  0  0  0  0  1  0  0  0  0  0  0
  186.0150  178.1590  143.9690 O   0  0  0  0  0  0  0  0  0  0  0  0
  188.4640  177.3040  144.6040 C   0  0  2  0  0  3  0  0  0  0  0  0
  187.0580  177.9070  144.5490 C   0  0  0  0  0  0  0  0  0  0  0  0
  187.9630  177.9500  145.7790 C   0  0  1  0  0  3  0  0  0  0  0  0
  187.4850  176.9190  146.7800 C   0  0  0  0  0  2  0  0  0  0  0  0
  188.2780  176.9790  147.9250 O   0  0  0  0  0  1  0  0  0  0  0  0
  193.7370  177.3210  139.7320 N   0  0  0  0  0  0  0  0  0  0  0  0
  192.6550  177.3170  140.1420 C   0  0  0  0  0  0  0  0  0  0  0  0
  2  1  1  0  0  0  0
  2  5  1  0  0  0  0
  3 11  1  6  0  0  0
  4  8  2  0  0  0  0
  4 10  1  0  0  0  0
  5  6  1  0  0  0  0
  6  3  1  0  0  0  0
  7  1  2  0  0  0  0
  8  7  1  0  0  0  0
  9  1  1  6  0  0  0
  9 19  1  0  0  0  0
  9  3  1  0  0  0  0
 10  2  2  0  0  0  0
 11 14  1  0  0  0  0
 12 15  1  0  0  0  0
 13 11  1  0  0  0  0
 13 12  2  0  0  0  0
 14 15  2  0  0  0  0
 15 16  1  0  0  0  0
 16 17  1  0  0  0  0
 18 20  2  0  0  0  0
 19 20  1  6  0  0  0
 19 21  1  0  0  0  0
 20 21  1  0  0  0  0
 21 22  1  1  0  0  0
 22 23  1  0  0  0  0
 24 25  3  0  0  0  0
 25 10  1  0  0  0  0
M  END
>  <MODEL>
2

>  <REMARK>
 VINA RESULT:      -7.0      2.666      5.392
  Name = 
  5 active torsions:
  status: ('A' for Active; 'I' for Inactive)
    1  A    between atoms: C_1  and  C_25
    2  A    between atoms: C_2  and  CA_23
    3  A    between atoms: C_5  and  N_10
    4  A    between atoms: C_13  and  C_17
    5  A    between atoms: C_19  and  C_24
                            x       y       z     vdW  Elec       q    Type
                         _______ _______ _______ _____ _____    ______ ____

>  <TORSDO>
F 5

$$$$
=
 OpenBabel10222418063D

 25 28  0  0  1  0  0  0  0  0999 V2000
  187.5250  177.5720  145.5800 C   0  0  0  0  0  0  0  0  0  0  0  0
  188.8130  177.0160  145.6100 C   0  0  0  0  0  0  0  0  0  0  0  0
  187.4010  176.5880  143.2380 C   0  0  1  0  0  3  0  0  0  0  0  0
  189.2370  178.0870  147.7380 C   0  0  0  0  0  3  0  0  0  0  0  0
  189.2210  176.2210  144.4940 N   0  0  0  0  0  2  0  0  0  0  0  0
  188.2870  175.5960  143.7220 O   0  0  0  0  0  0  0  0  0  0  0  0
  187.0830  178.3460  146.6610 C   0  0  0  0  0  3  0  0  0  0  0  0
  187.9390  178.6040  147.7360 C   0  0  0  0  0  3  0  0  0  0  0  0
  186.6260  177.2750  144.3980 C   0  0  2  0  0  3  0  0  0  0  0  0
  189.6840  177.2980  146.6740 C   0  0  0  0  0  0  0  0  0  0  0  0
  188.0680  177.5190  142.3240 N   0  0  0  0  0  0  0  0  0  0  0  0
  189.3470  179.1660  141.5340 N   0  0  0  0  0  0  0  0  0  0  0  0
  188.9010  178.5320  142.6370 C   0  0  0  0  0  3  0  0  0  0  0  0
  187.9710  177.4790  140.9850 C   0  0  0  0  0  3  0  0  0  0  0  0
  188.7550  178.5100  140.5170 C   0  0  0  0  0  0  0  0  0  0  0  0
  188.9870  178.8280  139.0820 C   0  0  0  0  0  2  0  0  0  0  0  0
  187.8220  178.5900  138.3550 O   0  0  0  0  0  1  0  0  0  0  0  0
  183.8160  178.7930  145.6290 O   0  0  0  0  0  0  0  0  0  0  0  0
  185.8510  178.5070  143.9240 C   0  0  2  0  0  3  0  0  0  0  0  0
  184.5040  178.5670  144.6460 C   0  0  0  0  0  0  0  0  0  0  0  0
  184.6790  178.1290  143.1940 C   0  0  1  0  0  3  0  0  0  0  0  0
  184.2430  179.2570  142.2820 C   0  0  0  0  0  2  0  0  0  0  0  0
  185.3000  179.6140  141.4450 O   0  0  0  0  0  1  0  0  0  0  0  0
  192.1020  176.3530  146.7230 N   0  0  0  0  0  0  0  0  0  0  0  0
  191.0240  176.7740  146.7000 C   0  0  0  0  0  0  0  0  0  0  0  0
  1  2  2  0  0  0  0
  1  7  1  0  0  0  0
  2 10  1  0  0  0  0
  3 11  1  1  0  0  0
  3  6  1  0  0  0  0
  3  9  1  0  0  0  0
  5  2  1  0  0  0  0
  6  5  1  0  0  0  0
  7  8  2  0  0  0  0
  8  4  1  0  0  0  0
  9  1  1  1  0  0  0
 10 25  1  0  0  0  0
 10  4  2  0  0  0  0
 11 13  1  0  0  0  0
 12 13  2  0  0  0  0
 14 11  1  0  0  0  0
 15 14  2  0  0  0  0
 15 12  1  0  0  0  0
 16 15  1  0  0  0  0
 17 16  1  0  0  0  0
 19  9  1  0  0  0  0
 19 20  1  1  0  0  0
 20 18  2  0  0  0  0
 21 22  1  6  0  0  0
 21 19  1  0  0  0  0
 21 20  1  0  0  0  0
 23 22  1  0  0  0  0
 25 24  3  0  0  0  0
M  END
>  <MODEL>
3

>  <REMARK>
 VINA RESULT:      -6.7      2.307      4.429
  Name = 
  5 active torsions:
  status: ('A' for Active; 'I' for Inactive)
    1  A    between atoms: C_1  and  C_25
    2  A    between atoms: C_2  and  CA_23
    3  A    between atoms: C_5  and  N_10
    4  A    between atoms: C_13  and  C_17
    5  A    between atoms: C_19  and  C_24
                            x       y       z     vdW  Elec       q    Type
                         _______ _______ _______ _____ _____    ______ ____

>  <TORSDO>
F 5

$$$$
=
 OpenBabel10222418063D

 25 28  0  0  1  0  0  0  0  0999 V2000
  189.5780  177.6410  139.9270 C   0  0  0  0  0  0  0  0  0  0  0  0
  188.3170  178.2540  139.9740 C   0  0  0  0  0  0  0  0  0  0  0  0
  189.3780  177.9390  137.4100 C   0  0  1  0  0  3  0  0  0  0  0  0
  188.1880  177.8320  142.3540 C   0  0  0  0  0  3  0  0  0  0  0  0
  187.7640  178.7350  138.7460 N   0  0  0  0  0  2  0  0  0  0  0  0
  188.5880  179.0720  137.7130 O   0  0  0  0  0  0  0  0  0  0  0  0
  190.1600  177.1690  141.1120 C   0  0  0  0  0  3  0  0  0  0  0  0
  189.4650  177.2630  142.3210 C   0  0  0  0  0  3  0  0  0  0  0  0
  190.3020  177.5530  138.6000 C   0  0  2  0  0  3  0  0  0  0  0  0
  187.6050  178.3230  141.1820 C   0  0  0  0  0  0  0  0  0  0  0  0
  188.5720  176.8300  136.8890 N   0  0  0  0  0  0  0  0  0  0  0  0
  187.5780  175.4030  135.4950 N   0  0  0  0  0  0  0  0  0  0  0  0
  188.3530  176.5000  135.6000 C   0  0  0  0  0  3  0  0  0  0  0  0
  187.9350  175.9250  137.6490 C   0  0  0  0  0  3  0  0  0  0  0  0
  187.3160  175.0620  136.7720 C   0  0  0  0  0  0  0  0  0  0  0  0
  186.5230  173.8660  137.1620 C   0  0  0  0  0  2  0  0  0  0  0  0
  187.3430  172.7390  137.1640 O   0  0  0  0  0  1  0  0  0  0  0  0
  193.5820  176.6050  138.8350 O   0  0  0  0  0  0  0  0  0  0  0  0
  190.9810  176.1980  138.3880 C   0  0  2  0  0  3  0  0  0  0  0  0
  192.4970  176.3950  138.3180 C   0  0  0  0  0  0  0  0  0  0  0  0
  191.6090  176.1310  137.1040 C   0  0  1  0  0  3  0  0  0  0  0  0
  191.7750  174.6880  136.6760 C   0  0  0  0  0  2  0  0  0  0  0  0
  190.8730  173.8880  137.3760 O   0  0  0  0  0  1  0  0  0  0  0  0
  185.2350  179.3770  141.2900 N   0  0  0  0  0  0  0  0  0  0  0  0
  186.2910  178.9070  141.2410 C   0  0  0  0  0  0  0  0  0  0  0  0
  1  2  2  0  0  0  0
  1  7  1  0  0  0  0
  2 10  1  0  0  0  0
  3 11  1  1  0  0  0
  3  6  1  0  0  0  0
  3  9  1  0  0  0  0
  5  2  1  0  0  0  0
  6  5  1  0  0  0  0
  7  8  2  0  0  0  0
  8  4  1  0  0  0  0
  9  1  1  1  0  0  0
 10 25  1  0  0  0  0
 10  4  2  0  0  0  0
 11 14  1  0  0  0  0
 12 13  2  0  0  0  0
 12 15  1  0  0  0  0
 13 11  1  0  0  0  0
 15 16  1  0  0  0  0
 15 14  2  0  0  0  0
 16 17  1  0  0  0  0
 19 20  1  1  0  0  0
 19  9  1  0  0  0  0
 20 18  2  0  0  0  0
 21 22  1  1  0  0  0
 21 20  1  0  0  0  0
 21 19  1  0  0  0  0
 22 23  1  0  0  0  0
 25 24  3  0  0  0  0
M  END
>  <MODEL>
4

>  <REMARK>
 VINA RESULT:      -6.6      4.589      7.624
  Name = 
  5 active torsions:
  status: ('A' for Active; 'I' for Inactive)
    1  A    between atoms: C_1  and  C_25
    2  A    between atoms: C_2  and  CA_23
    3  A    between atoms: C_5  and  N_10
    4  A    between atoms: C_13  and  C_17
    5  A    between atoms: C_19  and  C_24
                            x       y       z     vdW  Elec       q    Type
                         _______ _______ _______ _____ _____    ______ ____

>  <TORSDO>
F 5

$$$$
=
 OpenBabel10222418063D

 25 28  0  0  1  0  0  0  0  0999 V2000
  183.8130  178.2980  141.1190 C   0  0  0  0  0  0  0  0  0  0  0  0
  184.5030  178.2090  139.9010 C   0  0  0  0  0  0  0  0  0  0  0  0
  185.9520  179.3630  141.9930 C   0  0  1  0  0  3  0  0  0  0  0  0
  182.6740  176.9440  138.9460 C   0  0  0  0  0  3  0  0  0  0  0  0
  185.8060  178.7950  139.8290 N   0  0  0  0  0  2  0  0  0  0  0  0
  186.1420  179.8170  140.6660 O   0  0  0  0  0  0  0  0  0  0  0  0
  182.5290  177.7480  141.2270 C   0  0  0  0  0  3  0  0  0  0  0  0
  181.9620  177.0710  140.1420 C   0  0  0  0  0  3  0  0  0  0  0  0
  184.4580  179.0360  142.2750 C   0  0  2  0  0  3  0  0  0  0  0  0
  183.9490  177.5040  138.8210 C   0  0  0  0  0  0  0  0  0  0  0  0
  186.8810  178.2830  142.3410 N   0  0  0  0  0  0  0  0  0  0  0  0
  187.7520  176.4490  143.2620 N   0  0  0  0  0  0  0  0  0  0  0  0
  186.6860  177.2740  143.2140 C   0  0  0  0  0  3  0  0  0  0  0  0
  188.0950  178.1130  141.7950 C   0  0  0  0  0  3  0  0  0  0  0  0
  188.6230  176.9860  142.3860 C   0  0  0  0  0  0  0  0  0  0  0  0
  189.9440  176.3860  142.0600 C   0  0  0  0  0  2  0  0  0  0  0  0
  190.3130  175.4930  143.0660 O   0  0  0  0  0  1  0  0  0  0  0  0
  181.7490  178.8050  144.3540 O   0  0  0  0  0  0  0  0  0  0  0  0
  184.2670  178.3170  143.6120 C   0  0  2  0  0  3  0  0  0  0  0  0
  182.9650  178.7910  144.2620 C   0  0  0  0  0  0  0  0  0  0  0  0
  184.3570  179.2330  144.7080 C   0  0  1  0  0  3  0  0  0  0  0  0
  184.7260  178.4970  145.9790 C   0  0  0  0  0  2  0  0  0  0  0  0
  185.4210  179.3550  146.8300 O   0  0  0  0  0  1  0  0  0  0  0  0
  185.2330  177.2500  136.5790 N   0  0  0  0  0  0  0  0  0  0  0  0
  184.6610  177.3630  137.5790 C   0  0  0  0  0  0  0  0  0  0  0  0
  1  7  1  0  0  0  0
  2  1  2  0  0  0  0
  3  9  1  0  0  0  0
  3 11  1  6  0  0  0
  4  8  1  0  0  0  0
  5  2  1  0  0  0  0
  5  6  1  0  0  0  0
  6  3  1  0  0  0  0
  8  7  2  0  0  0  0
  9  1  1  6  0  0  0
  9 19  1  0  0  0  0
 10  4  2  0  0  0  0
 10  2  1  0  0  0  0
 11 13  1  0  0  0  0
 13 12  2  0  0  0  0
 14 11  1  0  0  0  0
 14 15  2  0  0  0  0
 15 12  1  0  0  0  0
 16 15  1  0  0  0  0
 16 17  1  0  0  0  0
 19 20  1  6  0  0  0
 19 21  1  0  0  0  0
 20 18  2  0  0  0  0
 20 21  1  0  0  0  0
 21 22  1  1  0  0  0
 22 23  1  0  0  0  0
 24 25  3  0  0  0  0
 25 10  1  0  0  0  0
M  END
>  <MODEL>
5

>  <REMARK>
 VINA RESULT:      -6.0      2.751      6.147
  Name = 
  5 active torsions:
  status: ('A' for Active; 'I' for Inactive)
    1  A    between atoms: C_1  and  C_25
    2  A    between atoms: C_2  and  CA_23
    3  A    between atoms: C_5  and  N_10
    4  A    between atoms: C_13  and  C_17
    5  A    between atoms: C_19  and  C_24
                            x       y       z     vdW  Elec       q    Type
                         _______ _______ _______ _____ _____    ______ ____

>  <TORSDO>
F 5

$$$$
=
 OpenBabel10222418063D

 25 28  0  0  1  0  0  0  0  0999 V2000
  188.1960  178.1230  139.8220 C   0  0  0  0  0  0  0  0  0  0  0  0
  186.9140  178.5370  139.4320 C   0  0  0  0  0  0  0  0  0  0  0  0
  188.6730  178.0070  137.3270 C   0  0  1  0  0  3  0  0  0  0  0  0
  186.1750  178.4600  141.7350 C   0  0  0  0  0  3  0  0  0  0  0  0
  186.6760  178.7390  138.0360 N   0  0  0  0  0  2  0  0  0  0  0  0
  187.7130  179.0390  137.2030 O   0  0  0  0  0  0  0  0  0  0  0  0
  188.4730  177.9270  141.1820 C   0  0  0  0  0  3  0  0  0  0  0  0
  187.4630  178.0930  142.1350 C   0  0  0  0  0  3  0  0  0  0  0  0
  189.2650  177.9480  138.7640 C   0  0  2  0  0  3  0  0  0  0  0  0
  185.8910  178.6750  140.3830 C   0  0  0  0  0  0  0  0  0  0  0  0
  188.1650  176.7240  136.8320 N   0  0  0  0  0  0  0  0  0  0  0  0
  187.7670  174.9630  135.5240 N   0  0  0  0  0  0  0  0  0  0  0  0
  188.3690  176.1650  135.6220 C   0  0  0  0  0  3  0  0  0  0  0  0
  187.4220  175.8670  137.5500 C   0  0  0  0  0  3  0  0  0  0  0  0
  187.1740  174.7940  136.7220 C   0  0  0  0  0  0  0  0  0  0  0  0
  186.4180  173.5710  137.1060 C   0  0  0  0  0  2  0  0  0  0  0  0
  185.0950  173.6870  136.6830 O   0  0  0  0  0  1  0  0  0  0  0  0
  192.2070  177.4830  140.4490 O   0  0  0  0  0  0  0  0  0  0  0  0
  190.1160  176.6960  138.9860 C   0  0  2  0  0  3  0  0  0  0  0  0
  191.4820  177.1040  139.5450 C   0  0  0  0  0  0  0  0  0  0  0  0
  191.2400  176.6720  138.1000 C   0  0  1  0  0  3  0  0  0  0  0  0
  191.7340  175.2520  137.9200 C   0  0  0  0  0  2  0  0  0  0  0  0
  190.6480  174.3780  137.9100 O   0  0  0  0  0  1  0  0  0  0  0  0
  183.4870  179.3590  139.6830 N   0  0  0  0  0  0  0  0  0  0  0  0
  184.5580  179.0550  139.9960 C   0  0  0  0  0  0  0  0  0  0  0  0
  1  7  1  0  0  0  0
  2  1  2  0  0  0  0
  2 10  1  0  0  0  0
  3 11  1  1  0  0  0
  3  9  1  0  0  0  0
  4  8  1  0  0  0  0
  5  2  1  0  0  0  0
  6  3  1  0  0  0  0
  6  5  1  0  0  0  0
  7  8  2  0  0  0  0
  9 19  1  0  0  0  0
  9  1  1  1  0  0  0
 10  4  2  0  0  0  0
 11 14  1  0  0  0  0
 12 13  2  0  0  0  0
 12 15  1  0  0  0  0
 13 11  1  0  0  0  0
 15 16  1  0  0  0  0
 15 14  2  0  0  0  0
 17 16  1  0  0  0  0
 19 20  1  1  0  0  0
 20 18  2  0  0  0  0
 21 22  1  1  0  0  0
 21 19  1  0  0  0  0
 21 20  1  0  0  0  0
 23 22  1  0  0  0  0
 24 25  3  0  0  0  0
 25 10  1  0  0  0  0
M  END
>  <MODEL>
6

>  <REMARK>
 VINA RESULT:      -6.0      4.693      7.504
  Name = 
  5 active torsions:
  status: ('A' for Active; 'I' for Inactive)
    1  A    between atoms: C_1  and  C_25
    2  A    between atoms: C_2  and  CA_23
    3  A    between atoms: C_5  and  N_10
    4  A    between atoms: C_13  and  C_17
    5  A    between atoms: C_19  and  C_24
                            x       y       z     vdW  Elec       q    Type
                         _______ _______ _______ _____ _____    ______ ____

>  <TORSDO>
F 5

$$$$
=
 OpenBabel10222418063D

 25 28  0  0  1  0  0  0  0  0999 V2000
  189.7140  177.4170  140.9800 C   0  0  0  0  0  0  0  0  0  0  0  0
  191.0430  177.3580  140.5370 C   0  0  0  0  0  0  0  0  0  0  0  0
  190.7160  178.2320  143.1700 C   0  0  1  0  0  3  0  0  0  0  0  0
  190.3220  176.3250  138.4720 C   0  0  0  0  0  3  0  0  0  0  0  0
  192.0610  177.8370  141.4210 N   0  0  0  0  0  2  0  0  0  0  0  0
  191.7580  178.7640  142.3730 O   0  0  0  0  0  0  0  0  0  0  0  0
  188.6860  176.9710  140.1380 C   0  0  0  0  0  3  0  0  0  0  0  0
  188.9910  176.4240  138.8870 C   0  0  0  0  0  3  0  0  0  0  0  0
  189.4190  178.0120  142.3410 C   0  0  2  0  0  3  0  0  0  0  0  0
  191.3540  176.7830  139.2950 C   0  0  0  0  0  0  0  0  0  0  0  0
  191.1530  177.0560  143.9290 N   0  0  0  0  0  0  0  0  0  0  0  0
  191.7720  174.9790  144.4510 N   0  0  0  0  0  0  0  0  0  0  0  0
  191.3430  175.8010  143.4730 C   0  0  0  0  0  3  0  0  0  0  0  0
  191.4730  177.0620  145.2330 C   0  0  0  0  0  3  0  0  0  0  0  0
  191.8380  175.7700  145.5400 C   0  0  0  0  0  0  0  0  0  0  0  0
  192.3150  175.3060  146.8700 C   0  0  0  0  0  2  0  0  0  0  0  0
  191.9270  176.2180  147.8510 O   0  0  0  0  0  1  0  0  0  0  0  0
  186.0050  178.2490  142.4150 O   0  0  0  0  0  0  0  0  0  0  0  0
  188.3660  177.2170  143.1170 C   0  0  2  0  0  3  0  0  0  0  0  0
  187.0170  177.9320  143.0190 C   0  0  0  0  0  0  0  0  0  0  0  0
  187.9080  177.9470  144.2590 C   0  0  1  0  0  3  0  0  0  0  0  0
  187.3330  176.9980  145.2910 C   0  0  0  0  0  2  0  0  0  0  0  0
  187.5240  177.5260  146.5670 O   0  0  0  0  0  1  0  0  0  0  0  0
  193.8110  176.5830  138.4820 N   0  0  0  0  0  0  0  0  0  0  0  0
  192.7160  176.6720  138.8440 C   0  0  0  0  0  0  0  0  0  0  0  0
  2  1  1  0  0  0  0
  2  5  1  0  0  0  0
  3 11  1  6  0  0  0
  4  8  2  0  0  0  0
  4 10  1  0  0  0  0
  5  6  1  0  0  0  0
  6  3  1  0  0  0  0
  7  1  2  0  0  0  0
  8  7  1  0  0  0  0
  9  1  1  6  0  0  0
  9 19  1  0  0  0  0
  9  3  1  0  0  0  0
 10  2  2  0  0  0  0
 11 14  1  0  0  0  0
 12 15  1  0  0  0  0
 13 11  1  0  0  0  0
 13 12  2  0  0  0  0
 14 15  2  0  0  0  0
 15 16  1  0  0  0  0
 16 17  1  0  0  0  0
 18 20  2  0  0  0  0
 19 20  1  6  0  0  0
 19 21  1  0  0  0  0
 20 21  1  0  0  0  0
 21 22  1  1  0  0  0
 22 23  1  0  0  0  0
 24 25  3  0  0  0  0
 25 10  1  0  0  0  0
M  END
>  <MODEL>
7

>  <REMARK>
 VINA RESULT:      -5.7      2.602      5.431
  Name = 
  5 active torsions:
  status: ('A' for Active; 'I' for Inactive)
    1  A    between atoms: C_1  and  C_25
    2  A    between atoms: C_2  and  CA_23
    3  A    between atoms: C_5  and  N_10
    4  A    between atoms: C_13  and  C_17
    5  A    between atoms: C_19  and  C_24
                            x       y       z     vdW  Elec       q    Type
                         _______ _______ _______ _____ _____    ______ ____

>  <TORSDO>
F 5

$$$$
=
 OpenBabel10222418063D

 25 28  0  0  1  0  0  0  0  0999 V2000
  190.3530  176.4980  138.5630 C   0  0  0  0  0  0  0  0  0  0  0  0
  191.6630  175.9980  138.5890 C   0  0  0  0  0  0  0  0  0  0  0  0
  191.0960  177.9150  140.5400 C   0  0  1  0  0  3  0  0  0  0  0  0
  191.0910  174.3800  136.8830 C   0  0  0  0  0  3  0  0  0  0  0  0
  192.5800  176.5800  139.5200 N   0  0  0  0  0  2  0  0  0  0  0  0
  192.3860  177.8560  139.9620 O   0  0  0  0  0  0  0  0  0  0  0  0
  189.4280  175.9630  137.6560 C   0  0  0  0  0  3  0  0  0  0  0  0
  189.7980  174.9050  136.8190 C   0  0  0  0  0  3  0  0  0  0  0  0
  189.9860  177.6420  139.4860 C   0  0  2  0  0  3  0  0  0  0  0  0
  192.0280  174.9170  137.7720 C   0  0  0  0  0  0  0  0  0  0  0  0
  190.9970  177.0890  141.7470 N   0  0  0  0  0  0  0  0  0  0  0  0
  190.4290  175.4650  143.1650 N   0  0  0  0  0  0  0  0  0  0  0  0
  190.2540  175.9790  141.9310 C   0  0  0  0  0  3  0  0  0  0  0  0
  191.6840  177.3040  142.8800 C   0  0  0  0  0  3  0  0  0  0  0  0
  191.3100  176.3020  143.7470 C   0  0  0  0  0  0  0  0  0  0  0  0
  191.8500  176.1090  145.1200 C   0  0  0  0  0  2  0  0  0  0  0  0
  191.7900  177.3120  145.8200 O   0  0  0  0  0  1  0  0  0  0  0  0
  186.8550  178.5330  138.4260 O   0  0  0  0  0  0  0  0  0  0  0  0
  188.6100  177.4610  140.1310 C   0  0  2  0  0  3  0  0  0  0  0  0
  187.5820  178.3120  139.3810 C   0  0  0  0  0  0  0  0  0  0  0  0
  188.1640  178.6740  140.7450 C   0  0  1  0  0  3  0  0  0  0  0  0
  187.1370  178.3720  141.8170 C   0  0  0  0  0  2  0  0  0  0  0  0
  186.0330  179.2090  141.6520 O   0  0  0  0  0  1  0  0  0  0  0  0
  194.4210  173.9140  137.8510 N   0  0  0  0  0  0  0  0  0  0  0  0
  193.3540  174.3620  137.8160 C   0  0  0  0  0  0  0  0  0  0  0  0
  1  2  1  0  0  0  0
  2  5  1  0  0  0  0
  3 11  1  1  0  0  0
  4 10  1  0  0  0  0
  5  6  1  0  0  0  0
  6  3  1  0  0  0  0
  7  1  2  0  0  0  0
  8  4  2  0  0  0  0
  8  7  1  0  0  0  0
  9  1  1  1  0  0  0
  9 19  1  0  0  0  0
  9  3  1  0  0  0  0
 10 25  1  0  0  0  0
 10  2  2  0  0  0  0
 11 13  1  0  0  0  0
 11 14  1  0  0  0  0
 12 15  1  0  0  0  0
 13 12  2  0  0  0  0
 14 15  2  0  0  0  0
 15 16  1  0  0  0  0
 16 17  1  0  0  0  0
 18 20  2  0  0  0  0
 19 20  1  6  0  0  0
 19 21  1  0  0  0  0
 20 21  1  0  0  0  0
 21 22  1  1  0  0  0
 23 22  1  0  0  0  0
 25 24  3  0  0  0  0
M  END
>  <MODEL>
8

>  <REMARK>
 VINA RESULT:      -5.7      3.425      6.553
  Name = 
  5 active torsions:
  status: ('A' for Active; 'I' for Inactive)
    1  A    between atoms: C_1  and  C_25
    2  A    between atoms: C_2  and  CA_23
    3  A    between atoms: C_5  and  N_10
    4  A    between atoms: C_13  and  C_17
    5  A    between atoms: C_19  and  C_24
                            x       y       z     vdW  Elec       q    Type
                         _______ _______ _______ _____ _____    ______ ____

>  <TORSDO>
F 5

$$$$
=
 OpenBabel10222418063D

 25 28  0  0  1  0  0  0  0  0999 V2000
  182.4960  178.5860  141.2550 C   0  0  0  0  0  0  0  0  0  0  0  0
  181.2600  178.6370  141.9160 C   0  0  0  0  0  0  0  0  0  0  0  0
  181.1020  178.2790  139.1500 C   0  0  1  0  0  3  0  0  0  0  0  0
  182.3930  178.6730  144.0540 C   0  0  0  0  0  3  0  0  0  0  0  0
  180.0750  178.6050  141.1160 N   0  0  0  0  0  2  0  0  0  0  0  0
  180.1130  179.0350  139.8230 O   0  0  0  0  0  0  0  0  0  0  0  0
  183.6800  178.6290  142.0030 C   0  0  0  0  0  3  0  0  0  0  0  0
  183.6280  178.6710  143.4000 C   0  0  0  0  0  3  0  0  0  0  0  0
  182.5170  178.5380  139.7410 C   0  0  2  0  0  3  0  0  0  0  0  0
  181.2040  178.6490  143.3190 C   0  0  0  0  0  0  0  0  0  0  0  0
  180.7390  176.8620  139.0550 N   0  0  0  0  0  0  0  0  0  0  0  0
  180.3770  174.7260  139.5800 N   0  0  0  0  0  0  0  0  0  0  0  0
  180.8230  175.9200  140.0160 C   0  0  0  0  0  3  0  0  0  0  0  0
  180.2150  176.2780  137.9660 C   0  0  0  0  0  3  0  0  0  0  0  0
  180.0120  174.9580  138.3030 C   0  0  0  0  0  0  0  0  0  0  0  0
  179.4060  173.9290  137.4170 C   0  0  0  0  0  2  0  0  0  0  0  0
  179.9340  172.6770  137.7230 O   0  0  0  0  0  1  0  0  0  0  0  0
  185.7470  179.0070  138.7110 O   0  0  0  0  0  0  0  0  0  0  0  0
  183.5580  177.5570  139.1970 C   0  0  2  0  0  3  0  0  0  0  0  0
  184.7310  178.3390  138.6030 C   0  0  0  0  0  0  0  0  0  0  0  0
  183.6540  177.6450  137.7720 C   0  0  1  0  0  3  0  0  0  0  0  0
  184.2210  176.3600  137.2050 C   0  0  0  0  0  2  0  0  0  0  0  0
  183.6760  175.2710  137.8840 O   0  0  0  0  0  1  0  0  0  0  0  0
  178.9330  178.6600  144.5760 N   0  0  0  0  0  0  0  0  0  0  0  0
  179.9450  178.6560  144.0150 C   0  0  0  0  0  0  0  0  0  0  0  0
  1  2  2  0  0  0  0
  1  7  1  0  0  0  0
  2 10  1  0  0  0  0
  3 11  1  1  0  0  0
  3  9  1  0  0  0  0
  3  6  1  0  0  0  0
  5  2  1  0  0  0  0
  6  5  1  0  0  0  0
  7  8  2  0  0  0  0
  8  4  1  0  0  0  0
  9  1  1  1  0  0  0
 10 25  1  0  0  0  0
 10  4  2  0  0  0  0
 11 13  1  0  0  0  0
 12 13  2  0  0  0  0
 14 15  2  0  0  0  0
 14 11  1  0  0  0  0
 15 12  1  0  0  0  0
 16 17  1  0  0  0  0
 16 15  1  0  0  0  0
 19 20  1  1  0  0  0
 19  9  1  0  0  0  0
 20 18  2  0  0  0  0
 21 22  1  6  0  0  0
 21 20  1  0  0  0  0
 21 19  1  0  0  0  0
 22 23  1  0  0  0  0
 25 24  3  0  0  0  0
M  END
>  <MODEL>
9

>  <REMARK>
 VINA RESULT:      -5.6      6.432      9.030
  Name = 
  5 active torsions:
  status: ('A' for Active; 'I' for Inactive)
    1  A    between atoms: C_1  and  C_25
    2  A    between atoms: C_2  and  CA_23
    3  A    between atoms: C_5  and  N_10
    4  A    between atoms: C_13  and  C_17
    5  A    between atoms: C_19  and  C_24
                            x       y       z     vdW  Elec       q    Type
                         _______ _______ _______ _____ _____    ______ ____

>  <TORSDO>
F 5

$$$$
