=
 OpenBabel10222418573D

 43 46  0  0  1  0  0  0  0  0999 V2000
  188.8950  176.4430  137.0730 F   0  0  0  0  0  0  0  0  0  0  0  0
  188.2840  177.4870  137.7480 C   0  0  0  0  0  0  0  0  0  0  0  0
  185.0960  177.0550  138.3700 C   0  0  0  0  0  2  0  0  0  0  0  0
  186.6160  177.7090  144.3350 N   0  0  0  0  0  0  0  0  0  0  0  0
  189.3660  177.9120  140.7230 C   0  0  2  0  0  3  0  0  0  0  0  0
  188.5330  177.8520  141.9190 N   0  0  0  0  0  0  0  0  0  0  0  0
  185.8040  177.0800  137.0000 C   0  0  1  0  0  3  0  0  0  0  0  0
  187.3020  178.2580  141.9460 C   0  0  0  0  0  0  0  0  0  0  0  0
  187.8830  177.0690  139.0370 O   0  0  0  0  0  0  0  0  0  0  0  0
  185.5530  177.7020  145.1930 C   0  0  0  0  0  3  0  0  0  0  0  0
  184.3620  179.4200  138.9600 C   0  0  2  0  0  3  0  0  0  0  0  0
  187.0650  177.9640  136.9400 C   0  0  1  0  0  3  0  0  0  0  0  0
  184.3270  178.1640  144.7850 N   0  0  0  0  0  0  0  0  0  0  0  0
  186.7520  179.2930  137.2360 O   0  0  0  0  0  1  0  0  0  0  0  0
  183.9110  178.0220  138.4830 C   0  0  1  0  0  3  0  0  0  0  0  0
  184.1300  178.6450  143.5220 C   0  0  0  0  0  3  0  0  0  0  0  0
  185.2230  178.6810  142.6700 C   0  0  0  0  0  0  0  0  0  0  0  0
  189.0330  176.7570  139.7810 C   0  0  0  0  0  2  0  0  0  0  0  0
  186.5740  178.7650  140.8170 N   0  0  0  0  0  0  0  0  0  0  0  0
  185.3680  179.0020  141.2520 C   0  0  0  0  0  0  0  0  0  0  0  0
  184.3010  179.4560  140.4160 N   0  0  0  0  0  2  0  0  0  0  0  0
  189.1870  178.5430  137.8280 F   0  0  0  0  0  0  0  0  0  0  0  0
  186.4300  178.2250  143.0980 C   0  0  0  0  0  0  0  0  0  0  0  0
  186.0590  175.6970  136.4620 C   0  0  0  0  0  0  0  0  0  0  0  0
  186.3260  175.5040  135.0110 C   0  0  0  0  0  1  0  0  0  0  0  0
  186.0710  174.7250  137.2020 O   0  0  0  0  0  0  0  0  0  0  0  0
  183.5300  180.5690  138.4000 C   0  0  0  0  0  2  0  0  0  0  0  0
  182.2950  180.6240  139.0480 O   0  0  0  0  0  1  0  0  0  0  0  0
  181.7340  177.5400  137.4090 C   0  0  0  0  0  3  0  0  0  0  0  0
  182.9950  177.9560  137.2850 C   0  0  0  0  0  3  0  0  0  0  0  0
  180.8360  177.4760  136.2210 C   0  0  0  0  0  2  0  0  0  0  0  0
  181.0860  178.6830  135.3390 C   0  0  0  0  0  1  0  0  0  0  0  0
  191.5440  177.0930  140.2120 F   0  0  0  0  0  0  0  0  0  0  0  0
  190.8450  177.8920  141.1030 C   0  0  2  0  0  3  0  0  0  0  0  0
  190.9970  177.3360  142.4430 N   0  0  0  0  0  2  0  0  0  0  0  0
  191.0880  178.1480  143.6180 C   0  0  0  0  0  0  0  0  0  0  0  0
  191.3230  179.3840  143.5160 O   0  0  0  0  0  0  0  0  0  0  0  0
  189.7450  177.8410  145.6950 C   0  0  0  0  0  3  0  0  0  0  0  0
  191.8630  176.6860  145.4900 C   0  0  0  0  0  3  0  0  0  0  0  0
  190.5360  176.4400  147.5010 C   0  0  0  0  0  3  0  0  0  0  0  0
  189.5650  177.2900  146.9660 C   0  0  0  0  0  3  0  0  0  0  0  0
  191.6850  176.1390  146.7650 C   0  0  0  0  0  3  0  0  0  0  0  0
  190.8910  177.5410  144.9450 C   0  0  0  0  0  0  0  0  0  0  0  0
  1  2  1  0  0  0  0
  2 22  1  0  0  0  0
  2  9  1  0  0  0  0
  3 15  1  0  0  0  0
  4 10  1  0  0  0  0
  5 34  1  1  0  0  0
  5  6  1  0  0  0  0
  6  8  2  0  0  0  0
  7 24  1  1  0  0  0
  7  3  1  0  0  0  0
  8 23  1  0  0  0  0
  9 18  1  0  0  0  0
 11 27  1  6  0  0  0
 11 21  1  0  0  0  0
 12  7  1  0  0  0  0
 12 14  1  1  0  0  0
 12  2  1  0  0  0  0
 13 10  2  0  0  0  0
 15 30  1  6  0  0  0
 15 11  1  0  0  0  0
 16 13  1  0  0  0  0
 17 23  1  0  0  0  0
 17 16  2  0  0  0  0
 18  5  1  0  0  0  0
 19 20  2  0  0  0  0
 19  8  1  0  0  0  0
 20 17  1  0  0  0  0
 21 20  1  0  0  0  0
 23  4  2  0  0  0  0
 24 26  2  0  0  0  0
 25 24  1  0  0  0  0
 27 28  1  0  0  0  0
 30 29  2  0  0  0  0
 31 29  1  0  0  0  0
 32 31  1  0  0  0  0
 34 33  1  6  0  0  0
 34 35  1  0  0  0  0
 35 36  1  0  0  0  0
 36 43  1  0  0  0  0
 37 36  2  0  0  0  0
 38 41  1  0  0  0  0
 39 42  2  0  0  0  0
 41 40  2  0  0  0  0
 42 40  1  0  0  0  0
 43 39  1  0  0  0  0
 43 38  2  0  0  0  0
M  END
>  <MODEL>
1

>  <REMARK>
 VINA RESULT:      -8.2      0.000      0.000
  Name = 
  7 active torsions:
  status: ('A' for Active; 'I' for Inactive)
    1  A    between atoms: C_5  and  CA_17
    2  A    between atoms: C_6  and  C_37
    3  A    between atoms: C_8  and  C_13
    4  A    between atoms: C_10  and  C_30
    5  A    between atoms: N_16  and  C_37
    6  A    between atoms: C_21  and  C_25
    7  A    between atoms: C_34  and  C_42
                            x       y       z     vdW  Elec       q    Type
                         _______ _______ _______ _____ _____    ______ ____

>  <TORSDO>
F 7

$$$$
=
 OpenBabel10222418573D

 43 46  0  0  1  0  0  0  0  0999 V2000
  186.8870  175.2380  135.6110 F   0  0  0  0  0  0  0  0  0  0  0  0
  186.0920  176.2820  136.0540 C   0  0  0  0  0  0  0  0  0  0  0  0
  183.4880  175.3820  137.8290 C   0  0  0  0  0  2  0  0  0  0  0  0
  185.8740  178.9100  142.3210 N   0  0  0  0  0  0  0  0  0  0  0  0
  187.5390  178.2080  138.1520 C   0  0  2  0  0  3  0  0  0  0  0  0
  187.0560  178.4670  139.5040 N   0  0  0  0  0  0  0  0  0  0  0  0
  183.8340  174.9870  136.3790 C   0  0  1  0  0  3  0  0  0  0  0  0
  185.7960  178.5230  139.8060 C   0  0  0  0  0  0  0  0  0  0  0  0
  186.1500  176.3780  137.4640 O   0  0  0  0  0  0  0  0  0  0  0  0
  185.0920  179.0110  143.4370 C   0  0  0  0  0  3  0  0  0  0  0  0
  182.0810  177.5030  137.7910 C   0  0  2  0  0  3  0  0  0  0  0  0
  184.6420  176.0410  135.5970 C   0  0  1  0  0  3  0  0  0  0  0  0
  183.7250  178.9280  143.3370 N   0  0  0  0  0  0  0  0  0  0  0  0
  183.9340  177.2430  135.5110 O   0  0  0  0  0  1  0  0  0  0  0  0
  182.0830  175.9730  138.0010 C   0  0  1  0  0  3  0  0  0  0  0  0
  183.1070  178.7490  142.1330 C   0  0  0  0  0  3  0  0  0  0  0  0
  183.9070  178.6840  141.0020 C   0  0  0  0  0  0  0  0  0  0  0  0
  187.4620  176.7160  137.8320 C   0  0  0  0  0  2  0  0  0  0  0  0
  184.7150  178.2920  138.8910 N   0  0  0  0  0  0  0  0  0  0  0  0
  183.6250  178.3840  139.6010 C   0  0  0  0  0  0  0  0  0  0  0  0
  182.3170  178.1490  139.0750 N   0  0  0  0  0  2  0  0  0  0  0  0
  186.5410  177.4570  135.4590 F   0  0  0  0  0  0  0  0  0  0  0  0
  185.2580  178.7750  141.1240 C   0  0  0  0  0  0  0  0  0  0  0  0
  184.4590  173.6190  136.2920 C   0  0  0  0  0  0  0  0  0  0  0  0
  184.9090  172.9310  137.5320 C   0  0  0  0  0  1  0  0  0  0  0  0
  184.5860  173.0520  135.2180 O   0  0  0  0  0  0  0  0  0  0  0  0
  180.7890  178.0490  137.1900 C   0  0  0  0  0  2  0  0  0  0  0  0
  181.0840  178.9270  136.1460 O   0  0  0  0  0  1  0  0  0  0  0  0
  180.5400  174.0480  137.8180 C   0  0  0  0  0  3  0  0  0  0  0  0
  181.0260  175.1680  137.2840 C   0  0  0  0  0  3  0  0  0  0  0  0
  179.4970  173.2580  137.1030 C   0  0  0  0  0  2  0  0  0  0  0  0
  179.8720  171.7900  137.1350 C   0  0  0  0  0  1  0  0  0  0  0  0
  188.9760  179.8070  137.1260 F   0  0  0  0  0  0  0  0  0  0  0  0
  188.9680  178.7240  137.9900 C   0  0  2  0  0  3  0  0  0  0  0  0
  189.8050  177.6720  137.4250 N   0  0  0  0  0  2  0  0  0  0  0  0
  190.7210  176.9000  138.2090 C   0  0  0  0  0  0  0  0  0  0  0  0
  191.0470  177.2870  139.3650 O   0  0  0  0  0  0  0  0  0  0  0  0
  192.6500  175.3980  137.7250 C   0  0  0  0  0  3  0  0  0  0  0  0
  190.4290  174.7010  137.0580 C   0  0  0  0  0  3  0  0  0  0  0  0
  192.3370  173.2870  136.5850 C   0  0  0  0  0  3  0  0  0  0  0  0
  193.1810  174.2220  137.1900 C   0  0  0  0  0  3  0  0  0  0  0  0
  190.9620  173.5260  136.5170 C   0  0  0  0  0  3  0  0  0  0  0  0
  191.2710  175.6460  137.6680 C   0  0  0  0  0  0  0  0  0  0  0  0
  1  2  1  0  0  0  0
  2  9  1  0  0  0  0
  3 15  1  0  0  0  0
  4 10  1  0  0  0  0
  5 34  1  1  0  0  0
  5  6  1  0  0  0  0
  6  8  2  0  0  0  0
  7 24  1  1  0  0  0
  7  3  1  0  0  0  0
  8 23  1  0  0  0  0
  9 18  1  0  0  0  0
 11 27  1  1  0  0  0
 11 15  1  0  0  0  0
 11 21  1  0  0  0  0
 12 14  1  1  0  0  0
 12  2  1  0  0  0  0
 12  7  1  0  0  0  0
 13 10  2  0  0  0  0
 15 30  1  6  0  0  0
 16 13  1  0  0  0  0
 17 23  1  0  0  0  0
 17 16  2  0  0  0  0
 18  5  1  0  0  0  0
 19 20  2  0  0  0  0
 19  8  1  0  0  0  0
 20 17  1  0  0  0  0
 21 20  1  0  0  0  0
 22  2  1  0  0  0  0
 23  4  2  0  0  0  0
 24 25  1  0  0  0  0
 26 24  2  0  0  0  0
 28 27  1  0  0  0  0
 30 29  2  0  0  0  0
 31 32  1  0  0  0  0
 31 29  1  0  0  0  0
 34 33  1  6  0  0  0
 35 34  1  0  0  0  0
 35 36  1  0  0  0  0
 36 37  2  0  0  0  0
 39 43  2  0  0  0  0
 40 41  1  0  0  0  0
 41 38  2  0  0  0  0
 42 40  2  0  0  0  0
 42 39  1  0  0  0  0
 43 38  1  0  0  0  0
 43 36  1  0  0  0  0
M  END
>  <MODEL>
2

>  <REMARK>
 VINA RESULT:      -7.3      3.418      4.878
  Name = 
  7 active torsions:
  status: ('A' for Active; 'I' for Inactive)
    1  A    between atoms: C_5  and  CA_17
    2  A    between atoms: C_6  and  C_37
    3  A    between atoms: C_8  and  C_13
    4  A    between atoms: C_10  and  C_30
    5  A    between atoms: N_16  and  C_37
    6  A    between atoms: C_21  and  C_25
    7  A    between atoms: C_34  and  C_42
                            x       y       z     vdW  Elec       q    Type
                         _______ _______ _______ _____ _____    ______ ____

>  <TORSDO>
F 7

$$$$
=
 OpenBabel10222418573D

 43 46  0  0  1  0  0  0  0  0999 V2000
  188.8680  179.0640  140.3760 F   0  0  0  0  0  0  0  0  0  0  0  0
  188.5820  178.6150  139.0970 C   0  0  0  0  0  0  0  0  0  0  0  0
  189.7110  175.6190  138.3970 C   0  0  0  0  0  2  0  0  0  0  0  0
  183.8060  174.1270  137.2880 N   0  0  0  0  0  0  0  0  0  0  0  0
  185.4670  178.1630  138.5530 C   0  0  2  0  0  3  0  0  0  0  0  0
  184.8760  176.8910  138.1520 N   0  0  0  0  0  0  0  0  0  0  0  0
  190.5150  176.8640  138.8200 C   0  0  1  0  0  3  0  0  0  0  0  0
  185.4810  176.0410  137.3810 C   0  0  0  0  0  0  0  0  0  0  0  0
  187.6970  177.5130  139.1510 O   0  0  0  0  0  0  0  0  0  0  0  0
  183.6220  172.8560  136.8200 C   0  0  0  0  0  3  0  0  0  0  0  0
  189.5280  175.5800  135.8590 C   0  0  2  0  0  3  0  0  0  0  0  0
  189.8920  178.2100  138.4000 C   0  0  1  0  0  3  0  0  0  0  0  0
  184.5950  172.2440  136.0690 N   0  0  0  0  0  0  0  0  0  0  0  0
  189.7680  178.2850  137.0100 O   0  0  0  0  0  1  0  0  0  0  0  0
  190.2030  174.9620  137.1020 C   0  0  1  0  0  3  0  0  0  0  0  0
  185.7650  172.8790  135.7640 C   0  0  0  0  0  3  0  0  0  0  0  0
  185.9270  174.1810  136.2140 C   0  0  0  0  0  0  0  0  0  0  0  0
  186.4740  177.9520  139.6830 C   0  0  0  0  0  2  0  0  0  0  0  0
  186.8100  176.1960  136.8620 N   0  0  0  0  0  0  0  0  0  0  0  0
  187.0570  175.1060  136.1910 C   0  0  0  0  0  0  0  0  0  0  0  0
  188.3130  174.8290  135.5680 N   0  0  0  0  0  2  0  0  0  0  0  0
  188.0210  179.6670  138.3800 F   0  0  0  0  0  0  0  0  0  0  0  0
  184.9470  174.7690  136.9490 C   0  0  0  0  0  0  0  0  0  0  0  0
  190.8770  176.8430  140.2820 C   0  0  0  0  0  0  0  0  0  0  0  0
  192.1080  177.5350  140.7500 C   0  0  0  0  0  1  0  0  0  0  0  0
  190.1640  176.2810  141.1000 O   0  0  0  0  0  0  0  0  0  0  0  0
  190.4090  175.6000  134.6140 C   0  0  0  0  0  2  0  0  0  0  0  0
  191.2410  176.7200  134.6380 O   0  0  0  0  0  1  0  0  0  0  0  0
  192.2610  173.5870  137.0860 C   0  0  0  0  0  3  0  0  0  0  0  0
  191.7040  174.7980  137.0720 C   0  0  0  0  0  3  0  0  0  0  0  0
  193.7440  173.4340  137.0580 C   0  0  0  0  0  2  0  0  0  0  0  0
  194.3840  174.6380  137.7180 C   0  0  0  0  0  1  0  0  0  0  0  0
  184.5780  180.3630  138.3430 F   0  0  0  0  0  0  0  0  0  0  0  0
  184.3760  179.1460  138.9750 C   0  0  2  0  0  3  0  0  0  0  0  0
  184.4390  179.3540  140.4170 N   0  0  0  0  0  2  0  0  0  0  0  0
  183.6440  178.6120  141.3470 C   0  0  0  0  0  0  0  0  0  0  0  0
  182.6530  177.9450  140.9400 O   0  0  0  0  0  0  0  0  0  0  0  0
  183.0400  178.9880  143.7350 C   0  0  0  0  0  3  0  0  0  0  0  0
  185.2930  178.2860  143.1960 C   0  0  0  0  0  3  0  0  0  0  0  0
  184.6670  178.6890  145.5000 C   0  0  0  0  0  3  0  0  0  0  0  0
  183.3730  179.0210  145.0920 C   0  0  0  0  0  3  0  0  0  0  0  0
  185.6280  178.3240  144.5530 C   0  0  0  0  0  3  0  0  0  0  0  0
  183.9940  178.6170  142.7770 C   0  0  0  0  0  0  0  0  0  0  0  0
  2  9  1  0  0  0  0
  2  1  1  0  0  0  0
  3  7  1  0  0  0  0
  5 34  1  1  0  0  0
  5 18  1  0  0  0  0
  6  5  1  0  0  0  0
  7 24  1  1  0  0  0
  8  6  2  0  0  0  0
  9 18  1  0  0  0  0
 10  4  2  0  0  0  0
 11 27  1  6  0  0  0
 11 15  1  0  0  0  0
 12 14  1  6  0  0  0
 12  7  1  0  0  0  0
 12  2  1  0  0  0  0
 13 10  1  0  0  0  0
 15 30  1  6  0  0  0
 15  3  1  0  0  0  0
 16 13  2  0  0  0  0
 16 17  1  0  0  0  0
 17 23  2  0  0  0  0
 19  8  1  0  0  0  0
 20 17  1  0  0  0  0
 20 19  2  0  0  0  0
 21 11  1  0  0  0  0
 21 20  1  0  0  0  0
 22  2  1  0  0  0  0
 23  4  1  0  0  0  0
 23  8  1  0  0  0  0
 24 25  1  0  0  0  0
 24 26  2  0  0  0  0
 27 28  1  0  0  0  0
 30 29  2  0  0  0  0
 31 29  1  0  0  0  0
 31 32  1  0  0  0  0
 34 33  1  6  0  0  0
 34 35  1  0  0  0  0
 35 36  1  0  0  0  0
 36 43  1  0  0  0  0
 37 36  2  0  0  0  0
 38 41  1  0  0  0  0
 39 42  2  0  0  0  0
 41 40  2  0  0  0  0
 42 40  1  0  0  0  0
 43 39  1  0  0  0  0
 43 38  2  0  0  0  0
M  END
>  <MODEL>
3

>  <REMARK>
 VINA RESULT:      -6.5      3.426      7.522
  Name = 
  7 active torsions:
  status: ('A' for Active; 'I' for Inactive)
    1  A    between atoms: C_5  and  CA_17
    2  A    between atoms: C_6  and  C_37
    3  A    between atoms: C_8  and  C_13
    4  A    between atoms: C_10  and  C_30
    5  A    between atoms: N_16  and  C_37
    6  A    between atoms: C_21  and  C_25
    7  A    between atoms: C_34  and  C_42
                            x       y       z     vdW  Elec       q    Type
                         _______ _______ _______ _____ _____    ______ ____

>  <TORSDO>
F 7

$$$$
=
 OpenBabel10222418573D

 43 46  0  0  1  0  0  0  0  0999 V2000
  188.3100  176.0300  136.2660 F   0  0  0  0  0  0  0  0  0  0  0  0
  187.9670  177.1050  137.0690 C   0  0  0  0  0  0  0  0  0  0  0  0
  184.9350  176.9940  138.3070 C   0  0  0  0  0  2  0  0  0  0  0  0
  187.6610  177.2300  143.8600 N   0  0  0  0  0  0  0  0  0  0  0  0
  189.6530  177.2850  139.7760 C   0  0  2  0  0  3  0  0  0  0  0  0
  189.0700  177.2660  141.1130 N   0  0  0  0  0  0  0  0  0  0  0  0
  185.3580  177.0000  136.8240 C   0  0  1  0  0  3  0  0  0  0  0  0
  187.9220  177.8010  141.3930 C   0  0  0  0  0  0  0  0  0  0  0  0
  187.7810  176.6780  138.4040 O   0  0  0  0  0  0  0  0  0  0  0  0
  186.7940  177.3010  144.9130 C   0  0  0  0  0  3  0  0  0  0  0  0
  184.6060  179.3970  139.0790 C   0  0  2  0  0  3  0  0  0  0  0  0
  186.6750  177.7440  136.5300 C   0  0  1  0  0  3  0  0  0  0  0  0
  185.5720  177.9100  144.7670 N   0  0  0  0  0  0  0  0  0  0  0  0
  186.5800  179.0860  136.9100 O   0  0  0  0  0  1  0  0  0  0  0  0
  183.9140  178.0780  138.6730 C   0  0  1  0  0  3  0  0  0  0  0  0
  185.1870  178.4620  143.5780 C   0  0  0  0  0  3  0  0  0  0  0  0
  186.0890  178.4150  142.5260 C   0  0  0  0  0  0  0  0  0  0  0  0
  189.0110  176.2130  138.8970 C   0  0  0  0  0  2  0  0  0  0  0  0
  187.0500  178.4310  140.4430 N   0  0  0  0  0  0  0  0  0  0  0  0
  185.9880  178.7770  141.1140 C   0  0  0  0  0  0  0  0  0  0  0  0
  184.8370  179.3790  140.5170 N   0  0  0  0  0  2  0  0  0  0  0  0
  188.9820  178.0530  136.9870 F   0  0  0  0  0  0  0  0  0  0  0  0
  187.2960  177.8140  142.6960 C   0  0  0  0  0  0  0  0  0  0  0  0
  185.3430  175.6210  136.2190 C   0  0  0  0  0  0  0  0  0  0  0  0
  185.3180  174.4250  137.1040 C   0  0  0  0  0  1  0  0  0  0  0  0
  185.3300  175.4640  135.0080 O   0  0  0  0  0  0  0  0  0  0  0  0
  183.8170  180.6520  138.7180 C   0  0  0  0  0  2  0  0  0  0  0  0
  182.6340  180.7000  139.4570 O   0  0  0  0  0  1  0  0  0  0  0  0
  181.5970  177.6030  137.9450 C   0  0  0  0  0  3  0  0  0  0  0  0
  182.7790  178.1610  137.6820 C   0  0  0  0  0  3  0  0  0  0  0  0
  180.4810  177.6880  136.9600 C   0  0  0  0  0  2  0  0  0  0  0  0
  179.2930  178.3720  137.6070 C   0  0  0  0  0  1  0  0  0  0  0  0
  191.7690  178.2730  140.2460 F   0  0  0  0  0  0  0  0  0  0  0  0
  191.1660  177.0890  139.8520 C   0  0  2  0  0  3  0  0  0  0  0  0
  191.6770  176.7230  138.5360 N   0  0  0  0  0  2  0  0  0  0  0  0
  193.0520  176.4070  138.2950 C   0  0  0  0  0  0  0  0  0  0  0  0
  193.9300  176.7060  139.1510 O   0  0  0  0  0  0  0  0  0  0  0  0
  192.7260  175.9530  135.8660 C   0  0  0  0  0  3  0  0  0  0  0  0
  194.4970  174.7960  137.0450 C   0  0  0  0  0  3  0  0  0  0  0  0
  194.1250  174.3670  134.6910 C   0  0  0  0  0  3  0  0  0  0  0  0
  193.0700  175.2830  134.6890 C   0  0  0  0  0  3  0  0  0  0  0  0
  194.8370  174.1210  135.8680 C   0  0  0  0  0  3  0  0  0  0  0  0
  193.4380  175.7190  137.0510 C   0  0  0  0  0  0  0  0  0  0  0  0
  1  2  1  0  0  0  0
  2  9  1  0  0  0  0
  3 15  1  0  0  0  0
  4 10  1  0  0  0  0
  5 34  1  1  0  0  0
  5  6  1  0  0  0  0
  6  8  2  0  0  0  0
  7 24  1  1  0  0  0
  7  3  1  0  0  0  0
  8 23  1  0  0  0  0
  9 18  1  0  0  0  0
 11 27  1  1  0  0  0
 11 21  1  0  0  0  0
 12  7  1  0  0  0  0
 12 14  1  1  0  0  0
 12  2  1  0  0  0  0
 13 10  2  0  0  0  0
 15 30  1  6  0  0  0
 15 11  1  0  0  0  0
 16 13  1  0  0  0  0
 17 23  1  0  0  0  0
 17 16  2  0  0  0  0
 18  5  1  0  0  0  0
 19 20  2  0  0  0  0
 19  8  1  0  0  0  0
 20 17  1  0  0  0  0
 21 20  1  0  0  0  0
 22  2  1  0  0  0  0
 23  4  2  0  0  0  0
 24 25  1  0  0  0  0
 26 24  2  0  0  0  0
 27 28  1  0  0  0  0
 30 29  2  0  0  0  0
 31 32  1  0  0  0  0
 31 29  1  0  0  0  0
 34 33  1  6  0  0  0
 35 34  1  0  0  0  0
 36 35  1  0  0  0  0
 36 37  2  0  0  0  0
 38 43  1  0  0  0  0
 39 43  2  0  0  0  0
 40 42  2  0  0  0  0
 41 40  1  0  0  0  0
 41 38  2  0  0  0  0
 42 39  1  0  0  0  0
 43 36  1  0  0  0  0
M  END
>  <MODEL>
4

>  <REMARK>
 VINA RESULT:      -6.3      2.808      4.508
  Name = 
  7 active torsions:
  status: ('A' for Active; 'I' for Inactive)
    1  A    between atoms: C_5  and  CA_17
    2  A    between atoms: C_6  and  C_37
    3  A    between atoms: C_8  and  C_13
    4  A    between atoms: C_10  and  C_30
    5  A    between atoms: N_16  and  C_37
    6  A    between atoms: C_21  and  C_25
    7  A    between atoms: C_34  and  C_42
                            x       y       z     vdW  Elec       q    Type
                         _______ _______ _______ _____ _____    ______ ____

>  <TORSDO>
F 7

$$$$
=
 OpenBabel10222418573D

 43 46  0  0  1  0  0  0  0  0999 V2000
  185.5850  176.3590  135.7640 F   0  0  0  0  0  0  0  0  0  0  0  0
  185.2830  177.3150  136.7200 C   0  0  0  0  0  0  0  0  0  0  0  0
  183.3650  176.2680  139.1630 C   0  0  0  0  0  2  0  0  0  0  0  0
  187.9960  177.9200  142.9250 N   0  0  0  0  0  0  0  0  0  0  0  0
  187.8120  178.3050  138.4010 C   0  0  2  0  0  3  0  0  0  0  0  0
  187.9300  178.2010  139.8510 N   0  0  0  0  0  0  0  0  0  0  0  0
  183.0550  176.2900  137.6530 C   0  0  1  0  0  3  0  0  0  0  0  0
  186.9200  178.3280  140.6540 C   0  0  0  0  0  0  0  0  0  0  0  0
  185.8690  176.9690  137.9590 O   0  0  0  0  0  0  0  0  0  0  0  0
  187.7210  177.7780  144.2560 C   0  0  0  0  0  3  0  0  0  0  0  0
  182.5980  178.4660  140.1930 C   0  0  2  0  0  3  0  0  0  0  0  0
  183.7540  177.4160  136.8660 C   0  0  1  0  0  3  0  0  0  0  0  0
  186.4350  177.9100  144.7180 N   0  0  0  0  0  0  0  0  0  0  0  0
  183.3770  178.6700  137.3550 O   0  0  0  0  0  1  0  0  0  0  0  0
  182.3070  176.9590  140.0320 C   0  0  1  0  0  3  0  0  0  0  0  0
  185.3980  178.1890  143.8730 C   0  0  0  0  0  3  0  0  0  0  0  0
  185.6930  178.3650  142.5300 C   0  0  0  0  0  0  0  0  0  0  0  0
  187.2660  177.0040  137.8140 C   0  0  0  0  0  2  0  0  0  0  0  0
  185.5590  178.5300  140.2450 N   0  0  0  0  0  0  0  0  0  0  0  0
  184.8580  178.5450  141.3440 C   0  0  0  0  0  0  0  0  0  0  0  0
  183.4330  178.6550  141.3720 N   0  0  0  0  0  2  0  0  0  0  0  0
  185.7550  178.5450  136.2740 F   0  0  0  0  0  0  0  0  0  0  0  0
  186.9750  178.2370  142.0960 C   0  0  0  0  0  0  0  0  0  0  0  0
  183.2550  174.9440  137.0080 C   0  0  0  0  0  0  0  0  0  0  0  0
  182.5630  174.6260  135.7290 C   0  0  0  0  0  1  0  0  0  0  0  0
  183.9950  174.1100  137.5070 O   0  0  0  0  0  0  0  0  0  0  0  0
  181.3500  179.3330  140.3240 C   0  0  0  0  0  2  0  0  0  0  0  0
  181.3210  180.2830  139.3020 O   0  0  0  0  0  1  0  0  0  0  0  0
  180.5730  175.2720  139.5100 C   0  0  0  0  0  3  0  0  0  0  0  0
  180.9010  176.5560  139.6580 C   0  0  0  0  0  3  0  0  0  0  0  0
  179.1820  174.8820  139.1390 C   0  0  0  0  0  2  0  0  0  0  0  0
  179.1460  174.4890  137.6760 C   0  0  0  0  0  1  0  0  0  0  0  0
  188.9950  178.9660  136.4420 F   0  0  0  0  0  0  0  0  0  0  0  0
  189.1640  178.6530  137.7810 C   0  0  2  0  0  3  0  0  0  0  0  0
  190.0570  177.5040  137.8800 N   0  0  0  0  0  2  0  0  0  0  0  0
  190.4960  176.7570  136.7410 C   0  0  0  0  0  0  0  0  0  0  0  0
  189.9070  176.8890  135.6330 O   0  0  0  0  0  0  0  0  0  0  0  0
  192.5590  175.9990  137.9140 C   0  0  0  0  0  3  0  0  0  0  0  0
  191.8650  174.8410  135.9050 C   0  0  0  0  0  3  0  0  0  0  0  0
  193.8770  174.1570  137.0650 C   0  0  0  0  0  3  0  0  0  0  0  0
  193.6680  175.1550  138.0200 C   0  0  0  0  0  3  0  0  0  0  0  0
  192.9780  174.0000  136.0070 C   0  0  0  0  0  3  0  0  0  0  0  0
  191.6470  175.8470  136.8610 C   0  0  0  0  0  0  0  0  0  0  0  0
  1  2  1  0  0  0  0
  2 12  1  0  0  0  0
  2  9  1  0  0  0  0
  3 15  1  0  0  0  0
  4 10  1  0  0  0  0
  5 34  1  6  0  0  0
  5  6  1  0  0  0  0
  6  8  2  0  0  0  0
  7 24  1  6  0  0  0
  7  3  1  0  0  0  0
  8 23  1  0  0  0  0
 10 13  2  0  0  0  0
 11 27  1  1  0  0  0
 11 21  1  0  0  0  0
 12 14  1  1  0  0  0
 12  7  1  0  0  0  0
 15 30  1  6  0  0  0
 15 11  1  0  0  0  0
 16 13  1  0  0  0  0
 17 16  2  0  0  0  0
 18  9  1  0  0  0  0
 18  5  1  0  0  0  0
 19  8  1  0  0  0  0
 19 20  2  0  0  0  0
 20 21  1  0  0  0  0
 20 17  1  0  0  0  0
 22  2  1  0  0  0  0
 23 17  1  0  0  0  0
 23  4  2  0  0  0  0
 24 26  2  0  0  0  0
 25 24  1  0  0  0  0
 28 27  1  0  0  0  0
 29 30  2  0  0  0  0
 31 29  1  0  0  0  0
 32 31  1  0  0  0  0
 34 33  1  6  0  0  0
 34 35  1  0  0  0  0
 36 43  1  0  0  0  0
 36 35  1  0  0  0  0
 37 36  2  0  0  0  0
 38 41  1  0  0  0  0
 39 42  2  0  0  0  0
 39 43  1  0  0  0  0
 40 41  2  0  0  0  0
 42 40  1  0  0  0  0
 43 38  2  0  0  0  0
M  END
>  <MODEL>
5

>  <REMARK>
 VINA RESULT:      -6.2      2.898      4.837
  Name = 
  7 active torsions:
  status: ('A' for Active; 'I' for Inactive)
    1  A    between atoms: C_5  and  CA_17
    2  A    between atoms: C_6  and  C_37
    3  A    between atoms: C_8  and  C_13
    4  A    between atoms: C_10  and  C_30
    5  A    between atoms: N_16  and  C_37
    6  A    between atoms: C_21  and  C_25
    7  A    between atoms: C_34  and  C_42
                            x       y       z     vdW  Elec       q    Type
                         _______ _______ _______ _____ _____    ______ ____

>  <TORSDO>
F 7

$$$$
=
 OpenBabel10222418573D

 43 46  0  0  1  0  0  0  0  0999 V2000
  189.3230  178.2620  142.1680 F   0  0  0  0  0  0  0  0  0  0  0  0
  188.4150  178.6910  141.2130 C   0  0  0  0  0  0  0  0  0  0  0  0
  188.1560  176.7550  138.5820 C   0  0  0  0  0  2  0  0  0  0  0  0
  182.1720  176.2460  140.0870 N   0  0  0  0  0  0  0  0  0  0  0  0
  185.3810  178.6620  142.2120 C   0  0  2  0  0  3  0  0  0  0  0  0
  184.3110  177.9020  141.5750 N   0  0  0  0  0  0  0  0  0  0  0  0
  189.4100  177.4800  139.1100 C   0  0  1  0  0  3  0  0  0  0  0  0
  184.2480  177.7040  140.2950 C   0  0  0  0  0  0  0  0  0  0  0  0
  187.3330  177.7860  141.1260 O   0  0  0  0  0  0  0  0  0  0  0  0
  181.4240  175.5280  139.1970 C   0  0  0  0  0  3  0  0  0  0  0  0
  186.9510  178.2790  136.9380 C   0  0  2  0  0  3  0  0  0  0  0  0
  189.1270  178.8000  139.8540 C   0  0  1  0  0  3  0  0  0  0  0  0
  181.7600  175.5070  137.8660 N   0  0  0  0  0  0  0  0  0  0  0  0
  188.4780  179.7110  139.0160 O   0  0  0  0  0  1  0  0  0  0  0  0
  187.8430  177.0300  137.1070 C   0  0  1  0  0  3  0  0  0  0  0  0
  182.8380  176.1970  137.3900 C   0  0  0  0  0  3  0  0  0  0  0  0
  183.5700  176.9500  138.2960 C   0  0  0  0  0  0  0  0  0  0  0  0
  186.6390  177.8050  142.3470 C   0  0  0  0  0  2  0  0  0  0  0  0
  185.2250  178.1470  139.3410 N   0  0  0  0  0  0  0  0  0  0  0  0
  184.8200  177.6970  138.1860 C   0  0  0  0  0  0  0  0  0  0  0  0
  185.5560  177.8620  136.9710 N   0  0  0  0  0  2  0  0  0  0  0  0
  187.9730  179.9610  141.5700 F   0  0  0  0  0  0  0  0  0  0  0  0
  183.2150  176.9630  139.6080 C   0  0  0  0  0  0  0  0  0  0  0  0
  190.3090  176.5680  139.9020 C   0  0  0  0  0  0  0  0  0  0  0  0
  191.7220  176.3730  139.4790 C   0  0  0  0  0  1  0  0  0  0  0  0
  189.9030  175.9970  140.9020 O   0  0  0  0  0  0  0  0  0  0  0  0
  187.2060  179.0590  135.6520 C   0  0  0  0  0  2  0  0  0  0  0  0
  186.5100  178.4730  134.5940 O   0  0  0  0  0  1  0  0  0  0  0  0
  189.5100  175.7340  135.8160 C   0  0  0  0  0  3  0  0  0  0  0  0
  189.0660  176.9210  136.2280 C   0  0  0  0  0  3  0  0  0  0  0  0
  190.7190  175.6350  134.9490 C   0  0  0  0  0  2  0  0  0  0  0  0
  191.9510  175.9540  135.7710 C   0  0  0  0  0  1  0  0  0  0  0  0
  184.5480  180.5070  143.4670 F   0  0  0  0  0  0  0  0  0  0  0  0
  184.9280  179.1780  143.5760 C   0  0  2  0  0  3  0  0  0  0  0  0
  186.0320  179.0860  144.5240 N   0  0  0  0  0  2  0  0  0  0  0  0
  185.8820  178.5600  145.8460 C   0  0  0  0  0  0  0  0  0  0  0  0
  184.7310  178.4140  146.3430 O   0  0  0  0  0  0  0  0  0  0  0  0
  187.1690  178.5030  147.9800 C   0  0  0  0  0  3  0  0  0  0  0  0
  188.1430  177.5060  146.0000 C   0  0  0  0  0  3  0  0  0  0  0  0
  189.3670  177.4980  148.0900 C   0  0  0  0  0  3  0  0  0  0  0  0
  188.3080  178.1640  148.7140 C   0  0  0  0  0  3  0  0  0  0  0  0
  189.2860  177.1710  146.7340 C   0  0  0  0  0  3  0  0  0  0  0  0
  187.0740  178.1740  146.6200 C   0  0  0  0  0  0  0  0  0  0  0  0
  2 22  1  0  0  0  0
  2  1  1  0  0  0  0
  3  7  1  0  0  0  0
  5 18  1  0  0  0  0
  5 34  1  1  0  0  0
  6  5  1  0  0  0  0
  7 12  1  0  0  0  0
  7 24  1  1  0  0  0
  8  6  2  0  0  0  0
  9  2  1  0  0  0  0
  9 18  1  0  0  0  0
 10  4  2  0  0  0  0
 11 27  1  6  0  0  0
 11 21  1  0  0  0  0
 11 15  1  0  0  0  0
 12 14  1  6  0  0  0
 12  2  1  0  0  0  0
 13 10  1  0  0  0  0
 15 30  1  6  0  0  0
 15  3  1  0  0  0  0
 16 13  2  0  0  0  0
 16 17  1  0  0  0  0
 17 23  2  0  0  0  0
 19  8  1  0  0  0  0
 20 17  1  0  0  0  0
 20 19  2  0  0  0  0
 21 20  1  0  0  0  0
 23  4  1  0  0  0  0
 23  8  1  0  0  0  0
 24 26  2  0  0  0  0
 25 24  1  0  0  0  0
 28 27  1  0  0  0  0
 29 30  2  0  0  0  0
 31 32  1  0  0  0  0
 31 29  1  0  0  0  0
 34 33  1  6  0  0  0
 34 35  1  0  0  0  0
 35 36  1  0  0  0  0
 36 37  2  0  0  0  0
 36 43  1  0  0  0  0
 38 41  1  0  0  0  0
 39 43  1  0  0  0  0
 39 42  2  0  0  0  0
 40 41  2  0  0  0  0
 42 40  1  0  0  0  0
 43 38  2  0  0  0  0
M  END
>  <MODEL>
6

>  <REMARK>
 VINA RESULT:      -6.1      2.828      5.479
  Name = 
  7 active torsions:
  status: ('A' for Active; 'I' for Inactive)
    1  A    between atoms: C_5  and  CA_17
    2  A    between atoms: C_6  and  C_37
    3  A    between atoms: C_8  and  C_13
    4  A    between atoms: C_10  and  C_30
    5  A    between atoms: N_16  and  C_37
    6  A    between atoms: C_21  and  C_25
    7  A    between atoms: C_34  and  C_42
                            x       y       z     vdW  Elec       q    Type
                         _______ _______ _______ _____ _____    ______ ____

>  <TORSDO>
F 7

$$$$
=
 OpenBabel10222418573D

 43 46  0  0  1  0  0  0  0  0999 V2000
  184.9370  179.8370  141.2680 F   0  0  0  0  0  0  0  0  0  0  0  0
  185.1410  178.5750  140.7350 C   0  0  0  0  0  0  0  0  0  0  0  0
  184.3180  178.2570  137.5790 C   0  0  0  0  0  2  0  0  0  0  0  0
  190.2130  176.6030  136.6590 N   0  0  0  0  0  0  0  0  0  0  0  0
  188.2140  177.7160  140.5850 C   0  0  2  0  0  3  0  0  0  0  0  0
  188.9090  177.3550  139.3550 N   0  0  0  0  0  0  0  0  0  0  0  0
  183.4160  178.6660  138.7610 C   0  0  1  0  0  3  0  0  0  0  0  0
  188.3350  176.7310  138.3740 C   0  0  0  0  0  0  0  0  0  0  0  0
  186.1540  178.6170  139.7500 O   0  0  0  0  0  0  0  0  0  0  0  0
  190.5000  176.2230  135.3790 C   0  0  0  0  0  3  0  0  0  0  0  0
  184.2390  175.7260  137.3200 C   0  0  2  0  0  3  0  0  0  0  0  0
  183.8240  178.0680  140.1220 C   0  0  1  0  0  3  0  0  0  0  0  0
  189.5360  175.6410  134.5930 N   0  0  0  0  0  0  0  0  0  0  0  0
  183.7920  176.6720  140.0780 O   0  0  0  0  0  1  0  0  0  0  0  0
  183.7770  177.0850  136.7520 C   0  0  1  0  0  3  0  0  0  0  0  0
  188.2710  175.4210  135.0610 C   0  0  0  0  0  3  0  0  0  0  0  0
  188.0000  175.7790  136.3730 C   0  0  0  0  0  0  0  0  0  0  0  0
  187.3630  178.9670  140.3720 C   0  0  0  0  0  2  0  0  0  0  0  0
  186.9500  176.3570  138.3300 N   0  0  0  0  0  0  0  0  0  0  0  0
  186.7690  175.8100  137.1600 C   0  0  0  0  0  0  0  0  0  0  0  0
  185.4980  175.3600  136.6860 N   0  0  0  0  0  2  0  0  0  0  0  0
  185.4910  177.7150  141.7710 F   0  0  0  0  0  0  0  0  0  0  0  0
  188.9720  176.3460  137.1350 C   0  0  0  0  0  0  0  0  0  0  0  0
  183.2140  180.1570  138.8380 C   0  0  0  0  0  0  0  0  0  0  0  0
  181.8550  180.7070  139.0870 C   0  0  0  0  0  1  0  0  0  0  0  0
  184.1550  180.9270  138.7180 O   0  0  0  0  0  0  0  0  0  0  0  0
  183.2360  174.5930  137.1240 C   0  0  0  0  0  2  0  0  0  0  0  0
  183.8950  173.4460  136.6770 O   0  0  0  0  0  1  0  0  0  0  0  0
  181.8720  178.3060  135.7500 C   0  0  0  0  0  3  0  0  0  0  0  0
  182.3120  177.2410  136.4190 C   0  0  0  0  0  3  0  0  0  0  0  0
  180.4240  178.4540  135.4260 C   0  0  0  0  0  2  0  0  0  0  0  0
  180.0430  179.9190  135.4960 C   0  0  0  0  0  1  0  0  0  0  0  0
  189.9570  176.7730  141.9070 F   0  0  0  0  0  0  0  0  0  0  0  0
  189.2140  177.9280  141.7200 C   0  0  2  0  0  3  0  0  0  0  0  0
  188.4960  178.2250  142.9540 N   0  0  0  0  0  2  0  0  0  0  0  0
  187.9960  177.2070  143.8280 C   0  0  0  0  0  0  0  0  0  0  0  0
  187.9100  176.0140  143.4260 O   0  0  0  0  0  0  0  0  0  0  0  0
  186.2820  177.9610  145.4730 C   0  0  0  0  0  3  0  0  0  0  0  0
  188.5320  177.5160  146.2490 C   0  0  0  0  0  3  0  0  0  0  0  0
  186.8400  178.2750  147.8060 C   0  0  0  0  0  3  0  0  0  0  0  0
  185.9030  178.3160  146.7700 C   0  0  0  0  0  3  0  0  0  0  0  0
  188.1540  177.8770  147.5460 C   0  0  0  0  0  3  0  0  0  0  0  0
  187.5960  177.5530  145.2020 C   0  0  0  0  0  0  0  0  0  0  0  0
  2  1  1  0  0  0  0
  2 22  1  0  0  0  0
  3  7  1  0  0  0  0
  4 23  1  0  0  0  0
  5 34  1  1  0  0  0
  6  5  1  0  0  0  0
  7 24  1  1  0  0  0
  7 12  1  0  0  0  0
  8  6  2  0  0  0  0
  9 18  1  0  0  0  0
  9  2  1  0  0  0  0
 10  4  2  0  0  0  0
 11 27  1  6  0  0  0
 12 14  1  6  0  0  0
 12  2  1  0  0  0  0
 13 16  2  0  0  0  0
 13 10  1  0  0  0  0
 15 30  1  1  0  0  0
 15 11  1  0  0  0  0
 15  3  1  0  0  0  0
 16 17  1  0  0  0  0
 17 23  2  0  0  0  0
 17 20  1  0  0  0  0
 18  5  1  0  0  0  0
 19  8  1  0  0  0  0
 20 19  2  0  0  0  0
 21 20  1  0  0  0  0
 21 11  1  0  0  0  0
 23  8  1  0  0  0  0
 24 25  1  0  0  0  0
 26 24  2  0  0  0  0
 28 27  1  0  0  0  0
 29 30  2  0  0  0  0
 31 32  1  0  0  0  0
 31 29  1  0  0  0  0
 34 33  1  1  0  0  0
 34 35  1  0  0  0  0
 35 36  1  0  0  0  0
 36 43  1  0  0  0  0
 37 36  2  0  0  0  0
 38 41  1  0  0  0  0
 39 42  2  0  0  0  0
 41 40  2  0  0  0  0
 42 40  1  0  0  0  0
 43 38  2  0  0  0  0
 43 39  1  0  0  0  0
M  END
>  <MODEL>
7

>  <REMARK>
 VINA RESULT:      -5.8      2.826      5.282
  Name = 
  7 active torsions:
  status: ('A' for Active; 'I' for Inactive)
    1  A    between atoms: C_5  and  CA_17
    2  A    between atoms: C_6  and  C_37
    3  A    between atoms: C_8  and  C_13
    4  A    between atoms: C_10  and  C_30
    5  A    between atoms: N_16  and  C_37
    6  A    between atoms: C_21  and  C_25
    7  A    between atoms: C_34  and  C_42
                            x       y       z     vdW  Elec       q    Type
                         _______ _______ _______ _____ _____    ______ ____

>  <TORSDO>
F 7

$$$$
=
 OpenBabel10222418573D

 43 46  0  0  1  0  0  0  0  0999 V2000
  184.7070  177.8140  136.8760 F   0  0  0  0  0  0  0  0  0  0  0  0
  185.3050  178.4560  137.9480 C   0  0  0  0  0  0  0  0  0  0  0  0
  184.2910  177.4550  140.9000 C   0  0  0  0  0  2  0  0  0  0  0  0
  190.2200  176.0300  141.9720 N   0  0  0  0  0  0  0  0  0  0  0  0
  188.4340  177.8730  138.2220 C   0  0  2  0  0  3  0  0  0  0  0  0
  189.0620  177.2790  139.3970 N   0  0  0  0  0  0  0  0  0  0  0  0
  183.4500  178.0670  139.7610 C   0  0  1  0  0  3  0  0  0  0  0  0
  188.6510  177.5000  140.6070 C   0  0  0  0  0  0  0  0  0  0  0  0
  186.1020  177.5460  138.6810 O   0  0  0  0  0  0  0  0  0  0  0  0
  190.4730  175.5820  143.2370 C   0  0  0  0  0  3  0  0  0  0  0  0
  185.1380  179.3300  142.3980 C   0  0  2  0  0  3  0  0  0  0  0  0
  184.2110  179.0510  138.8520 C   0  0  1  0  0  3  0  0  0  0  0  0
  189.7120  176.0160  144.2940 N   0  0  0  0  0  0  0  0  0  0  0  0
  184.7010  180.1300  139.5930 O   0  0  0  0  0  1  0  0  0  0  0  0
  184.1350  178.1660  142.2490 C   0  0  1  0  0  3  0  0  0  0  0  0
  188.6880  176.9030  144.1190 C   0  0  0  0  0  3  0  0  0  0  0  0
  188.4610  177.3790  142.8370 C   0  0  0  0  0  0  0  0  0  0  0  0
  187.1560  177.1180  137.8580 C   0  0  0  0  0  2  0  0  0  0  0  0
  187.5130  178.2990  140.9610 N   0  0  0  0  0  0  0  0  0  0  0  0
  187.4130  178.2150  142.2580 C   0  0  0  0  0  0  0  0  0  0  0  0
  186.3570  178.8190  143.0100 N   0  0  0  0  0  2  0  0  0  0  0  0
  186.0740  179.5050  137.4560 F   0  0  0  0  0  0  0  0  0  0  0  0
  189.2330  176.9410  141.8070 C   0  0  0  0  0  0  0  0  0  0  0  0
  182.7140  177.0200  138.9670 C   0  0  0  0  0  0  0  0  0  0  0  0
  181.5690  177.4160  138.1020 C   0  0  0  0  0  1  0  0  0  0  0  0
  183.0530  175.8470  139.0040 O   0  0  0  0  0  0  0  0  0  0  0  0
  184.6180  180.5000  143.2280 C   0  0  0  0  0  2  0  0  0  0  0  0
  184.8920  180.2840  144.5790 O   0  0  0  0  0  1  0  0  0  0  0  0
  182.2520  178.3250  143.8470 C   0  0  0  0  0  3  0  0  0  0  0  0
  182.6910  178.4400  142.5930 C   0  0  0  0  0  3  0  0  0  0  0  0
  180.8230  178.5960  144.1780 C   0  0  0  0  0  2  0  0  0  0  0  0
  180.1380  179.2070  142.9730 C   0  0  0  0  0  1  0  0  0  0  0  0
  188.7910  177.3600  135.9230 F   0  0  0  0  0  0  0  0  0  0  0  0
  189.4090  177.8870  137.0460 C   0  0  2  0  0  3  0  0  0  0  0  0
  190.5710  177.0650  137.3670 N   0  0  0  0  0  2  0  0  0  0  0  0
  190.6700  175.6840  137.0070 C   0  0  0  0  0  0  0  0  0  0  0  0
  189.6420  175.0480  136.6460 O   0  0  0  0  0  0  0  0  0  0  0  0
  192.1530  173.7720  136.4090 C   0  0  0  0  0  3  0  0  0  0  0  0
  193.0550  175.5780  137.7440 C   0  0  0  0  0  3  0  0  0  0  0  0
  194.4510  173.6870  137.1610 C   0  0  0  0  0  3  0  0  0  0  0  0
  193.3840  173.1140  136.4620 C   0  0  0  0  0  3  0  0  0  0  0  0
  194.2870  174.9170  137.8030 C   0  0  0  0  0  3  0  0  0  0  0  0
  191.9790  175.0100  137.0440 C   0  0  0  0  0  0  0  0  0  0  0  0
  1  2  1  0  0  0  0
  2  9  1  0  0  0  0
  2 12  1  0  0  0  0
  3 15  1  0  0  0  0
  4 10  1  0  0  0  0
  5 34  1  6  0  0  0
  5  6  1  0  0  0  0
  6  8  2  0  0  0  0
  7 24  1  6  0  0  0
  7  3  1  0  0  0  0
  8 19  1  0  0  0  0
  8 23  1  0  0  0  0
 10 13  2  0  0  0  0
 11 21  1  0  0  0  0
 11 27  1  1  0  0  0
 12 14  1  1  0  0  0
 12  7  1  0  0  0  0
 15 11  1  0  0  0  0
 15 30  1  6  0  0  0
 16 13  1  0  0  0  0
 17 16  2  0  0  0  0
 18  5  1  0  0  0  0
 18  9  1  0  0  0  0
 19 20  2  0  0  0  0
 20 17  1  0  0  0  0
 20 21  1  0  0  0  0
 22  2  1  0  0  0  0
 23  4  2  0  0  0  0
 23 17  1  0  0  0  0
 24 26  2  0  0  0  0
 25 24  1  0  0  0  0
 27 28  1  0  0  0  0
 29 31  1  0  0  0  0
 30 29  2  0  0  0  0
 32 31  1  0  0  0  0
 34 33  1  6  0  0  0
 34 35  1  0  0  0  0
 36 43  1  0  0  0  0
 36 35  1  0  0  0  0
 37 36  2  0  0  0  0
 38 41  2  0  0  0  0
 38 43  1  0  0  0  0
 39 42  1  0  0  0  0
 40 42  2  0  0  0  0
 41 40  1  0  0  0  0
 43 39  2  0  0  0  0
M  END
>  <MODEL>
8

>  <REMARK>
 VINA RESULT:      -5.4      3.146      5.729
  Name = 
  7 active torsions:
  status: ('A' for Active; 'I' for Inactive)
    1  A    between atoms: C_5  and  CA_17
    2  A    between atoms: C_6  and  C_37
    3  A    between atoms: C_8  and  C_13
    4  A    between atoms: C_10  and  C_30
    5  A    between atoms: N_16  and  C_37
    6  A    between atoms: C_21  and  C_25
    7  A    between atoms: C_34  and  C_42
                            x       y       z     vdW  Elec       q    Type
                         _______ _______ _______ _____ _____    ______ ____

>  <TORSDO>
F 7

$$$$
=
 OpenBabel10222418573D

 43 46  0  0  1  0  0  0  0  0999 V2000
  188.2960  178.1870  139.0150 F   0  0  0  0  0  0  0  0  0  0  0  0
  188.5690  177.5720  137.8050 C   0  0  0  0  0  0  0  0  0  0  0  0
  190.6580  175.0530  137.9720 C   0  0  0  0  0  2  0  0  0  0  0  0
  186.0830  171.6620  135.5420 N   0  0  0  0  0  0  0  0  0  0  0  0
  186.0480  176.1030  136.5040 C   0  0  2  0  0  3  0  0  0  0  0  0
  186.0000  174.6820  136.1790 N   0  0  0  0  0  0  0  0  0  0  0  0
  190.9010  176.5190  138.3810 C   0  0  1  0  0  3  0  0  0  0  0  0
  187.0310  174.0150  135.7650 C   0  0  0  0  0  0  0  0  0  0  0  0
  188.0610  176.2530  137.8000 O   0  0  0  0  0  0  0  0  0  0  0  0
  186.4240  170.3680  135.2670 C   0  0  0  0  0  3  0  0  0  0  0  0
  191.3090  174.7600  135.5290 C   0  0  2  0  0  3  0  0  0  0  0  0
  190.0910  177.5570  137.5790 C   0  0  1  0  0  3  0  0  0  0  0  0
  187.7150  170.0450  134.9330 N   0  0  0  0  0  0  0  0  0  0  0  0
  190.3990  177.4800  136.2180 O   0  0  0  0  0  1  0  0  0  0  0  0
  191.7000  174.4910  136.9980 C   0  0  1  0  0  3  0  0  0  0  0  0
  188.6930  170.9960  134.8600 C   0  0  0  0  0  3  0  0  0  0  0  0
  188.3300  172.3110  135.1060 C   0  0  0  0  0  0  0  0  0  0  0  0
  186.6610  176.3160  137.8870 C   0  0  0  0  0  2  0  0  0  0  0  0
  188.3560  174.5480  135.6170 N   0  0  0  0  0  0  0  0  0  0  0  0
  189.1000  173.5460  135.2390 C   0  0  0  0  0  0  0  0  0  0  0  0
  190.5130  173.6390  135.0460 N   0  0  0  0  0  2  0  0  0  0  0  0
  187.9920  178.3300  136.7900 F   0  0  0  0  0  0  0  0  0  0  0  0
  187.0440  172.6090  135.4280 C   0  0  0  0  0  0  0  0  0  0  0  0
  190.7710  176.7290  139.8670 C   0  0  0  0  0  0  0  0  0  0  0  0
  191.5910  177.7710  140.5420 C   0  0  0  0  0  1  0  0  0  0  0  0
  189.9850  176.0690  140.5300 O   0  0  0  0  0  0  0  0  0  0  0  0
  192.4960  174.9660  134.5940 C   0  0  0  0  0  2  0  0  0  0  0  0
  192.8750  176.3090  134.5940 O   0  0  0  0  0  1  0  0  0  0  0  0
  194.0360  173.8570  137.5140 C   0  0  0  0  0  3  0  0  0  0  0  0
  193.1140  174.8150  137.4140 C   0  0  0  0  0  3  0  0  0  0  0  0
  195.4300  174.1860  137.9280 C   0  0  0  0  0  2  0  0  0  0  0  0
  196.2490  172.9120  137.9820 C   0  0  0  0  0  1  0  0  0  0  0  0
  184.6100  177.6650  135.4240 F   0  0  0  0  0  0  0  0  0  0  0  0
  184.6500  176.7140  136.4310 C   0  0  2  0  0  3  0  0  0  0  0  0
  184.3360  177.3650  137.6980 N   0  0  0  0  0  2  0  0  0  0  0  0
  182.9990  177.6840  138.0990 C   0  0  0  0  0  0  0  0  0  0  0  0
  182.0640  177.6710  137.2520 O   0  0  0  0  0  0  0  0  0  0  0  0
  181.3930  178.1940  139.9350 C   0  0  0  0  0  3  0  0  0  0  0  0
  183.7650  178.1850  140.4240 C   0  0  0  0  0  3  0  0  0  0  0  0
  182.1680  178.7010  142.1700 C   0  0  0  0  0  3  0  0  0  0  0  0
  181.1190  178.5320  141.2620 C   0  0  0  0  0  3  0  0  0  0  0  0
  183.4900  178.5300  141.7520 C   0  0  0  0  0  3  0  0  0  0  0  0
  182.7160  178.0130  139.5060 C   0  0  0  0  0  0  0  0  0  0  0  0
  2  1  1  0  0  0  0
  3  7  1  0  0  0  0
  5 34  1  1  0  0  0
  5 18  1  0  0  0  0
  6  5  1  0  0  0  0
  7 24  1  1  0  0  0
  8  6  2  0  0  0  0
  9  2  1  0  0  0  0
  9 18  1  0  0  0  0
 10  4  2  0  0  0  0
 11 27  1  6  0  0  0
 11 15  1  0  0  0  0
 12 14  1  6  0  0  0
 12  2  1  0  0  0  0
 12  7  1  0  0  0  0
 13 10  1  0  0  0  0
 15 30  1  1  0  0  0
 15  3  1  0  0  0  0
 16 13  2  0  0  0  0
 16 17  1  0  0  0  0
 17 20  1  0  0  0  0
 17 23  2  0  0  0  0
 19  8  1  0  0  0  0
 20 19  2  0  0  0  0
 21 20  1  0  0  0  0
 21 11  1  0  0  0  0
 22  2  1  0  0  0  0
 23  4  1  0  0  0  0
 23  8  1  0  0  0  0
 24 26  2  0  0  0  0
 24 25  1  0  0  0  0
 27 28  1  0  0  0  0
 29 31  1  0  0  0  0
 30 29  2  0  0  0  0
 31 32  1  0  0  0  0
 34 33  1  6  0  0  0
 34 35  1  0  0  0  0
 35 36  1  0  0  0  0
 36 43  1  0  0  0  0
 37 36  2  0  0  0  0
 38 41  1  0  0  0  0
 39 42  2  0  0  0  0
 41 40  2  0  0  0  0
 42 40  1  0  0  0  0
 43 38  2  0  0  0  0
 43 39  1  0  0  0  0
M  END
>  <MODEL>
9

>  <REMARK>
 VINA RESULT:      -5.3      4.491      9.190
  Name = 
  7 active torsions:
  status: ('A' for Active; 'I' for Inactive)
    1  A    between atoms: C_5  and  CA_17
    2  A    between atoms: C_6  and  C_37
    3  A    between atoms: C_8  and  C_13
    4  A    between atoms: C_10  and  C_30
    5  A    between atoms: N_16  and  C_37
    6  A    between atoms: C_21  and  C_25
    7  A    between atoms: C_34  and  C_42
                            x       y       z     vdW  Elec       q    Type
                         _______ _______ _______ _____ _____    ______ ____

>  <TORSDO>
F 7

$$$$
