=
 OpenBabel10222419043D

 50 56  0  0  1  0  0  0  0  0999 V2000
  182.0200  177.5420  136.3650 C   0  0  1  0  0  3  0  0  0  0  0  0
  183.4710  177.7680  140.3930 C   0  0  0  0  0  2  0  0  0  0  0  0
  181.0050  179.5100  137.2520 C   0  0  0  0  0  2  0  0  0  0  0  0
  182.9370  177.3620  137.5870 C   0  0  2  0  0  3  0  0  0  0  0  0
  181.7790  179.4600  138.5690 C   0  0  2  0  0  3  0  0  0  0  0  0
  183.9740  178.6720  139.4430 O   0  0  0  0  0  0  0  0  0  0  0  0
  183.1030  178.7060  138.3270 C   0  0  1  0  0  3  0  0  0  0  0  0
  180.9000  178.8210  139.6500 C   0  0  0  0  0  2  0  0  0  0  0  0
  181.4670  179.0130  141.0240 C   0  0  0  0  0  3  0  0  0  0  0  0
  182.6450  178.5060  141.3990 C   0  0  0  0  0  0  0  0  0  0  0  0
  181.7530  176.2510  135.7510 N   0  0  0  0  0  1  0  0  0  0  0  0
  180.7500  178.1580  136.7530 N   0  0  0  0  0  2  0  0  0  0  0  0
  183.1610  178.7180  142.7720 C   0  0  0  0  0  0  0  0  0  0  0  0
  181.0190  178.6280  144.0710 N   0  0  0  0  0  1  0  0  0  0  0  0
  182.4320  178.7610  143.9540 C   0  0  0  0  0  0  0  0  0  0  0  0
  183.2390  178.9970  145.0040 N   0  0  0  0  0  0  0  0  0  0  0  0
  184.4680  178.9330  143.1910 C   0  0  0  0  0  0  0  0  0  0  0  0
  184.4710  179.0930  144.5310 N   0  0  0  0  0  0  0  0  0  0  0  0
  185.6930  178.9570  142.3380 C   0  0  0  0  0  1  0  0  0  0  0  0
  185.6310  179.3620  145.3660 C   0  0  0  0  0  2  0  0  0  0  0  0
  185.4910  178.4640  146.9390 S   0  0  0  0  0  0  0  0  0  0  0  0
  189.5970  177.1420  147.0530 S   0  0  0  0  0  0  0  0  0  0  0  0
  187.6540  177.9330  145.3450 C   0  0  0  0  0  2  0  0  0  0  0  0
  187.9450  177.5350  147.7180 C   0  0  0  0  0  2  0  0  0  0  0  0
  188.9980  177.2410  145.3340 C   0  0  1  0  0  3  0  0  0  0  0  0
  186.9480  177.4370  146.5850 C   0  0  1  0  0  3  0  0  0  0  0  0
  189.9440  177.9970  144.5150 N   0  0  0  0  0  2  0  0  0  0  0  0
  190.8610  177.0900  143.8190 C   0  0  2  0  0  3  0  0  0  0  0  0
  191.6750  177.7920  142.9210 O   0  0  0  0  0  1  0  0  0  0  0  0
  190.1070  175.9730  143.1040 C   0  0  0  0  0  1  0  0  0  0  0  0
  186.4520  177.0240  136.1550 C   0  0  0  0  0  3  0  0  0  0  0  0
  186.7660  175.7060  136.5160 C   0  0  0  0  0  0  0  0  0  0  0  0
  185.8300  174.9380  137.2160 C   0  0  0  0  0  3  0  0  0  0  0  0
  184.5870  175.4840  137.5560 C   0  0  0  0  0  3  0  0  0  0  0  0
  184.2720  176.7990  137.1950 C   0  0  0  0  0  0  0  0  0  0  0  0
  185.2090  177.5700  136.4910 C   0  0  0  0  0  3  0  0  0  0  0  0
  188.0280  175.1330  136.1710 N   0  0  0  0  0  2  0  0  0  0  0  0
  189.2210  175.8640  136.2820 N   0  0  0  0  0  0  0  0  0  0  0  0
  189.7950  173.8590  137.5220 O   0  0  0  0  0  1  0  0  0  0  0  0
  190.1670  175.1420  137.1030 C   0  0  2  0  0  0  0  0  0  0  0  0
  189.4020  176.1230  137.6390 O   0  0  0  0  0  0  0  0  0  0  0  0
  191.6300  175.5060  136.9130 C   0  0  2  0  0  3  0  0  0  0  0  0
  193.4020  176.2790  138.0260 C   0  0  0  0  0  2  0  0  0  0  0  0
  192.5010  174.2860  137.0880 C   0  0  0  0  0  2  0  0  0  0  0  0
  192.0210  176.4650  137.8590 O   0  0  0  0  0  0  0  0  0  0  0  0
  193.7500  174.8370  137.7100 C   0  0  1  0  0  3  0  0  0  0  0  0
  195.4030  176.3390  135.9030 O   0  0  0  0  0  1  0  0  0  0  0  0
  196.5190  174.2190  137.2730 O   0  0  0  0  0  1  0  0  0  0  0  0
  195.1180  174.7860  136.5120 P   0  0  0  0  0  0  0  0  0  0  0  0
  194.7620  173.8640  135.3700 O   0  0  0  0  0  0  0  0  0  0  0  0
  1 11  1  1  0  0  0
  1 12  1  0  0  0  0
  1  4  1  0  0  0  0
  2 10  1  0  0  0  0
  4 35  1  6  0  0  0
  4  7  1  0  0  0  0
  5  3  1  6  0  0  0
  5  8  1  0  0  0  0
  6  2  1  0  0  0  0
  7  5  1  0  0  0  0
  7  6  1  1  0  0  0
  8  9  1  0  0  0  0
  9 10  2  0  0  0  0
 10 13  1  0  0  0  0
 12  3  1  0  0  0  0
 13 17  2  0  0  0  0
 13 15  1  0  0  0  0
 15 14  1  0  0  0  0
 15 16  2  0  0  0  0
 17 18  1  0  0  0  0
 18 16  1  0  0  0  0
 18 20  1  0  0  0  0
 19 17  1  0  0  0  0
 20 21  1  0  0  0  0
 22 24  1  0  0  0  0
 23 26  1  0  0  0  0
 25 27  1  6  0  0  0
 25 23  1  0  0  0  0
 25 22  1  0  0  0  0
 26 21  1  1  0  0  0
 26 24  1  0  0  0  0
 28 30  1  6  0  0  0
 28 27  1  0  0  0  0
 29 28  1  0  0  0  0
 31 36  2  0  0  0  0
 31 32  1  0  0  0  0
 32 33  2  0  0  0  0
 33 34  1  0  0  0  0
 35 34  2  0  0  0  0
 36 35  1  0  0  0  0
 37 38  1  0  0  0  0
 37 32  1  0  0  0  0
 38 40  1  0  0  0  0
 38 41  1  0  0  0  0
 40 39  1  1  0  0  0
 40 41  1  0  0  0  0
 42 44  1  1  0  0  0
 42 40  1  0  0  0  0
 42 45  1  0  0  0  0
 44 46  1  0  0  0  0
 45 43  1  0  0  0  0
 46 49  1  6  0  0  0
 46 43  1  0  0  0  0
 47 49  1  0  0  0  0
 49 48  1  0  0  0  0
 50 49  2  0  0  0  0
M  END
>  <MODEL>
1

>  <REMARK>
 VINA RESULT:      -8.6      0.000      0.000
  Name = 
  11 active torsions:
  status: ('A' for Active; 'I' for Inactive)
    1  A    between atoms: C_1  and  C_44
    2  A    between atoms: C_4  and  C_31
    3  A    between atoms: N_5  and  C_12
    4  A    between atoms: N_5  and  C_41
    5  A    between atoms: N_6  and  C_7
    6  A    between atoms: N_6  and  N_15
    7  A    between atoms: S_9  and  C_47
    8  A    between atoms: S_9  and  C_50
    9  A    between atoms: C_26  and  C_32
   10  A    between atoms: C_27  and  P_28
   11  A    between atoms: N_39  and  C_50
                            x       y       z     vdW  Elec       q    Type
                         _______ _______ _______ _____ _____    ______ ____

>  <TORSDO>
F 11

$$$$
=
 OpenBabel10222419043D

 50 56  0  0  1  0  0  0  0  0999 V2000
  190.4070  177.8200  144.0280 C   0  0  1  0  0  3  0  0  0  0  0  0
  186.3830  178.4840  142.7070 C   0  0  0  0  0  2  0  0  0  0  0  0
  189.0540  176.9630  145.7950 C   0  0  0  0  0  2  0  0  0  0  0  0
  189.2040  178.0210  143.0900 C   0  0  2  0  0  3  0  0  0  0  0  0
  187.7380  177.1530  145.0400 C   0  0  2  0  0  3  0  0  0  0  0  0
  186.8890  177.1740  142.6990 O   0  0  0  0  0  0  0  0  0  0  0  0
  188.0350  177.1130  143.5260 C   0  0  1  0  0  3  0  0  0  0  0  0
  187.0730  178.4550  145.4990 C   0  0  0  0  0  2  0  0  0  0  0  0
  185.6500  178.5550  145.0360 C   0  0  0  0  0  3  0  0  0  0  0  0
  185.3110  178.6020  143.7440 C   0  0  0  0  0  0  0  0  0  0  0  0
  191.4550  178.7750  143.7010 N   0  0  0  0  0  1  0  0  0  0  0  0
  190.0130  178.0050  145.4260 N   0  0  0  0  0  2  0  0  0  0  0  0
  183.8900  178.7070  143.3350 C   0  0  0  0  0  0  0  0  0  0  0  0
  182.8190  179.1430  145.5590 N   0  0  0  0  0  1  0  0  0  0  0  0
  182.7920  178.9570  144.1470 C   0  0  0  0  0  0  0  0  0  0  0  0
  181.6560  178.9580  143.4270 N   0  0  0  0  0  0  0  0  0  0  0  0
  183.3320  178.5700  142.0710 C   0  0  0  0  0  0  0  0  0  0  0  0
  181.9950  178.7280  142.1690 N   0  0  0  0  0  0  0  0  0  0  0  0
  184.0580  178.3210  140.7900 C   0  0  0  0  0  1  0  0  0  0  0  0
  181.0320  178.6380  141.0830 C   0  0  0  0  0  2  0  0  0  0  0  0
  179.7820  179.9460  141.2450 S   0  0  0  0  0  0  0  0  0  0  0  0
  180.9480  179.9340  137.0910 S   0  0  0  0  0  0  0  0  0  0  0  0
  180.0060  181.5550  139.0410 C   0  0  0  0  0  2  0  0  0  0  0  0
  180.5940  179.2250  138.7330 C   0  0  0  0  0  2  0  0  0  0  0  0
  180.1690  181.5200  137.5380 C   0  0  1  0  0  3  0  0  0  0  0  0
  179.6320  180.1490  139.4460 C   0  0  1  0  0  3  0  0  0  0  0  0
  181.0070  182.6340  137.0970 N   0  0  0  0  0  2  0  0  0  0  0  0
  180.2340  183.5620  136.2670 C   0  0  2  0  0  3  0  0  0  0  0  0
  179.9160  182.9830  135.0320 O   0  0  0  0  0  1  0  0  0  0  0  0
  180.9720  184.8830  136.0700 C   0  0  0  0  0  1  0  0  0  0  0  0
  189.3840  178.2610  139.2910 C   0  0  0  0  0  3  0  0  0  0  0  0
  190.3270  177.2660  139.0010 C   0  0  0  0  0  0  0  0  0  0  0  0
  190.8920  176.5210  140.0430 C   0  0  0  0  0  3  0  0  0  0  0  0
  190.5180  176.7720  141.3670 C   0  0  0  0  0  3  0  0  0  0  0  0
  189.5750  177.7650  141.6580 C   0  0  0  0  0  0  0  0  0  0  0  0
  189.0060  178.5100  140.6140 C   0  0  0  0  0  3  0  0  0  0  0  0
  190.7150  176.9940  137.6530 N   0  0  0  0  0  2  0  0  0  0  0  0
  191.0600  175.6990  137.2350 N   0  0  0  0  0  0  0  0  0  0  0  0
  193.2180  176.8020  137.1350 O   0  0  0  0  0  1  0  0  0  0  0  0
  192.4630  175.6490  136.8920 C   0  0  2  0  0  0  0  0  0  0  0  0
  191.5260  175.8150  135.9280 O   0  0  0  0  0  0  0  0  0  0  0  0
  193.1090  174.2740  136.9220 C   0  0  2  0  0  3  0  0  0  0  0  0
  193.8930  172.6750  135.5780 C   0  0  0  0  0  2  0  0  0  0  0  0
  194.6080  174.4000  137.0530 C   0  0  0  0  0  2  0  0  0  0  0  0
  192.8280  173.5760  135.7380 O   0  0  0  0  0  0  0  0  0  0  0  0
  195.1250  173.2370  136.2600 C   0  0  1  0  0  3  0  0  0  0  0  0
  195.3860  170.4390  136.8540 O   0  0  0  0  0  0  0  0  0  0  0  0
  197.5180  172.1120  137.3780 O   0  0  0  0  0  1  0  0  0  0  0  0
  195.8310  171.9850  137.3770 P   0  0  0  0  0  0  0  0  0  0  0  0
  195.3130  172.2030  138.7780 O   0  0  0  0  0  1  0  0  0  0  0  0
  1 11  1  6  0  0  0
  1 12  1  0  0  0  0
  2 10  1  0  0  0  0
  4 35  1  6  0  0  0
  4  7  1  0  0  0  0
  4  1  1  0  0  0  0
  5  8  1  1  0  0  0
  5  3  1  0  0  0  0
  6  2  1  0  0  0  0
  7  6  1  6  0  0  0
  7  5  1  0  0  0  0
  9  8  1  0  0  0  0
 10  9  2  0  0  0  0
 12  3  1  0  0  0  0
 13 10  1  0  0  0  0
 13 15  1  0  0  0  0
 15 14  1  0  0  0  0
 16 15  2  0  0  0  0
 17 18  1  0  0  0  0
 17 13  2  0  0  0  0
 18 16  1  0  0  0  0
 19 17  1  0  0  0  0
 20 21  1  0  0  0  0
 20 18  1  0  0  0  0
 22 25  1  0  0  0  0
 22 24  1  0  0  0  0
 23 26  1  0  0  0  0
 24 26  1  0  0  0  0
 25 27  1  1  0  0  0
 25 23  1  0  0  0  0
 26 21  1  1  0  0  0
 28 30  1  6  0  0  0
 28 27  1  0  0  0  0
 29 28  1  0  0  0  0
 31 36  1  0  0  0  0
 32 31  2  0  0  0  0
 32 33  1  0  0  0  0
 33 34  2  0  0  0  0
 34 35  1  0  0  0  0
 36 35  2  0  0  0  0
 37 32  1  0  0  0  0
 38 37  1  0  0  0  0
 40 42  1  0  0  0  0
 40 39  1  1  0  0  0
 40 38  1  0  0  0  0
 41 40  1  0  0  0  0
 41 38  1  0  0  0  0
 42 44  1  6  0  0  0
 43 45  1  0  0  0  0
 43 46  1  0  0  0  0
 45 42  1  0  0  0  0
 46 44  1  0  0  0  0
 46 49  1  1  0  0  0
 47 49  2  0  0  0  0
 49 48  1  0  0  0  0
 49 50  1  0  0  0  0
M  END
>  <MODEL>
2

>  <REMARK>
 VINA RESULT:      -8.1      3.352      7.719
  Name = 
  11 active torsions:
  status: ('A' for Active; 'I' for Inactive)
    1  A    between atoms: C_1  and  C_44
    2  A    between atoms: C_4  and  C_31
    3  A    between atoms: N_5  and  C_12
    4  A    between atoms: N_5  and  C_41
    5  A    between atoms: N_6  and  C_7
    6  A    between atoms: N_6  and  N_15
    7  A    between atoms: S_9  and  C_47
    8  A    between atoms: S_9  and  C_50
    9  A    between atoms: C_26  and  C_32
   10  A    between atoms: C_27  and  P_28
   11  A    between atoms: N_39  and  C_50
                            x       y       z     vdW  Elec       q    Type
                         _______ _______ _______ _____ _____    ______ ____

>  <TORSDO>
F 11

$$$$
=
 OpenBabel10222419043D

 50 56  0  0  1  0  0  0  0  0999 V2000
  190.3900  177.8010  143.8710 C   0  0  1  0  0  3  0  0  0  0  0  0
  186.3620  178.4780  142.5680 C   0  0  0  0  0  2  0  0  0  0  0  0
  189.0420  176.9440  145.6420 C   0  0  0  0  0  2  0  0  0  0  0  0
  189.1840  178.0060  142.9380 C   0  0  2  0  0  3  0  0  0  0  0  0
  187.7230  177.1390  144.8920 C   0  0  2  0  0  3  0  0  0  0  0  0
  186.8640  177.1660  142.5550 O   0  0  0  0  0  0  0  0  0  0  0  0
  188.0140  177.1010  143.3770 C   0  0  1  0  0  3  0  0  0  0  0  0
  187.0630  178.4420  145.3560 C   0  0  0  0  0  2  0  0  0  0  0  0
  185.6400  178.5470  144.8990 C   0  0  0  0  0  3  0  0  0  0  0  0
  185.2950  178.5970  143.6100 C   0  0  0  0  0  0  0  0  0  0  0  0
  191.4400  178.7530  143.5410 N   0  0  0  0  0  1  0  0  0  0  0  0
  190.0020  177.9830  145.2700 N   0  0  0  0  0  2  0  0  0  0  0  0
  183.8730  178.7070  143.2060 C   0  0  0  0  0  0  0  0  0  0  0  0
  182.8160  179.1780  145.4310 N   0  0  0  0  0  1  0  0  0  0  0  0
  182.7800  178.9740  144.0210 C   0  0  0  0  0  0  0  0  0  0  0  0
  181.6410  178.9740  143.3070 N   0  0  0  0  0  0  0  0  0  0  0  0
  183.3070  178.5580  141.9470 C   0  0  0  0  0  0  0  0  0  0  0  0
  181.9720  178.7260  142.0500 N   0  0  0  0  0  0  0  0  0  0  0  0
  184.0240  178.2880  140.6650 C   0  0  0  0  0  1  0  0  0  0  0  0
  181.0030  178.6300  140.9700 C   0  0  0  0  0  2  0  0  0  0  0  0
  179.6000  177.5940  141.4800 S   0  0  0  0  0  0  0  0  0  0  0  0
  180.0200  174.2650  138.7680 S   0  0  0  0  0  0  0  0  0  0  0  0
  180.9400  176.7640  139.2410 C   0  0  0  0  0  2  0  0  0  0  0  0
  179.3220  175.2130  140.1600 C   0  0  0  0  0  2  0  0  0  0  0  0
  180.9220  175.7210  138.1460 C   0  0  1  0  0  3  0  0  0  0  0  0
  179.5890  176.6800  139.9100 C   0  0  1  0  0  3  0  0  0  0  0  0
  182.2890  175.3500  137.7840 N   0  0  0  0  0  2  0  0  0  0  0  0
  183.0470  176.5300  137.3590 C   0  0  2  0  0  3  0  0  0  0  0  0
  182.5330  177.0520  136.1650 O   0  0  0  0  0  1  0  0  0  0  0  0
  184.5330  176.2180  137.2160 C   0  0  0  0  0  1  0  0  0  0  0  0
  189.3760  178.2760  139.1420 C   0  0  0  0  0  3  0  0  0  0  0  0
  190.2870  177.2530  138.8430 C   0  0  0  0  0  0  0  0  0  0  0  0
  190.8250  176.4800  139.8780 C   0  0  0  0  0  3  0  0  0  0  0  0
  190.4580  176.7310  141.2050 C   0  0  0  0  0  3  0  0  0  0  0  0
  189.5480  177.7510  141.5040 C   0  0  0  0  0  0  0  0  0  0  0  0
  189.0050  178.5250  140.4670 C   0  0  0  0  0  3  0  0  0  0  0  0
  190.6670  176.9810  137.4930 N   0  0  0  0  0  2  0  0  0  0  0  0
  190.9620  175.6780  137.0620 N   0  0  0  0  0  0  0  0  0  0  0  0
  193.1530  176.7120  136.9250 O   0  0  0  0  0  1  0  0  0  0  0  0
  192.3560  175.5860  136.6910 C   0  0  2  0  0  0  0  0  0  0  0  0
  191.4070  175.7870  135.7460 O   0  0  0  0  0  0  0  0  0  0  0  0
  192.9580  174.1900  136.7010 C   0  0  2  0  0  3  0  0  0  0  0  0
  193.9440  172.6970  135.3690 C   0  0  0  0  0  2  0  0  0  0  0  0
  194.4100  174.2480  137.1120 C   0  0  0  0  0  2  0  0  0  0  0  0
  192.8860  173.6180  135.4220 O   0  0  0  0  0  0  0  0  0  0  0  0
  195.0410  173.1460  136.3140 C   0  0  1  0  0  3  0  0  0  0  0  0
  194.5220  170.4300  137.0930 O   0  0  0  0  0  0  0  0  0  0  0  0
  197.1230  171.3510  137.1430 O   0  0  0  0  0  1  0  0  0  0  0  0
  195.5050  171.7690  137.4110 P   0  0  0  0  0  0  0  0  0  0  0  0
  195.3280  172.1840  138.8520 O   0  0  0  0  0  1  0  0  0  0  0  0
  1 11  1  6  0  0  0
  1 12  1  0  0  0  0
  2 10  1  0  0  0  0
  4 35  1  6  0  0  0
  4  7  1  0  0  0  0
  4  1  1  0  0  0  0
  5  8  1  1  0  0  0
  5  3  1  0  0  0  0
  6  2  1  0  0  0  0
  7  6  1  6  0  0  0
  7  5  1  0  0  0  0
  9  8  1  0  0  0  0
 10  9  2  0  0  0  0
 12  3  1  0  0  0  0
 13 10  1  0  0  0  0
 13 15  1  0  0  0  0
 15 14  1  0  0  0  0
 16 15  2  0  0  0  0
 17 18  1  0  0  0  0
 17 13  2  0  0  0  0
 18 16  1  0  0  0  0
 19 17  1  0  0  0  0
 20 21  1  0  0  0  0
 20 18  1  0  0  0  0
 22 24  1  0  0  0  0
 23 26  1  0  0  0  0
 25 27  1  1  0  0  0
 25 22  1  0  0  0  0
 25 23  1  0  0  0  0
 26 24  1  0  0  0  0
 26 21  1  1  0  0  0
 28 30  1  6  0  0  0
 28 27  1  0  0  0  0
 29 28  1  0  0  0  0
 31 36  1  0  0  0  0
 32 31  2  0  0  0  0
 32 33  1  0  0  0  0
 33 34  2  0  0  0  0
 34 35  1  0  0  0  0
 36 35  2  0  0  0  0
 37 32  1  0  0  0  0
 38 37  1  0  0  0  0
 40 42  1  0  0  0  0
 40 39  1  1  0  0  0
 40 38  1  0  0  0  0
 41 40  1  0  0  0  0
 41 38  1  0  0  0  0
 42 44  1  6  0  0  0
 43 45  1  0  0  0  0
 43 46  1  0  0  0  0
 45 42  1  0  0  0  0
 46 44  1  0  0  0  0
 46 49  1  1  0  0  0
 47 49  2  0  0  0  0
 48 49  1  0  0  0  0
 49 50  1  0  0  0  0
M  END
>  <MODEL>
3

>  <REMARK>
 VINA RESULT:      -7.9      2.887      7.020
  Name = 
  11 active torsions:
  status: ('A' for Active; 'I' for Inactive)
    1  A    between atoms: C_1  and  C_44
    2  A    between atoms: C_4  and  C_31
    3  A    between atoms: N_5  and  C_12
    4  A    between atoms: N_5  and  C_41
    5  A    between atoms: N_6  and  C_7
    6  A    between atoms: N_6  and  N_15
    7  A    between atoms: S_9  and  C_47
    8  A    between atoms: S_9  and  C_50
    9  A    between atoms: C_26  and  C_32
   10  A    between atoms: C_27  and  P_28
   11  A    between atoms: N_39  and  C_50
                            x       y       z     vdW  Elec       q    Type
                         _______ _______ _______ _____ _____    ______ ____

>  <TORSDO>
F 11

$$$$
=
 OpenBabel10222419043D

 50 56  0  0  1  0  0  0  0  0999 V2000
  189.3090  177.9730  144.6800 C   0  0  1  0  0  3  0  0  0  0  0  0
  185.6700  178.5560  142.4900 C   0  0  0  0  0  2  0  0  0  0  0  0
  187.5930  177.2860  146.1880 C   0  0  0  0  0  2  0  0  0  0  0  0
  188.3350  178.1020  143.4970 C   0  0  2  0  0  3  0  0  0  0  0  0
  186.4700  177.4210  145.1590 C   0  0  2  0  0  3  0  0  0  0  0  0
  186.1300  177.2460  142.6980 O   0  0  0  0  0  0  0  0  0  0  0  0
  187.0760  177.2460  143.7510 C   0  0  1  0  0  3  0  0  0  0  0  0
  185.7590  178.7650  145.3570 C   0  0  0  0  0  2  0  0  0  0  0  0
  184.4690  178.8370  144.5980 C   0  0  0  0  0  3  0  0  0  0  0  0
  184.4090  178.7740  143.2650 C   0  0  0  0  0  0  0  0  0  0  0  0
  190.4280  178.8860  144.5030 N   0  0  0  0  0  1  0  0  0  0  0  0
  188.6370  178.2820  145.9430 N   0  0  0  0  0  2  0  0  0  0  0  0
  183.1080  178.8560  142.5580 C   0  0  0  0  0  0  0  0  0  0  0  0
  181.5350  178.7360  144.5070 N   0  0  0  0  0  1  0  0  0  0  0  0
  181.8370  178.8480  143.1200 C   0  0  0  0  0  0  0  0  0  0  0  0
  180.8930  178.9150  142.1650 N   0  0  0  0  0  0  0  0  0  0  0  0
  182.8570  178.9450  141.1950 C   0  0  0  0  0  0  0  0  0  0  0  0
  181.5230  178.9790  141.0020 N   0  0  0  0  0  0  0  0  0  0  0  0
  183.8690  179.0240  140.0990 C   0  0  0  0  0  1  0  0  0  0  0  0
  180.8360  179.0470  139.7220 C   0  0  0  0  0  2  0  0  0  0  0  0
  180.1670  177.4150  139.2840 S   0  0  0  0  0  0  0  0  0  0  0  0
  182.1710  175.8840  135.7830 S   0  0  0  0  0  0  0  0  0  0  0  0
  182.2010  175.7660  138.4850 C   0  0  0  0  0  2  0  0  0  0  0  0
  180.9900  176.9070  136.7240 C   0  0  0  0  0  2  0  0  0  0  0  0
  183.0690  175.4160  137.2980 C   0  0  1  0  0  3  0  0  0  0  0  0
  181.5260  177.0690  138.1290 C   0  0  1  0  0  3  0  0  0  0  0  0
  183.3540  173.9810  137.2910 N   0  0  0  0  0  2  0  0  0  0  0  0
  184.7660  173.7360  137.5970 C   0  0  2  0  0  3  0  0  0  0  0  0
  185.5670  174.7960  137.1530 O   0  0  0  0  0  1  0  0  0  0  0  0
  185.2450  172.4140  137.0060 C   0  0  0  0  0  1  0  0  0  0  0  0
  189.3170  178.0130  139.8160 C   0  0  0  0  0  3  0  0  0  0  0  0
  190.2660  176.9810  139.8140 C   0  0  0  0  0  0  0  0  0  0  0  0
  190.5740  176.3200  141.0080 C   0  0  0  0  0  3  0  0  0  0  0  0
  189.9380  176.6890  142.1980 C   0  0  0  0  0  3  0  0  0  0  0  0
  188.9890  177.7180  142.2020 C   0  0  0  0  0  0  0  0  0  0  0  0
  188.6780  178.3800  141.0040 C   0  0  0  0  0  3  0  0  0  0  0  0
  190.9200  176.5890  138.6050 N   0  0  0  0  0  2  0  0  0  0  0  0
  191.8410  175.5300  138.5800 N   0  0  0  0  0  0  0  0  0  0  0  0
  191.6440  176.0230  136.2130 O   0  0  0  0  0  1  0  0  0  0  0  0
  192.1740  175.2000  137.2120 C   0  0  2  0  0  0  0  0  0  0  0  0
  191.2310  174.4920  137.8790 O   0  0  0  0  0  0  0  0  0  0  0  0
  193.4900  174.4700  137.0040 C   0  0  2  0  0  3  0  0  0  0  0  0
  194.5920  173.2360  135.5070 C   0  0  0  0  0  2  0  0  0  0  0  0
  194.5350  175.4150  136.4610 C   0  0  0  0  0  2  0  0  0  0  0  0
  193.3270  173.4210  136.0860 O   0  0  0  0  0  0  0  0  0  0  0  0
  195.3590  174.5420  135.5610 C   0  0  1  0  0  3  0  0  0  0  0  0
  197.7340  175.7450  136.6400 O   0  0  0  0  0  1  0  0  0  0  0  0
  196.8330  173.3750  137.7300 O   0  0  0  0  0  1  0  0  0  0  0  0
  196.9990  174.2600  136.2980 P   0  0  0  0  0  0  0  0  0  0  0  0
  197.8660  173.4880  135.3320 O   0  0  0  0  0  0  0  0  0  0  0  0
  1 11  1  6  0  0  0
  1 12  1  0  0  0  0
  2  6  1  0  0  0  0
  2 10  1  0  0  0  0
  4 35  1  6  0  0  0
  4  7  1  0  0  0  0
  4  1  1  0  0  0  0
  5  8  1  6  0  0  0
  5  3  1  0  0  0  0
  7  6  1  6  0  0  0
  7  5  1  0  0  0  0
  9  8  1  0  0  0  0
 10  9  2  0  0  0  0
 12  3  1  0  0  0  0
 13 15  1  0  0  0  0
 13 10  1  0  0  0  0
 15 14  1  0  0  0  0
 16 15  2  0  0  0  0
 17 13  2  0  0  0  0
 18 17  1  0  0  0  0
 18 16  1  0  0  0  0
 19 17  1  0  0  0  0
 20 18  1  0  0  0  0
 21 20  1  0  0  0  0
 22 24  1  0  0  0  0
 22 25  1  0  0  0  0
 24 26  1  0  0  0  0
 25 27  1  6  0  0  0
 25 23  1  0  0  0  0
 26 23  1  0  0  0  0
 26 21  1  1  0  0  0
 27 28  1  0  0  0  0
 28 30  1  6  0  0  0
 29 28  1  0  0  0  0
 31 36  1  0  0  0  0
 32 31  2  0  0  0  0
 32 33  1  0  0  0  0
 33 34  2  0  0  0  0
 34 35  1  0  0  0  0
 36 35  2  0  0  0  0
 37 32  1  0  0  0  0
 38 37  1  0  0  0  0
 40 39  1  6  0  0  0
 40 41  1  0  0  0  0
 40 38  1  0  0  0  0
 41 38  1  0  0  0  0
 42 44  1  6  0  0  0
 42 40  1  0  0  0  0
 43 46  1  0  0  0  0
 43 45  1  0  0  0  0
 45 42  1  0  0  0  0
 46 49  1  1  0  0  0
 46 44  1  0  0  0  0
 49 47  1  0  0  0  0
 49 48  1  0  0  0  0
 50 49  2  0  0  0  0
M  END
>  <MODEL>
4

>  <REMARK>
 VINA RESULT:      -7.8      3.048      6.888
  Name = 
  11 active torsions:
  status: ('A' for Active; 'I' for Inactive)
    1  A    between atoms: C_1  and  C_44
    2  A    between atoms: C_4  and  C_31
    3  A    between atoms: N_5  and  C_12
    4  A    between atoms: N_5  and  C_41
    5  A    between atoms: N_6  and  C_7
    6  A    between atoms: N_6  and  N_15
    7  A    between atoms: S_9  and  C_47
    8  A    between atoms: S_9  and  C_50
    9  A    between atoms: C_26  and  C_32
   10  A    between atoms: C_27  and  P_28
   11  A    between atoms: N_39  and  C_50
                            x       y       z     vdW  Elec       q    Type
                         _______ _______ _______ _____ _____    ______ ____

>  <TORSDO>
F 11

$$$$
=
 OpenBabel10222419043D

 50 56  0  0  1  0  0  0  0  0999 V2000
  190.6140  177.7050  144.5740 C   0  0  1  0  0  3  0  0  0  0  0  0
  186.7070  178.4100  142.9560 C   0  0  0  0  0  2  0  0  0  0  0  0
  189.1230  176.8990  146.2520 C   0  0  0  0  0  2  0  0  0  0  0  0
  189.4850  177.9090  143.5490 C   0  0  2  0  0  3  0  0  0  0  0  0
  187.8680  177.0970  145.4010 C   0  0  2  0  0  3  0  0  0  0  0  0
  187.1890  177.0930  143.0050 O   0  0  0  0  0  0  0  0  0  0  0  0
  188.2730  177.0270  143.9140 C   0  0  1  0  0  3  0  0  0  0  0  0
  187.1940  178.4180  145.7910 C   0  0  0  0  0  2  0  0  0  0  0  0
  185.8110  178.5330  145.2250 C   0  0  0  0  0  3  0  0  0  0  0  0
  185.5660  178.5630  143.9120 C   0  0  0  0  0  0  0  0  0  0  0  0
  191.7000  178.6370  144.3090 N   0  0  0  0  0  1  0  0  0  0  0  0
  190.1240  177.9190  145.9370 N   0  0  0  0  0  2  0  0  0  0  0  0
  184.1800  178.6850  143.4000 C   0  0  0  0  0  0  0  0  0  0  0  0
  182.9360  178.9900  145.5540 N   0  0  0  0  0  1  0  0  0  0  0  0
  183.0200  178.8830  144.1360 C   0  0  0  0  0  0  0  0  0  0  0  0
  181.9430  178.9190  143.3310 N   0  0  0  0  0  0  0  0  0  0  0  0
  183.7220  178.6150  142.0900 C   0  0  0  0  0  0  0  0  0  0  0  0
  182.3810  178.7610  142.0920 N   0  0  0  0  0  0  0  0  0  0  0  0
  184.5480  178.4410  140.8580 C   0  0  0  0  0  1  0  0  0  0  0  0
  181.5060  178.7270  140.9310 C   0  0  0  0  0  2  0  0  0  0  0  0
  179.9440  179.5790  141.3000 S   0  0  0  0  0  0  0  0  0  0  0  0
  180.8780  180.1960  137.1330 S   0  0  0  0  0  0  0  0  0  0  0  0
  180.1500  181.5180  139.3780 C   0  0  0  0  0  2  0  0  0  0  0  0
  180.5690  179.2430  138.6570 C   0  0  0  0  0  2  0  0  0  0  0  0
  180.2270  181.7240  137.8820 C   0  0  1  0  0  3  0  0  0  0  0  0
  179.7090  180.0860  139.5720 C   0  0  1  0  0  3  0  0  0  0  0  0
  181.1100  182.8490  137.5760 N   0  0  0  0  0  2  0  0  0  0  0  0
  180.3270  184.0220  137.1740 C   0  0  2  0  0  3  0  0  0  0  0  0
  178.9780  183.6880  137.0010 O   0  0  0  0  0  1  0  0  0  0  0  0
  180.8900  184.6630  135.9100 C   0  0  0  0  0  1  0  0  0  0  0  0
  189.5330  177.4020  139.7730 C   0  0  0  0  0  3  0  0  0  0  0  0
  190.8880  177.1110  139.5550 C   0  0  0  0  0  0  0  0  0  0  0  0
  191.7710  177.0760  140.6400 C   0  0  0  0  0  3  0  0  0  0  0  0
  191.3050  177.3330  141.9330 C   0  0  0  0  0  3  0  0  0  0  0  0
  189.9530  177.6220  142.1520 C   0  0  0  0  0  0  0  0  0  0  0  0
  189.0660  177.6550  141.0650 C   0  0  0  0  0  3  0  0  0  0  0  0
  191.3780  176.8400  138.2410 N   0  0  0  0  0  2  0  0  0  0  0  0
  190.5070  176.5520  137.1780 N   0  0  0  0  0  0  0  0  0  0  0  0
  191.2770  174.3250  137.7550 O   0  0  0  0  0  1  0  0  0  0  0  0
  190.5280  175.1350  136.8940 C   0  0  2  0  0  0  0  0  0  0  0  0
  191.2860  175.9910  136.1690 O   0  0  0  0  0  0  0  0  0  0  0  0
  189.3150  174.5830  136.1650 C   0  0  2  0  0  3  0  0  0  0  0  0
  188.7050  172.9700  134.7490 C   0  0  0  0  0  2  0  0  0  0  0  0
  188.5790  173.5980  137.0400 C   0  0  0  0  0  2  0  0  0  0  0  0
  189.7100  173.9190  134.9930 O   0  0  0  0  0  0  0  0  0  0  0  0
  188.0520  172.5900  136.0620 C   0  0  1  0  0  3  0  0  0  0  0  0
  185.6430  171.5210  134.9200 O   0  0  0  0  0  0  0  0  0  0  0  0
  185.5380  172.6230  137.4480 O   0  0  0  0  0  1  0  0  0  0  0  0
  186.2450  172.7480  135.9160 P   0  0  0  0  0  0  0  0  0  0  0  0
  185.8980  174.0900  135.3150 O   0  0  0  0  0  1  0  0  0  0  0  0
  1 11  1  6  0  0  0
  1 12  1  0  0  0  0
  2  6  1  0  0  0  0
  2 10  1  0  0  0  0
  4 35  1  6  0  0  0
  4  7  1  0  0  0  0
  4  1  1  0  0  0  0
  5  8  1  6  0  0  0
  5  3  1  0  0  0  0
  7  6  1  6  0  0  0
  7  5  1  0  0  0  0
  9  8  1  0  0  0  0
 10  9  2  0  0  0  0
 12  3  1  0  0  0  0
 13 10  1  0  0  0  0
 13 15  1  0  0  0  0
 15 14  1  0  0  0  0
 16 15  2  0  0  0  0
 17 18  1  0  0  0  0
 17 13  2  0  0  0  0
 18 16  1  0  0  0  0
 19 17  1  0  0  0  0
 20 21  1  0  0  0  0
 20 18  1  0  0  0  0
 22 25  1  0  0  0  0
 22 24  1  0  0  0  0
 23 26  1  0  0  0  0
 24 26  1  0  0  0  0
 25 27  1  1  0  0  0
 25 23  1  0  0  0  0
 26 21  1  1  0  0  0
 28 30  1  6  0  0  0
 28 27  1  0  0  0  0
 29 28  1  0  0  0  0
 31 36  1  0  0  0  0
 32 31  2  0  0  0  0
 32 33  1  0  0  0  0
 33 34  2  0  0  0  0
 34 35  1  0  0  0  0
 36 35  2  0  0  0  0
 37 32  1  0  0  0  0
 38 37  1  0  0  0  0
 40 38  1  0  0  0  0
 40 39  1  1  0  0  0
 41 40  1  0  0  0  0
 41 38  1  0  0  0  0
 42 40  1  0  0  0  0
 42 44  1  1  0  0  0
 43 45  1  0  0  0  0
 43 46  1  0  0  0  0
 45 42  1  0  0  0  0
 46 49  1  6  0  0  0
 46 44  1  0  0  0  0
 47 49  2  0  0  0  0
 49 48  1  0  0  0  0
 50 49  1  0  0  0  0
M  END
>  <MODEL>
5

>  <REMARK>
 VINA RESULT:      -7.5      3.617      8.349
  Name = 
  11 active torsions:
  status: ('A' for Active; 'I' for Inactive)
    1  A    between atoms: C_1  and  C_44
    2  A    between atoms: C_4  and  C_31
    3  A    between atoms: N_5  and  C_12
    4  A    between atoms: N_5  and  C_41
    5  A    between atoms: N_6  and  C_7
    6  A    between atoms: N_6  and  N_15
    7  A    between atoms: S_9  and  C_47
    8  A    between atoms: S_9  and  C_50
    9  A    between atoms: C_26  and  C_32
   10  A    between atoms: C_27  and  P_28
   11  A    between atoms: N_39  and  C_50
                            x       y       z     vdW  Elec       q    Type
                         _______ _______ _______ _____ _____    ______ ____

>  <TORSDO>
F 11

$$$$
=
 OpenBabel10222419043D

 50 56  0  0  1  0  0  0  0  0999 V2000
  189.1360  177.4490  146.0660 C   0  0  1  0  0  3  0  0  0  0  0  0
  188.7950  177.3410  141.7940 C   0  0  0  0  0  2  0  0  0  0  0  0
  191.2700  178.1710  145.2820 C   0  0  0  0  0  2  0  0  0  0  0  0
  188.5120  177.4900  144.6600 C   0  0  2  0  0  3  0  0  0  0  0  0
  190.8510  178.2080  143.8120 C   0  0  2  0  0  3  0  0  0  0  0  0
  188.8090  178.5880  142.4380 O   0  0  0  0  0  0  0  0  0  0  0  0
  189.3250  178.4310  143.7460 C   0  0  1  0  0  3  0  0  0  0  0  0
  191.3110  176.9200  143.1210 C   0  0  0  0  0  2  0  0  0  0  0  0
  191.2100  177.0130  141.6280 C   0  0  0  0  0  3  0  0  0  0  0  0
  190.0470  177.1770  140.9910 C   0  0  0  0  0  0  0  0  0  0  0  0
  188.4520  176.4590  146.8840 N   0  0  0  0  0  1  0  0  0  0  0  0
  190.5580  177.1090  145.9930 N   0  0  0  0  0  2  0  0  0  0  0  0
  189.9960  177.2580  139.5120 C   0  0  0  0  0  0  0  0  0  0  0  0
  192.2600  176.3450  138.9390 N   0  0  0  0  0  1  0  0  0  0  0  0
  190.9810  176.8780  138.6080 C   0  0  0  0  0  0  0  0  0  0  0  0
  190.5900  177.1200  137.3450 N   0  0  0  0  0  0  0  0  0  0  0  0
  188.9790  177.7370  138.6960 C   0  0  0  0  0  0  0  0  0  0  0  0
  189.3720  177.6360  137.4090 N   0  0  0  0  0  0  0  0  0  0  0  0
  187.6470  178.2540  139.1310 C   0  0  0  0  0  1  0  0  0  0  0  0
  188.6130  178.0470  136.2390 C   0  0  0  0  0  2  0  0  0  0  0  0
  188.9830  176.9530  134.8370 S   0  0  0  0  0  0  0  0  0  0  0  0
  184.7190  176.7710  135.4690 S   0  0  0  0  0  0  0  0  0  0  0  0
  187.0220  175.4750  136.0480 C   0  0  0  0  0  2  0  0  0  0  0  0
  186.2850  177.4060  134.7840 C   0  0  0  0  0  2  0  0  0  0  0  0
  185.5260  175.2530  136.0730 C   0  0  1  0  0  3  0  0  0  0  0  0
  187.2960  176.2810  134.8010 C   0  0  1  0  0  3  0  0  0  0  0  0
  185.0860  174.9570  137.4360 N   0  0  0  0  0  2  0  0  0  0  0  0
  184.6900  173.5510  137.5550 C   0  0  2  0  0  3  0  0  0  0  0  0
  185.7660  172.7630  137.9850 O   0  0  0  0  0  1  0  0  0  0  0  0
  184.1210  173.0170  136.2450 C   0  0  0  0  0  1  0  0  0  0  0  0
  185.1930  178.9300  145.8570 C   0  0  0  0  0  3  0  0  0  0  0  0
  184.3780  178.6990  144.7390 C   0  0  0  0  0  0  0  0  0  0  0  0
  184.9140  178.0720  143.6090 C   0  0  0  0  0  3  0  0  0  0  0  0
  186.2570  177.6800  143.5950 C   0  0  0  0  0  3  0  0  0  0  0  0
  187.0710  177.9090  144.7110 C   0  0  0  0  0  0  0  0  0  0  0  0
  186.5340  178.5360  145.8460 C   0  0  0  0  0  3  0  0  0  0  0  0
  183.0040  179.0880  144.7410 N   0  0  0  0  0  2  0  0  0  0  0  0
  182.0030  178.2500  144.2240 N   0  0  0  0  0  0  0  0  0  0  0  0
  181.8630  180.1280  142.6940 O   0  0  0  0  0  1  0  0  0  0  0  0
  181.3420  178.8990  143.1140 C   0  0  2  0  0  0  0  0  0  0  0  0
  180.8010  178.9420  144.3540 O   0  0  0  0  0  0  0  0  0  0  0  0
  180.6250  177.9820  142.1360 C   0  0  2  0  0  3  0  0  0  0  0  0
  179.0220  177.9840  140.5860 C   0  0  0  0  0  2  0  0  0  0  0  0
  181.3860  177.9030  140.8350 C   0  0  0  0  0  2  0  0  0  0  0  0
  179.3380  178.4710  141.8640 O   0  0  0  0  0  0  0  0  0  0  0  0
  180.3030  177.7640  139.8070 C   0  0  1  0  0  3  0  0  0  0  0  0
  179.2110  175.9830  137.8350 O   0  0  0  0  0  0  0  0  0  0  0  0
  181.8650  175.7130  138.5430 O   0  0  0  0  0  1  0  0  0  0  0  0
  180.3150  176.0810  139.1130 P   0  0  0  0  0  0  0  0  0  0  0  0
  179.9270  175.0860  140.1810 O   0  0  0  0  0  1  0  0  0  0  0  0
  1 11  1  1  0  0  0
  2  6  1  0  0  0  0
  3 12  1  0  0  0  0
  4 35  1  1  0  0  0
  4  1  1  0  0  0  0
  5  8  1  1  0  0  0
  5  3  1  0  0  0  0
  7  6  1  6  0  0  0
  7  5  1  0  0  0  0
  7  4  1  0  0  0  0
  9  8  1  0  0  0  0
 10  9  2  0  0  0  0
 10  2  1  0  0  0  0
 12  1  1  0  0  0  0
 13 10  1  0  0  0  0
 15 14  1  0  0  0  0
 15 13  1  0  0  0  0
 16 18  1  0  0  0  0
 16 15  2  0  0  0  0
 17 19  1  0  0  0  0
 17 13  2  0  0  0  0
 18 17  1  0  0  0  0
 20 18  1  0  0  0  0
 21 20  1  0  0  0  0
 22 25  1  0  0  0  0
 23 25  1  0  0  0  0
 24 26  1  0  0  0  0
 24 22  1  0  0  0  0
 25 27  1  1  0  0  0
 26 21  1  1  0  0  0
 26 23  1  0  0  0  0
 27 28  1  0  0  0  0
 28 30  1  6  0  0  0
 28 29  1  0  0  0  0
 32 37  1  0  0  0  0
 32 31  2  0  0  0  0
 33 32  1  0  0  0  0
 34 33  2  0  0  0  0
 34 35  1  0  0  0  0
 35 36  2  0  0  0  0
 36 31  1  0  0  0  0
 38 41  1  0  0  0  0
 38 37  1  0  0  0  0
 40 39  1  6  0  0  0
 40 38  1  0  0  0  0
 40 41  1  0  0  0  0
 42 44  1  6  0  0  0
 42 40  1  0  0  0  0
 43 45  1  0  0  0  0
 45 42  1  0  0  0  0
 46 49  1  1  0  0  0
 46 43  1  0  0  0  0
 46 44  1  0  0  0  0
 47 49  2  0  0  0  0
 48 49  1  0  0  0  0
 49 50  1  0  0  0  0
M  END
>  <MODEL>
6

>  <REMARK>
 VINA RESULT:      -7.5      4.704     10.969
  Name = 
  11 active torsions:
  status: ('A' for Active; 'I' for Inactive)
    1  A    between atoms: C_1  and  C_44
    2  A    between atoms: C_4  and  C_31
    3  A    between atoms: N_5  and  C_12
    4  A    between atoms: N_5  and  C_41
    5  A    between atoms: N_6  and  C_7
    6  A    between atoms: N_6  and  N_15
    7  A    between atoms: S_9  and  C_47
    8  A    between atoms: S_9  and  C_50
    9  A    between atoms: C_26  and  C_32
   10  A    between atoms: C_27  and  P_28
   11  A    between atoms: N_39  and  C_50
                            x       y       z     vdW  Elec       q    Type
                         _______ _______ _______ _____ _____    ______ ____

>  <TORSDO>
F 11

$$$$
=
 OpenBabel10222419043D

 50 56  0  0  1  0  0  0  0  0999 V2000
  189.0950  177.7090  145.8030 C   0  0  1  0  0  3  0  0  0  0  0  0
  188.7660  177.3550  141.5440 C   0  0  0  0  0  2  0  0  0  0  0  0
  191.2010  178.4680  144.9800 C   0  0  0  0  0  2  0  0  0  0  0  0
  188.4720  177.6500  144.3980 C   0  0  2  0  0  3  0  0  0  0  0  0
  190.7830  178.4080  143.5110 C   0  0  2  0  0  3  0  0  0  0  0  0
  188.7310  178.6350  142.1190 O   0  0  0  0  0  0  0  0  0  0  0  0
  189.2500  178.5690  143.4340 C   0  0  1  0  0  3  0  0  0  0  0  0
  191.2940  177.1030  142.8910 C   0  0  0  0  0  2  0  0  0  0  0  0
  191.1910  177.1110  141.3950 C   0  0  0  0  0  3  0  0  0  0  0  0
  190.0240  177.1960  140.7510 C   0  0  0  0  0  0  0  0  0  0  0  0
  188.4490  176.7400  146.6740 N   0  0  0  0  0  1  0  0  0  0  0  0
  190.5290  177.4200  145.7490 N   0  0  0  0  0  2  0  0  0  0  0  0
  189.9730  177.1930  139.2690 C   0  0  0  0  0  0  0  0  0  0  0  0
  187.6580  178.0840  138.9040 N   0  0  0  0  0  1  0  0  0  0  0  0
  188.9200  177.5980  138.4580 C   0  0  0  0  0  0  0  0  0  0  0  0
  189.2260  177.4300  137.1590 N   0  0  0  0  0  0  0  0  0  0  0  0
  190.9390  176.7800  138.3610 C   0  0  0  0  0  0  0  0  0  0  0  0
  190.4550  176.9400  137.1120 N   0  0  0  0  0  0  0  0  0  0  0  0
  192.3070  176.2710  138.6740 C   0  0  0  0  0  1  0  0  0  0  0  0
  191.1370  176.6060  135.8710 C   0  0  0  0  0  2  0  0  0  0  0  0
  190.5180  175.0260  135.2220 S   0  0  0  0  0  0  0  0  0  0  0  0
  194.0490  172.7990  136.3120 S   0  0  0  0  0  0  0  0  0  0  0  0
  193.2110  175.2840  135.6490 C   0  0  0  0  0  2  0  0  0  0  0  0
  192.2960  173.0520  135.8810 C   0  0  0  0  0  2  0  0  0  0  0  0
  194.4890  174.4860  135.7820 C   0  0  1  0  0  3  0  0  0  0  0  0
  192.1890  174.3290  135.0770 C   0  0  1  0  0  3  0  0  0  0  0  0
  195.3680  175.1110  136.7690 N   0  0  0  0  0  2  0  0  0  0  0  0
  196.7720  174.9550  136.3780 C   0  0  2  0  0  3  0  0  0  0  0  0
  197.6270  175.2760  137.4400 O   0  0  0  0  0  1  0  0  0  0  0  0
  197.1060  175.7910  135.1460 C   0  0  0  0  0  1  0  0  0  0  0  0
  185.0720  178.9160  145.5640 C   0  0  0  0  0  3  0  0  0  0  0  0
  184.2970  178.7090  144.4140 C   0  0  0  0  0  0  0  0  0  0  0  0
  184.8860  178.1530  143.2730 C   0  0  0  0  0  3  0  0  0  0  0  0
  186.2420  177.8090  143.2790 C   0  0  0  0  0  3  0  0  0  0  0  0
  187.0160  178.0150  144.4260 C   0  0  0  0  0  0  0  0  0  0  0  0
  186.4270  178.5700  145.5720 C   0  0  0  0  0  3  0  0  0  0  0  0
  182.9100  179.0490  144.3940 N   0  0  0  0  0  2  0  0  0  0  0  0
  181.9510  178.1890  143.8360 N   0  0  0  0  0  0  0  0  0  0  0  0
  181.3040  180.3030  142.8380 O   0  0  0  0  0  1  0  0  0  0  0  0
  181.0280  178.9430  143.0190 C   0  0  2  0  0  0  0  0  0  0  0  0
  180.7110  178.6260  144.2970 O   0  0  0  0  0  0  0  0  0  0  0  0
  180.2750  178.1540  141.9610 C   0  0  2  0  0  3  0  0  0  0  0  0
  178.9310  178.4210  140.2000 C   0  0  0  0  0  2  0  0  0  0  0  0
  181.1720  177.8690  140.7810 C   0  0  0  0  0  2  0  0  0  0  0  0
  179.1660  178.8830  141.5050 O   0  0  0  0  0  0  0  0  0  0  0  0
  180.2320  177.9120  139.6120 C   0  0  1  0  0  3  0  0  0  0  0  0
  179.4930  176.3310  137.3310 O   0  0  0  0  0  0  0  0  0  0  0  0
  181.4410  175.3730  139.0350 O   0  0  0  0  0  1  0  0  0  0  0  0
  179.9890  176.2360  138.9460 P   0  0  0  0  0  0  0  0  0  0  0  0
  178.9310  175.5170  139.7480 O   0  0  0  0  0  1  0  0  0  0  0  0
  1 11  1  1  0  0  0
  2  6  1  0  0  0  0
  3 12  1  0  0  0  0
  4 35  1  1  0  0  0
  4  1  1  0  0  0  0
  5  8  1  1  0  0  0
  5  3  1  0  0  0  0
  7  6  1  6  0  0  0
  7  5  1  0  0  0  0
  7  4  1  0  0  0  0
  9  8  1  0  0  0  0
 10  9  2  0  0  0  0
 10  2  1  0  0  0  0
 12  1  1  0  0  0  0
 13 10  1  0  0  0  0
 15 14  1  0  0  0  0
 15 13  1  0  0  0  0
 16 15  2  0  0  0  0
 17 19  1  0  0  0  0
 17 13  2  0  0  0  0
 18 16  1  0  0  0  0
 18 17  1  0  0  0  0
 20 18  1  0  0  0  0
 21 20  1  0  0  0  0
 23 25  1  0  0  0  0
 24 22  1  0  0  0  0
 25 22  1  0  0  0  0
 25 27  1  1  0  0  0
 26 21  1  1  0  0  0
 26 23  1  0  0  0  0
 26 24  1  0  0  0  0
 28 30  1  6  0  0  0
 28 27  1  0  0  0  0
 28 29  1  0  0  0  0
 31 36  1  0  0  0  0
 32 31  2  0  0  0  0
 33 34  2  0  0  0  0
 33 32  1  0  0  0  0
 34 35  1  0  0  0  0
 35 36  2  0  0  0  0
 37 32  1  0  0  0  0
 38 41  1  0  0  0  0
 38 37  1  0  0  0  0
 40 39  1  6  0  0  0
 40 38  1  0  0  0  0
 40 41  1  0  0  0  0
 42 44  1  6  0  0  0
 42 40  1  0  0  0  0
 43 45  1  0  0  0  0
 45 42  1  0  0  0  0
 46 49  1  1  0  0  0
 46 43  1  0  0  0  0
 46 44  1  0  0  0  0
 47 49  2  0  0  0  0
 49 48  1  0  0  0  0
 49 50  1  0  0  0  0
M  END
>  <MODEL>
7

>  <REMARK>
 VINA RESULT:      -7.4      4.559     11.091
  Name = 
  11 active torsions:
  status: ('A' for Active; 'I' for Inactive)
    1  A    between atoms: C_1  and  C_44
    2  A    between atoms: C_4  and  C_31
    3  A    between atoms: N_5  and  C_12
    4  A    between atoms: N_5  and  C_41
    5  A    between atoms: N_6  and  C_7
    6  A    between atoms: N_6  and  N_15
    7  A    between atoms: S_9  and  C_47
    8  A    between atoms: S_9  and  C_50
    9  A    between atoms: C_26  and  C_32
   10  A    between atoms: C_27  and  P_28
   11  A    between atoms: N_39  and  C_50
                            x       y       z     vdW  Elec       q    Type
                         _______ _______ _______ _____ _____    ______ ____

>  <TORSDO>
F 11

$$$$
=
 OpenBabel10222419043D

 50 56  0  0  1  0  0  0  0  0999 V2000
  190.7910  177.6390  144.4700 C   0  0  1  0  0  3  0  0  0  0  0  0
  186.8410  178.3110  142.9460 C   0  0  0  0  0  2  0  0  0  0  0  0
  189.3470  176.8340  146.1890 C   0  0  0  0  0  2  0  0  0  0  0  0
  189.6360  177.8290  143.4720 C   0  0  2  0  0  3  0  0  0  0  0  0
  188.0710  177.0190  145.3690 C   0  0  2  0  0  3  0  0  0  0  0  0
  187.3330  176.9960  142.9900 O   0  0  0  0  0  0  0  0  0  0  0  0
  188.4380  176.9430  143.8720 C   0  0  1  0  0  3  0  0  0  0  0  0
  187.3980  178.3370  145.7670 C   0  0  0  0  0  2  0  0  0  0  0  0
  186.0010  178.4410  145.2350 C   0  0  0  0  0  3  0  0  0  0  0  0
  185.7230  178.4620  143.9290 C   0  0  0  0  0  0  0  0  0  0  0  0
  191.8640  178.5760  144.1720 N   0  0  0  0  0  1  0  0  0  0  0  0
  190.3340  177.8570  145.8430 N   0  0  0  0  0  2  0  0  0  0  0  0
  184.3240  178.5720  143.4500 C   0  0  0  0  0  0  0  0  0  0  0  0
  183.1410  178.9610  145.6260 N   0  0  0  0  0  1  0  0  0  0  0  0
  183.1850  178.8030  144.2110 C   0  0  0  0  0  0  0  0  0  0  0  0
  182.0870  178.8150  143.4350 N   0  0  0  0  0  0  0  0  0  0  0  0
  183.8300  178.4580  142.1570 C   0  0  0  0  0  0  0  0  0  0  0  0
  182.4900  178.6110  142.1910 N   0  0  0  0  0  0  0  0  0  0  0  0
  184.6210  178.2350  140.9100 C   0  0  0  0  0  1  0  0  0  0  0  0
  181.5830  178.5390  141.0560 C   0  0  0  0  0  2  0  0  0  0  0  0
  180.6140  180.0710  140.9330 S   0  0  0  0  0  0  0  0  0  0  0  0
  179.5970  178.1230  137.2200 S   0  0  0  0  0  0  0  0  0  0  0  0
  181.6220  179.4010  138.4770 C   0  0  0  0  0  2  0  0  0  0  0  0
  179.3120  178.7990  138.8890 C   0  0  0  0  0  2  0  0  0  0  0  0
  181.2150  178.9510  137.0920 C   0  0  1  0  0  3  0  0  0  0  0  0
  180.3520  179.8670  139.1470 C   0  0  1  0  0  3  0  0  0  0  0  0
  182.2110  178.0270  136.5520 N   0  0  0  0  0  2  0  0  0  0  0  0
  183.0790  177.5240  137.6200 C   0  0  2  0  0  3  0  0  0  0  0  0
  184.4300  177.6660  137.2770 O   0  0  0  0  0  1  0  0  0  0  0  0
  182.7590  176.0730  137.9640 C   0  0  0  0  0  1  0  0  0  0  0  0
  189.5720  177.1600  139.7210 C   0  0  0  0  0  3  0  0  0  0  0  0
  190.9410  177.0240  139.4470 C   0  0  0  0  0  0  0  0  0  0  0  0
  191.8710  177.1450  140.4850 C   0  0  0  0  0  3  0  0  0  0  0  0
  191.4370  177.4030  141.7900 C   0  0  0  0  0  3  0  0  0  0  0  0
  190.0710  177.5380  142.0650 C   0  0  0  0  0  0  0  0  0  0  0  0
  189.1370  177.4150  141.0250 C   0  0  0  0  0  3  0  0  0  0  0  0
  191.3990  176.7550  138.1210 N   0  0  0  0  0  2  0  0  0  0  0  0
  190.5040  176.4650  137.0790 N   0  0  0  0  0  0  0  0  0  0  0  0
  191.3620  174.2500  137.5750 O   0  0  0  0  0  1  0  0  0  0  0  0
  190.5600  175.0560  136.7590 C   0  0  2  0  0  0  0  0  0  0  0  0
  191.2660  175.9540  136.0320 O   0  0  0  0  0  0  0  0  0  0  0  0
  189.3410  174.4830  136.0550 C   0  0  2  0  0  3  0  0  0  0  0  0
  188.7410  172.9080  134.5940 C   0  0  0  0  0  2  0  0  0  0  0  0
  188.6850  173.4300  136.9140 C   0  0  0  0  0  2  0  0  0  0  0  0
  189.7140  173.8890  134.8390 O   0  0  0  0  0  0  0  0  0  0  0  0
  188.1600  172.4430  135.9140 C   0  0  1  0  0  3  0  0  0  0  0  0
  185.7250  171.0710  135.2520 O   0  0  0  0  0  1  0  0  0  0  0  0
  185.7310  172.8020  137.4010 O   0  0  0  0  0  1  0  0  0  0  0  0
  186.3440  172.5280  135.8480 P   0  0  0  0  0  0  0  0  0  0  0  0
  185.9190  173.6560  134.9380 O   0  0  0  0  0  0  0  0  0  0  0  0
  1 11  1  6  0  0  0
  1 12  1  0  0  0  0
  2  6  1  0  0  0  0
  2 10  1  0  0  0  0
  4 35  1  6  0  0  0
  4  7  1  0  0  0  0
  4  1  1  0  0  0  0
  5  8  1  6  0  0  0
  5  3  1  0  0  0  0
  7  6  1  6  0  0  0
  7  5  1  0  0  0  0
  9  8  1  0  0  0  0
 10  9  2  0  0  0  0
 12  3  1  0  0  0  0
 13 10  1  0  0  0  0
 13 15  1  0  0  0  0
 15 14  1  0  0  0  0
 16 15  2  0  0  0  0
 17 18  1  0  0  0  0
 17 13  2  0  0  0  0
 18 16  1  0  0  0  0
 19 17  1  0  0  0  0
 20 18  1  0  0  0  0
 21 20  1  0  0  0  0
 22 24  1  0  0  0  0
 23 26  1  0  0  0  0
 24 26  1  0  0  0  0
 25 27  1  1  0  0  0
 25 22  1  0  0  0  0
 25 23  1  0  0  0  0
 26 21  1  1  0  0  0
 27 28  1  0  0  0  0
 28 30  1  6  0  0  0
 29 28  1  0  0  0  0
 31 36  1  0  0  0  0
 32 31  2  0  0  0  0
 32 33  1  0  0  0  0
 33 34  2  0  0  0  0
 34 35  1  0  0  0  0
 36 35  2  0  0  0  0
 37 32  1  0  0  0  0
 38 37  1  0  0  0  0
 40 38  1  0  0  0  0
 40 39  1  1  0  0  0
 41 40  1  0  0  0  0
 41 38  1  0  0  0  0
 42 40  1  0  0  0  0
 42 44  1  1  0  0  0
 43 45  1  0  0  0  0
 43 46  1  0  0  0  0
 45 42  1  0  0  0  0
 46 49  1  6  0  0  0
 46 44  1  0  0  0  0
 47 49  1  0  0  0  0
 49 48  1  0  0  0  0
 50 49  2  0  0  0  0
M  END
>  <MODEL>
8

>  <REMARK>
 VINA RESULT:      -7.2      3.201      7.844
  Name = 
  11 active torsions:
  status: ('A' for Active; 'I' for Inactive)
    1  A    between atoms: C_1  and  C_44
    2  A    between atoms: C_4  and  C_31
    3  A    between atoms: N_5  and  C_12
    4  A    between atoms: N_5  and  C_41
    5  A    between atoms: N_6  and  C_7
    6  A    between atoms: N_6  and  N_15
    7  A    between atoms: S_9  and  C_47
    8  A    between atoms: S_9  and  C_50
    9  A    between atoms: C_26  and  C_32
   10  A    between atoms: C_27  and  P_28
   11  A    between atoms: N_39  and  C_50
                            x       y       z     vdW  Elec       q    Type
                         _______ _______ _______ _____ _____    ______ ____

>  <TORSDO>
F 11

$$$$
=
 OpenBabel10222419043D

 50 56  0  0  1  0  0  0  0  0999 V2000
  189.4040  177.3600  136.3910 C   0  0  1  0  0  3  0  0  0  0  0  0
  189.3870  177.3940  140.6780 C   0  0  0  0  0  2  0  0  0  0  0  0
  191.2840  176.0270  137.0030 C   0  0  0  0  0  2  0  0  0  0  0  0
  188.8870  177.4450  137.8370 C   0  0  2  0  0  3  0  0  0  0  0  0
  190.9690  176.0540  138.4980 C   0  0  2  0  0  3  0  0  0  0  0  0
  188.9980  176.2220  140.0110 O   0  0  0  0  0  0  0  0  0  0  0  0
  189.4510  176.2760  138.6720 C   0  0  1  0  0  3  0  0  0  0  0  0
  191.8260  177.1280  139.1780 C   0  0  0  0  0  2  0  0  0  0  0  0
  191.7980  177.0090  140.6720 C   0  0  0  0  0  3  0  0  0  0  0  0
  190.6820  177.1600  141.3900 C   0  0  0  0  0  0  0  0  0  0  0  0
  188.9840  178.5360  135.6440 N   0  0  0  0  0  1  0  0  0  0  0  0
  190.8650  177.2750  136.3650 N   0  0  0  0  0  2  0  0  0  0  0  0
  190.7060  177.0400  142.8670 C   0  0  0  0  0  0  0  0  0  0  0  0
  190.8580  174.5490  143.1070 N   0  0  0  0  0  1  0  0  0  0  0  0
  190.7930  175.8760  143.6200 C   0  0  0  0  0  0  0  0  0  0  0  0
  190.7640  176.1550  144.9350 N   0  0  0  0  0  0  0  0  0  0  0  0
  190.6330  178.0410  143.8280 C   0  0  0  0  0  0  0  0  0  0  0  0
  190.6720  177.4710  145.0500 N   0  0  0  0  0  0  0  0  0  0  0  0
  190.5560  179.5130  143.5870 C   0  0  0  0  0  1  0  0  0  0  0  0
  190.5980  178.1610  146.3280 C   0  0  0  0  0  2  0  0  0  0  0  0
  189.4200  177.3190  147.4250 S   0  0  0  0  0  0  0  0  0  0  0  0
  185.3450  178.6610  146.9690 S   0  0  0  0  0  0  0  0  0  0  0  0
  187.5090  177.8790  145.5460 C   0  0  0  0  0  2  0  0  0  0  0  0
  186.8840  178.2510  147.8570 C   0  0  0  0  0  2  0  0  0  0  0  0
  186.1820  178.5790  145.3520 C   0  0  1  0  0  3  0  0  0  0  0  0
  188.0330  178.3570  146.8800 C   0  0  1  0  0  3  0  0  0  0  0  0
  185.3600  177.8370  144.3970 N   0  0  0  0  0  2  0  0  0  0  0  0
  184.4370  178.7400  143.7040 C   0  0  2  0  0  3  0  0  0  0  0  0
  183.1420  178.6310  144.2270 O   0  0  0  0  0  1  0  0  0  0  0  0
  184.4330  178.4890  142.1990 C   0  0  0  0  0  1  0  0  0  0  0  0
  185.2310  176.5300  137.2740 C   0  0  0  0  0  3  0  0  0  0  0  0
  184.5850  177.5150  138.0340 C   0  0  0  0  0  0  0  0  0  0  0  0
  185.3440  178.4710  138.7180 C   0  0  0  0  0  3  0  0  0  0  0  0
  186.7410  178.4420  138.6450 C   0  0  0  0  0  3  0  0  0  0  0  0
  187.3870  177.4600  137.8850 C   0  0  0  0  0  0  0  0  0  0  0  0
  186.6270  176.5020  137.1970 C   0  0  0  0  0  3  0  0  0  0  0  0
  183.1590  177.5610  138.1150 N   0  0  0  0  0  2  0  0  0  0  0  0
  182.4050  178.4130  137.2920 N   0  0  0  0  0  0  0  0  0  0  0  0
  181.8960  179.3230  139.4820 O   0  0  0  0  0  1  0  0  0  0  0  0
  181.6590  179.3480  138.1030 C   0  0  2  0  0  0  0  0  0  0  0  0
  181.0700  178.2210  137.6400 O   0  0  0  0  0  0  0  0  0  0  0  0
  181.2190  180.6280  137.4120 C   0  0  2  0  0  3  0  0  0  0  0  0
  179.4330  181.9300  137.1080 C   0  0  0  0  0  2  0  0  0  0  0  0
  181.4930  181.8220  138.2930 C   0  0  0  0  0  2  0  0  0  0  0  0
  179.8420  180.5880  137.1420 O   0  0  0  0  0  0  0  0  0  0  0  0
  180.3610  182.7540  137.9780 C   0  0  1  0  0  3  0  0  0  0  0  0
  181.1700  183.7550  135.4100 O   0  0  0  0  0  0  0  0  0  0  0  0
  179.8660  185.4570  137.1470 O   0  0  0  0  0  1  0  0  0  0  0  0
  180.9750  184.1840  137.0350 P   0  0  0  0  0  0  0  0  0  0  0  0
  182.3050  184.6300  137.5930 O   0  0  0  0  0  1  0  0  0  0  0  0
  1 11  1  6  0  0  0
  1  4  1  0  0  0  0
  2 10  1  0  0  0  0
  4 35  1  6  0  0  0
  4  7  1  0  0  0  0
  5  3  1  6  0  0  0
  5  7  1  0  0  0  0
  5  8  1  0  0  0  0
  6  2  1  0  0  0  0
  7  6  1  1  0  0  0
  8  9  1  0  0  0  0
  9 10  2  0  0  0  0
 10 13  1  0  0  0  0
 12  1  1  0  0  0  0
 12  3  1  0  0  0  0
 13 15  1  0  0  0  0
 13 17  2  0  0  0  0
 14 15  1  0  0  0  0
 15 16  2  0  0  0  0
 16 18  1  0  0  0  0
 17 18  1  0  0  0  0
 18 20  1  0  0  0  0
 19 17  1  0  0  0  0
 20 21  1  0  0  0  0
 22 24  1  0  0  0  0
 23 26  1  0  0  0  0
 25 27  1  6  0  0  0
 25 23  1  0  0  0  0
 25 22  1  0  0  0  0
 26 21  1  1  0  0  0
 26 24  1  0  0  0  0
 28 30  1  6  0  0  0
 28 29  1  0  0  0  0
 28 27  1  0  0  0  0
 31 32  1  0  0  0  0
 32 37  1  0  0  0  0
 32 33  2  0  0  0  0
 34 33  1  0  0  0  0
 35 34  2  0  0  0  0
 36 31  2  0  0  0  0
 36 35  1  0  0  0  0
 38 41  1  0  0  0  0
 38 40  1  0  0  0  0
 38 37  1  0  0  0  0
 40 39  1  1  0  0  0
 41 40  1  0  0  0  0
 42 40  1  0  0  0  0
 42 44  1  1  0  0  0
 43 45  1  0  0  0  0
 43 46  1  0  0  0  0
 45 42  1  0  0  0  0
 46 49  1  6  0  0  0
 46 44  1  0  0  0  0
 47 49  2  0  0  0  0
 49 48  1  0  0  0  0
 49 50  1  0  0  0  0
M  END
>  <MODEL>
9

>  <REMARK>
 VINA RESULT:      -7.0      3.692      9.100
  Name = 
  11 active torsions:
  status: ('A' for Active; 'I' for Inactive)
    1  A    between atoms: C_1  and  C_44
    2  A    between atoms: C_4  and  C_31
    3  A    between atoms: N_5  and  C_12
    4  A    between atoms: N_5  and  C_41
    5  A    between atoms: N_6  and  C_7
    6  A    between atoms: N_6  and  N_15
    7  A    between atoms: S_9  and  C_47
    8  A    between atoms: S_9  and  C_50
    9  A    between atoms: C_26  and  C_32
   10  A    between atoms: C_27  and  P_28
   11  A    between atoms: N_39  and  C_50
                            x       y       z     vdW  Elec       q    Type
                         _______ _______ _______ _____ _____    ______ ____

>  <TORSDO>
F 11

$$$$
