=
 OpenBabel10222415333D

 54 60  0  0  1  0  0  0  0  0999 V2000
  179.9210  180.0590  139.3800 C   0  0  0  0  0  3  0  0  0  0  0  0
  181.9290  177.0780  139.2200 C   0  0  0  0  0  3  0  0  0  0  0  0
  181.6110  178.7230  144.3500 C   0  0  0  0  0  3  0  0  0  0  0  0
  180.5020  179.0660  143.7100 C   0  0  0  0  0  3  0  0  0  0  0  0
  183.9820  179.0290  145.0230 C   0  0  0  0  0  1  0  0  0  0  0  0
  179.5940  180.7020  142.3220 N   0  0  0  0  0  0  0  0  0  0  0  0
  182.4360  176.1930  138.1290 C   0  0  1  0  0  3  0  0  0  0  0  0
  179.3150  181.5480  141.2340 N   0  0  0  0  0  0  0  0  0  0  0  0
  183.4240  177.1210  136.8820 S   0  0  0  0  0  0  0  0  0  0  0  0
  179.0310  182.3740  139.0190 C   0  0  0  0  0  1  0  0  0  0  0  0
  184.7410  177.7380  137.9900 C   0  0  0  0  0  2  0  0  0  0  0  0
  183.4200  178.7560  142.6200 C   0  0  0  0  0  0  0  0  0  0  0  0
  184.3040  179.0100  138.7070 C   0  0  0  0  0  2  0  0  0  0  0  0
  181.2600  179.2330  141.2810 C   0  0  0  0  0  0  0  0  0  0  0  0
  181.1140  178.0900  138.9420 C   0  0  0  0  0  3  0  0  0  0  0  0
  180.4400  179.7200  142.4080 C   0  0  0  0  0  0  0  0  0  0  0  0
  179.4620  181.3170  139.9680 C   0  0  0  0  0  0  0  0  0  0  0  0
  185.2320  178.1310  140.8590 C   0  0  0  0  0  2  0  0  0  0  0  0
  180.6820  179.1150  139.9160 C   0  0  0  0  0  0  0  0  0  0  0  0
  182.5170  178.8030  141.4470 C   0  0  0  0  0  3  0  0  0  0  0  0
  185.1940  179.3210  139.9080 C   0  0  0  0  0  2  0  0  0  0  0  0
  182.9990  178.9000  143.9030 C   0  0  0  0  0  0  0  0  0  0  0  0
  184.9030  178.4730  142.3230 C   0  0  2  0  0  3  0  0  0  0  0  0
  185.4340  177.4050  143.1840 N   0  0  0  0  0  2  0  0  0  0  0  0
  186.8910  177.3400  143.0720 C   0  0  0  0  0  2  0  0  0  0  0  0
  187.5390  178.2760  144.0760 C   0  0  1  0  0  3  0  0  0  0  0  0
  187.6500  177.5860  145.4260 C   0  0  2  0  0  0  0  0  0  0  0  0
  187.2200  178.4020  146.4830 O   0  0  0  0  0  0  0  0  0  0  0  0
  188.8660  176.8710  145.7710 N   0  0  0  0  0  1  0  0  0  0  0  0
  186.4410  177.2550  146.2010 C   0  0  0  0  0  2  0  0  0  0  0  0
  188.8050  178.6520  143.6220 O   0  0  0  0  0  0  0  0  0  0  0  0
  189.0750  177.7870  142.5550 C   0  0  0  0  0  2  0  0  0  0  0  0
  191.0240  177.4920  141.0350 C   0  0  0  0  0  1  0  0  0  0  0  0
  190.5630  177.4480  142.4800 C   0  0  0  0  0  0  0  0  0  0  0  0
  191.3740  178.4480  143.2880 C   0  0  0  0  0  1  0  0  0  0  0  0
  190.7980  176.0380  143.0140 C   0  0  0  0  0  2  0  0  0  0  0  0
  189.6680  175.2360  142.8460 O   0  0  0  0  0  1  0  0  0  0  0  0
  183.1790  174.9780  138.6770 C   0  0  0  0  0  2  0  0  0  0  0  0
  184.1990  174.5770  137.8080 O   0  0  0  0  0  0  0  0  0  0  0  0
  183.6080  173.6350  136.9710 C   0  0  0  0  0  2  0  0  0  0  0  0
  184.4560  173.6540  135.3660 S   0  0  0  0  0  0  0  0  0  0  0  0
  186.6840  172.5100  136.5450 N   0  0  0  0  0  2  0  0  0  0  0  0
  188.0180  172.2210  137.0040 C   0  0  0  0  0  3  0  0  0  0  0  0
  188.9850  174.3600  136.3070 C   0  0  0  0  0  2  0  0  0  0  0  0
  186.6090  174.9490  136.3170 C   0  0  0  0  0  3  0  0  0  0  0  0
  189.0230  173.0390  136.9100 N   0  0  0  0  0  0  0  0  0  0  0  0
  186.0730  173.7400  136.1230 C   0  0  0  0  0  0  0  0  0  0  0  0
  187.9240  175.2000  136.9850 C   0  0  2  0  0  3  0  0  0  0  0  0
  188.5630  177.4510  138.2560 C   0  0  0  0  0  3  0  0  0  0  0  0
  187.8710  177.5870  135.9350 C   0  0  1  0  0  3  0  0  0  0  0  0
  188.2720  178.8560  137.9830 N   0  0  0  0  0  0  0  0  0  0  0  0
  188.3430  176.6770  136.9810 C   0  0  2  0  0  0  0  0  0  0  0  0
  187.8910  178.9650  136.5720 C   0  0  0  0  0  2  0  0  0  0  0  0
  189.1840  177.0580  135.9250 O   0  0  0  0  0  0  0  0  0  0  0  0
  1 19  2  0  0  0  0
  1 17  1  0  0  0  0
  4  3  2  0  0  0  0
  6 16  2  0  0  0  0
  7 38  1  1  0  0  0
  7  2  1  0  0  0  0
  8  6  1  0  0  0  0
  9 11  1  0  0  0  0
  9  7  1  0  0  0  0
 10 17  1  0  0  0  0
 11 13  1  0  0  0  0
 12 22  2  0  0  0  0
 13 21  1  0  0  0  0
 14 20  2  0  0  0  0
 14 16  1  0  0  0  0
 15  2  2  0  0  0  0
 15 19  1  0  0  0  0
 16  4  1  0  0  0  0
 17  8  2  0  0  0  0
 18 23  1  0  0  0  0
 19 14  1  0  0  0  0
 20 12  1  0  0  0  0
 21 18  1  0  0  0  0
 22  3  1  0  0  0  0
 22  5  1  0  0  0  0
 23 12  1  0  0  0  0
 23 24  1  1  0  0  0
 25 24  1  0  0  0  0
 26 25  1  6  0  0  0
 26 27  1  0  0  0  0
 27 29  1  1  0  0  0
 27 30  1  0  0  0  0
 27 28  1  0  0  0  0
 30 28  1  0  0  0  0
 31 26  1  0  0  0  0
 32 31  1  0  0  0  0
 33 34  1  0  0  0  0
 34 32  1  0  0  0  0
 34 36  1  0  0  0  0
 34 35  1  0  0  0  0
 37 36  1  0  0  0  0
 39 38  1  0  0  0  0
 40 39  1  0  0  0  0
 41 47  1  0  0  0  0
 41 40  1  0  0  0  0
 42 43  1  0  0  0  0
 44 46  1  0  0  0  0
 45 48  1  0  0  0  0
 46 43  2  0  0  0  0
 47 45  2  0  0  0  0
 47 42  1  0  0  0  0
 48 44  1  6  0  0  0
 50 53  1  1  0  0  0
 50 52  1  0  0  0  0
 51 49  2  0  0  0  0
 52 48  1  0  0  0  0
 52 49  1  1  0  0  0
 53 51  1  0  0  0  0
 54 50  1  0  0  0  0
 54 52  1  0  0  0  0
M  END
>  <MODEL>
1

>  <REMARK>
 VINA RESULT:      -7.2      0.000      0.000
  Name = 
  14 active torsions:
  status: ('A' for Active; 'I' for Inactive)
    1  A    between atoms: C_2  and  C_11
    2  A    between atoms: O_5  and  C_20
    3  A    between atoms: O_5  and  C_29
    4  A    between atoms: N_6  and  C_36
    5  A    between atoms: N_6  and  C_53
    6  A    between atoms: C_11  and  O_16
    7  A    between atoms: C_11  and  C_36
    8  A    between atoms: C_14  and  C_21
    9  A    between atoms: C_14  and  C_28
   10  A    between atoms: O_16  and  C_28
   11  A    between atoms: C_20  and  C_25
   12  A    between atoms: C_29  and  S_45
   13  A    between atoms: C_31  and  S_45
   14  A    between atoms: C_37  and  C_43
                            x       y       z     vdW  Elec       q    Type
                         _______ _______ _______ _____ _____    ______ ____

>  <TORSDO>
F 14

$$$$
=
 OpenBabel10222415333D

 54 60  0  0  1  0  0  0  0  0999 V2000
  190.7260  174.5860  136.3360 C   0  0  0  0  0  3  0  0  0  0  0  0
  188.4820  176.6120  138.2850 C   0  0  0  0  0  3  0  0  0  0  0  0
  185.8480  172.2390  136.5320 C   0  0  0  0  0  3  0  0  0  0  0  0
  187.1280  171.9420  136.7030 C   0  0  0  0  0  3  0  0  0  0  0  0
  183.9250  173.1730  135.2680 C   0  0  0  0  0  1  0  0  0  0  0  0
  189.2100  172.0500  135.6630 N   0  0  0  0  0  0  0  0  0  0  0  0
  188.5680  177.9340  138.9740 C   0  0  1  0  0  3  0  0  0  0  0  0
  190.4050  172.5030  135.0780 N   0  0  0  0  0  0  0  0  0  0  0  0
  189.0520  179.2890  137.8240 S   0  0  0  0  0  0  0  0  0  0  0  0
  192.3460  173.7960  134.5940 C   0  0  0  0  0  1  0  0  0  0  0  0
  187.6490  179.1650  136.6580 C   0  0  0  0  0  2  0  0  0  0  0  0
  185.8020  174.6650  135.9130 C   0  0  0  0  0  0  0  0  0  0  0  0
  187.8960  178.0830  135.6140 C   0  0  0  0  0  2  0  0  0  0  0  0
  188.2920  174.1940  136.4260 C   0  0  0  0  0  0  0  0  0  0  0  0
  189.5530  176.0870  137.7000 C   0  0  0  0  0  3  0  0  0  0  0  0
  188.2560  172.7320  136.2220 C   0  0  0  0  0  0  0  0  0  0  0  0
  191.0690  173.5880  135.3230 C   0  0  0  0  0  0  0  0  0  0  0  0
  185.5510  177.2560  135.8970 C   0  0  0  0  0  2  0  0  0  0  0  0
  189.5430  174.8700  136.8610 C   0  0  0  0  0  0  0  0  0  0  0  0
  187.1980  174.9570  136.3110 C   0  0  0  0  0  3  0  0  0  0  0  0
  186.6120  177.6850  134.8910 C   0  0  0  0  0  2  0  0  0  0  0  0
  185.2800  173.4130  135.8540 C   0  0  0  0  0  0  0  0  0  0  0  0
  184.9150  175.8840  135.6080 C   0  0  2  0  0  3  0  0  0  0  0  0
  183.6260  175.8080  136.3140 N   0  0  0  0  0  2  0  0  0  0  0  0
  182.7930  176.9620  135.9780 C   0  0  0  0  0  2  0  0  0  0  0  0
  181.3800  176.7590  136.4920 C   0  0  1  0  0  3  0  0  0  0  0  0
  180.9870  175.2970  136.3530 C   0  0  2  0  0  0  0  0  0  0  0  0
  179.6280  175.1340  136.0480 O   0  0  0  0  0  0  0  0  0  0  0  0
  181.4240  174.3360  137.3510 N   0  0  0  0  0  1  0  0  0  0  0  0
  180.5590  174.7570  135.0510 C   0  0  0  0  0  2  0  0  0  0  0  0
  181.3030  177.1530  137.8300 O   0  0  0  0  0  0  0  0  0  0  0  0
  181.6060  178.5200  137.8190 C   0  0  0  0  0  2  0  0  0  0  0  0
  181.2300  179.1850  140.1880 C   0  0  0  0  0  1  0  0  0  0  0  0
  182.2820  178.9470  139.1210 C   0  0  0  0  0  0  0  0  0  0  0  0
  183.2370  177.8660  139.6000 C   0  0  0  0  0  1  0  0  0  0  0  0
  183.0450  180.2510  138.9020 C   0  0  0  0  0  2  0  0  0  0  0  0
  184.4240  180.0420  138.9190 O   0  0  0  0  0  1  0  0  0  0  0  0
  187.2960  178.2560  139.7540 C   0  0  0  0  0  2  0  0  0  0  0  0
  187.4900  178.0800  141.1280 O   0  0  0  0  0  0  0  0  0  0  0  0
  186.6070  178.9690  141.7320 C   0  0  0  0  0  2  0  0  0  0  0  0
  185.2820  178.0290  142.5440 S   0  0  0  0  0  0  0  0  0  0  0  0
  185.2310  179.0040  145.1340 N   0  0  0  0  0  2  0  0  0  0  0  0
  185.4270  179.2030  146.5460 C   0  0  0  0  0  3  0  0  0  0  0  0
  187.1230  177.4560  146.8070 C   0  0  0  0  0  2  0  0  0  0  0  0
  187.2250  177.7900  144.3850 C   0  0  0  0  0  3  0  0  0  0  0  0
  186.2670  178.5320  147.2760 N   0  0  0  0  0  0  0  0  0  0  0  0
  185.9930  178.2620  144.1670 C   0  0  0  0  0  0  0  0  0  0  0  0
  187.9840  177.9500  145.6640 C   0  0  2  0  0  3  0  0  0  0  0  0
  189.9580  176.7040  146.9440 C   0  0  0  0  0  3  0  0  0  0  0  0
  190.3910  177.5880  144.7260 C   0  0  1  0  0  3  0  0  0  0  0  0
  191.4080  176.7060  146.7640 N   0  0  0  0  0  0  0  0  0  0  0  0
  189.3340  177.2200  145.6720 C   0  0  2  0  0  0  0  0  0  0  0  0
  191.6880  177.1990  145.4120 C   0  0  0  0  0  2  0  0  0  0  0  0
  189.5950  176.4310  144.5420 O   0  0  0  0  0  0  0  0  0  0  0  0
  1 19  1  0  0  0  0
  2  7  1  0  0  0  0
  3  4  1  0  0  0  0
  5 22  1  0  0  0  0
  6 16  1  0  0  0  0
  7 38  1  6  0  0  0
  8 17  1  0  0  0  0
  8  6  2  0  0  0  0
  9  7  1  0  0  0  0
 10 17  1  0  0  0  0
 11  9  1  0  0  0  0
 12 20  2  0  0  0  0
 13 11  1  0  0  0  0
 14 19  2  0  0  0  0
 15  2  2  0  0  0  0
 16 14  1  0  0  0  0
 16  4  2  0  0  0  0
 17  1  2  0  0  0  0
 19 15  1  0  0  0  0
 20 14  1  0  0  0  0
 21 13  1  0  0  0  0
 21 18  1  0  0  0  0
 22 12  1  0  0  0  0
 22  3  2  0  0  0  0
 23 18  1  0  0  0  0
 23 12  1  0  0  0  0
 23 24  1  1  0  0  0
 25 24  1  0  0  0  0
 26 25  1  1  0  0  0
 26 31  1  0  0  0  0
 27 26  1  0  0  0  0
 27 29  1  1  0  0  0
 28 27  1  0  0  0  0
 30 28  1  0  0  0  0
 30 27  1  0  0  0  0
 32 31  1  0  0  0  0
 32 34  1  0  0  0  0
 34 35  1  0  0  0  0
 34 33  1  0  0  0  0
 36 37  1  0  0  0  0
 36 34  1  0  0  0  0
 38 39  1  0  0  0  0
 39 40  1  0  0  0  0
 40 41  1  0  0  0  0
 41 47  1  0  0  0  0
 42 43  1  0  0  0  0
 43 46  2  0  0  0  0
 44 46  1  0  0  0  0
 47 45  2  0  0  0  0
 47 42  1  0  0  0  0
 48 45  1  6  0  0  0
 48 52  1  0  0  0  0
 48 44  1  0  0  0  0
 50 53  1  1  0  0  0
 50 52  1  0  0  0  0
 51 49  2  0  0  0  0
 52 49  1  1  0  0  0
 53 51  1  0  0  0  0
 54 50  1  0  0  0  0
 54 52  1  0  0  0  0
M  END
>  <MODEL>
2

>  <REMARK>
 VINA RESULT:      -7.0      3.032      9.911
  Name = 
  14 active torsions:
  status: ('A' for Active; 'I' for Inactive)
    1  A    between atoms: C_2  and  C_11
    2  A    between atoms: O_5  and  C_20
    3  A    between atoms: O_5  and  C_29
    4  A    between atoms: N_6  and  C_36
    5  A    between atoms: N_6  and  C_53
    6  A    between atoms: C_11  and  O_16
    7  A    between atoms: C_11  and  C_36
    8  A    between atoms: C_14  and  C_21
    9  A    between atoms: C_14  and  C_28
   10  A    between atoms: O_16  and  C_28
   11  A    between atoms: C_20  and  C_25
   12  A    between atoms: C_29  and  S_45
   13  A    between atoms: C_31  and  S_45
   14  A    between atoms: C_37  and  C_43
                            x       y       z     vdW  Elec       q    Type
                         _______ _______ _______ _____ _____    ______ ____

>  <TORSDO>
F 14

$$$$
=
 OpenBabel10222415333D

 54 60  0  0  1  0  0  0  0  0999 V2000
  191.2900  174.5850  136.3600 C   0  0  0  0  0  3  0  0  0  0  0  0
  188.9690  176.4600  138.3710 C   0  0  0  0  0  3  0  0  0  0  0  0
  186.5090  172.0400  136.4880 C   0  0  0  0  0  3  0  0  0  0  0  0
  187.8000  171.7890  136.6480 C   0  0  0  0  0  3  0  0  0  0  0  0
  184.5480  172.9340  135.2530 C   0  0  0  0  0  1  0  0  0  0  0  0
  189.8740  172.0130  135.6110 N   0  0  0  0  0  0  0  0  0  0  0  0
  189.0030  177.7630  139.1000 C   0  0  1  0  0  3  0  0  0  0  0  0
  191.0490  172.5310  135.0390 N   0  0  0  0  0  0  0  0  0  0  0  0
  189.4310  179.1710  137.9910 S   0  0  0  0  0  0  0  0  0  0  0  0
  192.9360  173.9140  134.5940 C   0  0  0  0  0  1  0  0  0  0  0  0
  188.0320  179.0260  136.8240 C   0  0  0  0  0  2  0  0  0  0  0  0
  186.3650  174.4800  135.9430 C   0  0  0  0  0  0  0  0  0  0  0  0
  188.3200  177.9860  135.7470 C   0  0  0  0  0  2  0  0  0  0  0  0
  188.8730  174.0930  136.4390 C   0  0  0  0  0  0  0  0  0  0  0  0
  190.0590  175.9960  137.7700 C   0  0  0  0  0  3  0  0  0  0  0  0
  188.8950  172.6380  136.1910 C   0  0  0  0  0  0  0  0  0  0  0  0
  191.6700  173.6330  135.3170 C   0  0  0  0  0  0  0  0  0  0  0  0
  186.0110  177.0580  136.0060 C   0  0  0  0  0  2  0  0  0  0  0  0
  190.0960  174.8050  136.8940 C   0  0  0  0  0  0  0  0  0  0  0  0
  187.7490  174.8160  136.3490 C   0  0  0  0  0  3  0  0  0  0  0  0
  187.0510  177.5600  135.0130 C   0  0  0  0  0  2  0  0  0  0  0  0
  185.8930  173.2100  135.8460 C   0  0  0  0  0  0  0  0  0  0  0  0
  185.4290  175.6710  135.6760 C   0  0  2  0  0  3  0  0  0  0  0  0
  184.1460  175.5220  136.3790 N   0  0  0  0  0  2  0  0  0  0  0  0
  183.0320  175.7450  135.4580 C   0  0  0  0  0  2  0  0  0  0  0  0
  181.9000  176.4670  136.1660 C   0  0  1  0  0  3  0  0  0  0  0  0
  180.7450  175.5070  136.4010 C   0  0  2  0  0  0  0  0  0  0  0  0
  179.7530  176.0520  137.2300 O   0  0  0  0  0  0  0  0  0  0  0  0
  181.0180  174.1220  136.7430 N   0  0  0  0  0  1  0  0  0  0  0  0
  179.4000  175.8110  135.8810 C   0  0  0  0  0  2  0  0  0  0  0  0
  182.3550  176.9800  137.3840 O   0  0  0  0  0  0  0  0  0  0  0  0
  182.0480  178.3450  137.3350 C   0  0  0  0  0  2  0  0  0  0  0  0
  182.0940  180.5170  138.5490 C   0  0  0  0  0  1  0  0  0  0  0  0
  182.5450  179.0690  138.5840 C   0  0  0  0  0  0  0  0  0  0  0  0
  181.9890  178.4080  139.8350 C   0  0  0  0  0  1  0  0  0  0  0  0
  184.0710  179.0440  138.6200 C   0  0  0  0  0  2  0  0  0  0  0  0
  184.5630  179.7150  139.7410 O   0  0  0  0  0  1  0  0  0  0  0  0
  187.7210  178.0100  139.8910 C   0  0  0  0  0  2  0  0  0  0  0  0
  188.0040  178.5070  141.1670 O   0  0  0  0  0  0  0  0  0  0  0  0
  188.0520  177.3830  141.9860 C   0  0  0  0  0  2  0  0  0  0  0  0
  189.3000  177.6440  143.2790 S   0  0  0  0  0  0  0  0  0  0  0  0
  188.4430  177.3520  145.8950 N   0  0  0  0  0  2  0  0  0  0  0  0
  187.7660  177.4920  147.1580 C   0  0  0  0  0  3  0  0  0  0  0  0
  186.0900  179.0900  146.3610 C   0  0  0  0  0  2  0  0  0  0  0  0
  186.8380  178.1570  144.2260 C   0  0  0  0  0  3  0  0  0  0  0  0
  186.7260  178.2450  147.3570 N   0  0  0  0  0  0  0  0  0  0  0  0
  188.0670  177.7590  144.5680 C   0  0  0  0  0  0  0  0  0  0  0  0
  185.6800  178.2530  145.1690 C   0  0  2  0  0  3  0  0  0  0  0  0
  183.1200  178.9740  145.2910 C   0  0  0  0  0  3  0  0  0  0  0  0
  184.1200  178.6170  143.1100 C   0  0  1  0  0  3  0  0  0  0  0  0
  182.0230  178.8870  144.3310 N   0  0  0  0  0  0  0  0  0  0  0  0
  184.4140  178.8370  144.5280 C   0  0  2  0  0  0  0  0  0  0  0  0
  182.6100  178.7120  142.9990 C   0  0  0  0  0  2  0  0  0  0  0  0
  184.6330  179.8490  143.5820 O   0  0  0  0  0  0  0  0  0  0  0  0
  1 19  1  0  0  0  0
  2  7  1  0  0  0  0
  3  4  1  0  0  0  0
  5 22  1  0  0  0  0
  6 16  1  0  0  0  0
  7 38  1  6  0  0  0
  8 17  1  0  0  0  0
  8  6  2  0  0  0  0
  9  7  1  0  0  0  0
 10 17  1  0  0  0  0
 11  9  1  0  0  0  0
 12 20  2  0  0  0  0
 13 11  1  0  0  0  0
 14 19  2  0  0  0  0
 15  2  2  0  0  0  0
 16 14  1  0  0  0  0
 16  4  2  0  0  0  0
 17  1  2  0  0  0  0
 19 15  1  0  0  0  0
 20 14  1  0  0  0  0
 21 13  1  0  0  0  0
 21 18  1  0  0  0  0
 22 12  1  0  0  0  0
 22  3  2  0  0  0  0
 23 12  1  0  0  0  0
 23 18  1  0  0  0  0
 23 24  1  1  0  0  0
 25 24  1  0  0  0  0
 26 25  1  1  0  0  0
 26 27  1  0  0  0  0
 26 31  1  0  0  0  0
 27 29  1  1  0  0  0
 27 28  1  0  0  0  0
 30 27  1  0  0  0  0
 30 28  1  0  0  0  0
 32 31  1  0  0  0  0
 32 34  1  0  0  0  0
 33 34  1  0  0  0  0
 34 36  1  0  0  0  0
 34 35  1  0  0  0  0
 36 37  1  0  0  0  0
 38 39  1  0  0  0  0
 39 40  1  0  0  0  0
 40 41  1  0  0  0  0
 41 47  1  0  0  0  0
 42 43  1  0  0  0  0
 43 46  2  0  0  0  0
 44 46  1  0  0  0  0
 45 47  2  0  0  0  0
 47 42  1  0  0  0  0
 48 45  1  6  0  0  0
 48 44  1  0  0  0  0
 50 53  1  1  0  0  0
 50 54  1  0  0  0  0
 50 52  1  0  0  0  0
 51 49  2  0  0  0  0
 52 48  1  0  0  0  0
 52 49  1  1  0  0  0
 53 51  1  0  0  0  0
 54 52  1  0  0  0  0
M  END
>  <MODEL>
3

>  <REMARK>
 VINA RESULT:      -6.6      2.795     10.026
  Name = 
  14 active torsions:
  status: ('A' for Active; 'I' for Inactive)
    1  A    between atoms: C_2  and  C_11
    2  A    between atoms: O_5  and  C_20
    3  A    between atoms: O_5  and  C_29
    4  A    between atoms: N_6  and  C_36
    5  A    between atoms: N_6  and  C_53
    6  A    between atoms: C_11  and  O_16
    7  A    between atoms: C_11  and  C_36
    8  A    between atoms: C_14  and  C_21
    9  A    between atoms: C_14  and  C_28
   10  A    between atoms: O_16  and  C_28
   11  A    between atoms: C_20  and  C_25
   12  A    between atoms: C_29  and  S_45
   13  A    between atoms: C_31  and  S_45
   14  A    between atoms: C_37  and  C_43
                            x       y       z     vdW  Elec       q    Type
                         _______ _______ _______ _____ _____    ______ ____

>  <TORSDO>
F 14

$$$$
=
 OpenBabel10222415333D

 54 60  0  0  1  0  0  0  0  0999 V2000
  182.0000  171.3150  136.3200 C   0  0  0  0  0  3  0  0  0  0  0  0
  184.5120  173.7520  137.1500 C   0  0  0  0  0  3  0  0  0  0  0  0
  179.9150  175.0180  139.6790 C   0  0  0  0  0  3  0  0  0  0  0  0
  179.9880  173.7030  139.5330 C   0  0  0  0  0  3  0  0  0  0  0  0
  179.4260  177.3240  138.8990 C   0  0  0  0  0  1  0  0  0  0  0  0
  179.5800  171.9820  138.0170 N   0  0  0  0  0  0  0  0  0  0  0  0
  185.9280  174.0010  136.7460 C   0  0  1  0  0  3  0  0  0  0  0  0
  179.6240  171.1230  136.9040 N   0  0  0  0  0  0  0  0  0  0  0  0
  186.1080  174.1980  134.9230 S   0  0  0  0  0  0  0  0  0  0  0  0
  180.4130  169.8380  135.0610 C   0  0  0  0  0  1  0  0  0  0  0  0
  185.0210  175.6510  134.7030 C   0  0  0  0  0  2  0  0  0  0  0  0
  181.1480  175.9780  137.7220 C   0  0  0  0  0  0  0  0  0  0  0  0
  183.5590  175.2330  134.5940 C   0  0  0  0  0  2  0  0  0  0  0  0
  181.4930  173.4250  137.4930 C   0  0  0  0  0  0  0  0  0  0  0  0
  183.8650  172.6800  136.7080 C   0  0  0  0  0  3  0  0  0  0  0  0
  180.3320  173.0020  138.3000 C   0  0  0  0  0  0  0  0  0  0  0  0
  180.6310  170.8310  136.1440 C   0  0  0  0  0  0  0  0  0  0  0  0
  182.8990  177.0830  136.1450 C   0  0  0  0  0  2  0  0  0  0  0  0
  182.4240  172.4200  136.9160 C   0  0  0  0  0  0  0  0  0  0  0  0
  181.8050  174.7150  137.3140 C   0  0  0  0  0  3  0  0  0  0  0  0
  182.6120  176.4110  134.8080 C   0  0  0  0  0  2  0  0  0  0  0  0
  180.1760  176.0510  138.6670 C   0  0  0  0  0  0  0  0  0  0  0  0
  181.6660  177.2600  137.0490 C   0  0  2  0  0  3  0  0  0  0  0  0
  181.9570  178.3120  138.0360 N   0  0  0  0  0  2  0  0  0  0  0  0
  183.3590  178.2490  138.4470 C   0  0  0  0  0  2  0  0  0  0  0  0
  183.4630  178.2090  139.9610 C   0  0  1  0  0  3  0  0  0  0  0  0
  184.8540  178.6450  140.3930 C   0  0  2  0  0  0  0  0  0  0  0  0
  184.8420  179.8570  141.0980 O   0  0  0  0  0  0  0  0  0  0  0  0
  185.9510  178.5950  139.4430 N   0  0  0  0  0  1  0  0  0  0  0  0
  185.2120  178.6990  141.8210 C   0  0  0  0  0  2  0  0  0  0  0  0
  182.4980  179.0490  140.5230 O   0  0  0  0  0  0  0  0  0  0  0  0
  181.9270  178.2980  141.5570 C   0  0  0  0  0  2  0  0  0  0  0  0
  180.9260  179.7630  143.3030 C   0  0  0  0  0  1  0  0  0  0  0  0
  180.6360  178.9410  142.0600 C   0  0  0  0  0  0  0  0  0  0  0  0
  180.0470  179.8500  140.9930 C   0  0  0  0  0  1  0  0  0  0  0  0
  179.6300  177.8550  142.4290 C   0  0  0  0  0  2  0  0  0  0  0  0
  179.6980  177.5390  143.7870 O   0  0  0  0  0  1  0  0  0  0  0  0
  186.5500  175.1590  137.5230 C   0  0  0  0  0  2  0  0  0  0  0  0
  187.8750  175.3740  137.1310 O   0  0  0  0  0  0  0  0  0  0  0  0
  188.1630  176.6730  137.5400 C   0  0  0  0  0  2  0  0  0  0  0  0
  189.4740  177.3500  136.4820 S   0  0  0  0  0  0  0  0  0  0  0  0
  191.9390  176.2610  137.1120 N   0  0  0  0  0  0  0  0  0  0  0  0
  193.2030  175.9500  137.7280 C   0  0  0  0  0  3  0  0  0  0  0  0
  192.8460  177.3220  139.7250 C   0  0  0  0  0  2  0  0  0  0  0  0
  190.5390  177.1090  138.9370 C   0  0  0  0  0  2  0  0  0  0  0  0
  193.5930  176.4060  138.8810 N   0  0  0  0  0  0  0  0  0  0  0  0
  190.7600  176.8960  137.6360 C   0  0  0  0  0  0  0  0  0  0  0  0
  191.4850  176.7370  140.0340 C   0  0  2  0  0  3  0  0  0  0  0  0
  191.9910  177.6830  142.4710 C   0  0  0  0  0  3  0  0  0  0  0  0
  189.8810  176.5510  142.0830 C   0  0  1  0  0  3  0  0  0  0  0  0
  191.4210  177.3880  143.7830 N   0  0  0  0  0  0  0  0  0  0  0  0
  191.0220  177.1920  141.4250 C   0  0  2  0  0  0  0  0  0  0  0  0
  190.1240  176.7390  143.5690 C   0  0  0  0  0  2  0  0  0  0  0  0
  189.7680  177.8190  141.4630 O   0  0  0  0  0  0  0  0  0  0  0  0
  1 19  1  0  0  0  0
  4  3  1  0  0  0  0
  6 16  1  0  0  0  0
  7  2  1  0  0  0  0
  7 38  1  1  0  0  0
  8  6  2  0  0  0  0
  9  7  1  0  0  0  0
 10 17  1  0  0  0  0
 11  9  1  0  0  0  0
 12 22  1  0  0  0  0
 13 11  1  0  0  0  0
 13 21  1  0  0  0  0
 14 16  1  0  0  0  0
 15 19  1  0  0  0  0
 15  2  2  0  0  0  0
 16  4  2  0  0  0  0
 17  1  2  0  0  0  0
 17  8  1  0  0  0  0
 18 23  1  0  0  0  0
 19 14  2  0  0  0  0
 20 14  1  0  0  0  0
 20 12  2  0  0  0  0
 21 18  1  0  0  0  0
 22  5  1  0  0  0  0
 22  3  2  0  0  0  0
 23 12  1  0  0  0  0
 23 24  1  1  0  0  0
 24 25  1  0  0  0  0
 26 25  1  6  0  0  0
 26 27  1  0  0  0  0
 26 31  1  0  0  0  0
 27 29  1  6  0  0  0
 27 28  1  0  0  0  0
 27 30  1  0  0  0  0
 28 30  1  0  0  0  0
 31 32  1  0  0  0  0
 32 34  1  0  0  0  0
 34 36  1  0  0  0  0
 34 33  1  0  0  0  0
 35 34  1  0  0  0  0
 36 37  1  0  0  0  0
 39 38  1  0  0  0  0
 39 40  1  0  0  0  0
 41 40  1  0  0  0  0
 41 47  1  0  0  0  0
 42 47  2  0  0  0  0
 42 43  1  0  0  0  0
 43 46  2  0  0  0  0
 44 48  1  0  0  0  0
 46 44  1  0  0  0  0
 47 45  1  0  0  0  0
 48 45  1  6  0  0  0
 48 52  1  0  0  0  0
 49 51  2  0  0  0  0
 50 53  1  1  0  0  0
 52 54  1  0  0  0  0
 52 50  1  0  0  0  0
 52 49  1  1  0  0  0
 53 51  1  0  0  0  0
 54 50  1  0  0  0  0
M  END
>  <MODEL>
4

>  <REMARK>
 VINA RESULT:      -6.5      3.259      7.215
  Name = 
  14 active torsions:
  status: ('A' for Active; 'I' for Inactive)
    1  A    between atoms: C_2  and  C_11
    2  A    between atoms: O_5  and  C_20
    3  A    between atoms: O_5  and  C_29
    4  A    between atoms: N_6  and  C_36
    5  A    between atoms: N_6  and  C_53
    6  A    between atoms: C_11  and  O_16
    7  A    between atoms: C_11  and  C_36
    8  A    between atoms: C_14  and  C_21
    9  A    between atoms: C_14  and  C_28
   10  A    between atoms: O_16  and  C_28
   11  A    between atoms: C_20  and  C_25
   12  A    between atoms: C_29  and  S_45
   13  A    between atoms: C_31  and  S_45
   14  A    between atoms: C_37  and  C_43
                            x       y       z     vdW  Elec       q    Type
                         _______ _______ _______ _____ _____    ______ ____

>  <TORSDO>
F 14

$$$$
=
 OpenBabel10222415333D

 54 60  0  0  1  0  0  0  0  0999 V2000
  191.0090  174.7370  136.3380 C   0  0  0  0  0  3  0  0  0  0  0  0
  188.5810  176.6160  138.2130 C   0  0  0  0  0  3  0  0  0  0  0  0
  186.2490  172.1510  136.2740 C   0  0  0  0  0  3  0  0  0  0  0  0
  187.5340  171.9130  136.4990 C   0  0  0  0  0  3  0  0  0  0  0  0
  184.3420  173.0110  134.9370 C   0  0  0  0  0  1  0  0  0  0  0  0
  189.6520  172.1420  135.5580 N   0  0  0  0  0  0  0  0  0  0  0  0
  188.5700  177.9280  138.9250 C   0  0  1  0  0  3  0  0  0  0  0  0
  190.8490  172.6630  135.0350 N   0  0  0  0  0  0  0  0  0  0  0  0
  189.0370  179.3260  137.8190 S   0  0  0  0  0  0  0  0  0  0  0  0
  192.7430  174.0580  134.6600 C   0  0  0  0  0  1  0  0  0  0  0  0
  187.6960  179.1530  136.5890 C   0  0  0  0  0  2  0  0  0  0  0  0
  186.1100  174.5820  135.6910 C   0  0  0  0  0  0  0  0  0  0  0  0
  188.0440  178.1030  135.5410 C   0  0  0  0  0  2  0  0  0  0  0  0
  188.5960  174.2240  136.3100 C   0  0  0  0  0  0  0  0  0  0  0  0
  189.7020  176.1540  137.6700 C   0  0  0  0  0  3  0  0  0  0  0  0
  188.6410  172.7660  136.0820 C   0  0  0  0  0  0  0  0  0  0  0  0
  191.4460  173.7750  135.3270 C   0  0  0  0  0  0  0  0  0  0  0  0
  185.7320  177.1570  135.7030 C   0  0  0  0  0  2  0  0  0  0  0  0
  189.7900  174.9530  136.8130 C   0  0  0  0  0  0  0  0  0  0  0  0
  187.4710  174.9350  136.1570 C   0  0  0  0  0  3  0  0  0  0  0  0
  186.8140  177.6560  134.7540 C   0  0  0  0  0  2  0  0  0  0  0  0
  185.6550  173.3070  135.5890 C   0  0  0  0  0  0  0  0  0  0  0  0
  185.1790  175.7610  135.3640 C   0  0  2  0  0  3  0  0  0  0  0  0
  183.8650  175.6090  136.0090 N   0  0  0  0  0  2  0  0  0  0  0  0
  183.5250  176.8170  136.7610 C   0  0  0  0  0  2  0  0  0  0  0  0
  182.7420  176.4560  138.0100 C   0  0  1  0  0  3  0  0  0  0  0  0
  182.8280  177.5920  139.0170 C   0  0  2  0  0  0  0  0  0  0  0  0
  181.5720  177.9620  139.5180 O   0  0  0  0  0  0  0  0  0  0  0  0
  183.6440  178.7560  138.7210 N   0  0  0  0  0  1  0  0  0  0  0  0
  182.4760  177.3690  140.4300 C   0  0  0  0  0  2  0  0  0  0  0  0
  181.4080  176.2080  137.6760 O   0  0  0  0  0  0  0  0  0  0  0  0
  181.3570  174.8370  137.3970 C   0  0  0  0  0  2  0  0  0  0  0  0
  179.5530  174.7350  139.1090 C   0  0  0  0  0  1  0  0  0  0  0  0
  179.9870  174.2540  137.7360 C   0  0  0  0  0  0  0  0  0  0  0  0
  178.9560  174.6960  136.7100 C   0  0  0  0  0  1  0  0  0  0  0  0
  180.0680  172.7310  137.7660 C   0  0  0  0  0  2  0  0  0  0  0  0
  181.3430  172.2830  137.4180 O   0  0  0  0  0  1  0  0  0  0  0  0
  187.2500  178.1740  139.6510 C   0  0  0  0  0  2  0  0  0  0  0  0
  187.4170  178.1020  141.0380 O   0  0  0  0  0  0  0  0  0  0  0  0
  186.5000  179.0100  141.5570 C   0  0  0  0  0  2  0  0  0  0  0  0
  185.2450  178.1070  142.5090 S   0  0  0  0  0  0  0  0  0  0  0  0
  185.5420  178.6640  145.2040 N   0  0  0  0  0  2  0  0  0  0  0  0
  185.9620  178.6750  146.5810 C   0  0  0  0  0  3  0  0  0  0  0  0
  187.8690  177.1700  146.2680 C   0  0  0  0  0  2  0  0  0  0  0  0
  187.4980  177.8760  143.9540 C   0  0  0  0  0  3  0  0  0  0  0  0
  186.9910  178.0300  147.0440 N   0  0  0  0  0  0  0  0  0  0  0  0
  186.2010  178.1930  144.0160 C   0  0  0  0  0  0  0  0  0  0  0  0
  188.4490  177.9490  145.1070 C   0  0  2  0  0  3  0  0  0  0  0  0
  190.1470  176.6550  143.5160 C   0  0  0  0  0  3  0  0  0  0  0  0
  190.7580  176.9820  145.8420 C   0  0  1  0  0  3  0  0  0  0  0  0
  191.2710  175.7620  143.7890 N   0  0  0  0  0  0  0  0  0  0  0  0
  189.8550  177.4280  144.7770 C   0  0  2  0  0  0  0  0  0  0  0  0
  191.6810  175.9750  145.1800 C   0  0  0  0  0  2  0  0  0  0  0  0
  190.9110  178.2400  145.2120 O   0  0  0  0  0  0  0  0  0  0  0  0
  1 19  1  0  0  0  0
  2  7  1  0  0  0  0
  3  4  1  0  0  0  0
  5 22  1  0  0  0  0
  6 16  1  0  0  0  0
  7 38  1  6  0  0  0
  8 17  1  0  0  0  0
  8  6  2  0  0  0  0
  9  7  1  0  0  0  0
 10 17  1  0  0  0  0
 11  9  1  0  0  0  0
 12 20  2  0  0  0  0
 13 11  1  0  0  0  0
 14 19  2  0  0  0  0
 15  2  2  0  0  0  0
 16 14  1  0  0  0  0
 16  4  2  0  0  0  0
 17  1  2  0  0  0  0
 19 15  1  0  0  0  0
 20 14  1  0  0  0  0
 21 13  1  0  0  0  0
 21 18  1  0  0  0  0
 22 12  1  0  0  0  0
 22  3  2  0  0  0  0
 23 12  1  0  0  0  0
 23 18  1  0  0  0  0
 23 24  1  1  0  0  0
 24 25  1  0  0  0  0
 26 25  1  6  0  0  0
 26 27  1  0  0  0  0
 27 29  1  6  0  0  0
 27 28  1  0  0  0  0
 27 30  1  0  0  0  0
 28 30  1  0  0  0  0
 31 26  1  0  0  0  0
 32 31  1  0  0  0  0
 32 34  1  0  0  0  0
 34 36  1  0  0  0  0
 34 33  1  0  0  0  0
 35 34  1  0  0  0  0
 37 36  1  0  0  0  0
 38 39  1  0  0  0  0
 39 40  1  0  0  0  0
 40 41  1  0  0  0  0
 41 47  1  0  0  0  0
 42 43  1  0  0  0  0
 43 46  2  0  0  0  0
 44 46  1  0  0  0  0
 45 47  2  0  0  0  0
 47 42  1  0  0  0  0
 48 45  1  6  0  0  0
 48 44  1  0  0  0  0
 49 51  2  0  0  0  0
 50 53  1  6  0  0  0
 51 53  1  0  0  0  0
 52 49  1  6  0  0  0
 52 48  1  0  0  0  0
 52 54  1  0  0  0  0
 52 50  1  0  0  0  0
 54 50  1  0  0  0  0
M  END
>  <MODEL>
5

>  <REMARK>
 VINA RESULT:      -6.1      3.086      9.877
  Name = 
  14 active torsions:
  status: ('A' for Active; 'I' for Inactive)
    1  A    between atoms: C_2  and  C_11
    2  A    between atoms: O_5  and  C_20
    3  A    between atoms: O_5  and  C_29
    4  A    between atoms: N_6  and  C_36
    5  A    between atoms: N_6  and  C_53
    6  A    between atoms: C_11  and  O_16
    7  A    between atoms: C_11  and  C_36
    8  A    between atoms: C_14  and  C_21
    9  A    between atoms: C_14  and  C_28
   10  A    between atoms: O_16  and  C_28
   11  A    between atoms: C_20  and  C_25
   12  A    between atoms: C_29  and  S_45
   13  A    between atoms: C_31  and  S_45
   14  A    between atoms: C_37  and  C_43
                            x       y       z     vdW  Elec       q    Type
                         _______ _______ _______ _____ _____    ______ ____

>  <TORSDO>
F 14

$$$$
=
 OpenBabel10222415333D

 54 60  0  0  1  0  0  0  0  0999 V2000
  190.3220  174.2830  136.3880 C   0  0  0  0  0  3  0  0  0  0  0  0
  188.3830  176.5850  138.3580 C   0  0  0  0  0  3  0  0  0  0  0  0
  185.2940  172.3680  137.0150 C   0  0  0  0  0  3  0  0  0  0  0  0
  186.5540  171.9720  137.1220 C   0  0  0  0  0  3  0  0  0  0  0  0
  183.3730  173.3960  135.8240 C   0  0  0  0  0  1  0  0  0  0  0  0
  188.5640  171.8540  135.9510 N   0  0  0  0  0  0  0  0  0  0  0  0
  188.6210  177.9270  138.9670 C   0  0  1  0  0  3  0  0  0  0  0  0
  189.7500  172.1750  135.2680 N   0  0  0  0  0  0  0  0  0  0  0  0
  189.1360  179.1780  137.7160 S   0  0  0  0  0  0  0  0  0  0  0  0
  191.7530  173.2740  134.5940 C   0  0  0  0  0  1  0  0  0  0  0  0
  187.6530  179.1150  136.6490 C   0  0  0  0  0  2  0  0  0  0  0  0
  185.4020  174.7550  136.2680 C   0  0  0  0  0  0  0  0  0  0  0  0
  187.7410  177.9650  135.6530 C   0  0  0  0  0  2  0  0  0  0  0  0
  187.8750  174.1020  136.6500 C   0  0  0  0  0  0  0  0  0  0  0  0
  189.3670  175.9430  137.7380 C   0  0  0  0  0  3  0  0  0  0  0  0
  187.7070  172.6400  136.5290 C   0  0  0  0  0  0  0  0  0  0  0  0
  190.5150  173.2110  135.4110 C   0  0  0  0  0  0  0  0  0  0  0  0
  185.3610  177.3540  136.1260 C   0  0  0  0  0  2  0  0  0  0  0  0
  189.2030  174.6910  136.9690 C   0  0  0  0  0  0  0  0  0  0  0  0
  186.8410  174.9480  136.5620 C   0  0  0  0  0  3  0  0  0  0  0  0
  186.3840  177.6420  135.0340 C   0  0  0  0  0  2  0  0  0  0  0  0
  184.7780  173.5500  136.3110 C   0  0  0  0  0  0  0  0  0  0  0  0
  184.5980  176.0280  135.9530 C   0  0  2  0  0  3  0  0  0  0  0  0
  183.3580  176.0950  136.7400 N   0  0  0  0  0  2  0  0  0  0  0  0
  182.3010  176.7500  135.9700 C   0  0  0  0  0  2  0  0  0  0  0  0
  181.0510  176.9050  136.8160 C   0  0  1  0  0  3  0  0  0  0  0  0
  180.3800  175.5530  136.9970 C   0  0  2  0  0  0  0  0  0  0  0  0
  178.9890  175.6170  136.8290 O   0  0  0  0  0  0  0  0  0  0  0  0
  180.7390  174.7170  138.1290 N   0  0  0  0  0  1  0  0  0  0  0  0
  179.7180  174.8870  135.8610 C   0  0  0  0  0  2  0  0  0  0  0  0
  181.3870  177.4460  138.0600 O   0  0  0  0  0  0  0  0  0  0  0  0
  182.2040  178.5440  137.7640 C   0  0  0  0  0  2  0  0  0  0  0  0
  181.9430  180.9130  138.4820 C   0  0  0  0  0  1  0  0  0  0  0  0
  182.2830  179.5090  138.9460 C   0  0  0  0  0  0  0  0  0  0  0  0
  181.3020  179.0960  140.0320 C   0  0  0  0  0  1  0  0  0  0  0  0
  183.7020  179.5210  139.5070 C   0  0  0  0  0  2  0  0  0  0  0  0
  184.1270  178.2350  139.8420 O   0  0  0  0  0  1  0  0  0  0  0  0
  187.4340  178.3940  139.8060 C   0  0  0  0  0  2  0  0  0  0  0  0
  187.3920  177.7240  141.0340 O   0  0  0  0  0  0  0  0  0  0  0  0
  188.4140  178.2930  141.7870 C   0  0  0  0  0  2  0  0  0  0  0  0
  189.8900  177.2410  141.6720 S   0  0  0  0  0  0  0  0  0  0  0  0
  191.2180  176.5380  143.9970 N   0  0  0  0  0  0  0  0  0  0  0  0
  191.6770  176.4380  145.3580 C   0  0  0  0  0  3  0  0  0  0  0  0
  189.9290  177.8660  146.3100 C   0  0  0  0  0  2  0  0  0  0  0  0
  188.8930  177.2940  144.1670 C   0  0  0  0  0  2  0  0  0  0  0  0
  191.1020  177.0110  146.3730 N   0  0  0  0  0  0  0  0  0  0  0  0
  189.9880  177.0360  143.4450 C   0  0  0  0  0  0  0  0  0  0  0  0
  188.7900  177.1200  145.6490 C   0  0  2  0  0  3  0  0  0  0  0  0
  186.2180  177.7550  145.3760 C   0  0  0  0  0  3  0  0  0  0  0  0
  187.4070  178.5550  147.3340 C   0  0  1  0  0  3  0  0  0  0  0  0
  185.3870  178.7920  145.9810 N   0  0  0  0  0  0  0  0  0  0  0  0
  187.4490  177.5910  146.2310 C   0  0  2  0  0  0  0  0  0  0  0  0
  186.0700  179.2600  147.1910 C   0  0  0  0  0  2  0  0  0  0  0  0
  187.1860  177.1720  147.5430 O   0  0  0  0  0  0  0  0  0  0  0  0
  1 19  1  0  0  0  0
  2  7  1  0  0  0  0
  3  4  1  0  0  0  0
  5 22  1  0  0  0  0
  6 16  1  0  0  0  0
  7 38  1  6  0  0  0
  8 17  1  0  0  0  0
  8  6  2  0  0  0  0
  9  7  1  0  0  0  0
 10 17  1  0  0  0  0
 11  9  1  0  0  0  0
 12 22  1  0  0  0  0
 12 20  2  0  0  0  0
 13 11  1  0  0  0  0
 14 19  2  0  0  0  0
 15  2  2  0  0  0  0
 16 14  1  0  0  0  0
 16  4  2  0  0  0  0
 17  1  2  0  0  0  0
 19 15  1  0  0  0  0
 20 14  1  0  0  0  0
 21 13  1  0  0  0  0
 21 18  1  0  0  0  0
 22  3  2  0  0  0  0
 23 18  1  0  0  0  0
 23 12  1  0  0  0  0
 23 24  1  1  0  0  0
 25 24  1  0  0  0  0
 26 25  1  6  0  0  0
 26 27  1  0  0  0  0
 26 31  1  0  0  0  0
 27 29  1  1  0  0  0
 28 27  1  0  0  0  0
 30 28  1  0  0  0  0
 30 27  1  0  0  0  0
 32 31  1  0  0  0  0
 32 34  1  0  0  0  0
 33 34  1  0  0  0  0
 34 36  1  0  0  0  0
 34 35  1  0  0  0  0
 36 37  1  0  0  0  0
 38 39  1  0  0  0  0
 39 40  1  0  0  0  0
 41 40  1  0  0  0  0
 41 47  1  0  0  0  0
 42 43  1  0  0  0  0
 43 46  2  0  0  0  0
 44 46  1  0  0  0  0
 47 42  2  0  0  0  0
 47 45  1  0  0  0  0
 48 45  1  6  0  0  0
 48 52  1  0  0  0  0
 48 44  1  0  0  0  0
 49 51  2  0  0  0  0
 50 53  1  6  0  0  0
 50 54  1  0  0  0  0
 51 53  1  0  0  0  0
 52 49  1  6  0  0  0
 52 50  1  0  0  0  0
 52 54  1  0  0  0  0
M  END
>  <MODEL>
6

>  <REMARK>
 VINA RESULT:      -5.9      3.073      9.734
  Name = 
  14 active torsions:
  status: ('A' for Active; 'I' for Inactive)
    1  A    between atoms: C_2  and  C_11
    2  A    between atoms: O_5  and  C_20
    3  A    between atoms: O_5  and  C_29
    4  A    between atoms: N_6  and  C_36
    5  A    between atoms: N_6  and  C_53
    6  A    between atoms: C_11  and  O_16
    7  A    between atoms: C_11  and  C_36
    8  A    between atoms: C_14  and  C_21
    9  A    between atoms: C_14  and  C_28
   10  A    between atoms: O_16  and  C_28
   11  A    between atoms: C_20  and  C_25
   12  A    between atoms: C_29  and  S_45
   13  A    between atoms: C_31  and  S_45
   14  A    between atoms: C_37  and  C_43
                            x       y       z     vdW  Elec       q    Type
                         _______ _______ _______ _____ _____    ______ ____

>  <TORSDO>
F 14

$$$$
=
 OpenBabel10222415333D

 54 60  0  0  1  0  0  0  0  0999 V2000
  193.4360  176.4320  136.9550 C   0  0  0  0  0  3  0  0  0  0  0  0
  190.7700  176.2530  139.3640 C   0  0  0  0  0  3  0  0  0  0  0  0
  189.8850  172.6180  135.4740 C   0  0  0  0  0  3  0  0  0  0  0  0
  191.1900  172.7890  135.6260 C   0  0  0  0  0  3  0  0  0  0  0  0
  187.6440  173.2260  134.5940 C   0  0  0  0  0  1  0  0  0  0  0  0
  192.9630  174.1650  135.0010 N   0  0  0  0  0  0  0  0  0  0  0  0
  190.4010  177.0050  140.6010 C   0  0  1  0  0  3  0  0  0  0  0  0
  193.8310  175.2590  134.8360 N   0  0  0  0  0  0  0  0  0  0  0  0
  190.2150  178.8110  140.2880 S   0  0  0  0  0  0  0  0  0  0  0  0
  195.0680  177.2540  135.2390 C   0  0  0  0  0  1  0  0  0  0  0  0
  188.8700  178.7320  139.0530 C   0  0  0  0  0  2  0  0  0  0  0  0
  188.8470  174.8170  136.0720 C   0  0  0  0  0  0  0  0  0  0  0  0
  189.4190  178.4660  137.6570 C   0  0  0  0  0  2  0  0  0  0  0  0
  191.3620  175.1500  136.5760 C   0  0  0  0  0  0  0  0  0  0  0  0
  191.9030  176.5240  138.7250 C   0  0  0  0  0  3  0  0  0  0  0  0
  191.8750  174.0750  135.7040 C   0  0  0  0  0  0  0  0  0  0  0  0
  194.0430  176.2550  135.6360 C   0  0  0  0  0  0  0  0  0  0  0  0
  187.6140  176.7820  137.2520 C   0  0  0  0  0  2  0  0  0  0  0  0
  192.2880  175.9550  137.4160 C   0  0  0  0  0  0  0  0  0  0  0  0
  190.0520  175.3920  136.7140 C   0  0  0  0  0  3  0  0  0  0  0  0
  188.3280  178.0050  136.6940 C   0  0  0  0  0  2  0  0  0  0  0  0
  188.8480  173.6540  135.3710 C   0  0  0  0  0  0  0  0  0  0  0  0
  187.5340  175.5900  136.2810 C   0  0  2  0  0  3  0  0  0  0  0  0
  186.4460  174.7010  136.7190 N   0  0  0  0  0  2  0  0  0  0  0  0
  185.3670  175.4800  137.3260 C   0  0  0  0  0  2  0  0  0  0  0  0
  184.0200  174.8730  136.9800 C   0  0  1  0  0  3  0  0  0  0  0  0
  184.1550  173.3650  136.8400 C   0  0  2  0  0  0  0  0  0  0  0  0
  182.9320  172.7400  136.5570 O   0  0  0  0  0  0  0  0  0  0  0  0
  184.9170  172.6170  137.8250 N   0  0  0  0  0  1  0  0  0  0  0  0
  183.9180  172.7080  135.5430 C   0  0  0  0  0  2  0  0  0  0  0  0
  183.0910  175.1830  137.9760 O   0  0  0  0  0  0  0  0  0  0  0  0
  182.3490  176.2500  137.4550 C   0  0  0  0  0  2  0  0  0  0  0  0
  181.0740  175.6380  139.5030 C   0  0  0  0  0  1  0  0  0  0  0  0
  181.0310  176.4260  138.2080 C   0  0  0  0  0  0  0  0  0  0  0  0
  180.7990  177.8940  138.5290 C   0  0  0  0  0  1  0  0  0  0  0  0
  179.8790  175.8930  137.3610 C   0  0  0  0  0  2  0  0  0  0  0  0
  179.1840  176.9300  136.7370 O   0  0  0  0  0  1  0  0  0  0  0  0
  189.1810  176.4040  141.2930 C   0  0  0  0  0  2  0  0  0  0  0  0
  189.5510  175.6940  142.4400 O   0  0  0  0  0  0  0  0  0  0  0  0
  188.5990  176.0350  143.3950 C   0  0  0  0  0  2  0  0  0  0  0  0
  189.2680  177.3500  144.4540 S   0  0  0  0  0  0  0  0  0  0  0  0
  187.4490  177.7770  146.4960 N   0  0  0  0  0  2  0  0  0  0  0  0
  186.3550  178.2490  147.3050 C   0  0  0  0  0  3  0  0  0  0  0  0
  185.2710  179.5340  145.5240 C   0  0  0  0  0  2  0  0  0  0  0  0
  186.6910  178.0600  144.1820 C   0  0  0  0  0  3  0  0  0  0  0  0
  185.3930  179.0090  146.8730 N   0  0  0  0  0  0  0  0  0  0  0  0
  187.6510  177.7940  145.0730 C   0  0  0  0  0  0  0  0  0  0  0  0
  185.2750  178.3920  144.5300 C   0  0  2  0  0  3  0  0  0  0  0  0
  182.9240  178.9710  143.4220 C   0  0  0  0  0  3  0  0  0  0  0  0
  184.7300  178.2240  141.9840 C   0  0  1  0  0  3  0  0  0  0  0  0
  182.3250  178.6210  142.1360 N   0  0  0  0  0  0  0  0  0  0  0  0
  184.4120  178.7540  143.3130 C   0  0  2  0  0  0  0  0  0  0  0  0
  183.4070  178.2050  141.2400 C   0  0  0  0  0  2  0  0  0  0  0  0
  185.0410  179.5560  142.3500 O   0  0  0  0  0  0  0  0  0  0  0  0
  1 19  1  0  0  0  0
  2  7  1  0  0  0  0
  3  4  1  0  0  0  0
  4 16  2  0  0  0  0
  5 22  1  0  0  0  0
  6 16  1  0  0  0  0
  7 38  1  6  0  0  0
  8  6  2  0  0  0  0
  8 17  1  0  0  0  0
  9  7  1  0  0  0  0
 10 17  1  0  0  0  0
 11  9  1  0  0  0  0
 12 23  1  0  0  0  0
 12 20  2  0  0  0  0
 13 11  1  0  0  0  0
 14 20  1  0  0  0  0
 14 19  2  0  0  0  0
 15  2  2  0  0  0  0
 16 14  1  0  0  0  0
 17  1  2  0  0  0  0
 19 15  1  0  0  0  0
 21 18  1  0  0  0  0
 21 13  1  0  0  0  0
 22  3  2  0  0  0  0
 22 12  1  0  0  0  0
 23 24  1  1  0  0  0
 23 18  1  0  0  0  0
 24 25  1  0  0  0  0
 26 25  1  1  0  0  0
 26 31  1  0  0  0  0
 27 26  1  0  0  0  0
 27 29  1  1  0  0  0
 28 27  1  0  0  0  0
 30 28  1  0  0  0  0
 30 27  1  0  0  0  0
 32 31  1  0  0  0  0
 32 34  1  0  0  0  0
 34 35  1  0  0  0  0
 34 33  1  0  0  0  0
 36 34  1  0  0  0  0
 37 36  1  0  0  0  0
 38 39  1  0  0  0  0
 39 40  1  0  0  0  0
 40 41  1  0  0  0  0
 41 47  1  0  0  0  0
 42 43  1  0  0  0  0
 44 46  1  0  0  0  0
 45 47  2  0  0  0  0
 46 43  2  0  0  0  0
 47 42  1  0  0  0  0
 48 45  1  6  0  0  0
 48 44  1  0  0  0  0
 50 53  1  6  0  0  0
 50 54  1  0  0  0  0
 50 52  1  0  0  0  0
 51 49  2  0  0  0  0
 52 49  1  1  0  0  0
 52 48  1  0  0  0  0
 53 51  1  0  0  0  0
 54 52  1  0  0  0  0
M  END
>  <MODEL>
7

>  <REMARK>
 VINA RESULT:      -5.9      3.079     10.562
  Name = 
  14 active torsions:
  status: ('A' for Active; 'I' for Inactive)
    1  A    between atoms: C_2  and  C_11
    2  A    between atoms: O_5  and  C_20
    3  A    between atoms: O_5  and  C_29
    4  A    between atoms: N_6  and  C_36
    5  A    between atoms: N_6  and  C_53
    6  A    between atoms: C_11  and  O_16
    7  A    between atoms: C_11  and  C_36
    8  A    between atoms: C_14  and  C_21
    9  A    between atoms: C_14  and  C_28
   10  A    between atoms: O_16  and  C_28
   11  A    between atoms: C_20  and  C_25
   12  A    between atoms: C_29  and  S_45
   13  A    between atoms: C_31  and  S_45
   14  A    between atoms: C_37  and  C_43
                            x       y       z     vdW  Elec       q    Type
                         _______ _______ _______ _____ _____    ______ ____

>  <TORSDO>
F 14

$$$$
=
 OpenBabel10222415333D

 54 60  0  0  1  0  0  0  0  0999 V2000
  193.2120  176.3570  137.0790 C   0  0  0  0  0  3  0  0  0  0  0  0
  190.5650  176.2100  139.5120 C   0  0  0  0  0  3  0  0  0  0  0  0
  189.6080  172.5790  135.6350 C   0  0  0  0  0  3  0  0  0  0  0  0
  190.9170  172.7360  135.7750 C   0  0  0  0  0  3  0  0  0  0  0  0
  187.3660  173.2090  134.7730 C   0  0  0  0  0  1  0  0  0  0  0  0
  192.6990  174.0920  135.1330 N   0  0  0  0  0  0  0  0  0  0  0  0
  190.2140  176.9680  140.7500 C   0  0  1  0  0  3  0  0  0  0  0  0
  193.5770  175.1760  134.9590 N   0  0  0  0  0  0  0  0  0  0  0  0
  190.0450  178.7750  140.4360 S   0  0  0  0  0  0  0  0  0  0  0  0
  194.8380  177.1580  135.3480 C   0  0  0  0  0  1  0  0  0  0  0  0
  188.6890  178.7090  139.2130 C   0  0  0  0  0  2  0  0  0  0  0  0
  188.5990  174.7890  136.2380 C   0  0  0  0  0  0  0  0  0  0  0  0
  189.2240  178.4350  137.8120 C   0  0  0  0  0  2  0  0  0  0  0  0
  191.1210  175.0960  136.7200 C   0  0  0  0  0  0  0  0  0  0  0  0
  191.6950  176.4680  138.8620 C   0  0  0  0  0  3  0  0  0  0  0  0
  191.6160  174.0140  135.8460 C   0  0  0  0  0  0  0  0  0  0  0  0
  193.8060  176.1710  135.7560 C   0  0  0  0  0  0  0  0  0  0  0  0
  187.3960  176.7690  137.4250 C   0  0  0  0  0  2  0  0  0  0  0  0
  192.0630  175.8930  137.5510 C   0  0  0  0  0  0  0  0  0  0  0  0
  189.8150  175.3520  136.8690 C   0  0  0  0  0  3  0  0  0  0  0  0
  188.1200  177.9840  136.8590 C   0  0  0  0  0  2  0  0  0  0  0  0
  188.5810  173.6250  135.5390 C   0  0  0  0  0  0  0  0  0  0  0  0
  187.2960  175.5760  136.4570 C   0  0  2  0  0  3  0  0  0  0  0  0
  186.2020  174.7000  136.9050 N   0  0  0  0  0  2  0  0  0  0  0  0
  185.1360  175.4920  137.5190 C   0  0  0  0  0  2  0  0  0  0  0  0
  183.7950  174.8090  137.3240 C   0  0  1  0  0  3  0  0  0  0  0  0
  182.7600  175.8270  136.8710 C   0  0  2  0  0  0  0  0  0  0  0  0
  181.5320  175.6740  137.5300 O   0  0  0  0  0  0  0  0  0  0  0  0
  182.5730  176.0800  135.4530 N   0  0  0  0  0  1  0  0  0  0  0  0
  182.2620  176.8550  137.8010 C   0  0  0  0  0  2  0  0  0  0  0  0
  183.9160  173.7910  136.3750 O   0  0  0  0  0  0  0  0  0  0  0  0
  183.4840  172.6330  137.0340 C   0  0  0  0  0  2  0  0  0  0  0  0
  182.9130  172.1920  134.6520 C   0  0  0  0  0  1  0  0  0  0  0  0
  182.7630  171.6880  136.0750 C   0  0  0  0  0  0  0  0  0  0  0  0
  183.3520  170.2890  136.1690 C   0  0  0  0  0  1  0  0  0  0  0  0
  181.2760  171.6470  136.4140 C   0  0  0  0  0  2  0  0  0  0  0  0
  181.0260  172.1900  137.6750 O   0  0  0  0  0  1  0  0  0  0  0  0
  188.9940  176.3800  141.4530 C   0  0  0  0  0  2  0  0  0  0  0  0
  189.3650  175.6870  142.6100 O   0  0  0  0  0  0  0  0  0  0  0  0
  188.4050  176.0310  143.5570 C   0  0  0  0  0  2  0  0  0  0  0  0
  188.8290  177.6460  144.2690 S   0  0  0  0  0  0  0  0  0  0  0  0
  186.9790  177.6870  146.3270 N   0  0  0  0  0  2  0  0  0  0  0  0
  185.8500  177.9750  147.1740 C   0  0  0  0  0  3  0  0  0  0  0  0
  184.6750  179.3790  145.5480 C   0  0  0  0  0  2  0  0  0  0  0  0
  186.2060  178.1890  144.0550 C   0  0  0  0  0  3  0  0  0  0  0  0
  184.8340  178.7070  146.8260 N   0  0  0  0  0  0  0  0  0  0  0  0
  187.1820  177.8900  144.9190 C   0  0  0  0  0  0  0  0  0  0  0  0
  184.7680  178.3690  144.4250 C   0  0  2  0  0  3  0  0  0  0  0  0
  182.4900  179.3490  143.4550 C   0  0  0  0  0  3  0  0  0  0  0  0
  183.9500  178.1170  141.9600 C   0  0  1  0  0  3  0  0  0  0  0  0
  181.7070  179.0330  142.2630 N   0  0  0  0  0  0  0  0  0  0  0  0
  183.8820  178.8080  143.2500 C   0  0  2  0  0  0  0  0  0  0  0  0
  182.5850  178.3230  141.3290 C   0  0  0  0  0  2  0  0  0  0  0  0
  184.5660  179.3750  142.1650 O   0  0  0  0  0  0  0  0  0  0  0  0
  1 19  1  0  0  0  0
  2  7  1  0  0  0  0
  3  4  1  0  0  0  0
  4 16  2  0  0  0  0
  5 22  1  0  0  0  0
  6 16  1  0  0  0  0
  7 38  1  6  0  0  0
  8  6  2  0  0  0  0
  8 17  1  0  0  0  0
  9  7  1  0  0  0  0
 10 17  1  0  0  0  0
 11  9  1  0  0  0  0
 12 23  1  0  0  0  0
 12 20  2  0  0  0  0
 13 11  1  0  0  0  0
 14 20  1  0  0  0  0
 14 19  2  0  0  0  0
 15  2  2  0  0  0  0
 16 14  1  0  0  0  0
 17  1  2  0  0  0  0
 19 15  1  0  0  0  0
 21 18  1  0  0  0  0
 21 13  1  0  0  0  0
 22  3  2  0  0  0  0
 22 12  1  0  0  0  0
 23 24  1  1  0  0  0
 23 18  1  0  0  0  0
 24 25  1  0  0  0  0
 26 25  1  6  0  0  0
 27 29  1  6  0  0  0
 27 26  1  0  0  0  0
 27 28  1  0  0  0  0
 27 30  1  0  0  0  0
 28 30  1  0  0  0  0
 31 32  1  0  0  0  0
 31 26  1  0  0  0  0
 33 34  1  0  0  0  0
 34 35  1  0  0  0  0
 34 36  1  0  0  0  0
 34 32  1  0  0  0  0
 36 37  1  0  0  0  0
 38 39  1  0  0  0  0
 39 40  1  0  0  0  0
 40 41  1  0  0  0  0
 41 47  1  0  0  0  0
 42 43  1  0  0  0  0
 44 46  1  0  0  0  0
 45 47  2  0  0  0  0
 46 43  2  0  0  0  0
 47 42  1  0  0  0  0
 48 45  1  6  0  0  0
 48 44  1  0  0  0  0
 50 53  1  6  0  0  0
 50 54  1  0  0  0  0
 50 52  1  0  0  0  0
 51 49  2  0  0  0  0
 52 49  1  1  0  0  0
 52 48  1  0  0  0  0
 53 51  1  0  0  0  0
 54 52  1  0  0  0  0
M  END
>  <MODEL>
8

>  <REMARK>
 VINA RESULT:      -5.7      3.090     10.535
  Name = 
  14 active torsions:
  status: ('A' for Active; 'I' for Inactive)
    1  A    between atoms: C_2  and  C_11
    2  A    between atoms: O_5  and  C_20
    3  A    between atoms: O_5  and  C_29
    4  A    between atoms: N_6  and  C_36
    5  A    between atoms: N_6  and  C_53
    6  A    between atoms: C_11  and  O_16
    7  A    between atoms: C_11  and  C_36
    8  A    between atoms: C_14  and  C_21
    9  A    between atoms: C_14  and  C_28
   10  A    between atoms: O_16  and  C_28
   11  A    between atoms: C_20  and  C_25
   12  A    between atoms: C_29  and  S_45
   13  A    between atoms: C_31  and  S_45
   14  A    between atoms: C_37  and  C_43
                            x       y       z     vdW  Elec       q    Type
                         _______ _______ _______ _____ _____    ______ ____

>  <TORSDO>
F 14

$$$$
=
 OpenBabel10222415333D

 54 60  0  0  1  0  0  0  0  0999 V2000
  181.7450  171.4160  136.0190 C   0  0  0  0  0  3  0  0  0  0  0  0
  184.2020  173.8330  137.0470 C   0  0  0  0  0  3  0  0  0  0  0  0
  179.5700  174.8070  139.6410 C   0  0  0  0  0  3  0  0  0  0  0  0
  179.6710  173.5090  139.3940 C   0  0  0  0  0  3  0  0  0  0  0  0
  179.0360  177.1560  139.0370 C   0  0  0  0  0  1  0  0  0  0  0  0
  179.3050  171.9020  137.7490 N   0  0  0  0  0  0  0  0  0  0  0  0
  185.6140  174.1420  136.6710 C   0  0  1  0  0  3  0  0  0  0  0  0
  179.3710  171.1310  136.5740 N   0  0  0  0  0  0  0  0  0  0  0  0
  185.7970  174.4820  134.8690 S   0  0  0  0  0  0  0  0  0  0  0  0
  180.1940  170.0080  134.6420 C   0  0  0  0  0  1  0  0  0  0  0  0
  184.6800  175.9250  134.7550 C   0  0  0  0  0  2  0  0  0  0  0  0
  180.7910  175.9400  137.7700 C   0  0  0  0  0  0  0  0  0  0  0  0
  183.2290  175.4860  134.6060 C   0  0  0  0  0  2  0  0  0  0  0  0
  181.1890  173.4200  137.3470 C   0  0  0  0  0  0  0  0  0  0  0  0
  183.5790  172.7850  136.5200 C   0  0  0  0  0  3  0  0  0  0  0  0
  180.0340  172.9120  138.1140 C   0  0  0  0  0  0  0  0  0  0  0  0
  180.3860  170.9190  135.7990 C   0  0  0  0  0  0  0  0  0  0  0  0
  182.5240  177.1970  136.2910 C   0  0  0  0  0  2  0  0  0  0  0  0
  182.1430  172.4810  136.7000 C   0  0  0  0  0  0  0  0  0  0  0  0
  181.4750  174.7250  137.2690 C   0  0  0  0  0  3  0  0  0  0  0  0
  182.2560  176.6240  134.9050 C   0  0  0  0  0  2  0  0  0  0  0  0
  179.8130  175.9200  138.7120 C   0  0  0  0  0  0  0  0  0  0  0  0
  181.2840  177.2800  137.2000 C   0  0  2  0  0  3  0  0  0  0  0  0
  181.5490  178.2580  138.2660 N   0  0  0  0  0  2  0  0  0  0  0  0
  181.6110  179.6100  137.7110 C   0  0  0  0  0  2  0  0  0  0  0  0
  180.9830  180.6030  138.6720 C   0  0  1  0  0  3  0  0  0  0  0  0
  180.1110  181.5830  137.9040 C   0  0  2  0  0  0  0  0  0  0  0  0
  179.2030  182.2570  138.7330 O   0  0  0  0  0  0  0  0  0  0  0  0
  179.4850  181.1670  136.6610 N   0  0  0  0  0  1  0  0  0  0  0  0
  180.2260  183.0330  138.1390 C   0  0  0  0  0  2  0  0  0  0  0  0
  180.2200  179.9220  139.6240 O   0  0  0  0  0  0  0  0  0  0  0  0
  180.8250  180.2220  140.8500 C   0  0  0  0  0  2  0  0  0  0  0  0
  182.0010  178.0300  140.9400 C   0  0  0  0  0  1  0  0  0  0  0  0
  181.0540  178.9590  141.6780 C   0  0  0  0  0  0  0  0  0  0  0  0
  181.6610  179.3130  143.0270 C   0  0  0  0  0  1  0  0  0  0  0  0
  179.7290  178.2290  141.8820 C   0  0  0  0  0  2  0  0  0  0  0  0
  179.0850  178.6610  143.0420 O   0  0  0  0  0  1  0  0  0  0  0  0
  186.2080  175.2480  137.5370 C   0  0  0  0  0  2  0  0  0  0  0  0
  187.5200  175.5430  137.1500 O   0  0  0  0  0  0  0  0  0  0  0  0
  188.1600  174.3090  137.0880 C   0  0  0  0  0  2  0  0  0  0  0  0
  189.9560  174.5740  137.0680 S   0  0  0  0  0  0  0  0  0  0  0  0
  189.5290  177.3090  137.0250 N   0  0  0  0  0  0  0  0  0  0  0  0
  189.1780  178.6640  137.3600 C   0  0  0  0  0  3  0  0  0  0  0  0
  188.7190  178.2220  139.7250 C   0  0  0  0  0  2  0  0  0  0  0  0
  190.0500  176.2440  139.1710 C   0  0  0  0  0  2  0  0  0  0  0  0
  188.8350  179.0660  138.5480 N   0  0  0  0  0  0  0  0  0  0  0  0
  189.8170  176.1720  137.8570 C   0  0  0  0  0  0  0  0  0  0  0  0
  190.0300  177.5080  139.9710 C   0  0  2  0  0  3  0  0  0  0  0  0
  189.1280  176.7590  142.3620 C   0  0  0  0  0  3  0  0  0  0  0  0
  191.1000  178.1670  142.2580 C   0  0  1  0  0  3  0  0  0  0  0  0
  189.3470  177.2810  143.7090 N   0  0  0  0  0  0  0  0  0  0  0  0
  190.2300  177.2840  141.4770 C   0  0  2  0  0  0  0  0  0  0  0  0
  190.5600  178.1020  143.6750 C   0  0  0  0  0  2  0  0  0  0  0  0
  191.5160  176.8750  141.8560 O   0  0  0  0  0  0  0  0  0  0  0  0
  1 19  1  0  0  0  0
  4  3  1  0  0  0  0
  6 16  1  0  0  0  0
  7  2  1  0  0  0  0
  7 38  1  1  0  0  0
  8  6  2  0  0  0  0
  9  7  1  0  0  0  0
 10 17  1  0  0  0  0
 11  9  1  0  0  0  0
 12 22  1  0  0  0  0
 13 11  1  0  0  0  0
 13 21  1  0  0  0  0
 14 16  1  0  0  0  0
 15 19  1  0  0  0  0
 15  2  2  0  0  0  0
 16  4  2  0  0  0  0
 17  1  2  0  0  0  0
 17  8  1  0  0  0  0
 18 23  1  0  0  0  0
 19 14  2  0  0  0  0
 20 14  1  0  0  0  0
 20 12  2  0  0  0  0
 21 18  1  0  0  0  0
 22  5  1  0  0  0  0
 22  3  2  0  0  0  0
 23 12  1  0  0  0  0
 23 24  1  1  0  0  0
 25 24  1  0  0  0  0
 26 25  1  6  0  0  0
 26 31  1  0  0  0  0
 27 29  1  6  0  0  0
 27 30  1  0  0  0  0
 27 26  1  0  0  0  0
 27 28  1  0  0  0  0
 30 28  1  0  0  0  0
 31 32  1  0  0  0  0
 32 34  1  0  0  0  0
 33 34  1  0  0  0  0
 34 36  1  0  0  0  0
 34 35  1  0  0  0  0
 36 37  1  0  0  0  0
 39 38  1  0  0  0  0
 40 39  1  0  0  0  0
 41 40  1  0  0  0  0
 41 47  1  0  0  0  0
 42 43  1  0  0  0  0
 42 47  2  0  0  0  0
 43 46  2  0  0  0  0
 44 48  1  0  0  0  0
 46 44  1  0  0  0  0
 47 45  1  0  0  0  0
 48 45  1  6  0  0  0
 48 52  1  0  0  0  0
 49 51  2  0  0  0  0
 50 53  1  1  0  0  0
 52 54  1  0  0  0  0
 52 50  1  0  0  0  0
 52 49  1  1  0  0  0
 53 51  1  0  0  0  0
 54 50  1  0  0  0  0
M  END
>  <MODEL>
9

>  <REMARK>
 VINA RESULT:      -5.2      3.401      7.802
  Name = 
  14 active torsions:
  status: ('A' for Active; 'I' for Inactive)
    1  A    between atoms: C_2  and  C_11
    2  A    between atoms: O_5  and  C_20
    3  A    between atoms: O_5  and  C_29
    4  A    between atoms: N_6  and  C_36
    5  A    between atoms: N_6  and  C_53
    6  A    between atoms: C_11  and  O_16
    7  A    between atoms: C_11  and  C_36
    8  A    between atoms: C_14  and  C_21
    9  A    between atoms: C_14  and  C_28
   10  A    between atoms: O_16  and  C_28
   11  A    between atoms: C_20  and  C_25
   12  A    between atoms: C_29  and  S_45
   13  A    between atoms: C_31  and  S_45
   14  A    between atoms: C_37  and  C_43
                            x       y       z     vdW  Elec       q    Type
                         _______ _______ _______ _____ _____    ______ ____

>  <TORSDO>
F 14

$$$$
