=
 OpenBabel10222418003D

 35 38  0  0  1  0  0  0  0  0999 V2000
  184.2530  178.7600  143.8670 C   0  0  1  0  0  3  0  0  0  0  0  0
  184.5900  178.6350  145.3250 C   0  0  0  0  0  0  0  0  0  0  0  0
  183.7200  178.9310  146.1910 O   0  0  0  0  0  0  0  0  0  0  0  0
  186.7220  177.4040  144.8890 C   0  0  0  0  0  3  0  0  0  0  0  0
  185.9230  178.1690  145.7500 C   0  0  0  0  0  0  0  0  0  0  0  0
  188.1410  178.4310  148.6910 O   0  0  0  0  0  1  0  0  0  0  0  0
  187.6820  178.0820  147.4260 C   0  0  0  0  0  0  0  0  0  0  0  0
  188.4820  177.3240  146.5550 C   0  0  0  0  0  0  0  0  0  0  0  0
  186.4120  178.5000  147.0200 C   0  0  0  0  0  3  0  0  0  0  0  0
  187.9930  176.9820  145.2850 C   0  0  0  0  0  0  0  0  0  0  0  0
  188.7420  176.2450  144.4280 F   0  0  0  0  0  0  0  0  0  0  0  0
  190.8570  176.5600  147.2850 N   0  0  0  0  0  0  0  0  0  0  0  0
  189.7990  176.9000  146.9590 C   0  0  0  0  0  0  0  0  0  0  0  0
  183.0870  179.7130  143.6440 C   0  0  0  0  0  2  0  0  0  0  0  0
  181.8860  178.6700  141.6440 C   0  0  0  0  0  3  0  0  0  0  0  0
  179.7600  177.9560  142.3510 C   0  0  0  0  0  3  0  0  0  0  0  0
  181.9500  179.0070  142.9840 C   0  0  0  0  0  0  0  0  0  0  0  0
  180.6640  178.0760  141.2960 C   0  0  0  0  0  3  0  0  0  0  0  0
  180.4990  178.6010  143.7180 S   0  0  0  0  0  0  0  0  0  0  0  0
  185.4660  179.2230  143.0790 C   0  0  0  0  0  2  0  0  0  0  0  0
  185.6340  178.3580  141.8430 C   0  0  2  0  0  3  0  0  0  0  0  0
  186.8220  178.6780  141.1870 N   0  0  0  0  0  0  0  0  0  0  0  0
  184.7020  179.7390  139.8900 O   0  0  0  0  0  0  0  0  0  0  0  0
  185.4410  179.1240  140.7020 C   0  0  0  0  0  0  0  0  0  0  0  0
  188.2690  178.6430  141.0670 C   0  0  2  0  0  3  0  0  0  0  0  0
  188.6860  177.4350  140.2350 C   0  0  1  0  0  3  0  0  0  0  0  0
  187.7810  177.2890  139.0300 C   0  0  0  0  0  2  0  0  0  0  0  0
  189.1970  177.7910  138.8340 C   0  0  1  0  0  3  0  0  0  0  0  0
  188.9610  179.2810  137.2160 C   0  0  0  0  0  1  0  0  0  0  0  0
  189.1720  179.1680  138.5900 O   0  0  0  0  0  0  0  0  0  0  0  0
  188.8380  178.5480  142.3400 O   0  0  0  0  0  0  0  0  0  0  0  0
  190.1180  178.0340  142.1210 C   0  0  0  0  0  2  0  0  0  0  0  0
  191.7490  177.1860  143.8440 N   0  0  0  0  0  1  0  0  0  0  0  0
  190.9940  179.3830  143.8750 O   0  0  0  0  0  0  0  0  0  0  0  0
  190.9560  178.2490  143.3290 C   0  0  0  0  0  0  0  0  0  0  0  0
  1 20  1  6  0  0  0
  1  2  1  0  0  0  0
  2  5  1  0  0  0  0
  2  3  2  0  0  0  0
  4 10  2  0  0  0  0
  4  5  1  0  0  0  0
  5  9  2  0  0  0  0
  7  6  1  0  0  0  0
  8 13  1  0  0  0  0
  8  7  2  0  0  0  0
  9  7  1  0  0  0  0
 10  8  1  0  0  0  0
 11 10  1  0  0  0  0
 13 12  3  0  0  0  0
 14  1  1  0  0  0  0
 15 17  2  0  0  0  0
 16 19  1  0  0  0  0
 17 14  1  0  0  0  0
 17 19  1  0  0  0  0
 18 15  1  0  0  0  0
 18 16  2  0  0  0  0
 21 20  1  1  0  0  0
 22 21  1  0  0  0  0
 23 24  2  0  0  0  0
 24 22  1  0  0  0  0
 24 21  1  0  0  0  0
 25 22  1  0  0  0  0
 25 31  1  1  0  0  0
 26 25  1  1  0  0  0
 27 26  1  0  0  0  0
 28 30  1  1  0  0  0
 28 27  1  0  0  0  0
 28 26  1  0  0  0  0
 29 30  1  0  0  0  0
 32 31  1  0  0  0  0
 32 35  1  0  0  0  0
 35 33  1  0  0  0  0
 35 34  2  0  0  0  0
M  END
>  <MODEL>
1

>  <REMARK>
 VINA RESULT:      -8.3      0.000      0.000
  Name = 
  13 active torsions:
  status: ('A' for Active; 'I' for Inactive)
    1  A    between atoms: C_3  and  C_13
    2  A    between atoms: C_3  and  C_16
    3  A    between atoms: O_4  and  C_11
    4  A    between atoms: O_4  and  C_14
    5  A    between atoms: CA_5  and  C_22
    6  A    between atoms: N_6  and  C_11
    7  A    between atoms: C_8  and  C_13
    8  A    between atoms: C_8  and  C_30
    9  A    between atoms: C_11  and  C_19
   10  A    between atoms: C_13  and  C_22
   11  A    between atoms: C_14  and  C_26
   12  A    between atoms: C_23  and  C_31
   13  A    between atoms: O_32  and  C_34
                            x       y       z     vdW  Elec       q    Type
                         _______ _______ _______ _____ _____    ______ ____

>  <TORSDO>
F 13

$$$$
=
 OpenBabel10222418003D

 35 38  0  0  1  0  0  0  0  0999 V2000
  190.2470  177.9730  142.6220 C   0  0  1  0  0  3  0  0  0  0  0  0
  189.1070  177.0320  142.8840 C   0  0  0  0  0  0  0  0  0  0  0  0
  189.3270  175.7900  142.9390 O   0  0  0  0  0  0  0  0  0  0  0  0
  187.0740  177.3770  144.2990 C   0  0  0  0  0  3  0  0  0  0  0  0
  187.7380  177.5460  143.0760 C   0  0  0  0  0  0  0  0  0  0  0  0
  185.1850  179.4080  141.1640 O   0  0  0  0  0  1  0  0  0  0  0  0
  185.8010  178.7350  142.2130 C   0  0  0  0  0  0  0  0  0  0  0  0
  185.1440  178.5700  143.4440 C   0  0  0  0  0  0  0  0  0  0  0  0
  187.0890  178.2240  142.0360 C   0  0  0  0  0  3  0  0  0  0  0  0
  185.7870  177.8830  144.4860 C   0  0  0  0  0  0  0  0  0  0  0  0
  185.1730  177.7040  145.6820 F   0  0  0  0  0  0  0  0  0  0  0  0
  182.7570  179.5340  143.8000 N   0  0  0  0  0  0  0  0  0  0  0  0
  183.8210  179.1060  143.6420 C   0  0  0  0  0  0  0  0  0  0  0  0
  190.6440  178.7310  143.8820 C   0  0  0  0  0  2  0  0  0  0  0  0
  189.7160  177.8920  146.1090 C   0  0  0  0  0  3  0  0  0  0  0  0
  191.1150  176.1700  146.8880 C   0  0  0  0  0  3  0  0  0  0  0  0
  190.6250  177.8270  145.0680 C   0  0  0  0  0  0  0  0  0  0  0  0
  189.9890  176.9590  147.1200 C   0  0  0  0  0  3  0  0  0  0  0  0
  191.7670  176.6510  145.4130 S   0  0  0  0  0  0  0  0  0  0  0  0
  191.4420  177.2200  142.0640 C   0  0  0  0  0  2  0  0  0  0  0  0
  191.9250  177.8970  140.7940 C   0  0  2  0  0  3  0  0  0  0  0  0
  191.5860  177.1300  139.6800 N   0  0  0  0  0  0  0  0  0  0  0  0
  194.2090  176.8520  140.2680 O   0  0  0  0  0  0  0  0  0  0  0  0
  192.9990  177.1950  140.2650 C   0  0  0  0  0  0  0  0  0  0  0  0
  190.6250  176.6260  138.7150 C   0  0  2  0  0  3  0  0  0  0  0  0
  189.2220  177.0840  139.1000 C   0  0  1  0  0  3  0  0  0  0  0  0
  189.0730  178.5730  138.8690 C   0  0  0  0  0  2  0  0  0  0  0  0
  188.3920  177.6060  137.9210 C   0  0  1  0  0  3  0  0  0  0  0  0
  188.1130  177.6600  135.7280 C   0  0  0  0  0  1  0  0  0  0  0  0
  189.0960  177.5660  136.7140 O   0  0  0  0  0  0  0  0  0  0  0  0
  190.6690  175.2300  138.7020 O   0  0  0  0  0  0  0  0  0  0  0  0
  191.3580  174.9050  137.5300 C   0  0  0  0  0  2  0  0  0  0  0  0
  191.3370  173.1000  135.7730 N   0  0  0  0  0  1  0  0  0  0  0  0
  189.6120  173.3020  137.3140 O   0  0  0  0  0  0  0  0  0  0  0  0
  190.7050  173.7430  136.8730 C   0  0  0  0  0  0  0  0  0  0  0  0
  1 20  1  1  0  0  0
  1  2  1  0  0  0  0
  1 14  1  0  0  0  0
  2  3  2  0  0  0  0
  2  5  1  0  0  0  0
  4 10  1  0  0  0  0
  5  4  2  0  0  0  0
  6  7  1  0  0  0  0
  7  8  1  0  0  0  0
  8 13  1  0  0  0  0
  8 10  2  0  0  0  0
  9  7  2  0  0  0  0
  9  5  1  0  0  0  0
 10 11  1  0  0  0  0
 13 12  3  0  0  0  0
 14 17  1  0  0  0  0
 15 18  1  0  0  0  0
 16 18  2  0  0  0  0
 17 19  1  0  0  0  0
 17 15  2  0  0  0  0
 19 16  1  0  0  0  0
 21 20  1  1  0  0  0
 22 24  1  0  0  0  0
 22 21  1  0  0  0  0
 24 23  2  0  0  0  0
 24 21  1  0  0  0  0
 25 31  1  1  0  0  0
 25 22  1  0  0  0  0
 26 25  1  6  0  0  0
 27 26  1  0  0  0  0
 28 30  1  6  0  0  0
 28 27  1  0  0  0  0
 28 26  1  0  0  0  0
 29 30  1  0  0  0  0
 32 31  1  0  0  0  0
 33 35  1  0  0  0  0
 35 34  2  0  0  0  0
 35 32  1  0  0  0  0
M  END
>  <MODEL>
2

>  <REMARK>
 VINA RESULT:      -7.7      3.632      6.875
  Name = 
  13 active torsions:
  status: ('A' for Active; 'I' for Inactive)
    1  A    between atoms: C_3  and  C_13
    2  A    between atoms: C_3  and  C_16
    3  A    between atoms: O_4  and  C_11
    4  A    between atoms: O_4  and  C_14
    5  A    between atoms: CA_5  and  C_22
    6  A    between atoms: N_6  and  C_11
    7  A    between atoms: C_8  and  C_13
    8  A    between atoms: C_8  and  C_30
    9  A    between atoms: C_11  and  C_19
   10  A    between atoms: C_13  and  C_22
   11  A    between atoms: C_14  and  C_26
   12  A    between atoms: C_23  and  C_31
   13  A    between atoms: O_32  and  C_34
                            x       y       z     vdW  Elec       q    Type
                         _______ _______ _______ _____ _____    ______ ____

>  <TORSDO>
F 13

$$$$
=
 OpenBabel10222418003D

 35 38  0  0  1  0  0  0  0  0999 V2000
  186.6540  178.1660  144.0530 C   0  0  1  0  0  3  0  0  0  0  0  0
  185.2990  178.8130  144.0160 C   0  0  0  0  0  0  0  0  0  0  0  0
  184.8380  179.3500  145.0610 O   0  0  0  0  0  0  0  0  0  0  0  0
  183.1690  178.4100  142.7700 C   0  0  0  0  0  3  0  0  0  0  0  0
  184.5080  178.8260  142.7710 C   0  0  0  0  0  0  0  0  0  0  0  0
  184.9410  179.7560  139.2230 O   0  0  0  0  0  1  0  0  0  0  0  0
  184.3400  179.3060  140.3940 C   0  0  0  0  0  0  0  0  0  0  0  0
  182.9960  178.8970  140.4010 C   0  0  0  0  0  0  0  0  0  0  0  0
  185.0860  179.2690  141.5750 C   0  0  0  0  0  3  0  0  0  0  0  0
  182.4150  178.4440  141.5950 C   0  0  0  0  0  0  0  0  0  0  0  0
  181.1220  178.0370  141.6270 F   0  0  0  0  0  0  0  0  0  0  0  0
  181.5860  178.9820  138.2190 N   0  0  0  0  0  0  0  0  0  0  0  0
  182.2140  178.9450  139.1910 C   0  0  0  0  0  0  0  0  0  0  0  0
  186.7170  177.0640  145.1020 C   0  0  0  0  0  2  0  0  0  0  0  0
  188.9890  177.1310  146.2690 C   0  0  0  0  0  3  0  0  0  0  0  0
  188.7160  178.1920  148.3500 C   0  0  0  0  0  3  0  0  0  0  0  0
  187.6420  177.4430  146.2090 C   0  0  0  0  0  0  0  0  0  0  0  0
  189.5870  177.5580  147.4640 C   0  0  0  0  0  3  0  0  0  0  0  0
  187.1950  178.2110  147.6300 S   0  0  0  0  0  0  0  0  0  0  0  0
  187.0160  177.6110  142.6860 C   0  0  0  0  0  2  0  0  0  0  0  0
  188.4930  177.8380  142.4180 C   0  0  2  0  0  3  0  0  0  0  0  0
  188.8430  177.3110  141.1750 N   0  0  0  0  0  0  0  0  0  0  0  0
  189.6810  175.6910  143.1700 O   0  0  0  0  0  0  0  0  0  0  0  0
  189.1780  176.6350  142.5070 C   0  0  0  0  0  0  0  0  0  0  0  0
  188.8570  177.3510  139.7230 C   0  0  2  0  0  3  0  0  0  0  0  0
  190.2240  177.8230  139.2360 C   0  0  1  0  0  3  0  0  0  0  0  0
  191.3260  177.0820  139.9640 C   0  0  0  0  0  2  0  0  0  0  0  0
  191.0350  176.7400  138.5170 C   0  0  1  0  0  3  0  0  0  0  0  0
  190.4230  175.1440  137.1130 C   0  0  0  0  0  1  0  0  0  0  0  0
  190.3590  175.5180  138.4550 O   0  0  0  0  0  0  0  0  0  0  0  0
  187.8750  178.2370  139.2750 O   0  0  0  0  0  0  0  0  0  0  0  0
  187.3150  177.6120  138.1570 C   0  0  0  0  0  2  0  0  0  0  0  0
  187.4150  177.8530  135.6510 N   0  0  0  0  0  1  0  0  0  0  0  0
  187.9370  179.6280  137.0550 O   0  0  0  0  0  0  0  0  0  0  0  0
  187.5890  178.4240  136.9430 C   0  0  0  0  0  0  0  0  0  0  0  0
  1 20  1  6  0  0  0
  1 14  1  0  0  0  0
  2  1  1  0  0  0  0
  2  3  2  0  0  0  0
  4  5  1  0  0  0  0
  5  2  1  0  0  0  0
  6  7  1  0  0  0  0
  7  8  2  0  0  0  0
  7  9  1  0  0  0  0
  8 10  1  0  0  0  0
  9  5  2  0  0  0  0
 10 11  1  0  0  0  0
 10  4  2  0  0  0  0
 12 13  3  0  0  0  0
 13  8  1  0  0  0  0
 14 17  1  0  0  0  0
 15 18  1  0  0  0  0
 17 15  2  0  0  0  0
 17 19  1  0  0  0  0
 18 16  2  0  0  0  0
 19 16  1  0  0  0  0
 21 24  1  0  0  0  0
 21 20  1  6  0  0  0
 22 21  1  0  0  0  0
 22 24  1  0  0  0  0
 24 23  2  0  0  0  0
 25 31  1  1  0  0  0
 25 22  1  0  0  0  0
 26 25  1  1  0  0  0
 26 27  1  0  0  0  0
 28 30  1  1  0  0  0
 28 26  1  0  0  0  0
 28 27  1  0  0  0  0
 29 30  1  0  0  0  0
 32 31  1  0  0  0  0
 33 35  1  0  0  0  0
 35 34  2  0  0  0  0
 35 32  1  0  0  0  0
M  END
>  <MODEL>
3

>  <REMARK>
 VINA RESULT:      -7.4      2.921      6.629
  Name = 
  13 active torsions:
  status: ('A' for Active; 'I' for Inactive)
    1  A    between atoms: C_3  and  C_13
    2  A    between atoms: C_3  and  C_16
    3  A    between atoms: O_4  and  C_11
    4  A    between atoms: O_4  and  C_14
    5  A    between atoms: CA_5  and  C_22
    6  A    between atoms: N_6  and  C_11
    7  A    between atoms: C_8  and  C_13
    8  A    between atoms: C_8  and  C_30
    9  A    between atoms: C_11  and  C_19
   10  A    between atoms: C_13  and  C_22
   11  A    between atoms: C_14  and  C_26
   12  A    between atoms: C_23  and  C_31
   13  A    between atoms: O_32  and  C_34
                            x       y       z     vdW  Elec       q    Type
                         _______ _______ _______ _____ _____    ______ ____

>  <TORSDO>
F 13

$$$$
=
 OpenBabel10222418003D

 35 38  0  0  1  0  0  0  0  0999 V2000
  187.6510  177.8440  143.1070 C   0  0  1  0  0  3  0  0  0  0  0  0
  186.6450  178.4750  142.1880 C   0  0  0  0  0  0  0  0  0  0  0  0
  187.0230  178.9340  141.0750 O   0  0  0  0  0  0  0  0  0  0  0  0
  184.8590  178.8140  143.9050 C   0  0  0  0  0  3  0  0  0  0  0  0
  185.2240  178.5600  142.5760 C   0  0  0  0  0  0  0  0  0  0  0  0
  181.9000  178.3390  140.9820 O   0  0  0  0  0  1  0  0  0  0  0  0
  182.8730  178.4980  141.9630 C   0  0  0  0  0  0  0  0  0  0  0  0
  182.5130  178.7630  143.2950 C   0  0  0  0  0  0  0  0  0  0  0  0
  184.2210  178.3990  141.6110 C   0  0  0  0  0  3  0  0  0  0  0  0
  183.5140  178.9160  144.2660 C   0  0  0  0  0  0  0  0  0  0  0  0
  183.1940  179.1650  145.5600 F   0  0  0  0  0  0  0  0  0  0  0  0
  180.0100  178.9760  143.9610 N   0  0  0  0  0  0  0  0  0  0  0  0
  181.1250  178.8820  143.6650 C   0  0  0  0  0  0  0  0  0  0  0  0
  186.9760  177.1490  144.2810 C   0  0  0  0  0  2  0  0  0  0  0  0
  189.0400  177.2060  145.7860 C   0  0  0  0  0  3  0  0  0  0  0  0
  188.3870  177.9900  147.9040 C   0  0  0  0  0  3  0  0  0  0  0  0
  187.6970  177.4450  145.5530 C   0  0  0  0  0  0  0  0  0  0  0  0
  189.4230  177.5190  147.0980 C   0  0  0  0  0  3  0  0  0  0  0  0
  186.9910  178.0070  146.9650 S   0  0  0  0  0  0  0  0  0  0  0  0
  188.5230  176.8600  142.3460 C   0  0  0  0  0  2  0  0  0  0  0  0
  189.8320  177.5270  141.9620 C   0  0  2  0  0  3  0  0  0  0  0  0
  190.4420  176.8270  140.9220 N   0  0  0  0  0  0  0  0  0  0  0  0
  191.6600  176.2920  143.2750 O   0  0  0  0  0  0  0  0  0  0  0  0
  190.9000  176.7460  142.3810 C   0  0  0  0  0  0  0  0  0  0  0  0
  190.5500  176.4430  139.5250 C   0  0  2  0  0  3  0  0  0  0  0  0
  191.6420  177.2650  138.8490 C   0  0  1  0  0  3  0  0  0  0  0  0
  192.9990  176.9040  139.4160 C   0  0  0  0  0  2  0  0  0  0  0  0
  192.6290  176.4300  138.0250 C   0  0  1  0  0  3  0  0  0  0  0  0
  193.3590  174.4600  137.3350 C   0  0  0  0  0  1  0  0  0  0  0  0
  192.3340  175.0640  138.0630 O   0  0  0  0  0  0  0  0  0  0  0  0
  189.3310  176.6770  138.8850 O   0  0  0  0  0  0  0  0  0  0  0  0
  189.3650  178.0300  138.5360 C   0  0  0  0  0  2  0  0  0  0  0  0
  187.3340  177.3110  137.2300 N   0  0  0  0  0  1  0  0  0  0  0  0
  188.1490  179.4820  137.0950 O   0  0  0  0  0  0  0  0  0  0  0  0
  188.2710  178.3250  137.5750 C   0  0  0  0  0  0  0  0  0  0  0  0
  1 20  1  6  0  0  0
  1 14  1  0  0  0  0
  2  5  1  0  0  0  0
  2  1  1  0  0  0  0
  3  2  2  0  0  0  0
  4 10  1  0  0  0  0
  5  4  2  0  0  0  0
  6  7  1  0  0  0  0
  7  8  1  0  0  0  0
  8 13  1  0  0  0  0
  8 10  2  0  0  0  0
  9  7  2  0  0  0  0
  9  5  1  0  0  0  0
 10 11  1  0  0  0  0
 13 12  3  0  0  0  0
 14 17  1  0  0  0  0
 15 18  1  0  0  0  0
 17 15  2  0  0  0  0
 17 19  1  0  0  0  0
 18 16  2  0  0  0  0
 19 16  1  0  0  0  0
 21 20  1  1  0  0  0
 21 24  1  0  0  0  0
 22 21  1  0  0  0  0
 22 24  1  0  0  0  0
 24 23  2  0  0  0  0
 25 31  1  6  0  0  0
 25 22  1  0  0  0  0
 26 27  1  0  0  0  0
 26 25  1  1  0  0  0
 28 30  1  1  0  0  0
 28 26  1  0  0  0  0
 28 27  1  0  0  0  0
 29 30  1  0  0  0  0
 32 31  1  0  0  0  0
 33 35  1  0  0  0  0
 34 35  2  0  0  0  0
 35 32  1  0  0  0  0
M  END
>  <MODEL>
4

>  <REMARK>
 VINA RESULT:      -7.4      3.087      6.526
  Name = 
  13 active torsions:
  status: ('A' for Active; 'I' for Inactive)
    1  A    between atoms: C_3  and  C_13
    2  A    between atoms: C_3  and  C_16
    3  A    between atoms: O_4  and  C_11
    4  A    between atoms: O_4  and  C_14
    5  A    between atoms: CA_5  and  C_22
    6  A    between atoms: N_6  and  C_11
    7  A    between atoms: C_8  and  C_13
    8  A    between atoms: C_8  and  C_30
    9  A    between atoms: C_11  and  C_19
   10  A    between atoms: C_13  and  C_22
   11  A    between atoms: C_14  and  C_26
   12  A    between atoms: C_23  and  C_31
   13  A    between atoms: O_32  and  C_34
                            x       y       z     vdW  Elec       q    Type
                         _______ _______ _______ _____ _____    ______ ____

>  <TORSDO>
F 13

$$$$
=
 OpenBabel10222418003D

 35 38  0  0  1  0  0  0  0  0999 V2000
  189.9480  177.8730  142.4940 C   0  0  1  0  0  3  0  0  0  0  0  0
  188.8190  176.9910  142.9430 C   0  0  0  0  0  0  0  0  0  0  0  0
  189.0310  175.7630  143.1410 O   0  0  0  0  0  0  0  0  0  0  0  0
  186.8370  177.4410  144.4010 C   0  0  0  0  0  3  0  0  0  0  0  0
  187.4690  177.5490  143.1550 C   0  0  0  0  0  0  0  0  0  0  0  0
  184.9120  179.4100  141.2480 O   0  0  0  0  0  1  0  0  0  0  0  0
  185.5400  178.7580  142.3030 C   0  0  0  0  0  0  0  0  0  0  0  0
  184.9150  178.6550  143.5570 C   0  0  0  0  0  0  0  0  0  0  0  0
  186.8090  178.2070  142.1090 C   0  0  0  0  0  3  0  0  0  0  0  0
  185.5690  177.9890  144.6050 C   0  0  0  0  0  0  0  0  0  0  0  0
  184.9850  177.8700  145.8230 F   0  0  0  0  0  0  0  0  0  0  0  0
  182.5660  179.6990  143.9420 N   0  0  0  0  0  0  0  0  0  0  0  0
  183.6120  179.2330  143.7720 C   0  0  0  0  0  0  0  0  0  0  0  0
  190.5430  178.6540  143.6580 C   0  0  0  0  0  2  0  0  0  0  0  0
  189.7000  177.9520  145.9660 C   0  0  0  0  0  3  0  0  0  0  0  0
  191.1180  176.2650  146.7850 C   0  0  0  0  0  3  0  0  0  0  0  0
  190.5660  177.8200  144.8940 C   0  0  0  0  0  0  0  0  0  0  0  0
  190.0070  177.0760  147.0170 C   0  0  0  0  0  3  0  0  0  0  0  0
  191.7120  176.6540  145.2600 S   0  0  0  0  0  0  0  0  0  0  0  0
  191.0250  177.0500  141.8090 C   0  0  0  0  0  2  0  0  0  0  0  0
  191.4330  177.7220  140.5100 C   0  0  2  0  0  3  0  0  0  0  0  0
  191.3780  176.8100  139.4570 N   0  0  0  0  0  0  0  0  0  0  0  0
  193.9360  177.2310  140.2220 O   0  0  0  0  0  0  0  0  0  0  0  0
  192.6830  177.2660  140.1160 C   0  0  0  0  0  0  0  0  0  0  0  0
  190.6460  176.0110  138.4900 C   0  0  2  0  0  3  0  0  0  0  0  0
  191.1310  176.3370  137.0810 C   0  0  1  0  0  3  0  0  0  0  0  0
  192.6150  176.0610  136.9590 C   0  0  0  0  0  2  0  0  0  0  0  0
  191.6300  175.1190  136.2970 C   0  0  1  0  0  3  0  0  0  0  0  0
  191.9290  172.9320  136.1470 C   0  0  0  0  0  1  0  0  0  0  0  0
  191.5490  173.9360  137.0380 O   0  0  0  0  0  0  0  0  0  0  0  0
  189.2830  176.2980  138.5890 O   0  0  0  0  0  0  0  0  0  0  0  0
  189.0150  177.1360  137.5040 C   0  0  0  0  0  2  0  0  0  0  0  0
  188.9350  179.6540  137.4690 N   0  0  0  0  0  1  0  0  0  0  0  0
  187.5260  178.4220  138.8430 O   0  0  0  0  0  0  0  0  0  0  0  0
  188.4540  178.4220  137.9930 C   0  0  0  0  0  0  0  0  0  0  0  0
  1 20  1  1  0  0  0
  1  2  1  0  0  0  0
  1 14  1  0  0  0  0
  2  3  2  0  0  0  0
  2  5  1  0  0  0  0
  4 10  1  0  0  0  0
  5  4  2  0  0  0  0
  6  7  1  0  0  0  0
  7  8  1  0  0  0  0
  8 13  1  0  0  0  0
  8 10  2  0  0  0  0
  9  7  2  0  0  0  0
  9  5  1  0  0  0  0
 10 11  1  0  0  0  0
 13 12  3  0  0  0  0
 14 17  1  0  0  0  0
 15 18  1  0  0  0  0
 16 18  2  0  0  0  0
 17 19  1  0  0  0  0
 17 15  2  0  0  0  0
 19 16  1  0  0  0  0
 21 20  1  1  0  0  0
 22 24  1  0  0  0  0
 22 21  1  0  0  0  0
 24 23  2  0  0  0  0
 24 21  1  0  0  0  0
 25 31  1  6  0  0  0
 25 22  1  0  0  0  0
 26 25  1  1  0  0  0
 27 26  1  0  0  0  0
 28 27  1  0  0  0  0
 28 30  1  1  0  0  0
 28 26  1  0  0  0  0
 29 30  1  0  0  0  0
 32 35  1  0  0  0  0
 32 31  1  0  0  0  0
 33 35  1  0  0  0  0
 35 34  2  0  0  0  0
M  END
>  <MODEL>
5

>  <REMARK>
 VINA RESULT:      -7.4      3.527      6.854
  Name = 
  13 active torsions:
  status: ('A' for Active; 'I' for Inactive)
    1  A    between atoms: C_3  and  C_13
    2  A    between atoms: C_3  and  C_16
    3  A    between atoms: O_4  and  C_11
    4  A    between atoms: O_4  and  C_14
    5  A    between atoms: CA_5  and  C_22
    6  A    between atoms: N_6  and  C_11
    7  A    between atoms: C_8  and  C_13
    8  A    between atoms: C_8  and  C_30
    9  A    between atoms: C_11  and  C_19
   10  A    between atoms: C_13  and  C_22
   11  A    between atoms: C_14  and  C_26
   12  A    between atoms: C_23  and  C_31
   13  A    between atoms: O_32  and  C_34
                            x       y       z     vdW  Elec       q    Type
                         _______ _______ _______ _____ _____    ______ ____

>  <TORSDO>
F 13

$$$$
=
 OpenBabel10222418003D

 35 38  0  0  1  0  0  0  0  0999 V2000
  189.7620  177.5670  140.2750 C   0  0  1  0  0  3  0  0  0  0  0  0
  191.1210  177.4560  140.9040 C   0  0  0  0  0  0  0  0  0  0  0  0
  192.1490  177.5110  140.1740 O   0  0  0  0  0  0  0  0  0  0  0  0
  191.0420  178.3620  143.2340 C   0  0  0  0  0  3  0  0  0  0  0  0
  191.2610  177.2850  142.3630 C   0  0  0  0  0  0  0  0  0  0  0  0
  192.0510  174.6020  144.7730 O   0  0  0  0  0  1  0  0  0  0  0  0
  191.7160  175.8560  144.2750 C   0  0  0  0  0  0  0  0  0  0  0  0
  191.4870  176.9360  145.1440 C   0  0  0  0  0  0  0  0  0  0  0  0
  191.6020  176.0350  142.8940 C   0  0  0  0  0  3  0  0  0  0  0  0
  191.1540  178.1920  144.6150 C   0  0  0  0  0  0  0  0  0  0  0  0
  190.9350  179.2530  145.4310 F   0  0  0  0  0  0  0  0  0  0  0  0
  191.6690  176.6120  147.7160 N   0  0  0  0  0  0  0  0  0  0  0  0
  191.5890  176.7570  146.5710 C   0  0  0  0  0  0  0  0  0  0  0  0
  189.5710  176.5340  139.1730 C   0  0  0  0  0  2  0  0  0  0  0  0
  189.0730  178.4500  137.5580 C   0  0  0  0  0  3  0  0  0  0  0  0
  187.4470  177.7170  136.0260 C   0  0  0  0  0  3  0  0  0  0  0  0
  188.9040  177.1450  137.9870 C   0  0  0  0  0  0  0  0  0  0  0  0
  188.2620  178.7630  136.4570 C   0  0  0  0  0  3  0  0  0  0  0  0
  187.7450  176.4020  137.0330 S   0  0  0  0  0  0  0  0  0  0  0  0
  188.6760  177.4200  141.3260 C   0  0  0  0  0  2  0  0  0  0  0  0
  187.8730  178.7060  141.4160 C   0  0  2  0  0  3  0  0  0  0  0  0
  186.6910  178.4880  142.1230 N   0  0  0  0  0  0  0  0  0  0  0  0
  186.2030  178.6280  139.4680 O   0  0  0  0  0  0  0  0  0  0  0  0
  186.7550  178.6210  140.5990 C   0  0  0  0  0  0  0  0  0  0  0  0
  185.9570  178.2700  143.3570 C   0  0  2  0  0  3  0  0  0  0  0  0
  186.6780  177.2290  144.2070 C   0  0  1  0  0  3  0  0  0  0  0  0
  187.7940  177.8780  144.9990 C   0  0  0  0  0  2  0  0  0  0  0  0
  186.5310  177.4480  145.7170 C   0  0  1  0  0  3  0  0  0  0  0  0
  186.0740  178.8700  147.3480 C   0  0  0  0  0  1  0  0  0  0  0  0
  185.7630  178.5760  146.0210 O   0  0  0  0  0  0  0  0  0  0  0  0
  184.6710  177.8140  143.0580 O   0  0  0  0  0  0  0  0  0  0  0  0
  183.9440  178.9690  142.7570 C   0  0  0  0  0  2  0  0  0  0  0  0
  181.4970  179.0000  142.1560 N   0  0  0  0  0  1  0  0  0  0  0  0
  183.0760  178.0540  140.7390 O   0  0  0  0  0  0  0  0  0  0  0  0
  182.8330  178.6310  141.8300 C   0  0  0  0  0  0  0  0  0  0  0  0
  1 14  1  6  0  0  0
  1  2  1  0  0  0  0
  1 20  1  0  0  0  0
  2  5  1  0  0  0  0
  3  2  2  0  0  0  0
  4 10  1  0  0  0  0
  5  9  1  0  0  0  0
  5  4  2  0  0  0  0
  7  6  1  0  0  0  0
  7  8  1  0  0  0  0
  8 13  1  0  0  0  0
  9  7  2  0  0  0  0
 10  8  2  0  0  0  0
 10 11  1  0  0  0  0
 13 12  3  0  0  0  0
 15 17  2  0  0  0  0
 16 18  2  0  0  0  0
 16 19  1  0  0  0  0
 17 14  1  0  0  0  0
 18 15  1  0  0  0  0
 19 17  1  0  0  0  0
 21 20  1  6  0  0  0
 21 22  1  0  0  0  0
 22 25  1  0  0  0  0
 23 24  2  0  0  0  0
 24 21  1  0  0  0  0
 24 22  1  0  0  0  0
 25 31  1  6  0  0  0
 26 25  1  6  0  0  0
 26 27  1  0  0  0  0
 26 28  1  0  0  0  0
 27 28  1  0  0  0  0
 28 30  1  6  0  0  0
 30 29  1  0  0  0  0
 32 31  1  0  0  0  0
 34 35  2  0  0  0  0
 35 33  1  0  0  0  0
 35 32  1  0  0  0  0
M  END
>  <MODEL>
6

>  <REMARK>
 VINA RESULT:      -7.2      2.741      6.738
  Name = 
  13 active torsions:
  status: ('A' for Active; 'I' for Inactive)
    1  A    between atoms: C_3  and  C_13
    2  A    between atoms: C_3  and  C_16
    3  A    between atoms: O_4  and  C_11
    4  A    between atoms: O_4  and  C_14
    5  A    between atoms: CA_5  and  C_22
    6  A    between atoms: N_6  and  C_11
    7  A    between atoms: C_8  and  C_13
    8  A    between atoms: C_8  and  C_30
    9  A    between atoms: C_11  and  C_19
   10  A    between atoms: C_13  and  C_22
   11  A    between atoms: C_14  and  C_26
   12  A    between atoms: C_23  and  C_31
   13  A    between atoms: O_32  and  C_34
                            x       y       z     vdW  Elec       q    Type
                         _______ _______ _______ _____ _____    ______ ____

>  <TORSDO>
F 13

$$$$
=
 OpenBabel10222418003D

 35 38  0  0  1  0  0  0  0  0999 V2000
  185.1420  177.8800  138.7780 C   0  0  1  0  0  3  0  0  0  0  0  0
  184.7390  179.0360  139.6470 C   0  0  0  0  0  0  0  0  0  0  0  0
  184.4440  180.1410  139.1130 O   0  0  0  0  0  0  0  0  0  0  0  0
  185.8560  178.6680  141.8540 C   0  0  0  0  0  3  0  0  0  0  0  0
  184.6860  178.8900  141.1140 C   0  0  0  0  0  0  0  0  0  0  0  0
  182.1710  178.9730  143.8170 O   0  0  0  0  0  1  0  0  0  0  0  0
  183.4010  178.8690  143.1770 C   0  0  0  0  0  0  0  0  0  0  0  0
  184.5780  178.6570  143.9150 C   0  0  0  0  0  0  0  0  0  0  0  0
  183.4610  178.9850  141.7860 C   0  0  0  0  0  3  0  0  0  0  0  0
  185.8060  178.5520  143.2450 C   0  0  0  0  0  0  0  0  0  0  0  0
  186.9560  178.3390  143.9320 F   0  0  0  0  0  0  0  0  0  0  0  0
  184.4900  178.4660  146.5050 N   0  0  0  0  0  0  0  0  0  0  0  0
  184.5280  178.5510  145.3520 C   0  0  0  0  0  0  0  0  0  0  0  0
  184.0890  177.5850  137.7190 C   0  0  0  0  0  2  0  0  0  0  0  0
  182.7500  176.0000  139.2100 C   0  0  0  0  0  3  0  0  0  0  0  0
  180.4730  176.5570  139.0190 C   0  0  0  0  0  3  0  0  0  0  0  0
  182.8340  177.0800  138.3490 C   0  0  0  0  0  0  0  0  0  0  0  0
  181.4290  175.7160  139.5880 C   0  0  0  0  0  3  0  0  0  0  0  0
  181.2910  177.6530  138.0390 S   0  0  0  0  0  0  0  0  0  0  0  0
  186.4850  178.1490  138.1220 C   0  0  0  0  0  2  0  0  0  0  0  0
  187.0160  176.8700  137.5000 C   0  0  2  0  0  3  0  0  0  0  0  0
  188.3390  176.6600  137.8840 N   0  0  0  0  0  0  0  0  0  0  0  0
  188.2190  177.5850  135.3480 O   0  0  0  0  0  0  0  0  0  0  0  0
  187.9310  177.1760  136.5020 C   0  0  0  0  0  0  0  0  0  0  0  0
  189.3450  176.2750  138.8590 C   0  0  2  0  0  3  0  0  0  0  0  0
  189.9870  177.5230  139.4560 C   0  0  1  0  0  3  0  0  0  0  0  0
  189.1200  178.0810  140.5640 C   0  0  0  0  0  2  0  0  0  0  0  0
  190.4080  177.3660  140.9210 C   0  0  1  0  0  3  0  0  0  0  0  0
  190.4080  176.1820  142.7900 C   0  0  0  0  0  1  0  0  0  0  0  0
  190.1090  176.0980  141.4300 O   0  0  0  0  0  0  0  0  0  0  0  0
  190.3260  175.5040  138.2310 O   0  0  0  0  0  0  0  0  0  0  0  0
  191.2030  176.4340  137.6660 C   0  0  0  0  0  2  0  0  0  0  0  0
  193.6980  176.7070  137.4420 N   0  0  0  0  0  1  0  0  0  0  0  0
  192.7340  174.6120  137.7200 O   0  0  0  0  0  0  0  0  0  0  0  0
  192.5700  175.8540  137.5990 C   0  0  0  0  0  0  0  0  0  0  0  0
  1 14  1  6  0  0  0
  1  2  1  0  0  0  0
  2  5  1  0  0  0  0
  3  2  2  0  0  0  0
  4 10  1  0  0  0  0
  5  9  1  0  0  0  0
  5  4  2  0  0  0  0
  7  6  1  0  0  0  0
  7  8  1  0  0  0  0
  8 13  1  0  0  0  0
  9  7  2  0  0  0  0
 10  8  2  0  0  0  0
 10 11  1  0  0  0  0
 13 12  3  0  0  0  0
 14 17  1  0  0  0  0
 15 18  1  0  0  0  0
 16 18  2  0  0  0  0
 17 15  2  0  0  0  0
 19 17  1  0  0  0  0
 19 16  1  0  0  0  0
 20  1  1  0  0  0  0
 21 22  1  0  0  0  0
 21 20  1  1  0  0  0
 22 25  1  0  0  0  0
 23 24  2  0  0  0  0
 24 21  1  0  0  0  0
 24 22  1  0  0  0  0
 25 31  1  6  0  0  0
 26 25  1  1  0  0  0
 26 27  1  0  0  0  0
 26 28  1  0  0  0  0
 27 28  1  0  0  0  0
 28 30  1  1  0  0  0
 30 29  1  0  0  0  0
 32 31  1  0  0  0  0
 33 35  1  0  0  0  0
 35 32  1  0  0  0  0
 35 34  2  0  0  0  0
M  END
>  <MODEL>
7

>  <REMARK>
 VINA RESULT:      -7.0      3.299      5.232
  Name = 
  13 active torsions:
  status: ('A' for Active; 'I' for Inactive)
    1  A    between atoms: C_3  and  C_13
    2  A    between atoms: C_3  and  C_16
    3  A    between atoms: O_4  and  C_11
    4  A    between atoms: O_4  and  C_14
    5  A    between atoms: CA_5  and  C_22
    6  A    between atoms: N_6  and  C_11
    7  A    between atoms: C_8  and  C_13
    8  A    between atoms: C_8  and  C_30
    9  A    between atoms: C_11  and  C_19
   10  A    between atoms: C_13  and  C_22
   11  A    between atoms: C_14  and  C_26
   12  A    between atoms: C_23  and  C_31
   13  A    between atoms: O_32  and  C_34
                            x       y       z     vdW  Elec       q    Type
                         _______ _______ _______ _____ _____    ______ ____

>  <TORSDO>
F 13

$$$$
=
 OpenBabel10222418003D

 35 38  0  0  1  0  0  0  0  0999 V2000
  183.7900  178.5740  140.5970 C   0  0  1  0  0  3  0  0  0  0  0  0
  184.5500  179.1190  139.4220 C   0  0  0  0  0  0  0  0  0  0  0  0
  184.3660  180.3160  139.0640 O   0  0  0  0  0  0  0  0  0  0  0  0
  185.0820  177.4780  137.6130 C   0  0  0  0  0  3  0  0  0  0  0  0
  185.5070  178.2700  138.6880 C   0  0  0  0  0  0  0  0  0  0  0  0
  189.1160  177.4860  138.7340 O   0  0  0  0  0  1  0  0  0  0  0  0
  187.7790  177.4740  138.3520 C   0  0  0  0  0  0  0  0  0  0  0  0
  187.3490  176.6890  137.2690 C   0  0  0  0  0  0  0  0  0  0  0  0
  186.8600  178.2580  139.0530 C   0  0  0  0  0  3  0  0  0  0  0  0
  185.9940  176.6910  136.9060 C   0  0  0  0  0  0  0  0  0  0  0  0
  185.5520  175.9370  135.8690 F   0  0  0  0  0  0  0  0  0  0  0  0
  189.0520  175.2460  135.9370 N   0  0  0  0  0  0  0  0  0  0  0  0
  188.2930  175.8880  136.5300 C   0  0  0  0  0  0  0  0  0  0  0  0
  182.7560  177.5440  140.1620 C   0  0  0  0  0  2  0  0  0  0  0  0
  181.1120  179.0080  141.4590 C   0  0  0  0  0  3  0  0  0  0  0  0
  178.9820  178.0230  141.3210 C   0  0  0  0  0  3  0  0  0  0  0  0
  181.3990  177.9180  140.6560 C   0  0  0  0  0  0  0  0  0  0  0  0
  179.7590  179.0660  141.8220 C   0  0  0  0  0  3  0  0  0  0  0  0
  180.0000  177.0260  140.4250 S   0  0  0  0  0  0  0  0  0  0  0  0
  184.7420  177.9660  141.6110 C   0  0  0  0  0  2  0  0  0  0  0  0
  185.3250  179.0630  142.4860 C   0  0  2  0  0  3  0  0  0  0  0  0
  185.8960  178.5120  143.6320 N   0  0  0  0  0  0  0  0  0  0  0  0
  183.5050  179.6340  144.2020 O   0  0  0  0  0  0  0  0  0  0  0  0
  184.5430  179.2270  143.6190 C   0  0  0  0  0  0  0  0  0  0  0  0
  186.9520  177.7870  144.3180 C   0  0  2  0  0  3  0  0  0  0  0  0
  187.5690  176.7620  143.3710 C   0  0  1  0  0  3  0  0  0  0  0  0
  188.5110  177.4420  142.4010 C   0  0  0  0  0  2  0  0  0  0  0  0
  189.0860  176.6060  143.5260 C   0  0  1  0  0  3  0  0  0  0  0  0
  190.9790  177.5000  144.2380 C   0  0  0  0  0  1  0  0  0  0  0  0
  189.6120  177.4490  144.5090 O   0  0  0  0  0  0  0  0  0  0  0  0
  186.4180  177.1300  145.4280 O   0  0  0  0  0  0  0  0  0  0  0  0
  186.8810  177.8560  146.5290 C   0  0  0  0  0  2  0  0  0  0  0  0
  186.0570  179.9470  147.6660 N   0  0  0  0  0  1  0  0  0  0  0  0
  184.5880  178.2730  147.0080 O   0  0  0  0  0  0  0  0  0  0  0  0
  185.7760  178.6790  147.0850 C   0  0  0  0  0  0  0  0  0  0  0  0
  1 14  1  6  0  0  0
  1 20  1  0  0  0  0
  2  1  1  0  0  0  0
  3  2  2  0  0  0  0
  4  5  1  0  0  0  0
  5  9  2  0  0  0  0
  5  2  1  0  0  0  0
  7  6  1  0  0  0  0
  7  9  1  0  0  0  0
  8  7  2  0  0  0  0
 10  8  1  0  0  0  0
 10  4  2  0  0  0  0
 11 10  1  0  0  0  0
 12 13  3  0  0  0  0
 13  8  1  0  0  0  0
 14 17  1  0  0  0  0
 15 18  1  0  0  0  0
 16 18  2  0  0  0  0
 17 15  2  0  0  0  0
 19 17  1  0  0  0  0
 19 16  1  0  0  0  0
 21 20  1  6  0  0  0
 21 24  1  0  0  0  0
 21 22  1  0  0  0  0
 22 25  1  0  0  0  0
 24 22  1  0  0  0  0
 24 23  2  0  0  0  0
 25 31  1  1  0  0  0
 26 28  1  0  0  0  0
 26 25  1  1  0  0  0
 27 26  1  0  0  0  0
 27 28  1  0  0  0  0
 28 30  1  1  0  0  0
 29 30  1  0  0  0  0
 31 32  1  0  0  0  0
 32 35  1  0  0  0  0
 34 35  2  0  0  0  0
 35 33  1  0  0  0  0
M  END
>  <MODEL>
8

>  <REMARK>
 VINA RESULT:      -7.0      2.816      6.273
  Name = 
  13 active torsions:
  status: ('A' for Active; 'I' for Inactive)
    1  A    between atoms: C_3  and  C_13
    2  A    between atoms: C_3  and  C_16
    3  A    between atoms: O_4  and  C_11
    4  A    between atoms: O_4  and  C_14
    5  A    between atoms: CA_5  and  C_22
    6  A    between atoms: N_6  and  C_11
    7  A    between atoms: C_8  and  C_13
    8  A    between atoms: C_8  and  C_30
    9  A    between atoms: C_11  and  C_19
   10  A    between atoms: C_13  and  C_22
   11  A    between atoms: C_14  and  C_26
   12  A    between atoms: C_23  and  C_31
   13  A    between atoms: O_32  and  C_34
                            x       y       z     vdW  Elec       q    Type
                         _______ _______ _______ _____ _____    ______ ____

>  <TORSDO>
F 13

$$$$
=
 OpenBabel10222418003D

 35 38  0  0  1  0  0  0  0  0999 V2000
  190.5030  177.5530  142.1960 C   0  0  1  0  0  3  0  0  0  0  0  0
  189.4000  176.6540  142.6760 C   0  0  0  0  0  0  0  0  0  0  0  0
  189.6070  175.4120  142.7690 O   0  0  0  0  0  0  0  0  0  0  0  0
  187.5180  176.9500  144.2950 C   0  0  0  0  0  3  0  0  0  0  0  0
  188.0830  177.2100  143.0390 C   0  0  0  0  0  0  0  0  0  0  0  0
  185.4840  179.3710  141.5520 O   0  0  0  0  0  1  0  0  0  0  0  0
  186.1480  178.5680  142.4720 C   0  0  0  0  0  0  0  0  0  0  0  0
  185.5910  178.3120  143.7360 C   0  0  0  0  0  0  0  0  0  0  0  0
  187.3870  178.0190  142.1310 C   0  0  0  0  0  3  0  0  0  0  0  0
  186.2800  177.4950  144.6440 C   0  0  0  0  0  0  0  0  0  0  0  0
  185.7610  177.2260  145.8680 F   0  0  0  0  0  0  0  0  0  0  0  0
  183.2990  179.3450  144.3950 N   0  0  0  0  0  0  0  0  0  0  0  0
  184.3200  178.8860  144.1020 C   0  0  0  0  0  0  0  0  0  0  0  0
  191.6780  177.5600  143.1630 C   0  0  0  0  0  2  0  0  0  0  0  0
  190.3750  178.2840  145.2380 C   0  0  0  0  0  3  0  0  0  0  0  0
  190.8190  176.7450  146.9600 C   0  0  0  0  0  3  0  0  0  0  0  0
  191.2040  177.4010  144.5690 C   0  0  0  0  0  0  0  0  0  0  0  0
  190.1560  177.9090  146.5720 C   0  0  0  0  0  3  0  0  0  0  0  0
  191.6820  176.1930  145.6260 S   0  0  0  0  0  0  0  0  0  0  0  0
  190.9650  177.1350  140.8110 C   0  0  0  0  0  2  0  0  0  0  0  0
  189.7610  176.7960  139.9500 C   0  0  2  0  0  3  0  0  0  0  0  0
  190.1620  176.5420  138.6390 N   0  0  0  0  0  0  0  0  0  0  0  0
  189.0520  178.9980  138.8390 O   0  0  0  0  0  0  0  0  0  0  0  0
  189.4920  177.8450  139.0830 C   0  0  0  0  0  0  0  0  0  0  0  0
  190.7750  175.7000  137.6260 C   0  0  2  0  0  3  0  0  0  0  0  0
  192.0480  176.3620  137.1090 C   0  0  1  0  0  3  0  0  0  0  0  0
  193.0970  176.4080  138.1990 C   0  0  0  0  0  2  0  0  0  0  0  0
  193.2590  175.4250  137.0570 C   0  0  1  0  0  3  0  0  0  0  0  0
  194.1830  173.4690  137.5200 C   0  0  0  0  0  1  0  0  0  0  0  0
  192.9580  174.1370  137.5070 O   0  0  0  0  0  0  0  0  0  0  0  0
  189.8810  175.5250  136.5670 O   0  0  0  0  0  0  0  0  0  0  0  0
  189.1830  174.3550  136.8790 C   0  0  0  0  0  2  0  0  0  0  0  0
  186.7930  173.6340  137.2180 N   0  0  0  0  0  1  0  0  0  0  0  0
  187.3110  175.6380  136.1640 O   0  0  0  0  0  0  0  0  0  0  0  0
  187.7240  174.5850  136.7140 C   0  0  0  0  0  0  0  0  0  0  0  0
  1 20  1  6  0  0  0
  1  2  1  0  0  0  0
  1 14  1  0  0  0  0
  2  3  2  0  0  0  0
  2  5  1  0  0  0  0
  4 10  1  0  0  0  0
  5  4  2  0  0  0  0
  6  7  1  0  0  0  0
  7  8  1  0  0  0  0
  8 13  1  0  0  0  0
  8 10  2  0  0  0  0
  9  7  2  0  0  0  0
  9  5  1  0  0  0  0
 10 11  1  0  0  0  0
 13 12  3  0  0  0  0
 14 17  1  0  0  0  0
 15 18  1  0  0  0  0
 17 15  2  0  0  0  0
 17 19  1  0  0  0  0
 18 16  2  0  0  0  0
 19 16  1  0  0  0  0
 21 20  1  1  0  0  0
 22 24  1  0  0  0  0
 22 21  1  0  0  0  0
 23 24  2  0  0  0  0
 24 21  1  0  0  0  0
 25 31  1  6  0  0  0
 25 22  1  0  0  0  0
 26 25  1  1  0  0  0
 26 27  1  0  0  0  0
 28 26  1  0  0  0  0
 28 30  1  1  0  0  0
 28 27  1  0  0  0  0
 30 29  1  0  0  0  0
 31 32  1  0  0  0  0
 34 35  2  0  0  0  0
 35 32  1  0  0  0  0
 35 33  1  0  0  0  0
M  END
>  <MODEL>
9

>  <REMARK>
 VINA RESULT:      -6.9      3.756      7.000
  Name = 
  13 active torsions:
  status: ('A' for Active; 'I' for Inactive)
    1  A    between atoms: C_3  and  C_13
    2  A    between atoms: C_3  and  C_16
    3  A    between atoms: O_4  and  C_11
    4  A    between atoms: O_4  and  C_14
    5  A    between atoms: CA_5  and  C_22
    6  A    between atoms: N_6  and  C_11
    7  A    between atoms: C_8  and  C_13
    8  A    between atoms: C_8  and  C_30
    9  A    between atoms: C_11  and  C_19
   10  A    between atoms: C_13  and  C_22
   11  A    between atoms: C_14  and  C_26
   12  A    between atoms: C_23  and  C_31
   13  A    between atoms: O_32  and  C_34
                            x       y       z     vdW  Elec       q    Type
                         _______ _______ _______ _____ _____    ______ ____

>  <TORSDO>
F 13

$$$$
