=
 OpenBabel10222417453D

 52 55  0  0  1  0  0  0  0  0999 V2000
  188.7630  177.6210  138.5400 C   0  0  2  0  0  3  0  0  0  0  0  0
  190.7240  177.3140  140.1080 C   0  0  2  0  0  3  0  0  0  0  0  0
  190.5000  175.8850  138.0430 C   0  0  0  0  0  2  0  0  0  0  0  0
  189.7250  178.3080  139.5100 C   0  0  0  0  0  2  0  0  0  0  0  0
  191.4740  176.5790  138.9900 C   0  0  0  0  0  2  0  0  0  0  0  0
  189.5580  176.9170  137.4340 C   0  0  1  0  0  3  0  0  0  0  0  0
  188.7370  179.3500  137.1640 C   0  0  0  0  0  1  0  0  0  0  0  0
  187.9120  178.5790  137.9850 O   0  0  0  0  0  0  0  0  0  0  0  0
  190.0320  176.3740  140.9800 N   0  0  0  0  0  2  0  0  0  0  0  0
  190.0310  178.4400  144.1600 C   0  0  0  0  0  3  0  0  0  0  0  0
  190.4040  176.6810  142.3520 C   0  0  1  0  0  3  0  0  0  0  0  0
  189.4860  177.7780  142.9280 C   0  0  1  0  0  3  0  0  0  0  0  0
  191.7770  175.2100  143.8340 C   0  0  0  0  0  2  0  0  0  0  0  0
  190.4150  175.3950  143.1830 C   0  0  0  0  0  2  0  0  0  0  0  0
  190.7640  177.7500  144.9910 C   0  0  0  0  0  0  0  0  0  0  0  0
  191.4810  176.9370  145.7190 C   0  0  0  0  0  0  0  0  0  0  0  0
  191.7700  175.6190  145.2440 N   0  0  0  0  0  2  0  0  0  0  0  0
  191.7820  177.2730  147.0740 N   0  0  0  0  0  1  0  0  0  0  0  0
  188.0500  177.3060  143.1270 C   0  0  0  0  0  2  0  0  0  0  0  0
  187.1550  177.8810  142.0380 C   0  0  0  0  0  2  0  0  0  0  0  0
  186.2060  178.9190  142.6160 C   0  0  0  0  0  2  0  0  0  0  0  0
  184.4600  178.6380  144.4020 C   0  0  0  0  0  0  0  0  0  0  0  0
  182.1710  179.2680  143.6270 C   0  0  0  0  0  2  0  0  0  0  0  0
  184.8750  178.2740  142.9840 C   0  0  1  0  0  3  0  0  0  0  0  0
  182.4140  178.3670  142.4250 C   0  0  0  0  0  2  0  0  0  0  0  0
  183.2060  179.0310  144.6930 C   0  0  0  0  0  3  0  0  0  0  0  0
  183.8260  178.6160  141.9140 C   0  0  0  0  0  2  0  0  0  0  0  0
  184.8940  178.9130  146.7190 O   0  0  0  0  0  1  0  0  0  0  0  0
  185.4170  178.3980  145.5290 C   0  0  0  0  0  2  0  0  0  0  0  0
  188.6880  176.2930  136.5340 O   0  0  0  0  0  0  0  0  0  0  0  0
  188.1330  175.2270  137.2470 C   0  0  0  0  0  2  0  0  0  0  0  0
  186.8140  174.8130  136.6250 C   0  0  0  0  0  2  0  0  0  0  0  0
  185.8530  175.9820  136.6510 C   0  0  0  0  0  2  0  0  0  0  0  0
  184.6820  175.6570  137.5560 C   0  0  0  0  0  2  0  0  0  0  0  0
  183.4260  176.0130  136.9040 N   0  0  0  0  0  0  0  0  0  0  0  0
  181.0140  178.3470  138.6340 O   0  0  0  0  0  0  0  0  0  0  0  0
  181.5490  179.8210  136.9180 F   0  0  0  0  0  0  0  0  0  0  0  0
  182.3910  180.1240  138.9760 O   0  0  0  0  0  1  0  0  0  0  0  0
  183.1990  178.3470  137.6930 N   0  0  0  0  0  0  0  0  0  0  0  0
  184.3220  178.4320  138.4510 O   0  0  0  0  0  1  0  0  0  0  0  0
  180.3750  177.5670  137.6510 C   0  0  1  0  0  3  0  0  0  0  0  0
  182.2580  175.1380  137.0330 C   0  0  2  0  0  3  0  0  0  0  0  0
  181.5650  175.2640  138.7160 S   0  0  0  0  0  0  0  0  0  0  0  0
  180.0690  176.1720  138.1890 C   0  0  0  0  0  2  0  0  0  0  0  0
  179.0680  178.2270  137.2460 C   0  0  0  0  0  1  0  0  0  0  0  0
  182.0210  179.1550  138.0430 C   0  0  1  0  0  0  0  0  0  0  0  0
  182.7070  177.7210  135.4990 O   0  0  0  0  0  0  0  0  0  0  0  0
  183.1520  177.3880  136.6320 C   0  0  0  0  0  0  0  0  0  0  0  0
  182.5210  173.6820  136.6220 C   0  0  2  0  0  3  0  0  0  0  0  0
  182.7150  173.5650  135.2430 O   0  0  0  0  0  1  0  0  0  0  0  0
  181.4160  172.7720  137.0600 C   0  0  0  0  0  3  0  0  0  0  0  0
  181.4220  171.5940  136.7400 O   0  0  0  0  0  0  0  0  0  0  0  0
  1  8  1  6  0  0  0
  1  4  1  0  0  0  0
  2  9  1  6  0  0  0
  3  5  1  0  0  0  0
  4  2  1  0  0  0  0
  5  2  1  0  0  0  0
  6 30  1  6  0  0  0
  6  3  1  0  0  0  0
  6  1  1  0  0  0  0
  7  8  1  0  0  0  0
 10 15  2  0  0  0  0
 11  9  1  6  0  0  0
 11 12  1  0  0  0  0
 11 14  1  0  0  0  0
 12 19  1  1  0  0  0
 12 10  1  0  0  0  0
 13 17  1  0  0  0  0
 14 13  1  0  0  0  0
 15 16  2  0  0  0  0
 16 18  1  0  0  0  0
 17 16  1  0  0  0  0
 20 21  1  0  0  0  0
 20 19  1  0  0  0  0
 22 26  2  0  0  0  0
 22 29  1  0  0  0  0
 23 26  1  0  0  0  0
 24 21  1  6  0  0  0
 24 22  1  0  0  0  0
 25 23  1  0  0  0  0
 27 25  1  0  0  0  0
 27 24  1  0  0  0  0
 29 28  1  0  0  0  0
 30 31  1  0  0  0  0
 32 33  1  0  0  0  0
 32 31  1  0  0  0  0
 33 34  1  0  0  0  0
 35 42  1  0  0  0  0
 35 34  1  0  0  0  0
 39 46  1  0  0  0  0
 39 40  1  0  0  0  0
 41 45  1  1  0  0  0
 41 44  1  0  0  0  0
 41 36  1  0  0  0  0
 42 49  1  1  0  0  0
 42 43  1  0  0  0  0
 44 43  1  0  0  0  0
 46 37  1  6  0  0  0
 46 36  1  0  0  0  0
 46 38  1  0  0  0  0
 47 48  2  0  0  0  0
 48 35  1  0  0  0  0
 48 39  1  0  0  0  0
 49 50  1  6  0  0  0
 49 51  1  0  0  0  0
 52 51  2  0  0  0  0
M  END
>  <MODEL>
1

>  <REMARK>
 VINA RESULT:      -7.5      0.000      0.000
  Name = 
  16 active torsions:
  status: ('A' for Active; 'I' for Inactive)
    1  A    between atoms: C_1  and  O_7
    2  A    between atoms: C_1  and  C_23
    3  A    between atoms: N_2  and  C_49
    4  A    between atoms: C_4  and  O_17
    5  A    between atoms: C_5  and  C_38
    6  A    between atoms: C_6  and  C_27
    7  A    between atoms: C_6  and  C_34
    8  A    between atoms: O_7  and  C_41
    9  A    between atoms: C_8  and  N_15
   10  A    between atoms: C_12  and  N_15
   11  A    between atoms: C_19  and  C_27
   12  A    between atoms: C_21  and  C_34
   13  A    between atoms: C_23  and  C_29
   14  A    between atoms: C_26  and  C_35
   15  A    between atoms: C_26  and  C_36
   16  A    between atoms: C_29  and  C_49
                            x       y       z     vdW  Elec       q    Type
                         _______ _______ _______ _____ _____    ______ ____

>  <TORSDO>
F 16

$$$$
=
 OpenBabel10222417453D

 52 55  0  0  1  0  0  0  0  0999 V2000
  187.3340  175.4090  136.4530 C   0  0  2  0  0  3  0  0  0  0  0  0
  185.4530  177.0980  136.5430 C   0  0  2  0  0  3  0  0  0  0  0  0
  187.5350  177.4260  137.9270 C   0  0  0  0  0  2  0  0  0  0  0  0
  186.2080  176.0890  135.6740 C   0  0  0  0  0  2  0  0  0  0  0  0
  186.4300  178.1200  137.1370 C   0  0  0  0  0  2  0  0  0  0  0  0
  188.2910  176.4680  137.0120 C   0  0  1  0  0  3  0  0  0  0  0  0
  187.6800  173.2640  136.0510 C   0  0  0  0  0  1  0  0  0  0  0  0
  188.0210  174.5410  135.6020 O   0  0  0  0  0  0  0  0  0  0  0  0
  184.7200  176.4030  137.5920 N   0  0  0  0  0  2  0  0  0  0  0  0
  181.8970  178.9180  137.2980 C   0  0  0  0  0  3  0  0  0  0  0  0
  183.7050  177.3100  138.1040 C   0  0  1  0  0  3  0  0  0  0  0  0
  182.7140  177.6980  136.9860 C   0  0  1  0  0  3  0  0  0  0  0  0
  183.1460  177.6310  140.5180 C   0  0  0  0  0  2  0  0  0  0  0  0
  183.0290  176.6900  139.3300 C   0  0  0  0  0  2  0  0  0  0  0  0
  181.5610  179.1690  138.5340 C   0  0  0  0  0  0  0  0  0  0  0  0
  181.3110  179.2900  139.8090 C   0  0  0  0  0  0  0  0  0  0  0  0
  181.9080  178.3850  140.7440 N   0  0  0  0  0  2  0  0  0  0  0  0
  180.2750  180.1690  140.2520 N   0  0  0  0  0  1  0  0  0  0  0  0
  181.8440  176.5310  136.5340 C   0  0  0  0  0  2  0  0  0  0  0  0
  182.2220  176.1150  135.1190 C   0  0  0  0  0  2  0  0  0  0  0  0
  182.0460  174.6160  134.9350 C   0  0  0  0  0  2  0  0  0  0  0  0
  181.4580  172.8240  136.5970 C   0  0  0  0  0  0  0  0  0  0  0  0
  183.2410  171.0900  136.8240 C   0  0  0  0  0  2  0  0  0  0  0  0
  182.4830  173.8720  136.1920 C   0  0  1  0  0  3  0  0  0  0  0  0
  184.2240  172.2370  137.0130 C   0  0  0  0  0  2  0  0  0  0  0  0
  181.8220  171.5750  136.9440 C   0  0  0  0  0  3  0  0  0  0  0  0
  183.9030  173.3190  135.9920 C   0  0  0  0  0  2  0  0  0  0  0  0
  179.7290  173.3450  138.1380 O   0  0  0  0  0  1  0  0  0  0  0  0
  180.0270  173.2310  136.7760 C   0  0  0  0  0  2  0  0  0  0  0  0
  189.3320  175.8570  137.7200 O   0  0  0  0  0  0  0  0  0  0  0  0
  189.6150  176.7320  138.7710 C   0  0  0  0  0  2  0  0  0  0  0  0
  191.1050  176.7430  139.0540 C   0  0  0  0  0  2  0  0  0  0  0  0
  191.3510  177.2870  140.4450 C   0  0  0  0  0  2  0  0  0  0  0  0
  190.3800  176.6510  141.4190 C   0  0  0  0  0  2  0  0  0  0  0  0
  190.0100  177.6060  142.4590 N   0  0  0  0  0  0  0  0  0  0  0  0
  189.8240  176.4730  146.0570 O   0  0  0  0  0  0  0  0  0  0  0  0
  191.6590  177.8680  146.3620 F   0  0  0  0  0  0  0  0  0  0  0  0
  191.9270  175.6400  146.2970 O   0  0  0  0  0  1  0  0  0  0  0  0
  191.4160  176.7590  144.3120 N   0  0  0  0  0  0  0  0  0  0  0  0
  192.0040  175.7120  143.6790 O   0  0  0  0  0  1  0  0  0  0  0  0
  189.0770  177.6460  145.8370 C   0  0  1  0  0  3  0  0  0  0  0  0
  188.5980  177.8680  142.7470 C   0  0  2  0  0  3  0  0  0  0  0  0
  187.8600  176.4440  143.6160 S   0  0  0  0  0  0  0  0  0  0  0  0
  187.7220  177.3090  145.2200 C   0  0  0  0  0  2  0  0  0  0  0  0
  188.8430  178.3570  147.1590 C   0  0  0  0  0  1  0  0  0  0  0  0
  191.1950  176.7030  145.7640 C   0  0  1  0  0  0  0  0  0  0  0  0
  191.1600  179.0390  143.8840 O   0  0  0  0  0  0  0  0  0  0  0  0
  190.9240  177.8520  143.5280 C   0  0  0  0  0  0  0  0  0  0  0  0
  187.7780  178.2850  141.5170 C   0  0  2  0  0  3  0  0  0  0  0  0
  188.3900  179.3300  140.8210 O   0  0  0  0  0  1  0  0  0  0  0  0
  186.3790  178.6680  141.8850 C   0  0  0  0  0  3  0  0  0  0  0  0
  185.8550  179.6510  141.3850 O   0  0  0  0  0  0  0  0  0  0  0  0
  1  8  1  6  0  0  0
  1  6  1  0  0  0  0
  2  5  1  0  0  0  0
  2  9  1  1  0  0  0
  4  1  1  0  0  0  0
  4  2  1  0  0  0  0
  5  3  1  0  0  0  0
  6 30  1  1  0  0  0
  6  3  1  0  0  0  0
  8  7  1  0  0  0  0
 10 15  2  0  0  0  0
 11  9  1  6  0  0  0
 11 14  1  0  0  0  0
 12 19  1  1  0  0  0
 12 10  1  0  0  0  0
 12 11  1  0  0  0  0
 13 17  1  0  0  0  0
 14 13  1  0  0  0  0
 15 16  2  0  0  0  0
 16 18  1  0  0  0  0
 16 17  1  0  0  0  0
 20 19  1  0  0  0  0
 21 20  1  0  0  0  0
 22 29  1  0  0  0  0
 22 26  2  0  0  0  0
 23 26  1  0  0  0  0
 23 25  1  0  0  0  0
 24 21  1  6  0  0  0
 24 22  1  0  0  0  0
 27 24  1  0  0  0  0
 27 25  1  0  0  0  0
 29 28  1  0  0  0  0
 30 31  1  0  0  0  0
 31 32  1  0  0  0  0
 32 33  1  0  0  0  0
 33 34  1  0  0  0  0
 34 35  1  0  0  0  0
 35 42  1  0  0  0  0
 35 48  1  0  0  0  0
 39 46  1  0  0  0  0
 40 39  1  0  0  0  0
 41 36  1  0  0  0  0
 41 45  1  1  0  0  0
 42 49  1  6  0  0  0
 42 43  1  0  0  0  0
 43 44  1  0  0  0  0
 44 41  1  0  0  0  0
 46 36  1  0  0  0  0
 46 38  1  1  0  0  0
 46 37  1  0  0  0  0
 48 47  2  0  0  0  0
 48 39  1  0  0  0  0
 49 50  1  1  0  0  0
 49 51  1  0  0  0  0
 52 51  2  0  0  0  0
M  END
>  <MODEL>
2

>  <REMARK>
 VINA RESULT:      -7.5      3.435      9.358
  Name = 
  16 active torsions:
  status: ('A' for Active; 'I' for Inactive)
    1  A    between atoms: C_1  and  O_7
    2  A    between atoms: C_1  and  C_23
    3  A    between atoms: N_2  and  C_49
    4  A    between atoms: C_4  and  O_17
    5  A    between atoms: C_5  and  C_38
    6  A    between atoms: C_6  and  C_27
    7  A    between atoms: C_6  and  C_34
    8  A    between atoms: O_7  and  C_41
    9  A    between atoms: C_8  and  N_15
   10  A    between atoms: C_12  and  N_15
   11  A    between atoms: C_19  and  C_27
   12  A    between atoms: C_21  and  C_34
   13  A    between atoms: C_23  and  C_29
   14  A    between atoms: C_26  and  C_35
   15  A    between atoms: C_26  and  C_36
   16  A    between atoms: C_29  and  C_49
                            x       y       z     vdW  Elec       q    Type
                         _______ _______ _______ _____ _____    ______ ____

>  <TORSDO>
F 16

$$$$
=
 OpenBabel10222417453D

 52 55  0  0  1  0  0  0  0  0999 V2000
  188.4810  177.0130  144.1740 C   0  0  2  0  0  3  0  0  0  0  0  0
  189.5850  177.7860  142.0330 C   0  0  2  0  0  3  0  0  0  0  0  0
  187.1040  178.0800  142.3720 C   0  0  0  0  0  2  0  0  0  0  0  0
  189.7520  177.5810  143.5400 C   0  0  0  0  0  2  0  0  0  0  0  0
  188.3650  178.6710  141.7500 C   0  0  0  0  0  2  0  0  0  0  0  0
  187.2960  177.9400  143.8790 C   0  0  1  0  0  3  0  0  0  0  0  0
  189.9480  177.4120  145.7780 C   0  0  0  0  0  1  0  0  0  0  0  0
  188.6700  176.8970  145.5520 O   0  0  0  0  0  0  0  0  0  0  0  0
  189.4620  176.4970  141.3650 N   0  0  0  0  0  2  0  0  0  0  0  0
  190.7800  175.8460  137.8690 C   0  0  0  0  0  3  0  0  0  0  0  0
  190.4870  176.4290  140.3350 C   0  0  1  0  0  3  0  0  0  0  0  0
  189.8410  176.3240  138.9370 C   0  0  1  0  0  3  0  0  0  0  0  0
  192.8710  177.1170  140.6260 C   0  0  0  0  0  2  0  0  0  0  0  0
  191.4430  177.6170  140.4770 C   0  0  0  0  0  2  0  0  0  0  0  0
  192.0470  176.1530  137.9410 C   0  0  0  0  0  0  0  0  0  0  0  0
  193.2780  176.5330  138.1530 C   0  0  0  0  0  0  0  0  0  0  0  0
  193.6180  177.2100  139.3670 N   0  0  0  0  0  2  0  0  0  0  0  0
  194.2320  176.4800  137.0910 N   0  0  0  0  0  1  0  0  0  0  0  0
  189.1120  177.5980  138.5240 C   0  0  0  0  0  2  0  0  0  0  0  0
  187.6280  177.3130  138.3330 C   0  0  0  0  0  2  0  0  0  0  0  0
  187.1570  177.8070  136.9750 C   0  0  0  0  0  2  0  0  0  0  0  0
  188.2180  176.2150  135.3450 C   0  0  0  0  0  0  0  0  0  0  0  0
  187.8210  173.8200  135.9310 C   0  0  0  0  0  2  0  0  0  0  0  0
  186.9270  176.6310  136.0330 C   0  0  1  0  0  3  0  0  0  0  0  0
  186.3460  174.1740  136.0480 C   0  0  0  0  0  2  0  0  0  0  0  0
  188.5840  174.9230  135.2500 C   0  0  0  0  0  3  0  0  0  0  0  0
  186.2240  175.4950  136.7930 C   0  0  0  0  0  2  0  0  0  0  0  0
  190.3700  176.8790  134.5970 O   0  0  0  0  0  1  0  0  0  0  0  0
  189.0200  177.2450  134.6100 C   0  0  0  0  0  2  0  0  0  0  0  0
  186.1290  177.4350  144.4610 O   0  0  0  0  0  0  0  0  0  0  0  0
  185.5960  178.5030  145.1870 C   0  0  0  0  0  2  0  0  0  0  0  0
  184.7520  179.3800  144.2830 C   0  0  0  0  0  2  0  0  0  0  0  0
  183.4630  178.6630  143.9430 C   0  0  0  0  0  2  0  0  0  0  0  0
  182.6620  179.4950  142.9630 C   0  0  0  0  0  2  0  0  0  0  0  0
  182.1360  178.6510  141.8950 N   0  0  0  0  0  0  0  0  0  0  0  0
  182.7950  179.5650  138.2900 O   0  0  0  0  0  0  0  0  0  0  0  0
  184.0940  177.6360  138.2670 F   0  0  0  0  0  0  0  0  0  0  0  0
  185.0670  179.6580  138.3360 O   0  0  0  0  0  1  0  0  0  0  0  0
  183.9670  178.8850  140.2460 N   0  0  0  0  0  0  0  0  0  0  0  0
  184.7800  179.7220  140.9390 O   0  0  0  0  0  1  0  0  0  0  0  0
  181.6830  178.7110  138.4200 C   0  0  1  0  0  3  0  0  0  0  0  0
  180.7660  178.8420  141.4150 C   0  0  2  0  0  3  0  0  0  0  0  0
  180.6540  180.3730  140.4300 S   0  0  0  0  0  0  0  0  0  0  0  0
  180.4460  179.5040  138.8360 C   0  0  0  0  0  2  0  0  0  0  0  0
  181.4000  178.0360  137.0890 C   0  0  0  0  0  1  0  0  0  0  0  0
  183.9650  178.9230  138.7760 C   0  0  1  0  0  0  0  0  0  0  0  0
  182.9250  176.8400  140.6670 O   0  0  0  0  0  0  0  0  0  0  0  0
  183.0480  178.0590  140.9680 C   0  0  0  0  0  0  0  0  0  0  0  0
  179.7040  178.7870  142.5240 C   0  0  2  0  0  3  0  0  0  0  0  0
  179.5960  180.0080  143.1930 O   0  0  0  0  0  1  0  0  0  0  0  0
  179.9800  177.6910  143.5040 C   0  0  0  0  0  3  0  0  0  0  0  0
  179.5710  177.7710  144.6520 O   0  0  0  0  0  0  0  0  0  0  0  0
  1  8  1  1  0  0  0
  2  9  1  6  0  0  0
  2  4  1  0  0  0  0
  3  6  1  0  0  0  0
  4  1  1  0  0  0  0
  5  2  1  0  0  0  0
  5  3  1  0  0  0  0
  6  1  1  0  0  0  0
  6 30  1  1  0  0  0
  8  7  1  0  0  0  0
 10 15  2  0  0  0  0
 10 12  1  0  0  0  0
 11 14  1  0  0  0  0
 11  9  1  1  0  0  0
 12 19  1  6  0  0  0
 12 11  1  0  0  0  0
 14 13  1  0  0  0  0
 15 16  2  0  0  0  0
 16 17  1  0  0  0  0
 17 13  1  0  0  0  0
 18 16  1  0  0  0  0
 20 19  1  0  0  0  0
 21 20  1  0  0  0  0
 22 24  1  0  0  0  0
 23 25  1  0  0  0  0
 24 27  1  0  0  0  0
 24 21  1  1  0  0  0
 25 27  1  0  0  0  0
 26 22  2  0  0  0  0
 26 23  1  0  0  0  0
 28 29  1  0  0  0  0
 29 22  1  0  0  0  0
 30 31  1  0  0  0  0
 32 31  1  0  0  0  0
 33 32  1  0  0  0  0
 34 33  1  0  0  0  0
 35 34  1  0  0  0  0
 36 41  1  0  0  0  0
 36 46  1  0  0  0  0
 38 46  1  0  0  0  0
 39 40  1  0  0  0  0
 39 48  1  0  0  0  0
 41 45  1  6  0  0  0
 41 44  1  0  0  0  0
 42 35  1  0  0  0  0
 42 49  1  1  0  0  0
 43 42  1  0  0  0  0
 44 43  1  0  0  0  0
 46 37  1  6  0  0  0
 46 39  1  0  0  0  0
 47 48  2  0  0  0  0
 48 35  1  0  0  0  0
 49 50  1  1  0  0  0
 49 51  1  0  0  0  0
 51 52  2  0  0  0  0
M  END
>  <MODEL>
3

>  <REMARK>
 VINA RESULT:      -7.1      2.713      6.916
  Name = 
  16 active torsions:
  status: ('A' for Active; 'I' for Inactive)
    1  A    between atoms: C_1  and  O_7
    2  A    between atoms: C_1  and  C_23
    3  A    between atoms: N_2  and  C_49
    4  A    between atoms: C_4  and  O_17
    5  A    between atoms: C_5  and  C_38
    6  A    between atoms: C_6  and  C_27
    7  A    between atoms: C_6  and  C_34
    8  A    between atoms: O_7  and  C_41
    9  A    between atoms: C_8  and  N_15
   10  A    between atoms: C_12  and  N_15
   11  A    between atoms: C_19  and  C_27
   12  A    between atoms: C_21  and  C_34
   13  A    between atoms: C_23  and  C_29
   14  A    between atoms: C_26  and  C_35
   15  A    between atoms: C_26  and  C_36
   16  A    between atoms: C_29  and  C_49
                            x       y       z     vdW  Elec       q    Type
                         _______ _______ _______ _____ _____    ______ ____

>  <TORSDO>
F 16

$$$$
=
 OpenBabel10222417453D

 52 55  0  0  1  0  0  0  0  0999 V2000
  190.9210  177.0450  138.0890 C   0  0  2  0  0  3  0  0  0  0  0  0
  190.4960  176.5540  140.5330 C   0  0  2  0  0  3  0  0  0  0  0  0
  189.0080  178.1500  139.2710 C   0  0  0  0  0  2  0  0  0  0  0  0
  191.0060  175.9990  139.2010 C   0  0  0  0  0  2  0  0  0  0  0  0
  189.0700  177.0950  140.3700 C   0  0  0  0  0  2  0  0  0  0  0  0
  189.4770  177.5420  137.9530 C   0  0  1  0  0  3  0  0  0  0  0  0
  190.8780  175.1580  136.9400 C   0  0  0  0  0  1  0  0  0  0  0  0
  191.3470  176.4720  136.8890 O   0  0  0  0  0  0  0  0  0  0  0  0
  191.3970  177.5890  141.0200 N   0  0  0  0  0  2  0  0  0  0  0  0
  191.3130  178.7480  144.6310 C   0  0  0  0  0  3  0  0  0  0  0  0
  191.5280  177.4270  142.4590 C   0  0  1  0  0  3  0  0  0  0  0  0
  190.8810  178.6170  143.1990 C   0  0  1  0  0  3  0  0  0  0  0  0
  192.0230  175.2730  143.6260 C   0  0  0  0  0  2  0  0  0  0  0  0
  190.9620  176.0670  142.8790 C   0  0  0  0  0  2  0  0  0  0  0  0
  191.5970  177.6750  145.3180 C   0  0  0  0  0  0  0  0  0  0  0  0
  191.8520  176.5210  145.8710 C   0  0  0  0  0  0  0  0  0  0  0  0
  191.8260  175.3280  145.0790 N   0  0  0  0  0  2  0  0  0  0  0  0
  191.9310  176.4130  147.2930 N   0  0  0  0  0  1  0  0  0  0  0  0
  189.3640  178.6480  143.0580 C   0  0  0  0  0  2  0  0  0  0  0  0
  188.7080  178.4690  144.4210 C   0  0  0  0  0  2  0  0  0  0  0  0
  188.0030  177.1250  144.5040 C   0  0  0  0  0  2  0  0  0  0  0  0
  187.2770  177.6750  146.8470 C   0  0  0  0  0  0  0  0  0  0  0  0
  185.4430  179.3670  146.9220 C   0  0  0  0  0  2  0  0  0  0  0  0
  186.8280  177.2010  145.4730 C   0  0  1  0  0  3  0  0  0  0  0  0
  184.7080  178.5020  145.9080 C   0  0  0  0  0  2  0  0  0  0  0  0
  186.6000  178.6200  147.5250 C   0  0  0  0  0  3  0  0  0  0  0  0
  185.7050  178.0460  144.8520 C   0  0  0  0  0  2  0  0  0  0  0  0
  189.1020  177.8530  148.3530 O   0  0  0  0  0  1  0  0  0  0  0  0
  188.3990  176.9610  147.5370 C   0  0  0  0  0  2  0  0  0  0  0  0
  189.3850  178.4930  136.9320 O   0  0  0  0  0  0  0  0  0  0  0  0
  188.0290  178.8240  136.8690 C   0  0  0  0  0  2  0  0  0  0  0  0
  187.2890  177.8320  135.9940 C   0  0  0  0  0  2  0  0  0  0  0  0
  186.2550  177.1000  136.8230 C   0  0  0  0  0  2  0  0  0  0  0  0
  185.1150  178.0400  137.1580 C   0  0  0  0  0  2  0  0  0  0  0  0
  184.2110  177.4150  138.1190 N   0  0  0  0  0  0  0  0  0  0  0  0
  180.5830  176.8930  137.2080 O   0  0  0  0  0  0  0  0  0  0  0  0
  181.1230  174.6320  137.2570 F   0  0  0  0  0  0  0  0  0  0  0  0
  180.8450  175.6900  135.2960 O   0  0  0  0  0  1  0  0  0  0  0  0
  182.7530  176.1650  136.5580 N   0  0  0  0  0  0  0  0  0  0  0  0
  183.3260  176.5310  135.3830 O   0  0  0  0  0  1  0  0  0  0  0  0
  180.7810  176.8830  138.6020 C   0  0  1  0  0  3  0  0  0  0  0  0
  183.5600  178.2270  139.1500 C   0  0  2  0  0  3  0  0  0  0  0  0
  182.2540  179.2590  138.4030 S   0  0  0  0  0  0  0  0  0  0  0  0
  180.8790  178.3080  139.1400 C   0  0  0  0  0  2  0  0  0  0  0  0
  179.6100  176.1900  139.2790 C   0  0  0  0  0  1  0  0  0  0  0  0
  181.3190  175.8420  136.6000 C   0  0  1  0  0  0  0  0  0  0  0  0
  183.5030  175.2460  138.5680 O   0  0  0  0  0  0  0  0  0  0  0  0
  183.5390  176.2090  137.7540 C   0  0  0  0  0  0  0  0  0  0  0  0
  184.5350  179.0520  140.0020 C   0  0  2  0  0  3  0  0  0  0  0  0
  185.8600  178.6710  139.7800 O   0  0  0  0  0  1  0  0  0  0  0  0
  184.2150  178.9600  141.4600 C   0  0  0  0  0  3  0  0  0  0  0  0
  183.7570  177.9290  141.9290 O   0  0  0  0  0  0  0  0  0  0  0  0
  1  8  1  6  0  0  0
  1  4  1  0  0  0  0
  2  9  1  6  0  0  0
  3  5  1  0  0  0  0
  4  2  1  0  0  0  0
  5  2  1  0  0  0  0
  6 30  1  6  0  0  0
  6  1  1  0  0  0  0
  6  3  1  0  0  0  0
  8  7  1  0  0  0  0
 10 15  2  0  0  0  0
 11  9  1  6  0  0  0
 11 14  1  0  0  0  0
 11 12  1  0  0  0  0
 12 19  1  1  0  0  0
 12 10  1  0  0  0  0
 13 17  1  0  0  0  0
 14 13  1  0  0  0  0
 15 16  2  0  0  0  0
 16 18  1  0  0  0  0
 17 16  1  0  0  0  0
 19 20  1  0  0  0  0
 20 21  1  0  0  0  0
 22 26  2  0  0  0  0
 22 29  1  0  0  0  0
 23 26  1  0  0  0  0
 24 21  1  6  0  0  0
 24 22  1  0  0  0  0
 25 23  1  0  0  0  0
 27 24  1  0  0  0  0
 27 25  1  0  0  0  0
 29 28  1  0  0  0  0
 31 30  1  0  0  0  0
 32 33  1  0  0  0  0
 32 31  1  0  0  0  0
 33 34  1  0  0  0  0
 34 35  1  0  0  0  0
 35 42  1  0  0  0  0
 36 41  1  0  0  0  0
 39 46  1  0  0  0  0
 39 48  1  0  0  0  0
 40 39  1  0  0  0  0
 41 44  1  0  0  0  0
 41 45  1  1  0  0  0
 42 49  1  6  0  0  0
 43 44  1  0  0  0  0
 43 42  1  0  0  0  0
 46 38  1  6  0  0  0
 46 36  1  0  0  0  0
 46 37  1  0  0  0  0
 48 35  1  0  0  0  0
 48 47  2  0  0  0  0
 49 50  1  1  0  0  0
 49 51  1  0  0  0  0
 51 52  2  0  0  0  0
M  END
>  <MODEL>
4

>  <REMARK>
 VINA RESULT:      -7.0      2.108      3.632
  Name = 
  16 active torsions:
  status: ('A' for Active; 'I' for Inactive)
    1  A    between atoms: C_1  and  O_7
    2  A    between atoms: C_1  and  C_23
    3  A    between atoms: N_2  and  C_49
    4  A    between atoms: C_4  and  O_17
    5  A    between atoms: C_5  and  C_38
    6  A    between atoms: C_6  and  C_27
    7  A    between atoms: C_6  and  C_34
    8  A    between atoms: O_7  and  C_41
    9  A    between atoms: C_8  and  N_15
   10  A    between atoms: C_12  and  N_15
   11  A    between atoms: C_19  and  C_27
   12  A    between atoms: C_21  and  C_34
   13  A    between atoms: C_23  and  C_29
   14  A    between atoms: C_26  and  C_35
   15  A    between atoms: C_26  and  C_36
   16  A    between atoms: C_29  and  C_49
                            x       y       z     vdW  Elec       q    Type
                         _______ _______ _______ _____ _____    ______ ____

>  <TORSDO>
F 16

$$$$
=
 OpenBabel10222417453D

 52 55  0  0  1  0  0  0  0  0999 V2000
  187.2120  175.5560  136.5460 C   0  0  2  0  0  3  0  0  0  0  0  0
  185.6360  177.5250  136.3570 C   0  0  2  0  0  3  0  0  0  0  0  0
  187.7430  177.6990  137.7320 C   0  0  0  0  0  2  0  0  0  0  0  0
  186.2150  176.2950  135.6540 C   0  0  0  0  0  2  0  0  0  0  0  0
  186.7680  178.4470  136.8280 C   0  0  0  0  0  2  0  0  0  0  0  0
  188.3310  176.5120  136.9760 C   0  0  1  0  0  3  0  0  0  0  0  0
  186.8830  173.4150  136.1110 C   0  0  0  0  0  1  0  0  0  0  0  0
  187.7470  174.4770  135.8400 O   0  0  0  0  0  0  0  0  0  0  0  0
  184.7980  177.1130  137.4740 N   0  0  0  0  0  2  0  0  0  0  0  0
  182.2750  174.2820  137.5070 C   0  0  0  0  0  3  0  0  0  0  0  0
  183.7030  176.3180  136.9410 C   0  0  1  0  0  3  0  0  0  0  0  0
  183.1120  175.4080  138.0390 C   0  0  1  0  0  3  0  0  0  0  0  0
  182.4440  176.8230  134.8420 C   0  0  0  0  0  2  0  0  0  0  0  0
  182.6670  177.2380  136.2880 C   0  0  0  0  0  2  0  0  0  0  0  0
  181.5860  174.4530  136.4120 C   0  0  0  0  0  0  0  0  0  0  0  0
  180.9620  174.7710  135.3100 C   0  0  0  0  0  0  0  0  0  0  0  0
  181.2190  176.0310  134.6820 N   0  0  0  0  0  2  0  0  0  0  0  0
  179.8680  173.9740  134.8550 N   0  0  0  0  0  1  0  0  0  0  0  0
  182.3860  176.1890  139.1290 C   0  0  0  0  0  2  0  0  0  0  0  0
  183.3810  177.0230  139.9250 C   0  0  0  0  0  2  0  0  0  0  0  0
  182.7000  178.2420  140.5250 C   0  0  0  0  0  2  0  0  0  0  0  0
  180.4200  179.2510  140.2000 C   0  0  0  0  0  0  0  0  0  0  0  0
  180.5020  181.5100  139.1420 C   0  0  0  0  0  2  0  0  0  0  0  0
  181.7230  178.8510  139.5250 C   0  0  1  0  0  3  0  0  0  0  0  0
  181.3990  180.8940  138.0770 C   0  0  0  0  0  2  0  0  0  0  0  0
  179.8400  180.4430  139.9690 C   0  0  0  0  0  3  0  0  0  0  0  0
  182.4150  179.9940  138.7650 C   0  0  0  0  0  2  0  0  0  0  0  0
  179.7980  178.5300  142.3740 O   0  0  0  0  0  1  0  0  0  0  0  0
  179.6760  178.2350  141.0130 C   0  0  0  0  0  2  0  0  0  0  0  0
  189.2560  175.8450  137.7860 O   0  0  0  0  0  0  0  0  0  0  0  0
  189.5390  176.7390  138.8220 C   0  0  0  0  0  2  0  0  0  0  0  0
  191.0260  176.7380  139.1200 C   0  0  0  0  0  2  0  0  0  0  0  0
  191.2630  177.2860  140.5110 C   0  0  0  0  0  2  0  0  0  0  0  0
  190.2890  176.6480  141.4800 C   0  0  0  0  0  2  0  0  0  0  0  0
  189.9220  177.5980  142.5260 N   0  0  0  0  0  0  0  0  0  0  0  0
  189.8240  176.4680  146.1290 O   0  0  0  0  0  0  0  0  0  0  0  0
  191.6400  177.8960  146.3980 F   0  0  0  0  0  0  0  0  0  0  0  0
  191.9450  175.6730  146.3310 O   0  0  0  0  0  1  0  0  0  0  0  0
  191.3770  176.7790  144.3530 N   0  0  0  0  0  0  0  0  0  0  0  0
  191.9710  175.7410  143.7120 O   0  0  0  0  0  1  0  0  0  0  0  0
  189.0520  177.6280  145.9210 C   0  0  1  0  0  3  0  0  0  0  0  0
  188.5110  177.8360  142.8400 C   0  0  2  0  0  3  0  0  0  0  0  0
  187.8150  176.4010  143.7260 S   0  0  0  0  0  0  0  0  0  0  0  0
  187.6920  177.2660  145.3300 C   0  0  0  0  0  2  0  0  0  0  0  0
  188.8310  178.3370  147.2460 C   0  0  0  0  0  1  0  0  0  0  0  0
  191.1850  176.7210  145.8100 C   0  0  1  0  0  0  0  0  0  0  0  0
  191.0730  179.0540  143.9270 O   0  0  0  0  0  0  0  0  0  0  0  0
  190.8510  177.8620  143.5780 C   0  0  0  0  0  0  0  0  0  0  0  0
  187.6610  178.2360  141.6250 C   0  0  2  0  0  3  0  0  0  0  0  0
  188.2400  179.2930  140.9190 O   0  0  0  0  0  1  0  0  0  0  0  0
  186.2620  178.5920  142.0190 C   0  0  0  0  0  3  0  0  0  0  0  0
  185.7500  179.6240  141.6160 O   0  0  0  0  0  0  0  0  0  0  0  0
  1  8  1  6  0  0  0
  1  6  1  0  0  0  0
  2  5  1  0  0  0  0
  2  9  1  1  0  0  0
  4  2  1  0  0  0  0
  4  1  1  0  0  0  0
  5  3  1  0  0  0  0
  6  3  1  0  0  0  0
  6 30  1  1  0  0  0
  8  7  1  0  0  0  0
 10 12  1  0  0  0  0
 11  9  1  1  0  0  0
 11 12  1  0  0  0  0
 12 19  1  1  0  0  0
 13 14  1  0  0  0  0
 14 11  1  0  0  0  0
 15 10  2  0  0  0  0
 16 15  2  0  0  0  0
 17 13  1  0  0  0  0
 17 16  1  0  0  0  0
 18 16  1  0  0  0  0
 19 20  1  0  0  0  0
 20 21  1  0  0  0  0
 22 29  1  0  0  0  0
 23 26  1  0  0  0  0
 24 22  1  0  0  0  0
 24 21  1  1  0  0  0
 25 27  1  0  0  0  0
 25 23  1  0  0  0  0
 26 22  2  0  0  0  0
 27 24  1  0  0  0  0
 29 28  1  0  0  0  0
 30 31  1  0  0  0  0
 31 32  1  0  0  0  0
 32 33  1  0  0  0  0
 33 34  1  0  0  0  0
 34 35  1  0  0  0  0
 35 42  1  0  0  0  0
 35 48  1  0  0  0  0
 39 46  1  0  0  0  0
 40 39  1  0  0  0  0
 41 36  1  0  0  0  0
 41 45  1  1  0  0  0
 42 49  1  6  0  0  0
 42 43  1  0  0  0  0
 43 44  1  0  0  0  0
 44 41  1  0  0  0  0
 46 36  1  0  0  0  0
 46 38  1  1  0  0  0
 46 37  1  0  0  0  0
 48 47  2  0  0  0  0
 48 39  1  0  0  0  0
 49 50  1  1  0  0  0
 49 51  1  0  0  0  0
 52 51  2  0  0  0  0
M  END
>  <MODEL>
5

>  <REMARK>
 VINA RESULT:      -6.9      3.542      9.094
  Name = 
  16 active torsions:
  status: ('A' for Active; 'I' for Inactive)
    1  A    between atoms: C_1  and  O_7
    2  A    between atoms: C_1  and  C_23
    3  A    between atoms: N_2  and  C_49
    4  A    between atoms: C_4  and  O_17
    5  A    between atoms: C_5  and  C_38
    6  A    between atoms: C_6  and  C_27
    7  A    between atoms: C_6  and  C_34
    8  A    between atoms: O_7  and  C_41
    9  A    between atoms: C_8  and  N_15
   10  A    between atoms: C_12  and  N_15
   11  A    between atoms: C_19  and  C_27
   12  A    between atoms: C_21  and  C_34
   13  A    between atoms: C_23  and  C_29
   14  A    between atoms: C_26  and  C_35
   15  A    between atoms: C_26  and  C_36
   16  A    between atoms: C_29  and  C_49
                            x       y       z     vdW  Elec       q    Type
                         _______ _______ _______ _____ _____    ______ ____

>  <TORSDO>
F 16

$$$$
=
 OpenBabel10222417453D

 52 55  0  0  1  0  0  0  0  0999 V2000
  190.8710  177.1210  138.0620 C   0  0  2  0  0  3  0  0  0  0  0  0
  190.2710  176.6850  140.4800 C   0  0  2  0  0  3  0  0  0  0  0  0
  188.8260  178.1780  139.0520 C   0  0  0  0  0  2  0  0  0  0  0  0
  190.9090  176.1130  139.2120 C   0  0  0  0  0  2  0  0  0  0  0  0
  188.8420  177.1590  140.1870 C   0  0  0  0  0  2  0  0  0  0  0  0
  189.4240  177.5510  137.7960 C   0  0  1  0  0  3  0  0  0  0  0  0
  192.7210  176.1960  137.2830 C   0  0  0  0  0  1  0  0  0  0  0  0
  191.4150  176.5320  136.9190 O   0  0  0  0  0  0  0  0  0  0  0  0
  191.0870  177.7720  141.0020 N   0  0  0  0  0  2  0  0  0  0  0  0
  190.6860  178.7830  144.6360 C   0  0  0  0  0  3  0  0  0  0  0  0
  191.2040  177.5920  142.4410 C   0  0  1  0  0  3  0  0  0  0  0  0
  190.3280  178.6190  143.1870 C   0  0  1  0  0  3  0  0  0  0  0  0
  192.0530  175.5300  143.5700 C   0  0  0  0  0  2  0  0  0  0  0  0
  190.8870  176.1390  142.8060 C   0  0  0  0  0  2  0  0  0  0  0  0
  191.1420  177.7600  145.3050 C   0  0  0  0  0  0  0  0  0  0  0  0
  191.5890  176.6550  145.8380 C   0  0  0  0  0  0  0  0  0  0  0  0
  191.8070  175.5030  145.0160 N   0  0  0  0  0  2  0  0  0  0  0  0
  191.6450  176.5200  147.2580 N   0  0  0  0  0  1  0  0  0  0  0  0
  188.8350  178.3760  142.9950 C   0  0  0  0  0  2  0  0  0  0  0  0
  188.4600  176.9930  143.5100 C   0  0  0  0  0  2  0  0  0  0  0  0
  186.9660  176.9070  143.7760 C   0  0  0  0  0  2  0  0  0  0  0  0
  185.0370  178.4240  144.3240 C   0  0  0  0  0  0  0  0  0  0  0  0
  184.5600  178.5400  146.7710 C   0  0  0  0  0  2  0  0  0  0  0  0
  186.5010  178.1090  144.5910 C   0  0  1  0  0  3  0  0  0  0  0  0
  186.0420  178.8240  146.9680 C   0  0  0  0  0  2  0  0  0  0  0  0
  184.1740  178.6800  145.3240 C   0  0  0  0  0  3  0  0  0  0  0  0
  186.8360  177.8840  146.0730 C   0  0  0  0  0  2  0  0  0  0  0  0
  185.1920  179.7430  142.3570 O   0  0  0  0  0  1  0  0  0  0  0  0
  184.5760  178.6170  142.9110 C   0  0  0  0  0  2  0  0  0  0  0  0
  189.3760  178.4670  136.7400 O   0  0  0  0  0  0  0  0  0  0  0  0
  188.5220  177.8870  135.7980 C   0  0  0  0  0  2  0  0  0  0  0  0
  187.5790  176.9130  136.4780 C   0  0  0  0  0  2  0  0  0  0  0  0
  186.1480  177.3370  136.2270 C   0  0  0  0  0  2  0  0  0  0  0  0
  185.2640  176.8330  137.3490 C   0  0  0  0  0  2  0  0  0  0  0  0
  183.8860  176.7020  136.8880 N   0  0  0  0  0  0  0  0  0  0  0  0
  181.0440  177.6200  139.1990 O   0  0  0  0  0  0  0  0  0  0  0  0
  180.6760  179.3590  137.7010 F   0  0  0  0  0  0  0  0  0  0  0  0
  181.6350  179.7600  139.6910 O   0  0  0  0  0  1  0  0  0  0  0  0
  182.8740  178.6310  138.0640 N   0  0  0  0  0  0  0  0  0  0  0  0
  183.9730  179.0920  138.7140 O   0  0  0  0  0  1  0  0  0  0  0  0
  180.6240  176.7570  138.1690 C   0  0  1  0  0  3  0  0  0  0  0  0
  183.1980  175.4130  136.9860 C   0  0  2  0  0  3  0  0  0  0  0  0
  182.7810  175.0560  138.7260 S   0  0  0  0  0  0  0  0  0  0  0  0
  180.9860  175.3110  138.5000 C   0  0  0  0  0  2  0  0  0  0  0  0
  179.1170  176.8530  138.0050 C   0  0  0  0  0  1  0  0  0  0  0  0
  181.5410  178.8320  138.6520 C   0  0  1  0  0  0  0  0  0  0  0  0
  182.3390  178.0980  135.8550 O   0  0  0  0  0  0  0  0  0  0  0  0
  183.0490  177.8600  136.8700 C   0  0  0  0  0  0  0  0  0  0  0  0
  183.9510  174.2520  136.3200 C   0  0  2  0  0  3  0  0  0  0  0  0
  183.3900  173.9170  135.0860 O   0  0  0  0  0  1  0  0  0  0  0  0
  184.0010  173.0440  137.2020 C   0  0  0  0  0  3  0  0  0  0  0  0
  185.0720  172.5390  137.4980 O   0  0  0  0  0  0  0  0  0  0  0  0
  1  8  1  6  0  0  0
  1  4  1  0  0  0  0
  2  9  1  6  0  0  0
  3  5  1  0  0  0  0
  4  2  1  0  0  0  0
  5  2  1  0  0  0  0
  6 30  1  6  0  0  0
  6  1  1  0  0  0  0
  6  3  1  0  0  0  0
  8  7  1  0  0  0  0
 10 15  2  0  0  0  0
 11  9  1  6  0  0  0
 11 14  1  0  0  0  0
 11 12  1  0  0  0  0
 12 19  1  1  0  0  0
 12 10  1  0  0  0  0
 13 17  1  0  0  0  0
 14 13  1  0  0  0  0
 15 16  2  0  0  0  0
 16 18  1  0  0  0  0
 17 16  1  0  0  0  0
 19 20  1  0  0  0  0
 20 21  1  0  0  0  0
 22 24  1  0  0  0  0
 22 26  2  0  0  0  0
 23 25  1  0  0  0  0
 24 21  1  6  0  0  0
 24 27  1  0  0  0  0
 26 23  1  0  0  0  0
 27 25  1  0  0  0  0
 28 29  1  0  0  0  0
 29 22  1  0  0  0  0
 31 32  1  0  0  0  0
 31 30  1  0  0  0  0
 33 32  1  0  0  0  0
 33 34  1  0  0  0  0
 35 42  1  0  0  0  0
 35 34  1  0  0  0  0
 39 46  1  0  0  0  0
 39 40  1  0  0  0  0
 41 45  1  1  0  0  0
 41 44  1  0  0  0  0
 41 36  1  0  0  0  0
 42 49  1  1  0  0  0
 42 43  1  0  0  0  0
 44 43  1  0  0  0  0
 46 37  1  6  0  0  0
 46 36  1  0  0  0  0
 46 38  1  0  0  0  0
 47 48  2  0  0  0  0
 48 35  1  0  0  0  0
 48 39  1  0  0  0  0
 49 50  1  6  0  0  0
 49 51  1  0  0  0  0
 51 52  2  0  0  0  0
M  END
>  <MODEL>
6

>  <REMARK>
 VINA RESULT:      -6.7      1.499      2.275
  Name = 
  16 active torsions:
  status: ('A' for Active; 'I' for Inactive)
    1  A    between atoms: C_1  and  O_7
    2  A    between atoms: C_1  and  C_23
    3  A    between atoms: N_2  and  C_49
    4  A    between atoms: C_4  and  O_17
    5  A    between atoms: C_5  and  C_38
    6  A    between atoms: C_6  and  C_27
    7  A    between atoms: C_6  and  C_34
    8  A    between atoms: O_7  and  C_41
    9  A    between atoms: C_8  and  N_15
   10  A    between atoms: C_12  and  N_15
   11  A    between atoms: C_19  and  C_27
   12  A    between atoms: C_21  and  C_34
   13  A    between atoms: C_23  and  C_29
   14  A    between atoms: C_26  and  C_35
   15  A    between atoms: C_26  and  C_36
   16  A    between atoms: C_29  and  C_49
                            x       y       z     vdW  Elec       q    Type
                         _______ _______ _______ _____ _____    ______ ____

>  <TORSDO>
F 16

$$$$
=
 OpenBabel10222417453D

 52 55  0  0  1  0  0  0  0  0999 V2000
  187.8390  175.4600  137.2090 C   0  0  2  0  0  3  0  0  0  0  0  0
  186.6830  177.0210  135.5880 C   0  0  2  0  0  3  0  0  0  0  0  0
  188.6950  177.7950  136.8960 C   0  0  0  0  0  2  0  0  0  0  0  0
  187.0570  175.5700  135.8990 C   0  0  0  0  0  2  0  0  0  0  0  0
  187.9390  177.9010  135.5750 C   0  0  0  0  0  2  0  0  0  0  0  0
  189.0910  176.3420  137.1410 C   0  0  1  0  0  3  0  0  0  0  0  0
  189.1370  173.8570  136.4180 C   0  0  0  0  0  1  0  0  0  0  0  0
  188.2000  174.1280  137.4160 O   0  0  0  0  0  0  0  0  0  0  0  0
  185.7140  177.5060  136.5610 N   0  0  0  0  0  2  0  0  0  0  0  0
  183.0890  175.3530  138.2530 C   0  0  0  0  0  3  0  0  0  0  0  0
  184.6080  176.5630  136.5980 C   0  0  1  0  0  3  0  0  0  0  0  0
  183.9500  176.5560  137.9940 C   0  0  1  0  0  3  0  0  0  0  0  0
  183.4340  175.6390  134.5940 C   0  0  0  0  0  2  0  0  0  0  0  0
  183.6270  176.8720  135.4630 C   0  0  0  0  0  2  0  0  0  0  0  0
  182.4420  174.8010  137.2640 C   0  0  0  0  0  0  0  0  0  0  0  0
  181.8650  174.3570  136.1800 C   0  0  0  0  0  0  0  0  0  0  0  0
  182.1860  174.9350  134.9110 N   0  0  0  0  0  2  0  0  0  0  0  0
  180.7560  173.4610  136.2790 N   0  0  0  0  0  1  0  0  0  0  0  0
  183.2200  177.8560  138.3130 C   0  0  0  0  0  2  0  0  0  0  0  0
  183.8090  178.4930  139.5640 C   0  0  0  0  0  2  0  0  0  0  0  0
  183.0700  178.0210  140.8050 C   0  0  0  0  0  2  0  0  0  0  0  0
  182.1760  178.9940  142.9430 C   0  0  0  0  0  0  0  0  0  0  0  0
  183.6940  178.6170  144.8890 C   0  0  0  0  0  2  0  0  0  0  0  0
  183.3500  178.9550  141.9770 C   0  0  1  0  0  3  0  0  0  0  0  0
  184.8160  179.1710  144.0220 C   0  0  0  0  0  2  0  0  0  0  0  0
  182.3510  178.9020  144.2750 C   0  0  0  0  0  3  0  0  0  0  0  0
  184.6880  178.5720  142.6290 C   0  0  0  0  0  2  0  0  0  0  0  0
  180.3150  180.4650  143.0320 O   0  0  0  0  0  1  0  0  0  0  0  0
  180.8070  179.3080  142.4190 C   0  0  0  0  0  2  0  0  0  0  0  0
  189.8190  176.2440  138.3310 O   0  0  0  0  0  0  0  0  0  0  0  0
  191.0850  176.7490  138.0220 C   0  0  0  0  0  2  0  0  0  0  0  0
  192.0290  176.5420  139.1910 C   0  0  0  0  0  2  0  0  0  0  0  0
  191.6750  177.5050  140.3040 C   0  0  0  0  0  2  0  0  0  0  0  0
  190.9260  176.7680  141.3950 C   0  0  0  0  0  2  0  0  0  0  0  0
  190.5440  177.6910  142.4590 N   0  0  0  0  0  0  0  0  0  0  0  0
  189.7890  176.3600  145.9110 O   0  0  0  0  0  0  0  0  0  0  0  0
  191.7210  177.4940  146.5330 F   0  0  0  0  0  0  0  0  0  0  0  0
  191.7360  175.2590  146.3230 O   0  0  0  0  0  1  0  0  0  0  0  0
  191.6050  176.5590  144.3870 N   0  0  0  0  0  0  0  0  0  0  0  0
  192.1410  175.4900  143.7450 O   0  0  0  0  0  1  0  0  0  0  0  0
  189.2140  177.6280  145.7000 C   0  0  1  0  0  3  0  0  0  0  0  0
  189.1470  178.1070  142.6030 C   0  0  2  0  0  3  0  0  0  0  0  0
  188.1490  176.7320  143.2680 S   0  0  0  0  0  0  0  0  0  0  0  0
  187.9150  177.5020  144.9080 C   0  0  0  0  0  2  0  0  0  0  0  0
  188.9030  178.2760  147.0390 C   0  0  0  0  0  1  0  0  0  0  0  0
  191.2020  176.4360  145.7960 C   0  0  1  0  0  0  0  0  0  0  0  0
  191.6670  178.8760  144.1140 O   0  0  0  0  0  0  0  0  0  0  0  0
  191.3420  177.7530  143.6410 C   0  0  0  0  0  0  0  0  0  0  0  0
  188.5370  178.7010  141.3250 C   0  0  2  0  0  3  0  0  0  0  0  0
  187.6750  179.7610  141.6110 O   0  0  0  0  0  1  0  0  0  0  0  0
  187.8210  177.6650  140.5170 C   0  0  0  0  0  3  0  0  0  0  0  0
  186.8350  177.9640  139.8620 O   0  0  0  0  0  0  0  0  0  0  0  0
  1  8  1  6  0  0  0
  2  4  1  0  0  0  0
  2  9  1  1  0  0  0
  3  6  1  0  0  0  0
  4  1  1  0  0  0  0
  5  2  1  0  0  0  0
  5  3  1  0  0  0  0
  6  1  1  0  0  0  0
  6 30  1  1  0  0  0
  7  8  1  0  0  0  0
 11  9  1  1  0  0  0
 11 12  1  0  0  0  0
 12 10  1  0  0  0  0
 12 19  1  6  0  0  0
 13 17  1  0  0  0  0
 13 14  1  0  0  0  0
 14 11  1  0  0  0  0
 15 10  2  0  0  0  0
 16 18  1  0  0  0  0
 16 15  2  0  0  0  0
 17 16  1  0  0  0  0
 19 20  1  0  0  0  0
 20 21  1  0  0  0  0
 22 26  2  0  0  0  0
 24 21  1  6  0  0  0
 24 27  1  0  0  0  0
 24 22  1  0  0  0  0
 25 23  1  0  0  0  0
 26 23  1  0  0  0  0
 27 25  1  0  0  0  0
 29 22  1  0  0  0  0
 29 28  1  0  0  0  0
 31 30  1  0  0  0  0
 31 32  1  0  0  0  0
 32 33  1  0  0  0  0
 33 34  1  0  0  0  0
 34 35  1  0  0  0  0
 35 42  1  0  0  0  0
 35 48  1  0  0  0  0
 39 46  1  0  0  0  0
 40 39  1  0  0  0  0
 41 36  1  0  0  0  0
 41 45  1  1  0  0  0
 42 49  1  6  0  0  0
 42 43  1  0  0  0  0
 43 44  1  0  0  0  0
 44 41  1  0  0  0  0
 46 36  1  0  0  0  0
 46 38  1  1  0  0  0
 46 37  1  0  0  0  0
 48 47  2  0  0  0  0
 48 39  1  0  0  0  0
 49 50  1  1  0  0  0
 51 49  1  0  0  0  0
 52 51  2  0  0  0  0
M  END
>  <MODEL>
7

>  <REMARK>
 VINA RESULT:      -6.6      3.483      8.719
  Name = 
  16 active torsions:
  status: ('A' for Active; 'I' for Inactive)
    1  A    between atoms: C_1  and  O_7
    2  A    between atoms: C_1  and  C_23
    3  A    between atoms: N_2  and  C_49
    4  A    between atoms: C_4  and  O_17
    5  A    between atoms: C_5  and  C_38
    6  A    between atoms: C_6  and  C_27
    7  A    between atoms: C_6  and  C_34
    8  A    between atoms: O_7  and  C_41
    9  A    between atoms: C_8  and  N_15
   10  A    between atoms: C_12  and  N_15
   11  A    between atoms: C_19  and  C_27
   12  A    between atoms: C_21  and  C_34
   13  A    between atoms: C_23  and  C_29
   14  A    between atoms: C_26  and  C_35
   15  A    between atoms: C_26  and  C_36
   16  A    between atoms: C_29  and  C_49
                            x       y       z     vdW  Elec       q    Type
                         _______ _______ _______ _____ _____    ______ ____

>  <TORSDO>
F 16

$$$$
=
 OpenBabel10222417453D

 52 55  0  0  1  0  0  0  0  0999 V2000
  190.2240  177.5680  138.7260 C   0  0  2  0  0  3  0  0  0  0  0  0
  190.5530  176.4370  140.9640 C   0  0  2  0  0  3  0  0  0  0  0  0
  188.4290  177.7020  140.4690 C   0  0  0  0  0  2  0  0  0  0  0  0
  190.8550  176.3870  139.4650 C   0  0  0  0  0  2  0  0  0  0  0  0
  189.0390  176.5090  141.1970 C   0  0  0  0  0  2  0  0  0  0  0  0
  188.7120  177.5870  138.9750 C   0  0  1  0  0  3  0  0  0  0  0  0
  190.0430  176.1630  137.0300 C   0  0  0  0  0  1  0  0  0  0  0  0
  190.4850  177.4450  137.3600 O   0  0  0  0  0  0  0  0  0  0  0  0
  191.2300  177.5730  141.5730 N   0  0  0  0  0  2  0  0  0  0  0  0
  191.2850  178.3130  145.2920 C   0  0  0  0  0  3  0  0  0  0  0  0
  191.4560  177.2610  142.9750 C   0  0  1  0  0  3  0  0  0  0  0  0
  190.7790  178.3120  143.8790 C   0  0  1  0  0  3  0  0  0  0  0  0
  192.1550  175.0300  143.8590 C   0  0  0  0  0  2  0  0  0  0  0  0
  191.0040  175.8260  143.2630 C   0  0  0  0  0  2  0  0  0  0  0  0
  191.6770  177.1930  145.8360 C   0  0  0  0  0  0  0  0  0  0  0  0
  192.0370  176.0050  146.2380 C   0  0  0  0  0  0  0  0  0  0  0  0
  192.0410  174.9090  145.3170 N   0  0  0  0  0  2  0  0  0  0  0  0
  192.2060  175.7450  147.6320 N   0  0  0  0  0  1  0  0  0  0  0  0
  189.2570  178.2530  143.8210 C   0  0  0  0  0  2  0  0  0  0  0  0
  188.7440  177.1200  144.6990 C   0  0  0  0  0  2  0  0  0  0  0  0
  187.2590  176.8920  144.4670 C   0  0  0  0  0  2  0  0  0  0  0  0
  185.2900  178.3540  143.9120 C   0  0  0  0  0  0  0  0  0  0  0  0
  183.7320  178.6540  145.8390 C   0  0  0  0  0  2  0  0  0  0  0  0
  186.4650  178.1350  144.8540 C   0  0  1  0  0  3  0  0  0  0  0  0
  184.9520  179.0270  146.6690 C   0  0  0  0  0  2  0  0  0  0  0  0
  184.0610  178.6510  144.3720 C   0  0  0  0  0  3  0  0  0  0  0  0
  186.0750  178.0540  146.3380 C   0  0  0  0  0  2  0  0  0  0  0  0
  185.8610  179.7080  142.0480 O   0  0  0  0  0  1  0  0  0  0  0  0
  185.5360  178.4030  142.4350 C   0  0  0  0  0  2  0  0  0  0  0  0
  188.1210  178.6580  138.2960 O   0  0  0  0  0  0  0  0  0  0  0  0
  186.9150  178.1530  137.8050 C   0  0  0  0  0  2  0  0  0  0  0  0
  185.7660  178.5870  138.6940 C   0  0  0  0  0  2  0  0  0  0  0  0
  184.4520  178.2970  138.0010 C   0  0  0  0  0  2  0  0  0  0  0  0
  184.3780  176.8250  137.6480 C   0  0  0  0  0  2  0  0  0  0  0  0
  183.1520  176.5440  136.9080 N   0  0  0  0  0  0  0  0  0  0  0  0
  180.7480  173.9310  138.1940 O   0  0  0  0  0  0  0  0  0  0  0  0
  179.3240  175.7340  138.5550 F   0  0  0  0  0  0  0  0  0  0  0  0
  180.3770  174.7570  140.2800 O   0  0  0  0  0  1  0  0  0  0  0  0
  181.6330  176.0550  138.8000 N   0  0  0  0  0  0  0  0  0  0  0  0
  182.5040  176.2180  139.8280 O   0  0  0  0  0  1  0  0  0  0  0  0
  180.5700  174.1760  136.8190 C   0  0  1  0  0  3  0  0  0  0  0  0
  183.1690  175.5950  135.7920 C   0  0  2  0  0  3  0  0  0  0  0  0
  183.3290  173.8900  136.4200 S   0  0  0  0  0  0  0  0  0  0  0  0
  181.6140  173.4200  136.0010 C   0  0  0  0  0  2  0  0  0  0  0  0
  179.1890  173.7080  136.3910 C   0  0  0  0  0  1  0  0  0  0  0  0
  180.5090  175.1170  138.9380 C   0  0  1  0  0  0  0  0  0  0  0  0
  180.9630  177.3250  136.9600 O   0  0  0  0  0  0  0  0  0  0  0  0
  181.8940  176.7220  137.5600 C   0  0  0  0  0  0  0  0  0  0  0  0
  184.2170  175.9180  134.7160 C   0  0  2  0  0  3  0  0  0  0  0  0
  185.3420  175.0990  134.8330 O   0  0  0  0  0  1  0  0  0  0  0  0
  184.6280  177.3560  134.7530 C   0  0  0  0  0  3  0  0  0  0  0  0
  185.7980  177.6690  134.6030 O   0  0  0  0  0  0  0  0  0  0  0  0
  1  8  1  6  0  0  0
  1  6  1  0  0  0  0
  1  4  1  0  0  0  0
  2  5  1  0  0  0  0
  2  9  1  6  0  0  0
  3  5  1  0  0  0  0
  4  2  1  0  0  0  0
  6 30  1  6  0  0  0
  6  3  1  0  0  0  0
  7  8  1  0  0  0  0
 10 15  2  0  0  0  0
 11  9  1  6  0  0  0
 11 14  1  0  0  0  0
 11 12  1  0  0  0  0
 12 19  1  1  0  0  0
 12 10  1  0  0  0  0
 13 17  1  0  0  0  0
 14 13  1  0  0  0  0
 15 16  2  0  0  0  0
 16 18  1  0  0  0  0
 17 16  1  0  0  0  0
 19 20  1  0  0  0  0
 21 20  1  0  0  0  0
 22 26  2  0  0  0  0
 22 24  1  0  0  0  0
 23 25  1  0  0  0  0
 24 21  1  6  0  0  0
 24 27  1  0  0  0  0
 26 23  1  0  0  0  0
 27 25  1  0  0  0  0
 28 29  1  0  0  0  0
 29 22  1  0  0  0  0
 31 30  1  0  0  0  0
 31 32  1  0  0  0  0
 33 32  1  0  0  0  0
 34 33  1  0  0  0  0
 35 48  1  0  0  0  0
 35 34  1  0  0  0  0
 36 46  1  0  0  0  0
 39 46  1  0  0  0  0
 39 40  1  0  0  0  0
 41 45  1  6  0  0  0
 41 36  1  0  0  0  0
 42 49  1  6  0  0  0
 42 43  1  0  0  0  0
 42 35  1  0  0  0  0
 44 43  1  0  0  0  0
 44 41  1  0  0  0  0
 46 37  1  6  0  0  0
 46 38  1  0  0  0  0
 47 48  2  0  0  0  0
 48 39  1  0  0  0  0
 49 51  1  0  0  0  0
 49 50  1  1  0  0  0
 52 51  2  0  0  0  0
M  END
>  <MODEL>
8

>  <REMARK>
 VINA RESULT:      -6.0      2.035      3.251
  Name = 
  16 active torsions:
  status: ('A' for Active; 'I' for Inactive)
    1  A    between atoms: C_1  and  O_7
    2  A    between atoms: C_1  and  C_23
    3  A    between atoms: N_2  and  C_49
    4  A    between atoms: C_4  and  O_17
    5  A    between atoms: C_5  and  C_38
    6  A    between atoms: C_6  and  C_27
    7  A    between atoms: C_6  and  C_34
    8  A    between atoms: O_7  and  C_41
    9  A    between atoms: C_8  and  N_15
   10  A    between atoms: C_12  and  N_15
   11  A    between atoms: C_19  and  C_27
   12  A    between atoms: C_21  and  C_34
   13  A    between atoms: C_23  and  C_29
   14  A    between atoms: C_26  and  C_35
   15  A    between atoms: C_26  and  C_36
   16  A    between atoms: C_29  and  C_49
                            x       y       z     vdW  Elec       q    Type
                         _______ _______ _______ _____ _____    ______ ____

>  <TORSDO>
F 16

$$$$
=
 OpenBabel10222417453D

 52 55  0  0  1  0  0  0  0  0999 V2000
  189.9030  176.9500  140.9630 C   0  0  2  0  0  3  0  0  0  0  0  0
  190.8370  176.8660  138.6140 C   0  0  2  0  0  3  0  0  0  0  0  0
  188.4410  177.5420  139.0160 C   0  0  0  0  0  2  0  0  0  0  0  0
  191.1440  177.1340  140.0890 C   0  0  0  0  0  2  0  0  0  0  0  0
  189.6760  177.7520  138.1450 C   0  0  0  0  0  2  0  0  0  0  0  0
  188.7790  177.8670  140.4670 C   0  0  1  0  0  3  0  0  0  0  0  0
  190.0740  176.0520  142.9750 C   0  0  0  0  0  1  0  0  0  0  0  0
  190.2260  177.2580  142.2860 O   0  0  0  0  0  0  0  0  0  0  0  0
  190.5320  175.4560  138.4160 N   0  0  0  0  0  2  0  0  0  0  0  0
  191.8930  173.3110  135.5990 C   0  0  0  0  0  3  0  0  0  0  0  0
  191.5780  174.8850  137.5820 C   0  0  1  0  0  3  0  0  0  0  0  0
  190.9720  174.2630  136.3060 C   0  0  1  0  0  3  0  0  0  0  0  0
  194.0090  175.4390  137.7400 C   0  0  0  0  0  2  0  0  0  0  0  0
  192.6460  175.9450  137.2960 C   0  0  0  0  0  2  0  0  0  0  0  0
  193.1820  173.5190  135.6320 C   0  0  0  0  0  0  0  0  0  0  0  0
  194.4370  173.8520  135.7600 C   0  0  0  0  0  0  0  0  0  0  0  0
  194.8040  174.9420  136.6120 N   0  0  0  0  0  2  0  0  0  0  0  0
  195.4160  173.2880  134.8860 N   0  0  0  0  0  1  0  0  0  0  0  0
  190.3930  175.3040  135.3550 C   0  0  0  0  0  2  0  0  0  0  0  0
  188.8730  175.2980  135.4350 C   0  0  0  0  0  2  0  0  0  0  0  0
  188.3280  173.9030  135.1760 C   0  0  0  0  0  2  0  0  0  0  0  0
  186.3180  172.5160  135.7750 C   0  0  0  0  0  0  0  0  0  0  0  0
  184.9470  173.5340  137.5960 C   0  0  0  0  0  2  0  0  0  0  0  0
  186.8120  173.8870  135.3360 C   0  0  1  0  0  3  0  0  0  0  0  0
  184.9700  174.8230  136.7880 C   0  0  0  0  0  2  0  0  0  0  0  0
  185.4200  172.3720  136.7670 C   0  0  0  0  0  3  0  0  0  0  0  0
  186.3820  175.0360  136.2610 C   0  0  0  0  0  2  0  0  0  0  0  0
  185.8160  170.2620  135.2260 O   0  0  0  0  0  1  0  0  0  0  0  0
  186.7120  171.3080  134.9810 C   0  0  0  0  0  2  0  0  0  0  0  0
  187.6410  177.7150  141.2650 O   0  0  0  0  0  0  0  0  0  0  0  0
  187.3650  178.9950  141.7500 C   0  0  0  0  0  2  0  0  0  0  0  0
  185.8700  179.2430  141.7500 C   0  0  0  0  0  2  0  0  0  0  0  0
  185.2690  178.7150  140.4650 C   0  0  0  0  0  2  0  0  0  0  0  0
  183.8620  179.2540  140.3030 C   0  0  0  0  0  2  0  0  0  0  0  0
  182.8880  178.1780  140.4530 N   0  0  0  0  0  0  0  0  0  0  0  0
  180.4260  177.4820  137.6750 O   0  0  0  0  0  0  0  0  0  0  0  0
  181.5960  175.4860  137.4340 F   0  0  0  0  0  0  0  0  0  0  0  0
  181.8810  177.1530  135.9580 O   0  0  0  0  0  1  0  0  0  0  0  0
  182.7650  177.4050  138.1050 N   0  0  0  0  0  0  0  0  0  0  0  0
  183.6410  178.2750  137.5420 O   0  0  0  0  0  1  0  0  0  0  0  0
  179.9820  176.9730  138.9100 C   0  0  1  0  0  3  0  0  0  0  0  0
  181.6240  178.4240  141.1510 C   0  0  2  0  0  3  0  0  0  0  0  0
  180.5230  179.4450  140.1150 S   0  0  0  0  0  0  0  0  0  0  0  0
  179.3600  178.0830  139.7540 C   0  0  0  0  0  2  0  0  0  0  0  0
  178.9310  175.9010  138.6710 C   0  0  0  0  0  1  0  0  0  0  0  0
  181.6530  176.8690  137.3050 C   0  0  1  0  0  0  0  0  0  0  0  0
  182.8090  175.9190  139.9050 O   0  0  0  0  0  0  0  0  0  0  0  0
  182.8820  177.1130  139.5020 C   0  0  0  0  0  0  0  0  0  0  0  0
  181.7940  179.0050  142.5630 C   0  0  2  0  0  3  0  0  0  0  0  0
  182.7780  178.3240  143.2830 O   0  0  0  0  0  1  0  0  0  0  0  0
  180.5070  178.9970  143.3260 C   0  0  0  0  0  3  0  0  0  0  0  0
  179.8790  177.9600  143.4700 O   0  0  0  0  0  0  0  0  0  0  0  0
  1  8  1  1  0  0  0
  2  9  1  1  0  0  0
  2  4  1  0  0  0  0
  3  6  1  0  0  0  0
  4  1  1  0  0  0  0
  5  2  1  0  0  0  0
  5  3  1  0  0  0  0
  6  1  1  0  0  0  0
  6 30  1  1  0  0  0
  8  7  1  0  0  0  0
 10 15  2  0  0  0  0
 10 12  1  0  0  0  0
 11  9  1  6  0  0  0
 12 19  1  6  0  0  0
 12 11  1  0  0  0  0
 14 11  1  0  0  0  0
 14 13  1  0  0  0  0
 15 16  2  0  0  0  0
 16 17  1  0  0  0  0
 17 13  1  0  0  0  0
 18 16  1  0  0  0  0
 19 20  1  0  0  0  0
 21 20  1  0  0  0  0
 22 26  2  0  0  0  0
 24 21  1  1  0  0  0
 24 22  1  0  0  0  0
 24 27  1  0  0  0  0
 25 23  1  0  0  0  0
 26 23  1  0  0  0  0
 27 25  1  0  0  0  0
 29 28  1  0  0  0  0
 29 22  1  0  0  0  0
 30 31  1  0  0  0  0
 31 32  1  0  0  0  0
 33 32  1  0  0  0  0
 34 35  1  0  0  0  0
 34 33  1  0  0  0  0
 35 42  1  0  0  0  0
 36 41  1  0  0  0  0
 39 48  1  0  0  0  0
 40 39  1  0  0  0  0
 41 45  1  6  0  0  0
 41 44  1  0  0  0  0
 42 49  1  1  0  0  0
 43 42  1  0  0  0  0
 44 43  1  0  0  0  0
 46 38  1  6  0  0  0
 46 37  1  0  0  0  0
 46 36  1  0  0  0  0
 46 39  1  0  0  0  0
 48 47  2  0  0  0  0
 48 35  1  0  0  0  0
 49 50  1  1  0  0  0
 49 51  1  0  0  0  0
 51 52  2  0  0  0  0
M  END
>  <MODEL>
9

>  <REMARK>
 VINA RESULT:      -6.0      2.989      7.039
  Name = 
  16 active torsions:
  status: ('A' for Active; 'I' for Inactive)
    1  A    between atoms: C_1  and  O_7
    2  A    between atoms: C_1  and  C_23
    3  A    between atoms: N_2  and  C_49
    4  A    between atoms: C_4  and  O_17
    5  A    between atoms: C_5  and  C_38
    6  A    between atoms: C_6  and  C_27
    7  A    between atoms: C_6  and  C_34
    8  A    between atoms: O_7  and  C_41
    9  A    between atoms: C_8  and  N_15
   10  A    between atoms: C_12  and  N_15
   11  A    between atoms: C_19  and  C_27
   12  A    between atoms: C_21  and  C_34
   13  A    between atoms: C_23  and  C_29
   14  A    between atoms: C_26  and  C_35
   15  A    between atoms: C_26  and  C_36
   16  A    between atoms: C_29  and  C_49
                            x       y       z     vdW  Elec       q    Type
                         _______ _______ _______ _____ _____    ______ ____

>  <TORSDO>
F 16

$$$$
