=
 OpenBabel10222421023D

 38 41  0  0  1  0  0  0  0  0999 V2000
  187.2760  177.2340  144.8690 C   0  0  0  0  0  2  0  0  0  0  0  0
  185.1060  178.1370  143.9870 C   0  0  1  0  0  3  0  0  0  0  0  0
  179.6260  180.3300  138.6980 C   0  0  0  0  0  1  0  0  0  0  0  0
  182.9540  178.5660  142.7780 O   0  0  0  0  0  0  0  0  0  0  0  0
  180.6240  180.0270  139.7120 N   0  0  0  0  0  0  0  0  0  0  0  0
  180.2610  180.0920  141.1220 C   0  0  0  0  0  2  0  0  0  0  0  0
  182.1730  178.4450  141.5920 C   0  0  1  0  0  3  0  0  0  0  0  0
  184.8460  179.7220  139.2770 O   0  0  0  0  0  1  0  0  0  0  0  0
  184.1860  179.1870  140.3810 C   0  0  0  0  0  0  0  0  0  0  0  0
  184.9790  178.7340  141.5500 C   0  0  0  0  0  0  0  0  0  0  0  0
  182.3900  179.8630  138.1850 O   0  0  0  0  0  0  0  0  0  0  0  0
  186.6390  178.1720  143.8550 C   0  0  2  0  0  3  0  0  0  0  0  0
  180.6980  178.8140  141.8390 C   0  0  0  0  0  2  0  0  0  0  0  0
  181.9710  179.6900  139.3620 C   0  0  0  0  0  0  0  0  0  0  0  0
  186.4780  178.7090  141.4450 C   0  0  0  0  0  2  0  0  0  0  0  0
  184.6630  179.0340  145.1290 C   0  0  0  0  0  1  0  0  0  0  0  0
  184.3540  178.5010  142.7250 C   0  0  0  0  0  0  0  0  0  0  0  0
  187.0810  177.7520  142.4620 C   0  0  0  0  0  2  0  0  0  0  0  0
  182.8400  179.1280  140.4170 C   0  0  0  0  0  0  0  0  0  0  0  0
  188.6700  177.7120  145.2450 C   0  0  2  0  0  3  0  0  0  0  0  0
  190.6440  177.7850  143.6640 C   0  0  0  0  0  0  0  0  0  0  0  0
  190.6750  179.0450  143.6980 O   0  0  0  0  0  0  0  0  0  0  0  0
  189.6510  177.0590  144.3910 N   0  0  0  0  0  2  0  0  0  0  0  0
  191.6700  177.0420  142.8850 C   0  0  0  0  0  2  0  0  0  0  0  0
  191.5950  177.4330  141.4500 C   0  0  0  0  0  3  0  0  0  0  0  0
  190.6320  176.9390  140.6760 C   0  0  0  0  0  3  0  0  0  0  0  0
  190.5290  177.3160  139.2290 C   0  0  1  0  0  3  0  0  0  0  0  0
  190.9980  176.1350  138.3830 C   0  0  0  0  0  2  0  0  0  0  0  0
  192.4330  176.3420  137.9370 C   0  0  0  0  0  1  0  0  0  0  0  0
  189.0790  177.6870  138.8780 C   0  0  1  0  0  3  0  0  0  0  0  0
  188.9420  179.1060  138.6320 N   0  0  0  0  0  0  0  0  0  0  0  0
  188.7790  179.5270  137.5260 O   0  0  0  0  0  0  0  0  0  0  0  0
  187.5040  176.3370  137.7420 O   0  0  0  0  0  0  0  0  0  0  0  0
  188.5790  176.9120  137.6940 C   0  0  0  0  0  3  0  0  0  0  0  0
  188.9230  177.3920  146.5820 O   0  0  0  0  0  0  0  0  0  0  0  0
  187.6900  177.5260  147.2240 C   0  0  0  0  0  3  0  0  0  0  0  0
  187.9050  177.5230  148.7240 C   0  0  0  0  0  2  0  0  0  0  0  0
  187.6730  178.8300  147.9960 C   0  0  0  0  0  2  0  0  0  0  0  0
  2 16  1  1  0  0  0
  3  5  1  0  0  0  0
  5  6  1  0  0  0  0
  6 13  1  0  0  0  0
  7 13  1  1  0  0  0
  7  4  1  0  0  0  0
  8  9  1  0  0  0  0
  9 19  2  0  0  0  0
  9 10  1  0  0  0  0
 10 17  2  0  0  0  0
 11 14  2  0  0  0  0
 12  2  1  0  0  0  0
 12  1  1  1  0  0  0
 14  5  1  0  0  0  0
 14 19  1  0  0  0  0
 15 10  1  0  0  0  0
 15 18  1  0  0  0  0
 17  4  1  0  0  0  0
 17  2  1  0  0  0  0
 18 12  1  0  0  0  0
 19  7  1  0  0  0  0
 20  1  1  6  0  0  0
 20 35  1  0  0  0  0
 21 22  2  0  0  0  0
 21 23  1  0  0  0  0
 23 20  1  0  0  0  0
 24 21  1  0  0  0  0
 25 24  1  0  0  0  0
 26 25  2  0  0  0  0
 27 28  1  6  0  0  0
 27 26  1  0  0  0  0
 29 28  1  0  0  0  0
 30 34  1  6  0  0  0
 30 27  1  0  0  0  0
 31 30  1  0  0  0  0
 32 31  2  0  0  0  0
 34 33  2  0  0  0  0
 35 36  1  0  0  0  0
 36 38  1  0  0  0  0
 36 37  1  0  0  0  0
 38 37  1  0  0  0  0
M  END
>  <MODEL>
1

>  <REMARK>
 VINA RESULT:      -8.7      0.000      0.000
  Name = 
  12 active torsions:
  status: ('A' for Active; 'I' for Inactive)
    1  A    between atoms: C_1  and  O_27
    2  A    between atoms: C_3  and  C_28
    3  A    between atoms: C_6  and  C_20
    4  A    between atoms: C_6  and  C_22
    5  A    between atoms: C_7  and  C_12
    6  A    between atoms: N_9  and  C_30
    7  A    between atoms: C_12  and  C_18
    8  A    between atoms: C_22  and  O_27
    9  A    between atoms: C_22  and  N_38
   10  A    between atoms: C_28  and  C_30
   11  A    between atoms: C_28  and  C_31
   12  A    between atoms: C_30  and  C_33
                            x       y       z     vdW  Elec       q    Type
                         _______ _______ _______ _____ _____    ______ ____

>  <TORSDO>
F 12

$$$$
=
 OpenBabel10222421023D

 38 41  0  0  1  0  0  0  0  0999 V2000
  187.1820  177.3480  144.6980 C   0  0  0  0  0  2  0  0  0  0  0  0
  184.9910  178.2240  143.8430 C   0  0  1  0  0  3  0  0  0  0  0  0
  179.4230  180.3530  138.6180 C   0  0  0  0  0  1  0  0  0  0  0  0
  182.8200  178.6270  142.6580 O   0  0  0  0  0  0  0  0  0  0  0  0
  180.4360  180.0620  139.6210 N   0  0  0  0  0  0  0  0  0  0  0  0
  180.0880  180.1200  141.0350 C   0  0  0  0  0  2  0  0  0  0  0  0
  182.0260  178.4980  141.4810 C   0  0  1  0  0  3  0  0  0  0  0  0
  184.6560  179.8120  139.1380 O   0  0  0  0  0  1  0  0  0  0  0  0
  184.0160  179.2670  140.2490 C   0  0  0  0  0  0  0  0  0  0  0  0
  184.8280  178.8230  141.4070 C   0  0  0  0  0  0  0  0  0  0  0  0
  182.1870  179.9220  138.0730 O   0  0  0  0  0  0  0  0  0  0  0  0
  186.5220  178.2790  143.6930 C   0  0  2  0  0  3  0  0  0  0  0  0
  180.5500  178.8470  141.7450 C   0  0  0  0  0  2  0  0  0  0  0  0
  181.7830  179.7420  139.2550 C   0  0  0  0  0  0  0  0  0  0  0  0
  186.3260  178.8170  141.2860 C   0  0  0  0  0  2  0  0  0  0  0  0
  184.5480  179.1140  144.9910 C   0  0  0  0  0  1  0  0  0  0  0  0
  184.2190  178.5800  142.5900 C   0  0  0  0  0  0  0  0  0  0  0  0
  186.9530  177.8660  142.2940 C   0  0  0  0  0  2  0  0  0  0  0  0
  182.6720  179.1900  140.3000 C   0  0  0  0  0  0  0  0  0  0  0  0
  188.5730  177.8430  145.0600 C   0  0  2  0  0  3  0  0  0  0  0  0
  190.5950  178.1850  143.5770 C   0  0  0  0  0  0  0  0  0  0  0  0
  190.7230  179.3790  143.9600 O   0  0  0  0  0  0  0  0  0  0  0  0
  189.5270  177.3720  144.0660 N   0  0  0  0  0  2  0  0  0  0  0  0
  191.5840  177.6030  142.6310 C   0  0  0  0  0  2  0  0  0  0  0  0
  190.8800  177.0560  141.4380 C   0  0  0  0  0  3  0  0  0  0  0  0
  191.4010  177.2230  140.2250 C   0  0  0  0  0  3  0  0  0  0  0  0
  190.7170  176.6820  139.0050 C   0  0  1  0  0  3  0  0  0  0  0  0
  189.7550  177.7410  138.4750 C   0  0  0  0  0  2  0  0  0  0  0  0
  188.3300  177.2230  138.5030 C   0  0  0  0  0  1  0  0  0  0  0  0
  191.7560  176.3130  137.9340 C   0  0  1  0  0  3  0  0  0  0  0  0
  193.0790  176.7670  138.3030 N   0  0  0  0  0  0  0  0  0  0  0  0
  193.9430  176.8800  137.4860 O   0  0  0  0  0  0  0  0  0  0  0  0
  190.7490  174.1830  137.7310 O   0  0  0  0  0  0  0  0  0  0  0  0
  191.7780  174.8360  137.6680 C   0  0  0  0  0  3  0  0  0  0  0  0
  188.9260  177.3530  146.3200 O   0  0  0  0  0  0  0  0  0  0  0  0
  187.7740  177.4930  147.0960 C   0  0  0  0  0  3  0  0  0  0  0  0
  188.0730  177.0580  148.5170 C   0  0  0  0  0  2  0  0  0  0  0  0
  188.0250  178.5310  148.1710 C   0  0  0  0  0  2  0  0  0  0  0  0
  2 16  1  1  0  0  0
  3  5  1  0  0  0  0
  5  6  1  0  0  0  0
  6 13  1  0  0  0  0
  7 13  1  1  0  0  0
  7  4  1  0  0  0  0
  8  9  1  0  0  0  0
  9 19  2  0  0  0  0
  9 10  1  0  0  0  0
 10 17  2  0  0  0  0
 11 14  2  0  0  0  0
 12  2  1  0  0  0  0
 12  1  1  1  0  0  0
 14  5  1  0  0  0  0
 14 19  1  0  0  0  0
 15 10  1  0  0  0  0
 15 18  1  0  0  0  0
 17  4  1  0  0  0  0
 17  2  1  0  0  0  0
 18 12  1  0  0  0  0
 19  7  1  0  0  0  0
 20  1  1  6  0  0  0
 20 35  1  0  0  0  0
 21 22  2  0  0  0  0
 21 23  1  0  0  0  0
 23 20  1  0  0  0  0
 24 21  1  0  0  0  0
 25 24  1  0  0  0  0
 26 25  2  0  0  0  0
 27 28  1  6  0  0  0
 27 26  1  0  0  0  0
 28 29  1  0  0  0  0
 30 34  1  1  0  0  0
 30 31  1  0  0  0  0
 30 27  1  0  0  0  0
 32 31  2  0  0  0  0
 34 33  2  0  0  0  0
 35 36  1  0  0  0  0
 36 38  1  0  0  0  0
 36 37  1  0  0  0  0
 38 37  1  0  0  0  0
M  END
>  <MODEL>
2

>  <REMARK>
 VINA RESULT:      -8.5      1.458      1.797
  Name = 
  12 active torsions:
  status: ('A' for Active; 'I' for Inactive)
    1  A    between atoms: C_1  and  O_27
    2  A    between atoms: C_3  and  C_28
    3  A    between atoms: C_6  and  C_20
    4  A    between atoms: C_6  and  C_22
    5  A    between atoms: C_7  and  C_12
    6  A    between atoms: N_9  and  C_30
    7  A    between atoms: C_12  and  C_18
    8  A    between atoms: C_22  and  O_27
    9  A    between atoms: C_22  and  N_38
   10  A    between atoms: C_28  and  C_30
   11  A    between atoms: C_28  and  C_31
   12  A    between atoms: C_30  and  C_33
                            x       y       z     vdW  Elec       q    Type
                         _______ _______ _______ _____ _____    ______ ____

>  <TORSDO>
F 12

$$$$
=
 OpenBabel10222421023D

 38 41  0  0  1  0  0  0  0  0999 V2000
  185.1290  179.8020  143.0090 C   0  0  0  0  0  2  0  0  0  0  0  0
  186.8470  178.7180  141.5350 C   0  0  1  0  0  3  0  0  0  0  0  0
  190.3420  176.2210  134.8740 C   0  0  0  0  0  1  0  0  0  0  0  0
  188.5110  178.1220  139.7590 O   0  0  0  0  0  0  0  0  0  0  0  0
  189.7090  176.5770  136.1330 N   0  0  0  0  0  0  0  0  0  0  0  0
  190.4390  176.4020  137.3820 C   0  0  0  0  0  2  0  0  0  0  0  0
  188.9410  178.2180  138.4040 C   0  0  1  0  0  3  0  0  0  0  0  0
  185.5980  177.3560  136.9140 O   0  0  0  0  0  1  0  0  0  0  0  0
  186.5980  177.7600  137.7960 C   0  0  0  0  0  0  0  0  0  0  0  0
  186.2200  178.2350  139.1490 C   0  0  0  0  0  0  0  0  0  0  0  0
  187.6190  177.0080  135.1700 O   0  0  0  0  0  0  0  0  0  0  0  0
  185.3440  178.8540  141.8400 C   0  0  2  0  0  3  0  0  0  0  0  0
  190.3710  177.6820  138.2170 C   0  0  0  0  0  2  0  0  0  0  0  0
  188.3670  177.0750  136.1850 C   0  0  0  0  0  0  0  0  0  0  0  0
  184.7640  178.4260  139.4720 C   0  0  0  0  0  2  0  0  0  0  0  0
  187.4820  177.7210  142.4880 C   0  0  0  0  0  1  0  0  0  0  0  0
  187.1700  178.3390  140.1050 C   0  0  0  0  0  0  0  0  0  0  0  0
  184.5850  179.3900  140.6360 C   0  0  0  0  0  2  0  0  0  0  0  0
  187.8970  177.6720  137.4520 C   0  0  0  0  0  0  0  0  0  0  0  0
  184.4270  179.0930  144.1570 C   0  0  2  0  0  3  0  0  0  0  0  0
  185.9400  178.5170  146.1020 C   0  0  0  0  0  0  0  0  0  0  0  0
  185.6780  179.6060  146.6800 O   0  0  0  0  0  0  0  0  0  0  0  0
  185.3710  178.2100  144.8280 N   0  0  0  0  0  2  0  0  0  0  0  0
  186.8240  177.5230  146.7670 C   0  0  0  0  0  2  0  0  0  0  0  0
  188.2500  177.8700  146.5170 C   0  0  0  0  0  3  0  0  0  0  0  0
  189.0240  177.0400  145.8220 C   0  0  0  0  0  3  0  0  0  0  0  0
  190.4630  177.3630  145.5520 C   0  0  1  0  0  3  0  0  0  0  0  0
  191.3330  176.2720  146.1710 C   0  0  0  0  0  2  0  0  0  0  0  0
  191.6520  176.6050  147.6150 C   0  0  0  0  0  1  0  0  0  0  0  0
  190.7120  177.4560  144.0380 C   0  0  1  0  0  3  0  0  0  0  0  0
  191.6660  178.4970  143.7220 N   0  0  0  0  0  0  0  0  0  0  0  0
  191.4330  179.6430  143.9670 O   0  0  0  0  0  0  0  0  0  0  0  0
  190.4480  175.4940  142.7440 O   0  0  0  0  0  0  0  0  0  0  0  0
  191.1780  176.1470  143.4710 C   0  0  0  0  0  3  0  0  0  0  0  0
  183.3590  178.3450  143.6540 O   0  0  0  0  0  0  0  0  0  0  0  0
  182.2970  179.2480  143.5700 C   0  0  0  0  0  3  0  0  0  0  0  0
  181.3430  178.7940  142.4830 C   0  0  0  0  0  2  0  0  0  0  0  0
  181.0110  178.5340  143.9370 C   0  0  0  0  0  2  0  0  0  0  0  0
  2 12  1  0  0  0  0
  2 16  1  1  0  0  0
  3  5  1  0  0  0  0
  4 17  1  0  0  0  0
  5 14  1  0  0  0  0
  5  6  1  0  0  0  0
  6 13  1  0  0  0  0
  7 13  1  1  0  0  0
  7  4  1  0  0  0  0
  8  9  1  0  0  0  0
  9 10  1  0  0  0  0
 10 15  1  0  0  0  0
 10 17  2  0  0  0  0
 11 14  2  0  0  0  0
 12  1  1  1  0  0  0
 14 19  1  0  0  0  0
 15 18  1  0  0  0  0
 17  2  1  0  0  0  0
 18 12  1  0  0  0  0
 19  9  2  0  0  0  0
 19  7  1  0  0  0  0
 20  1  1  6  0  0  0
 20 23  1  0  0  0  0
 21 22  2  0  0  0  0
 21 24  1  0  0  0  0
 23 21  1  0  0  0  0
 25 24  1  0  0  0  0
 26 25  2  0  0  0  0
 27 26  1  6  0  0  0
 27 28  1  0  0  0  0
 28 29  1  0  0  0  0
 30 34  1  1  0  0  0
 30 27  1  0  0  0  0
 31 32  2  0  0  0  0
 31 30  1  0  0  0  0
 33 34  2  0  0  0  0
 35 20  1  0  0  0  0
 36 35  1  0  0  0  0
 36 38  1  0  0  0  0
 37 36  1  0  0  0  0
 37 38  1  0  0  0  0
M  END
>  <MODEL>
3

>  <REMARK>
 VINA RESULT:      -8.0      2.378      6.616
  Name = 
  12 active torsions:
  status: ('A' for Active; 'I' for Inactive)
    1  A    between atoms: C_1  and  O_27
    2  A    between atoms: C_3  and  C_28
    3  A    between atoms: C_6  and  C_20
    4  A    between atoms: C_6  and  C_22
    5  A    between atoms: C_7  and  C_12
    6  A    between atoms: N_9  and  C_30
    7  A    between atoms: C_12  and  C_18
    8  A    between atoms: C_22  and  O_27
    9  A    between atoms: C_22  and  N_38
   10  A    between atoms: C_28  and  C_30
   11  A    between atoms: C_28  and  C_31
   12  A    between atoms: C_30  and  C_33
                            x       y       z     vdW  Elec       q    Type
                         _______ _______ _______ _____ _____    ______ ____

>  <TORSDO>
F 12

$$$$
=
 OpenBabel10222421023D

 38 41  0  0  1  0  0  0  0  0999 V2000
  188.2130  178.0640  144.4220 C   0  0  0  0  0  2  0  0  0  0  0  0
  189.3590  177.0780  142.4180 C   0  0  1  0  0  3  0  0  0  0  0  0
  191.4540  176.1330  134.8320 C   0  0  0  0  0  1  0  0  0  0  0  0
  190.6240  176.6440  140.2990 O   0  0  0  0  0  0  0  0  0  0  0  0
  191.0410  176.2010  136.2250 N   0  0  0  0  0  0  0  0  0  0  0  0
  191.6990  175.3570  137.2140 C   0  0  0  0  0  2  0  0  0  0  0  0
  191.0110  177.0720  138.9960 C   0  0  1  0  0  3  0  0  0  0  0  0
  187.5350  177.9630  137.8720 O   0  0  0  0  0  1  0  0  0  0  0  0
  188.6430  177.6670  138.6630 C   0  0  0  0  0  0  0  0  0  0  0  0
  188.5140  177.7210  140.1390 C   0  0  0  0  0  0  0  0  0  0  0  0
  189.2240  177.6150  135.8050 O   0  0  0  0  0  0  0  0  0  0  0  0
  188.0230  177.5850  142.9910 C   0  0  2  0  0  3  0  0  0  0  0  0
  192.1360  176.1960  138.4170 C   0  0  0  0  0  2  0  0  0  0  0  0
  189.9790  177.0610  136.6510 C   0  0  0  0  0  0  0  0  0  0  0  0
  187.2440  178.2550  140.7390 C   0  0  0  0  0  2  0  0  0  0  0  0
  189.6160  175.6550  142.8820 C   0  0  0  0  0  1  0  0  0  0  0  0
  189.4700  177.1540  140.9100 C   0  0  0  0  0  0  0  0  0  0  0  0
  187.4720  178.7370  142.1640 C   0  0  0  0  0  2  0  0  0  0  0  0
  189.8070  177.2830  138.1030 C   0  0  0  0  0  0  0  0  0  0  0  0
  187.2870  177.3170  145.3680 C   0  0  2  0  0  3  0  0  0  0  0  0
  185.1560  178.6650  145.5890 C   0  0  0  0  0  0  0  0  0  0  0  0
  185.6630  179.3910  146.4870 O   0  0  0  0  0  0  0  0  0  0  0  0
  185.9030  177.5940  145.0090 N   0  0  0  0  0  2  0  0  0  0  0  0
  183.7780  178.9430  145.1050 C   0  0  0  0  0  2  0  0  0  0  0  0
  183.7320  178.8260  143.6210 C   0  0  0  0  0  3  0  0  0  0  0  0
  182.5730  178.9600  142.9800 C   0  0  0  0  0  3  0  0  0  0  0  0
  182.4950  178.8500  141.4860 C   0  0  1  0  0  3  0  0  0  0  0  0
  183.5170  177.8160  141.0200 C   0  0  0  0  0  2  0  0  0  0  0  0
  183.7810  177.9670  139.5340 C   0  0  0  0  0  1  0  0  0  0  0  0
  181.0780  178.4380  141.0570 C   0  0  1  0  0  3  0  0  0  0  0  0
  180.2380  178.1650  142.2040 N   0  0  0  0  0  0  0  0  0  0  0  0
  179.3870  177.3290  142.1600 O   0  0  0  0  0  0  0  0  0  0  0  0
  181.1230  180.2220  139.5060 O   0  0  0  0  0  0  0  0  0  0  0  0
  180.4360  179.4810  140.1900 C   0  0  0  0  0  3  0  0  0  0  0  0
  187.5260  177.7400  146.6790 O   0  0  0  0  0  0  0  0  0  0  0  0
  188.9080  177.9200  146.7520 C   0  0  0  0  0  3  0  0  0  0  0  0
  189.3260  177.9880  148.2070 C   0  0  0  0  0  2  0  0  0  0  0  0
  189.5300  176.7110  147.4210 C   0  0  0  0  0  2  0  0  0  0  0  0
  2 16  1  6  0  0  0
  2 12  1  0  0  0  0
  3  5  1  0  0  0  0
  4 17  1  0  0  0  0
  5 14  1  0  0  0  0
  5  6  1  0  0  0  0
  6 13  1  0  0  0  0
  7 13  1  6  0  0  0
  7  4  1  0  0  0  0
  8  9  1  0  0  0  0
  9 10  1  0  0  0  0
 10 15  1  0  0  0  0
 10 17  2  0  0  0  0
 11 14  2  0  0  0  0
 12  1  1  1  0  0  0
 14 19  1  0  0  0  0
 15 18  1  0  0  0  0
 17  2  1  0  0  0  0
 18 12  1  0  0  0  0
 19  9  2  0  0  0  0
 19  7  1  0  0  0  0
 20  1  1  6  0  0  0
 20 35  1  0  0  0  0
 21 22  2  0  0  0  0
 23 20  1  0  0  0  0
 23 21  1  0  0  0  0
 24 21  1  0  0  0  0
 25 24  1  0  0  0  0
 26 25  2  0  0  0  0
 27 28  1  1  0  0  0
 27 26  1  0  0  0  0
 29 28  1  0  0  0  0
 30 34  1  1  0  0  0
 30 27  1  0  0  0  0
 30 31  1  0  0  0  0
 32 31  2  0  0  0  0
 33 34  2  0  0  0  0
 35 36  1  0  0  0  0
 36 38  1  0  0  0  0
 36 37  1  0  0  0  0
 38 37  1  0  0  0  0
M  END
>  <MODEL>
4

>  <REMARK>
 VINA RESULT:      -7.5      2.057      7.381
  Name = 
  12 active torsions:
  status: ('A' for Active; 'I' for Inactive)
    1  A    between atoms: C_1  and  O_27
    2  A    between atoms: C_3  and  C_28
    3  A    between atoms: C_6  and  C_20
    4  A    between atoms: C_6  and  C_22
    5  A    between atoms: C_7  and  C_12
    6  A    between atoms: N_9  and  C_30
    7  A    between atoms: C_12  and  C_18
    8  A    between atoms: C_22  and  O_27
    9  A    between atoms: C_22  and  N_38
   10  A    between atoms: C_28  and  C_30
   11  A    between atoms: C_28  and  C_31
   12  A    between atoms: C_30  and  C_33
                            x       y       z     vdW  Elec       q    Type
                         _______ _______ _______ _____ _____    ______ ____

>  <TORSDO>
F 12

$$$$
=
 OpenBabel10222421023D

 38 41  0  0  1  0  0  0  0  0999 V2000
  186.5950  178.1190  140.0140 C   0  0  0  0  0  2  0  0  0  0  0  0
  188.3150  177.6250  138.2540 C   0  0  1  0  0  3  0  0  0  0  0  0
  195.1140  175.0590  135.0890 C   0  0  0  0  0  1  0  0  0  0  0  0
  190.0510  176.6170  136.7540 O   0  0  0  0  0  0  0  0  0  0  0  0
  193.8850  175.6260  135.6220 N   0  0  0  0  0  0  0  0  0  0  0  0
  192.8570  176.1070  134.7070 C   0  0  0  0  0  2  0  0  0  0  0  0
  191.1440  175.7200  136.5790 C   0  0  1  0  0  3  0  0  0  0  0  0
  193.0530  176.9020  139.5950 O   0  0  0  0  0  1  0  0  0  0  0  0
  192.0320  176.6460  138.6820 C   0  0  0  0  0  0  0  0  0  0  0  0
  190.6480  177.0710  139.0060 C   0  0  0  0  0  0  0  0  0  0  0  0
  194.6150  175.5820  137.8450 O   0  0  0  0  0  0  0  0  0  0  0  0
  188.0690  178.2190  139.6530 C   0  0  2  0  0  3  0  0  0  0  0  0
  191.4950  175.5270  135.0930 C   0  0  0  0  0  2  0  0  0  0  0  0
  193.6660  175.7500  137.0310 C   0  0  0  0  0  0  0  0  0  0  0  0
  190.3560  177.6120  140.3770 C   0  0  0  0  0  2  0  0  0  0  0  0
  187.9630  178.6460  137.1870 C   0  0  0  0  0  1  0  0  0  0  0  0
  189.7190  177.1070  138.0250 C   0  0  0  0  0  0  0  0  0  0  0  0
  188.8770  177.4850  140.7120 C   0  0  0  0  0  2  0  0  0  0  0  0
  192.2990  176.0700  137.4940 C   0  0  0  0  0  0  0  0  0  0  0  0
  186.2670  179.0170  141.1960 C   0  0  2  0  0  3  0  0  0  0  0  0
  185.6490  178.6440  143.6210 C   0  0  0  0  0  0  0  0  0  0  0  0
  185.0310  179.7420  143.6730 O   0  0  0  0  0  0  0  0  0  0  0  0
  186.3110  178.2360  142.4230 N   0  0  0  0  0  2  0  0  0  0  0  0
  185.6620  177.7480  144.8080 C   0  0  0  0  0  2  0  0  0  0  0  0
  186.8850  178.0020  145.6180 C   0  0  0  0  0  3  0  0  0  0  0  0
  188.0310  177.4050  145.2980 C   0  0  0  0  0  3  0  0  0  0  0  0
  189.2790  177.6430  146.0940 C   0  0  1  0  0  3  0  0  0  0  0  0
  189.0840  177.0640  147.4930 C   0  0  0  0  0  2  0  0  0  0  0  0
  188.6840  178.1560  148.4660 C   0  0  0  0  0  1  0  0  0  0  0  0
  190.4840  176.9850  145.4020 C   0  0  1  0  0  3  0  0  0  0  0  0
  190.9050  177.7430  144.2430 N   0  0  0  0  0  0  0  0  0  0  0  0
  191.5240  178.7570  144.3600 O   0  0  0  0  0  0  0  0  0  0  0  0
  192.1810  175.7240  146.4600 O   0  0  0  0  0  0  0  0  0  0  0  0
  191.6380  176.8110  146.3450 C   0  0  0  0  0  3  0  0  0  0  0  0
  184.9880  179.5560  141.0270 O   0  0  0  0  0  0  0  0  0  0  0  0
  184.4330  178.8370  139.9660 C   0  0  0  0  0  3  0  0  0  0  0  0
  182.9230  178.8440  140.0950 C   0  0  0  0  0  2  0  0  0  0  0  0
  183.6020  179.7760  139.1140 C   0  0  0  0  0  2  0  0  0  0  0  0
  2 16  1  6  0  0  0
  2 12  1  0  0  0  0
  3  5  1  0  0  0  0
  4 17  1  0  0  0  0
  5 14  1  0  0  0  0
  6 13  1  0  0  0  0
  6  5  1  0  0  0  0
  7 13  1  6  0  0  0
  7  4  1  0  0  0  0
  7 19  1  0  0  0  0
  9 10  1  0  0  0  0
  9  8  1  0  0  0  0
 10 15  1  0  0  0  0
 12  1  1  1  0  0  0
 12 18  1  0  0  0  0
 14 19  1  0  0  0  0
 14 11  2  0  0  0  0
 15 18  1  0  0  0  0
 17  2  1  0  0  0  0
 17 10  2  0  0  0  0
 19  9  2  0  0  0  0
 20  1  1  6  0  0  0
 20 23  1  0  0  0  0
 21 22  2  0  0  0  0
 21 24  1  0  0  0  0
 23 21  1  0  0  0  0
 24 25  1  0  0  0  0
 26 25  2  0  0  0  0
 27 26  1  6  0  0  0
 27 28  1  0  0  0  0
 28 29  1  0  0  0  0
 30 27  1  0  0  0  0
 30 34  1  1  0  0  0
 31 32  2  0  0  0  0
 31 30  1  0  0  0  0
 34 33  2  0  0  0  0
 35 20  1  0  0  0  0
 36 37  1  0  0  0  0
 36 35  1  0  0  0  0
 38 36  1  0  0  0  0
 38 37  1  0  0  0  0
M  END
>  <MODEL>
5

>  <REMARK>
 VINA RESULT:      -7.3      2.593      8.956
  Name = 
  12 active torsions:
  status: ('A' for Active; 'I' for Inactive)
    1  A    between atoms: C_1  and  O_27
    2  A    between atoms: C_3  and  C_28
    3  A    between atoms: C_6  and  C_20
    4  A    between atoms: C_6  and  C_22
    5  A    between atoms: C_7  and  C_12
    6  A    between atoms: N_9  and  C_30
    7  A    between atoms: C_12  and  C_18
    8  A    between atoms: C_22  and  O_27
    9  A    between atoms: C_22  and  N_38
   10  A    between atoms: C_28  and  C_30
   11  A    between atoms: C_28  and  C_31
   12  A    between atoms: C_30  and  C_33
                            x       y       z     vdW  Elec       q    Type
                         _______ _______ _______ _____ _____    ______ ____

>  <TORSDO>
F 12

$$$$
=
 OpenBabel10222421023D

 38 41  0  0  1  0  0  0  0  0999 V2000
  190.6480  176.9060  137.4880 C   0  0  0  0  0  2  0  0  0  0  0  0
  188.4230  178.0010  137.8740 C   0  0  1  0  0  3  0  0  0  0  0  0
  180.5630  178.6860  138.6310 C   0  0  0  0  0  1  0  0  0  0  0  0
  186.1160  178.6440  138.6090 O   0  0  0  0  0  0  0  0  0  0  0  0
  182.0010  178.6400  138.4180 N   0  0  0  0  0  0  0  0  0  0  0  0
  182.8090  179.8200  138.7010 C   0  0  0  0  0  2  0  0  0  0  0  0
  184.8130  178.2510  139.0330 C   0  0  1  0  0  3  0  0  0  0  0  0
  184.2790  175.7610  136.2680 O   0  0  0  0  0  1  0  0  0  0  0  0
  184.8750  176.6270  137.1830 C   0  0  0  0  0  0  0  0  0  0  0  0
  186.3540  176.7320  137.2230 C   0  0  0  0  0  0  0  0  0  0  0  0
  181.9700  176.5230  137.4220 O   0  0  0  0  0  0  0  0  0  0  0  0
  189.2230  177.0410  136.9750 C   0  0  2  0  0  3  0  0  0  0  0  0
  184.0050  179.4430  139.5770 C   0  0  0  0  0  2  0  0  0  0  0  0
  182.6480  177.4680  137.9100 C   0  0  0  0  0  0  0  0  0  0  0  0
  187.1730  175.7820  136.3950 C   0  0  0  0  0  2  0  0  0  0  0  0
  188.7200  179.4400  137.4910 C   0  0  0  0  0  1  0  0  0  0  0  0
  186.9270  177.7680  137.8750 C   0  0  0  0  0  0  0  0  0  0  0  0
  188.5870  175.6590  136.9430 C   0  0  0  0  0  2  0  0  0  0  0  0
  184.1230  177.4030  137.9870 C   0  0  0  0  0  0  0  0  0  0  0  0
  190.7000  175.9940  138.7040 C   0  0  2  0  0  3  0  0  0  0  0  0
  190.3820  177.0670  140.9730 C   0  0  0  0  0  0  0  0  0  0  0  0
  189.1610  176.7530  140.9940 O   0  0  0  0  0  0  0  0  0  0  0  0
  191.2000  176.7420  139.8480 N   0  0  0  0  0  2  0  0  0  0  0  0
  190.9880  177.7530  142.1450 C   0  0  0  0  0  2  0  0  0  0  0  0
  189.9560  177.9580  143.1990 C   0  0  0  0  0  3  0  0  0  0  0  0
  190.1830  177.5370  144.4410 C   0  0  0  0  0  3  0  0  0  0  0  0
  189.1650  177.7310  145.5250 C   0  0  1  0  0  3  0  0  0  0  0  0
  187.8370  177.1400  145.0580 C   0  0  0  0  0  2  0  0  0  0  0  0
  186.7140  178.1400  145.2560 C   0  0  0  0  0  1  0  0  0  0  0  0
  189.6310  177.0500  146.8210 C   0  0  1  0  0  3  0  0  0  0  0  0
  191.0490  176.7620  146.7850 N   0  0  0  0  0  0  0  0  0  0  0  0
  191.7530  177.0080  147.7180 O   0  0  0  0  0  0  0  0  0  0  0  0
  188.1650  177.9350  148.4510 O   0  0  0  0  0  0  0  0  0  0  0  0
  189.3090  177.8780  148.0300 C   0  0  0  0  0  3  0  0  0  0  0  0
  191.5510  174.9170  138.4380 O   0  0  0  0  0  0  0  0  0  0  0  0
  192.4790  175.4110  137.5190 C   0  0  0  0  0  3  0  0  0  0  0  0
  193.8740  175.0120  137.9550 C   0  0  0  0  0  2  0  0  0  0  0  0
  193.1800  174.2450  136.8490 C   0  0  0  0  0  2  0  0  0  0  0  0
  2 16  1  6  0  0  0
  2 17  1  0  0  0  0
  4  7  1  0  0  0  0
  5  3  1  0  0  0  0
  5  6  1  0  0  0  0
  6 13  1  0  0  0  0
  7 13  1  6  0  0  0
  8  9  1  0  0  0  0
  9 10  1  0  0  0  0
  9 19  2  0  0  0  0
 10 17  2  0  0  0  0
 11 14  2  0  0  0  0
 12  1  1  1  0  0  0
 12  2  1  0  0  0  0
 14 19  1  0  0  0  0
 14  5  1  0  0  0  0
 15 18  1  0  0  0  0
 15 10  1  0  0  0  0
 17  4  1  0  0  0  0
 18 12  1  0  0  0  0
 19  7  1  0  0  0  0
 20  1  1  6  0  0  0
 20 23  1  0  0  0  0
 21 22  2  0  0  0  0
 21 24  1  0  0  0  0
 23 21  1  0  0  0  0
 24 25  1  0  0  0  0
 25 26  2  0  0  0  0
 27 26  1  6  0  0  0
 27 30  1  0  0  0  0
 28 29  1  0  0  0  0
 28 27  1  0  0  0  0
 30 34  1  1  0  0  0
 31 30  1  0  0  0  0
 31 32  2  0  0  0  0
 34 33  2  0  0  0  0
 35 20  1  0  0  0  0
 36 37  1  0  0  0  0
 36 35  1  0  0  0  0
 38 36  1  0  0  0  0
 38 37  1  0  0  0  0
M  END
>  <MODEL>
6

>  <REMARK>
 VINA RESULT:      -7.2      2.307      6.972
  Name = 
  12 active torsions:
  status: ('A' for Active; 'I' for Inactive)
    1  A    between atoms: C_1  and  O_27
    2  A    between atoms: C_3  and  C_28
    3  A    between atoms: C_6  and  C_20
    4  A    between atoms: C_6  and  C_22
    5  A    between atoms: C_7  and  C_12
    6  A    between atoms: N_9  and  C_30
    7  A    between atoms: C_12  and  C_18
    8  A    between atoms: C_22  and  O_27
    9  A    between atoms: C_22  and  N_38
   10  A    between atoms: C_28  and  C_30
   11  A    between atoms: C_28  and  C_31
   12  A    between atoms: C_30  and  C_33
                            x       y       z     vdW  Elec       q    Type
                         _______ _______ _______ _____ _____    ______ ____

>  <TORSDO>
F 12

$$$$
=
 OpenBabel10222421023D

 38 41  0  0  1  0  0  0  0  0999 V2000
  183.7220  177.8720  139.8190 C   0  0  0  0  0  2  0  0  0  0  0  0
  185.5650  177.9430  141.5220 C   0  0  1  0  0  3  0  0  0  0  0  0
  189.0360  178.0310  148.6470 C   0  0  0  0  0  1  0  0  0  0  0  0
  187.1140  177.5770  143.4570 O   0  0  0  0  0  0  0  0  0  0  0  0
  188.4560  178.1060  147.3150 N   0  0  0  0  0  0  0  0  0  0  0  0
  189.3230  178.0420  146.1460 C   0  0  0  0  0  2  0  0  0  0  0  0
  187.3040  177.1830  144.8130 C   0  0  1  0  0  3  0  0  0  0  0  0
  184.5340  179.3180  146.1920 O   0  0  0  0  0  1  0  0  0  0  0  0
  185.3470  178.5870  145.3290 C   0  0  0  0  0  0  0  0  0  0  0  0
  184.9520  178.4490  143.9060 C   0  0  0  0  0  0  0  0  0  0  0  0
  186.2960  178.5740  148.0870 O   0  0  0  0  0  0  0  0  0  0  0  0
  184.1990  178.5200  141.1100 C   0  0  2  0  0  3  0  0  0  0  0  0
  188.7950  177.0040  145.1530 C   0  0  0  0  0  2  0  0  0  0  0  0
  187.0460  178.2670  147.1200 C   0  0  0  0  0  0  0  0  0  0  0  0
  183.6060  178.9570  143.4730 C   0  0  0  0  0  2  0  0  0  0  0  0
  186.6740  178.6290  140.7430 C   0  0  0  0  0  1  0  0  0  0  0  0
  185.8600  178.0130  143.0050 C   0  0  0  0  0  0  0  0  0  0  0  0
  183.1530  178.2800  142.1880 C   0  0  0  0  0  2  0  0  0  0  0  0
  186.5060  178.0540  145.7600 C   0  0  0  0  0  0  0  0  0  0  0  0
  183.7230  178.8780  138.6790 C   0  0  2  0  0  3  0  0  0  0  0  0
  185.7660  178.3010  137.3010 C   0  0  0  0  0  0  0  0  0  0  0  0
  185.2020  177.2810  136.8200 O   0  0  0  0  0  0  0  0  0  0  0  0
  185.0940  179.1260  138.2540 N   0  0  0  0  0  2  0  0  0  0  0  0
  187.1330  178.6720  136.8480 C   0  0  0  0  0  2  0  0  0  0  0  0
  188.1460  178.0840  137.7670 C   0  0  0  0  0  3  0  0  0  0  0  0
  189.4090  177.9520  137.3680 C   0  0  0  0  0  3  0  0  0  0  0  0
  190.4520  177.3670  138.2730 C   0  0  1  0  0  3  0  0  0  0  0  0
  189.7590  176.7850  139.5030 C   0  0  0  0  0  2  0  0  0  0  0  0
  190.3160  177.4080  140.7680 C   0  0  0  0  0  1  0  0  0  0  0  0
  191.2440  176.2760  137.5340 C   0  0  1  0  0  3  0  0  0  0  0  0
  192.5250  176.0380  138.1630 N   0  0  0  0  0  0  0  0  0  0  0  0
  193.4270  176.8100  138.0390 O   0  0  0  0  0  0  0  0  0  0  0  0
  191.0460  173.9200  137.5290 O   0  0  0  0  0  0  0  0  0  0  0  0
  190.4710  174.9930  137.4470 C   0  0  0  0  0  3  0  0  0  0  0  0
  183.1430  180.0720  139.1140 O   0  0  0  0  0  0  0  0  0  0  0  0
  181.8050  179.9850  138.7240 C   0  0  0  0  0  3  0  0  0  0  0  0
  181.0170  181.0940  139.3930 C   0  0  0  0  0  2  0  0  0  0  0  0
  181.4350  181.2310  137.9440 C   0  0  0  0  0  2  0  0  0  0  0  0
  2 16  1  6  0  0  0
  2 17  1  0  0  0  0
  4  7  1  0  0  0  0
  5  3  1  0  0  0  0
  6  5  1  0  0  0  0
  7 13  1  1  0  0  0
  7 19  1  0  0  0  0
  9 19  2  0  0  0  0
  9  8  1  0  0  0  0
 10  9  1  0  0  0  0
 12  1  1  6  0  0  0
 12  2  1  0  0  0  0
 12 18  1  0  0  0  0
 13  6  1  0  0  0  0
 14  5  1  0  0  0  0
 14 11  2  0  0  0  0
 15 10  1  0  0  0  0
 17  4  1  0  0  0  0
 17 10  2  0  0  0  0
 18 15  1  0  0  0  0
 19 14  1  0  0  0  0
 20 35  1  0  0  0  0
 20  1  1  1  0  0  0
 21 23  1  0  0  0  0
 22 21  2  0  0  0  0
 23 20  1  0  0  0  0
 24 21  1  0  0  0  0
 24 25  1  0  0  0  0
 26 25  2  0  0  0  0
 27 26  1  6  0  0  0
 27 28  1  0  0  0  0
 28 29  1  0  0  0  0
 30 34  1  1  0  0  0
 30 31  1  0  0  0  0
 30 27  1  0  0  0  0
 32 31  2  0  0  0  0
 34 33  2  0  0  0  0
 36 35  1  0  0  0  0
 36 37  1  0  0  0  0
 38 36  1  0  0  0  0
 38 37  1  0  0  0  0
M  END
>  <MODEL>
7

>  <REMARK>
 VINA RESULT:      -7.0      2.266      7.226
  Name = 
  12 active torsions:
  status: ('A' for Active; 'I' for Inactive)
    1  A    between atoms: C_1  and  O_27
    2  A    between atoms: C_3  and  C_28
    3  A    between atoms: C_6  and  C_20
    4  A    between atoms: C_6  and  C_22
    5  A    between atoms: C_7  and  C_12
    6  A    between atoms: N_9  and  C_30
    7  A    between atoms: C_12  and  C_18
    8  A    between atoms: C_22  and  O_27
    9  A    between atoms: C_22  and  N_38
   10  A    between atoms: C_28  and  C_30
   11  A    between atoms: C_28  and  C_31
   12  A    between atoms: C_30  and  C_33
                            x       y       z     vdW  Elec       q    Type
                         _______ _______ _______ _____ _____    ______ ____

>  <TORSDO>
F 12

$$$$
=
 OpenBabel10222421023D

 38 41  0  0  1  0  0  0  0  0999 V2000
  182.5690  178.5720  140.4460 C   0  0  0  0  0  2  0  0  0  0  0  0
  184.7690  178.3710  141.6380 C   0  0  1  0  0  3  0  0  0  0  0  0
  189.8530  177.3560  147.6330 C   0  0  0  0  0  1  0  0  0  0  0  0
  186.7200  177.7050  143.0620 O   0  0  0  0  0  0  0  0  0  0  0  0
  188.9720  177.6350  146.5100 N   0  0  0  0  0  0  0  0  0  0  0  0
  189.5290  177.7420  145.1670 C   0  0  0  0  0  2  0  0  0  0  0  0
  187.2130  177.1090  144.2590 C   0  0  1  0  0  3  0  0  0  0  0  0
  184.9540  179.0330  146.5670 O   0  0  0  0  0  1  0  0  0  0  0  0
  185.5010  178.4340  145.4340 C   0  0  0  0  0  0  0  0  0  0  0  0
  184.7700  178.5160  144.1470 C   0  0  0  0  0  0  0  0  0  0  0  0
  187.0850  177.9980  147.8450 O   0  0  0  0  0  0  0  0  0  0  0  0
  183.3700  179.0140  141.6610 C   0  0  2  0  0  3  0  0  0  0  0  0
  188.7330  176.8700  144.1950 C   0  0  0  0  0  2  0  0  0  0  0  0
  187.5660  177.8350  146.6900 C   0  0  0  0  0  0  0  0  0  0  0  0
  183.3830  179.0940  144.1340 C   0  0  0  0  0  2  0  0  0  0  0  0
  185.6870  179.1570  140.7190 C   0  0  0  0  0  1  0  0  0  0  0  0
  185.4150  178.2140  142.9980 C   0  0  0  0  0  0  0  0  0  0  0  0
  182.6050  178.6210  142.9150 C   0  0  0  0  0  2  0  0  0  0  0  0
  186.7060  177.8340  145.4880 C   0  0  0  0  0  0  0  0  0  0  0  0
  182.1870  177.1040  140.5560 C   0  0  2  0  0  3  0  0  0  0  0  0
  183.4050  176.9820  138.3410 C   0  0  0  0  0  0  0  0  0  0  0  0
  183.3080  178.2280  138.1750 O   0  0  0  0  0  0  0  0  0  0  0  0
  182.8430  176.3540  139.4940 N   0  0  0  0  0  2  0  0  0  0  0  0
  184.1390  176.1590  137.3430 C   0  0  0  0  0  2  0  0  0  0  0  0
  185.5100  176.7070  137.1490 C   0  0  0  0  0  3  0  0  0  0  0  0
  186.5650  175.8990  137.2250 C   0  0  0  0  0  3  0  0  0  0  0  0
  187.9570  176.4200  137.0300 C   0  0  1  0  0  3  0  0  0  0  0  0
  188.0850  176.9480  135.6030 C   0  0  0  0  0  2  0  0  0  0  0  0
  188.0900  175.7990  134.6130 C   0  0  0  0  0  1  0  0  0  0  0  0
  188.2540  177.5350  138.0450 C   0  0  1  0  0  3  0  0  0  0  0  0
  188.8580  177.0060  139.2490 N   0  0  0  0  0  0  0  0  0  0  0  0
  188.7610  177.5800  140.2920 O   0  0  0  0  0  0  0  0  0  0  0  0
  189.0050  179.7640  137.8000 O   0  0  0  0  0  0  0  0  0  0  0  0
  189.1340  178.6000  137.4580 C   0  0  0  0  0  3  0  0  0  0  0  0
  180.8010  176.9760  140.4360 O   0  0  0  0  0  0  0  0  0  0  0  0
  180.3530  178.2460  140.0680 C   0  0  0  0  0  3  0  0  0  0  0  0
  179.0990  178.1090  139.2270 C   0  0  0  0  0  2  0  0  0  0  0  0
  178.9920  178.4910  140.6880 C   0  0  0  0  0  2  0  0  0  0  0  0
  2 16  1  6  0  0  0
  2 12  1  0  0  0  0
  2 17  1  0  0  0  0
  4  7  1  0  0  0  0
  5 14  1  0  0  0  0
  5  3  1  0  0  0  0
  6  5  1  0  0  0  0
  7 13  1  6  0  0  0
  7 19  1  0  0  0  0
  9 19  2  0  0  0  0
  9  8  1  0  0  0  0
 10  9  1  0  0  0  0
 12  1  1  6  0  0  0
 12 18  1  0  0  0  0
 13  6  1  0  0  0  0
 14 11  2  0  0  0  0
 15 10  1  0  0  0  0
 17  4  1  0  0  0  0
 17 10  2  0  0  0  0
 18 15  1  0  0  0  0
 19 14  1  0  0  0  0
 20  1  1  6  0  0  0
 21 23  1  0  0  0  0
 22 21  2  0  0  0  0
 23 20  1  0  0  0  0
 24 21  1  0  0  0  0
 25 26  2  0  0  0  0
 25 24  1  0  0  0  0
 27 28  1  6  0  0  0
 27 26  1  0  0  0  0
 27 30  1  0  0  0  0
 29 28  1  0  0  0  0
 30 34  1  6  0  0  0
 30 31  1  0  0  0  0
 31 32  2  0  0  0  0
 34 33  2  0  0  0  0
 35 20  1  0  0  0  0
 36 35  1  0  0  0  0
 36 38  1  0  0  0  0
 37 36  1  0  0  0  0
 37 38  1  0  0  0  0
M  END
>  <MODEL>
8

>  <REMARK>
 VINA RESULT:      -7.0      2.285      7.408
  Name = 
  12 active torsions:
  status: ('A' for Active; 'I' for Inactive)
    1  A    between atoms: C_1  and  O_27
    2  A    between atoms: C_3  and  C_28
    3  A    between atoms: C_6  and  C_20
    4  A    between atoms: C_6  and  C_22
    5  A    between atoms: C_7  and  C_12
    6  A    between atoms: N_9  and  C_30
    7  A    between atoms: C_12  and  C_18
    8  A    between atoms: C_22  and  O_27
    9  A    between atoms: C_22  and  N_38
   10  A    between atoms: C_28  and  C_30
   11  A    between atoms: C_28  and  C_31
   12  A    between atoms: C_30  and  C_33
                            x       y       z     vdW  Elec       q    Type
                         _______ _______ _______ _____ _____    ______ ____

>  <TORSDO>
F 12

$$$$
=
 OpenBabel10222421023D

 38 41  0  0  1  0  0  0  0  0999 V2000
  182.8580  178.5360  140.5260 C   0  0  0  0  0  2  0  0  0  0  0  0
  185.0540  178.2980  141.7180 C   0  0  1  0  0  3  0  0  0  0  0  0
  190.1240  177.3460  147.7360 C   0  0  0  0  0  1  0  0  0  0  0  0
  186.9840  177.6180  143.1640 O   0  0  0  0  0  0  0  0  0  0  0  0
  189.2500  177.6100  146.6040 N   0  0  0  0  0  0  0  0  0  0  0  0
  189.8040  177.6340  145.2560 C   0  0  0  0  0  2  0  0  0  0  0  0
  187.4590  177.0560  144.3850 C   0  0  1  0  0  3  0  0  0  0  0  0
  185.2920  179.1730  146.6120 O   0  0  0  0  0  1  0  0  0  0  0  0
  185.8090  178.5020  145.5060 C   0  0  0  0  0  0  0  0  0  0  0  0
  185.0750  178.5560  144.2180 C   0  0  0  0  0  0  0  0  0  0  0  0
  187.3850  178.1100  147.9280 O   0  0  0  0  0  0  0  0  0  0  0  0
  183.6830  178.9990  141.7170 C   0  0  2  0  0  3  0  0  0  0  0  0
  188.9670  176.7530  144.3270 C   0  0  0  0  0  2  0  0  0  0  0  0
  187.8540  177.8760  146.7800 C   0  0  0  0  0  0  0  0  0  0  0  0
  183.7120  179.1890  144.1840 C   0  0  0  0  0  2  0  0  0  0  0  0
  185.9990  179.0050  140.7620 C   0  0  0  0  0  1  0  0  0  0  0  0
  185.7010  178.1760  143.0820 C   0  0  0  0  0  0  0  0  0  0  0  0
  182.9090  178.6940  142.9900 C   0  0  0  0  0  2  0  0  0  0  0  0
  186.9880  177.8560  145.5820 C   0  0  0  0  0  0  0  0  0  0  0  0
  181.3710  178.6450  140.8250 C   0  0  2  0  0  3  0  0  0  0  0  0
  179.6530  176.8100  141.1170 C   0  0  0  0  0  0  0  0  0  0  0  0
  179.3060  177.2620  142.2420 O   0  0  0  0  0  0  0  0  0  0  0  0
  180.6970  177.4370  140.3700 N   0  0  0  0  0  2  0  0  0  0  0  0
  178.9490  175.6320  140.5440 C   0  0  0  0  0  2  0  0  0  0  0  0
  179.3200  175.4700  139.1110 C   0  0  0  0  0  3  0  0  0  0  0  0
  180.2240  174.5600  138.7580 C   0  0  0  0  0  3  0  0  0  0  0  0
  180.6160  174.3710  137.3230 C   0  0  1  0  0  3  0  0  0  0  0  0
  180.8560  175.7430  136.6990 C   0  0  0  0  0  2  0  0  0  0  0  0
  180.2460  175.8060  135.3110 C   0  0  0  0  0  1  0  0  0  0  0  0
  181.8830  173.5060  137.2280 C   0  0  1  0  0  3  0  0  0  0  0  0
  181.8430  172.6350  136.0730 N   0  0  0  0  0  0  0  0  0  0  0  0
  181.9550  171.4520  136.1890 O   0  0  0  0  0  0  0  0  0  0  0  0
  184.0430  174.1280  137.9640 O   0  0  0  0  0  0  0  0  0  0  0  0
  183.1260  174.3470  137.1890 C   0  0  0  0  0  3  0  0  0  0  0  0
  180.8460  179.7560  140.1580 O   0  0  0  0  0  0  0  0  0  0  0  0
  181.5320  179.8030  138.9430 C   0  0  0  0  0  3  0  0  0  0  0  0
  180.5610  180.1610  137.8360 C   0  0  0  0  0  2  0  0  0  0  0  0
  181.4850  181.2180  138.4030 C   0  0  0  0  0  2  0  0  0  0  0  0
  2 16  1  6  0  0  0
  2 17  1  0  0  0  0
  4  7  1  0  0  0  0
  5 14  1  0  0  0  0
  5  3  1  0  0  0  0
  6  5  1  0  0  0  0
  7 13  1  6  0  0  0
  7 19  1  0  0  0  0
  9 19  2  0  0  0  0
  9  8  1  0  0  0  0
 10  9  1  0  0  0  0
 12  1  1  6  0  0  0
 12  2  1  0  0  0  0
 12 18  1  0  0  0  0
 13  6  1  0  0  0  0
 14 11  2  0  0  0  0
 15 10  1  0  0  0  0
 17  4  1  0  0  0  0
 17 10  2  0  0  0  0
 18 15  1  0  0  0  0
 19 14  1  0  0  0  0
 20  1  1  6  0  0  0
 21 22  2  0  0  0  0
 23 20  1  0  0  0  0
 23 21  1  0  0  0  0
 24 21  1  0  0  0  0
 25 24  1  0  0  0  0
 26 25  2  0  0  0  0
 27 28  1  1  0  0  0
 27 26  1  0  0  0  0
 29 28  1  0  0  0  0
 30 34  1  6  0  0  0
 30 27  1  0  0  0  0
 31 32  2  0  0  0  0
 31 30  1  0  0  0  0
 34 33  2  0  0  0  0
 35 20  1  0  0  0  0
 36 35  1  0  0  0  0
 37 38  1  0  0  0  0
 37 36  1  0  0  0  0
 38 36  1  0  0  0  0
M  END
>  <MODEL>
9

>  <REMARK>
 VINA RESULT:      -6.9      3.540      9.139
  Name = 
  12 active torsions:
  status: ('A' for Active; 'I' for Inactive)
    1  A    between atoms: C_1  and  O_27
    2  A    between atoms: C_3  and  C_28
    3  A    between atoms: C_6  and  C_20
    4  A    between atoms: C_6  and  C_22
    5  A    between atoms: C_7  and  C_12
    6  A    between atoms: N_9  and  C_30
    7  A    between atoms: C_12  and  C_18
    8  A    between atoms: C_22  and  O_27
    9  A    between atoms: C_22  and  N_38
   10  A    between atoms: C_28  and  C_30
   11  A    between atoms: C_28  and  C_31
   12  A    between atoms: C_30  and  C_33
                            x       y       z     vdW  Elec       q    Type
                         _______ _______ _______ _____ _____    ______ ____

>  <TORSDO>
F 12

$$$$
