=
 OpenBabel10222420463D

 39 43  0  0  1  0  0  0  0  0999 V2000
  191.2390  176.5290  136.0410 O   0  0  0  0  0  0  0  0  0  0  0  0
  188.9740  176.5230  136.5510 N   0  0  0  0  0  0  0  0  0  0  0  0
  189.8820  177.3880  139.3260 C   0  0  1  0  0  3  0  0  0  0  0  0
  190.1540  176.4710  140.4660 C   0  0  0  0  0  2  0  0  0  0  0  0
  187.7810  178.2200  140.3730 C   0  0  0  0  0  3  0  0  0  0  0  0
  185.4290  177.4920  137.4740 C   0  0  0  0  0  3  0  0  0  0  0  0
  190.7430  177.2550  138.1900 N   0  0  0  0  0  2  0  0  0  0  0  0
  190.3480  176.7820  136.8860 C   0  0  0  0  0  0  0  0  0  0  0  0
  188.2010  178.5000  137.9170 C   0  0  0  0  0  2  0  0  0  0  0  0
  190.3020  177.1930  141.7620 C   0  0  0  0  0  3  0  0  0  0  0  0
  186.1970  175.5910  136.3720 C   0  0  0  0  0  3  0  0  0  0  0  0
  189.3500  177.9460  142.3200 C   0  0  0  0  0  0  0  0  0  0  0  0
  184.9190  175.4880  136.5120 N   0  0  0  0  0  0  0  0  0  0  0  0
  187.8920  177.2720  137.1100 C   0  0  0  0  0  0  0  0  0  0  0  0
  188.7160  178.0530  139.2470 C   0  0  2  0  0  3  0  0  0  0  0  0
  184.4400  176.6550  137.1890 C   0  0  0  0  0  2  0  0  0  0  0  0
  188.0120  178.1810  141.6960 C   0  0  0  0  0  0  0  0  0  0  0  0
  186.6330  176.8450  136.9710 C   0  0  0  0  0  0  0  0  0  0  0  0
  185.6630  178.9520  141.9540 C   0  0  0  0  0  0  0  0  0  0  0  0
  186.9020  178.5300  142.5270 N   0  0  0  0  0  2  0  0  0  0  0  0
  185.6530  179.7220  140.9490 O   0  0  0  0  0  0  0  0  0  0  0  0
  183.7280  179.0870  143.4090 C   0  0  0  0  0  3  0  0  0  0  0  0
  184.4030  178.4150  142.4770 C   0  0  0  0  0  3  0  0  0  0  0  0
  182.3530  178.6780  143.8590 C   0  0  0  0  0  2  0  0  0  0  0  0
  180.0660  178.0250  142.9340 C   0  0  1  0  0  3  0  0  0  0  0  0
  180.8790  180.2380  142.6030 N   0  0  0  0  0  2  0  0  0  0  0  0
  179.0050  178.7930  142.1930 C   0  0  0  0  0  2  0  0  0  0  0  0
  181.3210  178.8580  142.7400 C   0  0  1  0  0  3  0  0  0  0  0  0
  179.6340  180.1290  141.8540 C   0  0  0  0  0  2  0  0  0  0  0  0
  179.7070  177.9520  144.2830 O   0  0  0  0  0  1  0  0  0  0  0  0
  189.5530  178.3680  143.7450 C   0  0  0  0  0  2  0  0  0  0  0  0
  189.8200  177.2050  144.7160 C   0  0  0  0  0  2  0  0  0  0  0  0
  189.3750  176.8320  147.2620 C   0  0  0  0  0  2  0  0  0  0  0  0
  186.5630  177.7710  146.7800 C   0  0  0  0  0  2  0  0  0  0  0  0
  187.9000  177.9750  148.8240 N   0  0  0  0  0  2  0  0  0  0  0  0
  189.2400  177.9900  148.2490 C   0  0  0  0  0  2  0  0  0  0  0  0
  188.8880  177.2330  145.8940 C   0  0  0  0  0  0  0  0  0  0  0  0
  187.0070  178.6920  147.9240 C   0  0  0  0  0  2  0  0  0  0  0  0
  187.6220  177.6560  145.6910 C   0  0  0  0  0  3  0  0  0  0  0  0
  1  8  2  0  0  0  0
  2  8  1  0  0  0  0
  2 14  2  0  0  0  0
  3  4  1  6  0  0  0
  4 10  1  0  0  0  0
  5 17  2  0  0  0  0
  7  3  1  0  0  0  0
  8  7  1  0  0  0  0
 10 12  2  0  0  0  0
 11 13  2  0  0  0  0
 11 18  1  0  0  0  0
 12 31  1  0  0  0  0
 13 16  1  0  0  0  0
 14  9  1  0  0  0  0
 15  9  1  6  0  0  0
 15  3  1  0  0  0  0
 15  5  1  0  0  0  0
 16  6  1  0  0  0  0
 17 12  1  0  0  0  0
 17 20  1  0  0  0  0
 18 14  1  0  0  0  0
 18  6  2  0  0  0  0
 19 23  1  0  0  0  0
 19 20  1  0  0  0  0
 21 19  2  0  0  0  0
 22 24  1  0  0  0  0
 23 22  2  0  0  0  0
 25 30  1  1  0  0  0
 26 28  1  0  0  0  0
 27 25  1  0  0  0  0
 28 25  1  0  0  0  0
 28 24  1  1  0  0  0
 29 27  1  0  0  0  0
 29 26  1  0  0  0  0
 31 32  1  0  0  0  0
 32 37  1  0  0  0  0
 33 36  1  0  0  0  0
 34 38  1  0  0  0  0
 36 35  1  0  0  0  0
 37 33  1  0  0  0  0
 38 35  1  0  0  0  0
 39 37  2  0  0  0  0
 39 34  1  0  0  0  0
M  END
>  <MODEL>
1

>  <REMARK>
 VINA RESULT:      -9.9      0.000      0.000
  Name = 
  7 active torsions:
  status: ('A' for Active; 'I' for Inactive)
    1  A    between atoms: C_11  and  C_23
    2  A    between atoms: C_11  and  C_35
    3  A    between atoms: C_12  and  C_28
    4  A    between atoms: C_12  and  C_30
    5  A    between atoms: C_17  and  C_37
    6  A    between atoms: N_18  and  C_32
    7  A    between atoms: C_22  and  C_35
                            x       y       z     vdW  Elec       q    Type
                         _______ _______ _______ _____ _____    ______ ____

>  <TORSDO>
F 7

$$$$
=
 OpenBabel10222420463D

 39 43  0  0  1  0  0  0  0  0999 V2000
  179.0210  179.8410  144.1160 O   0  0  0  0  0  0  0  0  0  0  0  0
  180.0160  180.0840  142.0340 N   0  0  0  0  0  2  0  0  0  0  0  0
  182.4660  178.8670  143.3720 C   0  0  1  0  0  3  0  0  0  0  0  0
  183.5710  179.6380  144.0040 C   0  0  0  0  0  2  0  0  0  0  0  0
  183.8980  178.2150  141.4410 C   0  0  0  0  0  3  0  0  0  0  0  0
  181.6370  179.4890  138.6600 C   0  0  0  0  0  3  0  0  0  0  0  0
  181.1790  178.9930  143.9850 N   0  0  0  0  0  2  0  0  0  0  0  0
  180.0250  179.6270  143.3960 C   0  0  0  0  0  0  0  0  0  0  0  0
  181.3970  178.1050  141.2920 C   0  0  0  0  0  2  0  0  0  0  0  0
  184.7580  178.7900  144.3170 C   0  0  0  0  0  3  0  0  0  0  0  0
  180.5100  181.3700  139.4420 C   0  0  0  0  0  3  0  0  0  0  0  0
  185.4650  178.1140  143.4060 C   0  0  0  0  0  0  0  0  0  0  0  0
  180.9330  181.6200  138.2490 N   0  0  0  0  0  0  0  0  0  0  0  0
  180.7540  179.4300  140.9980 C   0  0  0  0  0  0  0  0  0  0  0  0
  182.6060  178.3640  142.1320 C   0  0  2  0  0  3  0  0  0  0  0  0
  181.6270  180.4650  137.7620 C   0  0  0  0  0  3  0  0  0  0  0  0
  185.1380  178.1070  141.9480 C   0  0  0  0  0  0  0  0  0  0  0  0
  180.9220  180.0230  139.8110 C   0  0  0  0  0  0  0  0  0  0  0  0
  187.4270  178.5030  141.0630 C   0  0  0  0  0  0  0  0  0  0  0  0
  186.1700  177.8270  140.9990 N   0  0  0  0  0  2  0  0  0  0  0  0
  187.4740  179.7380  141.3360 O   0  0  0  0  0  0  0  0  0  0  0  0
  189.4940  178.0130  139.8950 C   0  0  0  0  0  3  0  0  0  0  0  0
  188.6680  177.7400  140.9050 C   0  0  0  0  0  3  0  0  0  0  0  0
  190.8560  177.3880  139.7770 C   0  0  0  0  0  2  0  0  0  0  0  0
  192.4260  176.6970  137.8880 C   0  0  1  0  0  3  0  0  0  0  0  0
  190.6760  175.2280  138.5580 N   0  0  0  0  0  2  0  0  0  0  0  0
  192.5320  175.4510  137.0500 C   0  0  0  0  0  2  0  0  0  0  0  0
  191.0160  176.6390  138.4500 C   0  0  1  0  0  3  0  0  0  0  0  0
  191.3030  174.6310  137.3870 C   0  0  0  0  0  2  0  0  0  0  0  0
  193.3820  176.6340  138.9050 O   0  0  0  0  0  1  0  0  0  0  0  0
  186.7820  177.5450  143.8420 C   0  0  0  0  0  2  0  0  0  0  0  0
  187.0830  177.7240  145.3400 C   0  0  0  0  0  2  0  0  0  0  0  0
  189.0770  177.8500  147.0210 C   0  0  0  0  0  2  0  0  0  0  0  0
  190.9130  177.9210  144.6450 C   0  0  0  0  0  2  0  0  0  0  0  0
  191.3590  177.0180  146.8790 N   0  0  0  0  0  2  0  0  0  0  0  0
  190.0040  176.6640  147.2840 C   0  0  0  0  0  2  0  0  0  0  0  0
  188.5590  177.8230  145.6080 C   0  0  0  0  0  0  0  0  0  0  0  0
  191.4940  176.7540  145.4530 C   0  0  0  0  0  2  0  0  0  0  0  0
  189.3940  177.8520  144.5480 C   0  0  0  0  0  3  0  0  0  0  0  0
  2  8  1  0  0  0  0
  3  7  1  0  0  0  0
  3  4  1  6  0  0  0
  4 10  1  0  0  0  0
  5 17  2  0  0  0  0
  5 15  1  0  0  0  0
  6 18  1  0  0  0  0
  8  7  1  0  0  0  0
  8  1  2  0  0  0  0
 11 18  1  0  0  0  0
 12 31  1  0  0  0  0
 12 10  2  0  0  0  0
 13 11  2  0  0  0  0
 14  9  1  0  0  0  0
 14  2  1  0  0  0  0
 15  9  1  6  0  0  0
 15  3  1  0  0  0  0
 16 13  1  0  0  0  0
 16  6  2  0  0  0  0
 17 12  1  0  0  0  0
 18 14  2  0  0  0  0
 19 21  2  0  0  0  0
 20 19  1  0  0  0  0
 20 17  1  0  0  0  0
 22 23  2  0  0  0  0
 23 19  1  0  0  0  0
 24 22  1  0  0  0  0
 25 28  1  0  0  0  0
 25 30  1  1  0  0  0
 27 29  1  0  0  0  0
 27 25  1  0  0  0  0
 28 26  1  0  0  0  0
 28 24  1  1  0  0  0
 29 26  1  0  0  0  0
 31 32  1  0  0  0  0
 32 37  1  0  0  0  0
 33 36  1  0  0  0  0
 34 38  1  0  0  0  0
 35 36  1  0  0  0  0
 37 33  1  0  0  0  0
 38 35  1  0  0  0  0
 39 34  1  0  0  0  0
 39 37  2  0  0  0  0
M  END
>  <MODEL>
2

>  <REMARK>
 VINA RESULT:      -9.4      2.376      8.130
  Name = 
  7 active torsions:
  status: ('A' for Active; 'I' for Inactive)
    1  A    between atoms: C_11  and  C_23
    2  A    between atoms: C_11  and  C_35
    3  A    between atoms: C_12  and  C_28
    4  A    between atoms: C_12  and  C_30
    5  A    between atoms: C_17  and  C_37
    6  A    between atoms: N_18  and  C_32
    7  A    between atoms: C_22  and  C_35
                            x       y       z     vdW  Elec       q    Type
                         _______ _______ _______ _____ _____    ______ ____

>  <TORSDO>
F 7

$$$$
=
 OpenBabel10222420463D

 39 43  0  0  1  0  0  0  0  0999 V2000
  189.5740  176.6490  147.3270 O   0  0  0  0  0  0  0  0  0  0  0  0
  187.9980  177.4890  145.8450 N   0  0  0  0  0  2  0  0  0  0  0  0
  190.1960  177.1690  143.7620 C   0  0  1  0  0  3  0  0  0  0  0  0
  191.1590  178.2290  143.3590 C   0  0  0  0  0  2  0  0  0  0  0  0
  188.9600  177.3390  141.6070 C   0  0  0  0  0  3  0  0  0  0  0  0
  185.4900  177.9460  143.0410 C   0  0  0  0  0  3  0  0  0  0  0  0
  190.2850  176.7190  145.1180 N   0  0  0  0  0  2  0  0  0  0  0  0
  189.2850  176.9200  146.1380 C   0  0  0  0  0  0  0  0  0  0  0  0
  187.9020  176.2920  143.6240 C   0  0  0  0  0  2  0  0  0  0  0  0
  191.9230  177.8750  142.1280 C   0  0  0  0  0  3  0  0  0  0  0  0
  185.7200  179.1470  145.0220 C   0  0  0  0  0  3  0  0  0  0  0  0
  191.3670  177.6310  140.9370 C   0  0  0  0  0  0  0  0  0  0  0  0
  184.7580  179.6720  144.3410 N   0  0  0  0  0  0  0  0  0  0  0  0
  187.3360  177.2900  144.5930 C   0  0  0  0  0  0  0  0  0  0  0  0
  189.1180  176.9000  143.0040 C   0  0  2  0  0  3  0  0  0  0  0  0
  184.6110  178.9370  143.1210 C   0  0  0  0  0  3  0  0  0  0  0  0
  189.8930  177.6610  140.6940 C   0  0  0  0  0  0  0  0  0  0  0  0
  186.2710  178.0300  144.2670 C   0  0  0  0  0  0  0  0  0  0  0  0
  188.9510  176.8350  138.5470 C   0  0  0  0  0  0  0  0  0  0  0  0
  189.4040  177.9090  139.3730 N   0  0  0  0  0  2  0  0  0  0  0  0
  189.5760  175.7340  138.5300 O   0  0  0  0  0  0  0  0  0  0  0  0
  186.7080  177.7170  138.2810 C   0  0  0  0  0  3  0  0  0  0  0  0
  187.7050  176.9810  137.7890 C   0  0  0  0  0  3  0  0  0  0  0  0
  185.4790  178.0450  137.4820 C   0  0  0  0  0  2  0  0  0  0  0  0
  184.0570  178.8710  139.4330 C   0  0  1  0  0  3  0  0  0  0  0  0
  182.9940  177.9560  137.5080 N   0  0  0  0  0  2  0  0  0  0  0  0
  182.5700  178.9520  139.6520 C   0  0  0  0  0  2  0  0  0  0  0  0
  184.2040  177.8570  138.3110 C   0  0  1  0  0  3  0  0  0  0  0  0
  181.9470  178.2050  138.4900 C   0  0  0  0  0  2  0  0  0  0  0  0
  184.5210  180.1300  139.0450 O   0  0  0  0  0  1  0  0  0  0  0  0
  192.2820  177.5680  139.7510 C   0  0  0  0  0  2  0  0  0  0  0  0
  193.2880  176.4040  139.7900 C   0  0  0  0  0  2  0  0  0  0  0  0
  194.6830  174.8570  138.2160 C   0  0  0  0  0  2  0  0  0  0  0  0
  193.0690  175.9390  135.9260 C   0  0  0  0  0  2  0  0  0  0  0  0
  194.1050  173.7290  136.1400 N   0  0  0  0  0  2  0  0  0  0  0  0
  194.1050  173.5890  137.5900 C   0  0  0  0  0  2  0  0  0  0  0  0
  193.6100  175.8950  138.4130 C   0  0  0  0  0  0  0  0  0  0  0  0
  192.8880  174.4270  135.7470 C   0  0  0  0  0  2  0  0  0  0  0  0
  192.8890  176.3720  137.3760 C   0  0  0  0  0  3  0  0  0  0  0  0
  2  8  1  0  0  0  0
  3  4  1  1  0  0  0
  3  7  1  0  0  0  0
  6 16  2  0  0  0  0
  6 18  1  0  0  0  0
  7  8  1  0  0  0  0
  8  1  2  0  0  0  0
  9 14  1  0  0  0  0
 10  4  1  0  0  0  0
 12 10  2  0  0  0  0
 13 11  2  0  0  0  0
 14  2  1  0  0  0  0
 15  5  1  1  0  0  0
 15  9  1  0  0  0  0
 15  3  1  0  0  0  0
 16 13  1  0  0  0  0
 17 12  1  0  0  0  0
 17  5  2  0  0  0  0
 18 14  2  0  0  0  0
 18 11  1  0  0  0  0
 19 20  1  0  0  0  0
 20 17  1  0  0  0  0
 21 19  2  0  0  0  0
 23 22  2  0  0  0  0
 23 19  1  0  0  0  0
 24 22  1  0  0  0  0
 25 30  1  6  0  0  0
 25 27  1  0  0  0  0
 26 28  1  0  0  0  0
 26 29  1  0  0  0  0
 28 24  1  6  0  0  0
 28 25  1  0  0  0  0
 29 27  1  0  0  0  0
 31 32  1  0  0  0  0
 31 12  1  0  0  0  0
 33 37  1  0  0  0  0
 34 39  1  0  0  0  0
 35 36  1  0  0  0  0
 36 33  1  0  0  0  0
 37 32  1  0  0  0  0
 38 34  1  0  0  0  0
 38 35  1  0  0  0  0
 39 37  2  0  0  0  0
M  END
>  <MODEL>
3

>  <REMARK>
 VINA RESULT:      -8.9      2.949      7.663
  Name = 
  7 active torsions:
  status: ('A' for Active; 'I' for Inactive)
    1  A    between atoms: C_11  and  C_23
    2  A    between atoms: C_11  and  C_35
    3  A    between atoms: C_12  and  C_28
    4  A    between atoms: C_12  and  C_30
    5  A    between atoms: C_17  and  C_37
    6  A    between atoms: N_18  and  C_32
    7  A    between atoms: C_22  and  C_35
                            x       y       z     vdW  Elec       q    Type
                         _______ _______ _______ _____ _____    ______ ____

>  <TORSDO>
F 7

$$$$
=
 OpenBabel10222420463D

 39 43  0  0  1  0  0  0  0  0999 V2000
  192.7590  176.2140  136.6380 O   0  0  0  0  0  0  0  0  0  0  0  0
  190.4920  175.8070  136.9230 N   0  0  0  0  0  0  0  0  0  0  0  0
  190.8810  177.1260  139.6400 C   0  0  1  0  0  3  0  0  0  0  0  0
  191.1820  176.4090  140.9080 C   0  0  0  0  0  2  0  0  0  0  0  0
  188.5510  177.6230  140.3640 C   0  0  0  0  0  3  0  0  0  0  0  0
  186.7430  176.1330  137.3670 C   0  0  0  0  0  3  0  0  0  0  0  0
  191.8820  177.0490  138.6190 N   0  0  0  0  0  2  0  0  0  0  0  0
  191.7420  176.3710  137.3540 C   0  0  0  0  0  0  0  0  0  0  0  0
  189.2020  177.7210  137.9440 C   0  0  0  0  0  2  0  0  0  0  0  0
  191.0350  177.2790  142.1100 C   0  0  0  0  0  3  0  0  0  0  0  0
  187.9830  174.3200  136.5960 C   0  0  0  0  0  3  0  0  0  0  0  0
  189.8980  177.8800  142.4730 C   0  0  0  0  0  0  0  0  0  0  0  0
  186.7390  173.9770  136.6230 N   0  0  0  0  0  0  0  0  0  0  0  0
  189.2290  176.3770  137.2750 C   0  0  0  0  0  0  0  0  0  0  0  0
  189.6280  177.5300  139.3640 C   0  0  2  0  0  3  0  0  0  0  0  0
  185.9710  175.0890  137.0960 C   0  0  0  0  0  2  0  0  0  0  0  0
  188.6240  177.7720  141.6970 C   0  0  0  0  0  0  0  0  0  0  0  0
  188.0990  175.6920  137.0700 C   0  0  0  0  0  0  0  0  0  0  0  0
  186.3140  178.6890  141.7290 C   0  0  0  0  0  0  0  0  0  0  0  0
  187.3770  177.9760  142.3650 N   0  0  0  0  0  2  0  0  0  0  0  0
  186.5600  179.7230  141.0410 O   0  0  0  0  0  0  0  0  0  0  0  0
  183.9900  178.6950  141.0380 C   0  0  0  0  0  3  0  0  0  0  0  0
  184.9470  178.1640  141.8000 C   0  0  0  0  0  3  0  0  0  0  0  0
  182.6160  178.0940  140.9370 C   0  0  0  0  0  2  0  0  0  0  0  0
  182.6330  176.9550  138.6540 C   0  0  1  0  0  3  0  0  0  0  0  0
  180.6520  178.0370  139.4130 N   0  0  0  0  0  2  0  0  0  0  0  0
  181.5770  176.7620  137.5990 C   0  0  0  0  0  2  0  0  0  0  0  0
  182.1040  178.1050  139.4930 C   0  0  1  0  0  3  0  0  0  0  0  0
  180.4020  177.6100  138.0430 C   0  0  0  0  0  2  0  0  0  0  0  0
  182.7340  175.7810  139.4050 O   0  0  0  0  0  1  0  0  0  0  0  0
  189.8450  178.4830  143.8450 C   0  0  0  0  0  2  0  0  0  0  0  0
  190.2810  177.5290  144.9710 C   0  0  0  0  0  2  0  0  0  0  0  0
  189.6060  177.0140  147.4400 C   0  0  0  0  0  2  0  0  0  0  0  0
  186.7680  177.6070  146.6560 C   0  0  0  0  0  2  0  0  0  0  0  0
  187.8310  177.9060  148.8440 N   0  0  0  0  0  2  0  0  0  0  0  0
  189.2130  178.1100  148.4280 C   0  0  0  0  0  2  0  0  0  0  0  0
  189.2270  177.3970  146.0340 C   0  0  0  0  0  0  0  0  0  0  0  0
  186.9590  178.5360  147.8620 C   0  0  0  0  0  2  0  0  0  0  0  0
  187.9480  177.6650  145.6950 C   0  0  0  0  0  3  0  0  0  0  0  0
  1  8  2  0  0  0  0
  2 14  2  0  0  0  0
  2  8  1  0  0  0  0
  3  4  1  6  0  0  0
  4 10  1  0  0  0  0
  5 17  2  0  0  0  0
  7  3  1  0  0  0  0
  8  7  1  0  0  0  0
 10 12  2  0  0  0  0
 11 13  2  0  0  0  0
 11 18  1  0  0  0  0
 12 31  1  0  0  0  0
 13 16  1  0  0  0  0
 14  9  1  0  0  0  0
 15  9  1  6  0  0  0
 15  3  1  0  0  0  0
 15  5  1  0  0  0  0
 16  6  1  0  0  0  0
 17 20  1  0  0  0  0
 17 12  1  0  0  0  0
 18 14  1  0  0  0  0
 18  6  2  0  0  0  0
 19 23  1  0  0  0  0
 19 20  1  0  0  0  0
 21 19  2  0  0  0  0
 22 23  2  0  0  0  0
 24 22  1  0  0  0  0
 25 30  1  1  0  0  0
 25 28  1  0  0  0  0
 26 28  1  0  0  0  0
 27 29  1  0  0  0  0
 27 25  1  0  0  0  0
 28 24  1  1  0  0  0
 29 26  1  0  0  0  0
 31 32  1  0  0  0  0
 32 37  1  0  0  0  0
 33 36  1  0  0  0  0
 34 38  1  0  0  0  0
 36 35  1  0  0  0  0
 37 33  1  0  0  0  0
 38 35  1  0  0  0  0
 39 37  2  0  0  0  0
 39 34  1  0  0  0  0
M  END
>  <MODEL>
4

>  <REMARK>
 VINA RESULT:      -8.8      1.953      2.290
  Name = 
  7 active torsions:
  status: ('A' for Active; 'I' for Inactive)
    1  A    between atoms: C_11  and  C_23
    2  A    between atoms: C_11  and  C_35
    3  A    between atoms: C_12  and  C_28
    4  A    between atoms: C_12  and  C_30
    5  A    between atoms: C_17  and  C_37
    6  A    between atoms: N_18  and  C_32
    7  A    between atoms: C_22  and  C_35
                            x       y       z     vdW  Elec       q    Type
                         _______ _______ _______ _____ _____    ______ ____

>  <TORSDO>
F 7

$$$$
=
 OpenBabel10222420463D

 39 43  0  0  1  0  0  0  0  0999 V2000
  192.1770  177.0730  140.3900 O   0  0  0  0  0  0  0  0  0  0  0  0
  191.4490  177.1170  142.5930 N   0  0  0  0  0  0  0  0  0  0  0  0
  188.7120  177.6870  141.3850 C   0  0  1  0  0  3  0  0  0  0  0  0
  188.1400  179.0420  141.1550 C   0  0  0  0  0  2  0  0  0  0  0  0
  187.1570  177.2480  143.2790 C   0  0  0  0  0  3  0  0  0  0  0  0
  189.7650  176.3780  145.9070 C   0  0  0  0  0  3  0  0  0  0  0  0
  189.8850  177.3630  140.6320 N   0  0  0  0  0  2  0  0  0  0  0  0
  191.2040  177.1570  141.1770 C   0  0  0  0  0  0  0  0  0  0  0  0
  189.2650  175.9190  143.0020 C   0  0  0  0  0  2  0  0  0  0  0  0
  186.6870  179.0030  140.8220 C   0  0  0  0  0  3  0  0  0  0  0  0
  191.6800  177.6280  145.4740 C   0  0  0  0  0  3  0  0  0  0  0  0
  185.7400  178.5070  141.6250 C   0  0  0  0  0  0  0  0  0  0  0  0
  191.4460  177.6750  146.7420 N   0  0  0  0  0  0  0  0  0  0  0  0
  190.4880  176.6160  143.5260 C   0  0  0  0  0  0  0  0  0  0  0  0
  188.3450  176.9630  142.4570 C   0  0  2  0  0  3  0  0  0  0  0  0
  190.2680  176.9060  147.0150 C   0  0  0  0  0  2  0  0  0  0  0  0
  186.0270  177.9030  142.9620 C   0  0  0  0  0  0  0  0  0  0  0  0
  190.6460  176.8250  144.8370 C   0  0  0  0  0  0  0  0  0  0  0  0
  184.5180  179.0870  144.5430 C   0  0  0  0  0  0  0  0  0  0  0  0
  184.9990  177.8770  143.9550 N   0  0  0  0  0  2  0  0  0  0  0  0
  185.3240  180.0160  144.8430 O   0  0  0  0  0  0  0  0  0  0  0  0
  182.2150  178.5960  143.9630 C   0  0  0  0  0  3  0  0  0  0  0  0
  183.0750  179.2870  144.7110 C   0  0  0  0  0  3  0  0  0  0  0  0
  180.7320  178.6280  144.2040 C   0  0  0  0  0  2  0  0  0  0  0  0
  179.2600  179.8400  142.5080 C   0  0  1  0  0  3  0  0  0  0  0  0
  180.7890  178.1750  141.7590 N   0  0  0  0  0  2  0  0  0  0  0  0
  179.1500  179.7640  141.0090 C   0  0  0  0  0  2  0  0  0  0  0  0
  179.9480  178.5410  142.8900 C   0  0  1  0  0  3  0  0  0  0  0  0
  180.0040  178.5800  140.6000 C   0  0  0  0  0  2  0  0  0  0  0  0
  180.0430  180.9490  142.8440 O   0  0  0  0  0  1  0  0  0  0  0  0
  184.3130  178.7970  141.2680 C   0  0  0  0  0  2  0  0  0  0  0  0
  184.0910  179.1420  139.7850 C   0  0  0  0  0  2  0  0  0  0  0  0
  183.0550  176.7970  139.2900 C   0  0  0  0  0  2  0  0  0  0  0  0
  184.7840  176.6900  136.8360 C   0  0  0  0  0  2  0  0  0  0  0  0
  182.5940  175.6500  137.1940 N   0  0  0  0  0  2  0  0  0  0  0  0
  182.0340  176.5700  138.1760 C   0  0  0  0  0  2  0  0  0  0  0  0
  184.0040  177.9100  138.9300 C   0  0  0  0  0  0  0  0  0  0  0  0
  183.3930  176.4180  136.2490 C   0  0  0  0  0  2  0  0  0  0  0  0
  184.7740  177.8510  137.8220 C   0  0  0  0  0  3  0  0  0  0  0  0
  1  8  2  0  0  0  0
  2 14  2  0  0  0  0
  3  4  1  1  0  0  0
  3 15  1  0  0  0  0
  6 16  1  0  0  0  0
  7  8  1  0  0  0  0
  7  3  1  0  0  0  0
  8  2  1  0  0  0  0
  9 14  1  0  0  0  0
 10  4  1  0  0  0  0
 10 12  2  0  0  0  0
 11 13  2  0  0  0  0
 12 17  1  0  0  0  0
 13 16  1  0  0  0  0
 14 18  1  0  0  0  0
 15  9  1  1  0  0  0
 15  5  1  0  0  0  0
 17  5  2  0  0  0  0
 17 20  1  0  0  0  0
 18 11  1  0  0  0  0
 18  6  2  0  0  0  0
 19 23  1  0  0  0  0
 19 21  2  0  0  0  0
 20 19  1  0  0  0  0
 22 24  1  0  0  0  0
 22 23  2  0  0  0  0
 25 30  1  6  0  0  0
 25 28  1  0  0  0  0
 26 28  1  0  0  0  0
 27 25  1  0  0  0  0
 28 24  1  1  0  0  0
 29 27  1  0  0  0  0
 29 26  1  0  0  0  0
 31 12  1  0  0  0  0
 32 31  1  0  0  0  0
 34 39  1  0  0  0  0
 35 36  1  0  0  0  0
 36 33  1  0  0  0  0
 37 33  1  0  0  0  0
 37 32  1  0  0  0  0
 38 34  1  0  0  0  0
 38 35  1  0  0  0  0
 39 37  2  0  0  0  0
M  END
>  <MODEL>
5

>  <REMARK>
 VINA RESULT:      -8.7      2.380      6.811
  Name = 
  7 active torsions:
  status: ('A' for Active; 'I' for Inactive)
    1  A    between atoms: C_11  and  C_23
    2  A    between atoms: C_11  and  C_35
    3  A    between atoms: C_12  and  C_28
    4  A    between atoms: C_12  and  C_30
    5  A    between atoms: C_17  and  C_37
    6  A    between atoms: N_18  and  C_32
    7  A    between atoms: C_22  and  C_35
                            x       y       z     vdW  Elec       q    Type
                         _______ _______ _______ _____ _____    ______ ____

>  <TORSDO>
F 7

$$$$
=
 OpenBabel10222420463D

 39 43  0  0  1  0  0  0  0  0999 V2000
  192.3730  176.7680  139.4160 O   0  0  0  0  0  0  0  0  0  0  0  0
  190.1790  176.9640  138.6830 N   0  0  0  0  0  2  0  0  0  0  0  0
  189.4950  177.1150  141.6460 C   0  0  1  0  0  3  0  0  0  0  0  0
  189.1190  175.9560  142.5010 C   0  0  0  0  0  2  0  0  0  0  0  0
  187.1640  177.9910  141.6430 C   0  0  0  0  0  3  0  0  0  0  0  0
  186.6870  178.1940  137.8760 C   0  0  0  0  0  3  0  0  0  0  0  0
  190.8250  177.1000  141.1150 N   0  0  0  0  0  2  0  0  0  0  0  0
  191.1720  176.9610  139.7220 C   0  0  0  0  0  0  0  0  0  0  0  0
  188.8170  178.7070  139.8990 C   0  0  0  0  0  2  0  0  0  0  0  0
  188.5680  176.3720  143.8230 C   0  0  0  0  0  3  0  0  0  0  0  0
  187.9060  176.4710  136.8930 C   0  0  0  0  0  3  0  0  0  0  0  0
  187.4700  177.1170  143.9830 C   0  0  0  0  0  0  0  0  0  0  0  0
  186.7450  176.5150  136.3320 N   0  0  0  0  0  0  0  0  0  0  0  0
  188.9700  177.7220  138.7760 C   0  0  0  0  0  0  0  0  0  0  0  0
  188.5510  177.9330  141.1490 C   0  0  2  0  0  3  0  0  0  0  0  0
  185.9900  177.5740  136.9320 C   0  0  0  0  0  3  0  0  0  0  0  0
  186.6640  177.6520  142.8430 C   0  0  0  0  0  0  0  0  0  0  0  0
  187.9700  177.5060  137.9160 C   0  0  0  0  0  0  0  0  0  0  0  0
  184.5650  178.7560  142.0960 C   0  0  0  0  0  0  0  0  0  0  0  0
  185.2850  177.9710  143.0490 N   0  0  0  0  0  2  0  0  0  0  0  0
  185.1160  179.7530  141.5430 O   0  0  0  0  0  0  0  0  0  0  0  0
  182.9980  177.9070  140.4530 C   0  0  0  0  0  3  0  0  0  0  0  0
  183.2170  178.3470  141.6920 C   0  0  0  0  0  3  0  0  0  0  0  0
  181.6830  177.3140  140.0310 C   0  0  0  0  0  2  0  0  0  0  0  0
  180.7010  175.5260  138.4970 C   0  0  1  0  0  3  0  0  0  0  0  0
  183.0540  175.8890  138.5230 N   0  0  0  0  0  2  0  0  0  0  0  0
  181.3170  174.5900  137.4920 C   0  0  0  0  0  2  0  0  0  0  0  0
  181.8720  175.9440  139.3700 C   0  0  1  0  0  3  0  0  0  0  0  0
  182.8150  174.7320  137.6700 C   0  0  0  0  0  2  0  0  0  0  0  0
  180.1580  176.6180  137.8170 O   0  0  0  0  0  1  0  0  0  0  0  0
  186.8950  177.2090  145.3650 C   0  0  0  0  0  2  0  0  0  0  0  0
  187.5670  178.2650  146.2590 C   0  0  0  0  0  2  0  0  0  0  0  0
  189.6620  177.5030  147.6190 C   0  0  0  0  0  2  0  0  0  0  0  0
  191.3160  178.1610  145.2000 C   0  0  0  0  0  2  0  0  0  0  0  0
  191.7470  176.4660  146.9170 N   0  0  0  0  0  2  0  0  0  0  0  0
  190.3820  176.1850  147.3430 C   0  0  0  0  0  2  0  0  0  0  0  0
  189.0510  178.0550  146.3570 C   0  0  0  0  0  0  0  0  0  0  0  0
  191.7380  176.7130  145.4820 C   0  0  0  0  0  2  0  0  0  0  0  0
  189.8060  178.3440  145.2760 C   0  0  0  0  0  3  0  0  0  0  0  0
  1  8  2  0  0  0  0
  2 14  1  0  0  0  0
  2  8  1  0  0  0  0
  3  4  1  6  0  0  0
  4 10  1  0  0  0  0
  5 17  2  0  0  0  0
  6 18  1  0  0  0  0
  7  3  1  0  0  0  0
  8  7  1  0  0  0  0
 10 12  2  0  0  0  0
 11 18  1  0  0  0  0
 12 31  1  0  0  0  0
 13 11  2  0  0  0  0
 13 16  1  0  0  0  0
 14  9  1  0  0  0  0
 15  9  1  6  0  0  0
 15  5  1  0  0  0  0
 15  3  1  0  0  0  0
 16  6  2  0  0  0  0
 17 20  1  0  0  0  0
 17 12  1  0  0  0  0
 18 14  2  0  0  0  0
 19 20  1  0  0  0  0
 21 19  2  0  0  0  0
 22 23  2  0  0  0  0
 23 19  1  0  0  0  0
 24 22  1  0  0  0  0
 25 30  1  6  0  0  0
 25 28  1  0  0  0  0
 26 28  1  0  0  0  0
 27 29  1  0  0  0  0
 27 25  1  0  0  0  0
 28 24  1  6  0  0  0
 29 26  1  0  0  0  0
 31 32  1  0  0  0  0
 32 37  1  0  0  0  0
 34 39  1  0  0  0  0
 34 38  1  0  0  0  0
 35 36  1  0  0  0  0
 36 33  1  0  0  0  0
 37 33  1  0  0  0  0
 38 35  1  0  0  0  0
 39 37  2  0  0  0  0
M  END
>  <MODEL>
6

>  <REMARK>
 VINA RESULT:      -8.4      2.304      3.487
  Name = 
  7 active torsions:
  status: ('A' for Active; 'I' for Inactive)
    1  A    between atoms: C_11  and  C_23
    2  A    between atoms: C_11  and  C_35
    3  A    between atoms: C_12  and  C_28
    4  A    between atoms: C_12  and  C_30
    5  A    between atoms: C_17  and  C_37
    6  A    between atoms: N_18  and  C_32
    7  A    between atoms: C_22  and  C_35
                            x       y       z     vdW  Elec       q    Type
                         _______ _______ _______ _____ _____    ______ ____

>  <TORSDO>
F 7

$$$$
=
 OpenBabel10222420463D

 39 43  0  0  1  0  0  0  0  0999 V2000
  179.2630  178.2970  143.8900 O   0  0  0  0  0  0  0  0  0  0  0  0
  180.1330  179.3070  141.9910 N   0  0  0  0  0  2  0  0  0  0  0  0
  182.8400  178.6120  143.2000 C   0  0  1  0  0  3  0  0  0  0  0  0
  183.6500  179.5120  144.0660 C   0  0  0  0  0  2  0  0  0  0  0  0
  184.4030  178.8920  141.2820 C   0  0  0  0  0  3  0  0  0  0  0  0
  181.8590  180.0320  138.6960 C   0  0  0  0  0  3  0  0  0  0  0  0
  181.5770  178.1970  143.7320 N   0  0  0  0  0  2  0  0  0  0  0  0
  180.2830  178.5700  143.2150 C   0  0  0  0  0  0  0  0  0  0  0  0
  182.0610  178.0680  140.9320 C   0  0  0  0  0  2  0  0  0  0  0  0
  185.0410  179.0140  144.2690 C   0  0  0  0  0  3  0  0  0  0  0  0
  180.2020  181.2470  139.7890 C   0  0  0  0  0  3  0  0  0  0  0  0
  185.9240  178.8160  143.2850 C   0  0  0  0  0  0  0  0  0  0  0  0
  180.5270  181.8840  138.7150 N   0  0  0  0  0  0  0  0  0  0  0  0
  181.0380  179.1670  140.8920 C   0  0  0  0  0  0  0  0  0  0  0  0
  183.1290  178.4770  141.8940 C   0  0  2  0  0  3  0  0  0  0  0  0
  181.5460  181.1400  138.0370 C   0  0  0  0  0  3  0  0  0  0  0  0
  185.6150  179.0480  141.8410 C   0  0  0  0  0  0  0  0  0  0  0  0
  181.0130  180.0410  139.8810 C   0  0  0  0  0  0  0  0  0  0  0  0
  187.4870  178.2650  140.4050 C   0  0  0  0  0  0  0  0  0  0  0  0
  186.6840  179.3230  140.9310 N   0  0  0  0  0  2  0  0  0  0  0  0
  187.8470  177.3060  141.1490 O   0  0  0  0  0  0  0  0  0  0  0  0
  186.8960  177.8710  138.0870 C   0  0  0  0  0  3  0  0  0  0  0  0
  187.8150  178.2460  138.9770 C   0  0  0  0  0  3  0  0  0  0  0  0
  187.1130  177.9940  136.6050 C   0  0  0  0  0  2  0  0  0  0  0  0
  188.0360  175.9080  135.4620 C   0  0  1  0  0  3  0  0  0  0  0  0
  186.0030  175.7710  136.6920 N   0  0  0  0  0  2  0  0  0  0  0  0
  187.5700  174.4780  135.4100 C   0  0  0  0  0  2  0  0  0  0  0  0
  186.7980  176.6810  135.8810 C   0  0  1  0  0  3  0  0  0  0  0  0
  186.1960  174.4770  136.0510 C   0  0  0  0  0  2  0  0  0  0  0  0
  189.0500  176.0140  136.4180 O   0  0  0  0  0  1  0  0  0  0  0  0
  187.3530  178.5860  143.6780 C   0  0  0  0  0  2  0  0  0  0  0  0
  187.5430  177.5230  144.7740 C   0  0  0  0  0  2  0  0  0  0  0  0
  189.0640  177.8780  146.8670 C   0  0  0  0  0  2  0  0  0  0  0  0
  191.4260  177.3800  145.0800 C   0  0  0  0  0  2  0  0  0  0  0  0
  191.2140  176.9170  147.4770 N   0  0  0  0  0  2  0  0  0  0  0  0
  189.7720  176.7220  147.5710 C   0  0  0  0  0  2  0  0  0  0  0  0
  188.9100  177.5960  145.3950 C   0  0  0  0  0  0  0  0  0  0  0  0
  191.6690  176.3690  146.2070 C   0  0  0  0  0  2  0  0  0  0  0  0
  189.9790  177.3710  144.6030 C   0  0  0  0  0  3  0  0  0  0  0  0
  2  8  1  0  0  0  0
  3  7  1  0  0  0  0
  3  4  1  6  0  0  0
  4 10  1  0  0  0  0
  5 17  2  0  0  0  0
  5 15  1  0  0  0  0
  6 18  1  0  0  0  0
  8  7  1  0  0  0  0
  8  1  2  0  0  0  0
 11 18  1  0  0  0  0
 12 31  1  0  0  0  0
 12 10  2  0  0  0  0
 13 11  2  0  0  0  0
 14  9  1  0  0  0  0
 14  2  1  0  0  0  0
 15  9  1  6  0  0  0
 15  3  1  0  0  0  0
 16  6  2  0  0  0  0
 16 13  1  0  0  0  0
 17 12  1  0  0  0  0
 18 14  2  0  0  0  0
 19 20  1  0  0  0  0
 19 21  2  0  0  0  0
 20 17  1  0  0  0  0
 22 23  2  0  0  0  0
 23 19  1  0  0  0  0
 24 22  1  0  0  0  0
 25 28  1  0  0  0  0
 25 30  1  1  0  0  0
 27 25  1  0  0  0  0
 27 29  1  0  0  0  0
 28 24  1  1  0  0  0
 28 26  1  0  0  0  0
 29 26  1  0  0  0  0
 31 32  1  0  0  0  0
 32 37  1  0  0  0  0
 33 36  1  0  0  0  0
 34 38  1  0  0  0  0
 35 36  1  0  0  0  0
 37 33  1  0  0  0  0
 38 35  1  0  0  0  0
 39 34  1  0  0  0  0
 39 37  2  0  0  0  0
M  END
>  <MODEL>
7

>  <REMARK>
 VINA RESULT:      -8.4      2.004      7.368
  Name = 
  7 active torsions:
  status: ('A' for Active; 'I' for Inactive)
    1  A    between atoms: C_11  and  C_23
    2  A    between atoms: C_11  and  C_35
    3  A    between atoms: C_12  and  C_28
    4  A    between atoms: C_12  and  C_30
    5  A    between atoms: C_17  and  C_37
    6  A    between atoms: N_18  and  C_32
    7  A    between atoms: C_22  and  C_35
                            x       y       z     vdW  Elec       q    Type
                         _______ _______ _______ _____ _____    ______ ____

>  <TORSDO>
F 7

$$$$
=
 OpenBabel10222420463D

 39 43  0  0  1  0  0  0  0  0999 V2000
  192.3990  176.6810  138.7580 O   0  0  0  0  0  0  0  0  0  0  0  0
  190.2180  176.6710  137.9620 N   0  0  0  0  0  2  0  0  0  0  0  0
  189.4840  177.5830  140.7740 C   0  0  1  0  0  3  0  0  0  0  0  0
  189.0930  176.6850  141.8940 C   0  0  0  0  0  2  0  0  0  0  0  0
  187.1530  178.4190  140.5050 C   0  0  0  0  0  3  0  0  0  0  0  0
  186.7400  177.6340  136.8060 C   0  0  0  0  0  3  0  0  0  0  0  0
  190.8220  177.4370  140.2860 N   0  0  0  0  0  2  0  0  0  0  0  0
  191.1930  176.9420  138.9830 C   0  0  0  0  0  0  0  0  0  0  0  0
  188.8360  178.6650  138.6620 C   0  0  0  0  0  2  0  0  0  0  0  0
  188.5190  177.4270  143.0530 C   0  0  0  0  0  3  0  0  0  0  0  0
  187.9760  175.7210  136.3250 C   0  0  0  0  0  3  0  0  0  0  0  0
  187.4190  178.1840  142.9950 C   0  0  0  0  0  0  0  0  0  0  0  0
  186.8240  175.6130  135.7520 N   0  0  0  0  0  0  0  0  0  0  0  0
  189.0080  177.4220  137.8360 C   0  0  0  0  0  0  0  0  0  0  0  0
  188.5480  178.2400  140.0660 C   0  0  2  0  0  3  0  0  0  0  0  0
  186.0600  176.7880  136.0440 C   0  0  0  0  0  3  0  0  0  0  0  0
  186.6320  178.4010  141.7430 C   0  0  0  0  0  0  0  0  0  0  0  0
  188.0220  176.9860  137.0440 C   0  0  0  0  0  0  0  0  0  0  0  0
  184.4770  179.0020  140.6600 C   0  0  0  0  0  0  0  0  0  0  0  0
  185.2500  178.7560  141.8360 N   0  0  0  0  0  2  0  0  0  0  0  0
  184.9770  179.6400  139.6870 O   0  0  0  0  0  0  0  0  0  0  0  0
  182.2280  178.6590  141.4990 C   0  0  0  0  0  3  0  0  0  0  0  0
  183.1320  178.4310  140.5460 C   0  0  0  0  0  3  0  0  0  0  0  0
  180.7890  178.2480  141.3580 C   0  0  0  0  0  2  0  0  0  0  0  0
  179.9480  176.0850  140.2980 C   0  0  1  0  0  3  0  0  0  0  0  0
  179.6680  178.1460  139.1410 N   0  0  0  0  0  2  0  0  0  0  0  0
  179.2220  175.7890  139.0130 C   0  0  0  0  0  2  0  0  0  0  0  0
  180.5550  177.4580  140.0670 C   0  0  1  0  0  3  0  0  0  0  0  0
  179.2240  177.0920  138.2380 C   0  0  0  0  0  2  0  0  0  0  0  0
  179.0200  176.1080  141.3420 O   0  0  0  0  0  1  0  0  0  0  0  0
  186.8200  178.6280  144.2960 C   0  0  0  0  0  2  0  0  0  0  0  0
  186.4640  177.4770  145.2530 C   0  0  0  0  0  2  0  0  0  0  0  0
  188.7820  176.7450  146.2080 C   0  0  0  0  0  2  0  0  0  0  0  0
  187.9320  177.9230  148.8360 C   0  0  0  0  0  2  0  0  0  0  0  0
  190.1980  177.7240  147.9260 N   0  0  0  0  0  2  0  0  0  0  0  0
  189.9010  177.7430  146.4990 C   0  0  0  0  0  2  0  0  0  0  0  0
  187.4310  177.3810  146.4000 C   0  0  0  0  0  0  0  0  0  0  0  0
  189.2740  178.6260  148.5990 C   0  0  0  0  0  2  0  0  0  0  0  0
  187.0610  177.9100  147.5860 C   0  0  0  0  0  3  0  0  0  0  0  0
  1  8  2  0  0  0  0
  2  8  1  0  0  0  0
  3  4  1  6  0  0  0
  4 10  1  0  0  0  0
  5 17  2  0  0  0  0
  6 18  1  0  0  0  0
  7  3  1  0  0  0  0
  8  7  1  0  0  0  0
 11 18  1  0  0  0  0
 12 10  2  0  0  0  0
 12 31  1  0  0  0  0
 13 16  1  0  0  0  0
 13 11  2  0  0  0  0
 14  2  1  0  0  0  0
 14  9  1  0  0  0  0
 15  9  1  6  0  0  0
 15  5  1  0  0  0  0
 15  3  1  0  0  0  0
 16  6  2  0  0  0  0
 17 20  1  0  0  0  0
 17 12  1  0  0  0  0
 18 14  2  0  0  0  0
 19 20  1  0  0  0  0
 21 19  2  0  0  0  0
 23 19  1  0  0  0  0
 23 22  2  0  0  0  0
 24 22  1  0  0  0  0
 25 30  1  1  0  0  0
 26 28  1  0  0  0  0
 27 25  1  0  0  0  0
 28 25  1  0  0  0  0
 28 24  1  1  0  0  0
 29 27  1  0  0  0  0
 29 26  1  0  0  0  0
 31 32  1  0  0  0  0
 32 37  1  0  0  0  0
 33 37  1  0  0  0  0
 33 36  1  0  0  0  0
 35 38  1  0  0  0  0
 36 35  1  0  0  0  0
 37 39  2  0  0  0  0
 38 34  1  0  0  0  0
 39 34  1  0  0  0  0
M  END
>  <MODEL>
8

>  <REMARK>
 VINA RESULT:      -8.4      2.029      2.417
  Name = 
  7 active torsions:
  status: ('A' for Active; 'I' for Inactive)
    1  A    between atoms: C_11  and  C_23
    2  A    between atoms: C_11  and  C_35
    3  A    between atoms: C_12  and  C_28
    4  A    between atoms: C_12  and  C_30
    5  A    between atoms: C_17  and  C_37
    6  A    between atoms: N_18  and  C_32
    7  A    between atoms: C_22  and  C_35
                            x       y       z     vdW  Elec       q    Type
                         _______ _______ _______ _____ _____    ______ ____

>  <TORSDO>
F 7

$$$$
=
 OpenBabel10222420463D

 39 43  0  0  1  0  0  0  0  0999 V2000
  191.4770  175.8800  143.6070 O   0  0  0  0  0  0  0  0  0  0  0  0
  190.6990  176.2680  141.4550 N   0  0  0  0  0  2  0  0  0  0  0  0
  188.3310  177.5810  142.8470 C   0  0  1  0  0  3  0  0  0  0  0  0
  187.0550  176.9000  143.2000 C   0  0  0  0  0  2  0  0  0  0  0  0
  187.2450  178.8730  141.0160 C   0  0  0  0  0  3  0  0  0  0  0  0
  189.5820  177.8480  138.1960 C   0  0  0  0  0  3  0  0  0  0  0  0
  189.5050  177.1020  143.5110 N   0  0  0  0  0  2  0  0  0  0  0  0
  190.6070  176.4170  142.8810 C   0  0  0  0  0  0  0  0  0  0  0  0
  189.7330  178.5710  141.0860 C   0  0  0  0  0  2  0  0  0  0  0  0
  185.9870  177.8560  143.6090 C   0  0  0  0  0  3  0  0  0  0  0  0
  190.3100  175.6750  138.6060 C   0  0  0  0  0  3  0  0  0  0  0  0
  185.5000  178.8250  142.8270 C   0  0  0  0  0  0  0  0  0  0  0  0
  189.9910  175.7660  137.3590 N   0  0  0  0  0  0  0  0  0  0  0  0
  190.1930  177.2480  140.5450 C   0  0  0  0  0  0  0  0  0  0  0  0
  188.4120  178.3550  141.7510 C   0  0  2  0  0  3  0  0  0  0  0  0
  189.5430  177.1010  137.1010 C   0  0  0  0  0  3  0  0  0  0  0  0
  185.9870  179.0870  141.4390 C   0  0  0  0  0  0  0  0  0  0  0  0
  190.0720  176.9630  139.2440 C   0  0  0  0  0  0  0  0  0  0  0  0
  184.5420  179.0200  139.4170 C   0  0  0  0  0  0  0  0  0  0  0  0
  185.1250  179.7420  140.5040 N   0  0  0  0  0  2  0  0  0  0  0  0
  185.2220  178.1610  138.7830 O   0  0  0  0  0  0  0  0  0  0  0  0
  182.6760  180.4190  138.7550 C   0  0  0  0  0  3  0  0  0  0  0  0
  183.1240  179.2120  139.0990 C   0  0  0  0  0  3  0  0  0  0  0  0
  181.2770  180.6450  138.2530 C   0  0  0  0  0  2  0  0  0  0  0  0
  180.7640  182.3030  136.3820 C   0  0  1  0  0  3  0  0  0  0  0  0
  179.9400  182.7160  138.5780 N   0  0  0  0  0  2  0  0  0  0  0  0
  179.9610  183.5750  136.3350 C   0  0  0  0  0  2  0  0  0  0  0  0
  181.0520  182.1090  137.8610 C   0  0  1  0  0  3  0  0  0  0  0  0
  179.6100  183.8870  137.7760 C   0  0  0  0  0  2  0  0  0  0  0  0
  179.9830  181.2620  135.8750 O   0  0  0  0  0  1  0  0  0  0  0  0
  184.2460  179.5110  143.2810 C   0  0  0  0  0  2  0  0  0  0  0  0
  183.2850  178.6090  144.0760 C   0  0  0  0  0  2  0  0  0  0  0  0
  180.6830  178.6660  144.2850 C   0  0  0  0  0  2  0  0  0  0  0  0
  180.5600  178.3510  141.3010 C   0  0  0  0  0  2  0  0  0  0  0  0
  178.9620  179.4850  142.7730 N   0  0  0  0  0  2  0  0  0  0  0  0
  179.8520  179.8750  143.8590 C   0  0  0  0  0  2  0  0  0  0  0  0
  181.9240  178.5430  143.4420 C   0  0  0  0  0  0  0  0  0  0  0  0
  179.6940  179.5980  141.5180 C   0  0  0  0  0  2  0  0  0  0  0  0
  181.8560  178.4050  142.1000 C   0  0  0  0  0  3  0  0  0  0  0  0
  2  8  1  0  0  0  0
  3  4  1  6  0  0  0
  3  7  1  0  0  0  0
  4 10  1  0  0  0  0
  5 17  2  0  0  0  0
  6 18  1  0  0  0  0
  8  7  1  0  0  0  0
  8  1  2  0  0  0  0
  9 15  1  0  0  0  0
 11 18  1  0  0  0  0
 12 31  1  0  0  0  0
 12 10  2  0  0  0  0
 13 11  2  0  0  0  0
 14  9  1  0  0  0  0
 14  2  1  0  0  0  0
 15  5  1  6  0  0  0
 15  3  1  0  0  0  0
 16 13  1  0  0  0  0
 16  6  2  0  0  0  0
 17 12  1  0  0  0  0
 18 14  2  0  0  0  0
 19 20  1  0  0  0  0
 20 17  1  0  0  0  0
 21 19  2  0  0  0  0
 22 23  2  0  0  0  0
 23 19  1  0  0  0  0
 24 22  1  0  0  0  0
 25 30  1  1  0  0  0
 25 28  1  0  0  0  0
 27 25  1  0  0  0  0
 27 29  1  0  0  0  0
 28 24  1  6  0  0  0
 28 26  1  0  0  0  0
 29 26  1  0  0  0  0
 31 32  1  0  0  0  0
 34 38  1  0  0  0  0
 34 39  1  0  0  0  0
 35 36  1  0  0  0  0
 36 33  1  0  0  0  0
 37 32  1  0  0  0  0
 37 33  1  0  0  0  0
 38 35  1  0  0  0  0
 39 37  2  0  0  0  0
M  END
>  <MODEL>
9

>  <REMARK>
 VINA RESULT:      -8.3      3.211      6.030
  Name = 
  7 active torsions:
  status: ('A' for Active; 'I' for Inactive)
    1  A    between atoms: C_11  and  C_23
    2  A    between atoms: C_11  and  C_35
    3  A    between atoms: C_12  and  C_28
    4  A    between atoms: C_12  and  C_30
    5  A    between atoms: C_17  and  C_37
    6  A    between atoms: N_18  and  C_32
    7  A    between atoms: C_22  and  C_35
                            x       y       z     vdW  Elec       q    Type
                         _______ _______ _______ _____ _____    ______ ____

>  <TORSDO>
F 7

$$$$
