=
 OpenBabel10222418253D

 26 29  0  0  1  0  0  0  0  0999 V2000
  190.6370  176.5040  143.5450 C   0  0  0  0  0  3  0  0  0  0  0  0
  188.3450  177.9250  146.3320 C   0  0  2  0  0  3  0  0  0  0  0  0
  185.8420  177.5740  143.3960 C   0  0  1  0  0  3  0  0  0  0  0  0
  191.7260  176.0620  144.2940 C   0  0  0  0  0  3  0  0  0  0  0  0
  191.7280  176.2210  145.6790 C   0  0  0  0  0  3  0  0  0  0  0  0
  189.5460  177.1170  144.1720 C   0  0  0  0  0  0  0  0  0  0  0  0
  187.1090  178.2700  143.3060 C   0  0  2  0  0  0  0  0  0  0  0  0
  190.6350  176.8100  146.3180 C   0  0  0  0  0  3  0  0  0  0  0  0
  188.4410  177.5490  143.3750 N   0  0  0  0  0  0  0  0  0  0  0  0
  186.9830  177.4360  145.9090 C   0  0  0  0  0  3  0  0  0  0  0  0
  186.6460  177.6560  144.6470 C   0  0  0  0  0  0  0  0  0  0  0  0
  189.5150  177.2480  145.5920 C   0  0  0  0  0  0  0  0  0  0  0  0
  187.6040  177.6110  142.1810 C   0  0  2  0  0  3  0  0  0  0  0  0
  188.4560  177.8860  147.8280 C   0  0  0  0  0  0  0  0  0  0  0  0
  189.1000  178.7730  148.4480 O   0  0  0  0  0  0  0  0  0  0  0  0
  187.7980  176.8530  148.5510 N   0  0  0  0  0  1  0  0  0  0  0  0
  184.2460  178.9920  144.8550 C   0  0  0  0  0  1  0  0  0  0  0  0
  183.8900  178.8090  142.4970 N   0  0  0  0  0  0  0  0  0  0  0  0
  184.6550  178.5040  143.5060 C   0  0  0  0  0  0  0  0  0  0  0  0
  184.7160  179.1880  140.3130 C   0  0  0  0  0  2  0  0  0  0  0  0
  184.0800  178.3760  141.1470 C   0  0  0  0  0  0  0  0  0  0  0  0
  183.1220  177.4000  140.5480 C   0  0  0  0  0  2  0  0  0  0  0  0
  180.6100  178.3140  140.6370 C   0  0  0  0  0  3  0  0  0  0  0  0
  181.7420  177.8980  140.5980 C   0  0  0  0  0  0  0  0  0  0  0  0
  188.2250  178.5970  141.2110 C   0  0  0  0  0  2  0  0  0  0  0  0
  188.1100  178.1120  139.9090 O   0  0  0  0  0  1  0  0  0  0  0  0
  1  6  2  0  0  0  0
  1  4  1  0  0  0  0
  2 14  1  1  0  0  0
  3 19  1  1  0  0  0
  3 11  1  0  0  0  0
  4  5  2  0  0  0  0
  5  8  1  0  0  0  0
  6 12  1  0  0  0  0
  7  9  1  0  0  0  0
  7  3  1  0  0  0  0
  7 11  1  1  0  0  0
  9  6  1  0  0  0  0
 10  2  1  0  0  0  0
 11 10  2  0  0  0  0
 12  8  2  0  0  0  0
 12  2  1  0  0  0  0
 13 25  1  6  0  0  0
 13  7  1  0  0  0  0
 13  9  1  0  0  0  0
 14 15  2  0  0  0  0
 14 16  1  0  0  0  0
 18 19  2  0  0  0  0
 19 17  1  0  0  0  0
 20 21  2  0  0  0  0
 21 18  1  0  0  0  0
 22 24  1  0  0  0  0
 22 21  1  0  0  0  0
 24 23  3  0  0  0  0
 26 25  1  0  0  0  0
M  END
>  <MODEL>
1

>  <REMARK>
 VINA RESULT:      -8.1      0.000      0.000
  Name = 
  6 active torsions:
  status: ('A' for Active; 'I' for Inactive)
    1  A    between atoms: C_1  and  C_8
    2  A    between atoms: N_4  and  C_25
    3  A    between atoms: C_9  and  C_20
    4  A    between atoms: C_11  and  C_23
    5  A    between atoms: C_14  and  C_26
    6  A    between atoms: C_25  and  C_26
                            x       y       z     vdW  Elec       q    Type
                         _______ _______ _______ _____ _____    ______ ____

>  <TORSDO>
F 6

$$$$
=
 OpenBabel10222418253D

 26 29  0  0  1  0  0  0  0  0999 V2000
  189.5970  177.2220  146.7630 C   0  0  0  0  0  3  0  0  0  0  0  0
  186.5950  178.4520  144.6390 C   0  0  2  0  0  3  0  0  0  0  0  0
  188.9670  177.0990  141.8910 C   0  0  1  0  0  3  0  0  0  0  0  0
  189.0200  177.1620  148.0320 C   0  0  0  0  0  3  0  0  0  0  0  0
  187.6830  177.5170  148.2050 C   0  0  0  0  0  3  0  0  0  0  0  0
  188.8460  177.6440  145.6610 C   0  0  0  0  0  0  0  0  0  0  0  0
  189.3600  178.0540  142.9070 C   0  0  2  0  0  0  0  0  0  0  0  0
  186.9170  177.9180  147.1090 C   0  0  0  0  0  3  0  0  0  0  0  0
  189.4650  177.6840  144.3730 N   0  0  0  0  0  0  0  0  0  0  0  0
  186.7070  177.6000  143.4000 C   0  0  0  0  0  3  0  0  0  0  0  0
  187.9010  177.5490  142.8280 C   0  0  0  0  0  0  0  0  0  0  0  0
  187.4650  177.9700  145.8150 C   0  0  0  0  0  0  0  0  0  0  0  0
  190.4840  177.3730  143.3760 C   0  0  2  0  0  3  0  0  0  0  0  0
  185.1500  178.6580  144.9840 C   0  0  0  0  0  0  0  0  0  0  0  0
  184.8190  179.1770  146.0820 O   0  0  0  0  0  0  0  0  0  0  0  0
  184.1470  178.2910  144.0440 N   0  0  0  0  0  1  0  0  0  0  0  0
  187.4640  178.4730  140.2960 C   0  0  0  0  0  1  0  0  0  0  0  0
  189.5330  177.5560  139.5210 N   0  0  0  0  0  0  0  0  0  0  0  0
  188.7360  177.7300  140.5360 C   0  0  0  0  0  0  0  0  0  0  0  0
  191.8330  177.3960  140.0520 C   0  0  0  0  0  2  0  0  0  0  0  0
  190.7560  176.8150  139.5400 C   0  0  0  0  0  0  0  0  0  0  0  0
  190.9800  175.7420  138.5260 C   0  0  0  0  0  2  0  0  0  0  0  0
  193.1640  176.2250  137.0600 C   0  0  0  0  0  3  0  0  0  0  0  0
  192.1790  176.0030  137.7210 C   0  0  0  0  0  0  0  0  0  0  0  0
  191.6480  178.3260  143.5660 C   0  0  0  0  0  2  0  0  0  0  0  0
  191.1700  179.5850  143.9260 O   0  0  0  0  0  1  0  0  0  0  0  0
  1  4  1  0  0  0  0
  2 14  1  1  0  0  0
  2 12  1  0  0  0  0
  3 19  1  6  0  0  0
  3 11  1  0  0  0  0
  3  7  1  0  0  0  0
  4  5  2  0  0  0  0
  6 12  1  0  0  0  0
  6  1  2  0  0  0  0
  7 11  1  6  0  0  0
  7 13  1  0  0  0  0
  7  9  1  0  0  0  0
  8  5  1  0  0  0  0
  9  6  1  0  0  0  0
 10  2  1  0  0  0  0
 11 10  2  0  0  0  0
 12  8  2  0  0  0  0
 13 25  1  1  0  0  0
 13  9  1  0  0  0  0
 14 15  2  0  0  0  0
 16 14  1  0  0  0  0
 17 19  1  0  0  0  0
 18 21  1  0  0  0  0
 18 19  2  0  0  0  0
 21 20  2  0  0  0  0
 22 21  1  0  0  0  0
 23 24  3  0  0  0  0
 24 22  1  0  0  0  0
 25 26  1  0  0  0  0
M  END
>  <MODEL>
2

>  <REMARK>
 VINA RESULT:      -7.7      2.930      5.619
  Name = 
  6 active torsions:
  status: ('A' for Active; 'I' for Inactive)
    1  A    between atoms: C_1  and  C_8
    2  A    between atoms: N_4  and  C_25
    3  A    between atoms: C_9  and  C_20
    4  A    between atoms: C_11  and  C_23
    5  A    between atoms: C_14  and  C_26
    6  A    between atoms: C_25  and  C_26
                            x       y       z     vdW  Elec       q    Type
                         _______ _______ _______ _____ _____    ______ ____

>  <TORSDO>
F 6

$$$$
=
 OpenBabel10222418253D

 26 29  0  0  1  0  0  0  0  0999 V2000
  191.7530  176.1320  145.1110 C   0  0  0  0  0  3  0  0  0  0  0  0
  188.3770  177.9530  145.6840 C   0  0  2  0  0  3  0  0  0  0  0  0
  188.2470  177.2930  141.8690 C   0  0  1  0  0  3  0  0  0  0  0  0
  192.0810  175.7610  146.4160 C   0  0  0  0  0  3  0  0  0  0  0  0
  191.2310  176.0960  147.4680 C   0  0  0  0  0  3  0  0  0  0  0  0
  190.5780  176.8460  144.8510 C   0  0  0  0  0  0  0  0  0  0  0  0
  189.3520  177.9410  142.5450 C   0  0  2  0  0  0  0  0  0  0  0  0
  190.0440  176.7890  147.2180 C   0  0  0  0  0  3  0  0  0  0  0  0
  190.2660  177.2010  143.5020 N   0  0  0  0  0  0  0  0  0  0  0  0
  187.5400  177.4480  144.5360 C   0  0  0  0  0  3  0  0  0  0  0  0
  188.0930  177.5140  143.3330 C   0  0  0  0  0  0  0  0  0  0  0  0
  189.6770  177.1590  145.9130 C   0  0  0  0  0  0  0  0  0  0  0  0
  190.3740  177.1310  142.0480 C   0  0  2  0  0  3  0  0  0  0  0  0
  187.5220  178.1020  146.9070 C   0  0  0  0  0  0  0  0  0  0  0  0
  188.0210  178.4870  147.9970 O   0  0  0  0  0  0  0  0  0  0  0  0
  186.1270  177.8360  146.8220 N   0  0  0  0  0  1  0  0  0  0  0  0
  186.2300  178.9120  141.8570 C   0  0  0  0  0  1  0  0  0  0  0  0
  187.4350  178.4620  139.8400 N   0  0  0  0  0  0  0  0  0  0  0  0
  187.3540  178.2590  141.1230 C   0  0  0  0  0  0  0  0  0  0  0  0
  189.3800  178.6330  138.5050 C   0  0  0  0  0  2  0  0  0  0  0  0
  188.3960  177.8700  138.9610 C   0  0  0  0  0  0  0  0  0  0  0  0
  188.0020  176.6960  138.1270 C   0  0  0  0  0  2  0  0  0  0  0  0
  185.8830  177.2520  136.5930 C   0  0  0  0  0  3  0  0  0  0  0  0
  186.8360  176.9980  137.2870 C   0  0  0  0  0  0  0  0  0  0  0  0
  191.5610  177.9690  141.6150 C   0  0  0  0  0  2  0  0  0  0  0  0
  192.0690  177.4790  140.4130 O   0  0  0  0  0  1  0  0  0  0  0  0
  1  4  1  0  0  0  0
  2 12  1  0  0  0  0
  2 14  1  1  0  0  0
  3 19  1  6  0  0  0
  3  7  1  0  0  0  0
  3 11  1  0  0  0  0
  4  5  2  0  0  0  0
  6  1  2  0  0  0  0
  6 12  1  0  0  0  0
  7 11  1  6  0  0  0
  7  9  1  0  0  0  0
  8  5  1  0  0  0  0
  9  6  1  0  0  0  0
 10  2  1  0  0  0  0
 11 10  2  0  0  0  0
 12  8  2  0  0  0  0
 13 25  1  1  0  0  0
 13  7  1  0  0  0  0
 13  9  1  0  0  0  0
 14 15  2  0  0  0  0
 16 14  1  0  0  0  0
 18 19  2  0  0  0  0
 19 17  1  0  0  0  0
 20 21  2  0  0  0  0
 21 18  1  0  0  0  0
 22 21  1  0  0  0  0
 23 24  3  0  0  0  0
 24 22  1  0  0  0  0
 26 25  1  0  0  0  0
M  END
>  <MODEL>
3

>  <REMARK>
 VINA RESULT:      -7.7      2.510      3.354
  Name = 
  6 active torsions:
  status: ('A' for Active; 'I' for Inactive)
    1  A    between atoms: C_1  and  C_8
    2  A    between atoms: N_4  and  C_25
    3  A    between atoms: C_9  and  C_20
    4  A    between atoms: C_11  and  C_23
    5  A    between atoms: C_14  and  C_26
    6  A    between atoms: C_25  and  C_26
                            x       y       z     vdW  Elec       q    Type
                         _______ _______ _______ _____ _____    ______ ____

>  <TORSDO>
F 6

$$$$
=
 OpenBabel10222418253D

 26 29  0  0  1  0  0  0  0  0999 V2000
  185.1800  178.7030  145.7020 C   0  0  0  0  0  3  0  0  0  0  0  0
  187.4830  177.3090  142.9100 C   0  0  2  0  0  3  0  0  0  0  0  0
  184.8950  179.3080  140.8330 C   0  0  1  0  0  3  0  0  0  0  0  0
  185.9870  178.5280  146.8260 C   0  0  0  0  0  3  0  0  0  0  0  0
  187.2550  177.9650  146.6910 C   0  0  0  0  0  3  0  0  0  0  0  0
  185.6310  178.3090  144.4370 C   0  0  0  0  0  0  0  0  0  0  0  0
  184.5470  178.3080  141.8210 C   0  0  2  0  0  0  0  0  0  0  0  0
  187.7240  177.5880  145.4310 C   0  0  0  0  0  3  0  0  0  0  0  0
  184.7830  178.5120  143.3040 N   0  0  0  0  0  0  0  0  0  0  0  0
  187.2840  178.3090  141.7990 C   0  0  0  0  0  3  0  0  0  0  0  0
  186.0290  178.6000  141.4900 C   0  0  0  0  0  0  0  0  0  0  0  0
  186.9420  177.7700  144.2770 C   0  0  0  0  0  0  0  0  0  0  0  0
  183.6600  179.0840  142.5670 C   0  0  2  0  0  3  0  0  0  0  0  0
  188.9130  176.8560  142.9330 C   0  0  0  0  0  0  0  0  0  0  0  0
  189.1990  175.6380  143.0790 O   0  0  0  0  0  0  0  0  0  0  0  0
  189.9520  177.8110  142.7560 N   0  0  0  0  0  1  0  0  0  0  0  0
  185.9510  178.2160  138.7400 C   0  0  0  0  0  1  0  0  0  0  0  0
  183.6900  178.9970  138.6900 N   0  0  0  0  0  0  0  0  0  0  0  0
  184.7600  178.8150  139.4090 C   0  0  0  0  0  0  0  0  0  0  0  0
  181.4710  178.8340  139.4930 C   0  0  0  0  0  2  0  0  0  0  0  0
  182.4810  179.6170  139.1350 C   0  0  0  0  0  0  0  0  0  0  0  0
  182.1410  180.9900  138.6570 C   0  0  0  0  0  2  0  0  0  0  0  0
  180.4440  180.9260  136.5900 C   0  0  0  0  0  3  0  0  0  0  0  0
  181.2110  180.9510  137.5220 C   0  0  0  0  0  0  0  0  0  0  0  0
  182.4110  178.2950  142.9070 C   0  0  0  0  0  2  0  0  0  0  0  0
  181.8970  178.7310  144.1280 O   0  0  0  0  0  1  0  0  0  0  0  0
  1  4  1  0  0  0  0
  2 14  1  1  0  0  0
  2 12  1  0  0  0  0
  3 19  1  6  0  0  0
  3 11  1  0  0  0  0
  3  7  1  0  0  0  0
  5  4  2  0  0  0  0
  6  1  2  0  0  0  0
  7 11  1  6  0  0  0
  7 13  1  0  0  0  0
  7  9  1  0  0  0  0
  8  5  1  0  0  0  0
  9  6  1  0  0  0  0
 10  2  1  0  0  0  0
 11 10  2  0  0  0  0
 12  6  1  0  0  0  0
 12  8  2  0  0  0  0
 13 25  1  1  0  0  0
 13  9  1  0  0  0  0
 14 15  2  0  0  0  0
 16 14  1  0  0  0  0
 17 19  1  0  0  0  0
 18 21  1  0  0  0  0
 18 19  2  0  0  0  0
 21 20  2  0  0  0  0
 22 21  1  0  0  0  0
 23 24  3  0  0  0  0
 24 22  1  0  0  0  0
 25 26  1  0  0  0  0
M  END
>  <MODEL>
4

>  <REMARK>
 VINA RESULT:      -7.2      2.655      4.745
  Name = 
  6 active torsions:
  status: ('A' for Active; 'I' for Inactive)
    1  A    between atoms: C_1  and  C_8
    2  A    between atoms: N_4  and  C_25
    3  A    between atoms: C_9  and  C_20
    4  A    between atoms: C_11  and  C_23
    5  A    between atoms: C_14  and  C_26
    6  A    between atoms: C_25  and  C_26
                            x       y       z     vdW  Elec       q    Type
                         _______ _______ _______ _____ _____    ______ ____

>  <TORSDO>
F 6

$$$$
=
 OpenBabel10222418253D

 26 29  0  0  1  0  0  0  0  0999 V2000
  182.9770  178.4550  144.7230 C   0  0  0  0  0  3  0  0  0  0  0  0
  185.6830  178.9650  141.9910 C   0  0  2  0  0  3  0  0  0  0  0  0
  187.7380  177.2390  144.7850 C   0  0  1  0  0  3  0  0  0  0  0  0
  181.8100  178.6260  143.9780 C   0  0  0  0  0  3  0  0  0  0  0  0
  181.8900  178.9050  142.6150 C   0  0  0  0  0  3  0  0  0  0  0  0
  184.2320  178.5720  144.1130 C   0  0  0  0  0  0  0  0  0  0  0  0
  186.9200  178.4170  144.9870 C   0  0  2  0  0  0  0  0  0  0  0  0
  183.1360  179.0010  141.9910 C   0  0  0  0  0  3  0  0  0  0  0  0
  185.4070  178.3810  144.9030 N   0  0  0  0  0  0  0  0  0  0  0  0
  186.6760  177.8770  142.3150 C   0  0  0  0  0  3  0  0  0  0  0  0
  187.0670  177.7970  143.5780 C   0  0  0  0  0  0  0  0  0  0  0  0
  184.3290  178.8160  142.7110 C   0  0  0  0  0  0  0  0  0  0  0  0
  186.1730  177.9420  146.0650 C   0  0  2  0  0  3  0  0  0  0  0  0
  185.5770  179.1280  140.5040 C   0  0  0  0  0  0  0  0  0  0  0  0
  184.6100  179.7530  139.9930 O   0  0  0  0  0  0  0  0  0  0  0  0
  186.5980  178.5980  139.6680 N   0  0  0  0  0  1  0  0  0  0  0  0
  189.8200  177.8870  143.3940 C   0  0  0  0  0  1  0  0  0  0  0  0
  190.0250  177.4030  145.7280 N   0  0  0  0  0  0  0  0  0  0  0  0
  189.2180  177.5440  144.7150 C   0  0  0  0  0  0  0  0  0  0  0  0
  189.3600  177.9630  147.9280 C   0  0  0  0  0  2  0  0  0  0  0  0
  189.6440  177.0100  147.0490 C   0  0  0  0  0  0  0  0  0  0  0  0
  190.1180  175.7030  147.5920 C   0  0  0  0  0  2  0  0  0  0  0  0
  192.7850  175.6280  147.7820 C   0  0  0  0  0  3  0  0  0  0  0  0
  191.5820  175.6600  147.6920 C   0  0  0  0  0  0  0  0  0  0  0  0
  186.0560  179.0000  147.1440 C   0  0  0  0  0  2  0  0  0  0  0  0
  185.6810  180.2150  146.5730 O   0  0  0  0  0  1  0  0  0  0  0  0
  2 14  1  6  0  0  0
  2 10  1  0  0  0  0
  2 12  1  0  0  0  0
  3 19  1  6  0  0  0
  3  7  1  0  0  0  0
  4  1  2  0  0  0  0
  5  4  1  0  0  0  0
  6  1  1  0  0  0  0
  6  9  1  0  0  0  0
  7 11  1  1  0  0  0
  7 13  1  0  0  0  0
  8  5  2  0  0  0  0
  8 12  1  0  0  0  0
  9  7  1  0  0  0  0
  9 13  1  0  0  0  0
 10 11  2  0  0  0  0
 11  3  1  0  0  0  0
 12  6  2  0  0  0  0
 13 25  1  1  0  0  0
 15 14  2  0  0  0  0
 16 14  1  0  0  0  0
 17 19  1  0  0  0  0
 18 21  1  0  0  0  0
 19 18  2  0  0  0  0
 21 22  1  0  0  0  0
 21 20  2  0  0  0  0
 22 24  1  0  0  0  0
 24 23  3  0  0  0  0
 26 25  1  0  0  0  0
M  END
>  <MODEL>
5

>  <REMARK>
 VINA RESULT:      -7.0      2.076      7.747
  Name = 
  6 active torsions:
  status: ('A' for Active; 'I' for Inactive)
    1  A    between atoms: C_1  and  C_8
    2  A    between atoms: N_4  and  C_25
    3  A    between atoms: C_9  and  C_20
    4  A    between atoms: C_11  and  C_23
    5  A    between atoms: C_14  and  C_26
    6  A    between atoms: C_25  and  C_26
                            x       y       z     vdW  Elec       q    Type
                         _______ _______ _______ _____ _____    ______ ____

>  <TORSDO>
F 6

$$$$
=
 OpenBabel10222418253D

 26 29  0  0  1  0  0  0  0  0999 V2000
  188.7550  177.5000  140.2400 C   0  0  0  0  0  3  0  0  0  0  0  0
  190.0510  177.9360  143.8690 C   0  0  2  0  0  3  0  0  0  0  0  0
  186.2460  177.5170  144.4660 C   0  0  1  0  0  3  0  0  0  0  0  0
  189.9380  177.1920  139.5690 C   0  0  0  0  0  3  0  0  0  0  0  0
  191.1400  177.1280  140.2720 C   0  0  0  0  0  3  0  0  0  0  0  0
  188.7650  177.7560  141.6160 C   0  0  0  0  0  0  0  0  0  0  0  0
  186.8240  178.4770  143.5480 C   0  0  2  0  0  0  0  0  0  0  0  0
  191.1590  177.3590  141.6490 C   0  0  0  0  0  3  0  0  0  0  0  0
  187.5330  178.0590  142.2750 N   0  0  0  0  0  0  0  0  0  0  0  0
  188.9860  177.2370  144.6770 C   0  0  0  0  0  3  0  0  0  0  0  0
  187.7330  177.5740  144.4140 C   0  0  0  0  0  0  0  0  0  0  0  0
  189.9800  177.6540  142.3560 C   0  0  0  0  0  0  0  0  0  0  0  0
  186.0820  178.1250  142.4190 C   0  0  2  0  0  3  0  0  0  0  0  0
  191.3970  177.6880  144.4820 C   0  0  0  0  0  0  0  0  0  0  0  0
  192.2630  178.6020  144.5230 O   0  0  0  0  0  0  0  0  0  0  0  0
  191.6830  176.4160  145.0500 N   0  0  0  0  0  1  0  0  0  0  0  0
  186.4640  177.7790  147.0290 C   0  0  0  0  0  1  0  0  0  0  0  0
  184.7040  178.8830  145.8450 N   0  0  0  0  0  0  0  0  0  0  0  0
  185.7690  178.1400  145.7590 C   0  0  0  0  0  0  0  0  0  0  0  0
  184.0010  180.5030  144.2710 C   0  0  0  0  0  2  0  0  0  0  0  0
  183.8700  179.2740  144.7500 C   0  0  0  0  0  0  0  0  0  0  0  0
  182.5470  178.6070  144.5610 C   0  0  0  0  0  2  0  0  0  0  0  0
  181.7100  178.7810  142.0270 C   0  0  0  0  0  3  0  0  0  0  0  0
  182.0910  178.6990  143.1690 C   0  0  0  0  0  0  0  0  0  0  0  0
  185.5840  179.3610  141.6980 C   0  0  0  0  0  2  0  0  0  0  0  0
  185.6750  179.1710  140.3200 O   0  0  0  0  0  1  0  0  0  0  0  0
  1  6  1  0  0  0  0
  2 14  1  1  0  0  0
  2 10  1  0  0  0  0
  3 19  1  1  0  0  0
  4  1  2  0  0  0  0
  4  5  1  0  0  0  0
  5  8  2  0  0  0  0
  6  9  1  0  0  0  0
  6 12  2  0  0  0  0
  7 11  1  1  0  0  0
  7  3  1  0  0  0  0
  8 12  1  0  0  0  0
  9 13  1  0  0  0  0
  9  7  1  0  0  0  0
 11  3  1  0  0  0  0
 11 10  2  0  0  0  0
 12  2  1  0  0  0  0
 13 25  1  6  0  0  0
 13  7  1  0  0  0  0
 14 15  2  0  0  0  0
 14 16  1  0  0  0  0
 19 18  2  0  0  0  0
 19 17  1  0  0  0  0
 20 21  2  0  0  0  0
 21 18  1  0  0  0  0
 22 21  1  0  0  0  0
 23 24  3  0  0  0  0
 24 22  1  0  0  0  0
 26 25  1  0  0  0  0
M  END
>  <MODEL>
6

>  <REMARK>
 VINA RESULT:      -7.0      2.157      3.472
  Name = 
  6 active torsions:
  status: ('A' for Active; 'I' for Inactive)
    1  A    between atoms: C_1  and  C_8
    2  A    between atoms: N_4  and  C_25
    3  A    between atoms: C_9  and  C_20
    4  A    between atoms: C_11  and  C_23
    5  A    between atoms: C_14  and  C_26
    6  A    between atoms: C_25  and  C_26
                            x       y       z     vdW  Elec       q    Type
                         _______ _______ _______ _____ _____    ______ ____

>  <TORSDO>
F 6

$$$$
=
 OpenBabel10222418253D

 26 29  0  0  1  0  0  0  0  0999 V2000
  189.0720  177.9070  140.4630 C   0  0  0  0  0  3  0  0  0  0  0  0
  185.2500  178.5300  140.2670 C   0  0  2  0  0  3  0  0  0  0  0  0
  185.8920  178.9320  144.0670 C   0  0  1  0  0  3  0  0  0  0  0  0
  189.4390  178.0720  139.1270 C   0  0  0  0  0  3  0  0  0  0  0  0
  188.4690  178.3760  138.1730 C   0  0  0  0  0  3  0  0  0  0  0  0
  187.7340  178.0360  140.8530 C   0  0  0  0  0  0  0  0  0  0  0  0
  186.3110  177.7850  143.2880 C   0  0  2  0  0  0  0  0  0  0  0  0
  187.1340  178.5290  138.5540 C   0  0  0  0  0  3  0  0  0  0  0  0
  187.3950  177.8700  142.2310 N   0  0  0  0  0  0  0  0  0  0  0  0
  184.9990  179.3770  141.4900 C   0  0  0  0  0  3  0  0  0  0  0  0
  185.5040  178.9270  142.6290 C   0  0  0  0  0  0  0  0  0  0  0  0
  186.7380  178.3880  139.8950 C   0  0  0  0  0  0  0  0  0  0  0  0
  187.6540  177.7840  143.6650 C   0  0  2  0  0  3  0  0  0  0  0  0
  184.3730  178.9930  139.1420 C   0  0  0  0  0  0  0  0  0  0  0  0
  184.1810  180.2220  138.9410 O   0  0  0  0  0  0  0  0  0  0  0  0
  183.7810  178.0330  138.2760 N   0  0  0  0  0  1  0  0  0  0  0  0
  183.3300  178.6320  144.2530 C   0  0  0  0  0  1  0  0  0  0  0  0
  184.7010  178.5820  146.2120 N   0  0  0  0  0  0  0  0  0  0  0  0
  184.6670  178.6640  144.9130 C   0  0  0  0  0  0  0  0  0  0  0  0
  186.3320  179.8670  147.3450 C   0  0  0  0  0  2  0  0  0  0  0  0
  185.8770  178.6640  147.0230 C   0  0  0  0  0  0  0  0  0  0  0  0
  186.8670  177.5470  146.9950 C   0  0  0  0  0  2  0  0  0  0  0  0
  189.0260  178.1150  148.4670 C   0  0  0  0  0  3  0  0  0  0  0  0
  188.0550  177.8590  147.7990 C   0  0  0  0  0  0  0  0  0  0  0  0
  188.1210  176.3780  143.9840 C   0  0  0  0  0  2  0  0  0  0  0  0
  189.4370  176.2100  143.5540 O   0  0  0  0  0  1  0  0  0  0  0  0
  1  6  1  0  0  0  0
  2 14  1  6  0  0  0
  2 10  1  0  0  0  0
  3 19  1  1  0  0  0
  4  1  2  0  0  0  0
  5  8  2  0  0  0  0
  5  4  1  0  0  0  0
  6  9  1  0  0  0  0
  7 11  1  1  0  0  0
  7 13  1  0  0  0  0
  7  3  1  0  0  0  0
  8 12  1  0  0  0  0
  9  7  1  0  0  0  0
  9 13  1  0  0  0  0
 10 11  2  0  0  0  0
 11  3  1  0  0  0  0
 12  2  1  0  0  0  0
 12  6  2  0  0  0  0
 13 25  1  6  0  0  0
 15 14  2  0  0  0  0
 16 14  1  0  0  0  0
 17 19  1  0  0  0  0
 18 21  1  0  0  0  0
 19 18  2  0  0  0  0
 21 20  2  0  0  0  0
 22 21  1  0  0  0  0
 22 24  1  0  0  0  0
 24 23  3  0  0  0  0
 26 25  1  0  0  0  0
M  END
>  <MODEL>
7

>  <REMARK>
 VINA RESULT:      -6.7      2.648      6.488
  Name = 
  6 active torsions:
  status: ('A' for Active; 'I' for Inactive)
    1  A    between atoms: C_1  and  C_8
    2  A    between atoms: N_4  and  C_25
    3  A    between atoms: C_9  and  C_20
    4  A    between atoms: C_11  and  C_23
    5  A    between atoms: C_14  and  C_26
    6  A    between atoms: C_25  and  C_26
                            x       y       z     vdW  Elec       q    Type
                         _______ _______ _______ _____ _____    ______ ____

>  <TORSDO>
F 6

$$$$
=
 OpenBabel10222418253D

 26 29  0  0  1  0  0  0  0  0999 V2000
  185.1900  178.2620  146.0510 C   0  0  0  0  0  3  0  0  0  0  0  0
  185.9620  178.5920  142.2650 C   0  0  2  0  0  3  0  0  0  0  0  0
  189.0210  176.5550  143.4910 C   0  0  1  0  0  3  0  0  0  0  0  0
  183.8320  178.5810  146.0760 C   0  0  0  0  0  3  0  0  0  0  0  0
  183.1720  178.9030  144.8910 C   0  0  0  0  0  3  0  0  0  0  0  0
  185.8990  178.2700  144.8450 C   0  0  0  0  0  0  0  0  0  0  0  0
  188.5850  177.8030  144.0820 C   0  0  2  0  0  0  0  0  0  0  0  0
  183.8640  178.8930  143.6780 C   0  0  0  0  0  3  0  0  0  0  0  0
  187.2870  177.9280  144.8540 N   0  0  0  0  0  0  0  0  0  0  0  0
  186.8440  177.3950  142.0110 C   0  0  0  0  0  3  0  0  0  0  0  0
  187.8590  177.2250  142.8460 C   0  0  0  0  0  0  0  0  0  0  0  0
  185.2280  178.5560  143.6190 C   0  0  0  0  0  0  0  0  0  0  0  0
  188.5160  177.3670  145.4060 C   0  0  2  0  0  3  0  0  0  0  0  0
  185.0680  178.8220  141.0830 C   0  0  0  0  0  0  0  0  0  0  0  0
  185.3050  179.7540  140.2700 O   0  0  0  0  0  0  0  0  0  0  0  0
  183.9600  177.9560  140.8650 N   0  0  0  0  0  1  0  0  0  0  0  0
  190.0430  177.1230  141.1840 C   0  0  0  0  0  1  0  0  0  0  0  0
  191.4390  176.3730  142.9760 N   0  0  0  0  0  0  0  0  0  0  0  0
  190.2370  176.7060  142.6030 C   0  0  0  0  0  0  0  0  0  0  0  0
  191.7330  174.5780  144.4880 C   0  0  0  0  0  2  0  0  0  0  0  0
  191.8060  175.8840  144.2690 C   0  0  0  0  0  0  0  0  0  0  0  0
  191.6810  176.7810  145.4560 C   0  0  0  0  0  2  0  0  0  0  0  0
  192.3560  175.5160  147.7130 C   0  0  0  0  0  3  0  0  0  0  0  0
  192.0540  176.0900  146.6950 C   0  0  0  0  0  0  0  0  0  0  0  0
  189.1320  178.3900  146.3400 C   0  0  0  0  0  2  0  0  0  0  0  0
  188.7900  178.0890  147.6580 O   0  0  0  0  0  1  0  0  0  0  0  0
  1  4  1  0  0  0  0
  2 14  1  6  0  0  0
  2 12  1  0  0  0  0
  3 19  1  6  0  0  0
  3  7  1  0  0  0  0
  5  4  2  0  0  0  0
  6  9  1  0  0  0  0
  6  1  2  0  0  0  0
  7 11  1  6  0  0  0
  7  9  1  0  0  0  0
  7 13  1  0  0  0  0
  8  5  1  0  0  0  0
  9 13  1  0  0  0  0
 10  2  1  0  0  0  0
 10 11  2  0  0  0  0
 11  3  1  0  0  0  0
 12  8  2  0  0  0  0
 12  6  1  0  0  0  0
 13 25  1  1  0  0  0
 15 14  2  0  0  0  0
 16 14  1  0  0  0  0
 17 19  1  0  0  0  0
 18 21  1  0  0  0  0
 19 18  2  0  0  0  0
 21 20  2  0  0  0  0
 21 22  1  0  0  0  0
 22 24  1  0  0  0  0
 24 23  3  0  0  0  0
 25 26  1  0  0  0  0
M  END
>  <MODEL>
8

>  <REMARK>
 VINA RESULT:      -6.7      1.928      7.379
  Name = 
  6 active torsions:
  status: ('A' for Active; 'I' for Inactive)
    1  A    between atoms: C_1  and  C_8
    2  A    between atoms: N_4  and  C_25
    3  A    between atoms: C_9  and  C_20
    4  A    between atoms: C_11  and  C_23
    5  A    between atoms: C_14  and  C_26
    6  A    between atoms: C_25  and  C_26
                            x       y       z     vdW  Elec       q    Type
                         _______ _______ _______ _____ _____    ______ ____

>  <TORSDO>
F 6

$$$$
=
 OpenBabel10222418253D

 26 29  0  0  1  0  0  0  0  0999 V2000
  184.9850  178.4400  142.9180 C   0  0  0  0  0  3  0  0  0  0  0  0
  181.1800  178.9550  142.3750 C   0  0  2  0  0  3  0  0  0  0  0  0
  182.1770  177.1440  139.0990 C   0  0  1  0  0  3  0  0  0  0  0  0
  185.0880  178.6430  144.2940 C   0  0  0  0  0  3  0  0  0  0  0  0
  183.9500  178.9460  145.0400 C   0  0  0  0  0  3  0  0  0  0  0  0
  183.7460  178.5470  142.2760 C   0  0  0  0  0  0  0  0  0  0  0  0
  182.8350  178.3320  139.6040 C   0  0  2  0  0  0  0  0  0  0  0  0
  182.7050  179.0340  144.4130 C   0  0  0  0  0  3  0  0  0  0  0  0
  183.6740  178.3220  140.8670 N   0  0  0  0  0  0  0  0  0  0  0  0
  180.8390  177.8450  141.4120 C   0  0  0  0  0  3  0  0  0  0  0  0
  181.6160  177.7350  140.3450 C   0  0  0  0  0  0  0  0  0  0  0  0
  182.5660  178.8150  143.0320 C   0  0  0  0  0  0  0  0  0  0  0  0
  184.1440  177.8490  139.5680 C   0  0  2  0  0  3  0  0  0  0  0  0
  180.0530  179.1470  143.3460 C   0  0  0  0  0  0  0  0  0  0  0  0
  179.5190  180.2780  143.4950 O   0  0  0  0  0  0  0  0  0  0  0  0
  179.5640  178.0320  144.0800 N   0  0  0  0  0  1  0  0  0  0  0  0
  181.2680  178.7730  137.3080 C   0  0  0  0  0  1  0  0  0  0  0  0
  180.3120  176.5940  137.5620 N   0  0  0  0  0  0  0  0  0  0  0  0
  181.2370  177.4250  137.9480 C   0  0  0  0  0  0  0  0  0  0  0  0
  180.5100  174.2420  137.4160 C   0  0  0  0  0  2  0  0  0  0  0  0
  180.0820  175.2910  138.1050 C   0  0  0  0  0  0  0  0  0  0  0  0
  178.9310  175.0750  139.0300 C   0  0  0  0  0  2  0  0  0  0  0  0
  179.6810  173.7490  141.2290 C   0  0  0  0  0  3  0  0  0  0  0  0
  179.3400  174.3500  140.2390 C   0  0  0  0  0  0  0  0  0  0  0  0
  185.0830  178.8890  138.9900 C   0  0  0  0  0  2  0  0  0  0  0  0
  184.5190  180.1570  139.1210 O   0  0  0  0  0  1  0  0  0  0  0  0
  1  4  1  0  0  0  0
  2 12  1  0  0  0  0
  2 14  1  1  0  0  0
  3 19  1  6  0  0  0
  3  7  1  0  0  0  0
  3 11  1  0  0  0  0
  4  5  2  0  0  0  0
  6  1  2  0  0  0  0
  6 12  1  0  0  0  0
  7 11  1  6  0  0  0
  7  9  1  0  0  0  0
  8  5  1  0  0  0  0
  9  6  1  0  0  0  0
 10  2  1  0  0  0  0
 11 10  2  0  0  0  0
 12  8  2  0  0  0  0
 13 25  1  6  0  0  0
 13  7  1  0  0  0  0
 13  9  1  0  0  0  0
 14 15  2  0  0  0  0
 14 16  1  0  0  0  0
 17 19  1  0  0  0  0
 18 19  2  0  0  0  0
 18 21  1  0  0  0  0
 20 21  2  0  0  0  0
 21 22  1  0  0  0  0
 22 24  1  0  0  0  0
 24 23  3  0  0  0  0
 25 26  1  0  0  0  0
M  END
>  <MODEL>
9

>  <REMARK>
 VINA RESULT:      -6.6      4.583      6.909
  Name = 
  6 active torsions:
  status: ('A' for Active; 'I' for Inactive)
    1  A    between atoms: C_1  and  C_8
    2  A    between atoms: N_4  and  C_25
    3  A    between atoms: C_9  and  C_20
    4  A    between atoms: C_11  and  C_23
    5  A    between atoms: C_14  and  C_26
    6  A    between atoms: C_25  and  C_26
                            x       y       z     vdW  Elec       q    Type
                         _______ _______ _______ _____ _____    ______ ____

>  <TORSDO>
F 6

$$$$
