=
 OpenBabel10222419593D

 36 40  0  0  1  0  0  0  0  0999 V2000
  181.4880  177.3170  138.5240 C   0  0  0  0  0  2  0  0  0  0  0  0
  186.2290  178.4310  141.4850 N   0  0  0  0  0  0  0  0  0  0  0  0
  187.5300  178.1460  141.0130 C   0  0  0  0  0  0  0  0  0  0  0  0
  181.4540  178.8480  138.3950 C   0  0  1  0  0  0  0  0  0  0  0  0
  189.8620  177.7810  141.0780 N   0  0  0  0  0  0  0  0  0  0  0  0
  183.0110  175.1780  138.7330 O   0  0  0  0  0  0  0  0  0  0  0  0
  188.6890  177.9400  141.7530 C   0  0  0  0  0  0  0  0  0  0  0  0
  188.6640  177.9030  143.2410 C   0  0  0  0  0  1  0  0  0  0  0  0
  185.5000  178.6380  140.4300 C   0  0  0  0  0  0  0  0  0  0  0  0
  187.5920  178.1960  139.6560 C   0  0  0  0  0  0  0  0  0  0  0  0
  183.4430  179.8160  139.5500 C   0  0  0  0  0  0  0  0  0  0  0  0
  184.0620  180.4730  138.6690 O   0  0  0  0  0  0  0  0  0  0  0  0
  188.7660  178.0520  138.9920 N   0  0  0  0  0  0  0  0  0  0  0  0
  184.1530  179.1000  140.5610 N   0  0  0  0  0  2  0  0  0  0  0  0
  189.9060  177.8370  139.7100 C   0  0  0  0  0  3  0  0  0  0  0  0
  186.2290  178.4480  139.1010 C   0  0  1  0  0  3  0  0  0  0  0  0
  183.1090  176.6730  139.0070 S   0  0  1  0  0  0  0  0  0  0  0  0
  185.7440  177.1920  138.3250 C   0  0  1  0  0  3  0  0  0  0  0  0
  181.5660  179.4090  136.9960 C   0  0  0  0  0  2  0  0  0  0  0  0
  180.2210  179.4260  137.7080 C   0  0  1  0  0  3  0  0  0  0  0  0
  181.9520  179.7520  139.5220 C   0  0  0  0  0  2  0  0  0  0  0  0
  184.2950  177.3220  137.7930 C   0  0  1  0  0  3  0  0  0  0  0  0
  187.9490  177.0190  135.4290 C   0  0  0  0  0  3  0  0  0  0  0  0
  187.0490  177.6670  136.2570 C   0  0  0  0  0  3  0  0  0  0  0  0
  186.6930  176.8460  137.2630 N   0  0  0  0  0  0  0  0  0  0  0  0
  187.3370  175.6720  137.1190 C   0  0  0  0  0  3  0  0  0  0  0  0
  188.1210  175.7690  135.9930 C   0  0  0  0  0  0  0  0  0  0  0  0
  188.9650  174.6770  135.4320 C   0  0  0  0  0  2  0  0  0  0  0  0
  190.0820  173.5390  137.2110 O   0  0  0  0  0  1  0  0  0  0  0  0
  188.9780  173.4730  136.3620 C   0  0  2  0  0  3  0  0  0  0  0  0
  189.0550  172.2050  135.5390 C   0  0  0  0  0  1  0  0  0  0  0  0
  184.0570  176.7200  136.4340 C   0  0  0  0  0  0  0  0  0  0  0  0
  183.7240  177.5020  135.4190 C   0  0  0  0  0  2  0  0  0  0  0  0
  184.2070  175.3560  136.2240 O   0  0  0  0  0  1  0  0  0  0  0  0
  179.4040  178.4260  137.1730 O   0  0  0  0  0  0  0  0  0  0  0  0
  178.9310  178.9640  135.9760 C   0  0  0  0  0  1  0  0  0  0  0  0
  1 17  1  0  0  0  0
  3  2  1  0  0  0  0
  3  7  1  0  0  0  0
  4 19  1  6  0  0  0
  4  1  1  0  0  0  0
  4 21  1  0  0  0  0
  5  7  2  0  0  0  0
  7  8  1  0  0  0  0
  9 14  1  0  0  0  0
  9  2  2  0  0  0  0
 10  3  2  0  0  0  0
 11 14  1  0  0  0  0
 12 11  2  0  0  0  0
 13 10  1  0  0  0  0
 13 15  2  0  0  0  0
 15  5  1  0  0  0  0
 16 10  1  1  0  0  0
 16  9  1  0  0  0  0
 17  6  2  6  0  0  0
 18 25  1  6  0  0  0
 18 16  1  0  0  0  0
 19 20  1  0  0  0  0
 20 35  1  6  0  0  0
 20  4  1  0  0  0  0
 21 11  1  0  0  0  0
 22 32  1  6  0  0  0
 22 18  1  0  0  0  0
 22 17  1  0  0  0  0
 23 27  1  0  0  0  0
 23 24  2  0  0  0  0
 24 25  1  0  0  0  0
 26 25  1  0  0  0  0
 27 26  2  0  0  0  0
 28 27  1  0  0  0  0
 28 30  1  0  0  0  0
 30 31  1  6  0  0  0
 30 29  1  0  0  0  0
 33 32  2  0  0  0  0
 34 32  1  0  0  0  0
 36 35  1  0  0  0  0
M  END
>  <MODEL>
1

>  <REMARK>
 VINA RESULT:      -5.3      0.000      0.000
  Name = 
  5 active torsions:
  status: ('A' for Active; 'I' for Inactive)
    1  A    between atoms: C_1  and  C_30
    2  A    between atoms: C_1  and  C_36
    3  A    between atoms: N_10  and  C_25
    4  A    between atoms: C_18  and  C_33
    5  A    between atoms: O_27  and  C_28
                            x       y       z     vdW  Elec       q    Type
                         _______ _______ _______ _____ _____    ______ ____

>  <TORSDO>
F 5

$$$$
=
 OpenBabel10222419593D

 36 40  0  0  1  0  0  0  0  0999 V2000
  181.0690  173.4480  135.1280 C   0  0  0  0  0  2  0  0  0  0  0  0
  186.3620  175.5610  135.2260 N   0  0  0  0  0  0  0  0  0  0  0  0
  186.7440  176.6760  136.0060 C   0  0  0  0  0  0  0  0  0  0  0  0
  181.7320  172.3010  135.9060 C   0  0  1  0  0  0  0  0  0  0  0  0
  188.0510  178.4970  136.7460 N   0  0  0  0  0  0  0  0  0  0  0  0
  181.0780  176.0330  134.6240 O   0  0  0  0  0  0  0  0  0  0  0  0
  187.8090  177.5450  135.8000 C   0  0  0  0  0  0  0  0  0  0  0  0
  188.6750  177.4430  134.5940 C   0  0  0  0  0  1  0  0  0  0  0  0
  185.3740  175.0010  135.8570 C   0  0  0  0  0  0  0  0  0  0  0  0
  185.9870  176.7820  137.1290 C   0  0  0  0  0  0  0  0  0  0  0  0
  184.1490  172.8220  136.2420 C   0  0  0  0  0  0  0  0  0  0  0  0
  184.3290  172.8160  137.4900 O   0  0  0  0  0  0  0  0  0  0  0  0
  186.2450  177.7230  138.0730 N   0  0  0  0  0  0  0  0  0  0  0  0
  184.8460  173.7500  135.4090 N   0  0  0  0  0  2  0  0  0  0  0  0
  187.2810  178.5880  137.8730 C   0  0  0  0  0  3  0  0  0  0  0  0
  184.9290  175.7290  137.1240 C   0  0  1  0  0  3  0  0  0  0  0  0
  182.0480  174.9690  135.1200 S   0  0  1  0  0  0  0  0  0  0  0  0
  183.5330  176.3950  136.9750 C   0  0  1  0  0  3  0  0  0  0  0  0
  181.2350  172.0660  137.3150 C   0  0  0  0  0  2  0  0  0  0  0  0
  180.8380  171.1020  136.2050 C   0  0  1  0  0  3  0  0  0  0  0  0
  183.1730  171.8780  135.6240 C   0  0  0  0  0  2  0  0  0  0  0  0
  182.3750  175.3730  136.8610 C   0  0  1  0  0  3  0  0  0  0  0  0
  182.8570  179.2880  139.0840 C   0  0  0  0  0  3  0  0  0  0  0  0
  182.9740  178.6560  137.8590 C   0  0  0  0  0  3  0  0  0  0  0  0
  183.3100  177.3660  138.0500 N   0  0  0  0  0  0  0  0  0  0  0  0
  183.4180  177.1320  139.3720 C   0  0  0  0  0  3  0  0  0  0  0  0
  183.1330  178.3110  140.0220 C   0  0  0  0  0  0  0  0  0  0  0  0
  183.1850  178.5180  141.4970 C   0  0  0  0  0  2  0  0  0  0  0  0
  184.5130  178.1260  143.4440 O   0  0  0  0  0  1  0  0  0  0  0  0
  184.5450  178.1220  142.0490 C   0  0  2  0  0  3  0  0  0  0  0  0
  185.5880  179.1100  141.5710 C   0  0  0  0  0  1  0  0  0  0  0  0
  181.1070  175.7630  137.5700 C   0  0  0  0  0  0  0  0  0  0  0  0
  180.7550  175.1340  138.6810 C   0  0  0  0  0  2  0  0  0  0  0  0
  180.3100  176.7940  137.0880 O   0  0  0  0  0  1  0  0  0  0  0  0
  179.5090  171.3380  135.8450 O   0  0  0  0  0  0  0  0  0  0  0  0
  178.9430  170.0680  135.7350 C   0  0  0  0  0  1  0  0  0  0  0  0
  2  9  2  0  0  0  0
  2  3  1  0  0  0  0
  3 10  1  0  0  0  0
  4  1  1  6  0  0  0
  4 20  1  0  0  0  0
  4 19  1  0  0  0  0
  5 15  2  0  0  0  0
  7  3  2  0  0  0  0
  7  5  1  0  0  0  0
  8  7  1  0  0  0  0
 10 13  2  0  0  0  0
 11 12  2  0  0  0  0
 14  9  1  0  0  0  0
 14 11  1  0  0  0  0
 15 13  1  0  0  0  0
 16  9  1  6  0  0  0
 16 10  1  0  0  0  0
 17  6  2  1  0  0  0
 17  1  1  0  0  0  0
 17 22  1  0  0  0  0
 18 16  1  0  0  0  0
 18 25  1  1  0  0  0
 20 35  1  6  0  0  0
 20 19  1  0  0  0  0
 21  4  1  0  0  0  0
 21 11  1  0  0  0  0
 22 18  1  0  0  0  0
 22 32  1  6  0  0  0
 23 27  1  0  0  0  0
 24 25  1  0  0  0  0
 24 23  2  0  0  0  0
 25 26  1  0  0  0  0
 26 27  2  0  0  0  0
 27 28  1  0  0  0  0
 28 30  1  0  0  0  0
 30 31  1  1  0  0  0
 30 29  1  0  0  0  0
 32 33  2  0  0  0  0
 34 32  1  0  0  0  0
 36 35  1  0  0  0  0
M  END
>  <MODEL>
2

>  <REMARK>
 VINA RESULT:      -5.1      3.415      6.403
  Name = 
  5 active torsions:
  status: ('A' for Active; 'I' for Inactive)
    1  A    between atoms: C_1  and  C_30
    2  A    between atoms: C_1  and  C_36
    3  A    between atoms: N_10  and  C_25
    4  A    between atoms: C_18  and  C_33
    5  A    between atoms: O_27  and  C_28
                            x       y       z     vdW  Elec       q    Type
                         _______ _______ _______ _____ _____    ______ ____

>  <TORSDO>
F 5

$$$$
=
 OpenBabel10222419593D

 36 40  0  0  1  0  0  0  0  0999 V2000
  190.0310  177.4100  136.4750 C   0  0  0  0  0  2  0  0  0  0  0  0
  185.0780  179.2290  138.6320 N   0  0  0  0  0  0  0  0  0  0  0  0
  183.8550  178.5400  138.4700 C   0  0  0  0  0  0  0  0  0  0  0  0
  190.3360  177.1280  137.9540 C   0  0  1  0  0  0  0  0  0  0  0  0
  181.5220  178.1770  138.4460 N   0  0  0  0  0  0  0  0  0  0  0  0
  188.1670  177.5390  134.6180 O   0  0  0  0  0  0  0  0  0  0  0  0
  182.5640  179.0520  138.5300 C   0  0  0  0  0  0  0  0  0  0  0  0
  182.3130  180.5100  138.6940 C   0  0  0  0  0  1  0  0  0  0  0  0
  186.0100  178.3240  138.5900 C   0  0  0  0  0  0  0  0  0  0  0  0
  184.0490  177.2010  138.3430 C   0  0  0  0  0  0  0  0  0  0  0  0
  188.3560  177.7510  139.3390 C   0  0  0  0  0  0  0  0  0  0  0  0
  188.0220  176.7000  139.9490 O   0  0  0  0  0  0  0  0  0  0  0  0
  183.0060  176.3350  138.2750 N   0  0  0  0  0  0  0  0  0  0  0  0
  187.3680  178.6710  138.8740 N   0  0  0  0  0  2  0  0  0  0  0  0
  181.7360  176.8310  138.3210 C   0  0  0  0  0  3  0  0  0  0  0  0
  185.5120  176.9050  138.3240 C   0  0  1  0  0  3  0  0  0  0  0  0
  188.2670  177.6260  136.1360 S   0  0  1  0  0  0  0  0  0  0  0  0
  185.9180  176.3810  136.9190 C   0  0  1  0  0  3  0  0  0  0  0  0
  190.5730  175.6820  138.3290 C   0  0  0  0  0  2  0  0  0  0  0  0
  191.7510  176.6430  138.2560 C   0  0  1  0  0  3  0  0  0  0  0  0
  189.7970  178.0290  139.0640 C   0  0  0  0  0  2  0  0  0  0  0  0
  187.4410  176.1370  136.7710 C   0  0  1  0  0  3  0  0  0  0  0  0
  183.7640  173.8380  135.4450 C   0  0  0  0  0  3  0  0  0  0  0  0
  184.3800  175.0770  135.4560 C   0  0  0  0  0  3  0  0  0  0  0  0
  185.1330  175.1940  136.5670 N   0  0  0  0  0  0  0  0  0  0  0  0
  185.0280  174.0630  137.2890 C   0  0  0  0  0  3  0  0  0  0  0  0
  184.1900  173.2140  136.6030 C   0  0  0  0  0  0  0  0  0  0  0  0
  183.7550  171.8670  137.0690 C   0  0  0  0  0  2  0  0  0  0  0  0
  181.5970  171.1320  136.3550 O   0  0  0  0  0  1  0  0  0  0  0  0
  182.9450  171.1600  135.9930 C   0  0  2  0  0  3  0  0  0  0  0  0
  183.4490  169.7420  135.8350 C   0  0  0  0  0  1  0  0  0  0  0  0
  187.8200  174.9260  135.9630 C   0  0  0  0  0  0  0  0  0  0  0  0
  188.3610  173.8780  136.5640 C   0  0  0  0  0  2  0  0  0  0  0  0
  187.5850  174.8830  134.5940 O   0  0  0  0  0  1  0  0  0  0  0  0
  192.4770  176.3910  137.0880 O   0  0  0  0  0  0  0  0  0  0  0  0
  193.5470  175.6000  137.5040 C   0  0  0  0  0  1  0  0  0  0  0  0
  3  7  1  0  0  0  0
  3  2  1  0  0  0  0
  4  1  1  6  0  0  0
  4 20  1  0  0  0  0
  4 19  1  0  0  0  0
  4 21  1  0  0  0  0
  5  7  2  0  0  0  0
  7  8  1  0  0  0  0
  9  2  2  0  0  0  0
  9 14  1  0  0  0  0
 10  3  2  0  0  0  0
 11 12  2  0  0  0  0
 13 15  2  0  0  0  0
 13 10  1  0  0  0  0
 14 11  1  0  0  0  0
 15  5  1  0  0  0  0
 16 10  1  6  0  0  0
 16  9  1  0  0  0  0
 17  6  2  6  0  0  0
 17  1  1  0  0  0  0
 17 22  1  0  0  0  0
 18 25  1  1  0  0  0
 18 16  1  0  0  0  0
 20 35  1  6  0  0  0
 20 19  1  0  0  0  0
 21 11  1  0  0  0  0
 22 32  1  6  0  0  0
 22 18  1  0  0  0  0
 23 24  2  0  0  0  0
 23 27  1  0  0  0  0
 24 25  1  0  0  0  0
 25 26  1  0  0  0  0
 27 28  1  0  0  0  0
 27 26  2  0  0  0  0
 30 31  1  1  0  0  0
 30 29  1  0  0  0  0
 30 28  1  0  0  0  0
 32 33  2  0  0  0  0
 34 32  1  0  0  0  0
 35 36  1  0  0  0  0
M  END
>  <MODEL>
3

>  <REMARK>
 VINA RESULT:      -4.9      3.150      6.935
  Name = 
  5 active torsions:
  status: ('A' for Active; 'I' for Inactive)
    1  A    between atoms: C_1  and  C_30
    2  A    between atoms: C_1  and  C_36
    3  A    between atoms: N_10  and  C_25
    4  A    between atoms: C_18  and  C_33
    5  A    between atoms: O_27  and  C_28
                            x       y       z     vdW  Elec       q    Type
                         _______ _______ _______ _____ _____    ______ ____

>  <TORSDO>
F 5

$$$$
=
 OpenBabel10222419593D

 36 40  0  0  1  0  0  0  0  0999 V2000
  182.2520  179.0090  138.8020 C   0  0  0  0  0  2  0  0  0  0  0  0
  186.9360  177.2660  136.0630 N   0  0  0  0  0  0  0  0  0  0  0  0
  188.2100  177.1830  136.6680 C   0  0  0  0  0  0  0  0  0  0  0  0
  181.8810  177.5220  138.6880 C   0  0  1  0  0  0  0  0  0  0  0  0
  190.5600  177.0190  136.8330 N   0  0  0  0  0  0  0  0  0  0  0  0
  184.2070  180.7570  139.0410 O   0  0  0  0  0  0  0  0  0  0  0  0
  189.4580  177.2210  136.0570 C   0  0  0  0  0  0  0  0  0  0  0  0
  189.6000  177.4640  134.5950 C   0  0  0  0  0  1  0  0  0  0  0  0
  186.0720  177.0870  137.0160 C   0  0  0  0  0  0  0  0  0  0  0  0
  188.1150  176.9370  138.0010 C   0  0  0  0  0  0  0  0  0  0  0  0
  183.7300  176.2950  137.5470 C   0  0  0  0  0  0  0  0  0  0  0  0
  184.0980  175.4030  138.3580 O   0  0  0  0  0  0  0  0  0  0  0  0
  189.2160  176.7210  138.7650 N   0  0  0  0  0  0  0  0  0  0  0  0
  184.6790  176.9630  136.7150 N   0  0  0  0  0  2  0  0  0  0  0  0
  190.4450  176.7690  138.1750 C   0  0  0  0  0  3  0  0  0  0  0  0
  186.6790  176.9270  138.4090 C   0  0  1  0  0  3  0  0  0  0  0  0
  184.0140  179.3290  138.5460 S   0  0  1  0  0  0  0  0  0  0  0  0
  186.3910  178.1420  139.3320 C   0  0  1  0  0  3  0  0  0  0  0  0
  181.7210  176.7660  139.9880 C   0  0  0  0  0  2  0  0  0  0  0  0
  180.4860  177.1490  139.1840 C   0  0  1  0  0  3  0  0  0  0  0  0
  182.2930  176.6900  137.4750 C   0  0  0  0  0  2  0  0  0  0  0  0
  184.9000  178.2720  139.7290 C   0  0  1  0  0  3  0  0  0  0  0  0
  188.8930  178.6910  141.9250 C   0  0  0  0  0  3  0  0  0  0  0  0
  188.2450  179.0200  140.7470 C   0  0  0  0  0  3  0  0  0  0  0  0
  187.2740  178.1180  140.5020 N   0  0  0  0  0  0  0  0  0  0  0  0
  187.2670  177.2030  141.4890 C   0  0  0  0  0  3  0  0  0  0  0  0
  188.2580  177.5500  142.3780 C   0  0  0  0  0  0  0  0  0  0  0  0
  188.6340  176.7780  143.5970 C   0  0  0  0  0  2  0  0  0  0  0  0
  190.1040  177.3110  145.4030 O   0  0  0  0  0  1  0  0  0  0  0  0
  188.9360  177.7150  144.7560 C   0  0  2  0  0  3  0  0  0  0  0  0
  187.7850  177.6850  145.7380 C   0  0  0  0  0  1  0  0  0  0  0  0
  184.6510  178.7220  141.1430 C   0  0  0  0  0  0  0  0  0  0  0  0
  183.8250  178.0340  141.9160 C   0  0  0  0  0  2  0  0  0  0  0  0
  185.2990  179.8370  141.6590 O   0  0  0  0  0  1  0  0  0  0  0  0
  179.8480  178.2250  139.8070 O   0  0  0  0  0  0  0  0  0  0  0  0
  179.2980  177.6830  140.9680 C   0  0  0  0  0  1  0  0  0  0  0  0
  2  3  1  0  0  0  0
  2  9  2  0  0  0  0
  3 10  1  0  0  0  0
  4 21  1  6  0  0  0
  4  1  1  0  0  0  0
  4 20  1  0  0  0  0
  4 19  1  0  0  0  0
  5 15  2  0  0  0  0
  7  3  2  0  0  0  0
  7  5  1  0  0  0  0
  8  7  1  0  0  0  0
 10 16  1  0  0  0  0
 10 13  2  0  0  0  0
 11 12  2  0  0  0  0
 14  9  1  0  0  0  0
 14 11  1  0  0  0  0
 15 13  1  0  0  0  0
 16  9  1  6  0  0  0
 16 18  1  0  0  0  0
 17  1  1  0  0  0  0
 17  6  2  1  0  0  0
 17 22  1  0  0  0  0
 18 22  1  0  0  0  0
 18 25  1  1  0  0  0
 20 35  1  1  0  0  0
 20 19  1  0  0  0  0
 21 11  1  0  0  0  0
 22 32  1  1  0  0  0
 23 27  1  0  0  0  0
 24 23  2  0  0  0  0
 25 24  1  0  0  0  0
 25 26  1  0  0  0  0
 26 27  2  0  0  0  0
 27 28  1  0  0  0  0
 28 30  1  0  0  0  0
 30 29  1  0  0  0  0
 30 31  1  1  0  0  0
 32 34  1  0  0  0  0
 32 33  2  0  0  0  0
 35 36  1  0  0  0  0
M  END
>  <MODEL>
4

>  <REMARK>
 VINA RESULT:      -4.5      2.303      5.370
  Name = 
  5 active torsions:
  status: ('A' for Active; 'I' for Inactive)
    1  A    between atoms: C_1  and  C_30
    2  A    between atoms: C_1  and  C_36
    3  A    between atoms: N_10  and  C_25
    4  A    between atoms: C_18  and  C_33
    5  A    between atoms: O_27  and  C_28
                            x       y       z     vdW  Elec       q    Type
                         _______ _______ _______ _____ _____    ______ ____

>  <TORSDO>
F 5

$$$$
=
 OpenBabel10222419593D

 36 40  0  0  1  0  0  0  0  0999 V2000
  187.4830  176.1400  134.6730 C   0  0  0  0  0  2  0  0  0  0  0  0
  192.3210  173.1510  135.0590 N   0  0  0  0  0  0  0  0  0  0  0  0
  193.3340  173.4230  136.0060 C   0  0  0  0  0  0  0  0  0  0  0  0
  186.8800  174.8490  135.2460 C   0  0  1  0  0  0  0  0  0  0  0  0
  195.4660  173.3780  137.0190 N   0  0  0  0  0  0  0  0  0  0  0  0
  189.5920  177.7170  134.5950 O   0  0  0  0  0  0  0  0  0  0  0  0
  194.6860  173.1080  135.9340 C   0  0  0  0  0  0  0  0  0  0  0  0
  195.2760  172.4840  134.7180 C   0  0  0  0  0  1  0  0  0  0  0  0
  191.2070  173.5420  135.6010 C   0  0  0  0  0  0  0  0  0  0  0  0
  192.8240  173.9720  137.1390 C   0  0  0  0  0  0  0  0  0  0  0  0
  188.7030  173.1900  135.6390 C   0  0  0  0  0  0  0  0  0  0  0  0
  188.6510  172.9110  136.8670 O   0  0  0  0  0  0  0  0  0  0  0  0
  193.6050  174.2230  138.2210 N   0  0  0  0  0  0  0  0  0  0  0  0
  189.9570  173.2710  134.9600 N   0  0  0  0  0  2  0  0  0  0  0  0
  194.9350  173.9290  138.1550 C   0  0  0  0  0  3  0  0  0  0  0  0
  191.3570  174.1950  136.9740 C   0  0  1  0  0  3  0  0  0  0  0  0
  189.2740  176.2590  134.9020 S   0  0  1  0  0  0  0  0  0  0  0  0
  191.0620  175.7200  136.9490 C   0  0  1  0  0  3  0  0  0  0  0  0
  186.2210  174.9570  136.6030 C   0  0  0  0  0  2  0  0  0  0  0  0
  185.3580  174.8220  135.3560 C   0  0  1  0  0  3  0  0  0  0  0  0
  187.4470  173.4770  134.8850 C   0  0  0  0  0  2  0  0  0  0  0  0
  189.5730  176.0520  136.6820 C   0  0  1  0  0  3  0  0  0  0  0  0
  192.8690  177.5280  139.5460 C   0  0  0  0  0  3  0  0  0  0  0  0
  192.6910  177.0860  138.2460 C   0  0  0  0  0  3  0  0  0  0  0  0
  191.5610  176.3590  138.1700 N   0  0  0  0  0  0  0  0  0  0  0  0
  190.9890  176.3090  139.3880 C   0  0  0  0  0  3  0  0  0  0  0  0
  191.7850  177.0340  140.2450 C   0  0  0  0  0  0  0  0  0  0  0  0
  191.5520  177.1990  141.7080 C   0  0  0  0  0  2  0  0  0  0  0  0
  189.4320  178.0810  142.3690 O   0  0  0  0  0  1  0  0  0  0  0  0
  190.1030  176.8980  142.0610 C   0  0  2  0  0  3  0  0  0  0  0  0
  190.0600  175.9730  143.2590 C   0  0  0  0  0  1  0  0  0  0  0  0
  189.0300  177.2210  137.4580 C   0  0  0  0  0  0  0  0  0  0  0  0
  188.1250  177.0200  138.4030 C   0  0  0  0  0  2  0  0  0  0  0  0
  189.4860  178.5110  137.2130 O   0  0  0  0  0  1  0  0  0  0  0  0
  184.7910  176.0620  135.0520 O   0  0  0  0  0  0  0  0  0  0  0  0
  183.4580  175.7760  134.7590 C   0  0  0  0  0  1  0  0  0  0  0  0
  1 17  1  0  0  0  0
  2  9  2  0  0  0  0
  2  3  1  0  0  0  0
  3 10  1  0  0  0  0
  4  1  1  6  0  0  0
  4 20  1  0  0  0  0
  4 19  1  0  0  0  0
  5 15  2  0  0  0  0
  7  3  2  0  0  0  0
  7  5  1  0  0  0  0
  8  7  1  0  0  0  0
 10 13  2  0  0  0  0
 11 12  2  0  0  0  0
 14  9  1  0  0  0  0
 14 11  1  0  0  0  0
 15 13  1  0  0  0  0
 16  9  1  6  0  0  0
 16 10  1  0  0  0  0
 17  6  2  1  0  0  0
 17 22  1  0  0  0  0
 18 16  1  0  0  0  0
 18 25  1  1  0  0  0
 20 35  1  6  0  0  0
 20 19  1  0  0  0  0
 21  4  1  0  0  0  0
 21 11  1  0  0  0  0
 22 18  1  0  0  0  0
 22 32  1  1  0  0  0
 23 27  1  0  0  0  0
 24 23  2  0  0  0  0
 25 24  1  0  0  0  0
 25 26  1  0  0  0  0
 26 27  2  0  0  0  0
 27 28  1  0  0  0  0
 28 30  1  0  0  0  0
 30 29  1  0  0  0  0
 30 31  1  1  0  0  0
 32 33  2  0  0  0  0
 34 32  1  0  0  0  0
 36 35  1  0  0  0  0
M  END
>  <MODEL>
5

>  <REMARK>
 VINA RESULT:      -4.5      4.075      7.532
  Name = 
  5 active torsions:
  status: ('A' for Active; 'I' for Inactive)
    1  A    between atoms: C_1  and  C_30
    2  A    between atoms: C_1  and  C_36
    3  A    between atoms: N_10  and  C_25
    4  A    between atoms: C_18  and  C_33
    5  A    between atoms: O_27  and  C_28
                            x       y       z     vdW  Elec       q    Type
                         _______ _______ _______ _____ _____    ______ ____

>  <TORSDO>
F 5

$$$$
=
 OpenBabel10222419593D

 36 40  0  0  1  0  0  0  0  0999 V2000
  179.0720  178.1880  139.1780 C   0  0  0  0  0  2  0  0  0  0  0  0
  180.4210  173.0750  137.0520 N   0  0  0  0  0  0  0  0  0  0  0  0
  181.5330  172.8470  136.2110 C   0  0  0  0  0  0  0  0  0  0  0  0
  179.5530  177.5430  140.4870 C   0  0  1  0  0  0  0  0  0  0  0  0
  182.9270  171.7390  134.6590 N   0  0  0  0  0  0  0  0  0  0  0  0
  179.3530  178.2830  136.5610 O   0  0  0  0  0  0  0  0  0  0  0  0
  181.7220  171.8210  135.2910 C   0  0  0  0  0  0  0  0  0  0  0  0
  180.6510  170.8270  135.0060 C   0  0  0  0  0  1  0  0  0  0  0  0
  180.7370  174.0880  137.8000 C   0  0  0  0  0  0  0  0  0  0  0  0
  182.5390  173.7240  136.4640 C   0  0  0  0  0  0  0  0  0  0  0  0
  180.3160  175.2120  140.0260 C   0  0  0  0  0  0  0  0  0  0  0  0
  181.5190  175.1670  140.4000 O   0  0  0  0  0  0  0  0  0  0  0  0
  183.7410  173.6270  135.8410 N   0  0  0  0  0  0  0  0  0  0  0  0
  179.8810  174.4880  138.8740 N   0  0  0  0  0  2  0  0  0  0  0  0
  183.9300  172.6300  134.9290 C   0  0  0  0  0  3  0  0  0  0  0  0
  182.0990  174.7100  137.4950 C   0  0  1  0  0  3  0  0  0  0  0  0
  179.6280  177.3080  137.6980 S   0  0  1  0  0  0  0  0  0  0  0  0
  181.9840  176.1200  136.8520 C   0  0  1  0  0  3  0  0  0  0  0  0
  180.7600  178.1730  141.1450 C   0  0  0  0  0  2  0  0  0  0  0  0
  179.3780  178.3900  141.7440 C   0  0  1  0  0  3  0  0  0  0  0  0
  179.3350  176.0570  140.7690 C   0  0  0  0  0  2  0  0  0  0  0  0
  181.4380  177.1950  137.8240 C   0  0  1  0  0  3  0  0  0  0  0  0
  184.7540  177.1850  134.7370 C   0  0  0  0  0  3  0  0  0  0  0  0
  183.4210  176.8950  134.9710 C   0  0  0  0  0  3  0  0  0  0  0  0
  183.2620  176.5150  136.2530 N   0  0  0  0  0  0  0  0  0  0  0  0
  184.4580  176.5470  136.8710 C   0  0  0  0  0  3  0  0  0  0  0  0
  185.3870  176.9660  135.9460 C   0  0  0  0  0  0  0  0  0  0  0  0
  186.8510  177.0950  136.1910 C   0  0  0  0  0  2  0  0  0  0  0  0
  187.0430  178.9840  137.6400 O   0  0  0  0  0  1  0  0  0  0  0  0
  187.1200  177.5920  137.6030 C   0  0  2  0  0  3  0  0  0  0  0  0
  188.5060  177.1580  138.0310 C   0  0  0  0  0  1  0  0  0  0  0  0
  182.0710  178.5530  137.6970 C   0  0  0  0  0  0  0  0  0  0  0  0
  182.9470  178.9570  138.6050 C   0  0  0  0  0  2  0  0  0  0  0  0
  181.7690  179.3810  136.6240 O   0  0  0  0  0  1  0  0  0  0  0  0
  178.9460  179.6850  141.4460 O   0  0  0  0  0  0  0  0  0  0  0  0
  179.3090  180.4410  142.5600 C   0  0  0  0  0  1  0  0  0  0  0  0
  2  9  2  0  0  0  0
  3 10  1  0  0  0  0
  3  2  1  0  0  0  0
  4  1  1  6  0  0  0
  4 21  1  0  0  0  0
  4 19  1  0  0  0  0
  4 20  1  0  0  0  0
  5 15  2  0  0  0  0
  5  7  1  0  0  0  0
  7  3  2  0  0  0  0
  8  7  1  0  0  0  0
  9 14  1  0  0  0  0
 11 12  2  0  0  0  0
 11 21  1  0  0  0  0
 13 10  2  0  0  0  0
 14 11  1  0  0  0  0
 15 13  1  0  0  0  0
 16 10  1  6  0  0  0
 16  9  1  0  0  0  0
 17  6  2  6  0  0  0
 17 22  1  0  0  0  0
 17  1  1  0  0  0  0
 18 25  1  1  0  0  0
 18 16  1  0  0  0  0
 18 22  1  0  0  0  0
 19 20  1  0  0  0  0
 20 35  1  6  0  0  0
 22 32  1  6  0  0  0
 23 24  2  0  0  0  0
 23 27  1  0  0  0  0
 24 25  1  0  0  0  0
 25 26  1  0  0  0  0
 27 28  1  0  0  0  0
 27 26  2  0  0  0  0
 28 30  1  0  0  0  0
 30 29  1  0  0  0  0
 30 31  1  6  0  0  0
 32 33  2  0  0  0  0
 34 32  1  0  0  0  0
 35 36  1  0  0  0  0
M  END
>  <MODEL>
6

>  <REMARK>
 VINA RESULT:      -4.4      3.629      6.258
  Name = 
  5 active torsions:
  status: ('A' for Active; 'I' for Inactive)
    1  A    between atoms: C_1  and  C_30
    2  A    between atoms: C_1  and  C_36
    3  A    between atoms: N_10  and  C_25
    4  A    between atoms: C_18  and  C_33
    5  A    between atoms: O_27  and  C_28
                            x       y       z     vdW  Elec       q    Type
                         _______ _______ _______ _____ _____    ______ ____

>  <TORSDO>
F 5

$$$$
=
 OpenBabel10222419593D

 36 40  0  0  1  0  0  0  0  0999 V2000
  189.8230  175.9340  144.2770 C   0  0  0  0  0  2  0  0  0  0  0  0
  187.7500  177.7830  139.3000 N   0  0  0  0  0  0  0  0  0  0  0  0
  186.4680  178.3580  139.1520 C   0  0  0  0  0  0  0  0  0  0  0  0
  190.7210  177.1720  144.1290 C   0  0  1  0  0  0  0  0  0  0  0  0
  184.5130  179.1240  138.0730 N   0  0  0  0  0  0  0  0  0  0  0  0
  187.4650  174.8760  143.7690 O   0  0  0  0  0  0  0  0  0  0  0  0
  185.6820  178.4270  138.0080 C   0  0  0  0  0  0  0  0  0  0  0  0
  186.1000  177.7720  136.7370 C   0  0  0  0  0  1  0  0  0  0  0  0
  188.1240  178.0430  140.5160 C   0  0  0  0  0  0  0  0  0  0  0  0
  186.0680  178.9850  140.2890 C   0  0  0  0  0  0  0  0  0  0  0  0
  190.1240  178.3770  142.0270 C   0  0  0  0  0  0  0  0  0  0  0  0
  189.7990  179.5410  142.3820 O   0  0  0  0  0  0  0  0  0  0  0  0
  184.9100  179.6900  140.3420 N   0  0  0  0  0  0  0  0  0  0  0  0
  189.4500  177.7270  140.9480 N   0  0  0  0  0  2  0  0  0  0  0  0
  184.1260  179.7530  139.2260 C   0  0  0  0  0  3  0  0  0  0  0  0
  187.0860  178.7800  141.3610 C   0  0  1  0  0  3  0  0  0  0  0  0
  188.3560  175.9810  143.2180 S   0  0  1  0  0  0  0  0  0  0  0  0
  186.4870  177.8900  142.4850 C   0  0  1  0  0  3  0  0  0  0  0  0
  190.5740  178.2410  145.1880 C   0  0  0  0  0  2  0  0  0  0  0  0
  191.7990  177.3370  145.1960 C   0  0  1  0  0  3  0  0  0  0  0  0
  191.2010  177.6470  142.7590 C   0  0  0  0  0  2  0  0  0  0  0  0
  187.5040  177.5400  143.5990 C   0  0  1  0  0  3  0  0  0  0  0  0
  183.9210  179.9160  144.0940 C   0  0  0  0  0  3  0  0  0  0  0  0
  185.2280  179.6420  143.7300 C   0  0  0  0  0  3  0  0  0  0  0  0
  185.2660  178.4970  143.0230 N   0  0  0  0  0  0  0  0  0  0  0  0
  184.0160  178.0080  142.9130 C   0  0  0  0  0  3  0  0  0  0  0  0
  183.1750  178.8800  143.5640 C   0  0  0  0  0  0  0  0  0  0  0  0
  181.7050  178.6990  143.7330 C   0  0  0  0  0  2  0  0  0  0  0  0
  180.4140  180.5020  142.8440 O   0  0  0  0  0  1  0  0  0  0  0  0
  180.9520  179.2530  142.5330 C   0  0  2  0  0  3  0  0  0  0  0  0
  179.8320  178.3050  142.1630 C   0  0  0  0  0  1  0  0  0  0  0  0
  186.9430  177.5180  144.9940 C   0  0  0  0  0  0  0  0  0  0  0  0
  187.5040  178.2560  145.9400 C   0  0  0  0  0  2  0  0  0  0  0  0
  185.8240  176.7530  145.2990 O   0  0  0  0  0  1  0  0  0  0  0  0
  191.6690  176.3960  146.2210 O   0  0  0  0  0  0  0  0  0  0  0  0
  191.2930  177.1420  147.3370 C   0  0  0  0  0  1  0  0  0  0  0  0
  2  9  2  0  0  0  0
  3  2  1  0  0  0  0
  3 10  1  0  0  0  0
  4 21  1  6  0  0  0
  4  1  1  0  0  0  0
  4 19  1  0  0  0  0
  4 20  1  0  0  0  0
  5 15  2  0  0  0  0
  7  5  1  0  0  0  0
  7  3  2  0  0  0  0
  8  7  1  0  0  0  0
  9 14  1  0  0  0  0
  9 16  1  0  0  0  0
 10 13  2  0  0  0  0
 11 12  2  0  0  0  0
 11 21  1  0  0  0  0
 14 11  1  0  0  0  0
 15 13  1  0  0  0  0
 16 10  1  6  0  0  0
 16 18  1  0  0  0  0
 17 22  1  0  0  0  0
 17  6  2  1  0  0  0
 17  1  1  0  0  0  0
 18 25  1  1  0  0  0
 18 22  1  0  0  0  0
 19 20  1  0  0  0  0
 20 35  1  1  0  0  0
 22 32  1  1  0  0  0
 24 23  2  0  0  0  0
 25 24  1  0  0  0  0
 26 25  1  0  0  0  0
 26 27  2  0  0  0  0
 27 28  1  0  0  0  0
 27 23  1  0  0  0  0
 30 31  1  1  0  0  0
 30 29  1  0  0  0  0
 30 28  1  0  0  0  0
 32 34  1  0  0  0  0
 32 33  2  0  0  0  0
 35 36  1  0  0  0  0
M  END
>  <MODEL>
7

>  <REMARK>
 VINA RESULT:      -4.1      3.807      9.012
  Name = 
  5 active torsions:
  status: ('A' for Active; 'I' for Inactive)
    1  A    between atoms: C_1  and  C_30
    2  A    between atoms: C_1  and  C_36
    3  A    between atoms: N_10  and  C_25
    4  A    between atoms: C_18  and  C_33
    5  A    between atoms: O_27  and  C_28
                            x       y       z     vdW  Elec       q    Type
                         _______ _______ _______ _____ _____    ______ ____

>  <TORSDO>
F 5

$$$$
=
 OpenBabel10222419593D

 36 40  0  0  1  0  0  0  0  0999 V2000
  189.0180  178.6280  138.5270 C   0  0  0  0  0  2  0  0  0  0  0  0
  183.5790  180.2240  139.1260 N   0  0  0  0  0  0  0  0  0  0  0  0
  182.5000  179.5790  138.4800 C   0  0  0  0  0  0  0  0  0  0  0  0
  188.8230  178.1520  139.9750 C   0  0  1  0  0  0  0  0  0  0  0  0
  180.3190  179.2560  137.6350 N   0  0  0  0  0  0  0  0  0  0  0  0
  187.8720  179.0230  136.1880 O   0  0  0  0  0  0  0  0  0  0  0  0
  181.2470  180.0980  138.1710 C   0  0  0  0  0  0  0  0  0  0  0  0
  180.9140  181.5260  138.4260 C   0  0  0  0  0  1  0  0  0  0  0  0
  184.4980  179.3190  139.2820 C   0  0  0  0  0  0  0  0  0  0  0  0
  182.7640  178.2660  138.2560 C   0  0  0  0  0  0  0  0  0  0  0  0
  186.4790  178.6200  140.6890 C   0  0  0  0  0  0  0  0  0  0  0  0
  185.9930  177.5030  141.0140 O   0  0  0  0  0  0  0  0  0  0  0  0
  181.8290  177.4310  137.7350 N   0  0  0  0  0  0  0  0  0  0  0  0
  185.6740  179.6070  140.0420 N   0  0  0  0  0  2  0  0  0  0  0  0
  180.6010  177.9340  137.4180 C   0  0  0  0  0  3  0  0  0  0  0  0
  184.1590  177.9530  138.6870 C   0  0  1  0  0  3  0  0  0  0  0  0
  187.4610  178.9110  137.6500 S   0  0  1  0  0  0  0  0  0  0  0  0
  185.0230  177.6090  137.4430 C   0  0  1  0  0  3  0  0  0  0  0  0
  188.9650  176.6660  140.2210 C   0  0  0  0  0  2  0  0  0  0  0  0
  190.0720  177.6110  140.6660 C   0  0  1  0  0  3  0  0  0  0  0  0
  187.9200  178.9090  140.9470 C   0  0  0  0  0  2  0  0  0  0  0  0
  186.5150  177.3650  137.7800 C   0  0  1  0  0  3  0  0  0  0  0  0
  183.5880  175.2980  135.0180 C   0  0  0  0  0  3  0  0  0  0  0  0
  184.1450  176.5110  135.3870 C   0  0  0  0  0  3  0  0  0  0  0  0
  184.4340  176.4900  136.7020 N   0  0  0  0  0  0  0  0  0  0  0  0
  184.0820  175.2940  137.2100 C   0  0  0  0  0  3  0  0  0  0  0  0
  183.5640  174.5460  136.1780 C   0  0  0  0  0  0  0  0  0  0  0  0
  183.0020  173.1710  136.3040 C   0  0  0  0  0  2  0  0  0  0  0  0
  185.2300  172.3920  135.9300 O   0  0  0  0  0  1  0  0  0  0  0  0
  184.0860  172.1800  136.7000 C   0  0  2  0  0  3  0  0  0  0  0  0
  183.5840  170.7700  136.4700 C   0  0  0  0  0  1  0  0  0  0  0  0
  187.1760  176.2630  136.9970 C   0  0  0  0  0  0  0  0  0  0  0  0
  187.4690  175.1180  137.5940 C   0  0  0  0  0  2  0  0  0  0  0  0
  187.4600  176.4220  135.6470 O   0  0  0  0  0  1  0  0  0  0  0  0
  191.1510  177.5020  139.7840 O   0  0  0  0  0  0  0  0  0  0  0  0
  192.2780  177.5020  140.6070 C   0  0  0  0  0  1  0  0  0  0  0  0
  2  9  2  0  0  0  0
  3  2  1  0  0  0  0
  4  1  1  6  0  0  0
  4 19  1  0  0  0  0
  4 20  1  0  0  0  0
  4 21  1  0  0  0  0
  5  7  1  0  0  0  0
  7  8  1  0  0  0  0
  7  3  2  0  0  0  0
  9 14  1  0  0  0  0
 10  3  1  0  0  0  0
 11 21  1  0  0  0  0
 11 12  2  0  0  0  0
 13 10  2  0  0  0  0
 14 11  1  0  0  0  0
 15  5  2  0  0  0  0
 15 13  1  0  0  0  0
 16 10  1  6  0  0  0
 16  9  1  0  0  0  0
 17  6  2  6  0  0  0
 17 22  1  0  0  0  0
 17  1  1  0  0  0  0
 18 25  1  1  0  0  0
 18 22  1  0  0  0  0
 18 16  1  0  0  0  0
 19 20  1  0  0  0  0
 20 35  1  6  0  0  0
 22 32  1  6  0  0  0
 23 24  2  0  0  0  0
 23 27  1  0  0  0  0
 24 25  1  0  0  0  0
 25 26  1  0  0  0  0
 27 28  1  0  0  0  0
 27 26  2  0  0  0  0
 28 30  1  0  0  0  0
 29 30  1  0  0  0  0
 30 31  1  6  0  0  0
 32 33  2  0  0  0  0
 34 32  1  0  0  0  0
 35 36  1  0  0  0  0
M  END
>  <MODEL>
8

>  <REMARK>
 VINA RESULT:      -4.0      2.779      6.526
  Name = 
  5 active torsions:
  status: ('A' for Active; 'I' for Inactive)
    1  A    between atoms: C_1  and  C_30
    2  A    between atoms: C_1  and  C_36
    3  A    between atoms: N_10  and  C_25
    4  A    between atoms: C_18  and  C_33
    5  A    between atoms: O_27  and  C_28
                            x       y       z     vdW  Elec       q    Type
                         _______ _______ _______ _____ _____    ______ ____

>  <TORSDO>
F 5

$$$$
=
 OpenBabel10222419593D

 36 40  0  0  1  0  0  0  0  0999 V2000
  190.2900  178.5800  145.2350 C   0  0  0  0  0  2  0  0  0  0  0  0
  185.9220  178.8620  141.5850 N   0  0  0  0  0  0  0  0  0  0  0  0
  186.0470  178.6280  140.1970 C   0  0  0  0  0  0  0  0  0  0  0  0
  189.5640  177.3040  145.6870 C   0  0  1  0  0  0  0  0  0  0  0  0
  185.4820  178.6450  137.9050 N   0  0  0  0  0  0  0  0  0  0  0  0
  190.8290  180.1860  143.2190 O   0  0  0  0  0  0  0  0  0  0  0  0
  185.2280  179.0840  139.1700 C   0  0  0  0  0  0  0  0  0  0  0  0
  184.0950  180.0140  139.4340 C   0  0  0  0  0  1  0  0  0  0  0  0
  186.8540  178.1590  142.1550 C   0  0  0  0  0  0  0  0  0  0  0  0
  187.0580  177.7620  139.9260 C   0  0  0  0  0  0  0  0  0  0  0  0
  187.5260  176.9740  144.2850 C   0  0  0  0  0  0  0  0  0  0  0  0
  187.6640  175.8450  143.7430 O   0  0  0  0  0  0  0  0  0  0  0  0
  187.2940  177.3190  138.6650 N   0  0  0  0  0  0  0  0  0  0  0  0
  186.9110  178.0530  143.5800 N   0  0  0  0  0  2  0  0  0  0  0  0
  186.5030  177.7700  137.6500 C   0  0  0  0  0  3  0  0  0  0  0  0
  187.7710  177.4100  141.1890 C   0  0  1  0  0  3  0  0  0  0  0  0
  189.7690  179.1630  143.6040 S   0  0  1  0  0  0  0  0  0  0  0  0
  189.2100  177.9940  141.1540 C   0  0  1  0  0  3  0  0  0  0  0  0
  190.3140  176.0030  145.5080 C   0  0  0  0  0  2  0  0  0  0  0  0
  190.1610  176.5980  146.9010 C   0  0  1  0  0  3  0  0  0  0  0  0
  188.0390  177.2060  145.6670 C   0  0  0  0  0  2  0  0  0  0  0  0
  189.9980  177.7630  142.4680 C   0  0  1  0  0  3  0  0  0  0  0  0
  190.8730  177.4470  137.9580 C   0  0  0  0  0  3  0  0  0  0  0  0
  190.1800  178.2230  138.8710 C   0  0  0  0  0  3  0  0  0  0  0  0
  189.9360  177.4990  139.9810 N   0  0  0  0  0  0  0  0  0  0  0  0
  190.4500  176.2650  139.8210 C   0  0  0  0  0  3  0  0  0  0  0  0
  191.0380  176.2220  138.5780 C   0  0  0  0  0  0  0  0  0  0  0  0
  191.6850  175.0260  137.9690 C   0  0  0  0  0  2  0  0  0  0  0  0
  189.8050  173.5990  137.5930 O   0  0  0  0  0  1  0  0  0  0  0  0
  190.7650  174.3780  136.9460 C   0  0  2  0  0  3  0  0  0  0  0  0
  191.5820  173.4990  136.0230 C   0  0  0  0  0  1  0  0  0  0  0  0
  191.4580  177.4480  142.2910 C   0  0  0  0  0  0  0  0  0  0  0  0
  191.9750  176.3790  142.8770 C   0  0  0  0  0  2  0  0  0  0  0  0
  192.2680  178.2510  141.4970 O   0  0  0  0  0  1  0  0  0  0  0  0
  191.3750  177.1690  147.2920 O   0  0  0  0  0  0  0  0  0  0  0  0
  192.1510  176.0900  147.7140 C   0  0  0  0  0  1  0  0  0  0  0  0
  2  9  2  0  0  0  0
  3  2  1  0  0  0  0
  4  1  1  6  0  0  0
  4 20  1  0  0  0  0
  5  7  1  0  0  0  0
  7  8  1  0  0  0  0
  7  3  2  0  0  0  0
  9 14  1  0  0  0  0
 10  3  1  0  0  0  0
 11 21  1  0  0  0  0
 12 11  2  0  0  0  0
 13 10  2  0  0  0  0
 14 11  1  0  0  0  0
 15  5  2  0  0  0  0
 15 13  1  0  0  0  0
 16 10  1  6  0  0  0
 16  9  1  0  0  0  0
 17  6  2  6  0  0  0
 17  1  1  0  0  0  0
 18 25  1  6  0  0  0
 18 16  1  0  0  0  0
 18 22  1  0  0  0  0
 19  4  1  0  0  0  0
 19 20  1  0  0  0  0
 20 35  1  6  0  0  0
 21  4  1  0  0  0  0
 22 32  1  6  0  0  0
 22 17  1  0  0  0  0
 23 27  1  0  0  0  0
 23 24  2  0  0  0  0
 24 25  1  0  0  0  0
 26 25  1  0  0  0  0
 27 26  2  0  0  0  0
 28 27  1  0  0  0  0
 30 31  1  6  0  0  0
 30 29  1  0  0  0  0
 30 28  1  0  0  0  0
 32 33  2  0  0  0  0
 34 32  1  0  0  0  0
 35 36  1  0  0  0  0
M  END
>  <MODEL>
9

>  <REMARK>
 VINA RESULT:      -3.1      3.809      7.775
  Name = 
  5 active torsions:
  status: ('A' for Active; 'I' for Inactive)
    1  A    between atoms: C_1  and  C_30
    2  A    between atoms: C_1  and  C_36
    3  A    between atoms: N_10  and  C_25
    4  A    between atoms: C_18  and  C_33
    5  A    between atoms: O_27  and  C_28
                            x       y       z     vdW  Elec       q    Type
                         _______ _______ _______ _____ _____    ______ ____

>  <TORSDO>
F 5

$$$$
