=
 OpenBabel10222418383D

 66 73  0  0  1  0  0  0  0  0999 V2000
  184.8580  178.4300  142.7630 C   0  0  2  0  0  3  0  0  0  0  0  0
  184.9630  178.6540  144.2360 C   0  0  0  0  0  0  0  0  0  0  0  0
  186.1600  179.1120  144.7920 O   0  0  0  0  0  0  0  0  0  0  0  0
  186.3600  179.3910  146.1810 C   0  0  0  0  0  0  0  0  0  0  0  0
  186.2910  178.1060  146.9870 C   0  0  2  0  0  3  0  0  0  0  0  0
  185.1470  179.1010  147.0770 C   0  0  0  0  0  0  0  0  0  0  0  0
  183.9190  178.4090  145.0100 C   0  0  0  0  0  3  0  0  0  0  0  0
  183.9980  178.5940  146.3910 O   0  0  0  0  0  0  0  0  0  0  0  0
  187.1810  178.2350  148.2050 C   0  0  0  0  0  2  0  0  0  0  0  0
  188.2200  177.1330  148.1980 C   0  0  0  0  0  2  0  0  0  0  0  0
  189.3590  177.5210  147.2770 C   0  0  0  0  0  2  0  0  0  0  0  0
  190.6870  177.1120  147.8930 C   0  0  0  0  0  2  0  0  0  0  0  0
  192.6010  175.8500  147.4780 C   0  0  0  0  0  1  0  0  0  0  0  0
  191.1590  175.8740  147.2920 N   0  0  0  0  0  0  0  0  0  0  0  0
  191.5390  177.1920  145.3530 N   0  0  0  0  0  0  0  0  0  0  0  0
  190.9220  175.9830  145.8610 C   0  0  1  0  0  3  0  0  0  0  0  0
  192.1090  175.9380  145.1920 O   0  0  0  0  0  0  0  0  0  0  0  0
  190.9100  177.6150  144.0840 C   0  0  0  0  0  0  0  0  0  0  0  0
  189.5080  177.6160  144.1470 O   0  0  0  0  0  1  0  0  0  0  0  0
  191.3080  176.7380  143.0730 O   0  0  0  0  0  1  0  0  0  0  0  0
  191.3810  179.0200  143.7240 C   0  0  0  0  0  2  0  0  0  0  0  0
  192.4970  179.3650  144.4670 F   0  0  0  0  0  0  0  0  0  0  0  0
  185.8580  178.9950  140.5540 C   0  0  0  0  0  2  0  0  0  0  0  0
  186.7190  177.9240  141.1970 C   0  0  2  0  0  3  0  0  0  0  0  0
  186.0780  179.0020  142.0550 C   0  0  2  0  0  3  0  0  0  0  0  0
  188.1190  178.2480  141.0020 N   0  0  0  0  0  2  0  0  0  0  0  0
  188.3330  178.3510  139.5700 C   0  0  0  0  0  2  0  0  0  0  0  0
  191.1160  175.5610  137.7480 C   0  0  2  0  0  3  0  0  0  0  0  0
  188.2780  177.0270  138.9760 N   0  0  0  0  0  2  0  0  0  0  0  0
  189.4540  176.4080  138.4620 C   0  0  0  0  0  0  0  0  0  0  0  0
  189.7120  175.2270  137.8720 N   0  0  0  0  0  0  0  0  0  0  0  0
  190.8960  176.8230  138.3310 C   0  0  1  0  0  3  0  0  0  0  0  0
  191.1280  178.1340  140.3190 F   0  0  0  0  0  0  0  0  0  0  0  0
  191.5970  176.9950  139.6890 C   0  0  2  0  0  3  0  0  0  0  0  0
  193.4240  177.0450  139.6200 S   0  0  0  0  0  1  0  0  0  0  0  0
  191.4900  175.7240  136.2810 C   0  0  0  0  0  2  0  0  0  0  0  0
  192.8630  175.1230  136.0020 C   0  0  2  0  0  3  0  0  0  0  0  0
  195.0840  175.6060  135.2190 O   0  0  0  0  0  0  0  0  0  0  0  0
  194.9070  176.3810  136.2990 O   0  0  0  0  0  0  0  0  0  0  0  0
  193.8440  176.1680  135.4420 C   0  0  0  0  0  3  0  0  0  0  0  0
  192.7350  174.0150  135.1580 O   0  0  0  0  0  0  0  0  0  0  0  0
  192.7360  172.9120  136.0130 C   0  0  0  0  0  2  0  0  0  0  0  0
  193.5720  173.1580  137.0850 F   0  0  0  0  0  0  0  0  0  0  0  0
  183.7010  179.0460  142.2770 O   0  0  0  0  0  0  0  0  0  0  0  0
  182.9260  178.0070  141.7520 C   0  0  0  0  0  2  0  0  0  0  0  0
  181.7590  178.5810  140.9700 C   0  0  0  0  0  2  0  0  0  0  0  0
  181.4780  177.7560  139.8480 O   0  0  0  0  0  0  0  0  0  0  0  0
  179.5320  176.7910  140.6280 O   0  0  0  0  0  0  0  0  0  0  0  0
  179.7040  177.0330  138.3290 N   0  0  0  0  0  2  0  0  0  0  0  0
  180.2150  177.1940  139.6490 C   0  0  0  0  0  0  0  0  0  0  0  0
  185.0230  175.8330  136.9970 C   0  0  0  0  0  1  0  0  0  0  0  0
  181.8950  174.4040  135.3640 C   0  0  2  0  0  3  0  0  0  0  0  0
  184.2010  174.3630  134.5990 O   0  0  0  0  0  0  0  0  0  0  0  0
  183.3450  174.7370  135.4460 C   0  0  0  0  0  0  0  0  0  0  0  0
  180.7740  176.8800  134.8690 O   0  0  0  0  0  1  0  0  0  0  0  0
  182.4880  175.8000  137.3450 C   0  0  2  0  0  3  0  0  0  0  0  0
  180.4700  177.4250  137.1550 C   0  0  1  0  0  3  0  0  0  0  0  0
  182.2210  177.5850  137.6080 S   0  0  0  0  0  0  0  0  0  0  0  0
  180.3820  176.3440  136.1000 C   0  0  2  0  0  3  0  0  0  0  0  0
  183.6690  175.5670  136.5440 N   0  0  0  0  0  0  0  0  0  0  0  0
  181.3180  175.2170  136.5400 C   0  0  1  0  0  3  0  0  0  0  0  0
  181.6120  172.9050  135.5750 C   0  0  2  0  0  3  0  0  0  0  0  0
  180.1260  172.5960  135.4620 C   0  0  0  0  0  1  0  0  0  0  0  0
  182.0620  172.4540  136.9610 C   0  0  0  0  0  2  0  0  0  0  0  0
  182.9510  171.2200  136.9120 C   0  0  0  0  0  2  0  0  0  0  0  0
  184.2980  171.5890  136.9400 O   0  0  0  0  0  1  0  0  0  0  0  0
  1 44  1  6  0  0  0
  1  2  1  0  0  0  0
  2  3  1  0  0  0  0
  2  7  2  0  0  0  0
  3  4  1  0  0  0  0
  4  5  1  0  0  0  0
  4  6  2  0  0  0  0
  5  6  1  0  0  0  0
  5  9  1  1  0  0  0
  7  8  1  0  0  0  0
  8  6  1  0  0  0  0
 10  9  1  0  0  0  0
 11 12  1  0  0  0  0
 11 10  1  0  0  0  0
 14 13  1  0  0  0  0
 14 12  1  0  0  0  0
 15 16  1  0  0  0  0
 16 14  1  1  0  0  0
 17 15  1  0  0  0  0
 17 16  1  0  0  0  0
 18 19  1  0  0  0  0
 18 15  1  0  0  0  0
 20 18  1  0  0  0  0
 21 18  1  0  0  0  0
 21 22  1  0  0  0  0
 23 24  1  0  0  0  0
 23 25  1  0  0  0  0
 24 26  1  6  0  0  0
 24 25  1  0  0  0  0
 25  1  1  1  0  0  0
 27 26  1  0  0  0  0
 28 36  1  6  0  0  0
 28 31  1  0  0  0  0
 28 32  1  0  0  0  0
 29 27  1  0  0  0  0
 30 29  1  0  0  0  0
 31 30  2  0  0  0  0
 32 30  1  0  0  0  0
 32 34  1  1  0  0  0
 34 35  1  6  0  0  0
 34 33  1  0  0  0  0
 37 36  1  6  0  0  0
 38 40  1  0  0  0  0
 38 39  1  0  0  0  0
 40 37  1  0  0  0  0
 40 39  1  0  0  0  0
 41 37  1  0  0  0  0
 41 42  1  0  0  0  0
 42 43  1  0  0  0  0
 45 44  1  0  0  0  0
 46 45  1  0  0  0  0
 47 46  1  0  0  0  0
 49 50  1  0  0  0  0
 50 47  1  0  0  0  0
 50 48  2  0  0  0  0
 52 54  1  0  0  0  0
 52 62  1  1  0  0  0
 52 61  1  0  0  0  0
 53 54  2  0  0  0  0
 54 60  1  0  0  0  0
 56 58  1  6  0  0  0
 57 58  1  0  0  0  0
 57 49  1  1  0  0  0
 59 55  1  6  0  0  0
 59 61  1  0  0  0  0
 59 57  1  0  0  0  0
 60 51  1  0  0  0  0
 60 56  1  0  0  0  0
 61 56  1  0  0  0  0
 62 64  1  0  0  0  0
 63 62  1  0  0  0  0
 65 66  1  0  0  0  0
 65 64  1  0  0  0  0
M  END
>  <MODEL>
1

>  <REMARK>
 VINA RESULT:      -5.4      0.000      0.000
  Name = 
  28 active torsions:
  status: ('A' for Active; 'I' for Inactive)
    1  A    between atoms: C_1  and  C_34
    2  A    between atoms: C_2  and  O_12
    3  A    between atoms: C_2  and  C_27
    4  A    between atoms: C_2  and  C_52
    5  A    between atoms: O_3  and  C_32
    6  A    between atoms: O_3  and  C_34
    7  A    between atoms: C_5  and  C_18
    8  A    between atoms: C_5  and  N_55
    9  A    between atoms: C_7  and  C_17
   10  A    between atoms: C_7  and  C_25
   11  A    between atoms: C_9  and  C_11
   12  A    between atoms: C_9  and  C_14
   13  A    between atoms: C_10  and  C_24
   14  A    between atoms: C_11  and  C_18
   15  A    between atoms: O_12  and  C_53
   16  A    between atoms: C_13  and  N_22
   17  A    between atoms: C_13  and  N_33
   18  A    between atoms: N_15  and  C_24
   19  A    between atoms: C_19  and  C_27
   20  A    between atoms: C_25  and  C_54
   21  A    between atoms: O_28  and  C_49
   22  A    between atoms: O_28  and  C_65
   23  A    between atoms: C_32  and  C_49
   24  A    between atoms: N_33  and  C_43
   25  A    between atoms: C_34  and  C_59
   26  A    between atoms: C_35  and  C_61
   27  A    between atoms: C_45  and  N_63
   28  A    between atoms: C_46  and  N_55
                            x       y       z     vdW  Elec       q    Type
                         _______ _______ _______ _____ _____    ______ ____

>  <TORSDO>
F 28

$$$$
=
 OpenBabel10222418383D

 66 73  0  0  1  0  0  0  0  0999 V2000
  186.6190  178.4250  139.5170 C   0  0  2  0  0  3  0  0  0  0  0  0
  186.6610  178.2640  141.0020 C   0  0  0  0  0  0  0  0  0  0  0  0
  185.4750  178.1320  141.7270 O   0  0  0  0  0  0  0  0  0  0  0  0
  185.4010  177.9400  143.1430 C   0  0  0  0  0  0  0  0  0  0  0  0
  185.8930  179.1820  143.8650 C   0  0  2  0  0  3  0  0  0  0  0  0
  186.7580  177.9330  143.8630 C   0  0  0  0  0  0  0  0  0  0  0  0
  187.8280  178.2540  141.6250 C   0  0  0  0  0  3  0  0  0  0  0  0
  187.8930  178.1230  143.0120 O   0  0  0  0  0  0  0  0  0  0  0  0
  185.1710  179.3040  145.1910 C   0  0  0  0  0  2  0  0  0  0  0  0
  185.4700  178.0920  146.0480 C   0  0  0  0  0  2  0  0  0  0  0  0
  186.6220  178.4050  146.9800 C   0  0  0  0  0  2  0  0  0  0  0  0
  187.1810  177.1190  147.5660 C   0  0  0  0  0  2  0  0  0  0  0  0
  188.4690  178.6030  148.8170 C   0  0  0  0  0  1  0  0  0  0  0  0
  188.5190  177.3460  148.0890 N   0  0  0  0  0  0  0  0  0  0  0  0
  190.0890  176.3280  146.6260 N   0  0  0  0  0  0  0  0  0  0  0  0
  189.3900  177.5570  146.9440 C   0  0  1  0  0  3  0  0  0  0  0  0
  188.9870  176.7680  145.9070 O   0  0  0  0  0  0  0  0  0  0  0  0
  191.3220  176.6030  145.8580 C   0  0  0  0  0  0  0  0  0  0  0  0
  192.3930  175.7800  146.2390 O   0  0  0  0  0  1  0  0  0  0  0  0
  191.6900  177.9340  146.0650 O   0  0  0  0  0  1  0  0  0  0  0  0
  191.0550  176.3960  144.3720 C   0  0  0  0  0  2  0  0  0  0  0  0
  191.6600  175.2330  143.9250 F   0  0  0  0  0  0  0  0  0  0  0  0
  184.9700  178.6890  137.6700 C   0  0  0  0  0  2  0  0  0  0  0  0
  184.3150  179.1620  138.9540 C   0  0  2  0  0  3  0  0  0  0  0  0
  185.2680  177.9790  138.9770 C   0  0  2  0  0  3  0  0  0  0  0  0
  182.9520  178.6700  139.0100 N   0  0  0  0  0  2  0  0  0  0  0  0
  182.1180  179.6590  138.3520 C   0  0  0  0  0  2  0  0  0  0  0  0
  181.0040  175.7680  136.7820 C   0  0  2  0  0  3  0  0  0  0  0  0
  181.6220  179.1180  137.0990 N   0  0  0  0  0  2  0  0  0  0  0  0
  181.3620  177.7250  136.9570 C   0  0  0  0  0  0  0  0  0  0  0  0
  180.9100  176.9520  135.9530 N   0  0  0  0  0  0  0  0  0  0  0  0
  181.5100  176.5240  137.8550 C   0  0  1  0  0  3  0  0  0  0  0  0
  181.3030  176.5190  140.2390 F   0  0  0  0  0  0  0  0  0  0  0  0
  180.5670  176.5630  139.0690 C   0  0  2  0  0  3  0  0  0  0  0  0
  179.2900  175.2540  139.1030 S   0  0  0  0  0  1  0  0  0  0  0  0
  182.0840  174.8360  136.2480 C   0  0  0  0  0  2  0  0  0  0  0  0
  181.7870  173.3890  136.6270 C   0  0  2  0  0  3  0  0  0  0  0  0
  182.6900  171.1620  136.6650 O   0  0  0  0  0  0  0  0  0  0  0  0
  183.3650  171.8400  137.6050 O   0  0  0  0  0  0  0  0  0  0  0  0
  183.0160  172.4820  136.4330 C   0  0  0  0  0  3  0  0  0  0  0  0
  180.6750  172.9290  135.9150 O   0  0  0  0  0  0  0  0  0  0  0  0
  179.7970  172.4560  136.8910 C   0  0  0  0  0  2  0  0  0  0  0  0
  179.5770  171.1060  136.6990 F   0  0  0  0  0  0  0  0  0  0  0  0
  187.6330  177.6610  138.9340 O   0  0  0  0  0  0  0  0  0  0  0  0
  188.4720  178.5860  138.3040 C   0  0  0  0  0  2  0  0  0  0  0  0
  189.2780  177.8950  137.2190 C   0  0  0  0  0  2  0  0  0  0  0  0
  190.6080  177.6810  137.6690 O   0  0  0  0  0  0  0  0  0  0  0  0
  190.7400  177.0360  139.8800 O   0  0  0  0  0  0  0  0  0  0  0  0
  191.4400  175.4750  138.3150 N   0  0  0  0  0  2  0  0  0  0  0  0
  190.9050  176.7480  138.6650 C   0  0  0  0  0  0  0  0  0  0  0  0
  196.1780  176.0120  135.3550 C   0  0  0  0  0  1  0  0  0  0  0  0
  194.6840  172.7720  136.6790 C   0  0  2  0  0  3  0  0  0  0  0  0
  196.4160  173.1120  135.0090 O   0  0  0  0  0  0  0  0  0  0  0  0
  195.5620  173.5950  135.8030 C   0  0  0  0  0  0  0  0  0  0  0  0
  192.1940  173.2270  135.5730 O   0  0  0  0  0  1  0  0  0  0  0  0
  194.3040  175.2270  136.9090 C   0  0  2  0  0  3  0  0  0  0  0  0
  191.7090  175.1070  136.9330 C   0  0  1  0  0  3  0  0  0  0  0  0
  192.9450  176.2420  136.2390 S   0  0  0  0  0  0  0  0  0  0  0  0
  192.3040  173.7160  136.8790 C   0  0  2  0  0  3  0  0  0  0  0  0
  195.3120  174.9830  135.9020 N   0  0  0  0  0  0  0  0  0  0  0  0
  193.7680  173.8430  137.3040 C   0  0  1  0  0  3  0  0  0  0  0  0
  195.4610  172.0380  137.7880 C   0  0  2  0  0  3  0  0  0  0  0  0
  196.9620  172.2500  137.6520 C   0  0  0  0  0  1  0  0  0  0  0  0
  195.2110  170.5340  137.7280 C   0  0  0  0  0  2  0  0  0  0  0  0
  194.4450  170.1210  136.4800 C   0  0  0  0  0  2  0  0  0  0  0  0
  195.3240  169.6360  135.5080 O   0  0  0  0  0  1  0  0  0  0  0  0
  1 44  1  6  0  0  0
  1  2  1  0  0  0  0
  2  7  2  0  0  0  0
  2  3  1  0  0  0  0
  3  4  1  0  0  0  0
  4  6  2  0  0  0  0
  4  5  1  0  0  0  0
  5  9  1  1  0  0  0
  6  5  1  0  0  0  0
  7  8  1  0  0  0  0
  8  6  1  0  0  0  0
  9 10  1  0  0  0  0
 10 11  1  0  0  0  0
 11 12  1  0  0  0  0
 12 14  1  0  0  0  0
 14 13  1  0  0  0  0
 15 16  1  0  0  0  0
 16 14  1  1  0  0  0
 17 15  1  0  0  0  0
 17 16  1  0  0  0  0
 18 20  1  0  0  0  0
 18 19  1  0  0  0  0
 18 15  1  0  0  0  0
 21 18  1  0  0  0  0
 22 21  1  0  0  0  0
 23 24  1  0  0  0  0
 23 25  1  0  0  0  0
 24 25  1  0  0  0  0
 24 26  1  6  0  0  0
 25  1  1  1  0  0  0
 27 26  1  0  0  0  0
 28 36  1  6  0  0  0
 28 32  1  0  0  0  0
 29 27  1  0  0  0  0
 30 29  1  0  0  0  0
 30 32  1  0  0  0  0
 31 28  1  0  0  0  0
 31 30  2  0  0  0  0
 32 34  1  1  0  0  0
 34 35  1  6  0  0  0
 34 33  1  0  0  0  0
 37 36  1  6  0  0  0
 38 39  1  0  0  0  0
 40 37  1  0  0  0  0
 40 38  1  0  0  0  0
 40 39  1  0  0  0  0
 41 37  1  0  0  0  0
 41 42  1  0  0  0  0
 43 42  1  0  0  0  0
 45 44  1  0  0  0  0
 46 47  1  0  0  0  0
 46 45  1  0  0  0  0
 47 50  1  0  0  0  0
 49 50  1  0  0  0  0
 50 48  2  0  0  0  0
 51 60  1  0  0  0  0
 52 61  1  0  0  0  0
 52 62  1  1  0  0  0
 53 54  2  0  0  0  0
 54 60  1  0  0  0  0
 54 52  1  0  0  0  0
 56 58  1  6  0  0  0
 56 61  1  0  0  0  0
 57 49  1  1  0  0  0
 58 57  1  0  0  0  0
 59 55  1  6  0  0  0
 59 57  1  0  0  0  0
 59 61  1  0  0  0  0
 60 56  1  0  0  0  0
 63 62  1  0  0  0  0
 64 62  1  0  0  0  0
 65 64  1  0  0  0  0
 66 65  1  0  0  0  0
M  END
>  <MODEL>
2

>  <REMARK>
 VINA RESULT:      -5.3      3.260      9.149
  Name = 
  28 active torsions:
  status: ('A' for Active; 'I' for Inactive)
    1  A    between atoms: C_1  and  C_34
    2  A    between atoms: C_2  and  O_12
    3  A    between atoms: C_2  and  C_27
    4  A    between atoms: C_2  and  C_52
    5  A    between atoms: O_3  and  C_32
    6  A    between atoms: O_3  and  C_34
    7  A    between atoms: C_5  and  C_18
    8  A    between atoms: C_5  and  N_55
    9  A    between atoms: C_7  and  C_17
   10  A    between atoms: C_7  and  C_25
   11  A    between atoms: C_9  and  C_11
   12  A    between atoms: C_9  and  C_14
   13  A    between atoms: C_10  and  C_24
   14  A    between atoms: C_11  and  C_18
   15  A    between atoms: O_12  and  C_53
   16  A    between atoms: C_13  and  N_22
   17  A    between atoms: C_13  and  N_33
   18  A    between atoms: N_15  and  C_24
   19  A    between atoms: C_19  and  C_27
   20  A    between atoms: C_25  and  C_54
   21  A    between atoms: O_28  and  C_49
   22  A    between atoms: O_28  and  C_65
   23  A    between atoms: C_32  and  C_49
   24  A    between atoms: N_33  and  C_43
   25  A    between atoms: C_34  and  C_59
   26  A    between atoms: C_35  and  C_61
   27  A    between atoms: C_45  and  N_63
   28  A    between atoms: C_46  and  N_55
                            x       y       z     vdW  Elec       q    Type
                         _______ _______ _______ _____ _____    ______ ____

>  <TORSDO>
F 28

$$$$
=
 OpenBabel10222418383D

 66 73  0  0  1  0  0  0  0  0999 V2000
  185.1220  179.0140  141.7710 C   0  0  2  0  0  3  0  0  0  0  0  0
  186.3450  178.3680  141.2040 C   0  0  0  0  0  0  0  0  0  0  0  0
  187.1000  177.4910  141.9850 O   0  0  0  0  0  0  0  0  0  0  0  0
  188.2660  176.7950  141.5340 C   0  0  0  0  0  0  0  0  0  0  0  0
  189.3910  177.7790  141.2650 C   0  0  2  0  0  3  0  0  0  0  0  0
  188.6890  177.1140  140.0920 C   0  0  0  0  0  0  0  0  0  0  0  0
  186.7090  178.6380  139.9620 C   0  0  0  0  0  3  0  0  0  0  0  0
  187.8560  178.0620  139.4160 O   0  0  0  0  0  0  0  0  0  0  0  0
  190.7190  177.0970  141.5210 C   0  0  0  0  0  2  0  0  0  0  0  0
  191.7990  177.7540  140.6870 C   0  0  0  0  0  2  0  0  0  0  0  0
  191.6860  177.2800  139.2520 C   0  0  0  0  0  2  0  0  0  0  0  0
  192.8170  176.3150  138.9340 C   0  0  0  0  0  2  0  0  0  0  0  0
  191.7530  175.8240  136.9200 C   0  0  0  0  0  1  0  0  0  0  0  0
  193.0220  176.2400  137.4950 N   0  0  0  0  0  0  0  0  0  0  0  0
  195.1440  175.6700  136.5930 N   0  0  0  0  0  0  0  0  0  0  0  0
  193.9640  175.1570  137.2610 C   0  0  1  0  0  3  0  0  0  0  0  0
  195.1170  175.3910  137.9510 O   0  0  0  0  0  0  0  0  0  0  0  0
  195.8610  174.5920  135.8810 C   0  0  0  0  0  0  0  0  0  0  0  0
  195.3520  174.3590  134.5940 O   0  0  0  0  0  1  0  0  0  0  0  0
  195.7460  173.4130  136.6220 O   0  0  0  0  0  1  0  0  0  0  0  0
  197.3380  174.9510  135.7620 C   0  0  0  0  0  2  0  0  0  0  0  0
  197.4960  176.3200  135.6240 F   0  0  0  0  0  0  0  0  0  0  0  0
  183.5700  179.0970  143.7160 C   0  0  0  0  0  2  0  0  0  0  0  0
  184.9530  179.4890  144.2030 C   0  0  2  0  0  3  0  0  0  0  0  0
  184.7970  178.4200  143.1340 C   0  0  2  0  0  3  0  0  0  0  0  0
  185.2170  178.8460  145.4770 N   0  0  0  0  0  2  0  0  0  0  0  0
  186.5420  178.2640  145.3900 C   0  0  0  0  0  2  0  0  0  0  0  0
  190.3290  177.0870  147.1590 C   0  0  2  0  0  3  0  0  0  0  0  0
  187.0910  178.1060  146.7250 N   0  0  0  0  0  2  0  0  0  0  0  0
  188.4380  177.6820  146.9160 C   0  0  0  0  0  0  0  0  0  0  0  0
  189.2050  177.4530  147.9970 N   0  0  0  0  0  0  0  0  0  0  0  0
  189.5610  177.2810  145.9960 C   0  0  1  0  0  3  0  0  0  0  0  0
  189.1890  178.6550  144.0720 F   0  0  0  0  0  0  0  0  0  0  0  0
  190.0640  178.4420  145.1220 C   0  0  2  0  0  3  0  0  0  0  0  0
  191.7620  178.2450  144.4710 S   0  0  0  0  0  1  0  0  0  0  0  0
  190.6510  175.6090  147.3280 C   0  0  0  0  0  2  0  0  0  0  0  0
  192.0600  175.4210  147.8790 C   0  0  2  0  0  3  0  0  0  0  0  0
  193.8330  176.6800  148.9050 O   0  0  0  0  0  0  0  0  0  0  0  0
  193.1760  176.0940  149.9160 O   0  0  0  0  0  0  0  0  0  0  0  0
  192.4610  176.5620  148.8320 C   0  0  0  0  0  3  0  0  0  0  0  0
  192.9680  175.2700  146.8260 O   0  0  0  0  0  0  0  0  0  0  0  0
  192.2010  174.8080  145.7560 C   0  0  0  0  0  2  0  0  0  0  0  0
  192.8390  173.7400  145.1570 F   0  0  0  0  0  0  0  0  0  0  0  0
  184.0440  178.8180  140.9040 O   0  0  0  0  0  0  0  0  0  0  0  0
  184.3150  179.6250  139.7950 C   0  0  0  0  0  2  0  0  0  0  0  0
  183.0360  179.8780  139.0180 C   0  0  0  0  0  2  0  0  0  0  0  0
  182.6060  178.6770  138.3930 O   0  0  0  0  0  0  0  0  0  0  0  0
  181.3630  179.6560  136.7130 O   0  0  0  0  0  0  0  0  0  0  0  0
  180.6790  177.5480  137.3970 N   0  0  0  0  0  2  0  0  0  0  0  0
  181.5600  178.6660  137.4670 C   0  0  0  0  0  0  0  0  0  0  0  0
  181.1700  172.1080  136.1050 C   0  0  0  0  0  1  0  0  0  0  0  0
  183.9160  174.3820  137.4380 C   0  0  2  0  0  3  0  0  0  0  0  0
  183.8410  171.9570  137.2990 O   0  0  0  0  0  0  0  0  0  0  0  0
  183.2750  173.0720  137.1360 C   0  0  0  0  0  0  0  0  0  0  0  0
  182.4280  175.2570  139.5950 O   0  0  0  0  0  1  0  0  0  0  0  0
  181.5810  174.5880  136.5830 C   0  0  2  0  0  3  0  0  0  0  0  0
  180.8210  176.4010  138.2810 C   0  0  1  0  0  3  0  0  0  0  0  0
  180.0520  174.9490  137.5090 S   0  0  0  0  0  0  0  0  0  0  0  0
  182.2870  176.0770  138.4710 C   0  0  2  0  0  3  0  0  0  0  0  0
  181.9360  173.1910  136.6970 N   0  0  0  0  0  0  0  0  0  0  0  0
  182.7530  175.3660  137.1990 C   0  0  1  0  0  3  0  0  0  0  0  0
  185.0820  174.7120  136.4870 C   0  0  2  0  0  3  0  0  0  0  0  0
  184.9270  174.0070  135.1480 C   0  0  0  0  0  1  0  0  0  0  0  0
  186.4140  174.2650  137.0810 C   0  0  0  0  0  2  0  0  0  0  0  0
  187.3540  173.6860  136.0350 C   0  0  0  0  0  2  0  0  0  0  0  0
  188.6450  174.1930  136.2050 O   0  0  0  0  0  1  0  0  0  0  0  0
  1 44  1  6  0  0  0
  2  1  1  0  0  0  0
  2  3  1  0  0  0  0
  4  3  1  0  0  0  0
  5  9  1  1  0  0  0
  5  4  1  0  0  0  0
  6  5  1  0  0  0  0
  6  4  2  0  0  0  0
  7  2  2  0  0  0  0
  8  7  1  0  0  0  0
  8  6  1  0  0  0  0
 10  9  1  0  0  0  0
 11 10  1  0  0  0  0
 12 11  1  0  0  0  0
 13 14  1  0  0  0  0
 14 12  1  0  0  0  0
 15 16  1  0  0  0  0
 15 17  1  0  0  0  0
 16 14  1  1  0  0  0
 16 17  1  0  0  0  0
 18 15  1  0  0  0  0
 18 20  1  0  0  0  0
 19 18  1  0  0  0  0
 21 18  1  0  0  0  0
 22 21  1  0  0  0  0
 23 24  1  0  0  0  0
 24 26  1  1  0  0  0
 25  1  1  6  0  0  0
 25 23  1  0  0  0  0
 25 24  1  0  0  0  0
 27 26  1  0  0  0  0
 27 29  1  0  0  0  0
 28 36  1  1  0  0  0
 28 31  1  0  0  0  0
 29 30  1  0  0  0  0
 30 31  2  0  0  0  0
 32 34  1  6  0  0  0
 32 30  1  0  0  0  0
 32 28  1  0  0  0  0
 34 33  1  6  0  0  0
 35 34  1  0  0  0  0
 37 36  1  6  0  0  0
 37 40  1  0  0  0  0
 38 39  1  0  0  0  0
 40 38  1  0  0  0  0
 40 39  1  0  0  0  0
 41 37  1  0  0  0  0
 42 41  1  0  0  0  0
 43 42  1  0  0  0  0
 45 44  1  0  0  0  0
 46 45  1  0  0  0  0
 47 46  1  0  0  0  0
 48 50  2  0  0  0  0
 49 50  1  0  0  0  0
 50 47  1  0  0  0  0
 51 60  1  0  0  0  0
 52 62  1  6  0  0  0
 54 53  2  0  0  0  0
 54 52  1  0  0  0  0
 56 60  1  0  0  0  0
 56 61  1  0  0  0  0
 56 58  1  1  0  0  0
 57 49  1  6  0  0  0
 57 59  1  0  0  0  0
 58 57  1  0  0  0  0
 59 55  1  1  0  0  0
 60 54  1  0  0  0  0
 61 52  1  0  0  0  0
 61 59  1  0  0  0  0
 62 64  1  0  0  0  0
 63 62  1  0  0  0  0
 65 66  1  0  0  0  0
 65 64  1  0  0  0  0
M  END
>  <MODEL>
3

>  <REMARK>
 VINA RESULT:      -5.3      2.662      7.314
  Name = 
  28 active torsions:
  status: ('A' for Active; 'I' for Inactive)
    1  A    between atoms: C_1  and  C_34
    2  A    between atoms: C_2  and  O_12
    3  A    between atoms: C_2  and  C_27
    4  A    between atoms: C_2  and  C_52
    5  A    between atoms: O_3  and  C_32
    6  A    between atoms: O_3  and  C_34
    7  A    between atoms: C_5  and  C_18
    8  A    between atoms: C_5  and  N_55
    9  A    between atoms: C_7  and  C_17
   10  A    between atoms: C_7  and  C_25
   11  A    between atoms: C_9  and  C_11
   12  A    between atoms: C_9  and  C_14
   13  A    between atoms: C_10  and  C_24
   14  A    between atoms: C_11  and  C_18
   15  A    between atoms: O_12  and  C_53
   16  A    between atoms: C_13  and  N_22
   17  A    between atoms: C_13  and  N_33
   18  A    between atoms: N_15  and  C_24
   19  A    between atoms: C_19  and  C_27
   20  A    between atoms: C_25  and  C_54
   21  A    between atoms: O_28  and  C_49
   22  A    between atoms: O_28  and  C_65
   23  A    between atoms: C_32  and  C_49
   24  A    between atoms: N_33  and  C_43
   25  A    between atoms: C_34  and  C_59
   26  A    between atoms: C_35  and  C_61
   27  A    between atoms: C_45  and  N_63
   28  A    between atoms: C_46  and  N_55
                            x       y       z     vdW  Elec       q    Type
                         _______ _______ _______ _____ _____    ______ ____

>  <TORSDO>
F 28

$$$$
=
 OpenBabel10222418383D

 66 73  0  0  1  0  0  0  0  0999 V2000
  188.4330  176.5740  138.6840 C   0  0  2  0  0  3  0  0  0  0  0  0
  189.1720  176.2170  137.4350 C   0  0  0  0  0  0  0  0  0  0  0  0
  190.0750  175.1530  137.4350 O   0  0  0  0  0  0  0  0  0  0  0  0
  190.8100  174.7060  136.2910 C   0  0  0  0  0  0  0  0  0  0  0  0
  191.8110  175.7660  135.8660 C   0  0  2  0  0  3  0  0  0  0  0  0
  190.5760  175.5280  135.0140 C   0  0  0  0  0  0  0  0  0  0  0  0
  188.9700  176.9210  136.3330 C   0  0  0  0  0  3  0  0  0  0  0  0
  189.6610  176.6190  135.1600 O   0  0  0  0  0  0  0  0  0  0  0  0
  193.0100  175.0910  135.2320 C   0  0  0  0  0  2  0  0  0  0  0  0
  193.9010  174.5130  136.3110 C   0  0  0  0  0  2  0  0  0  0  0  0
  194.0430  173.0190  136.1010 C   0  0  0  0  0  2  0  0  0  0  0  0
  195.2980  172.5150  136.7930 C   0  0  0  0  0  2  0  0  0  0  0  0
  197.3090  172.9360  135.6960 C   0  0  0  0  0  1  0  0  0  0  0  0
  196.3710  173.4880  136.6600 N   0  0  0  0  0  0  0  0  0  0  0  0
  196.8240  174.8110  138.5800 N   0  0  0  0  0  0  0  0  0  0  0  0
  197.0600  173.5320  137.9400 C   0  0  1  0  0  3  0  0  0  0  0  0
  196.1520  173.6550  138.9490 O   0  0  0  0  0  0  0  0  0  0  0  0
  197.8760  175.1090  139.5730 C   0  0  0  0  0  0  0  0  0  0  0  0
  198.5980  176.2730  139.2660 O   0  0  0  0  0  1  0  0  0  0  0  0
  198.7670  174.0350  139.6180 O   0  0  0  0  0  1  0  0  0  0  0  0
  197.2460  175.2770  140.9510 C   0  0  0  0  0  2  0  0  0  0  0  0
  198.2240  175.3240  141.9310 F   0  0  0  0  0  0  0  0  0  0  0  0
  187.3250  178.4720  139.8540 C   0  0  0  0  0  2  0  0  0  0  0  0
  186.2760  177.7580  139.0200 C   0  0  2  0  0  3  0  0  0  0  0  0
  187.6980  177.8940  138.5010 C   0  0  2  0  0  3  0  0  0  0  0  0
  185.4370  178.7380  138.3580 N   0  0  0  0  0  2  0  0  0  0  0  0
  185.0550  178.1720  137.0780 C   0  0  0  0  0  2  0  0  0  0  0  0
  181.1930  176.9360  138.6300 C   0  0  2  0  0  3  0  0  0  0  0  0
  184.3430  176.9250  137.2930 N   0  0  0  0  0  2  0  0  0  0  0  0
  183.0310  176.9190  137.8490 C   0  0  0  0  0  0  0  0  0  0  0  0
  182.1460  175.9540  138.1560 N   0  0  0  0  0  0  0  0  0  0  0  0
  182.0930  177.9820  138.3580 C   0  0  1  0  0  3  0  0  0  0  0  0
  181.8260  180.2450  137.6250 F   0  0  0  0  0  0  0  0  0  0  0  0
  181.6050  178.9320  137.2510 C   0  0  2  0  0  3  0  0  0  0  0  0
  179.8540  178.7220  136.7640 S   0  0  0  0  0  1  0  0  0  0  0  0
  180.9970  176.7960  140.1330 C   0  0  0  0  0  2  0  0  0  0  0  0
  179.5300  176.9710  140.5080 C   0  0  2  0  0  3  0  0  0  0  0  0
  178.9410  179.2860  140.2380 O   0  0  0  0  0  0  0  0  0  0  0  0
  180.1740  179.2880  140.7650 O   0  0  0  0  0  0  0  0  0  0  0  0
  179.2680  178.3320  141.1790 C   0  0  0  0  0  3  0  0  0  0  0  0
  179.1110  175.9010  141.3040 O   0  0  0  0  0  0  0  0  0  0  0  0
  179.5910  174.7630  140.6560 C   0  0  0  0  0  2  0  0  0  0  0  0
  179.8740  173.7840  141.5880 F   0  0  0  0  0  0  0  0  0  0  0  0
  189.3340  176.6810  139.7460 O   0  0  0  0  0  0  0  0  0  0  0  0
  190.4810  177.2610  139.1960 C   0  0  0  0  0  2  0  0  0  0  0  0
  191.6660  177.0340  140.1180 C   0  0  0  0  0  2  0  0  0  0  0  0
  191.2170  176.9300  141.4620 O   0  0  0  0  0  0  0  0  0  0  0  0
  192.2950  178.8570  142.1320 O   0  0  0  0  0  0  0  0  0  0  0  0
  190.9690  177.8190  143.7260 N   0  0  0  0  0  2  0  0  0  0  0  0
  191.5150  177.9090  142.4130 C   0  0  0  0  0  0  0  0  0  0  0  0
  187.6690  177.3520  148.2420 C   0  0  0  0  0  1  0  0  0  0  0  0
  186.5360  177.8710  144.6460 C   0  0  2  0  0  3  0  0  0  0  0  0
  185.2560  177.1770  146.5910 O   0  0  0  0  0  0  0  0  0  0  0  0
  186.3630  177.4870  146.0750 C   0  0  0  0  0  0  0  0  0  0  0  0
  187.9980  175.7440  143.6610 O   0  0  0  0  0  1  0  0  0  0  0  0
  188.6660  177.8820  145.9460 C   0  0  2  0  0  3  0  0  0  0  0  0
  190.1090  176.7160  144.1270 C   0  0  1  0  0  3  0  0  0  0  0  0
  190.0160  176.6550  145.9400 S   0  0  0  0  0  0  0  0  0  0  0  0
  188.7030  176.9510  143.6200 C   0  0  2  0  0  3  0  0  0  0  0  0
  187.5790  177.4490  146.7960 N   0  0  0  0  0  0  0  0  0  0  0  0
  188.0690  177.9990  144.5360 C   0  0  1  0  0  3  0  0  0  0  0  0
  185.8740  179.2190  144.3030 C   0  0  2  0  0  3  0  0  0  0  0  0
  184.6500  179.4760  145.1690 C   0  0  0  0  0  1  0  0  0  0  0  0
  185.4120  179.2470  142.8490 C   0  0  0  0  0  2  0  0  0  0  0  0
  184.6320  178.0000  142.4620 C   0  0  0  0  0  2  0  0  0  0  0  0
  183.8440  178.2490  141.3350 O   0  0  0  0  0  1  0  0  0  0  0  0
  1 44  1  1  0  0  0
  2  3  1  0  0  0  0
  2  1  1  0  0  0  0
  4  3  1  0  0  0  0
  5  9  1  6  0  0  0
  5  4  1  0  0  0  0
  6  8  1  0  0  0  0
  6  5  1  0  0  0  0
  6  4  2  0  0  0  0
  7  2  2  0  0  0  0
  8  7  1  0  0  0  0
  9 10  1  0  0  0  0
 11 10  1  0  0  0  0
 11 12  1  0  0  0  0
 13 14  1  0  0  0  0
 14 12  1  0  0  0  0
 15 17  1  0  0  0  0
 15 18  1  0  0  0  0
 16 14  1  6  0  0  0
 16 15  1  0  0  0  0
 16 17  1  0  0  0  0
 18 20  1  0  0  0  0
 18 21  1  0  0  0  0
 19 18  1  0  0  0  0
 21 22  1  0  0  0  0
 24 26  1  6  0  0  0
 24 23  1  0  0  0  0
 25  1  1  1  0  0  0
 25 24  1  0  0  0  0
 25 23  1  0  0  0  0
 27 29  1  0  0  0  0
 27 26  1  0  0  0  0
 28 36  1  1  0  0  0
 29 30  1  0  0  0  0
 30 31  2  0  0  0  0
 30 32  1  0  0  0  0
 31 28  1  0  0  0  0
 32 34  1  6  0  0  0
 32 28  1  0  0  0  0
 34 35  1  1  0  0  0
 34 33  1  0  0  0  0
 37 36  1  1  0  0  0
 37 40  1  0  0  0  0
 37 41  1  0  0  0  0
 38 39  1  0  0  0  0
 38 40  1  0  0  0  0
 39 40  1  0  0  0  0
 42 41  1  0  0  0  0
 42 43  1  0  0  0  0
 45 44  1  0  0  0  0
 45 46  1  0  0  0  0
 46 47  1  0  0  0  0
 47 50  1  0  0  0  0
 48 50  2  0  0  0  0
 50 49  1  0  0  0  0
 52 62  1  1  0  0  0
 52 54  1  0  0  0  0
 54 53  2  0  0  0  0
 54 60  1  0  0  0  0
 56 58  1  6  0  0  0
 56 60  1  0  0  0  0
 57 49  1  1  0  0  0
 57 58  1  0  0  0  0
 59 55  1  1  0  0  0
 59 57  1  0  0  0  0
 59 61  1  0  0  0  0
 60 51  1  0  0  0  0
 61 52  1  0  0  0  0
 61 56  1  0  0  0  0
 62 63  1  0  0  0  0
 64 62  1  0  0  0  0
 65 64  1  0  0  0  0
 66 65  1  0  0  0  0
M  END
>  <MODEL>
4

>  <REMARK>
 VINA RESULT:      -5.2      3.582     10.896
  Name = 
  28 active torsions:
  status: ('A' for Active; 'I' for Inactive)
    1  A    between atoms: C_1  and  C_34
    2  A    between atoms: C_2  and  O_12
    3  A    between atoms: C_2  and  C_27
    4  A    between atoms: C_2  and  C_52
    5  A    between atoms: O_3  and  C_32
    6  A    between atoms: O_3  and  C_34
    7  A    between atoms: C_5  and  C_18
    8  A    between atoms: C_5  and  N_55
    9  A    between atoms: C_7  and  C_17
   10  A    between atoms: C_7  and  C_25
   11  A    between atoms: C_9  and  C_11
   12  A    between atoms: C_9  and  C_14
   13  A    between atoms: C_10  and  C_24
   14  A    between atoms: C_11  and  C_18
   15  A    between atoms: O_12  and  C_53
   16  A    between atoms: C_13  and  N_22
   17  A    between atoms: C_13  and  N_33
   18  A    between atoms: N_15  and  C_24
   19  A    between atoms: C_19  and  C_27
   20  A    between atoms: C_25  and  C_54
   21  A    between atoms: O_28  and  C_49
   22  A    between atoms: O_28  and  C_65
   23  A    between atoms: C_32  and  C_49
   24  A    between atoms: N_33  and  C_43
   25  A    between atoms: C_34  and  C_59
   26  A    between atoms: C_35  and  C_61
   27  A    between atoms: C_45  and  N_63
   28  A    between atoms: C_46  and  N_55
                            x       y       z     vdW  Elec       q    Type
                         _______ _______ _______ _____ _____    ______ ____

>  <TORSDO>
F 28

$$$$
=
 OpenBabel10222418383D

 66 73  0  0  1  0  0  0  0  0999 V2000
  188.4770  176.6700  136.8700 C   0  0  2  0  0  3  0  0  0  0  0  0
  187.0230  176.8470  136.5690 C   0  0  0  0  0  0  0  0  0  0  0  0
  186.0860  176.8160  137.6030 O   0  0  0  0  0  0  0  0  0  0  0  0
  184.6770  177.0060  137.4330 C   0  0  0  0  0  0  0  0  0  0  0  0
  184.0850  175.8500  136.6460 C   0  0  2  0  0  3  0  0  0  0  0  0
  184.2260  177.2080  135.9780 C   0  0  0  0  0  0  0  0  0  0  0  0
  186.6320  177.0250  135.3180 C   0  0  0  0  0  3  0  0  0  0  0  0
  185.2800  177.1740  135.0100 O   0  0  0  0  0  0  0  0  0  0  0  0
  182.6500  175.6370  137.0790 C   0  0  0  0  0  2  0  0  0  0  0  0
  182.0140  174.5590  136.2270 C   0  0  0  0  0  2  0  0  0  0  0  0
  180.5330  174.4820  136.5350 C   0  0  0  0  0  2  0  0  0  0  0  0
  180.3130  174.5020  138.0380 C   0  0  0  0  0  2  0  0  0  0  0  0
  179.3620  176.4850  137.2710 C   0  0  0  0  0  1  0  0  0  0  0  0
  179.3880  175.5660  138.3960 N   0  0  0  0  0  0  0  0  0  0  0  0
  179.0720  177.3120  139.9750 N   0  0  0  0  0  0  0  0  0  0  0  0
  179.9830  176.2840  139.5120 C   0  0  1  0  0  3  0  0  0  0  0  0
  179.2290  176.1010  140.6330 O   0  0  0  0  0  0  0  0  0  0  0  0
  179.7970  178.3710  140.7090 C   0  0  0  0  0  0  0  0  0  0  0  0
  180.2280  177.9550  141.9780 O   0  0  0  0  0  1  0  0  0  0  0  0
  178.9470  179.4680  140.8670 O   0  0  0  0  0  1  0  0  0  0  0  0
  181.0140  178.8100  139.9020 C   0  0  0  0  0  2  0  0  0  0  0  0
  182.1540  178.1620  140.3470 F   0  0  0  0  0  0  0  0  0  0  0  0
  189.9810  174.8880  135.9990 C   0  0  0  0  0  2  0  0  0  0  0  0
  190.7070  176.2150  135.8770 C   0  0  2  0  0  3  0  0  0  0  0  0
  189.2070  176.1430  135.6430 C   0  0  2  0  0  3  0  0  0  0  0  0
  191.3810  176.2790  134.5940 N   0  0  0  0  0  2  0  0  0  0  0  0
  192.7970  176.0960  134.8510 C   0  0  0  0  0  2  0  0  0  0  0  0
  195.0640  172.9920  136.8690 C   0  0  2  0  0  3  0  0  0  0  0  0
  193.1600  174.7120  134.6050 N   0  0  0  0  0  2  0  0  0  0  0  0
  193.9520  173.9870  135.5420 C   0  0  0  0  0  0  0  0  0  0  0  0
  194.4330  172.7320  135.5910 N   0  0  0  0  0  0  0  0  0  0  0  0
  194.6130  174.3250  136.8530 C   0  0  1  0  0  3  0  0  0  0  0  0
  192.4030  174.0030  137.7120 F   0  0  0  0  0  0  0  0  0  0  0  0
  193.6040  174.6390  137.9700 C   0  0  2  0  0  3  0  0  0  0  0  0
  193.3000  176.4190  138.2650 S   0  0  0  0  0  1  0  0  0  0  0  0
  196.5800  172.9550  136.7250 C   0  0  0  0  0  2  0  0  0  0  0  0
  197.2090  174.2280  137.2800 C   0  0  2  0  0  3  0  0  0  0  0  0
  197.5910  176.1880  135.9410 O   0  0  0  0  0  0  0  0  0  0  0  0
  197.3940  175.1890  135.0680 O   0  0  0  0  0  0  0  0  0  0  0  0
  198.0900  174.9360  136.2350 C   0  0  0  0  0  3  0  0  0  0  0  0
  197.9120  173.9390  138.4530 O   0  0  0  0  0  0  0  0  0  0  0  0
  197.7880  175.0860  139.2370 C   0  0  0  0  0  2  0  0  0  0  0  0
  197.6550  174.7280  140.5640 F   0  0  0  0  0  0  0  0  0  0  0  0
  188.6300  175.7720  137.9300 O   0  0  0  0  0  0  0  0  0  0  0  0
  189.4430  176.4340  138.8550 C   0  0  0  0  0  2  0  0  0  0  0  0
  189.5080  177.9130  138.5170 C   0  0  0  0  0  2  0  0  0  0  0  0
  189.0260  178.6790  139.6120 O   0  0  0  0  0  0  0  0  0  0  0  0
  186.7640  178.8250  140.0450 O   0  0  0  0  0  0  0  0  0  0  0  0
  187.9720  177.3710  141.3880 N   0  0  0  0  0  2  0  0  0  0  0  0
  187.8800  178.3080  140.3190 C   0  0  0  0  0  0  0  0  0  0  0  0
  191.9930  179.5160  144.6650 C   0  0  0  0  0  1  0  0  0  0  0  0
  189.5920  176.7020  145.5630 C   0  0  2  0  0  3  0  0  0  0  0  0
  191.6510  177.3930  146.6540 O   0  0  0  0  0  0  0  0  0  0  0  0
  190.8260  177.5230  145.7090 C   0  0  0  0  0  0  0  0  0  0  0  0
  190.1660  175.2160  143.3070 O   0  0  0  0  0  1  0  0  0  0  0  0
  189.8990  178.3750  143.7370 C   0  0  2  0  0  3  0  0  0  0  0  0
  189.2420  176.7850  141.7890 C   0  0  1  0  0  3  0  0  0  0  0  0
  190.4650  178.1070  142.0240 S   0  0  0  0  0  0  0  0  0  0  0  0
  189.0860  176.0850  143.1220 C   0  0  2  0  0  3  0  0  0  0  0  0
  191.0200  178.4370  144.6480 N   0  0  0  0  0  0  0  0  0  0  0  0
  189.0580  177.1740  144.1960 C   0  0  1  0  0  3  0  0  0  0  0  0
  188.5490  176.9890  146.6590 C   0  0  2  0  0  3  0  0  0  0  0  0
  187.1310  176.9240  146.1110 C   0  0  0  0  0  1  0  0  0  0  0  0
  188.7420  178.3830  147.2460 C   0  0  0  0  0  2  0  0  0  0  0  0
  187.9360  178.5960  148.5190 C   0  0  0  0  0  2  0  0  0  0  0  0
  187.9760  177.4510  149.3180 O   0  0  0  0  0  1  0  0  0  0  0  0
  1 44  1  1  0  0  0
  2  1  1  0  0  0  0
  2  3  1  0  0  0  0
  4  3  1  0  0  0  0
  5  9  1  1  0  0  0
  5  4  1  0  0  0  0
  6  5  1  0  0  0  0
  6  4  2  0  0  0  0
  7  2  2  0  0  0  0
  8  7  1  0  0  0  0
  8  6  1  0  0  0  0
 10 11  1  0  0  0  0
 10  9  1  0  0  0  0
 11 12  1  0  0  0  0
 12 14  1  0  0  0  0
 13 14  1  0  0  0  0
 15 17  1  0  0  0  0
 15 18  1  0  0  0  0
 16 14  1  6  0  0  0
 16 15  1  0  0  0  0
 16 17  1  0  0  0  0
 18 20  1  0  0  0  0
 18 19  1  0  0  0  0
 21 22  1  0  0  0  0
 21 18  1  0  0  0  0
 24 26  1  6  0  0  0
 24 23  1  0  0  0  0
 25 24  1  0  0  0  0
 25 23  1  0  0  0  0
 25  1  1  1  0  0  0
 26 27  1  0  0  0  0
 28 36  1  6  0  0  0
 29 27  1  0  0  0  0
 29 30  1  0  0  0  0
 30 31  2  0  0  0  0
 30 32  1  0  0  0  0
 31 28  1  0  0  0  0
 32 28  1  0  0  0  0
 32 34  1  1  0  0  0
 34 33  1  6  0  0  0
 34 35  1  0  0  0  0
 37 36  1  6  0  0  0
 37 41  1  0  0  0  0
 38 40  1  0  0  0  0
 39 38  1  0  0  0  0
 39 40  1  0  0  0  0
 40 37  1  0  0  0  0
 41 42  1  0  0  0  0
 42 43  1  0  0  0  0
 44 45  1  0  0  0  0
 46 45  1  0  0  0  0
 46 47  1  0  0  0  0
 47 50  1  0  0  0  0
 48 50  2  0  0  0  0
 50 49  1  0  0  0  0
 52 54  1  0  0  0  0
 52 62  1  1  0  0  0
 54 53  2  0  0  0  0
 56 58  1  6  0  0  0
 56 61  1  0  0  0  0
 56 60  1  0  0  0  0
 57 49  1  1  0  0  0
 57 58  1  0  0  0  0
 57 59  1  0  0  0  0
 59 55  1  1  0  0  0
 59 61  1  0  0  0  0
 60 51  1  0  0  0  0
 60 54  1  0  0  0  0
 61 52  1  0  0  0  0
 62 64  1  0  0  0  0
 63 62  1  0  0  0  0
 64 65  1  0  0  0  0
 65 66  1  0  0  0  0
M  END
>  <MODEL>
5

>  <REMARK>
 VINA RESULT:      -5.0      2.981     10.090
  Name = 
  28 active torsions:
  status: ('A' for Active; 'I' for Inactive)
    1  A    between atoms: C_1  and  C_34
    2  A    between atoms: C_2  and  O_12
    3  A    between atoms: C_2  and  C_27
    4  A    between atoms: C_2  and  C_52
    5  A    between atoms: O_3  and  C_32
    6  A    between atoms: O_3  and  C_34
    7  A    between atoms: C_5  and  C_18
    8  A    between atoms: C_5  and  N_55
    9  A    between atoms: C_7  and  C_17
   10  A    between atoms: C_7  and  C_25
   11  A    between atoms: C_9  and  C_11
   12  A    between atoms: C_9  and  C_14
   13  A    between atoms: C_10  and  C_24
   14  A    between atoms: C_11  and  C_18
   15  A    between atoms: O_12  and  C_53
   16  A    between atoms: C_13  and  N_22
   17  A    between atoms: C_13  and  N_33
   18  A    between atoms: N_15  and  C_24
   19  A    between atoms: C_19  and  C_27
   20  A    between atoms: C_25  and  C_54
   21  A    between atoms: O_28  and  C_49
   22  A    between atoms: O_28  and  C_65
   23  A    between atoms: C_32  and  C_49
   24  A    between atoms: N_33  and  C_43
   25  A    between atoms: C_34  and  C_59
   26  A    between atoms: C_35  and  C_61
   27  A    between atoms: C_45  and  N_63
   28  A    between atoms: C_46  and  N_55
                            x       y       z     vdW  Elec       q    Type
                         _______ _______ _______ _____ _____    ______ ____

>  <TORSDO>
F 28

$$$$
=
 OpenBabel10222418383D

 66 73  0  0  1  0  0  0  0  0999 V2000
  188.5050  176.7250  136.8960 C   0  0  2  0  0  3  0  0  0  0  0  0
  187.0700  176.9110  136.5230 C   0  0  0  0  0  0  0  0  0  0  0  0
  186.0770  176.8480  137.5030 O   0  0  0  0  0  0  0  0  0  0  0  0
  184.6800  177.0430  137.2630 C   0  0  0  0  0  0  0  0  0  0  0  0
  184.1340  175.9120  136.4090 C   0  0  2  0  0  3  0  0  0  0  0  0
  184.3080  177.2900  135.7930 C   0  0  0  0  0  0  0  0  0  0  0  0
  186.7470  177.1280  135.2590 C   0  0  0  0  0  3  0  0  0  0  0  0
  185.4130  177.2860  134.8830 O   0  0  0  0  0  0  0  0  0  0  0  0
  182.6770  175.6860  136.7570 C   0  0  0  0  0  2  0  0  0  0  0  0
  181.8440  175.6900  135.4930 C   0  0  0  0  0  2  0  0  0  0  0  0
  180.4940  176.3150  135.7810 C   0  0  0  0  0  2  0  0  0  0  0  0
  180.4920  176.9280  137.1710 C   0  0  0  0  0  2  0  0  0  0  0  0
  178.9630  178.1480  135.9060 C   0  0  0  0  0  1  0  0  0  0  0  0
  179.5430  178.0280  137.2340 N   0  0  0  0  0  0  0  0  0  0  0  0
  179.4210  180.3700  137.6100 N   0  0  0  0  0  0  0  0  0  0  0  0
  180.3150  179.2390  137.4650 C   0  0  1  0  0  3  0  0  0  0  0  0
  180.0180  179.7470  138.6950 O   0  0  0  0  0  0  0  0  0  0  0  0
  180.1210  181.6390  137.3220 C   0  0  0  0  0  0  0  0  0  0  0  0
  181.4970  181.5740  137.5910 O   0  0  0  0  0  1  0  0  0  0  0  0
  179.5630  182.6480  138.1100 O   0  0  0  0  0  1  0  0  0  0  0  0
  179.9310  182.0070  135.8540 C   0  0  0  0  0  2  0  0  0  0  0  0
  180.9680  182.8120  135.4150 F   0  0  0  0  0  0  0  0  0  0  0  0
  190.1890  174.9800  136.3330 C   0  0  0  0  0  2  0  0  0  0  0  0
  190.7430  176.3240  135.8970 C   0  0  2  0  0  3  0  0  0  0  0  0
  189.2570  176.0350  135.7670 C   0  0  2  0  0  3  0  0  0  0  0  0
  191.3650  176.1900  134.5940 N   0  0  0  0  0  2  0  0  0  0  0  0
  192.7340  175.7670  134.8200 C   0  0  0  0  0  2  0  0  0  0  0  0
  194.2480  173.6200  138.2760 C   0  0  2  0  0  3  0  0  0  0  0  0
  192.7450  174.3980  135.3010 N   0  0  0  0  0  2  0  0  0  0  0  0
  193.3680  174.0640  136.5390 C   0  0  0  0  0  0  0  0  0  0  0  0
  193.5350  172.9200  137.2270 N   0  0  0  0  0  0  0  0  0  0  0  0
  194.1310  174.8380  137.5820 C   0  0  1  0  0  3  0  0  0  0  0  0
  193.0480  176.9710  137.4990 F   0  0  0  0  0  0  0  0  0  0  0  0
  193.2610  175.8740  138.3140 C   0  0  2  0  0  3  0  0  0  0  0  0
  193.9140  176.4330  139.9290 S   0  0  0  0  0  1  0  0  0  0  0  0
  195.7050  173.1780  138.3060 C   0  0  0  0  0  2  0  0  0  0  0  0
  196.6130  174.3280  138.7260 C   0  0  2  0  0  3  0  0  0  0  0  0
  198.2340  175.8300  137.7790 O   0  0  0  0  0  0  0  0  0  0  0  0
  197.4630  175.4400  136.7540 O   0  0  0  0  0  0  0  0  0  0  0  0
  197.7790  174.5280  137.7420 C   0  0  0  0  0  3  0  0  0  0  0  0
  197.0570  174.1310  140.0370 O   0  0  0  0  0  0  0  0  0  0  0  0
  197.3290  175.4110  140.5200 C   0  0  0  0  0  2  0  0  0  0  0  0
  197.4880  175.3640  141.8910 F   0  0  0  0  0  0  0  0  0  0  0  0
  188.5910  175.9530  138.0580 O   0  0  0  0  0  0  0  0  0  0  0  0
  189.6670  176.4870  138.7730 C   0  0  0  0  0  2  0  0  0  0  0  0
  189.8410  177.9540  138.4230 C   0  0  0  0  0  2  0  0  0  0  0  0
  189.2120  178.7620  139.4070 O   0  0  0  0  0  0  0  0  0  0  0  0
  186.9310  178.8490  139.7470 O   0  0  0  0  0  0  0  0  0  0  0  0
  188.1150  177.3970  141.1140 N   0  0  0  0  0  2  0  0  0  0  0  0
  188.0470  178.3520  140.0580 C   0  0  0  0  0  0  0  0  0  0  0  0
  191.9580  179.5830  144.5720 C   0  0  0  0  0  1  0  0  0  0  0  0
  189.5840  176.7090  145.3410 C   0  0  2  0  0  3  0  0  0  0  0  0
  191.5830  177.4280  146.5210 O   0  0  0  0  0  0  0  0  0  0  0  0
  190.7940  177.5530  145.5450 C   0  0  0  0  0  0  0  0  0  0  0  0
  190.2770  175.2630  143.0910 O   0  0  0  0  0  1  0  0  0  0  0  0
  189.9270  178.4110  143.5490 C   0  0  2  0  0  3  0  0  0  0  0  0
  189.3810  176.8330  141.5580 C   0  0  1  0  0  3  0  0  0  0  0  0
  190.5660  178.1760  141.8560 S   0  0  0  0  0  0  0  0  0  0  0  0
  189.1870  176.1130  142.8750 C   0  0  2  0  0  3  0  0  0  0  0  0
  191.0100  178.4850  144.5040 N   0  0  0  0  0  0  0  0  0  0  0  0
  189.0940  177.1870  143.9600 C   0  0  1  0  0  3  0  0  0  0  0  0
  188.4930  176.9600  146.3980 C   0  0  2  0  0  3  0  0  0  0  0  0
  187.1890  177.4140  145.7580 C   0  0  0  0  0  1  0  0  0  0  0  0
  188.9200  178.0500  147.3760 C   0  0  0  0  0  2  0  0  0  0  0  0
  187.7570  178.5800  148.2020 C   0  0  0  0  0  2  0  0  0  0  0  0
  186.7190  179.0010  147.3680 O   0  0  0  0  0  1  0  0  0  0  0  0
  1 44  1  1  0  0  0
  2  1  1  0  0  0  0
  2  3  1  0  0  0  0
  4  3  1  0  0  0  0
  5  9  1  1  0  0  0
  5  4  1  0  0  0  0
  6  5  1  0  0  0  0
  6  4  2  0  0  0  0
  7  2  2  0  0  0  0
  8  7  1  0  0  0  0
  8  6  1  0  0  0  0
 10 11  1  0  0  0  0
 10  9  1  0  0  0  0
 11 12  1  0  0  0  0
 12 14  1  0  0  0  0
 13 14  1  0  0  0  0
 15 17  1  0  0  0  0
 16 14  1  1  0  0  0
 16 15  1  0  0  0  0
 16 17  1  0  0  0  0
 18 19  1  0  0  0  0
 18 15  1  0  0  0  0
 18 20  1  0  0  0  0
 21 18  1  0  0  0  0
 22 21  1  0  0  0  0
 24 26  1  6  0  0  0
 24 23  1  0  0  0  0
 25 24  1  0  0  0  0
 25 23  1  0  0  0  0
 25  1  1  1  0  0  0
 26 27  1  0  0  0  0
 27 29  1  0  0  0  0
 28 36  1  6  0  0  0
 29 30  1  0  0  0  0
 30 31  2  0  0  0  0
 30 32  1  0  0  0  0
 31 28  1  0  0  0  0
 32 28  1  0  0  0  0
 32 34  1  1  0  0  0
 34 33  1  6  0  0  0
 34 35  1  0  0  0  0
 37 36  1  6  0  0  0
 37 41  1  0  0  0  0
 39 40  1  0  0  0  0
 39 38  1  0  0  0  0
 40 38  1  0  0  0  0
 40 37  1  0  0  0  0
 41 42  1  0  0  0  0
 42 43  1  0  0  0  0
 44 45  1  0  0  0  0
 46 45  1  0  0  0  0
 46 47  1  0  0  0  0
 47 50  1  0  0  0  0
 48 50  2  0  0  0  0
 50 49  1  0  0  0  0
 52 54  1  0  0  0  0
 52 62  1  1  0  0  0
 54 53  2  0  0  0  0
 56 58  1  6  0  0  0
 56 61  1  0  0  0  0
 56 60  1  0  0  0  0
 57 49  1  1  0  0  0
 57 58  1  0  0  0  0
 57 59  1  0  0  0  0
 59 55  1  1  0  0  0
 59 61  1  0  0  0  0
 60 51  1  0  0  0  0
 60 54  1  0  0  0  0
 61 52  1  0  0  0  0
 62 64  1  0  0  0  0
 63 62  1  0  0  0  0
 64 65  1  0  0  0  0
 66 65  1  0  0  0  0
M  END
>  <MODEL>
6

>  <REMARK>
 VINA RESULT:      -3.9      3.339     10.387
  Name = 
  28 active torsions:
  status: ('A' for Active; 'I' for Inactive)
    1  A    between atoms: C_1  and  C_34
    2  A    between atoms: C_2  and  O_12
    3  A    between atoms: C_2  and  C_27
    4  A    between atoms: C_2  and  C_52
    5  A    between atoms: O_3  and  C_32
    6  A    between atoms: O_3  and  C_34
    7  A    between atoms: C_5  and  C_18
    8  A    between atoms: C_5  and  N_55
    9  A    between atoms: C_7  and  C_17
   10  A    between atoms: C_7  and  C_25
   11  A    between atoms: C_9  and  C_11
   12  A    between atoms: C_9  and  C_14
   13  A    between atoms: C_10  and  C_24
   14  A    between atoms: C_11  and  C_18
   15  A    between atoms: O_12  and  C_53
   16  A    between atoms: C_13  and  N_22
   17  A    between atoms: C_13  and  N_33
   18  A    between atoms: N_15  and  C_24
   19  A    between atoms: C_19  and  C_27
   20  A    between atoms: C_25  and  C_54
   21  A    between atoms: O_28  and  C_49
   22  A    between atoms: O_28  and  C_65
   23  A    between atoms: C_32  and  C_49
   24  A    between atoms: N_33  and  C_43
   25  A    between atoms: C_34  and  C_59
   26  A    between atoms: C_35  and  C_61
   27  A    between atoms: C_45  and  N_63
   28  A    between atoms: C_46  and  N_55
                            x       y       z     vdW  Elec       q    Type
                         _______ _______ _______ _____ _____    ______ ____

>  <TORSDO>
F 28

$$$$
=
 OpenBabel10222418383D

 66 73  0  0  1  0  0  0  0  0999 V2000
  190.5690  176.8890  138.8990 C   0  0  2  0  0  3  0  0  0  0  0  0
  191.7060  176.5530  137.9900 C   0  0  0  0  0  0  0  0  0  0  0  0
  191.4580  176.1410  136.6790 O   0  0  0  0  0  0  0  0  0  0  0  0
  192.4690  175.8270  135.7170 C   0  0  0  0  0  0  0  0  0  0  0  0
  193.2210  174.5770  136.1380 C   0  0  2  0  0  3  0  0  0  0  0  0
  193.9100  175.9280  136.2410 C   0  0  0  0  0  0  0  0  0  0  0  0
  192.9480  176.6420  138.4370 C   0  0  0  0  0  3  0  0  0  0  0  0
  194.0260  176.3170  137.6140 O   0  0  0  0  0  0  0  0  0  0  0  0
  193.7040  173.8480  134.9020 C   0  0  0  0  0  2  0  0  0  0  0  0
  193.8790  172.3760  135.2130 C   0  0  0  0  0  2  0  0  0  0  0  0
  195.2760  171.9400  134.8170 C   0  0  0  0  0  2  0  0  0  0  0  0
  195.9320  171.1940  135.9670 C   0  0  0  0  0  2  0  0  0  0  0  0
  197.7370  169.8380  136.5410 C   0  0  0  0  0  1  0  0  0  0  0  0
  197.3250  170.9130  135.6540 N   0  0  0  0  0  0  0  0  0  0  0  0
  197.4780  172.7170  137.1910 N   0  0  0  0  0  0  0  0  0  0  0  0
  198.0880  172.0900  136.0360 C   0  0  1  0  0  3  0  0  0  0  0  0
  198.6080  171.9170  137.2850 O   0  0  0  0  0  0  0  0  0  0  0  0
  197.8690  174.1380  137.2910 C   0  0  0  0  0  0  0  0  0  0  0  0
  197.0370  174.9840  136.5420 O   0  0  0  0  0  1  0  0  0  0  0  0
  199.1770  174.2770  136.8240 O   0  0  0  0  0  1  0  0  0  0  0  0
  197.8230  174.5800  138.7500 C   0  0  0  0  0  2  0  0  0  0  0  0
  196.5130  174.6760  139.1890 F   0  0  0  0  0  0  0  0  0  0  0  0
  188.6530  178.4780  138.8500 C   0  0  0  0  0  2  0  0  0  0  0  0
  188.0920  177.0670  138.8400 C   0  0  2  0  0  3  0  0  0  0  0  0
  189.3770  177.3820  138.0910 C   0  0  2  0  0  3  0  0  0  0  0  0
  187.0000  176.9890  137.8880 N   0  0  0  0  0  2  0  0  0  0  0  0
  187.0430  178.2030  137.0950 C   0  0  0  0  0  2  0  0  0  0  0  0
  183.6870  175.9830  135.4660 C   0  0  2  0  0  3  0  0  0  0  0  0
  186.4710  177.9470  135.7860 N   0  0  0  0  0  2  0  0  0  0  0  0
  185.3120  177.1310  135.6420 C   0  0  0  0  0  0  0  0  0  0  0  0
  184.5730  176.7260  134.5940 N   0  0  0  0  0  0  0  0  0  0  0  0
  184.4430  176.3500  136.5940 C   0  0  1  0  0  3  0  0  0  0  0  0
  183.9580  176.8770  138.8780 F   0  0  0  0  0  0  0  0  0  0  0  0
  183.6730  177.2480  137.5760 C   0  0  2  0  0  3  0  0  0  0  0  0
  181.8590  177.2840  137.3370 S   0  0  0  0  0  1  0  0  0  0  0  0
  183.8290  174.4880  135.2100 C   0  0  0  0  0  2  0  0  0  0  0  0
  183.4980  173.6890  136.4660 C   0  0  2  0  0  3  0  0  0  0  0  0
  184.7620  171.8760  135.5210 O   0  0  0  0  0  0  0  0  0  0  0  0
  183.9420  171.3130  136.4200 O   0  0  0  0  0  0  0  0  0  0  0  0
  184.5000  172.5450  136.6990 C   0  0  0  0  0  3  0  0  0  0  0  0
  182.1780  173.2300  136.4040 O   0  0  0  0  0  0  0  0  0  0  0  0
  181.7520  173.1840  137.7310 C   0  0  0  0  0  2  0  0  0  0  0  0
  180.5010  173.7580  137.8360 F   0  0  0  0  0  0  0  0  0  0  0  0
  190.9670  177.8800  139.8010 O   0  0  0  0  0  0  0  0  0  0  0  0
  191.5210  177.1890  140.8830 C   0  0  0  0  0  2  0  0  0  0  0  0
  190.4300  176.8250  141.8740 C   0  0  0  0  0  2  0  0  0  0  0  0
  190.9370  176.9000  143.1980 O   0  0  0  0  0  0  0  0  0  0  0  0
  191.7410  179.0070  143.6830 O   0  0  0  0  0  0  0  0  0  0  0  0
  189.9730  178.2620  144.9860 N   0  0  0  0  0  2  0  0  0  0  0  0
  190.9120  178.0910  143.9280 C   0  0  0  0  0  0  0  0  0  0  0  0
  185.1950  178.6570  147.9040 C   0  0  0  0  0  1  0  0  0  0  0  0
  185.5260  178.0400  144.1620 C   0  0  2  0  0  3  0  0  0  0  0  0
  183.6000  177.7560  145.6170 O   0  0  0  0  0  0  0  0  0  0  0  0
  184.8200  178.0420  145.4740 C   0  0  0  0  0  0  0  0  0  0  0  0
  187.2630  175.9130  144.4590 O   0  0  0  0  0  1  0  0  0  0  0  0
  186.9940  178.6560  146.0840 C   0  0  2  0  0  3  0  0  0  0  0  0
  189.0300  177.2170  145.3530 C   0  0  1  0  0  3  0  0  0  0  0  0
  188.2480  177.6420  146.9360 S   0  0  0  0  0  0  0  0  0  0  0  0
  187.9250  177.1370  144.3210 C   0  0  2  0  0  3  0  0  0  0  0  0
  185.6660  178.3460  146.5660 N   0  0  0  0  0  0  0  0  0  0  0  0
  186.9830  178.3130  144.5870 C   0  0  1  0  0  3  0  0  0  0  0  0
  185.0400  179.1550  143.2180 C   0  0  2  0  0  3  0  0  0  0  0  0
  184.1650  180.1640  143.9480 C   0  0  0  0  0  1  0  0  0  0  0  0
  184.2080  178.5800  142.0760 C   0  0  0  0  0  2  0  0  0  0  0  0
  184.3920  179.3500  140.7760 C   0  0  0  0  0  2  0  0  0  0  0  0
  185.7270  179.3040  140.3680 O   0  0  0  0  0  1  0  0  0  0  0  0
  1 44  1  1  0  0  0
  2  7  2  0  0  0  0
  2  1  1  0  0  0  0
  3  2  1  0  0  0  0
  4  5  1  0  0  0  0
  4  6  2  0  0  0  0
  4  3  1  0  0  0  0
  5  9  1  6  0  0  0
  5  6  1  0  0  0  0
  6  8  1  0  0  0  0
  8  7  1  0  0  0  0
  9 10  1  0  0  0  0
 11 10  1  0  0  0  0
 11 12  1  0  0  0  0
 14 12  1  0  0  0  0
 14 13  1  0  0  0  0
 15 17  1  0  0  0  0
 15 18  1  0  0  0  0
 16 14  1  1  0  0  0
 16 15  1  0  0  0  0
 16 17  1  0  0  0  0
 18 21  1  0  0  0  0
 19 18  1  0  0  0  0
 20 18  1  0  0  0  0
 21 22  1  0  0  0  0
 24 26  1  6  0  0  0
 24 23  1  0  0  0  0
 25 24  1  0  0  0  0
 25 23  1  0  0  0  0
 25  1  1  1  0  0  0
 27 26  1  0  0  0  0
 28 36  1  6  0  0  0
 28 32  1  0  0  0  0
 29 27  1  0  0  0  0
 30 29  1  0  0  0  0
 30 32  1  0  0  0  0
 31 28  1  0  0  0  0
 31 30  2  0  0  0  0
 32 34  1  1  0  0  0
 34 35  1  6  0  0  0
 34 33  1  0  0  0  0
 37 36  1  6  0  0  0
 37 40  1  0  0  0  0
 38 39  1  0  0  0  0
 38 40  1  0  0  0  0
 39 40  1  0  0  0  0
 41 37  1  0  0  0  0
 41 42  1  0  0  0  0
 42 43  1  0  0  0  0
 44 45  1  0  0  0  0
 45 46  1  0  0  0  0
 46 47  1  0  0  0  0
 47 50  1  0  0  0  0
 48 50  2  0  0  0  0
 50 49  1  0  0  0  0
 52 62  1  6  0  0  0
 52 61  1  0  0  0  0
 52 54  1  0  0  0  0
 54 53  2  0  0  0  0
 54 60  1  0  0  0  0
 56 60  1  0  0  0  0
 56 58  1  1  0  0  0
 57 49  1  6  0  0  0
 57 58  1  0  0  0  0
 59 55  1  1  0  0  0
 59 61  1  0  0  0  0
 59 57  1  0  0  0  0
 60 51  1  0  0  0  0
 61 56  1  0  0  0  0
 62 63  1  0  0  0  0
 64 62  1  0  0  0  0
 65 64  1  0  0  0  0
 66 65  1  0  0  0  0
M  END
>  <MODEL>
7

>  <REMARK>
 VINA RESULT:      -3.9      3.549     10.494
  Name = 
  28 active torsions:
  status: ('A' for Active; 'I' for Inactive)
    1  A    between atoms: C_1  and  C_34
    2  A    between atoms: C_2  and  O_12
    3  A    between atoms: C_2  and  C_27
    4  A    between atoms: C_2  and  C_52
    5  A    between atoms: O_3  and  C_32
    6  A    between atoms: O_3  and  C_34
    7  A    between atoms: C_5  and  C_18
    8  A    between atoms: C_5  and  N_55
    9  A    between atoms: C_7  and  C_17
   10  A    between atoms: C_7  and  C_25
   11  A    between atoms: C_9  and  C_11
   12  A    between atoms: C_9  and  C_14
   13  A    between atoms: C_10  and  C_24
   14  A    between atoms: C_11  and  C_18
   15  A    between atoms: O_12  and  C_53
   16  A    between atoms: C_13  and  N_22
   17  A    between atoms: C_13  and  N_33
   18  A    between atoms: N_15  and  C_24
   19  A    between atoms: C_19  and  C_27
   20  A    between atoms: C_25  and  C_54
   21  A    between atoms: O_28  and  C_49
   22  A    between atoms: O_28  and  C_65
   23  A    between atoms: C_32  and  C_49
   24  A    between atoms: N_33  and  C_43
   25  A    between atoms: C_34  and  C_59
   26  A    between atoms: C_35  and  C_61
   27  A    between atoms: C_45  and  N_63
   28  A    between atoms: C_46  and  N_55
                            x       y       z     vdW  Elec       q    Type
                         _______ _______ _______ _____ _____    ______ ____

>  <TORSDO>
F 28

$$$$
=
 OpenBabel10222418383D

 66 73  0  0  1  0  0  0  0  0999 V2000
  186.1220  178.5700  141.1370 C   0  0  2  0  0  3  0  0  0  0  0  0
  186.7230  178.5980  139.7690 C   0  0  0  0  0  0  0  0  0  0  0  0
  185.9480  178.2630  138.6570 O   0  0  0  0  0  0  0  0  0  0  0  0
  186.4110  178.2880  137.3030 C   0  0  0  0  0  0  0  0  0  0  0  0
  187.4670  177.2170  137.0920 C   0  0  2  0  0  3  0  0  0  0  0  0
  187.8870  178.6770  137.1340 C   0  0  0  0  0  0  0  0  0  0  0  0
  187.9930  178.9370  139.6200 C   0  0  0  0  0  3  0  0  0  0  0  0
  188.5810  178.9530  138.3560 O   0  0  0  0  0  0  0  0  0  0  0  0
  187.4110  176.7410  135.6550 C   0  0  0  0  0  2  0  0  0  0  0  0
  187.1350  175.2520  135.6210 C   0  0  0  0  0  2  0  0  0  0  0  0
  188.1610  174.5700  134.7390 C   0  0  0  0  0  2  0  0  0  0  0  0
  189.1920  173.8570  135.5980 C   0  0  0  0  0  2  0  0  0  0  0  0
  191.0740  172.8360  134.6790 C   0  0  0  0  0  1  0  0  0  0  0  0
  190.5320  174.1190  135.0960 N   0  0  0  0  0  0  0  0  0  0  0  0
  192.4560  175.3430  135.7620 N   0  0  0  0  0  0  0  0  0  0  0  0
  191.3280  174.5630  136.2300 C   0  0  1  0  0  3  0  0  0  0  0  0
  191.3160  175.9250  136.2970 O   0  0  0  0  0  0  0  0  0  0  0  0
  193.5390  175.3630  136.7670 C   0  0  0  0  0  0  0  0  0  0  0  0
  193.2690  174.5430  137.8730 O   0  0  0  0  0  1  0  0  0  0  0  0
  193.7080  176.6740  137.2170 O   0  0  0  0  0  1  0  0  0  0  0  0
  194.8410  174.8970  136.1240 C   0  0  0  0  0  2  0  0  0  0  0  0
  195.7960  174.6360  137.0920 F   0  0  0  0  0  0  0  0  0  0  0  0
  186.9060  177.6620  143.3190 C   0  0  0  0  0  2  0  0  0  0  0  0
  188.0180  177.4680  142.3030 C   0  0  2  0  0  3  0  0  0  0  0  0
  186.5660  177.3180  141.8810 C   0  0  2  0  0  3  0  0  0  0  0  0
  188.5990  176.1490  142.4700 N   0  0  0  0  0  2  0  0  0  0  0  0
  189.9390  176.2050  141.9160 C   0  0  0  0  0  2  0  0  0  0  0  0
  191.7820  177.9060  145.4600 C   0  0  2  0  0  3  0  0  0  0  0  0
  190.5670  177.4580  142.2920 N   0  0  0  0  0  2  0  0  0  0  0  0
  191.0760  177.6550  143.6080 C   0  0  0  0  0  0  0  0  0  0  0  0
  191.6930  178.6730  144.2340 N   0  0  0  0  0  0  0  0  0  0  0  0
  191.1120  176.8220  144.8630 C   0  0  1  0  0  3  0  0  0  0  0  0
  191.5580  174.8060  143.6540 F   0  0  0  0  0  0  0  0  0  0  0  0
  191.9900  175.5670  144.7250 C   0  0  2  0  0  3  0  0  0  0  0  0
  192.0830  174.5170  146.2200 S   0  0  0  0  0  1  0  0  0  0  0  0
  190.9050  178.5310  146.5360 C   0  0  0  0  0  2  0  0  0  0  0  0
  189.9190  177.5100  147.0920 C   0  0  2  0  0  3  0  0  0  0  0  0
  187.5920  176.9190  147.2180 O   0  0  0  0  0  0  0  0  0  0  0  0
  187.8550  177.0710  145.9110 O   0  0  0  0  0  0  0  0  0  0  0  0
  188.4590  177.9160  146.8210 C   0  0  0  0  0  3  0  0  0  0  0  0
  190.1650  177.3020  148.4520 O   0  0  0  0  0  0  0  0  0  0  0  0
  191.4650  177.7660  148.6560 C   0  0  0  0  0  2  0  0  0  0  0  0
  192.3380  176.6960  148.6880 F   0  0  0  0  0  0  0  0  0  0  0  0
  184.7280  178.5870  141.0370 O   0  0  0  0  0  0  0  0  0  0  0  0
  184.2670  178.1240  142.2730 C   0  0  0  0  0  2  0  0  0  0  0  0
  183.0780  178.9520  142.7230 C   0  0  0  0  0  2  0  0  0  0  0  0
  182.1830  179.1410  141.6360 O   0  0  0  0  0  0  0  0  0  0  0  0
  180.2040  178.5090  142.6400 O   0  0  0  0  0  0  0  0  0  0  0  0
  180.4650  177.8980  140.4180 N   0  0  0  0  0  2  0  0  0  0  0  0
  180.9250  178.5340  141.6070 C   0  0  0  0  0  0  0  0  0  0  0  0
  178.9530  178.7280  135.0770 C   0  0  0  0  0  1  0  0  0  0  0  0
  181.0370  181.0690  137.2370 C   0  0  2  0  0  3  0  0  0  0  0  0
  180.7190  181.0520  134.8280 O   0  0  0  0  0  0  0  0  0  0  0  0
  180.5060  180.5280  135.9550 C   0  0  0  0  0  0  0  0  0  0  0  0
  182.8460  179.1150  137.9710 O   0  0  0  0  0  1  0  0  0  0  0  0
  179.6810  178.9930  137.5150 C   0  0  2  0  0  3  0  0  0  0  0  0
  181.2780  177.8430  139.2120 C   0  0  1  0  0  3  0  0  0  0  0  0
  180.2510  177.2870  137.8210 S   0  0  0  0  0  0  0  0  0  0  0  0
  181.7780  179.2290  138.8670 C   0  0  2  0  0  3  0  0  0  0  0  0
  179.7780  179.3260  136.1120 N   0  0  0  0  0  0  0  0  0  0  0  0
  180.6040  179.9830  138.2420 C   0  0  1  0  0  3  0  0  0  0  0  0
  180.4060  182.4200  137.6240 C   0  0  2  0  0  3  0  0  0  0  0  0
  179.4710  182.2790  138.8160 C   0  0  0  0  0  1  0  0  0  0  0  0
  179.5850  182.9900  136.4710 C   0  0  0  0  0  2  0  0  0  0  0  0
  179.7530  184.4940  136.3240 C   0  0  0  0  0  2  0  0  0  0  0  0
  181.0210  184.7960  135.8210 O   0  0  0  0  0  1  0  0  0  0  0  0
  1 44  1  6  0  0  0
  2  1  1  0  0  0  0
  3  2  1  0  0  0  0
  4  3  1  0  0  0  0
  5  9  1  6  0  0  0
  5  6  1  0  0  0  0
  5  4  1  0  0  0  0
  6  4  2  0  0  0  0
  6  8  1  0  0  0  0
  7  2  2  0  0  0  0
  8  7  1  0  0  0  0
 10  9  1  0  0  0  0
 11 12  1  0  0  0  0
 11 10  1  0  0  0  0
 13 14  1  0  0  0  0
 14 12  1  0  0  0  0
 15 16  1  0  0  0  0
 15 17  1  0  0  0  0
 15 18  1  0  0  0  0
 16 14  1  6  0  0  0
 16 17  1  0  0  0  0
 18 20  1  0  0  0  0
 18 19  1  0  0  0  0
 21 18  1  0  0  0  0
 21 22  1  0  0  0  0
 24 26  1  1  0  0  0
 24 23  1  0  0  0  0
 25  1  1  6  0  0  0
 25 24  1  0  0  0  0
 25 23  1  0  0  0  0
 27 29  1  0  0  0  0
 27 26  1  0  0  0  0
 28 36  1  1  0  0  0
 29 30  1  0  0  0  0
 30 31  2  0  0  0  0
 30 32  1  0  0  0  0
 31 28  1  0  0  0  0
 32 34  1  6  0  0  0
 32 28  1  0  0  0  0
 34 33  1  6  0  0  0
 34 35  1  0  0  0  0
 37 36  1  1  0  0  0
 37 41  1  0  0  0  0
 39 40  1  0  0  0  0
 39 38  1  0  0  0  0
 40 37  1  0  0  0  0
 40 38  1  0  0  0  0
 41 42  1  0  0  0  0
 42 43  1  0  0  0  0
 44 45  1  0  0  0  0
 45 46  1  0  0  0  0
 47 46  1  0  0  0  0
 49 50  1  0  0  0  0
 50 47  1  0  0  0  0
 50 48  2  0  0  0  0
 51 60  1  0  0  0  0
 52 62  1  1  0  0  0
 52 61  1  0  0  0  0
 53 54  2  0  0  0  0
 54 60  1  0  0  0  0
 54 52  1  0  0  0  0
 56 58  1  6  0  0  0
 56 61  1  0  0  0  0
 57 49  1  1  0  0  0
 58 57  1  0  0  0  0
 59 55  1  6  0  0  0
 59 57  1  0  0  0  0
 60 56  1  0  0  0  0
 61 59  1  0  0  0  0
 62 63  1  0  0  0  0
 64 62  1  0  0  0  0
 65 64  1  0  0  0  0
 66 65  1  0  0  0  0
M  END
>  <MODEL>
8

>  <REMARK>
 VINA RESULT:      -3.5      3.309      8.489
  Name = 
  28 active torsions:
  status: ('A' for Active; 'I' for Inactive)
    1  A    between atoms: C_1  and  C_34
    2  A    between atoms: C_2  and  O_12
    3  A    between atoms: C_2  and  C_27
    4  A    between atoms: C_2  and  C_52
    5  A    between atoms: O_3  and  C_32
    6  A    between atoms: O_3  and  C_34
    7  A    between atoms: C_5  and  C_18
    8  A    between atoms: C_5  and  N_55
    9  A    between atoms: C_7  and  C_17
   10  A    between atoms: C_7  and  C_25
   11  A    between atoms: C_9  and  C_11
   12  A    between atoms: C_9  and  C_14
   13  A    between atoms: C_10  and  C_24
   14  A    between atoms: C_11  and  C_18
   15  A    between atoms: O_12  and  C_53
   16  A    between atoms: C_13  and  N_22
   17  A    between atoms: C_13  and  N_33
   18  A    between atoms: N_15  and  C_24
   19  A    between atoms: C_19  and  C_27
   20  A    between atoms: C_25  and  C_54
   21  A    between atoms: O_28  and  C_49
   22  A    between atoms: O_28  and  C_65
   23  A    between atoms: C_32  and  C_49
   24  A    between atoms: N_33  and  C_43
   25  A    between atoms: C_34  and  C_59
   26  A    between atoms: C_35  and  C_61
   27  A    between atoms: C_45  and  N_63
   28  A    between atoms: C_46  and  N_55
                            x       y       z     vdW  Elec       q    Type
                         _______ _______ _______ _____ _____    ______ ____

>  <TORSDO>
F 28

$$$$
=
 OpenBabel10222418383D

 66 73  0  0  1  0  0  0  0  0999 V2000
  188.9930  174.8570  137.2160 C   0  0  2  0  0  3  0  0  0  0  0  0
  190.0350  174.2490  136.3350 C   0  0  0  0  0  0  0  0  0  0  0  0
  190.1700  172.8620  136.2630 O   0  0  0  0  0  0  0  0  0  0  0  0
  191.1090  172.1750  135.4300 C   0  0  0  0  0  0  0  0  0  0  0  0
  192.5260  172.4490  135.9050 C   0  0  2  0  0  3  0  0  0  0  0  0
  192.0370  173.0900  134.6170 C   0  0  0  0  0  0  0  0  0  0  0  0
  190.8330  175.0350  135.6300 C   0  0  0  0  0  3  0  0  0  0  0  0
  191.8260  174.4920  134.8150 O   0  0  0  0  0  0  0  0  0  0  0  0
  193.3970  171.2520  135.5830 C   0  0  0  0  0  2  0  0  0  0  0  0
  194.0050  170.7070  136.8590 C   0  0  0  0  0  2  0  0  0  0  0  0
  195.2990  169.9880  136.5330 C   0  0  0  0  0  2  0  0  0  0  0  0
  196.4420  170.9870  136.4550 C   0  0  0  0  0  2  0  0  0  0  0  0
  198.1550  170.6500  134.9130 C   0  0  0  0  0  1  0  0  0  0  0  0
  196.8220  171.2080  135.0680 N   0  0  0  0  0  0  0  0  0  0  0  0
  197.3770  173.2590  136.1300 N   0  0  0  0  0  0  0  0  0  0  0  0
  196.9450  172.6460  134.8890 C   0  0  1  0  0  3  0  0  0  0  0  0
  198.2430  173.0240  135.0710 O   0  0  0  0  0  0  0  0  0  0  0  0
  197.0180  174.6920  136.1650 C   0  0  0  0  0  0  0  0  0  0  0  0
  197.0100  175.2820  134.8920 O   0  0  0  0  0  1  0  0  0  0  0  0
  197.9480  175.3670  136.9600 O   0  0  0  0  0  1  0  0  0  0  0  0
  195.6350  174.8580  136.7860 C   0  0  0  0  0  2  0  0  0  0  0  0
  195.7370  175.0940  138.1460 F   0  0  0  0  0  0  0  0  0  0  0  0
  187.7000  173.4620  135.6100 C   0  0  0  0  0  2  0  0  0  0  0  0
  187.4820  174.9200  135.2460 C   0  0  2  0  0  3  0  0  0  0  0  0
  187.6030  174.5090  136.7040 C   0  0  2  0  0  3  0  0  0  0  0  0
  186.0830  175.1340  134.9310 N   0  0  0  0  0  2  0  0  0  0  0  0
  185.5730  176.0870  135.9000 C   0  0  0  0  0  2  0  0  0  0  0  0
  181.9770  176.7640  138.2370 C   0  0  2  0  0  3  0  0  0  0  0  0
  184.8190  175.3830  136.9210 N   0  0  0  0  0  2  0  0  0  0  0  0
  183.6340  175.9500  137.4750 C   0  0  0  0  0  0  0  0  0  0  0  0
  182.7490  175.5490  138.4050 N   0  0  0  0  0  0  0  0  0  0  0  0
  182.8910  177.2450  137.2810 C   0  0  1  0  0  3  0  0  0  0  0  0
  183.2740  177.6950  134.9620 F   0  0  0  0  0  0  0  0  0  0  0  0
  182.2830  177.3820  135.8750 C   0  0  2  0  0  3  0  0  0  0  0  0
  180.9190  178.5940  135.7330 S   0  0  0  0  0  1  0  0  0  0  0  0
  182.0510  177.6130  139.4990 C   0  0  0  0  0  2  0  0  0  0  0  0
  181.2160  178.8800  139.3500 C   0  0  2  0  0  3  0  0  0  0  0  0
  182.6850  180.5380  138.4170 O   0  0  0  0  0  0  0  0  0  0  0  0
  183.3990  179.9190  139.3690 O   0  0  0  0  0  0  0  0  0  0  0  0
  182.0540  180.1500  139.5810 C   0  0  0  0  0  3  0  0  0  0  0  0
  180.1040  178.8200  140.1960 O   0  0  0  0  0  0  0  0  0  0  0  0
  179.0300  179.2280  139.4060 C   0  0  0  0  0  2  0  0  0  0  0  0
  179.1350  178.6590  138.1520 F   0  0  0  0  0  0  0  0  0  0  0  0
  189.1500  176.2460  137.2390 O   0  0  0  0  0  0  0  0  0  0  0  0
  188.3260  176.6910  138.2770 C   0  0  0  0  0  2  0  0  0  0  0  0
  188.6150  178.1510  138.5740 C   0  0  0  0  0  2  0  0  0  0  0  0
  189.8460  178.2650  139.2750 O   0  0  0  0  0  0  0  0  0  0  0  0
  190.7020  176.1300  139.4510 O   0  0  0  0  0  0  0  0  0  0  0  0
  190.4890  177.3130  141.4340 N   0  0  0  0  0  2  0  0  0  0  0  0
  190.3680  177.2040  140.0180 C   0  0  0  0  0  0  0  0  0  0  0  0
  185.9480  178.1030  144.6370 C   0  0  0  0  0  1  0  0  0  0  0  0
  189.5470  177.7880  145.8370 C   0  0  2  0  0  3  0  0  0  0  0  0
  187.5840  178.6000  147.0170 O   0  0  0  0  0  0  0  0  0  0  0  0
  188.1110  178.1650  145.9570 C   0  0  0  0  0  0  0  0  0  0  0  0
  190.5040  179.7360  144.1290 O   0  0  0  0  0  1  0  0  0  0  0  0
  188.2580  177.4940  143.7200 C   0  0  2  0  0  3  0  0  0  0  0  0
  190.0650  178.5060  142.1510 C   0  0  1  0  0  3  0  0  0  0  0  0
  188.2510  178.5460  142.2310 S   0  0  0  0  0  0  0  0  0  0  0  0
  190.5690  178.4530  143.5770 C   0  0  2  0  0  3  0  0  0  0  0  0
  187.3960  178.0420  144.7440 N   0  0  0  0  0  0  0  0  0  0  0  0
  189.6670  177.4750  144.3320 C   0  0  1  0  0  3  0  0  0  0  0  0
  189.9080  176.5370  146.6600 C   0  0  2  0  0  3  0  0  0  0  0  0
  188.8270  176.2060  147.6780 C   0  0  0  0  0  1  0  0  0  0  0  0
  191.2060  176.7490  147.4340 C   0  0  0  0  0  2  0  0  0  0  0  0
  192.0400  175.4800  147.5320 C   0  0  0  0  0  2  0  0  0  0  0  0
  192.1030  174.8420  146.2900 O   0  0  0  0  0  1  0  0  0  0  0  0
  1 44  1  6  0  0  0
  2  1  1  0  0  0  0
  3  2  1  0  0  0  0
  4  5  1  0  0  0  0
  4  3  1  0  0  0  0
  5  9  1  6  0  0  0
  6  8  1  0  0  0  0
  6  4  2  0  0  0  0
  6  5  1  0  0  0  0
  7  2  2  0  0  0  0
  8  7  1  0  0  0  0
  9 10  1  0  0  0  0
 11 10  1  0  0  0  0
 12 11  1  0  0  0  0
 13 14  1  0  0  0  0
 14 12  1  0  0  0  0
 15 18  1  0  0  0  0
 16 14  1  1  0  0  0
 16 17  1  0  0  0  0
 16 15  1  0  0  0  0
 17 15  1  0  0  0  0
 18 21  1  0  0  0  0
 18 20  1  0  0  0  0
 19 18  1  0  0  0  0
 21 22  1  0  0  0  0
 23 25  1  0  0  0  0
 24 26  1  1  0  0  0
 24 23  1  0  0  0  0
 24 25  1  0  0  0  0
 25  1  1  6  0  0  0
 26 27  1  0  0  0  0
 27 29  1  0  0  0  0
 28 31  1  0  0  0  0
 28 36  1  1  0  0  0
 29 30  1  0  0  0  0
 30 31  2  0  0  0  0
 32 34  1  6  0  0  0
 32 30  1  0  0  0  0
 32 28  1  0  0  0  0
 34 33  1  6  0  0  0
 35 34  1  0  0  0  0
 37 36  1  1  0  0  0
 37 40  1  0  0  0  0
 37 41  1  0  0  0  0
 38 39  1  0  0  0  0
 38 40  1  0  0  0  0
 39 40  1  0  0  0  0
 42 41  1  0  0  0  0
 43 42  1  0  0  0  0
 44 45  1  0  0  0  0
 45 46  1  0  0  0  0
 46 47  1  0  0  0  0
 47 50  1  0  0  0  0
 48 50  2  0  0  0  0
 50 49  1  0  0  0  0
 51 60  1  0  0  0  0
 52 54  1  0  0  0  0
 52 62  1  1  0  0  0
 54 53  2  0  0  0  0
 56 58  1  6  0  0  0
 56 61  1  0  0  0  0
 56 60  1  0  0  0  0
 57 49  1  6  0  0  0
 57 58  1  0  0  0  0
 57 59  1  0  0  0  0
 59 55  1  1  0  0  0
 59 61  1  0  0  0  0
 60 54  1  0  0  0  0
 61 52  1  0  0  0  0
 62 64  1  0  0  0  0
 62 63  1  0  0  0  0
 64 65  1  0  0  0  0
 66 65  1  0  0  0  0
M  END
>  <MODEL>
9

>  <REMARK>
 VINA RESULT:      -3.3      3.539     11.566
  Name = 
  28 active torsions:
  status: ('A' for Active; 'I' for Inactive)
    1  A    between atoms: C_1  and  C_34
    2  A    between atoms: C_2  and  O_12
    3  A    between atoms: C_2  and  C_27
    4  A    between atoms: C_2  and  C_52
    5  A    between atoms: O_3  and  C_32
    6  A    between atoms: O_3  and  C_34
    7  A    between atoms: C_5  and  C_18
    8  A    between atoms: C_5  and  N_55
    9  A    between atoms: C_7  and  C_17
   10  A    between atoms: C_7  and  C_25
   11  A    between atoms: C_9  and  C_11
   12  A    between atoms: C_9  and  C_14
   13  A    between atoms: C_10  and  C_24
   14  A    between atoms: C_11  and  C_18
   15  A    between atoms: O_12  and  C_53
   16  A    between atoms: C_13  and  N_22
   17  A    between atoms: C_13  and  N_33
   18  A    between atoms: N_15  and  C_24
   19  A    between atoms: C_19  and  C_27
   20  A    between atoms: C_25  and  C_54
   21  A    between atoms: O_28  and  C_49
   22  A    between atoms: O_28  and  C_65
   23  A    between atoms: C_32  and  C_49
   24  A    between atoms: N_33  and  C_43
   25  A    between atoms: C_34  and  C_59
   26  A    between atoms: C_35  and  C_61
   27  A    between atoms: C_45  and  N_63
   28  A    between atoms: C_46  and  N_55
                            x       y       z     vdW  Elec       q    Type
                         _______ _______ _______ _____ _____    ______ ____

>  <TORSDO>
F 28

$$$$
