=
 OpenBabel10222420063D

 27 30  0  0  1  0  0  0  0  0999 V2000
  189.2260  176.4830  142.6480 C   0  0  1  0  0  0  0  0  0  0  0  0
  186.9440  179.0580  141.2750 N   0  0  0  0  0  0  0  0  0  0  0  0
  185.1120  178.6170  142.7590 C   0  0  0  0  0  3  0  0  0  0  0  0
  189.0220  177.6360  141.6230 C   0  0  2  0  0  3  0  0  0  0  0  0
  185.8350  177.6310  143.3650 N   0  0  0  0  0  0  0  0  0  0  0  0
  189.2820  176.7740  144.1010 N   0  0  0  0  0  0  0  0  0  0  0  0
  188.0060  176.3040  143.4710 C   0  0  1  0  0  3  0  0  0  0  0  0
  189.8470  175.3010  142.2830 F   0  0  0  0  0  0  0  0  0  0  0  0
  185.6780  179.3460  141.6960 C   0  0  0  0  0  3  0  0  0  0  0  0
  187.0940  177.3670  142.9350 C   0  0  0  0  0  0  0  0  0  0  0  0
  187.6320  178.0610  141.8890 C   0  0  0  0  0  0  0  0  0  0  0  0
  189.3030  178.2130  144.3910 C   0  0  0  0  0  2  0  0  0  0  0  0
  189.4850  178.4440  145.8820 C   0  0  0  0  0  2  0  0  0  0  0  0
  189.1650  177.1880  146.6800 C   0  0  0  0  0  2  0  0  0  0  0  0
  190.1190  177.0460  147.8510 C   0  0  0  0  0  2  0  0  0  0  0  0
  192.8130  176.0740  148.2450 O   0  0  0  0  0  0  0  0  0  0  0  0
  191.6900  176.3500  147.2680 P   0  0  1  0  0  4  0  0  0  0  0  0
  191.9460  175.9020  145.6570 O   0  0  0  0  0  1  0  0  0  0  0  0
  189.2140  177.2120  140.2680 O   0  0  0  0  0  0  0  0  0  0  0  0
  191.7330  177.3530  140.2630 C   0  0  0  0  0  3  0  0  0  0  0  0
  192.8940  177.2020  139.6270 C   0  0  0  0  0  3  0  0  0  0  0  0
  191.8110  174.5350  137.5730 C   0  0  0  0  0  1  0  0  0  0  0  0
  194.0130  176.6020  137.6390 O   0  0  0  0  0  0  0  0  0  0  0  0
  190.4330  176.3910  138.4320 C   0  0  0  0  0  3  0  0  0  0  0  0
  191.6820  176.0450  137.6600 C   0  0  1  0  0  3  0  0  0  0  0  0
  192.9270  176.6280  138.2740 C   0  0  0  0  0  0  0  0  0  0  0  0
  190.4470  176.9720  139.6370 C   0  0  0  0  0  0  0  0  0  0  0  0
  1  8  1  6  0  0  0
  1  7  1  0  0  0  0
  1  6  1  0  0  0  0
  2  9  2  0  0  0  0
  2 11  1  0  0  0  0
  3  5  2  0  0  0  0
  4 19  1  6  0  0  0
  4 11  1  0  0  0  0
  4  1  1  0  0  0  0
  6 12  1  0  0  0  0
  7 10  1  6  0  0  0
  7  6  1  0  0  0  0
  9  3  1  0  0  0  0
 10  5  1  0  0  0  0
 11 10  2  0  0  0  0
 12 13  1  0  0  0  0
 13 14  1  0  0  0  0
 14 15  1  0  0  0  0
 17 18  1  1  0  0  0
 17 15  1  0  0  0  0
 17 16  2  0  0  0  0
 21 20  2  0  0  0  0
 23 26  2  0  0  0  0
 24 27  2  0  0  0  0
 25 22  1  1  0  0  0
 25 26  1  0  0  0  0
 25 24  1  0  0  0  0
 26 21  1  0  0  0  0
 27 20  1  0  0  0  0
 27 19  1  0  0  0  0
M  END
>  <MODEL>
1

>  <REMARK>
 VINA RESULT:      -7.1      0.000      0.000
  Name = 
  7 active torsions:
  status: ('A' for Active; 'I' for Inactive)
    1  A    between atoms: C_3  and  C_11
    2  A    between atoms: C_3  and  N_18
    3  A    between atoms: C_8  and  O_24
    4  A    between atoms: C_11  and  C_13
    5  A    between atoms: C_12  and  C_13
    6  A    between atoms: C_12  and  P_17
    7  A    between atoms: O_24  and  C_27
                            x       y       z     vdW  Elec       q    Type
                         _______ _______ _______ _____ _____    ______ ____

>  <TORSDO>
F 7

$$$$
=
 OpenBabel10222420063D

 27 30  0  0  1  0  0  0  0  0999 V2000
  190.1300  178.3500  143.6640 C   0  0  1  0  0  0  0  0  0  0  0  0
  191.7740  175.0460  143.9800 N   0  0  0  0  0  0  0  0  0  0  0  0
  192.4140  175.2790  146.2790 C   0  0  0  0  0  3  0  0  0  0  0  0
  190.4990  177.0030  142.9780 C   0  0  2  0  0  3  0  0  0  0  0  0
  191.8500  176.5210  146.3150 N   0  0  0  0  0  0  0  0  0  0  0  0
  189.1450  178.3820  144.7720 N   0  0  0  0  0  0  0  0  0  0  0  0
  190.6150  178.3640  145.0650 C   0  0  1  0  0  3  0  0  0  0  0  0
  190.2720  179.5560  142.9990 F   0  0  0  0  0  0  0  0  0  0  0  0
  192.3730  174.5260  145.0900 C   0  0  0  0  0  3  0  0  0  0  0  0
  191.2530  177.0140  145.2010 C   0  0  0  0  0  0  0  0  0  0  0  0
  191.2340  176.2900  144.0420 C   0  0  0  0  0  0  0  0  0  0  0  0
  188.4850  177.0870  144.9810 C   0  0  0  0  0  2  0  0  0  0  0  0
  186.9990  177.2020  144.6830 C   0  0  0  0  0  2  0  0  0  0  0  0
  186.2150  177.6040  145.9240 C   0  0  0  0  0  2  0  0  0  0  0  0
  185.6950  179.0230  145.7870 C   0  0  0  0  0  2  0  0  0  0  0  0
  184.9870  179.5470  143.0330 O   0  0  0  0  0  0  0  0  0  0  0  0
  184.5230  179.1050  144.4040 P   0  0  1  0  0  4  0  0  0  0  0  0
  182.9080  178.6210  144.5490 O   0  0  0  0  0  1  0  0  0  0  0  0
  191.2860  177.1820  141.7940 O   0  0  0  0  0  0  0  0  0  0  0  0
  191.3790  176.4130  139.3930 C   0  0  0  0  0  3  0  0  0  0  0  0
  190.9780  176.5350  138.1290 C   0  0  0  0  0  3  0  0  0  0  0  0
  187.7430  177.7300  138.9100 C   0  0  0  0  0  1  0  0  0  0  0  0
  189.6450  177.6920  136.5630 O   0  0  0  0  0  0  0  0  0  0  0  0
  189.8060  178.0940  140.2110 C   0  0  0  0  0  3  0  0  0  0  0  0
  189.1720  178.2370  138.8500 C   0  0  1  0  0  3  0  0  0  0  0  0
  189.9280  177.5010  137.7750 C   0  0  0  0  0  0  0  0  0  0  0  0
  190.8050  177.2440  140.4750 C   0  0  0  0  0  0  0  0  0  0  0  0
  1  8  1  6  0  0  0
  1  6  1  0  0  0  0
  1  7  1  0  0  0  0
  2 11  2  0  0  0  0
  2  9  1  0  0  0  0
  3  5  1  0  0  0  0
  4 19  1  6  0  0  0
  4  1  1  0  0  0  0
  4 11  1  0  0  0  0
  6 12  1  0  0  0  0
  6  7  1  0  0  0  0
  7 10  1  1  0  0  0
  9  3  2  0  0  0  0
 10  5  2  0  0  0  0
 11 10  1  0  0  0  0
 13 12  1  0  0  0  0
 13 14  1  0  0  0  0
 15 14  1  0  0  0  0
 17 16  2  6  0  0  0
 17 18  1  0  0  0  0
 17 15  1  0  0  0  0
 20 27  1  0  0  0  0
 21 20  2  0  0  0  0
 23 26  2  0  0  0  0
 24 27  2  0  0  0  0
 25 22  1  1  0  0  0
 25 24  1  0  0  0  0
 26 21  1  0  0  0  0
 26 25  1  0  0  0  0
 27 19  1  0  0  0  0
M  END
>  <MODEL>
2

>  <REMARK>
 VINA RESULT:      -6.7      3.397      5.231
  Name = 
  7 active torsions:
  status: ('A' for Active; 'I' for Inactive)
    1  A    between atoms: C_3  and  C_11
    2  A    between atoms: C_3  and  N_18
    3  A    between atoms: C_8  and  O_24
    4  A    between atoms: C_11  and  C_13
    5  A    between atoms: C_12  and  C_13
    6  A    between atoms: C_12  and  P_17
    7  A    between atoms: O_24  and  C_27
                            x       y       z     vdW  Elec       q    Type
                         _______ _______ _______ _____ _____    ______ ____

>  <TORSDO>
F 7

$$$$
=
 OpenBabel10222420063D

 27 30  0  0  1  0  0  0  0  0999 V2000
  183.2620  178.6230  140.8630 C   0  0  1  0  0  0  0  0  0  0  0  0
  185.8750  178.7910  138.2440 N   0  0  0  0  0  0  0  0  0  0  0  0
  185.3110  176.7270  137.1620 C   0  0  0  0  0  3  0  0  0  0  0  0
  184.4320  179.4330  140.2350 C   0  0  2  0  0  3  0  0  0  0  0  0
  184.3060  176.5240  138.0630 N   0  0  0  0  0  0  0  0  0  0  0  0
  181.9980  178.4280  140.1130 N   0  0  0  0  0  0  0  0  0  0  0  0
  183.0490  177.3610  140.1140 C   0  0  1  0  0  3  0  0  0  0  0  0
  183.1300  178.5010  142.2360 F   0  0  0  0  0  0  0  0  0  0  0  0
  186.1090  177.8830  137.2520 C   0  0  0  0  0  3  0  0  0  0  0  0
  184.0870  177.4450  139.0350 C   0  0  0  0  0  0  0  0  0  0  0  0
  184.8780  178.5550  139.1330 C   0  0  0  0  0  0  0  0  0  0  0  0
  181.9480  179.2100  138.8720 C   0  0  0  0  0  2  0  0  0  0  0  0
  181.0240  180.4030  139.0390 C   0  0  0  0  0  2  0  0  0  0  0  0
  181.5920  181.6430  138.3640 C   0  0  0  0  0  2  0  0  0  0  0  0
  180.5540  182.2770  137.4570 C   0  0  0  0  0  2  0  0  0  0  0  0
  180.4140  184.6550  135.8190 O   0  0  0  0  0  0  0  0  0  0  0  0
  181.1350  183.9100  136.9220 P   0  0  1  0  0  4  0  0  0  0  0  0
  182.4300  184.7060  137.6660 O   0  0  0  0  0  1  0  0  0  0  0  0
  185.4800  179.7100  141.1720 O   0  0  0  0  0  0  0  0  0  0  0  0
  187.6930  178.5020  141.0710 C   0  0  0  0  0  3  0  0  0  0  0  0
  188.5120  177.5590  141.5330 C   0  0  0  0  0  3  0  0  0  0  0  0
  187.3380  177.6910  144.8660 C   0  0  0  0  0  1  0  0  0  0  0  0
  188.8650  175.8030  143.0690 O   0  0  0  0  0  0  0  0  0  0  0  0
  186.0310  178.1270  142.8210 C   0  0  0  0  0  3  0  0  0  0  0  0
  186.9180  177.1280  143.5210 C   0  0  1  0  0  3  0  0  0  0  0  0
  188.1390  176.7700  142.7150 C   0  0  0  0  0  0  0  0  0  0  0  0
  186.3860  178.7780  141.7080 C   0  0  0  0  0  0  0  0  0  0  0  0
  1  8  1  1  0  0  0
  2 11  1  0  0  0  0
  3  9  1  0  0  0  0
  3  5  2  0  0  0  0
  4  1  1  0  0  0  0
  4 19  1  1  0  0  0
  5 10  1  0  0  0  0
  6  7  1  0  0  0  0
  6  1  1  0  0  0  0
  7 10  1  6  0  0  0
  7  1  1  0  0  0  0
  9  2  2  0  0  0  0
 10 11  2  0  0  0  0
 11  4  1  0  0  0  0
 12 13  1  0  0  0  0
 12  6  1  0  0  0  0
 14 13  1  0  0  0  0
 15 14  1  0  0  0  0
 17 16  2  1  0  0  0
 17 15  1  0  0  0  0
 17 18  1  0  0  0  0
 19 27  1  0  0  0  0
 20 21  2  0  0  0  0
 20 27  1  0  0  0  0
 21 26  1  0  0  0  0
 24 25  1  0  0  0  0
 25 22  1  1  0  0  0
 26 23  2  0  0  0  0
 26 25  1  0  0  0  0
 27 24  2  0  0  0  0
M  END
>  <MODEL>
3

>  <REMARK>
 VINA RESULT:      -6.5      5.849      9.050
  Name = 
  7 active torsions:
  status: ('A' for Active; 'I' for Inactive)
    1  A    between atoms: C_3  and  C_11
    2  A    between atoms: C_3  and  N_18
    3  A    between atoms: C_8  and  O_24
    4  A    between atoms: C_11  and  C_13
    5  A    between atoms: C_12  and  C_13
    6  A    between atoms: C_12  and  P_17
    7  A    between atoms: O_24  and  C_27
                            x       y       z     vdW  Elec       q    Type
                         _______ _______ _______ _____ _____    ______ ____

>  <TORSDO>
F 7

$$$$
=
 OpenBabel10222420063D

 27 30  0  0  1  0  0  0  0  0999 V2000
  184.0540  178.2450  139.7460 C   0  0  1  0  0  0  0  0  0  0  0  0
  181.7390  178.8420  142.5750 N   0  0  0  0  0  0  0  0  0  0  0  0
  179.8740  179.5670  141.2530 C   0  0  0  0  0  3  0  0  0  0  0  0
  183.8270  178.1850  141.2840 C   0  0  2  0  0  3  0  0  0  0  0  0
  180.6090  179.3980  140.1150 N   0  0  0  0  0  0  0  0  0  0  0  0
  183.3080  177.3370  138.8420 N   0  0  0  0  0  0  0  0  0  0  0  0
  182.8340  178.7400  139.0640 C   0  0  1  0  0  3  0  0  0  0  0  0
  185.2380  178.7250  139.2140 F   0  0  0  0  0  0  0  0  0  0  0  0
  180.4490  179.2820  142.5060 C   0  0  0  0  0  3  0  0  0  0  0  0
  181.8870  178.9520  140.2080 C   0  0  0  0  0  0  0  0  0  0  0  0
  182.4490  178.6970  141.4270 C   0  0  0  0  0  0  0  0  0  0  0  0
  182.5300  176.3260  139.5690 C   0  0  0  0  0  2  0  0  0  0  0  0
  181.8920  175.3520  138.5930 C   0  0  0  0  0  2  0  0  0  0  0  0
  180.3800  175.5180  138.5540 C   0  0  0  0  0  2  0  0  0  0  0  0
  179.6970  174.2970  139.1410 C   0  0  0  0  0  2  0  0  0  0  0  0
  179.0810  175.9960  141.3970 O   0  0  0  0  0  0  0  0  0  0  0  0
  179.3370  174.5910  140.8950 P   0  0  1  0  0  4  0  0  0  0  0  0
  179.1860  173.3350  142.0180 O   0  0  0  0  0  1  0  0  0  0  0  0
  184.7800  178.9670  142.0150 O   0  0  0  0  0  0  0  0  0  0  0  0
  185.2100  178.4160  144.4390 C   0  0  0  0  0  3  0  0  0  0  0  0
  186.0520  178.0560  145.4060 C   0  0  0  0  0  3  0  0  0  0  0  0
  188.1660  176.1380  143.3200 C   0  0  0  0  0  1  0  0  0  0  0  0
  188.2590  177.4910  146.0190 O   0  0  0  0  0  0  0  0  0  0  0  0
  186.8800  178.1410  142.6770 C   0  0  0  0  0  3  0  0  0  0  0  0
  187.8920  177.5930  143.6520 C   0  0  1  0  0  3  0  0  0  0  0  0
  187.4440  177.7120  145.0850 C   0  0  0  0  0  0  0  0  0  0  0  0
  185.6390  178.5020  143.0250 C   0  0  0  0  0  0  0  0  0  0  0  0
  1  8  1  6  0  0  0
  1  4  1  0  0  0  0
  3  9  2  0  0  0  0
  4 11  1  0  0  0  0
  4 19  1  1  0  0  0
  5 10  2  0  0  0  0
  5  3  1  0  0  0  0
  6  7  1  0  0  0  0
  6 12  1  0  0  0  0
  6  1  1  0  0  0  0
  7  1  1  0  0  0  0
  7 10  1  1  0  0  0
  9  2  1  0  0  0  0
 10 11  1  0  0  0  0
 11  2  2  0  0  0  0
 13 12  1  0  0  0  0
 14 13  1  0  0  0  0
 14 15  1  0  0  0  0
 15 17  1  0  0  0  0
 17 16  2  6  0  0  0
 17 18  1  0  0  0  0
 19 27  1  0  0  0  0
 20 21  2  0  0  0  0
 24 27  2  0  0  0  0
 24 25  1  0  0  0  0
 25 22  1  6  0  0  0
 25 26  1  0  0  0  0
 26 21  1  0  0  0  0
 26 23  2  0  0  0  0
 27 20  1  0  0  0  0
M  END
>  <MODEL>
4

>  <REMARK>
 VINA RESULT:      -6.5      5.711      8.786
  Name = 
  7 active torsions:
  status: ('A' for Active; 'I' for Inactive)
    1  A    between atoms: C_3  and  C_11
    2  A    between atoms: C_3  and  N_18
    3  A    between atoms: C_8  and  O_24
    4  A    between atoms: C_11  and  C_13
    5  A    between atoms: C_12  and  C_13
    6  A    between atoms: C_12  and  P_17
    7  A    between atoms: O_24  and  C_27
                            x       y       z     vdW  Elec       q    Type
                         _______ _______ _______ _____ _____    ______ ____

>  <TORSDO>
F 7

$$$$
=
 OpenBabel10222420063D

 27 30  0  0  1  0  0  0  0  0999 V2000
  188.0800  176.9640  144.1210 C   0  0  1  0  0  0  0  0  0  0  0  0
  187.7080  178.7710  147.3320 N   0  0  0  0  0  0  0  0  0  0  0  0
  189.5340  177.7020  148.4600 C   0  0  0  0  0  3  0  0  0  0  0  0
  187.3110  178.0490  144.9280 C   0  0  2  0  0  3  0  0  0  0  0  0
  189.7930  176.9580  147.3450 N   0  0  0  0  0  0  0  0  0  0  0  0
  189.4960  177.1770  143.7370 N   0  0  0  0  0  0  0  0  0  0  0  0
  189.1540  176.3690  144.9510 C   0  0  1  0  0  3  0  0  0  0  0  0
  187.4080  176.0550  143.3210 F   0  0  0  0  0  0  0  0  0  0  0  0
  188.4740  178.6270  148.4520 C   0  0  0  0  0  3  0  0  0  0  0  0
  189.0220  177.1220  146.2410 C   0  0  0  0  0  0  0  0  0  0  0  0
  187.9800  178.0060  146.2440 C   0  0  0  0  0  0  0  0  0  0  0  0
  189.9680  178.5330  144.0420 C   0  0  0  0  0  2  0  0  0  0  0  0
  191.3180  178.7780  143.3900 C   0  0  0  0  0  2  0  0  0  0  0  0
  191.7970  177.5490  142.6300 C   0  0  0  0  0  2  0  0  0  0  0  0
  191.9270  177.8570  141.1500 C   0  0  0  0  0  2  0  0  0  0  0  0
  190.7380  175.9680  139.3130 O   0  0  0  0  0  0  0  0  0  0  0  0
  190.5240  177.1310  140.2570 P   0  0  1  0  0  4  0  0  0  0  0  0
  188.9290  177.6460  140.4920 O   0  0  0  0  0  1  0  0  0  0  0  0
  185.9070  177.7810  145.0190 O   0  0  0  0  0  0  0  0  0  0  0  0
  183.6900  178.8780  144.5170 C   0  0  0  0  0  3  0  0  0  0  0  0
  182.7210  179.1720  143.6520 C   0  0  0  0  0  3  0  0  0  0  0  0
  184.8260  179.3070  140.8150 C   0  0  0  0  0  1  0  0  0  0  0  0
  181.8910  178.9910  141.4520 O   0  0  0  0  0  0  0  0  0  0  0  0
  185.1200  177.8820  142.8050 C   0  0  0  0  0  3  0  0  0  0  0  0
  184.1640  178.2730  141.7060 C   0  0  1  0  0  3  0  0  0  0  0  0
  182.8620  178.8150  142.2340 C   0  0  0  0  0  0  0  0  0  0  0  0
  184.9220  178.1730  144.0950 C   0  0  0  0  0  0  0  0  0  0  0  0
  1  8  1  6  0  0  0
  1  4  1  0  0  0  0
  1  7  1  0  0  0  0
  2  9  1  0  0  0  0
  4 19  1  1  0  0  0
  4 11  1  0  0  0  0
  5  3  1  0  0  0  0
  6 12  1  0  0  0  0
  6  1  1  0  0  0  0
  6  7  1  0  0  0  0
  7 10  1  1  0  0  0
  9  3  2  0  0  0  0
 10 11  1  0  0  0  0
 10  5  2  0  0  0  0
 11  2  2  0  0  0  0
 13 12  1  0  0  0  0
 14 13  1  0  0  0  0
 15 14  1  0  0  0  0
 17 16  2  1  0  0  0
 17 18  1  0  0  0  0
 17 15  1  0  0  0  0
 21 20  2  0  0  0  0
 23 26  2  0  0  0  0
 24 27  2  0  0  0  0
 25 22  1  6  0  0  0
 25 26  1  0  0  0  0
 25 24  1  0  0  0  0
 26 21  1  0  0  0  0
 27 20  1  0  0  0  0
 27 19  1  0  0  0  0
M  END
>  <MODEL>
5

>  <REMARK>
 VINA RESULT:      -6.5      3.345      6.909
  Name = 
  7 active torsions:
  status: ('A' for Active; 'I' for Inactive)
    1  A    between atoms: C_3  and  C_11
    2  A    between atoms: C_3  and  N_18
    3  A    between atoms: C_8  and  O_24
    4  A    between atoms: C_11  and  C_13
    5  A    between atoms: C_12  and  C_13
    6  A    between atoms: C_12  and  P_17
    7  A    between atoms: O_24  and  C_27
                            x       y       z     vdW  Elec       q    Type
                         _______ _______ _______ _____ _____    ______ ____

>  <TORSDO>
F 7

$$$$
=
 OpenBabel10222420063D

 27 30  0  0  1  0  0  0  0  0999 V2000
  190.5110  177.4240  139.6980 C   0  0  1  0  0  0  0  0  0  0  0  0
  187.0130  178.1640  138.7310 N   0  0  0  0  0  0  0  0  0  0  0  0
  187.4850  178.8000  136.4680 C   0  0  0  0  0  3  0  0  0  0  0  0
  189.0150  177.4490  140.1240 C   0  0  2  0  0  3  0  0  0  0  0  0
  188.8140  178.5710  136.6750 N   0  0  0  0  0  0  0  0  0  0  0  0
  190.9830  176.4600  138.6750 N   0  0  0  0  0  0  0  0  0  0  0  0
  190.6540  177.8710  138.2920 C   0  0  1  0  0  3  0  0  0  0  0  0
  191.5060  177.8810  140.5450 F   0  0  0  0  0  0  0  0  0  0  0  0
  186.5670  178.5900  137.5140 C   0  0  0  0  0  3  0  0  0  0  0  0
  189.2340  178.1410  137.8910 C   0  0  0  0  0  0  0  0  0  0  0  0
  188.3430  177.9590  138.9120 C   0  0  0  0  0  0  0  0  0  0  0  0
  189.9510  175.4870  138.2940 C   0  0  0  0  0  2  0  0  0  0  0  0
  190.5290  174.4570  137.3390 C   0  0  0  0  0  2  0  0  0  0  0  0
  191.8910  174.8910  136.8140 C   0  0  0  0  0  2  0  0  0  0  0  0
  192.8670  173.7300  136.8460 C   0  0  0  0  0  2  0  0  0  0  0  0
  194.6830  175.6250  138.0580 O   0  0  0  0  0  0  0  0  0  0  0  0
  194.2980  174.1730  137.8700 P   0  0  1  0  0  4  0  0  0  0  0  0
  195.2040  173.0230  138.7170 O   0  0  0  0  0  1  0  0  0  0  0  0
  188.7800  178.2780  141.2690 O   0  0  0  0  0  0  0  0  0  0  0  0
  187.7230  177.0730  143.2180 C   0  0  0  0  0  3  0  0  0  0  0  0
  187.7180  176.7610  144.5130 C   0  0  0  0  0  3  0  0  0  0  0  0
  191.2290  176.8850  144.9070 C   0  0  0  0  0  1  0  0  0  0  0  0
  188.7460  176.9940  146.6230 O   0  0  0  0  0  0  0  0  0  0  0  0
  189.8690  178.2320  143.3530 C   0  0  0  0  0  3  0  0  0  0  0  0
  190.0510  177.8340  144.7960 C   0  0  1  0  0  3  0  0  0  0  0  0
  188.8220  177.1910  145.3820 C   0  0  0  0  0  0  0  0  0  0  0  0
  188.8140  177.8700  142.6140 C   0  0  0  0  0  0  0  0  0  0  0  0
  1  4  1  0  0  0  0
  1  8  1  1  0  0  0
  2 11  1  0  0  0  0
  3  5  2  0  0  0  0
  3  9  1  0  0  0  0
  4 19  1  1  0  0  0
  5 10  1  0  0  0  0
  6  1  1  0  0  0  0
  7 10  1  6  0  0  0
  7  6  1  0  0  0  0
  7  1  1  0  0  0  0
  9  2  2  0  0  0  0
 10 11  2  0  0  0  0
 11  4  1  0  0  0  0
 12  6  1  0  0  0  0
 13 12  1  0  0  0  0
 14 15  1  0  0  0  0
 14 13  1  0  0  0  0
 15 17  1  0  0  0  0
 17 16  2  1  0  0  0
 17 18  1  0  0  0  0
 19 27  1  0  0  0  0
 20 21  2  0  0  0  0
 21 26  1  0  0  0  0
 24 25  1  0  0  0  0
 25 22  1  6  0  0  0
 25 26  1  0  0  0  0
 26 23  2  0  0  0  0
 27 20  1  0  0  0  0
 27 24  2  0  0  0  0
M  END
>  <MODEL>
6

>  <REMARK>
 VINA RESULT:      -6.5      3.204      7.020
  Name = 
  7 active torsions:
  status: ('A' for Active; 'I' for Inactive)
    1  A    between atoms: C_3  and  C_11
    2  A    between atoms: C_3  and  N_18
    3  A    between atoms: C_8  and  O_24
    4  A    between atoms: C_11  and  C_13
    5  A    between atoms: C_12  and  C_13
    6  A    between atoms: C_12  and  P_17
    7  A    between atoms: O_24  and  C_27
                            x       y       z     vdW  Elec       q    Type
                         _______ _______ _______ _____ _____    ______ ____

>  <TORSDO>
F 7

$$$$
=
 OpenBabel10222420063D

 27 30  0  0  1  0  0  0  0  0999 V2000
  190.5620  177.3300  139.4950 C   0  0  1  0  0  0  0  0  0  0  0  0
  187.0590  177.9150  138.4430 N   0  0  0  0  0  0  0  0  0  0  0  0
  187.5440  178.4230  136.1500 C   0  0  0  0  0  3  0  0  0  0  0  0
  189.0600  177.3410  139.9010 C   0  0  2  0  0  3  0  0  0  0  0  0
  188.8760  178.2430  136.3870 N   0  0  0  0  0  0  0  0  0  0  0  0
  191.0720  176.3180  138.5390 N   0  0  0  0  0  0  0  0  0  0  0  0
  190.7120  177.6930  138.0660 C   0  0  1  0  0  3  0  0  0  0  0  0
  191.5330  177.8650  140.3240 F   0  0  0  0  0  0  0  0  0  0  0  0
  186.6180  178.2530  137.1970 C   0  0  0  0  0  3  0  0  0  0  0  0
  189.2910  177.9000  137.6330 C   0  0  0  0  0  0  0  0  0  0  0  0
  188.3910  177.7570  138.6520 C   0  0  0  0  0  0  0  0  0  0  0  0
  190.0720  175.2960  138.2070 C   0  0  0  0  0  2  0  0  0  0  0  0
  190.6500  174.2970  137.2190 C   0  0  0  0  0  2  0  0  0  0  0  0
  192.0020  174.7580  136.6930 C   0  0  0  0  0  2  0  0  0  0  0  0
  193.0220  173.6400  136.8020 C   0  0  0  0  0  2  0  0  0  0  0  0
  194.5220  175.5840  138.3280 O   0  0  0  0  0  0  0  0  0  0  0  0
  194.3330  174.1290  137.9570 P   0  0  1  0  0  4  0  0  0  0  0  0
  195.3350  173.0040  138.7290 O   0  0  0  0  0  1  0  0  0  0  0  0
  188.7880  178.2320  140.9900 O   0  0  0  0  0  0  0  0  0  0  0  0
  190.0360  178.4050  143.1760 C   0  0  0  0  0  3  0  0  0  0  0  0
  190.1790  178.0480  144.4520 C   0  0  0  0  0  3  0  0  0  0  0  0
  186.7340  177.5160  145.0440 C   0  0  0  0  0  1  0  0  0  0  0  0
  189.3920  176.7520  146.2590 O   0  0  0  0  0  0  0  0  0  0  0  0
  187.9340  177.1870  142.9160 C   0  0  0  0  0  3  0  0  0  0  0  0
  187.9060  176.8200  144.3790 C   0  0  1  0  0  3  0  0  0  0  0  0
  189.1830  177.1780  145.0930 C   0  0  0  0  0  0  0  0  0  0  0  0
  188.8960  177.9320  142.3590 C   0  0  0  0  0  0  0  0  0  0  0  0
  1  4  1  0  0  0  0
  1  8  1  1  0  0  0
  2 11  1  0  0  0  0
  3  5  2  0  0  0  0
  3  9  1  0  0  0  0
  4 19  1  1  0  0  0
  5 10  1  0  0  0  0
  6  1  1  0  0  0  0
  7 10  1  6  0  0  0
  7  6  1  0  0  0  0
  7  1  1  0  0  0  0
  9  2  2  0  0  0  0
 10 11  2  0  0  0  0
 11  4  1  0  0  0  0
 12  6  1  0  0  0  0
 13 12  1  0  0  0  0
 14 15  1  0  0  0  0
 14 13  1  0  0  0  0
 15 17  1  0  0  0  0
 17 16  2  1  0  0  0
 17 18  1  0  0  0  0
 19 27  1  0  0  0  0
 20 21  2  0  0  0  0
 21 26  1  0  0  0  0
 24 25  1  0  0  0  0
 25 22  1  1  0  0  0
 25 26  1  0  0  0  0
 26 23  2  0  0  0  0
 27 24  2  0  0  0  0
 27 20  1  0  0  0  0
M  END
>  <MODEL>
7

>  <REMARK>
 VINA RESULT:      -6.4      3.210      7.046
  Name = 
  7 active torsions:
  status: ('A' for Active; 'I' for Inactive)
    1  A    between atoms: C_3  and  C_11
    2  A    between atoms: C_3  and  N_18
    3  A    between atoms: C_8  and  O_24
    4  A    between atoms: C_11  and  C_13
    5  A    between atoms: C_12  and  C_13
    6  A    between atoms: C_12  and  P_17
    7  A    between atoms: O_24  and  C_27
                            x       y       z     vdW  Elec       q    Type
                         _______ _______ _______ _____ _____    ______ ____

>  <TORSDO>
F 7

$$$$
=
 OpenBabel10222420063D

 27 30  0  0  1  0  0  0  0  0999 V2000
  184.1540  178.5130  140.3040 C   0  0  1  0  0  0  0  0  0  0  0  0
  181.6560  178.9150  143.0100 N   0  0  0  0  0  0  0  0  0  0  0  0
  179.8870  179.7530  141.6250 C   0  0  0  0  0  3  0  0  0  0  0  0
  183.8240  178.3390  141.8150 C   0  0  2  0  0  3  0  0  0  0  0  0
  180.6960  179.6640  140.5290 N   0  0  0  0  0  0  0  0  0  0  0  0
  183.4680  177.6820  139.2870 N   0  0  0  0  0  0  0  0  0  0  0  0
  182.9850  179.0690  139.5830 C   0  0  1  0  0  3  0  0  0  0  0  0
  185.3740  179.0220  139.8910 F   0  0  0  0  0  0  0  0  0  0  0  0
  180.3750  179.3690  142.8880 C   0  0  0  0  0  3  0  0  0  0  0  0
  181.9640  179.2020  140.6730 C   0  0  0  0  0  0  0  0  0  0  0  0
  182.4410  178.8500  141.9040 C   0  0  0  0  0  0  0  0  0  0  0  0
  182.6390  176.6260  139.8810 C   0  0  0  0  0  2  0  0  0  0  0  0
  182.2580  175.6020  138.8260 C   0  0  0  0  0  2  0  0  0  0  0  0
  183.4600  175.2050  137.9810 C   0  0  0  0  0  2  0  0  0  0  0  0
  183.1020  174.0560  137.0570 C   0  0  0  0  0  2  0  0  0  0  0  0
  184.1400  171.4070  136.5450 O   0  0  0  0  0  0  0  0  0  0  0  0
  184.3600  172.7550  137.1960 P   0  0  1  0  0  4  0  0  0  0  0  0
  185.8440  173.0020  137.9690 O   0  0  0  0  0  1  0  0  0  0  0  0
  184.7280  179.0550  142.6650 O   0  0  0  0  0  0  0  0  0  0  0  0
  185.4730  178.2670  144.9440 C   0  0  0  0  0  3  0  0  0  0  0  0
  186.4330  177.8140  145.7480 C   0  0  0  0  0  3  0  0  0  0  0  0
  188.2220  176.1130  143.2170 C   0  0  0  0  0  1  0  0  0  0  0  0
  188.6950  177.1920  145.9980 O   0  0  0  0  0  0  0  0  0  0  0  0
  186.8870  178.1690  142.9540 C   0  0  0  0  0  3  0  0  0  0  0  0
  188.0140  177.5270  143.7240 C   0  0  1  0  0  3  0  0  0  0  0  0
  187.7650  177.5040  145.2090 C   0  0  0  0  0  0  0  0  0  0  0  0
  185.7100  178.4930  143.5000 C   0  0  0  0  0  0  0  0  0  0  0  0
  1  8  1  6  0  0  0
  1  4  1  0  0  0  0
  3  9  2  0  0  0  0
  4 11  1  0  0  0  0
  4 19  1  1  0  0  0
  5 10  2  0  0  0  0
  5  3  1  0  0  0  0
  6  7  1  0  0  0  0
  6 12  1  0  0  0  0
  6  1  1  0  0  0  0
  7  1  1  0  0  0  0
  7 10  1  1  0  0  0
  9  2  1  0  0  0  0
 10 11  1  0  0  0  0
 11  2  2  0  0  0  0
 13 12  1  0  0  0  0
 14 13  1  0  0  0  0
 15 17  1  0  0  0  0
 15 14  1  0  0  0  0
 17 16  2  6  0  0  0
 17 18  1  0  0  0  0
 19 27  1  0  0  0  0
 20 21  2  0  0  0  0
 24 27  2  0  0  0  0
 24 25  1  0  0  0  0
 25 22  1  6  0  0  0
 25 26  1  0  0  0  0
 26 21  1  0  0  0  0
 26 23  2  0  0  0  0
 27 20  1  0  0  0  0
M  END
>  <MODEL>
8

>  <REMARK>
 VINA RESULT:      -6.4      5.190      8.369
  Name = 
  7 active torsions:
  status: ('A' for Active; 'I' for Inactive)
    1  A    between atoms: C_3  and  C_11
    2  A    between atoms: C_3  and  N_18
    3  A    between atoms: C_8  and  O_24
    4  A    between atoms: C_11  and  C_13
    5  A    between atoms: C_12  and  C_13
    6  A    between atoms: C_12  and  P_17
    7  A    between atoms: O_24  and  C_27
                            x       y       z     vdW  Elec       q    Type
                         _______ _______ _______ _____ _____    ______ ____

>  <TORSDO>
F 7

$$$$
=
 OpenBabel10222420063D

 27 30  0  0  1  0  0  0  0  0999 V2000
  190.4300  177.2650  139.4150 C   0  0  1  0  0  0  0  0  0  0  0  0
  186.9080  178.0770  138.6090 N   0  0  0  0  0  0  0  0  0  0  0  0
  187.2660  178.5710  136.2900 C   0  0  0  0  0  3  0  0  0  0  0  0
  188.9640  177.3670  139.9230 C   0  0  2  0  0  3  0  0  0  0  0  0
  188.5970  178.3060  136.4340 N   0  0  0  0  0  0  0  0  0  0  0  0
  190.8090  176.2310  138.4230 N   0  0  0  0  0  0  0  0  0  0  0  0
  190.5040  177.6290  137.9800 C   0  0  1  0  0  3  0  0  0  0  0  0
  191.4880  177.7320  140.1770 F   0  0  0  0  0  0  0  0  0  0  0  0
  186.4040  178.4510  137.3970 C   0  0  0  0  0  3  0  0  0  0  0  0
  189.0730  177.9280  137.6460 C   0  0  0  0  0  0  0  0  0  0  0  0
  188.2380  177.8340  138.7240 C   0  0  0  0  0  0  0  0  0  0  0  0
  189.7260  175.2760  138.1560 C   0  0  0  0  0  2  0  0  0  0  0  0
  190.1430  174.2990  137.0700 C   0  0  0  0  0  2  0  0  0  0  0  0
  188.9310  173.7030  136.3680 C   0  0  0  0  0  2  0  0  0  0  0  0
  187.8840  174.7710  136.1180 C   0  0  0  0  0  2  0  0  0  0  0  0
  185.0630  175.0840  136.6680 O   0  0  0  0  0  0  0  0  0  0  0  0
  186.3260  174.2880  136.9140 P   0  0  1  0  0  4  0  0  0  0  0  0
  186.1870  172.9050  137.8790 O   0  0  0  0  0  1  0  0  0  0  0  0
  188.8230  178.2650  141.0320 O   0  0  0  0  0  0  0  0  0  0  0  0
  187.6780  177.2090  143.0160 C   0  0  0  0  0  3  0  0  0  0  0  0
  187.6410  176.9540  144.3230 C   0  0  0  0  0  3  0  0  0  0  0  0
  191.1500  176.8900  144.7550 C   0  0  0  0  0  1  0  0  0  0  0  0
  188.6600  177.2180  146.4340 O   0  0  0  0  0  0  0  0  0  0  0  0
  189.8870  178.2460  143.1290 C   0  0  0  0  0  3  0  0  0  0  0  0
  190.0310  177.9010  144.5900 C   0  0  1  0  0  3  0  0  0  0  0  0
  188.7600  177.3560  145.1870 C   0  0  0  0  0  0  0  0  0  0  0  0
  188.8200  177.9140  142.3920 C   0  0  0  0  0  0  0  0  0  0  0  0
  1  4  1  0  0  0  0
  1  8  1  1  0  0  0
  2 11  1  0  0  0  0
  3  5  2  0  0  0  0
  3  9  1  0  0  0  0
  4 19  1  1  0  0  0
  5 10  1  0  0  0  0
  6  1  1  0  0  0  0
  7 10  1  6  0  0  0
  7  6  1  0  0  0  0
  7  1  1  0  0  0  0
  9  2  2  0  0  0  0
 10 11  2  0  0  0  0
 11  4  1  0  0  0  0
 12  6  1  0  0  0  0
 13 12  1  0  0  0  0
 14 13  1  0  0  0  0
 15 14  1  0  0  0  0
 15 17  1  0  0  0  0
 17 16  2  6  0  0  0
 17 18  1  0  0  0  0
 19 27  1  0  0  0  0
 20 21  2  0  0  0  0
 21 26  1  0  0  0  0
 24 25  1  0  0  0  0
 25 22  1  6  0  0  0
 25 26  1  0  0  0  0
 26 23  2  0  0  0  0
 27 20  1  0  0  0  0
 27 24  2  0  0  0  0
M  END
>  <MODEL>
9

>  <REMARK>
 VINA RESULT:      -6.4      3.843      7.499
  Name = 
  7 active torsions:
  status: ('A' for Active; 'I' for Inactive)
    1  A    between atoms: C_3  and  C_11
    2  A    between atoms: C_3  and  N_18
    3  A    between atoms: C_8  and  O_24
    4  A    between atoms: C_11  and  C_13
    5  A    between atoms: C_12  and  C_13
    6  A    between atoms: C_12  and  P_17
    7  A    between atoms: O_24  and  C_27
                            x       y       z     vdW  Elec       q    Type
                         _______ _______ _______ _____ _____    ______ ____

>  <TORSDO>
F 7

$$$$
