=
 OpenBabel10222418113D

 45 49  0  0  1  0  0  0  0  0999 V2000
  185.0340  178.5980  142.3730 C   0  0  0  0  0  0  0  0  0  0  0  0
  185.0380  178.9570  139.9690 C   0  0  0  0  0  0  0  0  0  0  0  0
  186.4590  178.7980  139.9370 N   0  0  0  0  0  0  0  0  0  0  0  0
  184.4120  179.2160  138.8570 N   0  0  0  0  0  0  0  0  0  0  0  0
  184.3450  178.8520  141.2610 C   0  0  0  0  0  3  0  0  0  0  0  0
  187.1690  178.5570  141.0010 C   0  0  0  0  0  0  0  0  0  0  0  0
  186.5320  178.4280  142.3620 C   0  0  0  0  0  2  0  0  0  0  0  0
  182.3300  180.1540  139.4300 O   0  0  0  0  0  0  0  0  0  0  0  0
  182.9980  179.4000  138.6710 C   0  0  0  0  0  0  0  0  0  0  0  0
  181.4760  177.4790  138.0420 C   0  0  1  0  0  3  0  0  0  0  0  0
  180.8240  178.7670  137.7580 N   0  0  0  0  0  2  0  0  0  0  0  0
  182.2820  178.6390  137.5910 C   0  0  1  0  0  3  0  0  0  0  0  0
  181.4700  177.2100  139.5500 C   0  0  2  0  0  3  0  0  0  0  0  0
  182.3000  176.1170  139.8130 O   0  0  0  0  0  1  0  0  0  0  0  0
  180.0510  176.9210  140.0530 C   0  0  1  0  0  3  0  0  0  0  0  0
  179.9560  175.5600  140.5680 N   0  0  0  0  0  2  0  0  0  0  0  0
  178.9810  175.5630  141.5070 O   0  0  0  0  0  1  0  0  0  0  0  0
  179.6310  177.9230  141.1300 C   0  0  2  0  0  3  0  0  0  0  0  0
  178.9330  178.9950  140.5660 O   0  0  0  0  0  1  0  0  0  0  0  0
  180.5080  179.6690  142.4870 O   0  0  0  0  0  0  0  0  0  0  0  0
  180.5220  178.5470  143.3370 C   0  0  0  0  0  2  0  0  0  0  0  0
  180.8380  178.4370  141.8970 C   0  0  1  0  0  3  0  0  0  0  0  0
  184.3190  178.5200  143.6780 C   0  0  0  0  0  2  0  0  0  0  0  0
  185.2010  178.9390  144.7530 N   0  0  0  0  0  2  0  0  0  0  0  0
  184.4860  178.7700  145.9460 N   0  0  0  0  0  2  0  0  0  0  0  0
  185.4660  178.5230  146.9880 C   0  0  0  0  0  2  0  0  0  0  0  0
  186.4320  177.5380  146.5310 N   0  0  0  0  0  2  0  0  0  0  0  0
  187.5540  177.7080  147.2720 O   0  0  0  0  0  0  0  0  0  0  0  0
  191.7410  176.9990  145.4420 C   0  0  0  0  0  2  0  0  0  0  0  0
  190.9530  177.8870  144.4770 C   0  0  0  0  0  2  0  0  0  0  0  0
  189.9180  177.4210  147.1820 C   0  0  0  0  0  2  0  0  0  0  0  0
  188.5850  177.2100  146.4740 C   0  0  2  0  0  3  0  0  0  0  0  0
  189.5770  177.3300  144.1470 C   0  0  0  0  0  2  0  0  0  0  0  0
  190.9500  176.4440  146.6310 C   0  0  2  0  0  3  0  0  0  0  0  0
  191.9160  176.0570  147.7330 C   0  0  0  0  0  1  0  0  0  0  0  0
  188.5490  177.9060  145.1150 C   0  0  0  0  0  2  0  0  0  0  0  0
  188.5610  178.4010  140.9210 O   0  0  0  0  0  0  0  0  0  0  0  0
  190.4590  176.1080  140.9600 O   0  0  0  0  0  0  0  0  0  0  0  0
  189.2300  178.2730  138.5680 C   0  0  0  0  0  3  0  0  0  0  0  0
  190.1530  177.4150  137.7360 C   0  0  1  0  0  3  0  0  0  0  0  0
  190.1800  176.7550  139.9190 C   0  0  0  0  0  0  0  0  0  0  0  0
  190.7000  176.4860  138.6710 O   0  0  0  0  0  0  0  0  0  0  0  0
  189.2680  177.8670  139.8330 C   0  0  0  0  0  0  0  0  0  0  0  0
  188.3150  177.6060  136.0710 C   0  0  0  0  0  1  0  0  0  0  0  0
  189.3500  176.6800  136.6770 C   0  0  0  0  0  2  0  0  0  0  0  0
  1 23  1  0  0  0  0
  2  5  1  0  0  0  0
  3  2  1  0  0  0  0
  3  6  2  0  0  0  0
  4  2  2  0  0  0  0
  5  1  2  0  0  0  0
  6  7  1  0  0  0  0
  7  1  1  0  0  0  0
  9  4  1  0  0  0  0
  9  8  2  0  0  0  0
 10 13  1  1  0  0  0
 11 10  1  0  0  0  0
 12 11  1  0  0  0  0
 12 10  1  0  0  0  0
 12  9  1  1  0  0  0
 13 14  1  6  0  0  0
 13 15  1  0  0  0  0
 15 16  1  1  0  0  0
 15 18  1  0  0  0  0
 16 17  1  0  0  0  0
 18 19  1  6  0  0  0
 20 21  1  0  0  0  0
 22 18  1  6  0  0  0
 22 20  1  0  0  0  0
 22 21  1  0  0  0  0
 23 24  1  0  0  0  0
 24 25  1  0  0  0  0
 25 26  1  0  0  0  0
 27 26  1  0  0  0  0
 27 28  1  0  0  0  0
 29 34  1  0  0  0  0
 30 29  1  0  0  0  0
 32 31  1  0  0  0  0
 32 28  1  1  0  0  0
 33 30  1  0  0  0  0
 33 36  1  0  0  0  0
 34 31  1  0  0  0  0
 34 35  1  1  0  0  0
 36 32  1  0  0  0  0
 37  6  1  0  0  0  0
 39 43  2  0  0  0  0
 40 45  1  6  0  0  0
 40 39  1  0  0  0  0
 40 42  1  0  0  0  0
 41 38  2  0  0  0  0
 42 41  1  0  0  0  0
 43 41  1  0  0  0  0
 43 37  1  0  0  0  0
 44 45  1  0  0  0  0
M  END
>  <MODEL>
1

>  <REMARK>
 VINA RESULT:      -8.0      0.000      0.000
  Name = 
  17 active torsions:
  status: ('A' for Active; 'I' for Inactive)
    1  A    between atoms: C_2  and  C_17
    2  A    between atoms: N_4  and  C_9
    3  A    between atoms: N_4  and  N_29
    4  A    between atoms: C_6  and  N_18
    5  A    between atoms: C_6  and  N_29
    6  A    between atoms: C_7  and  C_14
    7  A    between atoms: C_7  and  C_43
    8  A    between atoms: C_9  and  C_12
    9  A    between atoms: N_13  and  C_14
   10  A    between atoms: C_14  and  C_17
   11  A    between atoms: N_18  and  O_30
   12  A    between atoms: C_20  and  O_30
   13  A    between atoms: C_22  and  C_27
   14  A    between atoms: N_33  and  C_35
   15  A    between atoms: C_35  and  C_41
   16  A    between atoms: C_38  and  O_44
   17  A    between atoms: C_40  and  O_44
                            x       y       z     vdW  Elec       q    Type
                         _______ _______ _______ _____ _____    ______ ____

>  <TORSDO>
F 17

$$$$
=
 OpenBabel10222418113D

 45 49  0  0  1  0  0  0  0  0999 V2000
  188.0560  177.5130  138.5870 C   0  0  0  0  0  0  0  0  0  0  0  0
  190.2110  176.5730  139.2060 C   0  0  0  0  0  0  0  0  0  0  0  0
  190.1420  177.2240  140.4770 N   0  0  0  0  0  0  0  0  0  0  0  0
  191.2620  175.8590  138.9240 N   0  0  0  0  0  0  0  0  0  0  0  0
  189.1050  176.7610  138.2560 C   0  0  0  0  0  3  0  0  0  0  0  0
  189.1400  177.9740  140.8360 C   0  0  0  0  0  0  0  0  0  0  0  0
  187.9640  178.2100  139.9210 C   0  0  0  0  0  2  0  0  0  0  0  0
  191.2280  173.8980  137.6220 O   0  0  0  0  0  0  0  0  0  0  0  0
  191.5220  175.1200  137.7180 C   0  0  0  0  0  0  0  0  0  0  0  0
  193.6890  175.7040  136.5490 C   0  0  1  0  0  3  0  0  0  0  0  0
  192.8840  174.7950  135.7180 N   0  0  0  0  0  2  0  0  0  0  0  0
  192.2090  175.7950  136.5640 C   0  0  1  0  0  3  0  0  0  0  0  0
  194.3270  174.9300  137.7080 C   0  0  2  0  0  3  0  0  0  0  0  0
  194.5650  175.8150  138.7610 O   0  0  0  0  0  1  0  0  0  0  0  0
  195.6410  174.2710  137.2710 C   0  0  1  0  0  3  0  0  0  0  0  0
  196.7740  174.8930  137.9450 N   0  0  0  0  0  2  0  0  0  0  0  0
  197.5100  175.5080  136.9890 O   0  0  0  0  0  1  0  0  0  0  0  0
  195.6240  172.7660  137.5500 C   0  0  2  0  0  3  0  0  0  0  0  0
  195.2830  172.5120  138.8820 O   0  0  0  0  0  1  0  0  0  0  0  0
  196.9350  170.7820  137.5980 O   0  0  0  0  0  0  0  0  0  0  0  0
  196.8110  171.0670  136.2250 C   0  0  0  0  0  2  0  0  0  0  0  0
  196.9710  172.1380  137.2310 C   0  0  1  0  0  3  0  0  0  0  0  0
  186.9560  177.7140  137.6020 C   0  0  0  0  0  2  0  0  0  0  0  0
  186.0290  178.7200  138.0900 N   0  0  0  0  0  2  0  0  0  0  0  0
  184.7550  178.1390  138.0570 N   0  0  0  0  0  2  0  0  0  0  0  0
  184.2870  178.0840  139.4310 C   0  0  0  0  0  2  0  0  0  0  0  0
  184.1480  179.4300  139.9580 N   0  0  0  0  0  2  0  0  0  0  0  0
  185.1470  179.6100  140.8570 O   0  0  0  0  0  0  0  0  0  0  0  0
  183.1300  178.6870  144.9150 C   0  0  0  0  0  2  0  0  0  0  0  0
  184.6240  178.8900  145.1710 C   0  0  0  0  0  2  0  0  0  0  0  0
  183.4910  179.6370  142.5700 C   0  0  0  0  0  2  0  0  0  0  0  0
  184.7180  178.9360  142.0010 C   0  0  2  0  0  3  0  0  0  0  0  0
  185.5030  178.0630  144.2450 C   0  0  0  0  0  2  0  0  0  0  0  0
  182.7050  178.6660  143.4430 C   0  0  2  0  0  3  0  0  0  0  0  0
  181.2260  178.9870  143.3490 C   0  0  0  0  0  1  0  0  0  0  0  0
  185.8610  178.8860  143.0120 C   0  0  0  0  0  2  0  0  0  0  0  0
  189.1110  178.5880  142.0970 O   0  0  0  0  0  0  0  0  0  0  0  0
  188.1330  175.9720  143.1270 O   0  0  0  0  0  0  0  0  0  0  0  0
  190.2630  178.4440  144.2540 C   0  0  0  0  0  3  0  0  0  0  0  0
  190.3220  177.4640  145.4020 C   0  0  1  0  0  3  0  0  0  0  0  0
  188.9290  176.7090  143.7610 C   0  0  0  0  0  0  0  0  0  0  0  0
  189.4570  176.4040  144.9980 O   0  0  0  0  0  0  0  0  0  0  0  0
  189.4430  177.9790  143.3170 C   0  0  0  0  0  0  0  0  0  0  0  0
  191.8060  175.9230  146.6710 C   0  0  0  0  0  1  0  0  0  0  0  0
  191.7430  176.9490  145.5580 C   0  0  0  0  0  2  0  0  0  0  0  0
  1  7  1  0  0  0  0
  2  3  1  0  0  0  0
  3  6  2  0  0  0  0
  4  2  2  0  0  0  0
  5  1  2  0  0  0  0
  5  2  1  0  0  0  0
  6 37  1  0  0  0  0
  7  6  1  0  0  0  0
  8  9  2  0  0  0  0
  9  4  1  0  0  0  0
 10 12  1  0  0  0  0
 10 13  1  1  0  0  0
 11 10  1  0  0  0  0
 11 12  1  0  0  0  0
 12  9  1  1  0  0  0
 13 14  1  1  0  0  0
 15 18  1  0  0  0  0
 15 13  1  0  0  0  0
 15 16  1  1  0  0  0
 17 16  1  0  0  0  0
 18 19  1  1  0  0  0
 21 22  1  0  0  0  0
 21 20  1  0  0  0  0
 22 18  1  1  0  0  0
 22 20  1  0  0  0  0
 23 24  1  0  0  0  0
 23  1  1  0  0  0  0
 25 24  1  0  0  0  0
 25 26  1  0  0  0  0
 26 27  1  0  0  0  0
 27 28  1  0  0  0  0
 29 30  1  0  0  0  0
 31 34  1  0  0  0  0
 32 28  1  6  0  0  0
 32 31  1  0  0  0  0
 32 36  1  0  0  0  0
 33 30  1  0  0  0  0
 34 35  1  1  0  0  0
 34 29  1  0  0  0  0
 36 33  1  0  0  0  0
 37 43  1  0  0  0  0
 38 41  2  0  0  0  0
 39 40  1  0  0  0  0
 40 45  1  6  0  0  0
 41 42  1  0  0  0  0
 42 40  1  0  0  0  0
 43 41  1  0  0  0  0
 43 39  2  0  0  0  0
 45 44  1  0  0  0  0
M  END
>  <MODEL>
2

>  <REMARK>
 VINA RESULT:      -7.9      4.254     10.447
  Name = 
  17 active torsions:
  status: ('A' for Active; 'I' for Inactive)
    1  A    between atoms: C_2  and  C_17
    2  A    between atoms: N_4  and  C_9
    3  A    between atoms: N_4  and  N_29
    4  A    between atoms: C_6  and  N_18
    5  A    between atoms: C_6  and  N_29
    6  A    between atoms: C_7  and  C_14
    7  A    between atoms: C_7  and  C_43
    8  A    between atoms: C_9  and  C_12
    9  A    between atoms: N_13  and  C_14
   10  A    between atoms: C_14  and  C_17
   11  A    between atoms: N_18  and  O_30
   12  A    between atoms: C_20  and  O_30
   13  A    between atoms: C_22  and  C_27
   14  A    between atoms: N_33  and  C_35
   15  A    between atoms: C_35  and  C_41
   16  A    between atoms: C_38  and  O_44
   17  A    between atoms: C_40  and  O_44
                            x       y       z     vdW  Elec       q    Type
                         _______ _______ _______ _____ _____    ______ ____

>  <TORSDO>
F 17

$$$$
=
 OpenBabel10222418113D

 45 49  0  0  1  0  0  0  0  0999 V2000
  184.6270  178.6680  142.4090 C   0  0  0  0  0  0  0  0  0  0  0  0
  184.3000  178.4680  140.0090 C   0  0  0  0  0  0  0  0  0  0  0  0
  185.6980  178.6710  139.7910 N   0  0  0  0  0  0  0  0  0  0  0  0
  183.5220  178.3050  138.9770 N   0  0  0  0  0  0  0  0  0  0  0  0
  183.7910  178.4830  141.3880 C   0  0  0  0  0  3  0  0  0  0  0  0
  186.5460  178.8630  140.7600 C   0  0  0  0  0  0  0  0  0  0  0  0
  186.1040  178.8840  142.2020 C   0  0  0  0  0  2  0  0  0  0  0  0
  181.2910  179.0050  138.7070 O   0  0  0  0  0  0  0  0  0  0  0  0
  182.1020  178.0790  138.9780 C   0  0  0  0  0  0  0  0  0  0  0  0
  181.6150  175.6870  138.3120 C   0  0  1  0  0  3  0  0  0  0  0  0
  182.6430  175.7290  139.3640 N   0  0  0  0  0  2  0  0  0  0  0  0
  181.5620  176.7310  139.3640 C   0  0  1  0  0  3  0  0  0  0  0  0
  182.2200  176.1150  136.9700 C   0  0  2  0  0  3  0  0  0  0  0  0
  181.2810  175.8850  135.9620 O   0  0  0  0  0  1  0  0  0  0  0  0
  183.5060  175.3360  136.6730 C   0  0  1  0  0  3  0  0  0  0  0  0
  183.3190  174.4560  135.5250 N   0  0  0  0  0  2  0  0  0  0  0  0
  183.1950  173.1980  136.0120 O   0  0  0  0  0  1  0  0  0  0  0  0
  184.6810  176.2830  136.4230 C   0  0  2  0  0  3  0  0  0  0  0  0
  184.3090  177.3190  135.5590 O   0  0  0  0  0  1  0  0  0  0  0  0
  186.9570  176.4240  135.7440 O   0  0  0  0  0  0  0  0  0  0  0  0
  186.9860  175.5220  136.8250 C   0  0  0  0  0  2  0  0  0  0  0  0
  185.8740  175.5350  135.8510 C   0  0  1  0  0  3  0  0  0  0  0  0
  184.0900  178.7060  143.7990 C   0  0  0  0  0  2  0  0  0  0  0  0
  185.1500  178.4170  144.7490 N   0  0  0  0  0  2  0  0  0  0  0  0
  184.6650  178.7790  146.0120 N   0  0  0  0  0  2  0  0  0  0  0  0
  185.7820  178.6700  146.9330 C   0  0  0  0  0  2  0  0  0  0  0  0
  186.8620  177.9240  146.3100 N   0  0  0  0  0  2  0  0  0  0  0  0
  187.6420  177.4440  147.3100 O   0  0  0  0  0  0  0  0  0  0  0  0
  191.4630  177.1670  144.7200 C   0  0  0  0  0  2  0  0  0  0  0  0
  191.6330  176.2170  145.9070 C   0  0  0  0  0  2  0  0  0  0  0  0
  188.9950  177.3740  145.3500 C   0  0  0  0  0  2  0  0  0  0  0  0
  188.9500  177.6170  146.8540 C   0  0  2  0  0  3  0  0  0  0  0  0
  191.3400  176.8800  147.2450 C   0  0  0  0  0  2  0  0  0  0  0  0
  190.2190  178.0610  144.7580 C   0  0  2  0  0  3  0  0  0  0  0  0
  189.9030  178.5300  143.3510 C   0  0  0  0  0  1  0  0  0  0  0  0
  189.8750  176.6670  147.6090 C   0  0  0  0  0  2  0  0  0  0  0  0
  187.9120  179.0500  140.4990 O   0  0  0  0  0  0  0  0  0  0  0  0
  188.3920  179.4530  137.5890 O   0  0  0  0  0  0  0  0  0  0  0  0
  189.4030  177.1780  139.9800 C   0  0  0  0  0  3  0  0  0  0  0  0
  190.1040  176.6410  138.7550 C   0  0  1  0  0  3  0  0  0  0  0  0
  188.8920  178.5050  138.2460 C   0  0  0  0  0  0  0  0  0  0  0  0
  189.7280  177.5450  137.7170 O   0  0  0  0  0  0  0  0  0  0  0  0
  188.7040  178.2600  139.6530 C   0  0  0  0  0  0  0  0  0  0  0  0
  191.9260  177.3250  140.3040 C   0  0  0  0  0  1  0  0  0  0  0  0
  191.6070  176.6860  138.9680 C   0  0  0  0  0  2  0  0  0  0  0  0
  1 23  1  0  0  0  0
  2  5  1  0  0  0  0
  3  2  1  0  0  0  0
  3  6  2  0  0  0  0
  4  9  1  0  0  0  0
  4  2  2  0  0  0  0
  5  1  2  0  0  0  0
  6  7  1  0  0  0  0
  7  1  1  0  0  0  0
  8  9  2  0  0  0  0
 10 13  1  6  0  0  0
 10 12  1  0  0  0  0
 10 11  1  0  0  0  0
 12  9  1  6  0  0  0
 12 11  1  0  0  0  0
 13 14  1  6  0  0  0
 15 16  1  6  0  0  0
 15 13  1  0  0  0  0
 16 17  1  0  0  0  0
 18 19  1  6  0  0  0
 18 15  1  0  0  0  0
 20 22  1  0  0  0  0
 20 21  1  0  0  0  0
 22 18  1  1  0  0  0
 22 21  1  0  0  0  0
 23 24  1  0  0  0  0
 24 25  1  0  0  0  0
 25 26  1  0  0  0  0
 27 26  1  0  0  0  0
 27 28  1  0  0  0  0
 29 34  1  0  0  0  0
 29 30  1  0  0  0  0
 30 33  1  0  0  0  0
 31 32  1  0  0  0  0
 32 28  1  1  0  0  0
 32 36  1  0  0  0  0
 33 36  1  0  0  0  0
 34 35  1  6  0  0  0
 34 31  1  0  0  0  0
 37  6  1  0  0  0  0
 38 41  2  0  0  0  0
 40 45  1  1  0  0  0
 40 39  1  0  0  0  0
 41 43  1  0  0  0  0
 42 41  1  0  0  0  0
 42 40  1  0  0  0  0
 43 39  2  0  0  0  0
 43 37  1  0  0  0  0
 45 44  1  0  0  0  0
M  END
>  <MODEL>
3

>  <REMARK>
 VINA RESULT:      -7.9      2.180      3.947
  Name = 
  17 active torsions:
  status: ('A' for Active; 'I' for Inactive)
    1  A    between atoms: C_2  and  C_17
    2  A    between atoms: N_4  and  C_9
    3  A    between atoms: N_4  and  N_29
    4  A    between atoms: C_6  and  N_18
    5  A    between atoms: C_6  and  N_29
    6  A    between atoms: C_7  and  C_14
    7  A    between atoms: C_7  and  C_43
    8  A    between atoms: C_9  and  C_12
    9  A    between atoms: N_13  and  C_14
   10  A    between atoms: C_14  and  C_17
   11  A    between atoms: N_18  and  O_30
   12  A    between atoms: C_20  and  O_30
   13  A    between atoms: C_22  and  C_27
   14  A    between atoms: N_33  and  C_35
   15  A    between atoms: C_35  and  C_41
   16  A    between atoms: C_38  and  O_44
   17  A    between atoms: C_40  and  O_44
                            x       y       z     vdW  Elec       q    Type
                         _______ _______ _______ _____ _____    ______ ____

>  <TORSDO>
F 17

$$$$
=
 OpenBabel10222418113D

 45 49  0  0  1  0  0  0  0  0999 V2000
  184.6780  178.6850  142.4140 C   0  0  0  0  0  0  0  0  0  0  0  0
  184.6050  178.4820  139.9930 C   0  0  0  0  0  0  0  0  0  0  0  0
  186.0260  178.6220  139.9270 N   0  0  0  0  0  0  0  0  0  0  0  0
  183.9360  178.3460  138.8830 N   0  0  0  0  0  0  0  0  0  0  0  0
  183.9500  178.5290  141.3080 C   0  0  0  0  0  3  0  0  0  0  0  0
  186.7710  178.7840  140.9820 C   0  0  0  0  0  0  0  0  0  0  0  0
  186.1770  178.8350  142.3680 C   0  0  0  0  0  2  0  0  0  0  0  0
  181.7620  179.1680  138.5160 O   0  0  0  0  0  0  0  0  0  0  0  0
  182.5160  178.1810  138.7310 C   0  0  0  0  0  0  0  0  0  0  0  0
  182.3320  175.7990  137.8970 C   0  0  1  0  0  3  0  0  0  0  0  0
  182.9370  175.8300  139.2380 N   0  0  0  0  0  2  0  0  0  0  0  0
  181.9020  176.8180  138.8850 C   0  0  1  0  0  3  0  0  0  0  0  0
  183.3510  176.2640  136.8510 C   0  0  2  0  0  3  0  0  0  0  0  0
  182.6660  176.6390  135.6940 O   0  0  0  0  0  1  0  0  0  0  0  0
  184.3540  175.1510  136.5270 C   0  0  1  0  0  3  0  0  0  0  0  0
  185.6840  175.5040  137.0100 N   0  0  0  0  0  2  0  0  0  0  0  0
  185.8830  176.8060  136.6960 O   0  0  0  0  0  1  0  0  0  0  0  0
  183.9130  173.8160  137.1300 C   0  0  2  0  0  3  0  0  0  0  0  0
  184.9060  173.2960  137.9660 O   0  0  0  0  0  1  0  0  0  0  0  0
  183.2040  171.5970  136.6450 O   0  0  0  0  0  0  0  0  0  0  0  0
  182.1580  172.3990  136.1470 C   0  0  0  0  0  2  0  0  0  0  0  0
  183.5740  172.8120  136.0410 C   0  0  1  0  0  3  0  0  0  0  0  0
  183.9970  178.7570  143.7370 C   0  0  0  0  0  2  0  0  0  0  0  0
  184.8860  179.3460  144.7230 N   0  0  0  0  0  2  0  0  0  0  0  0
  184.4560  178.8870  145.9740 N   0  0  0  0  0  2  0  0  0  0  0  0
  185.6220  178.8870  146.8400 C   0  0  0  0  0  2  0  0  0  0  0  0
  186.4230  177.7010  146.5860 N   0  0  0  0  0  2  0  0  0  0  0  0
  187.6020  177.8720  147.2340 O   0  0  0  0  0  0  0  0  0  0  0  0
  191.6120  176.8010  145.1970 C   0  0  0  0  0  2  0  0  0  0  0  0
  190.8040  177.6550  144.2180 C   0  0  0  0  0  2  0  0  0  0  0  0
  189.9360  177.4500  147.0130 C   0  0  0  0  0  2  0  0  0  0  0  0
  188.5490  177.2600  146.4120 C   0  0  2  0  0  3  0  0  0  0  0  0
  189.3830  177.1500  144.0230 C   0  0  0  0  0  2  0  0  0  0  0  0
  190.8790  176.3810  146.4740 C   0  0  2  0  0  3  0  0  0  0  0  0
  191.8980  176.0250  147.5380 C   0  0  0  0  0  1  0  0  0  0  0  0
  188.4540  177.8520  145.0080 C   0  0  0  0  0  2  0  0  0  0  0  0
  188.1640  178.9100  140.8700 O   0  0  0  0  0  0  0  0  0  0  0  0
  188.6310  179.3920  137.9700 O   0  0  0  0  0  0  0  0  0  0  0  0
  189.7350  177.1140  140.3170 C   0  0  0  0  0  3  0  0  0  0  0  0
  190.4600  176.6330  139.0830 C   0  0  1  0  0  3  0  0  0  0  0  0
  189.1710  178.4540  138.6100 C   0  0  0  0  0  0  0  0  0  0  0  0
  190.0480  177.5420  138.0620 O   0  0  0  0  0  0  0  0  0  0  0  0
  188.9910  178.1720  140.0100 C   0  0  0  0  0  0  0  0  0  0  0  0
  192.6950  176.4750  138.0020 C   0  0  0  0  0  1  0  0  0  0  0  0
  191.9600  176.7380  139.3000 C   0  0  0  0  0  2  0  0  0  0  0  0
  1 23  1  0  0  0  0
  2  5  1  0  0  0  0
  3  2  1  0  0  0  0
  3  6  2  0  0  0  0
  4  2  2  0  0  0  0
  5  1  2  0  0  0  0
  6  7  1  0  0  0  0
  7  1  1  0  0  0  0
  8  9  2  0  0  0  0
  9  4  1  0  0  0  0
 10 13  1  6  0  0  0
 10 12  1  0  0  0  0
 10 11  1  0  0  0  0
 12  9  1  6  0  0  0
 12 11  1  0  0  0  0
 13 14  1  6  0  0  0
 15 13  1  0  0  0  0
 15 16  1  1  0  0  0
 15 18  1  0  0  0  0
 17 16  1  0  0  0  0
 18 19  1  6  0  0  0
 21 20  1  0  0  0  0
 22 21  1  0  0  0  0
 22 20  1  0  0  0  0
 22 18  1  1  0  0  0
 23 24  1  0  0  0  0
 24 25  1  0  0  0  0
 25 26  1  0  0  0  0
 27 26  1  0  0  0  0
 27 28  1  0  0  0  0
 29 34  1  0  0  0  0
 30 29  1  0  0  0  0
 32 31  1  0  0  0  0
 32 28  1  1  0  0  0
 33 30  1  0  0  0  0
 33 36  1  0  0  0  0
 34 31  1  0  0  0  0
 34 35  1  1  0  0  0
 36 32  1  0  0  0  0
 37  6  1  0  0  0  0
 38 41  2  0  0  0  0
 40 45  1  1  0  0  0
 40 39  1  0  0  0  0
 41 43  1  0  0  0  0
 42 41  1  0  0  0  0
 42 40  1  0  0  0  0
 43 39  2  0  0  0  0
 43 37  1  0  0  0  0
 44 45  1  0  0  0  0
M  END
>  <MODEL>
4

>  <REMARK>
 VINA RESULT:      -7.7      2.396      3.907
  Name = 
  17 active torsions:
  status: ('A' for Active; 'I' for Inactive)
    1  A    between atoms: C_2  and  C_17
    2  A    between atoms: N_4  and  C_9
    3  A    between atoms: N_4  and  N_29
    4  A    between atoms: C_6  and  N_18
    5  A    between atoms: C_6  and  N_29
    6  A    between atoms: C_7  and  C_14
    7  A    between atoms: C_7  and  C_43
    8  A    between atoms: C_9  and  C_12
    9  A    between atoms: N_13  and  C_14
   10  A    between atoms: C_14  and  C_17
   11  A    between atoms: N_18  and  O_30
   12  A    between atoms: C_20  and  O_30
   13  A    between atoms: C_22  and  C_27
   14  A    between atoms: N_33  and  C_35
   15  A    between atoms: C_35  and  C_41
   16  A    between atoms: C_38  and  O_44
   17  A    between atoms: C_40  and  O_44
                            x       y       z     vdW  Elec       q    Type
                         _______ _______ _______ _____ _____    ______ ____

>  <TORSDO>
F 17

$$$$
=
 OpenBabel10222418113D

 45 49  0  0  1  0  0  0  0  0999 V2000
  187.7050  177.8580  138.6530 C   0  0  0  0  0  0  0  0  0  0  0  0
  189.7620  176.7190  139.2720 C   0  0  0  0  0  0  0  0  0  0  0  0
  189.7240  177.3300  140.5630 N   0  0  0  0  0  0  0  0  0  0  0  0
  190.7550  175.9280  138.9810 N   0  0  0  0  0  0  0  0  0  0  0  0
  188.6930  177.0310  138.3110 C   0  0  0  0  0  3  0  0  0  0  0  0
  188.7820  178.1490  140.9330 C   0  0  0  0  0  0  0  0  0  0  0  0
  187.6470  178.5140  140.0090 C   0  0  0  0  0  2  0  0  0  0  0  0
  190.6590  173.9970  137.6400 O   0  0  0  0  0  0  0  0  0  0  0  0
  190.9740  175.2120  137.7540 C   0  0  0  0  0  0  0  0  0  0  0  0
  193.1250  175.8840  136.6050 C   0  0  1  0  0  3  0  0  0  0  0  0
  192.3800  174.9210  135.7790 N   0  0  0  0  0  2  0  0  0  0  0  0
  191.6430  175.9010  136.5970 C   0  0  1  0  0  3  0  0  0  0  0  0
  193.7850  175.1620  137.7850 C   0  0  2  0  0  3  0  0  0  0  0  0
  194.1810  176.1140  138.7280 O   0  0  0  0  0  1  0  0  0  0  0  0
  194.9990  174.3470  137.3230 C   0  0  1  0  0  3  0  0  0  0  0  0
  196.1570  175.2140  137.1380 N   0  0  0  0  0  2  0  0  0  0  0  0
  196.6330  174.9720  135.8930 O   0  0  0  0  0  1  0  0  0  0  0  0
  195.3280  173.2330  138.3190 C   0  0  2  0  0  3  0  0  0  0  0  0
  196.2730  173.6670  139.2540 O   0  0  0  0  0  1  0  0  0  0  0  0
  195.4980  170.8610  138.3600 O   0  0  0  0  0  0  0  0  0  0  0  0
  194.7100  171.1200  137.2220 C   0  0  0  0  0  2  0  0  0  0  0  0
  195.8390  171.9950  137.6020 C   0  0  1  0  0  3  0  0  0  0  0  0
  186.6440  178.1840  137.6590 C   0  0  0  0  0  2  0  0  0  0  0  0
  185.7080  177.0790  137.5500 N   0  0  0  0  0  2  0  0  0  0  0  0
  184.4250  177.6300  137.6490 N   0  0  0  0  0  2  0  0  0  0  0  0
  183.6560  176.7450  138.5050 C   0  0  0  0  0  2  0  0  0  0  0  0
  183.1010  177.4960  139.6170 N   0  0  0  0  0  2  0  0  0  0  0  0
  184.1120  178.2270  140.1470 O   0  0  0  0  0  0  0  0  0  0  0  0
  182.7990  178.8470  144.5370 C   0  0  0  0  0  2  0  0  0  0  0  0
  181.5600  178.4580  143.7290 C   0  0  0  0  0  2  0  0  0  0  0  0
  184.2200  178.1620  142.5260 C   0  0  0  0  0  2  0  0  0  0  0  0
  183.5720  178.7960  141.3010 C   0  0  2  0  0  3  0  0  0  0  0  0
  181.3830  179.2970  142.4720 C   0  0  0  0  0  2  0  0  0  0  0  0
  184.0730  179.0940  143.7230 C   0  0  2  0  0  3  0  0  0  0  0  0
  185.2790  178.9450  144.6290 C   0  0  0  0  0  1  0  0  0  0  0  0
  182.0580  178.6000  141.2960 C   0  0  0  0  0  2  0  0  0  0  0  0
  188.7820  178.7200  142.2140 O   0  0  0  0  0  0  0  0  0  0  0  0
  191.4300  179.0530  143.5330 O   0  0  0  0  0  0  0  0  0  0  0  0
  188.5560  177.2460  144.1570 C   0  0  0  0  0  3  0  0  0  0  0  0
  189.4210  176.8260  145.3220 C   0  0  1  0  0  3  0  0  0  0  0  0
  190.5270  178.3000  143.9780 C   0  0  0  0  0  0  0  0  0  0  0  0
  190.6380  177.5460  145.1260 O   0  0  0  0  0  0  0  0  0  0  0  0
  189.2270  178.1010  143.3920 C   0  0  0  0  0  0  0  0  0  0  0  0
  189.8070  177.3810  147.7160 C   0  0  0  0  0  1  0  0  0  0  0  0
  188.7650  177.2530  146.6230 C   0  0  0  0  0  2  0  0  0  0  0  0
  1  7  1  0  0  0  0
  2  3  1  0  0  0  0
  3  6  2  0  0  0  0
  4  2  2  0  0  0  0
  5  1  2  0  0  0  0
  5  2  1  0  0  0  0
  6 37  1  0  0  0  0
  7  6  1  0  0  0  0
  8  9  2  0  0  0  0
  9  4  1  0  0  0  0
 10 13  1  1  0  0  0
 11 12  1  0  0  0  0
 11 10  1  0  0  0  0
 12 10  1  0  0  0  0
 12  9  1  1  0  0  0
 13 14  1  1  0  0  0
 15 16  1  1  0  0  0
 15 13  1  0  0  0  0
 15 18  1  0  0  0  0
 17 16  1  0  0  0  0
 18 19  1  1  0  0  0
 21 22  1  0  0  0  0
 21 20  1  0  0  0  0
 22 18  1  1  0  0  0
 22 20  1  0  0  0  0
 23  1  1  0  0  0  0
 24 25  1  0  0  0  0
 24 23  1  0  0  0  0
 25 26  1  0  0  0  0
 26 27  1  0  0  0  0
 27 28  1  0  0  0  0
 30 29  1  0  0  0  0
 31 34  1  0  0  0  0
 32 28  1  6  0  0  0
 32 31  1  0  0  0  0
 33 30  1  0  0  0  0
 34 29  1  0  0  0  0
 34 35  1  1  0  0  0
 36 32  1  0  0  0  0
 36 33  1  0  0  0  0
 37 43  1  0  0  0  0
 38 41  2  0  0  0  0
 39 40  1  0  0  0  0
 40 45  1  1  0  0  0
 41 42  1  0  0  0  0
 42 40  1  0  0  0  0
 43 41  1  0  0  0  0
 43 39  2  0  0  0  0
 45 44  1  0  0  0  0
M  END
>  <MODEL>
5

>  <REMARK>
 VINA RESULT:      -7.7      3.970     10.246
  Name = 
  17 active torsions:
  status: ('A' for Active; 'I' for Inactive)
    1  A    between atoms: C_2  and  C_17
    2  A    between atoms: N_4  and  C_9
    3  A    between atoms: N_4  and  N_29
    4  A    between atoms: C_6  and  N_18
    5  A    between atoms: C_6  and  N_29
    6  A    between atoms: C_7  and  C_14
    7  A    between atoms: C_7  and  C_43
    8  A    between atoms: C_9  and  C_12
    9  A    between atoms: N_13  and  C_14
   10  A    between atoms: C_14  and  C_17
   11  A    between atoms: N_18  and  O_30
   12  A    between atoms: C_20  and  O_30
   13  A    between atoms: C_22  and  C_27
   14  A    between atoms: N_33  and  C_35
   15  A    between atoms: C_35  and  C_41
   16  A    between atoms: C_38  and  O_44
   17  A    between atoms: C_40  and  O_44
                            x       y       z     vdW  Elec       q    Type
                         _______ _______ _______ _____ _____    ______ ____

>  <TORSDO>
F 17

$$$$
=
 OpenBabel10222418113D

 45 49  0  0  1  0  0  0  0  0999 V2000
  190.0680  177.3190  138.8390 C   0  0  0  0  0  0  0  0  0  0  0  0
  191.5410  177.5040  140.7640 C   0  0  0  0  0  0  0  0  0  0  0  0
  192.6450  177.0510  139.9760 N   0  0  0  0  0  0  0  0  0  0  0  0
  191.7380  177.7730  142.0230 N   0  0  0  0  0  0  0  0  0  0  0  0
  190.2200  177.6190  140.1290 C   0  0  0  0  0  3  0  0  0  0  0  0
  192.5360  176.7410  138.7160 C   0  0  0  0  0  0  0  0  0  0  0  0
  191.2170  176.8390  137.9900 C   0  0  0  0  0  2  0  0  0  0  0  0
  190.9240  179.3510  143.5680 O   0  0  0  0  0  0  0  0  0  0  0  0
  190.7750  178.2460  142.9780 C   0  0  0  0  0  0  0  0  0  0  0  0
  189.6440  176.7290  144.6590 C   0  0  1  0  0  3  0  0  0  0  0  0
  188.8690  177.9670  144.4790 N   0  0  0  0  0  2  0  0  0  0  0  0
  189.5910  177.3900  143.3320 C   0  0  1  0  0  3  0  0  0  0  0  0
  190.8930  177.0110  145.5020 C   0  0  2  0  0  3  0  0  0  0  0  0
  191.9380  176.2100  145.0350 O   0  0  0  0  0  1  0  0  0  0  0  0
  190.6340  176.7210  146.9840 C   0  0  1  0  0  3  0  0  0  0  0  0
  191.8810  176.7540  147.7390 N   0  0  0  0  0  2  0  0  0  0  0  0
  192.1930  175.4700  148.0360 O   0  0  0  0  0  1  0  0  0  0  0  0
  189.6350  177.7180  147.5760 C   0  0  2  0  0  3  0  0  0  0  0  0
  190.1510  178.3110  148.7320 O   0  0  0  0  0  1  0  0  0  0  0  0
  187.6240  177.8110  148.8440 O   0  0  0  0  0  0  0  0  0  0  0  0
  187.1840  177.9220  147.5100 C   0  0  0  0  0  2  0  0  0  0  0  0
  188.3100  177.0420  147.8880 C   0  0  1  0  0  3  0  0  0  0  0  0
  188.7160  177.4170  138.2180 C   0  0  0  0  0  2  0  0  0  0  0  0
  188.3870  178.8070  137.9610 N   0  0  0  0  0  2  0  0  0  0  0  0
  187.0920  178.8190  137.4270 N   0  0  0  0  0  2  0  0  0  0  0  0
  186.2680  178.0200  138.3160 C   0  0  0  0  0  2  0  0  0  0  0  0
  185.6090  178.8810  139.2830 N   0  0  0  0  0  2  0  0  0  0  0  0
  186.3030  178.7790  140.4430 O   0  0  0  0  0  0  0  0  0  0  0  0
  182.5450  178.9380  143.1330 C   0  0  0  0  0  2  0  0  0  0  0  0
  183.7430  179.3760  143.9770 C   0  0  0  0  0  2  0  0  0  0  0  0
  184.0330  179.1500  141.0670 C   0  0  0  0  0  2  0  0  0  0  0  0
  185.3440  178.4490  141.4020 C   0  0  2  0  0  3  0  0  0  0  0  0
  184.9130  178.4070  143.8970 C   0  0  0  0  0  2  0  0  0  0  0  0
  182.8760  178.4150  141.7320 C   0  0  2  0  0  3  0  0  0  0  0  0
  181.6410  178.5240  140.8570 C   0  0  0  0  0  1  0  0  0  0  0  0
  185.8600  178.8430  142.7840 C   0  0  0  0  0  2  0  0  0  0  0  0
  193.6480  176.3070  137.9790 O   0  0  0  0  0  0  0  0  0  0  0  0
  192.6570  173.9850  136.4030 O   0  0  0  0  0  0  0  0  0  0  0  0
  195.2140  174.5490  138.6520 C   0  0  0  0  0  3  0  0  0  0  0  0
  195.4200  173.0850  138.3400 C   0  0  1  0  0  3  0  0  0  0  0  0
  193.6410  173.9200  137.1830 C   0  0  0  0  0  0  0  0  0  0  0  0
  194.3870  172.7820  137.4030 O   0  0  0  0  0  0  0  0  0  0  0  0
  194.1710  175.0050  137.9670 C   0  0  0  0  0  0  0  0  0  0  0  0
  197.4110  174.2310  137.3850 C   0  0  0  0  0  1  0  0  0  0  0  0
  196.7820  172.8890  137.6970 C   0  0  0  0  0  2  0  0  0  0  0  0
  1  5  2  0  0  0  0
  2  4  2  0  0  0  0
  3  2  1  0  0  0  0
  4  9  1  0  0  0  0
  5  2  1  0  0  0  0
  6  3  2  0  0  0  0
  7  6  1  0  0  0  0
  7  1  1  0  0  0  0
  9  8  2  0  0  0  0
 10 13  1  1  0  0  0
 11 10  1  0  0  0  0
 12  9  1  1  0  0  0
 12 11  1  0  0  0  0
 12 10  1  0  0  0  0
 13 14  1  6  0  0  0
 13 15  1  0  0  0  0
 15 18  1  0  0  0  0
 15 16  1  1  0  0  0
 16 17  1  0  0  0  0
 18 19  1  1  0  0  0
 21 22  1  0  0  0  0
 21 20  1  0  0  0  0
 22 18  1  6  0  0  0
 22 20  1  0  0  0  0
 23  1  1  0  0  0  0
 24 23  1  0  0  0  0
 25 24  1  0  0  0  0
 25 26  1  0  0  0  0
 26 27  1  0  0  0  0
 27 28  1  0  0  0  0
 29 30  1  0  0  0  0
 31 32  1  0  0  0  0
 31 34  1  0  0  0  0
 32 28  1  6  0  0  0
 32 36  1  0  0  0  0
 33 30  1  0  0  0  0
 34 35  1  6  0  0  0
 34 29  1  0  0  0  0
 36 33  1  0  0  0  0
 37  6  1  0  0  0  0
 38 41  2  0  0  0  0
 40 45  1  6  0  0  0
 40 39  1  0  0  0  0
 41 42  1  0  0  0  0
 41 43  1  0  0  0  0
 42 40  1  0  0  0  0
 43 37  1  0  0  0  0
 43 39  2  0  0  0  0
 44 45  1  0  0  0  0
M  END
>  <MODEL>
6

>  <REMARK>
 VINA RESULT:      -7.4      3.504      8.861
  Name = 
  17 active torsions:
  status: ('A' for Active; 'I' for Inactive)
    1  A    between atoms: C_2  and  C_17
    2  A    between atoms: N_4  and  C_9
    3  A    between atoms: N_4  and  N_29
    4  A    between atoms: C_6  and  N_18
    5  A    between atoms: C_6  and  N_29
    6  A    between atoms: C_7  and  C_14
    7  A    between atoms: C_7  and  C_43
    8  A    between atoms: C_9  and  C_12
    9  A    between atoms: N_13  and  C_14
   10  A    between atoms: C_14  and  C_17
   11  A    between atoms: N_18  and  O_30
   12  A    between atoms: C_20  and  O_30
   13  A    between atoms: C_22  and  C_27
   14  A    between atoms: N_33  and  C_35
   15  A    between atoms: C_35  and  C_41
   16  A    between atoms: C_38  and  O_44
   17  A    between atoms: C_40  and  O_44
                            x       y       z     vdW  Elec       q    Type
                         _______ _______ _______ _____ _____    ______ ____

>  <TORSDO>
F 17

$$$$
=
 OpenBabel10222418113D

 45 49  0  0  1  0  0  0  0  0999 V2000
  189.1810  177.7750  140.4120 C   0  0  0  0  0  0  0  0  0  0  0  0
  187.8290  177.8020  138.3920 C   0  0  0  0  0  0  0  0  0  0  0  0
  186.7350  178.3670  139.1200 N   0  0  0  0  0  0  0  0  0  0  0  0
  187.6720  177.5450  137.1250 N   0  0  0  0  0  0  0  0  0  0  0  0
  189.0760  177.5050  139.1110 C   0  0  0  0  0  3  0  0  0  0  0  0
  186.7940  178.6380  140.3910 C   0  0  0  0  0  0  0  0  0  0  0  0
  188.0410  178.3700  141.1980 C   0  0  0  0  0  2  0  0  0  0  0  0
  189.7200  177.5920  135.9660 O   0  0  0  0  0  0  0  0  0  0  0  0
  188.6400  176.9910  136.2180 C   0  0  0  0  0  0  0  0  0  0  0  0
  189.5140  174.8310  135.2330 C   0  0  1  0  0  3  0  0  0  0  0  0
  188.6420  174.5550  136.3870 N   0  0  0  0  0  2  0  0  0  0  0  0
  188.3450  175.7010  135.5080 C   0  0  1  0  0  3  0  0  0  0  0  0
  190.8710  175.3550  135.7150 C   0  0  2  0  0  3  0  0  0  0  0  0
  191.6220  175.7420  134.6040 O   0  0  0  0  0  1  0  0  0  0  0  0
  191.6260  174.2820  136.5090 C   0  0  1  0  0  3  0  0  0  0  0  0
  192.4660  173.4860  135.6220 N   0  0  0  0  0  2  0  0  0  0  0  0
  192.4470  172.2180  136.0960 O   0  0  0  0  0  1  0  0  0  0  0  0
  192.4740  174.9080  137.6170 C   0  0  2  0  0  3  0  0  0  0  0  0
  191.9830  176.1700  137.9650 O   0  0  0  0  0  1  0  0  0  0  0  0
  194.6580  175.6230  138.2330 O   0  0  0  0  0  0  0  0  0  0  0  0
  194.7880  174.2260  138.1020 C   0  0  0  0  0  2  0  0  0  0  0  0
  193.9290  175.0170  137.1940 C   0  0  1  0  0  3  0  0  0  0  0  0
  190.4440  177.4440  141.1300 C   0  0  0  0  0  2  0  0  0  0  0  0
  190.5630  176.0050  141.2880 N   0  0  0  0  0  2  0  0  0  0  0  0
  189.9740  175.6880  142.5180 N   0  0  0  0  0  2  0  0  0  0  0  0
  190.7850  176.3190  143.5440 C   0  0  0  0  0  2  0  0  0  0  0  0
  189.9250  176.9460  144.5330 N   0  0  0  0  0  2  0  0  0  0  0  0
  188.6480  176.6150  144.2180 O   0  0  0  0  0  0  0  0  0  0  0  0
  185.8610  178.5900  147.3340 C   0  0  0  0  0  2  0  0  0  0  0  0
  185.0180  178.2450  146.1050 C   0  0  0  0  0  2  0  0  0  0  0  0
  187.7300  177.1520  146.3500 C   0  0  0  0  0  2  0  0  0  0  0  0
  187.8630  177.5560  144.8860 C   0  0  2  0  0  3  0  0  0  0  0  0
  185.6290  178.7450  144.8060 C   0  0  0  0  0  2  0  0  0  0  0  0
  187.3710  178.3740  147.1860 C   0  0  2  0  0  3  0  0  0  0  0  0
  187.9900  178.2420  148.5640 C   0  0  0  0  0  1  0  0  0  0  0  0
  186.5030  177.6520  144.1990 C   0  0  0  0  0  2  0  0  0  0  0  0
  185.6980  179.1990  141.0630 O   0  0  0  0  0  0  0  0  0  0  0  0
  184.1450  180.5110  138.8890 O   0  0  0  0  0  0  0  0  0  0  0  0
  183.4900  178.1770  141.3460 C   0  0  0  0  0  3  0  0  0  0  0  0
  182.1390  178.2830  140.6790 C   0  0  1  0  0  3  0  0  0  0  0  0
  183.6490  179.6700  139.6800 C   0  0  0  0  0  0  0  0  0  0  0  0
  182.3400  179.2400  139.6400 O   0  0  0  0  0  0  0  0  0  0  0  0
  184.3460  178.9970  140.7450 C   0  0  0  0  0  0  0  0  0  0  0  0
  180.2560  176.7530  140.1330 C   0  0  0  0  0  1  0  0  0  0  0  0
  181.7590  176.9380  140.0850 C   0  0  0  0  0  2  0  0  0  0  0  0
  1 23  1  0  0  0  0
  1  7  1  0  0  0  0
  2  5  1  0  0  0  0
  2  3  1  0  0  0  0
  3  6  2  0  0  0  0
  4  2  2  0  0  0  0
  5  1  2  0  0  0  0
  6 37  1  0  0  0  0
  6  7  1  0  0  0  0
  8  9  2  0  0  0  0
  9  4  1  0  0  0  0
 10 12  1  0  0  0  0
 10 13  1  1  0  0  0
 10 11  1  0  0  0  0
 12  9  1  1  0  0  0
 12 11  1  0  0  0  0
 13 14  1  6  0  0  0
 13 15  1  0  0  0  0
 15 16  1  6  0  0  0
 15 18  1  0  0  0  0
 16 17  1  0  0  0  0
 18 19  1  6  0  0  0
 21 20  1  0  0  0  0
 22 18  1  1  0  0  0
 22 21  1  0  0  0  0
 22 20  1  0  0  0  0
 23 24  1  0  0  0  0
 24 25  1  0  0  0  0
 25 26  1  0  0  0  0
 26 27  1  0  0  0  0
 28 27  1  0  0  0  0
 30 29  1  0  0  0  0
 31 34  1  0  0  0  0
 32 28  1  6  0  0  0
 32 31  1  0  0  0  0
 33 30  1  0  0  0  0
 34 29  1  0  0  0  0
 34 35  1  1  0  0  0
 36 33  1  0  0  0  0
 36 32  1  0  0  0  0
 38 41  2  0  0  0  0
 40 45  1  6  0  0  0
 40 39  1  0  0  0  0
 41 43  1  0  0  0  0
 42 41  1  0  0  0  0
 42 40  1  0  0  0  0
 43 37  1  0  0  0  0
 43 39  2  0  0  0  0
 45 44  1  0  0  0  0
M  END
>  <MODEL>
7

>  <REMARK>
 VINA RESULT:      -7.2      3.070      8.319
  Name = 
  17 active torsions:
  status: ('A' for Active; 'I' for Inactive)
    1  A    between atoms: C_2  and  C_17
    2  A    between atoms: N_4  and  C_9
    3  A    between atoms: N_4  and  N_29
    4  A    between atoms: C_6  and  N_18
    5  A    between atoms: C_6  and  N_29
    6  A    between atoms: C_7  and  C_14
    7  A    between atoms: C_7  and  C_43
    8  A    between atoms: C_9  and  C_12
    9  A    between atoms: N_13  and  C_14
   10  A    between atoms: C_14  and  C_17
   11  A    between atoms: N_18  and  O_30
   12  A    between atoms: C_20  and  O_30
   13  A    between atoms: C_22  and  C_27
   14  A    between atoms: N_33  and  C_35
   15  A    between atoms: C_35  and  C_41
   16  A    between atoms: C_38  and  O_44
   17  A    between atoms: C_40  and  O_44
                            x       y       z     vdW  Elec       q    Type
                         _______ _______ _______ _____ _____    ______ ____

>  <TORSDO>
F 17

$$$$
=
 OpenBabel10222418113D

 45 49  0  0  1  0  0  0  0  0999 V2000
  183.1020  178.7980  143.2660 C   0  0  0  0  0  0  0  0  0  0  0  0
  184.8970  178.7510  141.6270 C   0  0  0  0  0  0  0  0  0  0  0  0
  185.8240  178.3480  142.6390 N   0  0  0  0  0  0  0  0  0  0  0  0
  185.3320  178.9280  140.4130 N   0  0  0  0  0  0  0  0  0  0  0  0
  183.4950  178.9800  142.0050 C   0  0  0  0  0  3  0  0  0  0  0  0
  185.4820  178.1680  143.8820 C   0  0  0  0  0  0  0  0  0  0  0  0
  184.0620  178.3750  144.3480 C   0  0  0  0  0  2  0  0  0  0  0  0
  184.1810  180.5060  139.1010 O   0  0  0  0  0  0  0  0  0  0  0  0
  184.5710  179.3180  139.2580 C   0  0  0  0  0  0  0  0  0  0  0  0
  185.2890  177.6940  137.4550 C   0  0  1  0  0  3  0  0  0  0  0  0
  184.7310  176.9690  138.6090 N   0  0  0  0  0  2  0  0  0  0  0  0
  184.1780  178.2840  138.2400 C   0  0  1  0  0  3  0  0  0  0  0  0
  186.6940  178.2060  137.7880 C   0  0  2  0  0  3  0  0  0  0  0  0
  187.0580  179.1640  136.8390 O   0  0  0  0  0  1  0  0  0  0  0  0
  187.7120  177.0600  137.7900 C   0  0  1  0  0  3  0  0  0  0  0  0
  187.7630  176.4180  136.4820 N   0  0  0  0  0  2  0  0  0  0  0  0
  187.5170  175.1010  136.6810 O   0  0  0  0  0  1  0  0  0  0  0  0
  189.1040  177.5570  138.1870 C   0  0  2  0  0  3  0  0  0  0  0  0
  190.0640  177.1350  137.2620 O   0  0  0  0  0  1  0  0  0  0  0  0
  190.5490  176.1700  139.4700 O   0  0  0  0  0  0  0  0  0  0  0  0
  190.8650  177.4730  139.9030 C   0  0  0  0  0  2  0  0  0  0  0  0
  189.4780  177.0740  139.5780 C   0  0  1  0  0  3  0  0  0  0  0  0
  181.6820  179.0600  143.6370 C   0  0  0  0  0  2  0  0  0  0  0  0
  180.9190  179.4220  142.4560 N   0  0  0  0  0  2  0  0  0  0  0  0
  180.1040  180.5010  142.8220 N   0  0  0  0  0  2  0  0  0  0  0  0
  179.2630  180.7950  141.6750 C   0  0  0  0  0  2  0  0  0  0  0  0
  180.0890  180.9930  140.4970 N   0  0  0  0  0  2  0  0  0  0  0  0
  179.4500  181.8930  139.7100 O   0  0  0  0  0  0  0  0  0  0  0  0
  180.7960  182.8450  135.3890 C   0  0  0  0  0  2  0  0  0  0  0  0
  180.2110  181.4310  135.3960 C   0  0  0  0  0  2  0  0  0  0  0  0
  179.8220  183.1660  137.7300 C   0  0  0  0  0  2  0  0  0  0  0  0
  180.1940  181.9220  138.5290 C   0  0  2  0  0  3  0  0  0  0  0  0
  180.7990  180.5510  136.4880 C   0  0  0  0  0  2  0  0  0  0  0  0
  180.9490  183.5070  136.7620 C   0  0  2  0  0  3  0  0  0  0  0  0
  181.0210  185.0110  136.5830 C   0  0  0  0  0  1  0  0  0  0  0  0
  179.9310  180.6420  137.7390 C   0  0  0  0  0  2  0  0  0  0  0  0
  186.4250  177.7650  144.8400 O   0  0  0  0  0  0  0  0  0  0  0  0
  188.5420  177.5970  146.9260 O   0  0  0  0  0  0  0  0  0  0  0  0
  188.4510  177.5970  143.4750 C   0  0  0  0  0  3  0  0  0  0  0  0
  189.9360  177.4860  143.7260 C   0  0  1  0  0  3  0  0  0  0  0  0
  188.7850  177.5820  145.6930 C   0  0  0  0  0  0  0  0  0  0  0  0
  190.0470  177.4780  145.1490 O   0  0  0  0  0  0  0  0  0  0  0  0
  187.8080  177.6540  144.6370 C   0  0  0  0  0  0  0  0  0  0  0  0
  191.5840  175.6440  144.0090 C   0  0  0  0  0  1  0  0  0  0  0  0
  190.4530  176.1770  143.1540 C   0  0  0  0  0  2  0  0  0  0  0  0
  1 23  1  0  0  0  0
  1  7  1  0  0  0  0
  2  5  1  0  0  0  0
  2  3  1  0  0  0  0
  3  6  2  0  0  0  0
  4  2  2  0  0  0  0
  5  1  2  0  0  0  0
  6  7  1  0  0  0  0
  6 37  1  0  0  0  0
  8  9  2  0  0  0  0
  9  4  1  0  0  0  0
 10 13  1  1  0  0  0
 10 12  1  0  0  0  0
 10 11  1  0  0  0  0
 12 11  1  0  0  0  0
 12  9  1  1  0  0  0
 13 14  1  6  0  0  0
 13 15  1  0  0  0  0
 15 16  1  6  0  0  0
 15 18  1  0  0  0  0
 16 17  1  0  0  0  0
 18 19  1  6  0  0  0
 20 22  1  0  0  0  0
 20 21  1  0  0  0  0
 22 18  1  6  0  0  0
 22 21  1  0  0  0  0
 24 25  1  0  0  0  0
 24 23  1  0  0  0  0
 26 25  1  0  0  0  0
 27 26  1  0  0  0  0
 28 27  1  0  0  0  0
 29 30  1  0  0  0  0
 29 34  1  0  0  0  0
 30 33  1  0  0  0  0
 31 32  1  0  0  0  0
 32 28  1  1  0  0  0
 33 36  1  0  0  0  0
 34 35  1  6  0  0  0
 34 31  1  0  0  0  0
 36 32  1  0  0  0  0
 39 40  1  0  0  0  0
 39 43  2  0  0  0  0
 40 45  1  1  0  0  0
 40 42  1  0  0  0  0
 41 38  2  0  0  0  0
 42 41  1  0  0  0  0
 43 37  1  0  0  0  0
 43 41  1  0  0  0  0
 45 44  1  0  0  0  0
M  END
>  <MODEL>
8

>  <REMARK>
 VINA RESULT:      -7.2      2.889      8.651
  Name = 
  17 active torsions:
  status: ('A' for Active; 'I' for Inactive)
    1  A    between atoms: C_2  and  C_17
    2  A    between atoms: N_4  and  C_9
    3  A    between atoms: N_4  and  N_29
    4  A    between atoms: C_6  and  N_18
    5  A    between atoms: C_6  and  N_29
    6  A    between atoms: C_7  and  C_14
    7  A    between atoms: C_7  and  C_43
    8  A    between atoms: C_9  and  C_12
    9  A    between atoms: N_13  and  C_14
   10  A    between atoms: C_14  and  C_17
   11  A    between atoms: N_18  and  O_30
   12  A    between atoms: C_20  and  O_30
   13  A    between atoms: C_22  and  C_27
   14  A    between atoms: N_33  and  C_35
   15  A    between atoms: C_35  and  C_41
   16  A    between atoms: C_38  and  O_44
   17  A    between atoms: C_40  and  O_44
                            x       y       z     vdW  Elec       q    Type
                         _______ _______ _______ _____ _____    ______ ____

>  <TORSDO>
F 17

$$$$
=
 OpenBabel10222418113D

 45 49  0  0  1  0  0  0  0  0999 V2000
  188.2690  177.6310  138.7800 C   0  0  0  0  0  0  0  0  0  0  0  0
  185.9070  177.8210  138.2350 C   0  0  0  0  0  0  0  0  0  0  0  0
  186.0570  176.8490  137.1980 N   0  0  0  0  0  0  0  0  0  0  0  0
  184.7360  178.3590  138.4260 N   0  0  0  0  0  0  0  0  0  0  0  0
  187.0890  178.2000  139.0240 C   0  0  0  0  0  3  0  0  0  0  0  0
  187.1930  176.2750  136.9230 C   0  0  0  0  0  0  0  0  0  0  0  0
  188.4490  176.6040  137.6910 C   0  0  0  0  0  2  0  0  0  0  0  0
  184.1840  180.5450  139.1000 O   0  0  0  0  0  0  0  0  0  0  0  0
  184.3730  179.3390  139.4130 C   0  0  0  0  0  0  0  0  0  0  0  0
  182.9060  178.6300  141.3490 C   0  0  1  0  0  3  0  0  0  0  0  0
  183.8210  177.5410  140.9700 N   0  0  0  0  0  2  0  0  0  0  0  0
  184.2710  178.9400  140.8590 C   0  0  1  0  0  3  0  0  0  0  0  0
  181.7770  178.7490  140.3180 C   0  0  2  0  0  3  0  0  0  0  0  0
  180.8990  179.7530  140.7300 O   0  0  0  0  0  1  0  0  0  0  0  0
  181.0240  177.4220  140.1710 C   0  0  1  0  0  3  0  0  0  0  0  0
  179.6500  177.5580  140.6410 N   0  0  0  0  0  2  0  0  0  0  0  0
  179.5890  176.9620  141.8550 O   0  0  0  0  0  1  0  0  0  0  0  0
  181.0390  176.9350  138.7210 C   0  0  2  0  0  3  0  0  0  0  0  0
  179.8090  177.1810  138.1020 O   0  0  0  0  0  1  0  0  0  0  0  0
  181.8350  175.1590  137.3540 O   0  0  0  0  0  0  0  0  0  0  0  0
  182.8080  175.2620  138.3670 C   0  0  0  0  0  2  0  0  0  0  0  0
  181.3690  175.4540  138.6460 C   0  0  1  0  0  3  0  0  0  0  0  0
  189.4610  178.0450  139.5710 C   0  0  0  0  0  2  0  0  0  0  0  0
  189.8980  176.9510  140.4210 N   0  0  0  0  0  2  0  0  0  0  0  0
  190.2110  177.5120  141.6650 N   0  0  0  0  0  2  0  0  0  0  0  0
  190.1260  176.4380  142.6390 C   0  0  0  0  0  2  0  0  0  0  0  0
  189.4590  176.9140  143.8390 N   0  0  0  0  0  2  0  0  0  0  0  0
  188.1450  176.6060  143.7130 O   0  0  0  0  0  0  0  0  0  0  0  0
  185.6410  178.7030  146.9860 C   0  0  0  0  0  2  0  0  0  0  0  0
  184.7460  178.5180  145.7600 C   0  0  0  0  0  2  0  0  0  0  0  0
  187.3250  177.1250  145.8890 C   0  0  0  0  0  2  0  0  0  0  0  0
  187.4780  177.5890  144.4450 C   0  0  2  0  0  3  0  0  0  0  0  0
  185.3880  179.0180  144.4750 C   0  0  0  0  0  2  0  0  0  0  0  0
  187.1150  178.3320  146.7950 C   0  0  2  0  0  3  0  0  0  0  0  0
  187.7380  178.0590  148.1500 C   0  0  0  0  0  1  0  0  0  0  0  0
  186.1270  177.8700  143.7940 C   0  0  0  0  0  2  0  0  0  0  0  0
  187.2910  175.3200  135.9000 O   0  0  0  0  0  0  0  0  0  0  0  0
  188.3710  172.6890  136.7780 O   0  0  0  0  0  0  0  0  0  0  0  0
  185.4010  173.8320  135.4420 C   0  0  0  0  0  3  0  0  0  0  0  0
  185.1080  172.3570  135.5800 C   0  0  1  0  0  3  0  0  0  0  0  0
  187.2170  172.8370  136.3020 C   0  0  0  0  0  0  0  0  0  0  0  0
  186.3060  171.8160  136.1360 O   0  0  0  0  0  0  0  0  0  0  0  0
  186.6350  174.0800  135.8660 C   0  0  0  0  0  0  0  0  0  0  0  0
  183.4160  170.7430  136.4300 C   0  0  0  0  0  1  0  0  0  0  0  0
  183.9490  172.1560  136.5420 C   0  0  0  0  0  2  0  0  0  0  0  0
  1  5  2  0  0  0  0
  1 23  1  0  0  0  0
  2  4  2  0  0  0  0
  2  5  1  0  0  0  0
  3  2  1  0  0  0  0
  4  9  1  0  0  0  0
  6  3  2  0  0  0  0
  6  7  1  0  0  0  0
  7  1  1  0  0  0  0
  8  9  2  0  0  0  0
 10 13  1  6  0  0  0
 11 10  1  0  0  0  0
 12  9  1  6  0  0  0
 12 11  1  0  0  0  0
 12 10  1  0  0  0  0
 13 14  1  1  0  0  0
 15 13  1  0  0  0  0
 15 16  1  6  0  0  0
 16 17  1  0  0  0  0
 18 19  1  1  0  0  0
 18 15  1  0  0  0  0
 20 21  1  0  0  0  0
 20 22  1  0  0  0  0
 21 22  1  0  0  0  0
 22 18  1  6  0  0  0
 23 24  1  0  0  0  0
 24 25  1  0  0  0  0
 25 26  1  0  0  0  0
 26 27  1  0  0  0  0
 28 27  1  0  0  0  0
 30 29  1  0  0  0  0
 31 34  1  0  0  0  0
 32 28  1  6  0  0  0
 32 31  1  0  0  0  0
 33 30  1  0  0  0  0
 34 29  1  0  0  0  0
 34 35  1  1  0  0  0
 36 32  1  0  0  0  0
 36 33  1  0  0  0  0
 37  6  1  0  0  0  0
 39 40  1  0  0  0  0
 39 43  2  0  0  0  0
 40 42  1  0  0  0  0
 40 45  1  1  0  0  0
 41 38  2  0  0  0  0
 42 41  1  0  0  0  0
 43 37  1  0  0  0  0
 43 41  1  0  0  0  0
 44 45  1  0  0  0  0
M  END
>  <MODEL>
9

>  <REMARK>
 VINA RESULT:      -7.2      3.139      4.968
  Name = 
  17 active torsions:
  status: ('A' for Active; 'I' for Inactive)
    1  A    between atoms: C_2  and  C_17
    2  A    between atoms: N_4  and  C_9
    3  A    between atoms: N_4  and  N_29
    4  A    between atoms: C_6  and  N_18
    5  A    between atoms: C_6  and  N_29
    6  A    between atoms: C_7  and  C_14
    7  A    between atoms: C_7  and  C_43
    8  A    between atoms: C_9  and  C_12
    9  A    between atoms: N_13  and  C_14
   10  A    between atoms: C_14  and  C_17
   11  A    between atoms: N_18  and  O_30
   12  A    between atoms: C_20  and  O_30
   13  A    between atoms: C_22  and  C_27
   14  A    between atoms: N_33  and  C_35
   15  A    between atoms: C_35  and  C_41
   16  A    between atoms: C_38  and  O_44
   17  A    between atoms: C_40  and  O_44
                            x       y       z     vdW  Elec       q    Type
                         _______ _______ _______ _____ _____    ______ ____

>  <TORSDO>
F 17

$$$$
