=
 OpenBabel10222418283D

 28 30  0  0  1  0  0  0  0  0999 V2000
  187.2520  178.2300  139.1230 S   0  0  0  0  0  0  0  0  0  0  0  0
  188.2090  178.0770  140.5030 C   0  0  0  0  0  0  0  0  0  0  0  0
  185.8690  178.5920  140.0060 C   0  0  0  0  0  0  0  0  0  0  0  0
  187.4930  178.2860  141.6310 N   0  0  0  0  0  0  0  0  0  0  0  0
  186.1900  178.5600  141.3600 C   0  0  0  0  0  0  0  0  0  0  0  0
  190.3470  177.6780  141.7440 N   0  0  0  0  0  2  0  0  0  0  0  0
  190.2360  177.5360  139.4160 O   0  0  0  0  0  0  0  0  0  0  0  0
  189.6380  177.7520  140.5040 C   0  0  0  0  0  0  0  0  0  0  0  0
  191.7520  177.3040  141.8260 C   0  0  0  0  0  2  0  0  0  0  0  0
  192.0360  176.7020  143.1220 N   0  0  0  0  0  2  0  0  0  0  0  0
  191.3500  177.0670  144.3220 C   0  0  0  0  0  0  0  0  0  0  0  0
  191.0230  176.7710  146.7200 C   0  0  2  0  0  3  0  0  0  0  0  0
  190.3220  178.1630  144.3180 C   0  0  0  0  0  2  0  0  0  0  0  0
  191.0050  175.5650  147.5310 N   0  0  0  0  0  1  0  0  0  0  0  0
  189.6200  177.3350  146.5430 C   0  0  0  0  0  0  0  0  0  0  0  0
  191.6440  176.4540  145.4300 N   0  0  0  0  0  0  0  0  0  0  0  0
  189.3070  177.9520  145.4010 C   0  0  0  0  0  3  0  0  0  0  0  0
  188.3910  178.3530  148.4450 C   0  0  0  0  0  1  0  0  0  0  0  0
  188.6450  177.2850  147.5450 O   0  0  0  0  0  0  0  0  0  0  0  0
  185.2090  178.8430  142.4450 C   0  0  0  0  0  2  0  0  0  0  0  0
  185.5720  178.1410  143.6020 O   0  0  0  0  0  0  0  0  0  0  0  0
  185.4390  178.5380  146.0900 C   0  0  0  0  0  1  0  0  0  0  0  0
  184.1930  180.0740  144.3660 C   0  0  0  0  0  2  0  0  0  0  0  0
  184.9530  178.7990  144.6750 C   0  0  0  0  0  0  0  0  0  0  0  0
  183.4470  178.7610  144.5610 C   0  0  0  0  0  2  0  0  0  0  0  0
  184.5200  178.8300  139.4200 C   0  0  0  0  0  2  0  0  0  0  0  0
  184.3720  180.1820  139.1150 O   0  0  0  0  0  0  0  0  0  0  0  0
  183.0330  180.3720  139.0570 N   0  0  0  0  0  1  0  0  0  0  0  0
  1  3  1  0  0  0  0
  1  2  1  0  0  0  0
  2  8  1  0  0  0  0
  2  4  2  0  0  0  0
  3  5  2  0  0  0  0
  5  4  1  0  0  0  0
  5 20  1  0  0  0  0
  6  9  1  0  0  0  0
  7  8  2  0  0  0  0
  8  6  1  0  0  0  0
  9 10  1  0  0  0  0
 10 11  1  0  0  0  0
 11 16  2  0  0  0  0
 12 14  1  1  0  0  0
 13 11  1  0  0  0  0
 13 17  1  0  0  0  0
 15 12  1  0  0  0  0
 15 19  1  0  0  0  0
 16 12  1  0  0  0  0
 17 15  2  0  0  0  0
 19 18  1  0  0  0  0
 20 21  1  0  0  0  0
 21 24  1  0  0  0  0
 23 25  1  0  0  0  0
 23 24  1  0  0  0  0
 24 22  1  0  0  0  0
 25 24  1  0  0  0  0
 26  3  1  0  0  0  0
 27 26  1  0  0  0  0
 28 27  1  0  0  0  0
M  END
>  <MODEL>
1

>  <REMARK>
 VINA RESULT:      -7.4      0.000      0.000
  Name = 
  9 active torsions:
  status: ('A' for Active; 'I' for Inactive)
    1  A    between atoms: N_2  and  C_22
    2  A    between atoms: O_4  and  C_13
    3  A    between atoms: O_4  and  C_15
    4  A    between atoms: O_9  and  C_17
    5  A    between atoms: C_10  and  C_25
    6  A    between atoms: N_12  and  C_22
    7  A    between atoms: C_13  and  C_24
    8  A    between atoms: C_14  and  C_17
    9  A    between atoms: C_19  and  O_28
                            x       y       z     vdW  Elec       q    Type
                         _______ _______ _______ _____ _____    ______ ____

>  <TORSDO>
F 9

$$$$
=
 OpenBabel10222418283D

 28 30  0  0  1  0  0  0  0  0999 V2000
  191.0100  176.9150  143.5070 S   0  0  0  0  0  0  0  0  0  0  0  0
  189.7030  177.3090  142.5180 C   0  0  0  0  0  0  0  0  0  0  0  0
  190.1250  177.1240  144.9210 C   0  0  0  0  0  0  0  0  0  0  0  0
  188.6010  177.6090  143.2430 N   0  0  0  0  0  0  0  0  0  0  0  0
  188.8350  177.5200  144.5780 C   0  0  0  0  0  0  0  0  0  0  0  0
  188.9870  178.3280  140.3450 N   0  0  0  0  0  2  0  0  0  0  0  0
  190.4220  176.4870  140.4220 O   0  0  0  0  0  0  0  0  0  0  0  0
  189.7350  177.3350  141.0530 C   0  0  0  0  0  0  0  0  0  0  0  0
  189.0180  178.4510  138.8950 C   0  0  0  0  0  2  0  0  0  0  0  0
  187.6630  178.4270  138.3600 N   0  0  0  0  0  2  0  0  0  0  0  0
  187.1260  177.3150  137.6390 C   0  0  0  0  0  0  0  0  0  0  0  0
  185.2560  176.2940  136.4540 C   0  0  2  0  0  3  0  0  0  0  0  0
  187.9740  176.1130  137.3330 C   0  0  0  0  0  2  0  0  0  0  0  0
  183.8320  176.3020  136.7460 N   0  0  0  0  0  1  0  0  0  0  0  0
  185.8720  174.9370  136.7620 C   0  0  0  0  0  0  0  0  0  0  0  0
  185.8940  177.3650  137.2260 N   0  0  0  0  0  0  0  0  0  0  0  0
  187.1310  174.8800  137.2010 C   0  0  0  0  0  3  0  0  0  0  0  0
  184.8760  172.8230  137.6030 C   0  0  0  0  0  1  0  0  0  0  0  0
  185.1980  173.7280  136.5570 O   0  0  0  0  0  0  0  0  0  0  0  0
  187.7640  177.7890  145.5790 C   0  0  0  0  0  2  0  0  0  0  0  0
  186.5580  177.2290  145.1380 O   0  0  0  0  0  0  0  0  0  0  0  0
  184.9920  178.8850  144.0550 C   0  0  0  0  0  1  0  0  0  0  0  0
  184.8090  178.2490  146.5940 C   0  0  0  0  0  2  0  0  0  0  0  0
  185.5810  178.2230  145.2900 C   0  0  0  0  0  0  0  0  0  0  0  0
  185.9580  179.2200  146.3600 C   0  0  0  0  0  2  0  0  0  0  0  0
  190.6710  176.9780  146.2990 C   0  0  0  0  0  2  0  0  0  0  0  0
  191.8980  176.3180  146.2510 O   0  0  0  0  0  0  0  0  0  0  0  0
  192.2900  176.2370  147.5450 N   0  0  0  0  0  1  0  0  0  0  0  0
  1  3  1  0  0  0  0
  2  4  2  0  0  0  0
  2  1  1  0  0  0  0
  3 26  1  0  0  0  0
  4  5  1  0  0  0  0
  5  3  2  0  0  0  0
  5 20  1  0  0  0  0
  6  8  1  0  0  0  0
  7  8  2  0  0  0  0
  8  2  1  0  0  0  0
  9  6  1  0  0  0  0
 10  9  1  0  0  0  0
 11 10  1  0  0  0  0
 12 14  1  1  0  0  0
 12 15  1  0  0  0  0
 12 16  1  0  0  0  0
 13 11  1  0  0  0  0
 15 17  2  0  0  0  0
 16 11  2  0  0  0  0
 17 13  1  0  0  0  0
 19 15  1  0  0  0  0
 19 18  1  0  0  0  0
 21 24  1  0  0  0  0
 21 20  1  0  0  0  0
 22 24  1  0  0  0  0
 24 25  1  0  0  0  0
 24 23  1  0  0  0  0
 25 23  1  0  0  0  0
 27 26  1  0  0  0  0
 27 28  1  0  0  0  0
M  END
>  <MODEL>
2

>  <REMARK>
 VINA RESULT:      -7.4      3.312      7.657
  Name = 
  9 active torsions:
  status: ('A' for Active; 'I' for Inactive)
    1  A    between atoms: N_2  and  C_22
    2  A    between atoms: O_4  and  C_13
    3  A    between atoms: O_4  and  C_15
    4  A    between atoms: O_9  and  C_17
    5  A    between atoms: C_10  and  C_25
    6  A    between atoms: N_12  and  C_22
    7  A    between atoms: C_13  and  C_24
    8  A    between atoms: C_14  and  C_17
    9  A    between atoms: C_19  and  O_28
                            x       y       z     vdW  Elec       q    Type
                         _______ _______ _______ _____ _____    ______ ____

>  <TORSDO>
F 9

$$$$
=
 OpenBabel10222418283D

 28 30  0  0  1  0  0  0  0  0999 V2000
  191.2110  176.9040  144.2270 S   0  0  0  0  0  0  0  0  0  0  0  0
  190.0390  177.4370  143.1390 C   0  0  0  0  0  0  0  0  0  0  0  0
  190.1870  177.0500  145.5510 C   0  0  0  0  0  0  0  0  0  0  0  0
  188.8780  177.7360  143.7650 N   0  0  0  0  0  0  0  0  0  0  0  0
  188.9600  177.5360  145.1060 C   0  0  0  0  0  0  0  0  0  0  0  0
  189.1430  177.9920  140.8680 N   0  0  0  0  0  2  0  0  0  0  0  0
  191.3580  177.3230  141.1820 O   0  0  0  0  0  0  0  0  0  0  0  0
  190.2330  177.5730  141.6930 C   0  0  0  0  0  0  0  0  0  0  0  0
  189.2780  178.2050  139.4340 C   0  0  0  0  0  2  0  0  0  0  0  0
  188.7530  177.0570  138.7040 N   0  0  0  0  0  2  0  0  0  0  0  0
  189.5690  176.2000  137.9020 C   0  0  0  0  0  0  0  0  0  0  0  0
  189.7620  174.2550  136.4450 C   0  0  2  0  0  3  0  0  0  0  0  0
  191.0330  176.4840  137.7140 C   0  0  0  0  0  2  0  0  0  0  0  0
  189.1340  172.9470  136.5240 N   0  0  0  0  0  1  0  0  0  0  0  0
  191.2330  174.1820  136.8280 C   0  0  0  0  0  0  0  0  0  0  0  0
  189.0230  175.1780  137.3120 N   0  0  0  0  0  0  0  0  0  0  0  0
  191.7960  175.2220  137.4480 C   0  0  0  0  0  3  0  0  0  0  0  0
  193.4680  173.1250  136.5890 C   0  0  0  0  0  1  0  0  0  0  0  0
  192.0510  173.0900  136.5150 O   0  0  0  0  0  0  0  0  0  0  0  0
  187.7970  177.7820  146.0060 C   0  0  0  0  0  2  0  0  0  0  0  0
  186.6560  177.1650  145.4770 O   0  0  0  0  0  0  0  0  0  0  0  0
  185.1550  178.6640  144.1110 C   0  0  0  0  0  1  0  0  0  0  0  0
  184.7790  178.2830  146.6790 C   0  0  0  0  0  2  0  0  0  0  0  0
  185.6540  178.1450  145.4500 C   0  0  0  0  0  0  0  0  0  0  0  0
  185.9270  179.2540  146.4380 C   0  0  0  0  0  2  0  0  0  0  0  0
  190.5710  176.7730  146.9630 C   0  0  0  0  0  2  0  0  0  0  0  0
  191.9530  176.8890  147.1050 O   0  0  0  0  0  0  0  0  0  0  0  0
  192.3540  175.6660  147.5270 N   0  0  0  0  0  1  0  0  0  0  0  0
  1  3  1  0  0  0  0
  2  4  2  0  0  0  0
  2  1  1  0  0  0  0
  3 26  1  0  0  0  0
  4  5  1  0  0  0  0
  5  3  2  0  0  0  0
  5 20  1  0  0  0  0
  6  8  1  0  0  0  0
  7  8  2  0  0  0  0
  8  2  1  0  0  0  0
  9  6  1  0  0  0  0
 10  9  1  0  0  0  0
 11 10  1  0  0  0  0
 12 14  1  1  0  0  0
 12 15  1  0  0  0  0
 12 16  1  0  0  0  0
 13 11  1  0  0  0  0
 15 17  2  0  0  0  0
 16 11  2  0  0  0  0
 17 13  1  0  0  0  0
 19 18  1  0  0  0  0
 19 15  1  0  0  0  0
 21 20  1  0  0  0  0
 22 24  1  0  0  0  0
 24 21  1  0  0  0  0
 24 25  1  0  0  0  0
 24 23  1  0  0  0  0
 25 23  1  0  0  0  0
 26 27  1  0  0  0  0
 27 28  1  0  0  0  0
M  END
>  <MODEL>
3

>  <REMARK>
 VINA RESULT:      -7.3      3.566      7.531
  Name = 
  9 active torsions:
  status: ('A' for Active; 'I' for Inactive)
    1  A    between atoms: N_2  and  C_22
    2  A    between atoms: O_4  and  C_13
    3  A    between atoms: O_4  and  C_15
    4  A    between atoms: O_9  and  C_17
    5  A    between atoms: C_10  and  C_25
    6  A    between atoms: N_12  and  C_22
    7  A    between atoms: C_13  and  C_24
    8  A    between atoms: C_14  and  C_17
    9  A    between atoms: C_19  and  O_28
                            x       y       z     vdW  Elec       q    Type
                         _______ _______ _______ _____ _____    ______ ____

>  <TORSDO>
F 9

$$$$
=
 OpenBabel10222418283D

 28 30  0  0  1  0  0  0  0  0999 V2000
  190.9720  176.9480  143.6880 S   0  0  0  0  0  0  0  0  0  0  0  0
  189.6330  177.2780  142.7180 C   0  0  0  0  0  0  0  0  0  0  0  0
  190.0980  177.1050  145.1140 C   0  0  0  0  0  0  0  0  0  0  0  0
  188.5270  177.5170  143.4600 N   0  0  0  0  0  0  0  0  0  0  0  0
  188.7850  177.4350  144.7920 C   0  0  0  0  0  0  0  0  0  0  0  0
  190.5740  176.5020  140.5320 N   0  0  0  0  0  2  0  0  0  0  0  0
  188.8320  178.0540  140.6340 O   0  0  0  0  0  0  0  0  0  0  0  0
  189.6430  177.3130  141.2530 C   0  0  0  0  0  0  0  0  0  0  0  0
  190.6030  176.4410  139.0770 C   0  0  0  0  0  2  0  0  0  0  0  0
  191.9420  176.7440  138.5890 N   0  0  0  0  0  2  0  0  0  0  0  0
  192.7310  175.8150  137.8410 C   0  0  0  0  0  0  0  0  0  0  0  0
  194.8040  175.2960  136.6660 C   0  0  2  0  0  3  0  0  0  0  0  0
  192.2320  174.4230  137.5710 C   0  0  0  0  0  2  0  0  0  0  0  0
  195.6210  176.1130  135.7850 N   0  0  0  0  0  1  0  0  0  0  0  0
  194.0320  174.2450  135.8820 C   0  0  0  0  0  0  0  0  0  0  0  0
  193.9030  176.1800  137.4150 N   0  0  0  0  0  0  0  0  0  0  0  0
  192.8210  173.8760  136.3060 C   0  0  0  0  0  3  0  0  0  0  0  0
  194.8440  172.2080  134.7150 C   0  0  0  0  0  1  0  0  0  0  0  0
  194.5530  173.5970  134.7560 O   0  0  0  0  0  0  0  0  0  0  0  0
  187.7150  177.6440  145.8080 C   0  0  0  0  0  2  0  0  0  0  0  0
  186.4980  177.1500  145.3190 O   0  0  0  0  0  0  0  0  0  0  0  0
  185.0800  178.8980  144.1800 C   0  0  0  0  0  1  0  0  0  0  0  0
  184.7410  178.2540  146.7010 C   0  0  0  0  0  2  0  0  0  0  0  0
  185.5720  178.1950  145.4340 C   0  0  0  0  0  0  0  0  0  0  0  0
  185.9520  179.1620  146.5310 C   0  0  0  0  0  2  0  0  0  0  0  0
  190.6690  176.9810  146.4840 C   0  0  0  0  0  2  0  0  0  0  0  0
  192.0560  176.8650  146.4060 O   0  0  0  0  0  0  0  0  0  0  0  0
  192.3940  176.1050  147.4740 N   0  0  0  0  0  1  0  0  0  0  0  0
  1  3  1  0  0  0  0
  2  4  2  0  0  0  0
  2  1  1  0  0  0  0
  3 26  1  0  0  0  0
  4  5  1  0  0  0  0
  5  3  2  0  0  0  0
  5 20  1  0  0  0  0
  6  8  1  0  0  0  0
  7  8  2  0  0  0  0
  8  2  1  0  0  0  0
  9  6  1  0  0  0  0
 10  9  1  0  0  0  0
 11 10  1  0  0  0  0
 12 14  1  6  0  0  0
 12 16  1  0  0  0  0
 13 11  1  0  0  0  0
 15 17  2  0  0  0  0
 15 12  1  0  0  0  0
 16 11  2  0  0  0  0
 17 13  1  0  0  0  0
 18 19  1  0  0  0  0
 19 15  1  0  0  0  0
 21 24  1  0  0  0  0
 21 20  1  0  0  0  0
 22 24  1  0  0  0  0
 24 25  1  0  0  0  0
 24 23  1  0  0  0  0
 25 23  1  0  0  0  0
 27 26  1  0  0  0  0
 27 28  1  0  0  0  0
M  END
>  <MODEL>
4

>  <REMARK>
 VINA RESULT:      -7.3      4.302      7.976
  Name = 
  9 active torsions:
  status: ('A' for Active; 'I' for Inactive)
    1  A    between atoms: N_2  and  C_22
    2  A    between atoms: O_4  and  C_13
    3  A    between atoms: O_4  and  C_15
    4  A    between atoms: O_9  and  C_17
    5  A    between atoms: C_10  and  C_25
    6  A    between atoms: N_12  and  C_22
    7  A    between atoms: C_13  and  C_24
    8  A    between atoms: C_14  and  C_17
    9  A    between atoms: C_19  and  O_28
                            x       y       z     vdW  Elec       q    Type
                         _______ _______ _______ _____ _____    ______ ____

>  <TORSDO>
F 9

$$$$
=
 OpenBabel10222418283D

 28 30  0  0  1  0  0  0  0  0999 V2000
  188.8250  177.6880  141.4900 S   0  0  0  0  0  0  0  0  0  0  0  0
  187.4440  178.4320  140.8720 C   0  0  0  0  0  0  0  0  0  0  0  0
  189.6080  177.6900  140.0030 C   0  0  0  0  0  0  0  0  0  0  0  0
  187.5600  178.6760  139.5460 N   0  0  0  0  0  0  0  0  0  0  0  0
  188.7550  178.2530  139.0580 C   0  0  0  0  0  0  0  0  0  0  0  0
  186.1080  178.2720  142.9830 N   0  0  0  0  0  2  0  0  0  0  0  0
  185.3620  179.5130  141.1520 O   0  0  0  0  0  0  0  0  0  0  0  0
  186.2520  178.7750  141.6530 C   0  0  0  0  0  0  0  0  0  0  0  0
  184.9810  178.6190  143.8380 C   0  0  0  0  0  2  0  0  0  0  0  0
  185.4020  178.6590  145.2320 N   0  0  0  0  0  2  0  0  0  0  0  0
  186.5660  177.9860  145.7190 C   0  0  0  0  0  0  0  0  0  0  0  0
  188.0420  177.4310  147.5780 C   0  0  2  0  0  3  0  0  0  0  0  0
  187.3980  177.1280  144.8050 C   0  0  0  0  0  2  0  0  0  0  0  0
  188.5230  178.2470  148.6810 N   0  0  0  0  0  1  0  0  0  0  0  0
  189.1440  177.1820  146.5590 C   0  0  0  0  0  0  0  0  0  0  0  0
  186.8870  178.1030  146.9720 N   0  0  0  0  0  0  0  0  0  0  0  0
  188.8230  177.0760  145.2670 C   0  0  0  0  0  3  0  0  0  0  0  0
  191.5210  176.7670  145.9690 C   0  0  0  0  0  1  0  0  0  0  0  0
  190.4860  177.0040  146.9120 O   0  0  0  0  0  0  0  0  0  0  0  0
  189.1190  178.4300  137.6230 C   0  0  0  0  0  2  0  0  0  0  0  0
  187.9610  178.6640  136.8700 O   0  0  0  0  0  0  0  0  0  0  0  0
  189.2790  177.2920  135.2120 C   0  0  0  0  0  1  0  0  0  0  0  0
  186.7560  176.7990  135.7350 C   0  0  0  0  0  2  0  0  0  0  0  0
  187.9600  177.7130  135.8400 C   0  0  0  0  0  0  0  0  0  0  0  0
  186.8930  178.0020  134.8110 C   0  0  0  0  0  2  0  0  0  0  0  0
  190.9570  177.1120  139.7480 C   0  0  0  0  0  2  0  0  0  0  0  0
  190.8280  175.8880  139.0940 O   0  0  0  0  0  0  0  0  0  0  0  0
  191.7900  175.9090  138.1420 N   0  0  0  0  0  1  0  0  0  0  0  0
  2  1  1  0  0  0  0
  2  8  1  0  0  0  0
  3  1  1  0  0  0  0
  4  2  2  0  0  0  0
  5  4  1  0  0  0  0
  5  3  2  0  0  0  0
  6  9  1  0  0  0  0
  7  8  2  0  0  0  0
  8  6  1  0  0  0  0
  9 10  1  0  0  0  0
 10 11  1  0  0  0  0
 11 16  2  0  0  0  0
 12 14  1  1  0  0  0
 13 17  1  0  0  0  0
 13 11  1  0  0  0  0
 15 19  1  0  0  0  0
 15 12  1  0  0  0  0
 16 12  1  0  0  0  0
 17 15  2  0  0  0  0
 18 19  1  0  0  0  0
 20  5  1  0  0  0  0
 21 20  1  0  0  0  0
 22 24  1  0  0  0  0
 23 24  1  0  0  0  0
 24 21  1  0  0  0  0
 25 23  1  0  0  0  0
 25 24  1  0  0  0  0
 26  3  1  0  0  0  0
 27 26  1  0  0  0  0
 28 27  1  0  0  0  0
M  END
>  <MODEL>
5

>  <REMARK>
 VINA RESULT:      -7.3      2.944      6.079
  Name = 
  9 active torsions:
  status: ('A' for Active; 'I' for Inactive)
    1  A    between atoms: N_2  and  C_22
    2  A    between atoms: O_4  and  C_13
    3  A    between atoms: O_4  and  C_15
    4  A    between atoms: O_9  and  C_17
    5  A    between atoms: C_10  and  C_25
    6  A    between atoms: N_12  and  C_22
    7  A    between atoms: C_13  and  C_24
    8  A    between atoms: C_14  and  C_17
    9  A    between atoms: C_19  and  O_28
                            x       y       z     vdW  Elec       q    Type
                         _______ _______ _______ _____ _____    ______ ____

>  <TORSDO>
F 9

$$$$
=
 OpenBabel10222418283D

 28 30  0  0  1  0  0  0  0  0999 V2000
  189.5030  177.2060  138.6670 S   0  0  0  0  0  0  0  0  0  0  0  0
  188.6420  177.8090  139.9850 C   0  0  0  0  0  0  0  0  0  0  0  0
  190.8870  176.9260  139.5770 C   0  0  0  0  0  0  0  0  0  0  0  0
  189.3930  177.8130  141.1110 N   0  0  0  0  0  0  0  0  0  0  0  0
  190.6440  177.3360  140.8850 C   0  0  0  0  0  0  0  0  0  0  0  0
  186.5430  178.5060  141.1580 N   0  0  0  0  0  2  0  0  0  0  0  0
  186.6970  178.4900  138.8280 O   0  0  0  0  0  0  0  0  0  0  0  0
  187.2550  178.2810  139.9390 C   0  0  0  0  0  0  0  0  0  0  0  0
  185.1840  179.0290  141.1900 C   0  0  0  0  0  2  0  0  0  0  0  0
  184.8390  179.4470  142.5430 N   0  0  0  0  0  2  0  0  0  0  0  0
  185.2040  178.7040  143.7090 C   0  0  0  0  0  0  0  0  0  0  0  0
  185.1840  178.4710  146.1360 C   0  0  2  0  0  3  0  0  0  0  0  0
  185.9230  177.3890  143.5900 C   0  0  0  0  0  2  0  0  0  0  0  0
  185.3550  179.4640  147.1830 N   0  0  0  0  0  1  0  0  0  0  0  0
  186.4180  177.5900  146.0070 C   0  0  0  0  0  0  0  0  0  0  0  0
  184.8840  179.1680  144.8800 N   0  0  0  0  0  0  0  0  0  0  0  0
  186.7610  177.1240  144.8040 C   0  0  0  0  0  3  0  0  0  0  0  0
  188.2230  177.9960  147.6640 C   0  0  0  0  0  1  0  0  0  0  0  0
  187.1930  177.1960  147.1040 O   0  0  0  0  0  0  0  0  0  0  0  0
  191.6480  177.2290  141.9810 C   0  0  0  0  0  2  0  0  0  0  0  0
  191.0800  176.5640  143.0760 O   0  0  0  0  0  0  0  0  0  0  0  0
  191.6960  176.7240  145.5170 C   0  0  0  0  0  1  0  0  0  0  0  0
  191.6710  178.8250  143.9470 C   0  0  0  0  0  2  0  0  0  0  0  0
  191.3170  177.3730  144.1960 C   0  0  0  0  0  0  0  0  0  0  0  0
  190.2560  178.4370  144.3540 C   0  0  0  0  0  2  0  0  0  0  0  0
  192.1720  176.3990  139.0380 C   0  0  0  0  0  2  0  0  0  0  0  0
  192.2700  176.6980  137.6800 O   0  0  0  0  0  0  0  0  0  0  0  0
  193.6000  176.7920  137.4480 N   0  0  0  0  0  1  0  0  0  0  0  0
  1  3  1  0  0  0  0
  1  2  1  0  0  0  0
  2  4  2  0  0  0  0
  3  5  2  0  0  0  0
  5  4  1  0  0  0  0
  5 20  1  0  0  0  0
  6  9  1  0  0  0  0
  7  8  2  0  0  0  0
  8  2  1  0  0  0  0
  8  6  1  0  0  0  0
  9 10  1  0  0  0  0
 10 11  1  0  0  0  0
 11 16  2  0  0  0  0
 12 14  1  1  0  0  0
 13 11  1  0  0  0  0
 13 17  1  0  0  0  0
 15 12  1  0  0  0  0
 15 19  1  0  0  0  0
 16 12  1  0  0  0  0
 17 15  2  0  0  0  0
 19 18  1  0  0  0  0
 20 21  1  0  0  0  0
 21 24  1  0  0  0  0
 23 24  1  0  0  0  0
 23 25  1  0  0  0  0
 24 25  1  0  0  0  0
 24 22  1  0  0  0  0
 26  3  1  0  0  0  0
 27 26  1  0  0  0  0
 28 27  1  0  0  0  0
M  END
>  <MODEL>
6

>  <REMARK>
 VINA RESULT:      -7.3      2.477      5.850
  Name = 
  9 active torsions:
  status: ('A' for Active; 'I' for Inactive)
    1  A    between atoms: N_2  and  C_22
    2  A    between atoms: O_4  and  C_13
    3  A    between atoms: O_4  and  C_15
    4  A    between atoms: O_9  and  C_17
    5  A    between atoms: C_10  and  C_25
    6  A    between atoms: N_12  and  C_22
    7  A    between atoms: C_13  and  C_24
    8  A    between atoms: C_14  and  C_17
    9  A    between atoms: C_19  and  O_28
                            x       y       z     vdW  Elec       q    Type
                         _______ _______ _______ _____ _____    ______ ____

>  <TORSDO>
F 9

$$$$
=
 OpenBabel10222418283D

 28 30  0  0  1  0  0  0  0  0999 V2000
  184.5130  178.7940  140.1450 S   0  0  0  0  0  0  0  0  0  0  0  0
  185.0690  178.6960  141.7340 C   0  0  0  0  0  0  0  0  0  0  0  0
  186.0480  178.5840  139.4940 C   0  0  0  0  0  0  0  0  0  0  0  0
  186.4090  178.5160  141.7830 N   0  0  0  0  0  0  0  0  0  0  0  0
  186.9580  178.4670  140.5410 C   0  0  0  0  0  0  0  0  0  0  0  0
  184.8190  178.7100  144.2250 N   0  0  0  0  0  2  0  0  0  0  0  0
  182.9810  178.9610  142.8080 O   0  0  0  0  0  0  0  0  0  0  0  0
  184.2250  178.7960  142.9280 C   0  0  0  0  0  0  0  0  0  0  0  0
  184.0520  178.8590  145.4540 C   0  0  0  0  0  2  0  0  0  0  0  0
  184.9410  178.8230  146.6080 N   0  0  0  0  0  2  0  0  0  0  0  0
  186.2310  178.2060  146.5840 C   0  0  0  0  0  0  0  0  0  0  0  0
  188.2960  177.6250  147.7410 C   0  0  2  0  0  3  0  0  0  0  0  0
  186.7190  177.4900  145.3560 C   0  0  0  0  0  2  0  0  0  0  0  0
  189.1010  178.3870  148.6810 N   0  0  0  0  0  1  0  0  0  0  0  0
  188.9710  177.5420  146.3800 C   0  0  0  0  0  0  0  0  0  0  0  0
  186.9720  178.2500  147.6500 N   0  0  0  0  0  0  0  0  0  0  0  0
  188.2160  177.5130  145.2800 C   0  0  0  0  0  3  0  0  0  0  0  0
  191.1310  176.3660  146.7310 C   0  0  0  0  0  1  0  0  0  0  0  0
  190.3580  177.4420  146.2200 O   0  0  0  0  0  0  0  0  0  0  0  0
  188.4200  178.2580  140.3420 C   0  0  0  0  0  2  0  0  0  0  0  0
  189.0620  178.2070  141.5870 O   0  0  0  0  0  0  0  0  0  0  0  0
  190.5420  176.8750  140.0390 C   0  0  0  0  0  1  0  0  0  0  0  0
  191.1990  177.3400  142.5360 C   0  0  0  0  0  2  0  0  0  0  0  0
  190.1620  177.3530  141.4300 C   0  0  0  0  0  0  0  0  0  0  0  0
  190.1540  176.2360  142.4470 C   0  0  0  0  0  2  0  0  0  0  0  0
  186.3690  178.6000  138.0400 C   0  0  0  0  0  2  0  0  0  0  0  0
  186.5770  177.2970  137.5900 O   0  0  0  0  0  0  0  0  0  0  0  0
  185.3540  176.8780  137.1890 N   0  0  0  0  0  1  0  0  0  0  0  0
  1  2  1  0  0  0  0
  2  4  2  0  0  0  0
  2  8  1  0  0  0  0
  3  1  1  0  0  0  0
  3  5  2  0  0  0  0
  5  4  1  0  0  0  0
  6  9  1  0  0  0  0
  7  8  2  0  0  0  0
  8  6  1  0  0  0  0
  9 10  1  0  0  0  0
 11 10  1  0  0  0  0
 11 16  2  0  0  0  0
 12 14  1  1  0  0  0
 13 11  1  0  0  0  0
 15 12  1  0  0  0  0
 16 12  1  0  0  0  0
 17 13  1  0  0  0  0
 17 15  2  0  0  0  0
 19 15  1  0  0  0  0
 19 18  1  0  0  0  0
 20  5  1  0  0  0  0
 20 21  1  0  0  0  0
 22 24  1  0  0  0  0
 24 21  1  0  0  0  0
 24 25  1  0  0  0  0
 24 23  1  0  0  0  0
 25 23  1  0  0  0  0
 26  3  1  0  0  0  0
 27 26  1  0  0  0  0
 28 27  1  0  0  0  0
M  END
>  <MODEL>
7

>  <REMARK>
 VINA RESULT:      -7.2      2.510      5.071
  Name = 
  9 active torsions:
  status: ('A' for Active; 'I' for Inactive)
    1  A    between atoms: N_2  and  C_22
    2  A    between atoms: O_4  and  C_13
    3  A    between atoms: O_4  and  C_15
    4  A    between atoms: O_9  and  C_17
    5  A    between atoms: C_10  and  C_25
    6  A    between atoms: N_12  and  C_22
    7  A    between atoms: C_13  and  C_24
    8  A    between atoms: C_14  and  C_17
    9  A    between atoms: C_19  and  O_28
                            x       y       z     vdW  Elec       q    Type
                         _______ _______ _______ _____ _____    ______ ____

>  <TORSDO>
F 9

$$$$
=
 OpenBabel10222418283D

 28 30  0  0  1  0  0  0  0  0999 V2000
  190.7490  177.0740  143.3860 S   0  0  0  0  0  0  0  0  0  0  0  0
  189.4400  177.2960  142.3460 C   0  0  0  0  0  0  0  0  0  0  0  0
  189.7910  177.1580  144.7640 C   0  0  0  0  0  0  0  0  0  0  0  0
  188.2820  177.4460  143.0290 N   0  0  0  0  0  0  0  0  0  0  0  0
  188.4750  177.3830  144.3720 C   0  0  0  0  0  0  0  0  0  0  0  0
  190.4250  176.4560  140.2030 N   0  0  0  0  0  2  0  0  0  0  0  0
  188.8030  178.1360  140.2310 O   0  0  0  0  0  0  0  0  0  0  0  0
  189.5240  177.3340  140.8840 C   0  0  0  0  0  0  0  0  0  0  0  0
  190.5200  176.3970  138.7520 C   0  0  0  0  0  2  0  0  0  0  0  0
  191.0700  175.1130  138.3360 N   0  0  0  0  0  2  0  0  0  0  0  0
  192.1770  174.9890  137.4390 C   0  0  0  0  0  0  0  0  0  0  0  0
  193.7340  173.5650  136.2170 C   0  0  2  0  0  3  0  0  0  0  0  0
  192.8000  176.2050  136.8120 C   0  0  0  0  0  2  0  0  0  0  0  0
  194.4170  172.3470  136.6200 N   0  0  0  0  0  1  0  0  0  0  0  0
  194.6940  174.7450  136.1740 C   0  0  0  0  0  0  0  0  0  0  0  0
  192.6260  173.8050  137.1480 N   0  0  0  0  0  0  0  0  0  0  0  0
  194.2430  175.9620  136.4870 C   0  0  0  0  0  3  0  0  0  0  0  0
  197.1320  174.8310  136.6390 C   0  0  0  0  0  1  0  0  0  0  0  0
  196.0280  174.6300  135.7690 O   0  0  0  0  0  0  0  0  0  0  0  0
  187.3400  177.5040  145.3310 C   0  0  0  0  0  2  0  0  0  0  0  0
  186.1430  177.6770  144.6230 O   0  0  0  0  0  0  0  0  0  0  0  0
  185.7590  179.0100  146.7300 C   0  0  0  0  0  1  0  0  0  0  0  0
  184.7730  179.7500  144.4140 C   0  0  0  0  0  2  0  0  0  0  0  0
  185.4400  178.6980  145.2770 C   0  0  0  0  0  0  0  0  0  0  0  0
  183.9550  178.6140  145.0130 C   0  0  0  0  0  2  0  0  0  0  0  0
  190.2980  177.0790  146.1630 C   0  0  0  0  0  2  0  0  0  0  0  0
  191.6920  177.1220  146.1600 O   0  0  0  0  0  0  0  0  0  0  0  0
  192.0560  176.3920  147.2400 N   0  0  0  0  0  1  0  0  0  0  0  0
  1  3  1  0  0  0  0
  2  4  2  0  0  0  0
  2  1  1  0  0  0  0
  3 26  1  0  0  0  0
  4  5  1  0  0  0  0
  5  3  2  0  0  0  0
  5 20  1  0  0  0  0
  6  8  1  0  0  0  0
  7  8  2  0  0  0  0
  8  2  1  0  0  0  0
  9  6  1  0  0  0  0
 10  9  1  0  0  0  0
 11 10  1  0  0  0  0
 12 14  1  1  0  0  0
 12 16  1  0  0  0  0
 13 11  1  0  0  0  0
 15 12  1  0  0  0  0
 15 17  2  0  0  0  0
 16 11  2  0  0  0  0
 17 13  1  0  0  0  0
 19 15  1  0  0  0  0
 19 18  1  0  0  0  0
 21 24  1  0  0  0  0
 21 20  1  0  0  0  0
 23 25  1  0  0  0  0
 23 24  1  0  0  0  0
 24 22  1  0  0  0  0
 25 24  1  0  0  0  0
 27 26  1  0  0  0  0
 27 28  1  0  0  0  0
M  END
>  <MODEL>
8

>  <REMARK>
 VINA RESULT:      -7.1      4.240      7.698
  Name = 
  9 active torsions:
  status: ('A' for Active; 'I' for Inactive)
    1  A    between atoms: N_2  and  C_22
    2  A    between atoms: O_4  and  C_13
    3  A    between atoms: O_4  and  C_15
    4  A    between atoms: O_9  and  C_17
    5  A    between atoms: C_10  and  C_25
    6  A    between atoms: N_12  and  C_22
    7  A    between atoms: C_13  and  C_24
    8  A    between atoms: C_14  and  C_17
    9  A    between atoms: C_19  and  O_28
                            x       y       z     vdW  Elec       q    Type
                         _______ _______ _______ _____ _____    ______ ____

>  <TORSDO>
F 9

$$$$
=
 OpenBabel10222418283D

 28 30  0  0  1  0  0  0  0  0999 V2000
  185.0740  178.5680  143.2050 S   0  0  0  0  0  0  0  0  0  0  0  0
  186.2590  178.3720  142.0230 C   0  0  0  0  0  0  0  0  0  0  0  0
  186.0760  178.0180  144.4370 C   0  0  0  0  0  0  0  0  0  0  0  0
  187.4080  177.8840  142.5450 N   0  0  0  0  0  0  0  0  0  0  0  0
  187.3050  177.6730  143.8830 C   0  0  0  0  0  0  0  0  0  0  0  0
  187.0310  178.1820  139.6490 N   0  0  0  0  0  2  0  0  0  0  0  0
  185.1090  179.3780  140.2200 O   0  0  0  0  0  0  0  0  0  0  0  0
  186.0870  178.6800  140.6000 C   0  0  0  0  0  0  0  0  0  0  0  0
  186.8930  178.3990  138.2160 C   0  0  0  0  0  2  0  0  0  0  0  0
  187.1950  177.1710  137.4910 N   0  0  0  0  0  2  0  0  0  0  0  0
  188.5170  176.6370  137.3720 C   0  0  0  0  0  0  0  0  0  0  0  0
  190.0060  174.9000  136.5310 C   0  0  2  0  0  3  0  0  0  0  0  0
  189.6970  177.3690  137.9480 C   0  0  0  0  0  2  0  0  0  0  0  0
  189.8310  173.4600  136.4520 N   0  0  0  0  0  1  0  0  0  0  0  0
  190.9800  175.2750  137.6390 C   0  0  0  0  0  0  0  0  0  0  0  0
  188.6920  175.5180  136.7360 N   0  0  0  0  0  0  0  0  0  0  0  0
  190.7960  176.4150  138.3080 C   0  0  0  0  0  3  0  0  0  0  0  0
  193.3090  174.5210  137.2200 C   0  0  0  0  0  1  0  0  0  0  0  0
  192.1000  174.5020  137.9650 O   0  0  0  0  0  0  0  0  0  0  0  0
  188.4510  177.1540  144.6820 C   0  0  0  0  0  2  0  0  0  0  0  0
  189.2230  178.2260  145.1490 O   0  0  0  0  0  0  0  0  0  0  0  0
  191.3090  178.9990  143.9600 C   0  0  0  0  0  1  0  0  0  0  0  0
  191.3050  176.9140  145.5510 C   0  0  0  0  0  2  0  0  0  0  0  0
  190.5440  177.9610  144.7620 C   0  0  0  0  0  0  0  0  0  0  0  0
  190.6940  176.5660  144.2010 C   0  0  0  0  0  2  0  0  0  0  0  0
  185.6710  177.8620  145.8620 C   0  0  0  0  0  2  0  0  0  0  0  0
  184.9770  178.9970  146.2800 O   0  0  0  0  0  0  0  0  0  0  0  0
  185.6820  179.4540  147.3410 N   0  0  0  0  0  1  0  0  0  0  0  0
  1  3  1  0  0  0  0
  2  4  2  0  0  0  0
  2  1  1  0  0  0  0
  3 26  1  0  0  0  0
  4  5  1  0  0  0  0
  5  3  2  0  0  0  0
  5 20  1  0  0  0  0
  6  8  1  0  0  0  0
  7  8  2  0  0  0  0
  8  2  1  0  0  0  0
  9  6  1  0  0  0  0
 10  9  1  0  0  0  0
 11 10  1  0  0  0  0
 11 13  1  0  0  0  0
 12 14  1  1  0  0  0
 12 16  1  0  0  0  0
 12 15  1  0  0  0  0
 13 17  1  0  0  0  0
 15 19  1  0  0  0  0
 15 17  2  0  0  0  0
 16 11  2  0  0  0  0
 18 19  1  0  0  0  0
 20 21  1  0  0  0  0
 22 24  1  0  0  0  0
 24 21  1  0  0  0  0
 24 23  1  0  0  0  0
 25 24  1  0  0  0  0
 25 23  1  0  0  0  0
 26 27  1  0  0  0  0
 27 28  1  0  0  0  0
M  END
>  <MODEL>
9

>  <REMARK>
 VINA RESULT:      -7.1      3.337      7.183
  Name = 
  9 active torsions:
  status: ('A' for Active; 'I' for Inactive)
    1  A    between atoms: N_2  and  C_22
    2  A    between atoms: O_4  and  C_13
    3  A    between atoms: O_4  and  C_15
    4  A    between atoms: O_9  and  C_17
    5  A    between atoms: C_10  and  C_25
    6  A    between atoms: N_12  and  C_22
    7  A    between atoms: C_13  and  C_24
    8  A    between atoms: C_14  and  C_17
    9  A    between atoms: C_19  and  O_28
                            x       y       z     vdW  Elec       q    Type
                         _______ _______ _______ _____ _____    ______ ____

>  <TORSDO>
F 9

$$$$
