=
 OpenBabel10222417073D

 25 26  0  0  1  0  0  0  0  0999 V2000
  188.2130  178.6200  141.1450 C   0  0  1  0  0  3  0  0  0  0  0  0
  188.4580  178.2550  139.7140 C   0  0  0  0  0  0  0  0  0  0  0  0
  188.3810  177.0470  139.3640 O   0  0  0  0  0  0  0  0  0  0  0  0
  189.0790  178.9260  137.4740 O   0  0  0  0  0  1  0  0  0  0  0  0
  188.8190  179.2540  138.7610 N   0  0  0  0  0  2  0  0  0  0  0  0
  187.0080  179.4430  141.2970 N   0  0  0  0  0  2  0  0  0  0  0  0
  184.9060  178.3070  141.9830 C   0  0  1  0  0  3  0  0  0  0  0  0
  183.5630  178.2730  141.3100 C   0  0  0  0  0  2  0  0  0  0  0  0
  185.0790  179.5100  139.9520 O   0  0  0  0  0  0  0  0  0  0  0  0
  183.7880  178.9570  139.9740 C   0  0  0  0  0  2  0  0  0  0  0  0
  185.8200  178.7200  140.8400 C   0  0  1  0  0  3  0  0  0  0  0  0
  184.8740  179.3420  143.1090 C   0  0  0  0  0  2  0  0  0  0  0  0
  184.4750  179.2830  145.4630 O   0  0  0  0  0  1  0  0  0  0  0  0
  183.9460  178.9010  144.2290 C   0  0  0  0  0  2  0  0  0  0  0  0
  188.1650  177.4360  141.9990 N   0  0  0  0  0  2  0  0  0  0  0  0
  190.0520  177.8750  145.1410 N   0  0  0  0  0  0  0  0  0  0  0  0
  189.7450  177.8490  143.8160 C   0  0  0  0  0  3  0  0  0  0  0  0
  189.1390  177.5360  146.0910 C   0  0  0  0  0  0  0  0  0  0  0  0
  188.4700  177.4630  143.3970 C   0  0  0  0  0  0  0  0  0  0  0  0
  187.8530  177.1390  145.7140 C   0  0  0  0  0  3  0  0  0  0  0  0
  187.5190  177.1060  144.3610 C   0  0  0  0  0  3  0  0  0  0  0  0
  189.5220  177.5500  147.5290 C   0  0  0  0  0  2  0  0  0  0  0  0
  191.0030  177.2540  147.6720 C   0  0  0  0  0  2  0  0  0  0  0  0
  191.2290  175.7590  147.6040 C   0  0  0  0  0  2  0  0  0  0  0  0
  192.3480  175.4620  146.6310 C   0  0  0  0  0  1  0  0  0  0  0  0
  1  2  1  6  0  0  0
  1  6  1  0  0  0  0
  1 15  1  0  0  0  0
  3  2  2  0  0  0  0
  4  5  1  0  0  0  0
  5  2  1  0  0  0  0
  7 12  1  1  0  0  0
  8  7  1  0  0  0  0
  9 10  1  0  0  0  0
  9 11  1  0  0  0  0
 10  8  1  0  0  0  0
 11  6  1  1  0  0  0
 11  7  1  0  0  0  0
 12 14  1  0  0  0  0
 14 13  1  0  0  0  0
 15 19  1  0  0  0  0
 16 18  1  0  0  0  0
 17 16  2  0  0  0  0
 18 22  1  0  0  0  0
 19 17  1  0  0  0  0
 19 21  2  0  0  0  0
 20 18  2  0  0  0  0
 21 20  1  0  0  0  0
 22 23  1  0  0  0  0
 24 23  1  0  0  0  0
 25 24  1  0  0  0  0
M  END
>  <MODEL>
1

>  <REMARK>
 VINA RESULT:      -6.8      0.000      0.000
  Name = 
  10 active torsions:
  status: ('A' for Active; 'I' for Inactive)
    1  A    between atoms: C_1  and  C_10
    2  A    between atoms: C_1  and  C_21
    3  A    between atoms: C_2  and  C_24
    4  A    between atoms: C_6  and  C_11
    5  A    between atoms: C_6  and  C_20
    6  A    between atoms: C_7  and  C_21
    7  A    between atoms: N_13  and  C_24
    8  A    between atoms: N_13  and  C_25
    9  A    between atoms: C_17  and  N_22
   10  A    between atoms: N_22  and  C_24
                            x       y       z     vdW  Elec       q    Type
                         _______ _______ _______ _____ _____    ______ ____

>  <TORSDO>
F 10

$$$$
=
 OpenBabel10222417073D

 25 26  0  0  1  0  0  0  0  0999 V2000
  186.9330  178.5900  141.4630 C   0  0  1  0  0  3  0  0  0  0  0  0
  186.1510  178.8790  140.2200 C   0  0  0  0  0  0  0  0  0  0  0  0
  186.5950  178.4880  139.1070 O   0  0  0  0  0  0  0  0  0  0  0  0
  184.2460  179.9270  139.1590 O   0  0  0  0  0  1  0  0  0  0  0  0
  184.9380  179.6290  140.2830 N   0  0  0  0  0  2  0  0  0  0  0  0
  186.1710  177.7620  142.4040 N   0  0  0  0  0  2  0  0  0  0  0  0
  185.0970  179.1420  144.1700 C   0  0  1  0  0  3  0  0  0  0  0  0
  185.0640  178.9490  145.6600 C   0  0  0  0  0  2  0  0  0  0  0  0
  186.3890  177.2280  144.6850 O   0  0  0  0  0  0  0  0  0  0  0  0
  186.0030  177.7840  145.9150 C   0  0  0  0  0  2  0  0  0  0  0  0
  186.2840  178.2810  143.7680 C   0  0  1  0  0  3  0  0  0  0  0  0
  183.7820  178.6400  143.5730 C   0  0  0  0  0  2  0  0  0  0  0  0
  181.4110  178.6360  143.8660 O   0  0  0  0  0  1  0  0  0  0  0  0
  182.6170  178.9080  144.5120 C   0  0  0  0  0  2  0  0  0  0  0  0
  188.2310  177.9930  141.1530 N   0  0  0  0  0  2  0  0  0  0  0  0
  190.2910  175.7380  143.2230 N   0  0  0  0  0  0  0  0  0  0  0  0
  189.4260  176.1810  142.2730 C   0  0  0  0  0  3  0  0  0  0  0  0
  190.9130  176.5970  144.0770 C   0  0  0  0  0  0  0  0  0  0  0  0
  189.1480  177.5450  142.1550 C   0  0  0  0  0  0  0  0  0  0  0  0
  190.6600  177.9690  143.9960 C   0  0  0  0  0  3  0  0  0  0  0  0
  189.7750  178.4420  143.0280 C   0  0  0  0  0  3  0  0  0  0  0  0
  191.8330  176.0700  145.1220 C   0  0  0  0  0  2  0  0  0  0  0  0
  191.7130  176.9020  146.3840 C   0  0  0  0  0  2  0  0  0  0  0  0
  190.8000  176.2010  147.3670 C   0  0  0  0  0  2  0  0  0  0  0  0
  189.4470  176.8780  147.3710 C   0  0  0  0  0  1  0  0  0  0  0  0
  1  2  1  6  0  0  0
  1  6  1  0  0  0  0
  2  5  1  0  0  0  0
  3  2  2  0  0  0  0
  4  5  1  0  0  0  0
  7 12  1  6  0  0  0
  7  8  1  0  0  0  0
  8 10  1  0  0  0  0
  9 10  1  0  0  0  0
 11  6  1  6  0  0  0
 11  7  1  0  0  0  0
 11  9  1  0  0  0  0
 12 14  1  0  0  0  0
 13 14  1  0  0  0  0
 15  1  1  0  0  0  0
 15 19  1  0  0  0  0
 16 18  1  0  0  0  0
 17 16  2  0  0  0  0
 18 22  1  0  0  0  0
 19 17  1  0  0  0  0
 19 21  2  0  0  0  0
 20 18  2  0  0  0  0
 21 20  1  0  0  0  0
 22 23  1  0  0  0  0
 23 24  1  0  0  0  0
 24 25  1  0  0  0  0
M  END
>  <MODEL>
2

>  <REMARK>
 VINA RESULT:      -6.8      1.857      3.209
  Name = 
  10 active torsions:
  status: ('A' for Active; 'I' for Inactive)
    1  A    between atoms: C_1  and  C_10
    2  A    between atoms: C_1  and  C_21
    3  A    between atoms: C_2  and  C_24
    4  A    between atoms: C_6  and  C_11
    5  A    between atoms: C_6  and  C_20
    6  A    between atoms: C_7  and  C_21
    7  A    between atoms: N_13  and  C_24
    8  A    between atoms: N_13  and  C_25
    9  A    between atoms: C_17  and  N_22
   10  A    between atoms: N_22  and  C_24
                            x       y       z     vdW  Elec       q    Type
                         _______ _______ _______ _____ _____    ______ ____

>  <TORSDO>
F 10

$$$$
=
 OpenBabel10222417073D

 25 26  0  0  1  0  0  0  0  0999 V2000
  188.4150  178.4540  140.9630 C   0  0  1  0  0  3  0  0  0  0  0  0
  188.5500  178.2060  139.4930 C   0  0  0  0  0  0  0  0  0  0  0  0
  188.4230  177.0330  139.0510 O   0  0  0  0  0  0  0  0  0  0  0  0
  189.0260  179.0530  137.2770 O   0  0  0  0  0  1  0  0  0  0  0  0
  188.8640  179.2760  138.6020 N   0  0  0  0  0  2  0  0  0  0  0  0
  187.2280  179.2580  141.2720 N   0  0  0  0  0  2  0  0  0  0  0  0
  185.0490  178.2680  141.9440 C   0  0  1  0  0  3  0  0  0  0  0  0
  183.7210  178.2900  141.2410 C   0  0  0  0  0  2  0  0  0  0  0  0
  185.3350  179.3920  139.8810 O   0  0  0  0  0  0  0  0  0  0  0  0
  184.0140  178.9160  139.8910 C   0  0  0  0  0  2  0  0  0  0  0  0
  186.0100  178.5910  140.8100 C   0  0  1  0  0  3  0  0  0  0  0  0
  185.0540  179.3390  143.0360 C   0  0  0  0  0  2  0  0  0  0  0  0
  183.3950  179.2650  144.7530 O   0  0  0  0  0  1  0  0  0  0  0  0
  184.6380  178.7550  144.3760 C   0  0  0  0  0  2  0  0  0  0  0  0
  188.4290  177.2040  141.7200 N   0  0  0  0  0  2  0  0  0  0  0  0
  190.4110  177.1020  144.8310 N   0  0  0  0  0  0  0  0  0  0  0  0
  190.0890  177.1740  143.5120 C   0  0  0  0  0  3  0  0  0  0  0  0
  189.4560  176.9940  145.7940 C   0  0  0  0  0  0  0  0  0  0  0  0
  188.7510  177.1320  143.1120 C   0  0  0  0  0  0  0  0  0  0  0  0
  188.1060  176.9440  145.4370 C   0  0  0  0  0  3  0  0  0  0  0  0
  187.7550  177.0160  144.0890 C   0  0  0  0  0  3  0  0  0  0  0  0
  189.8520  176.8880  147.2250 C   0  0  0  0  0  2  0  0  0  0  0  0
  189.4150  178.1320  147.9750 C   0  0  0  0  0  2  0  0  0  0  0  0
  188.1330  177.8440  148.7260 C   0  0  0  0  0  2  0  0  0  0  0  0
  187.0050  178.6570  148.1280 C   0  0  0  0  0  1  0  0  0  0  0  0
  1  2  1  6  0  0  0
  1  6  1  0  0  0  0
  1 15  1  0  0  0  0
  3  2  2  0  0  0  0
  4  5  1  0  0  0  0
  5  2  1  0  0  0  0
  7 12  1  1  0  0  0
  8  7  1  0  0  0  0
  9 10  1  0  0  0  0
  9 11  1  0  0  0  0
 10  8  1  0  0  0  0
 11  6  1  1  0  0  0
 11  7  1  0  0  0  0
 12 14  1  0  0  0  0
 14 13  1  0  0  0  0
 15 19  1  0  0  0  0
 16 18  1  0  0  0  0
 17 16  2  0  0  0  0
 18 22  1  0  0  0  0
 19 17  1  0  0  0  0
 19 21  2  0  0  0  0
 20 18  2  0  0  0  0
 21 20  1  0  0  0  0
 22 23  1  0  0  0  0
 23 24  1  0  0  0  0
 25 24  1  0  0  0  0
M  END
>  <MODEL>
3

>  <REMARK>
 VINA RESULT:      -6.8      0.890      1.623
  Name = 
  10 active torsions:
  status: ('A' for Active; 'I' for Inactive)
    1  A    between atoms: C_1  and  C_10
    2  A    between atoms: C_1  and  C_21
    3  A    between atoms: C_2  and  C_24
    4  A    between atoms: C_6  and  C_11
    5  A    between atoms: C_6  and  C_20
    6  A    between atoms: C_7  and  C_21
    7  A    between atoms: N_13  and  C_24
    8  A    between atoms: N_13  and  C_25
    9  A    between atoms: C_17  and  N_22
   10  A    between atoms: N_22  and  C_24
                            x       y       z     vdW  Elec       q    Type
                         _______ _______ _______ _____ _____    ______ ____

>  <TORSDO>
F 10

$$$$
=
 OpenBabel10222417073D

 25 26  0  0  1  0  0  0  0  0999 V2000
  189.0700  177.8040  146.4270 C   0  0  1  0  0  3  0  0  0  0  0  0
  190.0580  177.0030  147.2170 C   0  0  0  0  0  0  0  0  0  0  0  0
  189.6970  175.9110  147.7300 O   0  0  0  0  0  0  0  0  0  0  0  0
  192.2700  176.7890  148.1740 O   0  0  0  0  0  1  0  0  0  0  0  0
  191.3840  177.4890  147.4280 N   0  0  0  0  0  2  0  0  0  0  0  0
  189.6090  178.1950  145.1200 N   0  0  0  0  0  2  0  0  0  0  0  0
  189.3270  176.9940  142.9620 C   0  0  1  0  0  3  0  0  0  0  0  0
  190.3230  176.2090  142.1560 C   0  0  0  0  0  2  0  0  0  0  0  0
  191.3690  176.9660  144.1570 O   0  0  0  0  0  0  0  0  0  0  0  0
  191.5570  176.1400  143.0370 C   0  0  0  0  0  2  0  0  0  0  0  0
  189.9810  177.0170  144.3340 C   0  0  1  0  0  3  0  0  0  0  0  0
  189.1870  178.3920  142.3580 C   0  0  0  0  0  2  0  0  0  0  0  0
  188.5750  178.4170  140.0490 O   0  0  0  0  0  1  0  0  0  0  0  0
  188.0560  178.4380  141.3440 C   0  0  0  0  0  2  0  0  0  0  0  0
  187.7960  177.1020  146.2940 N   0  0  0  0  0  2  0  0  0  0  0  0
  184.6180  178.9770  146.2480 N   0  0  0  0  0  0  0  0  0  0  0  0
  185.7570  178.3860  146.6970 C   0  0  0  0  0  3  0  0  0  0  0  0
  184.2710  178.9490  144.9320 C   0  0  0  0  0  0  0  0  0  0  0  0
  186.6040  177.7230  145.8050 C   0  0  0  0  0  0  0  0  0  0  0  0
  185.0870  178.2940  144.0070 C   0  0  0  0  0  3  0  0  0  0  0  0
  186.2600  177.6810  144.4480 C   0  0  0  0  0  3  0  0  0  0  0  0
  183.0000  179.5840  144.4860 C   0  0  0  0  0  2  0  0  0  0  0  0
  182.4590  178.8570  143.2700 C   0  0  0  0  0  2  0  0  0  0  0  0
  180.9930  179.1910  143.0940 C   0  0  0  0  0  2  0  0  0  0  0  0
  180.1610  178.2890  143.9780 C   0  0  0  0  0  1  0  0  0  0  0  0
  1  6  1  6  0  0  0
  1  2  1  0  0  0  0
  2  5  1  0  0  0  0
  2  3  2  0  0  0  0
  5  4  1  0  0  0  0
  7 12  1  6  0  0  0
  7 11  1  0  0  0  0
  8  7  1  0  0  0  0
  8 10  1  0  0  0  0
  9 11  1  0  0  0  0
 10  9  1  0  0  0  0
 11  6  1  6  0  0  0
 13 14  1  0  0  0  0
 14 12  1  0  0  0  0
 15  1  1  0  0  0  0
 16 17  1  0  0  0  0
 18 16  2  0  0  0  0
 19 15  1  0  0  0  0
 19 17  2  0  0  0  0
 20 21  2  0  0  0  0
 20 18  1  0  0  0  0
 21 19  1  0  0  0  0
 22 18  1  0  0  0  0
 23 22  1  0  0  0  0
 24 23  1  0  0  0  0
 24 25  1  0  0  0  0
M  END
>  <MODEL>
4

>  <REMARK>
 VINA RESULT:      -6.5      3.212      7.254
  Name = 
  10 active torsions:
  status: ('A' for Active; 'I' for Inactive)
    1  A    between atoms: C_1  and  C_10
    2  A    between atoms: C_1  and  C_21
    3  A    between atoms: C_2  and  C_24
    4  A    between atoms: C_6  and  C_11
    5  A    between atoms: C_6  and  C_20
    6  A    between atoms: C_7  and  C_21
    7  A    between atoms: N_13  and  C_24
    8  A    between atoms: N_13  and  C_25
    9  A    between atoms: C_17  and  N_22
   10  A    between atoms: N_22  and  C_24
                            x       y       z     vdW  Elec       q    Type
                         _______ _______ _______ _____ _____    ______ ____

>  <TORSDO>
F 10

$$$$
=
 OpenBabel10222417073D

 25 26  0  0  1  0  0  0  0  0999 V2000
  188.1840  177.5440  140.8490 C   0  0  1  0  0  3  0  0  0  0  0  0
  188.9200  177.9140  139.5990 C   0  0  0  0  0  0  0  0  0  0  0  0
  190.0020  177.3280  139.3240 O   0  0  0  0  0  0  0  0  0  0  0  0
  189.1110  179.3160  137.6370 O   0  0  0  0  0  1  0  0  0  0  0  0
  188.4310  178.9490  138.7470 N   0  0  0  0  0  2  0  0  0  0  0  0
  189.0670  176.9070  141.8320 N   0  0  0  0  0  2  0  0  0  0  0  0
  189.3190  178.1950  143.9430 C   0  0  1  0  0  3  0  0  0  0  0  0
  190.5620  178.6120  144.6760 C   0  0  0  0  0  2  0  0  0  0  0  0
  191.1860  177.4830  142.6760 O   0  0  0  0  0  0  0  0  0  0  0  0
  191.7000  178.2270  143.7500 C   0  0  0  0  0  2  0  0  0  0  0  0
  189.8570  177.9070  142.5500 C   0  0  1  0  0  3  0  0  0  0  0  0
  188.7380  176.9490  144.6130 C   0  0  0  0  0  2  0  0  0  0  0  0
  187.1840  177.7740  146.2280 O   0  0  0  0  0  1  0  0  0  0  0  0
  188.4490  177.2040  146.0840 C   0  0  0  0  0  2  0  0  0  0  0  0
  187.4860  178.6940  141.4200 N   0  0  0  0  0  2  0  0  0  0  0  0
  183.8430  178.9400  140.8860 N   0  0  0  0  0  0  0  0  0  0  0  0
  185.1810  178.9200  140.6440 C   0  0  0  0  0  3  0  0  0  0  0  0
  183.3420  178.7480  142.1370 C   0  0  0  0  0  0  0  0  0  0  0  0
  186.0820  178.7060  141.6900 C   0  0  0  0  0  0  0  0  0  0  0  0
  184.2080  178.5340  143.2120 C   0  0  0  0  0  3  0  0  0  0  0  0
  185.5840  178.5110  142.9840 C   0  0  0  0  0  3  0  0  0  0  0  0
  181.8720  178.8050  142.3650 C   0  0  0  0  0  2  0  0  0  0  0  0
  181.5760  178.7300  143.8500 C   0  0  0  0  0  2  0  0  0  0  0  0
  180.1540  178.2560  144.0590 C   0  0  0  0  0  2  0  0  0  0  0  0
  179.2050  179.4240  143.9000 C   0  0  0  0  0  1  0  0  0  0  0  0
  1  2  1  6  0  0  0
  1 15  1  0  0  0  0
  1  6  1  0  0  0  0
  3  2  2  0  0  0  0
  4  5  1  0  0  0  0
  5  2  1  0  0  0  0
  7 12  1  1  0  0  0
  7  8  1  0  0  0  0
  9 10  1  0  0  0  0
 10  8  1  0  0  0  0
 11  6  1  1  0  0  0
 11  9  1  0  0  0  0
 11  7  1  0  0  0  0
 12 14  1  0  0  0  0
 14 13  1  0  0  0  0
 15 19  1  0  0  0  0
 16 18  1  0  0  0  0
 17 16  2  0  0  0  0
 17 19  1  0  0  0  0
 18 22  1  0  0  0  0
 18 20  2  0  0  0  0
 19 21  2  0  0  0  0
 21 20  1  0  0  0  0
 22 23  1  0  0  0  0
 23 24  1  0  0  0  0
 25 24  1  0  0  0  0
M  END
>  <MODEL>
5

>  <REMARK>
 VINA RESULT:      -6.5      2.084      6.379
  Name = 
  10 active torsions:
  status: ('A' for Active; 'I' for Inactive)
    1  A    between atoms: C_1  and  C_10
    2  A    between atoms: C_1  and  C_21
    3  A    between atoms: C_2  and  C_24
    4  A    between atoms: C_6  and  C_11
    5  A    between atoms: C_6  and  C_20
    6  A    between atoms: C_7  and  C_21
    7  A    between atoms: N_13  and  C_24
    8  A    between atoms: N_13  and  C_25
    9  A    between atoms: C_17  and  N_22
   10  A    between atoms: N_22  and  C_24
                            x       y       z     vdW  Elec       q    Type
                         _______ _______ _______ _____ _____    ______ ____

>  <TORSDO>
F 10

$$$$
=
 OpenBabel10222417073D

 25 26  0  0  1  0  0  0  0  0999 V2000
  188.6740  178.3010  140.4000 C   0  0  1  0  0  3  0  0  0  0  0  0
  188.7040  178.3740  138.9050 C   0  0  0  0  0  0  0  0  0  0  0  0
  189.7670  178.0820  138.2940 O   0  0  0  0  0  0  0  0  0  0  0  0
  187.5900  178.9180  136.8270 O   0  0  0  0  0  1  0  0  0  0  0  0
  187.5580  178.8130  138.1760 N   0  0  0  0  0  2  0  0  0  0  0  0
  187.4140  177.7310  140.8900 N   0  0  0  0  0  2  0  0  0  0  0  0
  185.4720  179.1530  141.5090 C   0  0  1  0  0  3  0  0  0  0  0  0
  184.7940  179.3360  142.8380 C   0  0  0  0  0  2  0  0  0  0  0  0
  186.6460  177.8660  143.1100 O   0  0  0  0  0  0  0  0  0  0  0  0
  185.6680  178.5800  143.8200 C   0  0  0  0  0  2  0  0  0  0  0  0
  186.8210  178.5840  141.9210 C   0  0  1  0  0  3  0  0  0  0  0  0
  184.6580  178.1730  140.6640 C   0  0  0  0  0  2  0  0  0  0  0  0
  184.5570  180.1210  139.2850 O   0  0  0  0  0  1  0  0  0  0  0  0
  183.9460  178.8910  139.5290 C   0  0  0  0  0  2  0  0  0  0  0  0
  189.8300  177.5780  140.9240 N   0  0  0  0  0  2  0  0  0  0  0  0
  190.5580  176.1130  144.2320 N   0  0  0  0  0  0  0  0  0  0  0  0
  190.2790  176.2220  142.9050 C   0  0  0  0  0  3  0  0  0  0  0  0
  190.7050  177.2110  145.0220 C   0  0  0  0  0  0  0  0  0  0  0  0
  190.1290  177.4810  142.3190 C   0  0  0  0  0  0  0  0  0  0  0  0
  190.5590  178.4900  144.4770 C   0  0  0  0  0  3  0  0  0  0  0  0
  190.2720  178.6220  143.1180 C   0  0  0  0  0  3  0  0  0  0  0  0
  190.9820  177.0490  146.4760 C   0  0  0  0  0  2  0  0  0  0  0  0
  189.6940  176.7530  147.2180 C   0  0  0  0  0  2  0  0  0  0  0  0
  189.3960  177.8800  148.1830 C   0  0  0  0  0  2  0  0  0  0  0  0
  187.9320  178.2500  148.0900 C   0  0  0  0  0  1  0  0  0  0  0  0
  1  2  1  6  0  0  0
  1  6  1  0  0  0  0
  1 15  1  0  0  0  0
  3  2  2  0  0  0  0
  4  5  1  0  0  0  0
  5  2  1  0  0  0  0
  7 12  1  6  0  0  0
  7 11  1  0  0  0  0
  7  8  1  0  0  0  0
  8 10  1  0  0  0  0
  9 10  1  0  0  0  0
 11  6  1  6  0  0  0
 11  9  1  0  0  0  0
 13 14  1  0  0  0  0
 14 12  1  0  0  0  0
 15 19  1  0  0  0  0
 16 18  1  0  0  0  0
 17 16  2  0  0  0  0
 18 22  1  0  0  0  0
 19 17  1  0  0  0  0
 19 21  2  0  0  0  0
 20 18  2  0  0  0  0
 21 20  1  0  0  0  0
 22 23  1  0  0  0  0
 23 24  1  0  0  0  0
 25 24  1  0  0  0  0
M  END
>  <MODEL>
6

>  <REMARK>
 VINA RESULT:      -6.4      1.644      2.892
  Name = 
  10 active torsions:
  status: ('A' for Active; 'I' for Inactive)
    1  A    between atoms: C_1  and  C_10
    2  A    between atoms: C_1  and  C_21
    3  A    between atoms: C_2  and  C_24
    4  A    between atoms: C_6  and  C_11
    5  A    between atoms: C_6  and  C_20
    6  A    between atoms: C_7  and  C_21
    7  A    between atoms: N_13  and  C_24
    8  A    between atoms: N_13  and  C_25
    9  A    between atoms: C_17  and  N_22
   10  A    between atoms: N_22  and  C_24
                            x       y       z     vdW  Elec       q    Type
                         _______ _______ _______ _____ _____    ______ ____

>  <TORSDO>
F 10

$$$$
=
 OpenBabel10222417073D

 25 26  0  0  1  0  0  0  0  0999 V2000
  190.1640  177.1630  144.4830 C   0  0  1  0  0  3  0  0  0  0  0  0
  191.2790  176.4740  145.2070 C   0  0  0  0  0  0  0  0  0  0  0  0
  192.0120  175.6630  144.5820 O   0  0  0  0  0  0  0  0  0  0  0  0
  192.4650  176.0480  147.2720 O   0  0  0  0  0  1  0  0  0  0  0  0
  191.4850  176.6960  146.6020 N   0  0  0  0  0  2  0  0  0  0  0  0
  189.2790  177.8820  145.4050 N   0  0  0  0  0  2  0  0  0  0  0  0
  187.0750  177.4740  146.4800 C   0  0  1  0  0  3  0  0  0  0  0  0
  185.6890  177.7770  145.9860 C   0  0  0  0  0  2  0  0  0  0  0  0
  187.2610  178.3940  144.3080 O   0  0  0  0  0  0  0  0  0  0  0  0
  185.8870  178.2480  144.5570 C   0  0  0  0  0  2  0  0  0  0  0  0
  187.8820  177.5020  145.1920 C   0  0  1  0  0  3  0  0  0  0  0  0
  187.5040  178.5660  147.4610 C   0  0  0  0  0  2  0  0  0  0  0  0
  189.4280  178.2610  148.8430 O   0  0  0  0  0  1  0  0  0  0  0  0
  188.0690  177.9630  148.7370 C   0  0  0  0  0  2  0  0  0  0  0  0
  190.6720  178.0430  143.4320 N   0  0  0  0  0  2  0  0  0  0  0  0
  191.3600  177.2710  139.8890 N   0  0  0  0  0  0  0  0  0  0  0  0
  191.5460  177.4950  141.2170 C   0  0  0  0  0  3  0  0  0  0  0  0
  190.1240  177.3330  139.3220 C   0  0  0  0  0  0  0  0  0  0  0  0
  190.4580  177.8040  142.0370 C   0  0  0  0  0  0  0  0  0  0  0  0
  189.0100  177.6440  140.1050 C   0  0  0  0  0  3  0  0  0  0  0  0
  189.1800  177.8770  141.4690 C   0  0  0  0  0  3  0  0  0  0  0  0
  189.9670  177.1090  137.8580 C   0  0  0  0  0  2  0  0  0  0  0  0
  189.1580  178.2370  137.2470 C   0  0  0  0  0  2  0  0  0  0  0  0
  187.9360  177.6680  136.5590 C   0  0  0  0  0  2  0  0  0  0  0  0
  186.6880  178.2070  137.2230 C   0  0  0  0  0  1  0  0  0  0  0  0
  1 15  1  6  0  0  0
  1  2  1  0  0  0  0
  1  6  1  0  0  0  0
  2  5  1  0  0  0  0
  3  2  2  0  0  0  0
  5  4  1  0  0  0  0
  7 12  1  1  0  0  0
  8  7  1  0  0  0  0
  9 10  1  0  0  0  0
  9 11  1  0  0  0  0
 10  8  1  0  0  0  0
 11  6  1  1  0  0  0
 11  7  1  0  0  0  0
 12 14  1  0  0  0  0
 14 13  1  0  0  0  0
 16 17  1  0  0  0  0
 17 19  2  0  0  0  0
 18 16  2  0  0  0  0
 18 20  1  0  0  0  0
 19 15  1  0  0  0  0
 20 21  2  0  0  0  0
 21 19  1  0  0  0  0
 22 18  1  0  0  0  0
 23 22  1  0  0  0  0
 24 25  1  0  0  0  0
 24 23  1  0  0  0  0
M  END
>  <MODEL>
7

>  <REMARK>
 VINA RESULT:      -6.3      3.265      6.821
  Name = 
  10 active torsions:
  status: ('A' for Active; 'I' for Inactive)
    1  A    between atoms: C_1  and  C_10
    2  A    between atoms: C_1  and  C_21
    3  A    between atoms: C_2  and  C_24
    4  A    between atoms: C_6  and  C_11
    5  A    between atoms: C_6  and  C_20
    6  A    between atoms: C_7  and  C_21
    7  A    between atoms: N_13  and  C_24
    8  A    between atoms: N_13  and  C_25
    9  A    between atoms: C_17  and  N_22
   10  A    between atoms: N_22  and  C_24
                            x       y       z     vdW  Elec       q    Type
                         _______ _______ _______ _____ _____    ______ ____

>  <TORSDO>
F 10

$$$$
=
 OpenBabel10222417073D

 25 26  0  0  1  0  0  0  0  0999 V2000
  189.7140  177.6700  142.7770 C   0  0  1  0  0  3  0  0  0  0  0  0
  190.7750  177.8550  143.8170 C   0  0  0  0  0  0  0  0  0  0  0  0
  191.6950  178.6920  143.6170 O   0  0  0  0  0  0  0  0  0  0  0  0
  191.7510  177.1970  145.9300 O   0  0  0  0  0  1  0  0  0  0  0  0
  190.7740  177.0630  145.0040 N   0  0  0  0  0  2  0  0  0  0  0  0
  190.2670  177.1480  141.5230 N   0  0  0  0  0  2  0  0  0  0  0  0
  190.5830  177.7410  139.1300 C   0  0  1  0  0  3  0  0  0  0  0  0
  189.5710  177.8710  138.0260 C   0  0  0  0  0  2  0  0  0  0  0  0
  188.4390  177.3600  140.0570 O   0  0  0  0  0  0  0  0  0  0  0  0
  188.2290  177.7310  138.7190 C   0  0  0  0  0  2  0  0  0  0  0  0
  189.7110  177.8570  140.3700 C   0  0  1  0  0  3  0  0  0  0  0  0
  191.2670  176.3780  139.0220 C   0  0  0  0  0  2  0  0  0  0  0  0
  193.3870  176.7610  137.9920 O   0  0  0  0  0  1  0  0  0  0  0  0
  192.0990  176.2820  137.7540 C   0  0  0  0  0  2  0  0  0  0  0  0
  188.6210  176.8350  143.2700 N   0  0  0  0  0  2  0  0  0  0  0  0
  185.2200  178.2670  143.3320 N   0  0  0  0  0  0  0  0  0  0  0  0
  186.3930  177.7540  142.8730 C   0  0  0  0  0  3  0  0  0  0  0  0
  184.9790  178.4120  144.6640 C   0  0  0  0  0  0  0  0  0  0  0  0
  187.3910  177.3670  143.7700 C   0  0  0  0  0  0  0  0  0  0  0  0
  185.9510  178.0410  145.5960 C   0  0  0  0  0  3  0  0  0  0  0  0
  187.1610  177.5130  145.1440 C   0  0  0  0  0  3  0  0  0  0  0  0
  183.6930  179.0030  145.1250 C   0  0  0  0  0  2  0  0  0  0  0  0
  182.8490  179.4030  143.9300 C   0  0  0  0  0  2  0  0  0  0  0  0
  181.5450  178.6350  143.9520 C   0  0  0  0  0  2  0  0  0  0  0  0
  180.5360  179.3300  143.0660 C   0  0  0  0  0  1  0  0  0  0  0  0
  1  6  1  6  0  0  0
  1 15  1  0  0  0  0
  1  2  1  0  0  0  0
  2  5  1  0  0  0  0
  3  2  2  0  0  0  0
  5  4  1  0  0  0  0
  7 12  1  1  0  0  0
  7 11  1  0  0  0  0
  8 10  1  0  0  0  0
  8  7  1  0  0  0  0
  9 11  1  0  0  0  0
 10  9  1  0  0  0  0
 11  6  1  1  0  0  0
 14 13  1  0  0  0  0
 14 12  1  0  0  0  0
 15 19  1  0  0  0  0
 16 18  1  0  0  0  0
 17 16  2  0  0  0  0
 17 19  1  0  0  0  0
 18 22  1  0  0  0  0
 18 20  2  0  0  0  0
 19 21  2  0  0  0  0
 21 20  1  0  0  0  0
 23 24  1  0  0  0  0
 23 22  1  0  0  0  0
 25 24  1  0  0  0  0
M  END
>  <MODEL>
8

>  <REMARK>
 VINA RESULT:      -6.2      2.926      6.777
  Name = 
  10 active torsions:
  status: ('A' for Active; 'I' for Inactive)
    1  A    between atoms: C_1  and  C_10
    2  A    between atoms: C_1  and  C_21
    3  A    between atoms: C_2  and  C_24
    4  A    between atoms: C_6  and  C_11
    5  A    between atoms: C_6  and  C_20
    6  A    between atoms: C_7  and  C_21
    7  A    between atoms: N_13  and  C_24
    8  A    between atoms: N_13  and  C_25
    9  A    between atoms: C_17  and  N_22
   10  A    between atoms: N_22  and  C_24
                            x       y       z     vdW  Elec       q    Type
                         _______ _______ _______ _____ _____    ______ ____

>  <TORSDO>
F 10

$$$$
=
 OpenBabel10222417073D

 25 26  0  0  1  0  0  0  0  0999 V2000
  188.3010  177.8500  140.6660 C   0  0  1  0  0  3  0  0  0  0  0  0
  188.7740  177.8030  139.2460 C   0  0  0  0  0  0  0  0  0  0  0  0
  189.1160  176.6980  138.7470 O   0  0  0  0  0  0  0  0  0  0  0  0
  189.3450  178.9700  137.2050 O   0  0  0  0  0  1  0  0  0  0  0  0
  188.8820  179.0000  138.4760 N   0  0  0  0  0  2  0  0  0  0  0  0
  189.3070  178.4430  141.5540 N   0  0  0  0  0  2  0  0  0  0  0  0
  191.1130  177.8680  143.1610 C   0  0  1  0  0  3  0  0  0  0  0  0
  191.5030  176.5360  143.7400 C   0  0  0  0  0  2  0  0  0  0  0  0
  189.7190  176.2180  142.1960 O   0  0  0  0  0  0  0  0  0  0  0  0
  190.6510  175.5300  142.9890 C   0  0  0  0  0  2  0  0  0  0  0  0
  190.3180  177.4560  141.9320 C   0  0  1  0  0  3  0  0  0  0  0  0
  190.2620  178.6250  144.1810 C   0  0  0  0  0  2  0  0  0  0  0  0
  188.9160  177.1380  145.4780 O   0  0  0  0  0  1  0  0  0  0  0  0
  190.1250  177.8350  145.4720 C   0  0  0  0  0  2  0  0  0  0  0  0
  187.0150  178.5340  140.7790 N   0  0  0  0  0  2  0  0  0  0  0  0
  185.9660  177.8840  144.2570 N   0  0  0  0  0  0  0  0  0  0  0  0
  186.6760  177.8460  143.0980 C   0  0  0  0  0  3  0  0  0  0  0  0
  184.8440  178.6450  144.3800 C   0  0  0  0  0  0  0  0  0  0  0  0
  186.2600  178.5910  141.9920 C   0  0  0  0  0  0  0  0  0  0  0  0
  184.3900  179.4030  143.2970 C   0  0  0  0  0  3  0  0  0  0  0  0
  185.1050  179.3750  142.1000 C   0  0  0  0  0  3  0  0  0  0  0  0
  184.0780  178.6390  145.6570 C   0  0  0  0  0  2  0  0  0  0  0  0
  184.9460  178.1000  146.7770 C   0  0  0  0  0  2  0  0  0  0  0  0
  186.0820  179.0640  147.0440 C   0  0  0  0  0  2  0  0  0  0  0  0
  187.1890  178.3470  147.7850 C   0  0  0  0  0  1  0  0  0  0  0  0
  1  2  1  6  0  0  0
  1 15  1  0  0  0  0
  1  6  1  0  0  0  0
  3  2  2  0  0  0  0
  4  5  1  0  0  0  0
  5  2  1  0  0  0  0
  7  8  1  0  0  0  0
  7 12  1  1  0  0  0
  9 10  1  0  0  0  0
 10  8  1  0  0  0  0
 11  6  1  1  0  0  0
 11  9  1  0  0  0  0
 11  7  1  0  0  0  0
 12 14  1  0  0  0  0
 14 13  1  0  0  0  0
 15 19  1  0  0  0  0
 16 18  1  0  0  0  0
 17 16  2  0  0  0  0
 18 22  1  0  0  0  0
 19 21  2  0  0  0  0
 19 17  1  0  0  0  0
 20 18  2  0  0  0  0
 21 20  1  0  0  0  0
 22 23  1  0  0  0  0
 23 24  1  0  0  0  0
 24 25  1  0  0  0  0
M  END
>  <MODEL>
9

>  <REMARK>
 VINA RESULT:      -6.2      2.280      4.871
  Name = 
  10 active torsions:
  status: ('A' for Active; 'I' for Inactive)
    1  A    between atoms: C_1  and  C_10
    2  A    between atoms: C_1  and  C_21
    3  A    between atoms: C_2  and  C_24
    4  A    between atoms: C_6  and  C_11
    5  A    between atoms: C_6  and  C_20
    6  A    between atoms: C_7  and  C_21
    7  A    between atoms: N_13  and  C_24
    8  A    between atoms: N_13  and  C_25
    9  A    between atoms: C_17  and  N_22
   10  A    between atoms: N_22  and  C_24
                            x       y       z     vdW  Elec       q    Type
                         _______ _______ _______ _____ _____    ______ ____

>  <TORSDO>
F 10

$$$$
