=
 OpenBabel10222416483D

 45 49  0  0  1  0  0  0  0  0999 V2000
  185.7030  177.9920  143.7190 O   0  0  0  0  0  0  0  0  0  0  0  0
  186.3190  179.1820  136.8760 O   0  0  0  0  0  1  0  0  0  0  0  0
  183.7870  179.4580  138.3900 C   0  0  0  0  0  2  0  0  0  0  0  0
  189.6690  176.1950  142.6590 C   0  0  0  0  0  0  0  0  0  0  0  0
  184.9760  177.6290  138.0630 N   0  0  1  0  0  0  0  0  0  0  0  0
  183.6080  178.9940  141.3560 C   0  0  0  0  0  0  0  0  0  0  0  0
  187.4050  177.4420  138.1190 C   0  0  0  0  0  3  0  0  0  0  0  0
  186.4400  178.1900  142.7160 C   0  0  0  0  0  0  0  0  0  0  0  0
  188.4430  178.2620  138.3390 C   0  0  0  0  0  3  0  0  0  0  0  0
  186.1040  178.9180  141.4800 C   0  0  0  0  0  0  0  0  0  0  0  0
  186.2100  177.8440  137.2860 C   0  0  2  0  0  3  0  0  0  0  0  0
  187.1310  178.9260  140.6930 N   0  0  0  0  0  0  0  0  0  0  0  0
  187.7900  177.7550  142.6370 N   0  0  0  0  0  0  0  0  0  0  0  0
  190.5350  175.2000  143.3450 C   0  0  0  0  0  1  0  0  0  0  0  0
  184.8150  179.2200  140.9260 N   0  0  0  0  0  0  0  0  0  0  0  0
  190.0200  176.6400  141.4410 C   0  0  0  0  0  3  0  0  0  0  0  0
  188.3610  176.5880  143.3040 C   0  0  0  0  0  2  0  0  0  0  0  0
  182.5120  179.3550  139.1770 C   0  0  0  0  0  0  0  0  0  0  0  0
  183.9510  178.3590  137.5330 O   0  0  0  0  0  0  0  0  0  0  0  0
  189.1960  177.6050  140.6870 C   0  0  0  0  0  0  0  0  0  0  0  0
  183.3600  178.4480  142.6520 N   0  0  0  0  0  1  0  0  0  0  0  0
  182.4890  179.1730  140.4720 N   0  0  0  0  0  0  0  0  0  0  0  0
  188.1590  178.1730  141.3270 C   0  0  0  0  0  0  0  0  0  0  0  0
  189.5830  177.8920  139.2500 C   0  0  0  0  0  2  0  0  0  0  0  0
  184.9310  175.6130  136.5800 C   0  0  0  0  0  2  0  0  0  0  0  0
  183.2050  175.9620  138.4640 C   0  0  0  0  0  0  0  0  0  0  0  0
  182.6590  174.7520  136.2920 C   0  0  1  0  0  3  0  0  0  0  0  0
  184.6200  176.2020  137.9740 C   0  0  2  0  0  3  0  0  0  0  0  0
  182.2030  175.1300  137.6980 C   0  0  0  0  0  2  0  0  0  0  0  0
  184.1250  174.3600  136.3000 C   0  0  0  0  0  2  0  0  0  0  0  0
  182.9160  176.2520  139.7300 C   0  0  0  0  0  2  0  0  0  0  0  0
  181.6410  173.3780  135.6710 S   0  0  0  0  0  0  0  0  0  0  0  0
  180.7150  173.2020  137.2310 C   0  0  0  0  0  2  0  0  0  0  0  0
  179.4150  171.2650  136.7490 O   0  0  0  0  0  1  0  0  0  0  0  0
  180.4770  171.7350  137.5240 C   0  0  0  0  0  2  0  0  0  0  0  0
  181.2170  179.5000  138.4450 C   0  0  0  0  0  2  0  0  0  0  0  0
  180.9380  184.2970  137.7250 F   0  0  0  0  0  0  0  0  0  0  0  0
  179.0790  183.0490  137.5140 F   0  0  0  0  0  0  0  0  0  0  0  0
  180.7470  182.8890  135.8130 C   0  0  1  0  0  3  0  0  0  0  0  0
  181.1050  181.9680  138.1470 C   0  0  0  0  0  2  0  0  0  0  0  0
  180.1770  183.9040  135.0680 F   0  0  0  0  0  0  0  0  0  0  0  0
  180.1710  180.4510  136.3620 C   0  0  0  0  0  2  0  0  0  0  0  0
  180.4490  183.0750  137.3060 C   0  0  0  0  0  0  0  0  0  0  0  0
  181.2610  180.6260  137.4180 C   0  0  2  0  0  3  0  0  0  0  0  0
  180.2790  181.5270  135.2780 C   0  0  0  0  0  2  0  0  0  0  0  0
  3 18  1  0  0  0  0
  4 17  1  0  0  0  0
  4 14  1  0  0  0  0
  5 19  1  6  0  0  0
  6 21  1  0  0  0  0
  7  9  2  0  0  0  0
  8  1  2  0  0  0  0
  9 24  1  0  0  0  0
 10  8  1  0  0  0  0
 11  2  1  1  0  0  0
 11  5  1  0  0  0  0
 11  7  1  0  0  0  0
 12 23  1  0  0  0  0
 12 10  2  0  0  0  0
 13  8  1  0  0  0  0
 13 17  1  0  0  0  0
 15  6  2  0  0  0  0
 15 10  1  0  0  0  0
 16  4  2  0  0  0  0
 18 22  2  0  0  0  0
 19  3  1  0  0  0  0
 20 23  2  0  0  0  0
 20 16  1  0  0  0  0
 22  6  1  0  0  0  0
 23 13  1  0  0  0  0
 24 20  1  0  0  0  0
 26 31  2  0  0  0  0
 27 32  1  1  0  0  0
 27 30  1  0  0  0  0
 27 29  1  0  0  0  0
 28 25  1  6  0  0  0
 28  5  1  0  0  0  0
 28 26  1  0  0  0  0
 29 26  1  0  0  0  0
 30 25  1  0  0  0  0
 32 33  1  0  0  0  0
 33 35  1  0  0  0  0
 34 35  1  0  0  0  0
 36 18  1  0  0  0  0
 39 41  1  6  0  0  0
 39 43  1  0  0  0  0
 42 44  1  0  0  0  0
 43 38  1  0  0  0  0
 43 37  1  0  0  0  0
 43 40  1  0  0  0  0
 44 40  1  0  0  0  0
 44 36  1  1  0  0  0
 45 39  1  0  0  0  0
 45 42  1  0  0  0  0
M  END
>  <MODEL>
1

>  <REMARK>
 VINA RESULT:      -8.2      0.000      0.000
  Name = 
  6 active torsions:
  status: ('A' for Active; 'I' for Inactive)
    1  A    between atoms: C_1  and  C_34
    2  A    between atoms: C_1  and  C_36
    3  A    between atoms: N_8  and  C_16
    4  A    between atoms: C_14  and  S_23
    5  A    between atoms: S_23  and  C_39
    6  A    between atoms: C_39  and  C_40
                            x       y       z     vdW  Elec       q    Type
                         _______ _______ _______ _____ _____    ______ ____

>  <TORSDO>
F 6

$$$$
=
 OpenBabel10222416483D

 45 49  0  0  1  0  0  0  0  0999 V2000
  185.2410  178.3480  143.2960 O   0  0  0  0  0  0  0  0  0  0  0  0
  185.8000  178.6060  136.3510 O   0  0  0  0  0  1  0  0  0  0  0  0
  183.2630  178.9980  137.8300 C   0  0  0  0  0  2  0  0  0  0  0  0
  189.2670  176.5650  142.4670 C   0  0  0  0  0  0  0  0  0  0  0  0
  184.5160  177.1850  137.7500 N   0  0  1  0  0  0  0  0  0  0  0  0
  183.1060  178.9410  140.8330 C   0  0  0  0  0  0  0  0  0  0  0  0
  186.9510  177.0940  137.8140 C   0  0  0  0  0  3  0  0  0  0  0  0
  185.9690  178.4330  142.2710 C   0  0  0  0  0  0  0  0  0  0  0  0
  187.9580  177.9720  137.9120 C   0  0  0  0  0  3  0  0  0  0  0  0
  185.6040  178.9710  140.9490 C   0  0  0  0  0  0  0  0  0  0  0  0
  185.7400  177.3340  136.9420 C   0  0  2  0  0  3  0  0  0  0  0  0
  186.6280  178.9070  140.1610 N   0  0  0  0  0  0  0  0  0  0  0  0
  187.3330  178.0390  142.2430 N   0  0  0  0  0  0  0  0  0  0  0  0
  190.1690  175.7040  143.2770 C   0  0  0  0  0  1  0  0  0  0  0  0
  184.3040  179.1480  140.3680 N   0  0  0  0  0  0  0  0  0  0  0  0
  189.6000  176.8490  141.1960 C   0  0  0  0  0  3  0  0  0  0  0  0
  187.9470  176.9960  143.0600 C   0  0  0  0  0  2  0  0  0  0  0  0
  181.9930  178.9600  138.6330 C   0  0  0  0  0  0  0  0  0  0  0  0
  183.4650  177.7980  137.1320 O   0  0  0  0  0  0  0  0  0  0  0  0
  188.7390  177.6710  140.3220 C   0  0  0  0  0  0  0  0  0  0  0  0
  182.8810  178.5700  142.1930 N   0  0  0  0  0  1  0  0  0  0  0  0
  181.9800  178.9570  139.9400 N   0  0  0  0  0  0  0  0  0  0  0  0
  187.6840  178.2860  140.8860 C   0  0  0  0  0  0  0  0  0  0  0  0
  189.1130  177.7710  138.8570 C   0  0  0  0  0  2  0  0  0  0  0  0
  184.4560  175.0000  136.5310 C   0  0  0  0  0  2  0  0  0  0  0  0
  182.8410  175.5260  138.4710 C   0  0  0  0  0  0  0  0  0  0  0  0
  182.2060  174.0390  136.5050 C   0  0  1  0  0  3  0  0  0  0  0  0
  184.2110  175.7480  137.8600 C   0  0  2  0  0  3  0  0  0  0  0  0
  181.8260  174.5750  137.8820 C   0  0  0  0  0  2  0  0  0  0  0  0
  183.6840  173.6970  136.4610 C   0  0  0  0  0  2  0  0  0  0  0  0
  182.6220  175.9630  139.7080 C   0  0  0  0  0  2  0  0  0  0  0  0
  181.2050  172.5670  136.1270 S   0  0  0  0  0  0  0  0  0  0  0  0
  182.5310  171.7670  135.1660 C   0  0  0  0  0  2  0  0  0  0  0  0
  183.5740  169.9630  136.3190 O   0  0  0  0  0  1  0  0  0  0  0  0
  182.5360  170.2770  135.4400 C   0  0  0  0  0  2  0  0  0  0  0  0
  180.6930  178.9560  137.8970 C   0  0  0  0  0  2  0  0  0  0  0  0
  180.9880  183.4380  136.0410 F   0  0  0  0  0  0  0  0  0  0  0  0
  181.9090  183.0230  138.0500 F   0  0  0  0  0  0  0  0  0  0  0  0
  179.5290  183.1130  137.8960 C   0  0  1  0  0  3  0  0  0  0  0  0
  180.8770  181.2220  136.8820 C   0  0  0  0  0  2  0  0  0  0  0  0
  179.4980  184.4690  138.1650 F   0  0  0  0  0  0  0  0  0  0  0  0
  179.9920  180.9730  139.2320 C   0  0  0  0  0  2  0  0  0  0  0  0
  180.8460  182.7220  137.2150 C   0  0  0  0  0  0  0  0  0  0  0  0
  180.0610  180.3430  137.8420 C   0  0  2  0  0  3  0  0  0  0  0  0
  179.2690  182.3220  139.1870 C   0  0  0  0  0  2  0  0  0  0  0  0
  3 18  1  0  0  0  0
  4 17  1  0  0  0  0
  4 14  1  0  0  0  0
  5 19  1  6  0  0  0
  5 28  1  0  0  0  0
  6 21  1  0  0  0  0
  7  9  2  0  0  0  0
  8  1  2  0  0  0  0
  9 24  1  0  0  0  0
 10  8  1  0  0  0  0
 11  2  1  1  0  0  0
 11  5  1  0  0  0  0
 11  7  1  0  0  0  0
 12 23  1  0  0  0  0
 12 10  2  0  0  0  0
 13  8  1  0  0  0  0
 13 17  1  0  0  0  0
 15  6  2  0  0  0  0
 15 10  1  0  0  0  0
 16  4  2  0  0  0  0
 18 22  2  0  0  0  0
 19  3  1  0  0  0  0
 20 23  2  0  0  0  0
 20 16  1  0  0  0  0
 22  6  1  0  0  0  0
 23 13  1  0  0  0  0
 24 20  1  0  0  0  0
 26 31  2  0  0  0  0
 27 32  1  1  0  0  0
 27 29  1  0  0  0  0
 28 25  1  6  0  0  0
 28 26  1  0  0  0  0
 29 26  1  0  0  0  0
 30 27  1  0  0  0  0
 30 25  1  0  0  0  0
 33 35  1  0  0  0  0
 33 32  1  0  0  0  0
 35 34  1  0  0  0  0
 36 18  1  0  0  0  0
 37 43  1  0  0  0  0
 39 41  1  1  0  0  0
 39 45  1  0  0  0  0
 40 43  1  0  0  0  0
 40 44  1  0  0  0  0
 43 39  1  0  0  0  0
 43 38  1  0  0  0  0
 44 36  1  1  0  0  0
 44 42  1  0  0  0  0
 45 42  1  0  0  0  0
M  END
>  <MODEL>
2

>  <REMARK>
 VINA RESULT:      -7.3      1.299      1.599
  Name = 
  6 active torsions:
  status: ('A' for Active; 'I' for Inactive)
    1  A    between atoms: C_1  and  C_34
    2  A    between atoms: C_1  and  C_36
    3  A    between atoms: N_8  and  C_16
    4  A    between atoms: C_14  and  S_23
    5  A    between atoms: S_23  and  C_39
    6  A    between atoms: C_39  and  C_40
                            x       y       z     vdW  Elec       q    Type
                         _______ _______ _______ _____ _____    ______ ____

>  <TORSDO>
F 6

$$$$
=
 OpenBabel10222416483D

 45 49  0  0  1  0  0  0  0  0999 V2000
  190.3800  176.9790  140.4870 O   0  0  0  0  0  0  0  0  0  0  0  0
  186.3130  178.2820  134.9760 O   0  0  0  0  0  1  0  0  0  0  0  0
  185.5450  178.8500  137.7800 C   0  0  0  0  0  2  0  0  0  0  0  0
  192.3140  174.6970  137.1500 C   0  0  0  0  0  0  0  0  0  0  0  0
  185.9640  176.8890  136.8630 N   0  0  1  0  0  0  0  0  0  0  0  0
  187.3770  178.3260  140.1060 C   0  0  0  0  0  0  0  0  0  0  0  0
  187.7370  176.3740  135.2720 C   0  0  0  0  0  3  0  0  0  0  0  0
  190.2550  177.1060  139.2390 C   0  0  0  0  0  0  0  0  0  0  0  0
  188.7350  177.0400  134.6730 C   0  0  0  0  0  3  0  0  0  0  0  0
  189.2580  177.9100  138.5110 C   0  0  0  0  0  0  0  0  0  0  0  0
  186.3540  176.9590  135.4430 C   0  0  2  0  0  3  0  0  0  0  0  0
  189.4660  177.8030  137.2390 N   0  0  0  0  0  0  0  0  0  0  0  0
  191.1250  176.4960  138.2980 N   0  0  0  0  0  0  0  0  0  0  0  0
  193.2880  173.5730  137.1360 C   0  0  0  0  0  1  0  0  0  0  0  0
  187.9860  178.4000  138.9580 N   0  0  0  0  0  0  0  0  0  0  0  0
  191.7920  175.1260  135.9890 C   0  0  0  0  0  3  0  0  0  0  0  0
  191.8530  175.2420  138.4810 C   0  0  0  0  0  2  0  0  0  0  0  0
  185.1460  178.8970  139.2280 C   0  0  0  0  0  0  0  0  0  0  0  0
  184.9500  177.7660  137.1180 O   0  0  0  0  0  0  0  0  0  0  0  0
  190.7980  176.2160  135.9280 C   0  0  0  0  0  0  0  0  0  0  0  0
  188.0150  177.7790  141.2610 N   0  0  0  0  0  1  0  0  0  0  0  0
  185.9880  178.6810  140.2040 N   0  0  0  0  0  0  0  0  0  0  0  0
  190.5520  176.9000  137.0590 C   0  0  0  0  0  0  0  0  0  0  0  0
  190.1340  176.4920  134.5940 C   0  0  0  0  0  2  0  0  0  0  0  0
  186.6320  174.5150  137.2900 C   0  0  0  0  0  2  0  0  0  0  0  0
  184.4030  175.1210  136.1460 C   0  0  0  0  0  0  0  0  0  0  0  0
  185.6990  172.9960  135.6150 C   0  0  1  0  0  3  0  0  0  0  0  0
  185.4750  175.5270  137.1390 C   0  0  2  0  0  3  0  0  0  0  0  0
  184.4090  173.7910  135.4320 C   0  0  0  0  0  2  0  0  0  0  0  0
  186.1760  173.0890  137.0530 C   0  0  0  0  0  2  0  0  0  0  0  0
  183.2770  175.8290  136.1070 C   0  0  0  0  0  2  0  0  0  0  0  0
  185.4140  171.2590  135.1560 S   0  0  0  0  0  0  0  0  0  0  0  0
  183.9670  171.0820  136.2500 C   0  0  0  0  0  2  0  0  0  0  0  0
  181.6150  170.8120  135.9930 O   0  0  0  0  0  1  0  0  0  0  0  0
  182.8490  170.3730  135.5130 C   0  0  0  0  0  2  0  0  0  0  0  0
  183.7290  179.2370  139.5590 C   0  0  0  0  0  2  0  0  0  0  0  0
  179.0790  177.8530  139.2910 F   0  0  0  0  0  0  0  0  0  0  0  0
  180.2680  177.3430  141.1300 F   0  0  0  0  0  0  0  0  0  0  0  0
  180.7400  176.1550  139.1140 C   0  0  1  0  0  3  0  0  0  0  0  0
  181.3270  178.6030  139.4090 C   0  0  0  0  0  2  0  0  0  0  0  0
  179.8220  175.1640  139.4060 F   0  0  0  0  0  0  0  0  0  0  0  0
  183.0480  176.8520  139.9890 C   0  0  0  0  0  2  0  0  0  0  0  0
  180.3280  177.4860  139.7530 C   0  0  0  0  0  0  0  0  0  0  0  0
  182.7660  178.1170  139.1800 C   0  0  2  0  0  3  0  0  0  0  0  0
  182.1450  175.7000  139.5380 C   0  0  0  0  0  2  0  0  0  0  0  0
  3 18  1  0  0  0  0
  4 17  1  0  0  0  0
  5 19  1  6  0  0  0
  5 28  1  0  0  0  0
  6 22  1  0  0  0  0
  6 21  1  0  0  0  0
  7 11  1  0  0  0  0
  8  1  2  0  0  0  0
  9  7  2  0  0  0  0
 10 15  1  0  0  0  0
 10  8  1  0  0  0  0
 11  2  1  1  0  0  0
 11  5  1  0  0  0  0
 12 10  2  0  0  0  0
 13 17  1  0  0  0  0
 13  8  1  0  0  0  0
 14  4  1  0  0  0  0
 15  6  2  0  0  0  0
 16  4  2  0  0  0  0
 18 36  1  0  0  0  0
 18 22  2  0  0  0  0
 19  3  1  0  0  0  0
 20 16  1  0  0  0  0
 20 23  2  0  0  0  0
 23 12  1  0  0  0  0
 23 13  1  0  0  0  0
 24  9  1  0  0  0  0
 24 20  1  0  0  0  0
 26 28  1  0  0  0  0
 27 32  1  1  0  0  0
 27 30  1  0  0  0  0
 28 25  1  6  0  0  0
 29 27  1  0  0  0  0
 29 26  1  0  0  0  0
 30 25  1  0  0  0  0
 31 26  2  0  0  0  0
 32 33  1  0  0  0  0
 35 34  1  0  0  0  0
 35 33  1  0  0  0  0
 37 43  1  0  0  0  0
 39 41  1  1  0  0  0
 39 45  1  0  0  0  0
 39 43  1  0  0  0  0
 40 43  1  0  0  0  0
 43 38  1  0  0  0  0
 44 40  1  0  0  0  0
 44 36  1  1  0  0  0
 44 42  1  0  0  0  0
 45 42  1  0  0  0  0
M  END
>  <MODEL>
3

>  <REMARK>
 VINA RESULT:      -6.6      3.320      4.715
  Name = 
  6 active torsions:
  status: ('A' for Active; 'I' for Inactive)
    1  A    between atoms: C_1  and  C_34
    2  A    between atoms: C_1  and  C_36
    3  A    between atoms: N_8  and  C_16
    4  A    between atoms: C_14  and  S_23
    5  A    between atoms: S_23  and  C_39
    6  A    between atoms: C_39  and  C_40
                            x       y       z     vdW  Elec       q    Type
                         _______ _______ _______ _____ _____    ______ ____

>  <TORSDO>
F 6

$$$$
=
 OpenBabel10222416483D

 45 49  0  0  1  0  0  0  0  0999 V2000
  190.5670  177.2520  140.4400 O   0  0  0  0  0  0  0  0  0  0  0  0
  186.1300  177.9780  135.1110 O   0  0  0  0  0  1  0  0  0  0  0  0
  185.4630  178.6090  137.9280 C   0  0  0  0  0  2  0  0  0  0  0  0
  192.5080  174.9850  137.0980 C   0  0  0  0  0  0  0  0  0  0  0  0
  185.9940  176.6480  137.0700 N   0  0  1  0  0  0  0  0  0  0  0  0
  187.4480  178.3370  140.1690 C   0  0  0  0  0  0  0  0  0  0  0  0
  187.7190  176.2060  135.4060 C   0  0  0  0  0  3  0  0  0  0  0  0
  190.3680  177.3130  139.1970 C   0  0  0  0  0  0  0  0  0  0  0  0
  188.6270  176.9220  134.7270 C   0  0  0  0  0  3  0  0  0  0  0  0
  189.2730  178.0020  138.4930 C   0  0  0  0  0  0  0  0  0  0  0  0
  186.3030  176.6860  135.6290 C   0  0  2  0  0  3  0  0  0  0  0  0
  189.4240  177.8550  137.2160 N   0  0  0  0  0  0  0  0  0  0  0  0
  191.2360  176.7330  138.2350 N   0  0  0  0  0  0  0  0  0  0  0  0
  193.5690  173.9430  137.0760 C   0  0  0  0  0  1  0  0  0  0  0  0
  187.9890  178.4080  138.9880 N   0  0  0  0  0  0  0  0  0  0  0  0
  191.8940  175.3190  135.9510 C   0  0  0  0  0  3  0  0  0  0  0  0
  192.0730  175.5510  138.4290 C   0  0  0  0  0  2  0  0  0  0  0  0
  185.1350  178.6890  139.3920 C   0  0  0  0  0  0  0  0  0  0  0  0
  184.9250  177.4520  137.3440 O   0  0  0  0  0  0  0  0  0  0  0  0
  190.8120  176.3220  135.9000 C   0  0  0  0  0  0  0  0  0  0  0  0
  188.1870  177.8950  141.3090 N   0  0  0  0  0  1  0  0  0  0  0  0
  186.0420  178.5840  140.3280 N   0  0  0  0  0  0  0  0  0  0  0  0
  190.5690  177.0340  137.0140 C   0  0  0  0  0  0  0  0  0  0  0  0
  190.0610  176.4840  134.5940 C   0  0  0  0  0  2  0  0  0  0  0  0
  186.8070  174.2850  137.2100 C   0  0  0  0  0  2  0  0  0  0  0  0
  184.3320  174.8530  136.7650 C   0  0  0  0  0  0  0  0  0  0  0  0
  185.4690  172.7830  135.8180 C   0  0  1  0  0  3  0  0  0  0  0  0
  185.6330  175.2650  137.4260 C   0  0  2  0  0  3  0  0  0  0  0  0
  184.1640  173.5430  136.0340 C   0  0  0  0  0  2  0  0  0  0  0  0
  186.3330  172.8530  137.0630 C   0  0  0  0  0  2  0  0  0  0  0  0
  183.2260  175.5270  137.0710 C   0  0  0  0  0  2  0  0  0  0  0  0
  185.1030  171.0510  135.4000 S   0  0  0  0  0  0  0  0  0  0  0  0
  183.5890  171.0010  136.4120 C   0  0  0  0  0  2  0  0  0  0  0  0
  181.9820  171.1830  134.6640 O   0  0  0  0  0  1  0  0  0  0  0  0
  182.4770  170.3190  135.6410 C   0  0  0  0  0  2  0  0  0  0  0  0
  183.7140  178.9290  139.7860 C   0  0  0  0  0  2  0  0  0  0  0  0
  181.5840  182.7770  137.7190 F   0  0  0  0  0  0  0  0  0  0  0  0
  180.3880  181.4830  139.1160 F   0  0  0  0  0  0  0  0  0  0  0  0
  180.9250  180.6180  136.9570 C   0  0  1  0  0  3  0  0  0  0  0  0
  182.6800  180.9450  138.7560 C   0  0  0  0  0  2  0  0  0  0  0  0
  179.7660  181.1210  136.3960 F   0  0  0  0  0  0  0  0  0  0  0  0
  181.5220  178.7120  138.5660 C   0  0  0  0  0  2  0  0  0  0  0  0
  181.3750  181.4790  138.1440 C   0  0  0  0  0  0  0  0  0  0  0  0
  182.8710  179.4280  138.6170 C   0  0  2  0  0  3  0  0  0  0  0  0
  180.7180  179.1430  137.3360 C   0  0  0  0  0  2  0  0  0  0  0  0
  3 18  1  0  0  0  0
  4 17  1  0  0  0  0
  5 19  1  6  0  0  0
  5 28  1  0  0  0  0
  6 22  1  0  0  0  0
  6 21  1  0  0  0  0
  7 11  1  0  0  0  0
  8  1  2  0  0  0  0
  9  7  2  0  0  0  0
 10 15  1  0  0  0  0
 10  8  1  0  0  0  0
 11  2  1  1  0  0  0
 11  5  1  0  0  0  0
 12 10  2  0  0  0  0
 13 17  1  0  0  0  0
 13  8  1  0  0  0  0
 14  4  1  0  0  0  0
 15  6  2  0  0  0  0
 16  4  2  0  0  0  0
 18 36  1  0  0  0  0
 18 22  2  0  0  0  0
 19  3  1  0  0  0  0
 20 16  1  0  0  0  0
 20 23  2  0  0  0  0
 23 12  1  0  0  0  0
 23 13  1  0  0  0  0
 24  9  1  0  0  0  0
 24 20  1  0  0  0  0
 26 31  2  0  0  0  0
 26 28  1  0  0  0  0
 27 32  1  1  0  0  0
 27 29  1  0  0  0  0
 27 30  1  0  0  0  0
 28 25  1  6  0  0  0
 29 26  1  0  0  0  0
 30 25  1  0  0  0  0
 32 33  1  0  0  0  0
 34 35  1  0  0  0  0
 35 33  1  0  0  0  0
 37 43  1  0  0  0  0
 39 41  1  1  0  0  0
 39 45  1  0  0  0  0
 39 43  1  0  0  0  0
 42 44  1  0  0  0  0
 43 40  1  0  0  0  0
 43 38  1  0  0  0  0
 44 40  1  0  0  0  0
 44 36  1  1  0  0  0
 45 42  1  0  0  0  0
M  END
>  <MODEL>
4

>  <REMARK>
 VINA RESULT:      -6.6      2.831      3.836
  Name = 
  6 active torsions:
  status: ('A' for Active; 'I' for Inactive)
    1  A    between atoms: C_1  and  C_34
    2  A    between atoms: C_1  and  C_36
    3  A    between atoms: N_8  and  C_16
    4  A    between atoms: C_14  and  S_23
    5  A    between atoms: S_23  and  C_39
    6  A    between atoms: C_39  and  C_40
                            x       y       z     vdW  Elec       q    Type
                         _______ _______ _______ _____ _____    ______ ____

>  <TORSDO>
F 6

$$$$
=
 OpenBabel10222416483D

 45 49  0  0  1  0  0  0  0  0999 V2000
  184.6160  171.3990  136.4550 O   0  0  0  0  0  0  0  0  0  0  0  0
  183.3390  178.1290  135.1600 O   0  0  0  0  0  1  0  0  0  0  0  0
  185.9120  177.0960  136.2020 C   0  0  0  0  0  2  0  0  0  0  0  0
  180.1630  171.5860  135.9880 C   0  0  0  0  0  0  0  0  0  0  0  0
  183.9330  177.0250  137.1730 N   0  0  1  0  0  0  0  0  0  0  0  0
  186.4180  174.1700  136.6740 C   0  0  0  0  0  0  0  0  0  0  0  0
  181.8000  176.5460  136.0960 C   0  0  0  0  0  3  0  0  0  0  0  0
  183.8940  172.2800  135.9150 C   0  0  0  0  0  0  0  0  0  0  0  0
  181.3760  176.2440  134.8610 C   0  0  0  0  0  3  0  0  0  0  0  0
  184.2970  173.6240  135.4670 C   0  0  0  0  0  0  0  0  0  0  0  0
  182.8450  177.6040  136.3640 C   0  0  2  0  0  3  0  0  0  0  0  0
  183.2790  174.2250  134.9430 N   0  0  0  0  0  0  0  0  0  0  0  0
  182.5230  172.0860  135.6030 N   0  0  0  0  0  0  0  0  0  0  0  0
  179.0720  170.6640  136.4000 C   0  0  0  0  0  1  0  0  0  0  0  0
  185.4260  174.4140  135.8670 N   0  0  0  0  0  0  0  0  0  0  0  0
  179.8480  172.7690  135.4350 C   0  0  0  0  0  3  0  0  0  0  0  0
  181.5910  171.2140  136.3130 C   0  0  0  0  0  2  0  0  0  0  0  0
  187.0940  176.5270  136.9340 C   0  0  0  0  0  0  0  0  0  0  0  0
  185.0580  177.7930  137.0690 O   0  0  0  0  0  0  0  0  0  0  0  0
  180.8760  173.7470  135.0290 C   0  0  0  0  0  0  0  0  0  0  0  0
  186.6110  172.8830  137.2620 N   0  0  0  0  0  1  0  0  0  0  0  0
  187.2770  175.2420  137.0950 N   0  0  0  0  0  0  0  0  0  0  0  0
  182.1610  173.3520  135.0630 C   0  0  0  0  0  0  0  0  0  0  0  0
  180.4080  175.1220  134.5940 C   0  0  0  0  0  2  0  0  0  0  0  0
  182.5230  175.8700  138.8880 C   0  0  0  0  0  2  0  0  0  0  0  0
  183.0270  178.3960  139.0110 C   0  0  0  0  0  0  0  0  0  0  0  0
  180.8510  177.3760  139.8490 C   0  0  1  0  0  3  0  0  0  0  0  0
  183.5060  177.0220  138.5820 C   0  0  2  0  0  3  0  0  0  0  0  0
  181.7370  178.6150  139.7630 C   0  0  0  0  0  2  0  0  0  0  0  0
  181.6930  176.1440  140.1260 C   0  0  0  0  0  2  0  0  0  0  0  0
  183.8910  179.4070  138.9740 C   0  0  0  0  0  2  0  0  0  0  0  0
  179.6110  177.6020  141.1610 S   0  0  0  0  0  0  0  0  0  0  0  0
  180.5700  178.9000  142.0080 C   0  0  0  0  0  2  0  0  0  0  0  0
  179.2780  178.2840  143.9120 O   0  0  0  0  0  1  0  0  0  0  0  0
  180.5610  178.6520  143.5020 C   0  0  0  0  0  2  0  0  0  0  0  0
  188.1140  177.4750  137.4740 C   0  0  0  0  0  2  0  0  0  0  0  0
  187.0410  178.1400  142.1660 F   0  0  0  0  0  0  0  0  0  0  0  0
  188.5520  179.4880  141.1880 F   0  0  0  0  0  0  0  0  0  0  0  0
  189.1820  177.2320  141.6490 C   0  0  1  0  0  3  0  0  0  0  0  0
  187.4890  177.8220  139.8580 C   0  0  0  0  0  2  0  0  0  0  0  0
  189.6710  177.5560  142.9010 F   0  0  0  0  0  0  0  0  0  0  0  0
  189.9210  177.6080  139.2220 C   0  0  0  0  0  2  0  0  0  0  0  0
  188.0610  178.1930  141.2360 C   0  0  0  0  0  0  0  0  0  0  0  0
  188.4970  177.1500  138.9130 C   0  0  2  0  0  3  0  0  0  0  0  0
  190.3370  177.1930  140.6370 C   0  0  0  0  0  2  0  0  0  0  0  0
  3 18  1  0  0  0  0
  3 19  1  0  0  0  0
  4 17  1  0  0  0  0
  4 14  1  0  0  0  0
  5 19  1  1  0  0  0
  5 28  1  0  0  0  0
  6 22  1  0  0  0  0
  6 21  1  0  0  0  0
  7 11  1  0  0  0  0
  8  1  2  0  0  0  0
  9  7  2  0  0  0  0
 10 15  1  0  0  0  0
 10  8  1  0  0  0  0
 11  2  1  6  0  0  0
 11  5  1  0  0  0  0
 12 23  1  0  0  0  0
 12 10  2  0  0  0  0
 13  8  1  0  0  0  0
 13 17  1  0  0  0  0
 15  6  2  0  0  0  0
 16  4  2  0  0  0  0
 18 22  2  0  0  0  0
 18 36  1  0  0  0  0
 20 23  2  0  0  0  0
 20 16  1  0  0  0  0
 23 13  1  0  0  0  0
 24  9  1  0  0  0  0
 24 20  1  0  0  0  0
 25 30  1  0  0  0  0
 26 29  1  0  0  0  0
 27 30  1  0  0  0  0
 27 32  1  1  0  0  0
 28 25  1  6  0  0  0
 28 26  1  0  0  0  0
 29 27  1  0  0  0  0
 31 26  2  0  0  0  0
 32 33  1  0  0  0  0
 33 35  1  0  0  0  0
 35 34  1  0  0  0  0
 38 43  1  0  0  0  0
 39 41  1  1  0  0  0
 40 43  1  0  0  0  0
 42 45  1  0  0  0  0
 43 39  1  0  0  0  0
 43 37  1  0  0  0  0
 44 36  1  6  0  0  0
 44 42  1  0  0  0  0
 44 40  1  0  0  0  0
 45 39  1  0  0  0  0
M  END
>  <MODEL>
5

>  <REMARK>
 VINA RESULT:      -6.5      4.149      8.512
  Name = 
  6 active torsions:
  status: ('A' for Active; 'I' for Inactive)
    1  A    between atoms: C_1  and  C_34
    2  A    between atoms: C_1  and  C_36
    3  A    between atoms: N_8  and  C_16
    4  A    between atoms: C_14  and  S_23
    5  A    between atoms: S_23  and  C_39
    6  A    between atoms: C_39  and  C_40
                            x       y       z     vdW  Elec       q    Type
                         _______ _______ _______ _____ _____    ______ ____

>  <TORSDO>
F 6

$$$$
=
 OpenBabel10222416483D

 45 49  0  0  1  0  0  0  0  0999 V2000
  186.6820  173.1720  136.7590 O   0  0  0  0  0  0  0  0  0  0  0  0
  189.1050  179.4210  138.6780 O   0  0  0  0  0  1  0  0  0  0  0  0
  190.8240  177.0830  138.0860 C   0  0  0  0  0  2  0  0  0  0  0  0
  183.0610  175.3080  138.3090 C   0  0  0  0  0  0  0  0  0  0  0  0
  189.3320  177.2930  139.6980 N   0  0  1  0  0  0  0  0  0  0  0  0
  189.7140  174.4330  137.1970 C   0  0  0  0  0  0  0  0  0  0  0  0
  187.1380  178.3390  139.5230 C   0  0  0  0  0  3  0  0  0  0  0  0
  186.4820  174.4030  136.9350 C   0  0  0  0  0  0  0  0  0  0  0  0
  186.4130  178.9320  138.5650 C   0  0  0  0  0  3  0  0  0  0  0  0
  187.4720  175.4940  136.8850 C   0  0  0  0  0  0  0  0  0  0  0  0
  188.6200  178.5830  139.6940 C   0  0  2  0  0  3  0  0  0  0  0  0
  186.8770  176.6230  137.0960 N   0  0  0  0  0  0  0  0  0  0  0  0
  185.2000  174.9610  137.1800 N   0  0  0  0  0  0  0  0  0  0  0  0
  181.7330  174.8250  138.7720 C   0  0  0  0  0  1  0  0  0  0  0  0
  188.8970  175.4320  137.0320 N   0  0  0  0  0  0  0  0  0  0  0  0
  183.3560  176.6140  138.4130 C   0  0  0  0  0  3  0  0  0  0  0  0
  184.0810  174.2960  137.8430 C   0  0  0  0  0  2  0  0  0  0  0  0
  191.6040  175.8030  137.9910 C   0  0  0  0  0  0  0  0  0  0  0  0
  190.6560  177.4830  139.4200 O   0  0  0  0  0  0  0  0  0  0  0  0
  184.6640  177.1620  138.0020 C   0  0  0  0  0  0  0  0  0  0  0  0
  189.2680  173.0780  137.1340 N   0  0  0  0  0  1  0  0  0  0  0  0
  191.0780  174.6790  137.5780 N   0  0  0  0  0  0  0  0  0  0  0  0
  185.5040  176.3420  137.3470 C   0  0  0  0  0  0  0  0  0  0  0  0
  184.9600  178.6090  138.3390 C   0  0  0  0  0  2  0  0  0  0  0  0
  187.8070  176.8790  141.6380 C   0  0  0  0  0  2  0  0  0  0  0  0
  190.3470  177.1980  141.9420 C   0  0  0  0  0  0  0  0  0  0  0  0
  188.6410  177.9260  143.6850 C   0  0  1  0  0  3  0  0  0  0  0  0
  189.2240  176.7120  141.0470 C   0  0  2  0  0  3  0  0  0  0  0  0
  190.1130  177.7170  143.3410 C   0  0  0  0  0  2  0  0  0  0  0  0
  187.8050  176.7780  143.1500 C   0  0  0  0  0  2  0  0  0  0  0  0
  191.5990  176.9050  141.6030 C   0  0  0  0  0  2  0  0  0  0  0  0
  188.4510  178.0580  145.4900 S   0  0  0  0  0  0  0  0  0  0  0  0
  186.6350  177.9170  145.4280 C   0  0  0  0  0  2  0  0  0  0  0  0
  184.6310  178.6220  146.5050 O   0  0  0  0  0  1  0  0  0  0  0  0
  186.0230  178.6440  146.6080 C   0  0  0  0  0  2  0  0  0  0  0  0
  193.0530  175.8300  138.3570 C   0  0  0  0  0  2  0  0  0  0  0  0
  196.8020  172.7410  138.2390 F   0  0  0  0  0  0  0  0  0  0  0  0
  197.1380  174.8920  137.6750 F   0  0  0  0  0  0  0  0  0  0  0  0
  195.9390  173.4990  136.1510 C   0  0  1  0  0  3  0  0  0  0  0  0
  194.9590  174.2300  138.3710 C   0  0  0  0  0  2  0  0  0  0  0  0
  197.0920  173.1220  135.4880 F   0  0  0  0  0  0  0  0  0  0  0  0
  194.5130  175.6240  136.3160 C   0  0  0  0  0  2  0  0  0  0  0  0
  196.2400  173.8390  137.6160 C   0  0  0  0  0  0  0  0  0  0  0  0
  193.8810  174.8840  137.4940 C   0  0  2  0  0  3  0  0  0  0  0  0
  195.2630  174.6550  135.3980 C   0  0  0  0  0  2  0  0  0  0  0  0
  1  8  2  0  0  0  0
  3 19  1  0  0  0  0
  4 16  2  0  0  0  0
  4 14  1  0  0  0  0
  5 19  1  1  0  0  0
  5 28  1  0  0  0  0
  6 22  1  0  0  0  0
  7 11  1  0  0  0  0
  8 13  1  0  0  0  0
  9  7  2  0  0  0  0
 10  8  1  0  0  0  0
 10 15  1  0  0  0  0
 10 12  2  0  0  0  0
 11  2  1  6  0  0  0
 11  5  1  0  0  0  0
 12 23  1  0  0  0  0
 13 23  1  0  0  0  0
 13 17  1  0  0  0  0
 15  6  2  0  0  0  0
 17  4  1  0  0  0  0
 18  3  1  0  0  0  0
 18 36  1  0  0  0  0
 20 24  1  0  0  0  0
 20 16  1  0  0  0  0
 21  6  1  0  0  0  0
 22 18  2  0  0  0  0
 23 20  2  0  0  0  0
 24  9  1  0  0  0  0
 25 30  1  0  0  0  0
 26 29  1  0  0  0  0
 27 32  1  1  0  0  0
 28 25  1  1  0  0  0
 28 26  1  0  0  0  0
 29 27  1  0  0  0  0
 30 27  1  0  0  0  0
 31 26  2  0  0  0  0
 33 32  1  0  0  0  0
 33 35  1  0  0  0  0
 34 35  1  0  0  0  0
 39 41  1  6  0  0  0
 39 43  1  0  0  0  0
 42 44  1  0  0  0  0
 43 38  1  0  0  0  0
 43 37  1  0  0  0  0
 43 40  1  0  0  0  0
 44 36  1  1  0  0  0
 44 40  1  0  0  0  0
 45 39  1  0  0  0  0
 45 42  1  0  0  0  0
M  END
>  <MODEL>
6

>  <REMARK>
 VINA RESULT:      -6.3      6.505     10.722
  Name = 
  6 active torsions:
  status: ('A' for Active; 'I' for Inactive)
    1  A    between atoms: C_1  and  C_34
    2  A    between atoms: C_1  and  C_36
    3  A    between atoms: N_8  and  C_16
    4  A    between atoms: C_14  and  S_23
    5  A    between atoms: S_23  and  C_39
    6  A    between atoms: C_39  and  C_40
                            x       y       z     vdW  Elec       q    Type
                         _______ _______ _______ _____ _____    ______ ____

>  <TORSDO>
F 6

$$$$
=
 OpenBabel10222416483D

 45 49  0  0  1  0  0  0  0  0999 V2000
  186.1810  173.1980  136.3860 O   0  0  0  0  0  0  0  0  0  0  0  0
  189.0510  179.4380  137.5850 O   0  0  0  0  0  1  0  0  0  0  0  0
  190.5690  177.0520  136.7020 C   0  0  0  0  0  2  0  0  0  0  0  0
  183.0050  175.4410  138.6140 C   0  0  0  0  0  0  0  0  0  0  0  0
  189.4580  177.3280  138.5880 N   0  0  1  0  0  0  0  0  0  0  0  0
  189.2560  174.4070  136.1370 C   0  0  0  0  0  0  0  0  0  0  0  0
  187.2930  178.4150  138.8570 C   0  0  0  0  0  3  0  0  0  0  0  0
  186.0410  174.4370  136.5690 C   0  0  0  0  0  0  0  0  0  0  0  0
  186.3890  179.0010  138.0590 C   0  0  0  0  0  3  0  0  0  0  0  0
  187.0140  175.5060  136.2820 C   0  0  0  0  0  0  0  0  0  0  0  0
  188.7810  178.6320  138.7020 C   0  0  2  0  0  3  0  0  0  0  0  0
  186.4960  176.6520  136.5850 N   0  0  0  0  0  0  0  0  0  0  0  0
  184.8490  175.0260  137.0670 N   0  0  0  0  0  0  0  0  0  0  0  0
  181.7990  174.9950  139.3610 C   0  0  0  0  0  1  0  0  0  0  0  0
  188.4370  175.4190  136.1240 N   0  0  0  0  0  0  0  0  0  0  0  0
  183.3350  176.7430  138.6200 C   0  0  0  0  0  3  0  0  0  0  0  0
  183.8870  174.3980  137.9680 C   0  0  0  0  0  2  0  0  0  0  0  0
  191.2920  175.7550  136.4760 C   0  0  0  0  0  0  0  0  0  0  0  0
  190.6940  177.4850  138.0310 O   0  0  0  0  0  0  0  0  0  0  0  0
  184.5340  177.2550  137.9260 C   0  0  0  0  0  0  0  0  0  0  0  0
  188.7850  173.0610  136.2060 N   0  0  0  0  0  1  0  0  0  0  0  0
  190.6720  174.6340  136.2130 N   0  0  0  0  0  0  0  0  0  0  0  0
  185.2030  176.4040  137.1290 C   0  0  0  0  0  0  0  0  0  0  0  0
  184.9170  178.7030  138.1550 C   0  0  0  0  0  2  0  0  0  0  0  0
  188.4090  177.0650  140.8450 C   0  0  0  0  0  2  0  0  0  0  0  0
  190.9650  177.1910  140.5330 C   0  0  0  0  0  0  0  0  0  0  0  0
  189.7770  178.0770  142.6020 C   0  0  1  0  0  3  0  0  0  0  0  0
  189.6300  176.7790  139.9440 C   0  0  2  0  0  3  0  0  0  0  0  0
  191.1060  177.7490  141.9300 C   0  0  0  0  0  2  0  0  0  0  0  0
  188.7580  176.9890  142.3180 C   0  0  0  0  0  2  0  0  0  0  0  0
  192.0770  176.7960  139.9200 C   0  0  0  0  0  2  0  0  0  0  0  0
  190.0290  178.2530  144.3960 S   0  0  0  0  0  0  0  0  0  0  0  0
  191.6290  177.3810  144.3770 C   0  0  0  0  0  2  0  0  0  0  0  0
  191.8790  177.0440  146.7210 O   0  0  0  0  0  1  0  0  0  0  0  0
  191.6800  176.3780  145.5110 C   0  0  0  0  0  2  0  0  0  0  0  0
  192.7850  175.7610  136.5260 C   0  0  0  0  0  2  0  0  0  0  0  0
  196.0890  173.7530  139.4690 F   0  0  0  0  0  0  0  0  0  0  0  0
  196.5680  173.9850  137.2830 F   0  0  0  0  0  0  0  0  0  0  0  0
  194.9820  172.3180  137.9220 C   0  0  1  0  0  3  0  0  0  0  0  0
  194.4740  174.7960  138.0780 C   0  0  0  0  0  2  0  0  0  0  0  0
  195.9590  171.3480  138.0550 F   0  0  0  0  0  0  0  0  0  0  0  0
  193.8530  173.5480  135.9750 C   0  0  0  0  0  2  0  0  0  0  0  0
  195.5590  173.7130  138.1930 C   0  0  0  0  0  0  0  0  0  0  0  0
  193.3460  174.4610  137.0910 C   0  0  2  0  0  3  0  0  0  0  0  0
  194.3250  172.2040  136.5380 C   0  0  0  0  0  2  0  0  0  0  0  0
  1  8  2  0  0  0  0
  3 19  1  0  0  0  0
  4 16  2  0  0  0  0
  4 14  1  0  0  0  0
  5 19  1  1  0  0  0
  5 11  1  0  0  0  0
  5 28  1  0  0  0  0
  6 21  1  0  0  0  0
  6 22  1  0  0  0  0
  8 13  1  0  0  0  0
  9 24  1  0  0  0  0
  9  7  2  0  0  0  0
 10  8  1  0  0  0  0
 10 12  2  0  0  0  0
 11  2  1  6  0  0  0
 11  7  1  0  0  0  0
 12 23  1  0  0  0  0
 13 23  1  0  0  0  0
 13 17  1  0  0  0  0
 15  6  2  0  0  0  0
 15 10  1  0  0  0  0
 17  4  1  0  0  0  0
 18 36  1  0  0  0  0
 18  3  1  0  0  0  0
 20 24  1  0  0  0  0
 20 16  1  0  0  0  0
 22 18  2  0  0  0  0
 23 20  2  0  0  0  0
 25 30  1  0  0  0  0
 26 29  1  0  0  0  0
 27 32  1  1  0  0  0
 28 26  1  0  0  0  0
 28 25  1  1  0  0  0
 29 27  1  0  0  0  0
 30 27  1  0  0  0  0
 31 26  2  0  0  0  0
 33 32  1  0  0  0  0
 33 35  1  0  0  0  0
 35 34  1  0  0  0  0
 38 43  1  0  0  0  0
 39 41  1  6  0  0  0
 39 43  1  0  0  0  0
 40 43  1  0  0  0  0
 42 45  1  0  0  0  0
 42 44  1  0  0  0  0
 43 37  1  0  0  0  0
 44 36  1  6  0  0  0
 44 40  1  0  0  0  0
 45 39  1  0  0  0  0
M  END
>  <MODEL>
7

>  <REMARK>
 VINA RESULT:      -6.2      6.494     10.922
  Name = 
  6 active torsions:
  status: ('A' for Active; 'I' for Inactive)
    1  A    between atoms: C_1  and  C_34
    2  A    between atoms: C_1  and  C_36
    3  A    between atoms: N_8  and  C_16
    4  A    between atoms: C_14  and  S_23
    5  A    between atoms: S_23  and  C_39
    6  A    between atoms: C_39  and  C_40
                            x       y       z     vdW  Elec       q    Type
                         _______ _______ _______ _____ _____    ______ ____

>  <TORSDO>
F 6

$$$$
=
 OpenBabel10222416483D

 45 49  0  0  1  0  0  0  0  0999 V2000
  191.1190  176.9630  140.4600 O   0  0  0  0  0  0  0  0  0  0  0  0
  186.4330  178.1140  135.4280 O   0  0  0  0  0  1  0  0  0  0  0  0
  185.8950  178.4850  138.3170 C   0  0  0  0  0  2  0  0  0  0  0  0
  192.9150  175.0210  136.8430 C   0  0  0  0  0  0  0  0  0  0  0  0
  186.3970  176.6130  137.2640 N   0  0  1  0  0  0  0  0  0  0  0  0
  187.9850  178.0360  140.4320 C   0  0  0  0  0  0  0  0  0  0  0  0
  188.0450  176.3390  135.4900 C   0  0  0  0  0  3  0  0  0  0  0  0
  190.8620  177.1320  139.2380 C   0  0  0  0  0  0  0  0  0  0  0  0
  188.9150  177.1210  134.8360 C   0  0  0  0  0  3  0  0  0  0  0  0
  189.7300  177.8690  138.6490 C   0  0  0  0  0  0  0  0  0  0  0  0
  186.6380  176.7820  135.8200 C   0  0  2  0  0  3  0  0  0  0  0  0
  189.8220  177.8380  137.3590 N   0  0  0  0  0  0  0  0  0  0  0  0
  191.6880  176.6480  138.1890 N   0  0  0  0  0  0  0  0  0  0  0  0
  193.9800  173.9960  136.6800 C   0  0  0  0  0  1  0  0  0  0  0  0
  188.4690  178.2160  139.2370 N   0  0  0  0  0  0  0  0  0  0  0  0
  192.2460  175.4490  135.7600 C   0  0  0  0  0  3  0  0  0  0  0  0
  192.5390  175.4620  138.2380 C   0  0  0  0  0  2  0  0  0  0  0  0
  185.6360  178.4310  139.7960 C   0  0  0  0  0  0  0  0  0  0  0  0
  185.3370  177.3790  137.6580 O   0  0  0  0  0  0  0  0  0  0  0  0
  191.1570  176.4420  135.8490 C   0  0  0  0  0  0  0  0  0  0  0  0
  188.7790  177.5020  141.4920 N   0  0  0  0  0  1  0  0  0  0  0  0
  186.5860  178.2530  140.6770 N   0  0  0  0  0  0  0  0  0  0  0  0
  190.9620  177.0490  137.0320 C   0  0  0  0  0  0  0  0  0  0  0  0
  190.3440  176.7110  134.5980 C   0  0  0  0  0  2  0  0  0  0  0  0
  187.1590  174.2450  136.9950 C   0  0  0  0  0  2  0  0  0  0  0  0
  184.6600  174.8800  137.0300 C   0  0  0  0  0  0  0  0  0  0  0  0
  185.5740  172.9280  135.6760 C   0  0  1  0  0  3  0  0  0  0  0  0
  186.0620  175.2010  137.5120 C   0  0  2  0  0  3  0  0  0  0  0  0
  184.3410  173.6670  136.1890 C   0  0  0  0  0  2  0  0  0  0  0  0
  186.6290  172.8430  136.7630 C   0  0  0  0  0  2  0  0  0  0  0  0
  183.6360  175.5210  137.5880 C   0  0  0  0  0  2  0  0  0  0  0  0
  185.0990  171.2610  135.1250 S   0  0  0  0  0  0  0  0  0  0  0  0
  183.7350  171.1230  136.3260 C   0  0  0  0  0  2  0  0  0  0  0  0
  181.9790  171.3860  134.7390 O   0  0  0  0  0  1  0  0  0  0  0  0
  182.5270  170.4940  135.6620 C   0  0  0  0  0  2  0  0  0  0  0  0
  184.2330  178.6210  140.2750 C   0  0  0  0  0  2  0  0  0  0  0  0
  181.3150  178.9070  144.1500 F   0  0  0  0  0  0  0  0  0  0  0  0
  182.7070  180.6150  143.7000 F   0  0  0  0  0  0  0  0  0  0  0  0
  183.6420  178.5900  144.5510 C   0  0  1  0  0  3  0  0  0  0  0  0
  182.6770  178.7550  142.2130 C   0  0  0  0  0  2  0  0  0  0  0  0
  183.5180  179.0080  145.8630 F   0  0  0  0  0  0  0  0  0  0  0  0
  185.1390  179.1850  142.5560 C   0  0  0  0  0  2  0  0  0  0  0  0
  182.5670  179.2370  143.6680 C   0  0  0  0  0  0  0  0  0  0  0  0
  184.1010  178.3810  141.7750 C   0  0  2  0  0  3  0  0  0  0  0  0
  185.0680  178.8670  144.0520 C   0  0  0  0  0  2  0  0  0  0  0  0
  3 18  1  0  0  0  0
  4 17  1  0  0  0  0
  5 28  1  0  0  0  0
  5 19  1  6  0  0  0
  6 22  1  0  0  0  0
  6 21  1  0  0  0  0
  7 11  1  0  0  0  0
  8  1  2  0  0  0  0
  9  7  2  0  0  0  0
 10 15  1  0  0  0  0
 10  8  1  0  0  0  0
 11  2  1  1  0  0  0
 11  5  1  0  0  0  0
 12 10  2  0  0  0  0
 13 17  1  0  0  0  0
 13  8  1  0  0  0  0
 14  4  1  0  0  0  0
 15  6  2  0  0  0  0
 16 20  1  0  0  0  0
 16  4  2  0  0  0  0
 18 36  1  0  0  0  0
 18 22  2  0  0  0  0
 19  3  1  0  0  0  0
 20 23  2  0  0  0  0
 23 12  1  0  0  0  0
 23 13  1  0  0  0  0
 24  9  1  0  0  0  0
 24 20  1  0  0  0  0
 26 28  1  0  0  0  0
 26 31  2  0  0  0  0
 27 32  1  1  0  0  0
 27 29  1  0  0  0  0
 27 30  1  0  0  0  0
 28 25  1  6  0  0  0
 29 26  1  0  0  0  0
 30 25  1  0  0  0  0
 32 33  1  0  0  0  0
 34 35  1  0  0  0  0
 35 33  1  0  0  0  0
 39 41  1  1  0  0  0
 40 43  1  0  0  0  0
 42 45  1  0  0  0  0
 43 38  1  0  0  0  0
 43 37  1  0  0  0  0
 43 39  1  0  0  0  0
 44 36  1  6  0  0  0
 44 40  1  0  0  0  0
 44 42  1  0  0  0  0
 45 39  1  0  0  0  0
M  END
>  <MODEL>
8

>  <REMARK>
 VINA RESULT:      -5.9      3.837      5.474
  Name = 
  6 active torsions:
  status: ('A' for Active; 'I' for Inactive)
    1  A    between atoms: C_1  and  C_34
    2  A    between atoms: C_1  and  C_36
    3  A    between atoms: N_8  and  C_16
    4  A    between atoms: C_14  and  S_23
    5  A    between atoms: S_23  and  C_39
    6  A    between atoms: C_39  and  C_40
                            x       y       z     vdW  Elec       q    Type
                         _______ _______ _______ _____ _____    ______ ____

>  <TORSDO>
F 6

$$$$
=
 OpenBabel10222416483D

 45 49  0  0  1  0  0  0  0  0999 V2000
  185.7900  177.7810  143.3780 O   0  0  0  0  0  0  0  0  0  0  0  0
  186.6940  178.9010  136.5560 O   0  0  0  0  0  1  0  0  0  0  0  0
  184.0650  178.9780  137.9190 C   0  0  0  0  0  2  0  0  0  0  0  0
  189.9520  176.3240  142.5830 C   0  0  0  0  0  0  0  0  0  0  0  0
  185.4260  177.2560  137.7000 N   0  0  1  0  0  0  0  0  0  0  0  0
  183.7550  178.5520  140.8790 C   0  0  0  0  0  0  0  0  0  0  0  0
  187.8550  177.2860  137.8960 C   0  0  0  0  0  3  0  0  0  0  0  0
  186.5640  178.0260  142.4140 C   0  0  0  0  0  0  0  0  0  0  0  0
  188.8020  178.1990  138.1560 C   0  0  0  0  0  3  0  0  0  0  0  0
  186.2370  178.7000  141.1450 C   0  0  0  0  0  0  0  0  0  0  0  0
  186.6790  177.5660  136.9890 C   0  0  2  0  0  3  0  0  0  0  0  0
  187.3030  178.7850  140.4170 N   0  0  0  0  0  0  0  0  0  0  0  0
  187.9480  177.7110  142.4200 N   0  0  0  0  0  0  0  0  0  0  0  0
  190.8610  175.4210  143.3390 C   0  0  0  0  0  1  0  0  0  0  0  0
  184.9610  178.8770  140.5130 N   0  0  0  0  0  0  0  0  0  0  0  0
  190.3330  176.7770  141.3770 C   0  0  0  0  0  3  0  0  0  0  0  0
  188.5800  176.6110  143.1440 C   0  0  0  0  0  2  0  0  0  0  0  0
  182.7590  178.7770  138.6350 C   0  0  0  0  0  0  0  0  0  0  0  0
  184.3730  177.8840  137.0970 O   0  0  0  0  0  0  0  0  0  0  0  0
  189.4720  177.6520  140.5560 C   0  0  0  0  0  0  0  0  0  0  0  0
  183.4820  178.0090  142.1710 N   0  0  0  0  0  1  0  0  0  0  0  0
  182.6780  178.6160  139.9300 N   0  0  0  0  0  0  0  0  0  0  0  0
  188.3550  178.1370  141.1240 C   0  0  0  0  0  0  0  0  0  0  0  0
  189.9150  177.9470  139.1370 C   0  0  0  0  0  2  0  0  0  0  0  0
  186.5250  175.0080  137.6640 C   0  0  0  0  0  2  0  0  0  0  0  0
  184.2860  175.4530  136.4650 C   0  0  0  0  0  0  0  0  0  0  0  0
  186.0030  173.7780  135.6140 C   0  0  1  0  0  3  0  0  0  0  0  0
  185.2010  175.8020  137.6230 C   0  0  2  0  0  3  0  0  0  0  0  0
  184.5940  174.3490  135.4820 C   0  0  0  0  0  2  0  0  0  0  0  0
  186.3730  173.6190  137.0770 C   0  0  0  0  0  2  0  0  0  0  0  0
  183.0460  175.9360  136.4700 C   0  0  0  0  0  2  0  0  0  0  0  0
  186.0920  172.1740  134.7620 S   0  0  0  0  0  0  0  0  0  0  0  0
  187.8680  171.9540  135.1090 C   0  0  0  0  0  2  0  0  0  0  0  0
  189.6010  173.5300  135.5400 O   0  0  0  0  0  1  0  0  0  0  0  0
  188.6440  173.1500  134.5980 C   0  0  0  0  0  2  0  0  0  0  0  0
  181.5020  178.7940  137.8290 C   0  0  0  0  0  2  0  0  0  0  0  0
  178.9360  182.0170  135.2510 F   0  0  0  0  0  0  0  0  0  0  0  0
  181.1790  182.1760  135.2810 F   0  0  0  0  0  0  0  0  0  0  0  0
  179.9760  182.7900  137.2500 C   0  0  1  0  0  3  0  0  0  0  0  0
  180.1540  180.3850  136.4700 C   0  0  0  0  0  2  0  0  0  0  0  0
  179.8660  184.1090  136.8500 F   0  0  0  0  0  0  0  0  0  0  0  0
  181.8560  181.2710  138.1080 C   0  0  0  0  0  2  0  0  0  0  0  0
  180.0620  181.8570  136.0360 C   0  0  0  0  0  0  0  0  0  0  0  0
  180.8380  180.1670  137.8280 C   0  0  2  0  0  3  0  0  0  0  0  0
  181.1710  182.6370  138.2040 C   0  0  0  0  0  2  0  0  0  0  0  0
  3 18  1  0  0  0  0
  4 17  1  0  0  0  0
  4 14  1  0  0  0  0
  5 19  1  6  0  0  0
  6 21  1  0  0  0  0
  7  9  2  0  0  0  0
  8 13  1  0  0  0  0
  8  1  2  0  0  0  0
  9 24  1  0  0  0  0
 10  8  1  0  0  0  0
 11  2  1  1  0  0  0
 11  5  1  0  0  0  0
 11  7  1  0  0  0  0
 12 23  1  0  0  0  0
 12 10  2  0  0  0  0
 13 17  1  0  0  0  0
 15  6  2  0  0  0  0
 15 10  1  0  0  0  0
 16  4  2  0  0  0  0
 18 22  2  0  0  0  0
 19  3  1  0  0  0  0
 20 23  2  0  0  0  0
 20 16  1  0  0  0  0
 22  6  1  0  0  0  0
 23 13  1  0  0  0  0
 24 20  1  0  0  0  0
 26 31  2  0  0  0  0
 26 28  1  0  0  0  0
 27 32  1  6  0  0  0
 27 30  1  0  0  0  0
 28 25  1  6  0  0  0
 28  5  1  0  0  0  0
 29 27  1  0  0  0  0
 29 26  1  0  0  0  0
 30 25  1  0  0  0  0
 32 33  1  0  0  0  0
 35 33  1  0  0  0  0
 35 34  1  0  0  0  0
 36 18  1  0  0  0  0
 37 43  1  0  0  0  0
 38 43  1  0  0  0  0
 39 41  1  6  0  0  0
 39 45  1  0  0  0  0
 40 44  1  0  0  0  0
 42 45  1  0  0  0  0
 43 40  1  0  0  0  0
 43 39  1  0  0  0  0
 44 36  1  6  0  0  0
 44 42  1  0  0  0  0
M  END
>  <MODEL>
9

>  <REMARK>
 VINA RESULT:      -5.6      1.920      2.922
  Name = 
  6 active torsions:
  status: ('A' for Active; 'I' for Inactive)
    1  A    between atoms: C_1  and  C_34
    2  A    between atoms: C_1  and  C_36
    3  A    between atoms: N_8  and  C_16
    4  A    between atoms: C_14  and  S_23
    5  A    between atoms: S_23  and  C_39
    6  A    between atoms: C_39  and  C_40
                            x       y       z     vdW  Elec       q    Type
                         _______ _______ _______ _____ _____    ______ ____

>  <TORSDO>
F 6

$$$$
