=
 OpenBabel10222421143D

 37 41  0  0  1  0  0  0  0  0999 V2000
  188.7710  177.1890  140.7040 C   0  0  2  0  0  3  0  0  0  0  0  0
  183.7050  179.2060  139.6630 C   0  0  0  0  0  0  0  0  0  0  0  0
  184.7200  178.7510  141.5930 C   0  0  0  0  0  0  0  0  0  0  0  0
  181.0850  178.9170  140.7170 N   0  0  0  0  0  0  0  0  0  0  0  0
  187.3410  178.4190  142.2020 C   0  0  0  0  0  0  0  0  0  0  0  0
  181.2330  179.2050  139.3130 C   0  0  0  0  0  0  0  0  0  0  0  0
  186.9090  178.7480  140.8380 C   0  0  0  0  0  0  0  0  0  0  0  0
  184.1080  178.2380  144.0240 C   0  0  0  0  0  1  0  0  0  0  0  0
  180.2120  179.2430  138.5820 O   0  0  0  0  0  0  0  0  0  0  0  0
  185.0000  179.1950  139.3840 O   0  0  0  0  0  0  0  0  0  0  0  0
  185.1280  178.4150  142.9520 C   0  0  0  0  0  0  0  0  0  0  0  0
  188.2720  178.5760  141.1600 C   0  0  2  0  0  3  0  0  0  0  0  0
  185.6050  178.9170  140.5130 C   0  0  0  0  0  0  0  0  0  0  0  0
  183.4920  178.9210  140.9960 C   0  0  0  0  0  0  0  0  0  0  0  0
  182.5950  179.4420  138.6880 C   0  0  0  0  0  2  0  0  0  0  0  0
  182.1980  178.7850  141.5640 N   0  0  0  0  0  0  0  0  0  0  0  0
  186.5230  178.2410  143.2970 C   0  0  0  0  0  3  0  0  0  0  0  0
  189.1680  175.8270  142.8290 C   0  0  0  0  0  1  0  0  0  0  0  0
  189.8260  176.5560  141.6570 C   0  0  2  0  0  3  0  0  0  0  0  0
  191.9630  177.6540  141.5030 O   0  0  0  0  0  0  0  0  0  0  0  0
  190.8830  177.5060  142.1490 C   0  0  0  0  0  0  0  0  0  0  0  0
  190.6780  178.1840  143.3580 O   0  0  0  0  0  0  0  0  0  0  0  0
  191.6000  178.0830  144.4420 C   0  0  0  0  0  2  0  0  0  0  0  0
  190.0100  176.9850  147.4670 N   0  0  0  0  0  2  0  0  0  0  0  0
  191.1380  177.0430  145.4590 C   0  0  1  0  0  3  0  0  0  0  0  0
  192.0480  176.9250  146.5110 O   0  0  0  0  0  0  0  0  0  0  0  0
  191.3070  176.4350  147.5480 N   0  0  0  0  0  2  0  0  0  0  0  0
  189.8400  177.4030  146.0930 C   0  0  0  0  0  2  0  0  0  0  0  0
  189.5990  178.4500  138.5810 C   0  0  0  0  0  1  0  0  0  0  0  0
  189.2030  177.0990  139.1920 C   0  0  1  0  0  0  0  0  0  0  0  0
  190.3000  176.1380  138.9850 N   0  0  0  0  0  2  0  0  0  0  0  0
  191.1880  176.5790  137.9110 C   0  0  0  0  0  2  0  0  0  0  0  0
  192.4940  175.8150  137.9910 C   0  0  0  0  0  2  0  0  0  0  0  0
  193.5570  176.7190  138.3990 N   0  0  0  0  0  1  0  0  0  0  0  0
  187.9950  176.5980  138.4000 C   0  0  0  0  0  2  0  0  0  0  0  0
  187.4990  177.6000  137.5600 O   0  0  0  0  0  0  0  0  0  0  0  0
  186.3620  177.0520  136.9700 C   0  0  0  0  0  1  0  0  0  0  0  0
  1 19  1  1  0  0  0
  2 14  2  0  0  0  0
  3 11  1  0  0  0  0
  4 16  2  0  0  0  0
  5 17  1  0  0  0  0
  6  4  1  0  0  0  0
  7 12  1  0  0  0  0
  7  5  2  0  0  0  0
  9  6  2  0  0  0  0
 10  2  1  0  0  0  0
 10 13  1  0  0  0  0
 11 17  2  0  0  0  0
 11  8  1  0  0  0  0
 12  1  1  6  0  0  0
 12  5  1  0  0  0  0
 13  7  1  0  0  0  0
 13  3  2  0  0  0  0
 14 16  1  0  0  0  0
 14  3  1  0  0  0  0
 15  6  1  0  0  0  0
 15  2  1  0  0  0  0
 19 21  1  0  0  0  0
 19 18  1  1  0  0  0
 20 21  2  0  0  0  0
 21 22  1  0  0  0  0
 22 23  1  0  0  0  0
 24 27  1  0  0  0  0
 25 23  1  6  0  0  0
 25 28  1  0  0  0  0
 25 26  1  0  0  0  0
 26 27  1  0  0  0  0
 28 24  1  0  0  0  0
 30 29  1  6  0  0  0
 30  1  1  0  0  0  0
 31 30  1  0  0  0  0
 32 33  1  0  0  0  0
 32 31  1  0  0  0  0
 33 34  1  0  0  0  0
 35 30  1  0  0  0  0
 36 35  1  0  0  0  0
 37 36  1  0  0  0  0
M  END
>  <MODEL>
1

>  <REMARK>
 VINA RESULT:      -7.5      0.000      0.000
  Name = 
  12 active torsions:
  status: ('A' for Active; 'I' for Inactive)
    1  A    between atoms: N_7  and  C_29
    2  A    between atoms: N_7  and  C_36
    3  A    between atoms: C_8  and  C_28
    4  A    between atoms: C_13  and  O_14
    5  A    between atoms: C_13  and  C_29
    6  A    between atoms: O_15  and  C_20
    7  A    between atoms: O_15  and  C_28
    8  A    between atoms: C_16  and  C_23
    9  A    between atoms: C_16  and  C_24
   10  A    between atoms: C_16  and  C_29
   11  A    between atoms: C_18  and  C_36
   12  A    between atoms: C_20  and  C_23
                            x       y       z     vdW  Elec       q    Type
                         _______ _______ _______ _____ _____    ______ ____

>  <TORSDO>
F 12

$$$$
=
 OpenBabel10222421143D

 37 41  0  0  1  0  0  0  0  0999 V2000
  188.7380  177.1720  140.7720 C   0  0  2  0  0  3  0  0  0  0  0  0
  183.6690  179.2380  139.8480 C   0  0  0  0  0  0  0  0  0  0  0  0
  184.7130  178.7460  141.7530 C   0  0  0  0  0  0  0  0  0  0  0  0
  181.0650  178.9490  140.9420 N   0  0  0  0  0  0  0  0  0  0  0  0
  187.3410  178.3880  142.3130 C   0  0  0  0  0  0  0  0  0  0  0  0
  181.1920  179.2580  139.5400 C   0  0  0  0  0  0  0  0  0  0  0  0
  186.8890  178.7410  140.9620 C   0  0  0  0  0  0  0  0  0  0  0  0
  184.1380  178.1990  144.1860 C   0  0  0  0  0  1  0  0  0  0  0  0
  180.1580  179.3140  138.8270 O   0  0  0  0  0  0  0  0  0  0  0  0
  184.9590  179.2220  139.5470 O   0  0  0  0  0  0  0  0  0  0  0  0
  185.1420  178.3860  143.1000 C   0  0  0  0  0  0  0  0  0  0  0  0
  188.2560  178.5550  141.2580 C   0  0  2  0  0  3  0  0  0  0  0  0
  185.5810  178.9230  140.6610 C   0  0  0  0  0  0  0  0  0  0  0  0
  183.4760  178.9330  141.1800 C   0  0  0  0  0  0  0  0  0  0  0  0
  182.5440  179.4960  138.8950 C   0  0  0  0  0  2  0  0  0  0  0  0
  182.1920  178.7960  141.7670 N   0  0  0  0  0  0  0  0  0  0  0  0
  186.5410  178.1980  143.4180 C   0  0  0  0  0  3  0  0  0  0  0  0
  189.2800  175.7410  142.8170 C   0  0  0  0  0  1  0  0  0  0  0  0
  189.8570  176.5500  141.6570 C   0  0  2  0  0  3  0  0  0  0  0  0
  191.9270  177.7660  141.4690 O   0  0  0  0  0  0  0  0  0  0  0  0
  190.8870  177.5280  142.1530 C   0  0  0  0  0  0  0  0  0  0  0  0
  190.7040  178.1320  143.4030 O   0  0  0  0  0  0  0  0  0  0  0  0
  191.6640  177.9970  144.4510 C   0  0  0  0  0  2  0  0  0  0  0  0
  189.9570  177.0490  147.4620 N   0  0  0  0  0  2  0  0  0  0  0  0
  191.1820  177.0110  145.5120 C   0  0  1  0  0  3  0  0  0  0  0  0
  192.0410  176.9910  146.6110 O   0  0  0  0  0  0  0  0  0  0  0  0
  191.2630  176.5470  147.6420 N   0  0  0  0  0  2  0  0  0  0  0  0
  189.8440  177.3710  146.0570 C   0  0  0  0  0  2  0  0  0  0  0  0
  190.2400  176.1420  138.9100 C   0  0  0  0  0  1  0  0  0  0  0  0
  189.0740  177.0840  139.2360 C   0  0  1  0  0  0  0  0  0  0  0  0
  187.9020  176.6920  138.4340 N   0  0  0  0  0  2  0  0  0  0  0  0
  188.2750  175.7430  137.3880 C   0  0  0  0  0  2  0  0  0  0  0  0
  187.1190  174.7990  137.1260 C   0  0  0  0  0  2  0  0  0  0  0  0
  187.6360  173.4750  136.8240 N   0  0  0  0  0  1  0  0  0  0  0  0
  189.4990  178.4800  138.7790 C   0  0  0  0  0  2  0  0  0  0  0  0
  188.4990  179.0770  138.0060 O   0  0  0  0  0  0  0  0  0  0  0  0
  189.0760  179.2730  136.7520 C   0  0  0  0  0  1  0  0  0  0  0  0
  1 19  1  1  0  0  0
  2 14  2  0  0  0  0
  3 11  1  0  0  0  0
  4 16  2  0  0  0  0
  5 17  1  0  0  0  0
  6  4  1  0  0  0  0
  7 12  1  0  0  0  0
  7  5  2  0  0  0  0
  9  6  2  0  0  0  0
 10  2  1  0  0  0  0
 10 13  1  0  0  0  0
 11 17  2  0  0  0  0
 11  8  1  0  0  0  0
 12  1  1  6  0  0  0
 12  5  1  0  0  0  0
 13  7  1  0  0  0  0
 13  3  2  0  0  0  0
 14  3  1  0  0  0  0
 14 16  1  0  0  0  0
 15  6  1  0  0  0  0
 15  2  1  0  0  0  0
 19 21  1  0  0  0  0
 19 18  1  1  0  0  0
 20 21  2  0  0  0  0
 21 22  1  0  0  0  0
 22 23  1  0  0  0  0
 24 27  1  0  0  0  0
 25 23  1  6  0  0  0
 25 28  1  0  0  0  0
 25 26  1  0  0  0  0
 26 27  1  0  0  0  0
 28 24  1  0  0  0  0
 30 29  1  6  0  0  0
 30  1  1  0  0  0  0
 31 30  1  0  0  0  0
 32 31  1  0  0  0  0
 33 32  1  0  0  0  0
 34 33  1  0  0  0  0
 35 30  1  0  0  0  0
 36 35  1  0  0  0  0
 37 36  1  0  0  0  0
M  END
>  <MODEL>
2

>  <REMARK>
 VINA RESULT:      -7.0      1.251      1.821
  Name = 
  12 active torsions:
  status: ('A' for Active; 'I' for Inactive)
    1  A    between atoms: N_7  and  C_29
    2  A    between atoms: N_7  and  C_36
    3  A    between atoms: C_8  and  C_28
    4  A    between atoms: C_13  and  O_14
    5  A    between atoms: C_13  and  C_29
    6  A    between atoms: O_15  and  C_20
    7  A    between atoms: O_15  and  C_28
    8  A    between atoms: C_16  and  C_23
    9  A    between atoms: C_16  and  C_24
   10  A    between atoms: C_16  and  C_29
   11  A    between atoms: C_18  and  C_36
   12  A    between atoms: C_20  and  C_23
                            x       y       z     vdW  Elec       q    Type
                         _______ _______ _______ _____ _____    ______ ____

>  <TORSDO>
F 12

$$$$
=
 OpenBabel10222421143D

 37 41  0  0  1  0  0  0  0  0999 V2000
  189.0730  177.0710  140.6060 C   0  0  2  0  0  3  0  0  0  0  0  0
  183.9640  178.9650  139.5450 C   0  0  0  0  0  0  0  0  0  0  0  0
  185.0220  178.6450  141.4780 C   0  0  0  0  0  0  0  0  0  0  0  0
  181.3680  178.7170  140.6690 N   0  0  0  0  0  0  0  0  0  0  0  0
  187.6580  178.3790  142.0530 C   0  0  0  0  0  0  0  0  0  0  0  0
  181.4860  178.9160  139.2470 C   0  0  0  0  0  0  0  0  0  0  0  0
  187.1950  178.6160  140.6800 C   0  0  0  0  0  0  0  0  0  0  0  0
  184.4640  178.2810  143.9490 C   0  0  0  0  0  1  0  0  0  0  0  0
  180.4490  178.8980  138.5360 O   0  0  0  0  0  0  0  0  0  0  0  0
  185.2530  178.9500  139.2400 O   0  0  0  0  0  0  0  0  0  0  0  0
  185.4610  178.4000  142.8470 C   0  0  0  0  0  0  0  0  0  0  0  0
  188.5670  178.4790  140.9840 C   0  0  2  0  0  3  0  0  0  0  0  0
  185.8840  178.7510  140.3720 C   0  0  0  0  0  0  0  0  0  0  0  0
  183.7800  178.7640  140.8970 C   0  0  0  0  0  0  0  0  0  0  0  0
  182.8310  179.1270  138.5800 C   0  0  0  0  0  2  0  0  0  0  0  0
  182.5000  178.6500  141.4990 N   0  0  0  0  0  0  0  0  0  0  0  0
  186.8650  178.2630  143.1730 C   0  0  0  0  0  3  0  0  0  0  0  0
  189.5060  175.6990  142.7170 C   0  0  0  0  0  1  0  0  0  0  0  0
  190.1420  176.5040  141.5840 C   0  0  2  0  0  3  0  0  0  0  0  0
  192.1810  177.7840  141.5220 O   0  0  0  0  0  0  0  0  0  0  0  0
  191.1010  177.5260  142.1320 C   0  0  0  0  0  0  0  0  0  0  0  0
  190.8070  178.1490  143.3520 O   0  0  0  0  0  0  0  0  0  0  0  0
  191.6840  178.0560  144.4740 C   0  0  0  0  0  2  0  0  0  0  0  0
  189.9200  176.9670  147.4040 N   0  0  0  0  0  2  0  0  0  0  0  0
  191.1830  177.0220  145.4780 C   0  0  1  0  0  3  0  0  0  0  0  0
  192.0200  176.9510  146.5920 O   0  0  0  0  0  0  0  0  0  0  0  0
  191.2230  176.4590  147.5860 N   0  0  0  0  0  2  0  0  0  0  0  0
  189.8340  177.3540  146.0130 C   0  0  0  0  0  2  0  0  0  0  0  0
  188.3980  176.2600  138.2250 C   0  0  0  0  0  1  0  0  0  0  0  0
  189.4890  176.8940  139.0980 C   0  0  1  0  0  0  0  0  0  0  0  0
  189.9130  178.1660  138.4870 N   0  0  0  0  0  2  0  0  0  0  0  0
  189.3560  178.3160  137.1450 C   0  0  0  0  0  2  0  0  0  0  0  0
  188.5250  179.5810  137.0820 C   0  0  0  0  0  2  0  0  0  0  0  0
  187.1800  179.2540  136.6420 N   0  0  0  0  0  1  0  0  0  0  0  0
  190.6850  175.9430  139.0610 C   0  0  0  0  0  2  0  0  0  0  0  0
  191.8080  176.5740  138.5170 O   0  0  0  0  0  0  0  0  0  0  0  0
  192.4000  175.6180  137.6930 C   0  0  0  0  0  1  0  0  0  0  0  0
  1 19  1  1  0  0  0
  2 14  2  0  0  0  0
  3 11  1  0  0  0  0
  4 16  2  0  0  0  0
  5 17  1  0  0  0  0
  6  4  1  0  0  0  0
  7 12  1  0  0  0  0
  7  5  2  0  0  0  0
  9  6  2  0  0  0  0
 10  2  1  0  0  0  0
 10 13  1  0  0  0  0
 11 17  2  0  0  0  0
 11  8  1  0  0  0  0
 12  1  1  6  0  0  0
 12  5  1  0  0  0  0
 13  7  1  0  0  0  0
 13  3  2  0  0  0  0
 14  3  1  0  0  0  0
 14 16  1  0  0  0  0
 15  6  1  0  0  0  0
 15  2  1  0  0  0  0
 19 21  1  0  0  0  0
 19 18  1  1  0  0  0
 20 21  2  0  0  0  0
 21 22  1  0  0  0  0
 22 23  1  0  0  0  0
 24 27  1  0  0  0  0
 25 23  1  6  0  0  0
 25 28  1  0  0  0  0
 25 26  1  0  0  0  0
 26 27  1  0  0  0  0
 28 24  1  0  0  0  0
 30 29  1  6  0  0  0
 30  1  1  0  0  0  0
 31 30  1  0  0  0  0
 32 31  1  0  0  0  0
 33 32  1  0  0  0  0
 34 33  1  0  0  0  0
 35 30  1  0  0  0  0
 36 35  1  0  0  0  0
 37 36  1  0  0  0  0
M  END
>  <MODEL>
3

>  <REMARK>
 VINA RESULT:      -6.9      1.181      2.139
  Name = 
  12 active torsions:
  status: ('A' for Active; 'I' for Inactive)
    1  A    between atoms: N_7  and  C_29
    2  A    between atoms: N_7  and  C_36
    3  A    between atoms: C_8  and  C_28
    4  A    between atoms: C_13  and  O_14
    5  A    between atoms: C_13  and  C_29
    6  A    between atoms: O_15  and  C_20
    7  A    between atoms: O_15  and  C_28
    8  A    between atoms: C_16  and  C_23
    9  A    between atoms: C_16  and  C_24
   10  A    between atoms: C_16  and  C_29
   11  A    between atoms: C_18  and  C_36
   12  A    between atoms: C_20  and  C_23
                            x       y       z     vdW  Elec       q    Type
                         _______ _______ _______ _____ _____    ______ ____

>  <TORSDO>
F 12

$$$$
=
 OpenBabel10222421143D

 37 41  0  0  1  0  0  0  0  0999 V2000
  188.7070  176.2810  137.1460 C   0  0  2  0  0  3  0  0  0  0  0  0
  186.5160  178.6280  141.6750 C   0  0  0  0  0  0  0  0  0  0  0  0
  188.4800  177.6260  141.3630 C   0  0  0  0  0  0  0  0  0  0  0  0
  186.4460  178.1160  144.4660 N   0  0  0  0  0  0  0  0  0  0  0  0
  189.8700  177.0740  139.1020 C   0  0  0  0  0  0  0  0  0  0  0  0
  185.3210  178.7830  143.8610 C   0  0  0  0  0  0  0  0  0  0  0  0
  188.5850  177.7830  139.0560 C   0  0  0  0  0  0  0  0  0  0  0  0
  190.2970  176.4640  142.7420 C   0  0  0  0  0  1  0  0  0  0  0  0
  184.3130  179.0490  144.5630 O   0  0  0  0  0  0  0  0  0  0  0  0
  186.7250  178.6650  140.3670 O   0  0  0  0  0  0  0  0  0  0  0  0
  189.7500  176.9120  141.4290 C   0  0  0  0  0  0  0  0  0  0  0  0
  189.3130  177.4950  137.8810 C   0  0  2  0  0  3  0  0  0  0  0  0
  187.8750  178.0670  140.1730 C   0  0  0  0  0  0  0  0  0  0  0  0
  187.5550  177.9850  142.3160 C   0  0  0  0  0  0  0  0  0  0  0  0
  185.3120  179.1540  142.3900 C   0  0  0  0  0  2  0  0  0  0  0  0
  187.5640  177.7250  143.7110 N   0  0  0  0  0  0  0  0  0  0  0  0
  190.5090  176.6150  140.2330 C   0  0  0  0  0  3  0  0  0  0  0  0
  190.2600  174.2570  137.2770 C   0  0  0  0  0  1  0  0  0  0  0  0
  189.7600  175.4070  136.4040 C   0  0  2  0  0  3  0  0  0  0  0  0
  190.8140  176.7150  134.6790 O   0  0  0  0  0  0  0  0  0  0  0  0
  190.9160  176.1720  135.8200 C   0  0  0  0  0  0  0  0  0  0  0  0
  192.1210  176.2310  136.5310 O   0  0  0  0  0  0  0  0  0  0  0  0
  193.3860  176.1880  135.8710 C   0  0  0  0  0  2  0  0  0  0  0  0
  195.4190  174.9250  138.5460 N   0  0  0  0  0  2  0  0  0  0  0  0
  194.3190  175.1810  136.5390 C   0  0  1  0  0  3  0  0  0  0  0  0
  195.6550  175.5580  136.3990 O   0  0  0  0  0  0  0  0  0  0  0  0
  196.2920  174.9450  137.4390 N   0  0  0  0  0  2  0  0  0  0  0  0
  194.0860  175.0740  138.0060 C   0  0  0  0  0  2  0  0  0  0  0  0
  187.4880  178.0020  135.6180 C   0  0  0  0  0  1  0  0  0  0  0  0
  187.4560  176.6020  136.2460 C   0  0  1  0  0  0  0  0  0  0  0  0
  187.2680  175.6020  135.1800 N   0  0  0  0  0  2  0  0  0  0  0  0
  186.2370  174.6340  135.5450 C   0  0  0  0  0  2  0  0  0  0  0  0
  186.8560  173.2550  135.6580 C   0  0  0  0  0  2  0  0  0  0  0  0
  186.7460  172.7880  137.0290 N   0  0  0  0  0  1  0  0  0  0  0  0
  186.2210  176.5550  137.1450 C   0  0  0  0  0  2  0  0  0  0  0  0
  185.6180  177.8140  137.2310 O   0  0  0  0  0  0  0  0  0  0  0  0
  184.3060  177.5640  137.6290 C   0  0  0  0  0  1  0  0  0  0  0  0
  1 19  1  6  0  0  0
  2 14  2  0  0  0  0
  2 15  1  0  0  0  0
  3 11  1  0  0  0  0
  3 14  1  0  0  0  0
  5 17  1  0  0  0  0
  6  4  1  0  0  0  0
  6  9  2  0  0  0  0
  7  5  2  0  0  0  0
  7 13  1  0  0  0  0
 10  2  1  0  0  0  0
 11  8  1  0  0  0  0
 12  1  1  6  0  0  0
 12  7  1  0  0  0  0
 12  5  1  0  0  0  0
 13 10  1  0  0  0  0
 13  3  2  0  0  0  0
 14 16  1  0  0  0  0
 15  6  1  0  0  0  0
 16  4  2  0  0  0  0
 17 11  2  0  0  0  0
 19 18  1  1  0  0  0
 20 21  2  0  0  0  0
 21 19  1  0  0  0  0
 21 22  1  0  0  0  0
 23 22  1  0  0  0  0
 25 23  1  1  0  0  0
 25 28  1  0  0  0  0
 26 25  1  0  0  0  0
 26 27  1  0  0  0  0
 27 24  1  0  0  0  0
 28 24  1  0  0  0  0
 30 29  1  6  0  0  0
 30 35  1  0  0  0  0
 30  1  1  0  0  0  0
 31 32  1  0  0  0  0
 31 30  1  0  0  0  0
 32 33  1  0  0  0  0
 33 34  1  0  0  0  0
 35 36  1  0  0  0  0
 36 37  1  0  0  0  0
M  END
>  <MODEL>
4

>  <REMARK>
 VINA RESULT:      -6.5      3.293      6.210
  Name = 
  12 active torsions:
  status: ('A' for Active; 'I' for Inactive)
    1  A    between atoms: N_7  and  C_29
    2  A    between atoms: N_7  and  C_36
    3  A    between atoms: C_8  and  C_28
    4  A    between atoms: C_13  and  O_14
    5  A    between atoms: C_13  and  C_29
    6  A    between atoms: O_15  and  C_20
    7  A    between atoms: O_15  and  C_28
    8  A    between atoms: C_16  and  C_23
    9  A    between atoms: C_16  and  C_24
   10  A    between atoms: C_16  and  C_29
   11  A    between atoms: C_18  and  C_36
   12  A    between atoms: C_20  and  C_23
                            x       y       z     vdW  Elec       q    Type
                         _______ _______ _______ _____ _____    ______ ____

>  <TORSDO>
F 12

$$$$
=
 OpenBabel10222421143D

 37 41  0  0  1  0  0  0  0  0999 V2000
  189.5230  177.7430  145.2750 C   0  0  2  0  0  3  0  0  0  0  0  0
  184.1980  178.2790  143.8020 C   0  0  0  0  0  0  0  0  0  0  0  0
  186.0380  178.1000  142.5600 C   0  0  0  0  0  0  0  0  0  0  0  0
  182.7110  179.6370  141.8000 N   0  0  0  0  0  0  0  0  0  0  0  0
  188.5190  177.1840  143.1580 C   0  0  0  0  0  0  0  0  0  0  0  0
  182.0920  179.4090  143.0810 C   0  0  0  0  0  0  0  0  0  0  0  0
  187.4400  177.1760  144.1530 C   0  0  0  0  0  0  0  0  0  0  0  0
  186.8370  178.6680  140.1960 C   0  0  0  0  0  1  0  0  0  0  0  0
  180.9480  179.8810  143.3040 O   0  0  0  0  0  0  0  0  0  0  0  0
  185.1040  177.7290  144.5960 O   0  0  0  0  0  0  0  0  0  0  0  0
  187.0990  178.1260  141.5600 C   0  0  0  0  0  0  0  0  0  0  0  0
  188.7330  176.6980  144.4600 C   0  0  2  0  0  3  0  0  0  0  0  0
  186.1950  177.6300  143.8760 C   0  0  0  0  0  0  0  0  0  0  0  0
  184.7340  178.5390  142.5570 C   0  0  0  0  0  0  0  0  0  0  0  0
  182.7930  178.6310  144.1780 C   0  0  0  0  0  2  0  0  0  0  0  0
  184.0180  179.2000  141.5260 N   0  0  0  0  0  0  0  0  0  0  0  0
  188.4270  177.6340  141.8590 C   0  0  0  0  0  3  0  0  0  0  0  0
  190.9710  179.4430  144.0350 C   0  0  0  0  0  1  0  0  0  0  0  0
  190.9290  178.0630  144.6900 C   0  0  2  0  0  3  0  0  0  0  0  0
  191.6510  175.8270  144.1630 O   0  0  0  0  0  0  0  0  0  0  0  0
  191.4790  177.0170  143.7600 C   0  0  0  0  0  0  0  0  0  0  0  0
  191.8450  177.3880  142.4600 O   0  0  0  0  0  0  0  0  0  0  0  0
  191.3620  176.6880  141.3140 C   0  0  0  0  0  2  0  0  0  0  0  0
  192.5200  176.5250  137.9210 N   0  0  0  0  0  2  0  0  0  0  0  0
  191.9590  177.2590  140.0310 C   0  0  1  0  0  3  0  0  0  0  0  0
  193.3320  177.0200  139.9610 O   0  0  0  0  0  0  0  0  0  0  0  0
  193.6180  177.0610  138.6270 N   0  0  0  0  0  2  0  0  0  0  0  0
  191.3830  176.6350  138.8070 C   0  0  0  0  0  2  0  0  0  0  0  0
  190.0460  178.6920  147.6430 C   0  0  0  0  0  1  0  0  0  0  0  0
  189.5670  177.4840  146.8280 C   0  0  1  0  0  0  0  0  0  0  0  0
  188.2640  177.0380  147.3520 N   0  0  0  0  0  2  0  0  0  0  0  0
  187.5720  178.1280  148.0360 C   0  0  0  0  0  2  0  0  0  0  0  0
  186.1890  178.3000  147.4400 C   0  0  0  0  0  2  0  0  0  0  0  0
  185.8610  179.7140  147.3840 N   0  0  0  0  0  1  0  0  0  0  0  0
  190.5740  176.3610  147.0770 C   0  0  0  0  0  2  0  0  0  0  0  0
  191.7320  176.8560  147.6840 O   0  0  0  0  0  0  0  0  0  0  0  0
  192.5270  175.7360  147.9220 C   0  0  0  0  0  1  0  0  0  0  0  0
  1 19  1  6  0  0  0
  1 30  1  0  0  0  0
  2 15  1  0  0  0  0
  2 10  1  0  0  0  0
  3 13  1  0  0  0  0
  4  6  1  0  0  0  0
  5  7  1  0  0  0  0
  5 12  1  0  0  0  0
  6  9  2  0  0  0  0
  6 15  1  0  0  0  0
  7 12  1  0  0  0  0
  8 11  1  0  0  0  0
 11 17  1  0  0  0  0
 11  3  2  0  0  0  0
 12  1  1  1  0  0  0
 13  7  2  0  0  0  0
 13 10  1  0  0  0  0
 14  3  1  0  0  0  0
 14  2  2  0  0  0  0
 16  4  2  0  0  0  0
 16 14  1  0  0  0  0
 17  5  2  0  0  0  0
 19 18  1  6  0  0  0
 21 20  2  0  0  0  0
 21 19  1  0  0  0  0
 22 21  1  0  0  0  0
 23 22  1  0  0  0  0
 24 27  1  0  0  0  0
 24 28  1  0  0  0  0
 25 23  1  1  0  0  0
 26 25  1  0  0  0  0
 27 26  1  0  0  0  0
 28 25  1  0  0  0  0
 30 35  1  0  0  0  0
 30 31  1  0  0  0  0
 30 29  1  1  0  0  0
 31 32  1  0  0  0  0
 33 32  1  0  0  0  0
 34 33  1  0  0  0  0
 35 36  1  0  0  0  0
 36 37  1  0  0  0  0
M  END
>  <MODEL>
5

>  <REMARK>
 VINA RESULT:      -6.2      2.468      6.548
  Name = 
  12 active torsions:
  status: ('A' for Active; 'I' for Inactive)
    1  A    between atoms: N_7  and  C_29
    2  A    between atoms: N_7  and  C_36
    3  A    between atoms: C_8  and  C_28
    4  A    between atoms: C_13  and  O_14
    5  A    between atoms: C_13  and  C_29
    6  A    between atoms: O_15  and  C_20
    7  A    between atoms: O_15  and  C_28
    8  A    between atoms: C_16  and  C_23
    9  A    between atoms: C_16  and  C_24
   10  A    between atoms: C_16  and  C_29
   11  A    between atoms: C_18  and  C_36
   12  A    between atoms: C_20  and  C_23
                            x       y       z     vdW  Elec       q    Type
                         _______ _______ _______ _____ _____    ______ ____

>  <TORSDO>
F 12

$$$$
=
 OpenBabel10222421143D

 37 41  0  0  1  0  0  0  0  0999 V2000
  187.1440  177.4810  143.8320 C   0  0  2  0  0  3  0  0  0  0  0  0
  183.5140  179.0510  139.9370 C   0  0  0  0  0  0  0  0  0  0  0  0
  183.2970  178.8970  142.1480 C   0  0  0  0  0  0  0  0  0  0  0  0
  180.7400  178.7390  139.4200 N   0  0  0  0  0  0  0  0  0  0  0  0
  185.1480  178.7980  144.1260 C   0  0  0  0  0  0  0  0  0  0  0  0
  181.6390  178.8600  138.3000 C   0  0  0  0  0  0  0  0  0  0  0  0
  185.5400  178.9310  142.7170 C   0  0  0  0  0  0  0  0  0  0  0  0
  181.4430  178.6500  143.8950 C   0  0  0  0  0  1  0  0  0  0  0  0
  181.1860  178.7480  137.1330 O   0  0  0  0  0  0  0  0  0  0  0  0
  184.7500  179.0830  140.4130 O   0  0  0  0  0  0  0  0  0  0  0  0
  182.8870  178.7550  143.5400 C   0  0  0  0  0  0  0  0  0  0  0  0
  186.5010  178.8810  143.7500 C   0  0  2  0  0  3  0  0  0  0  0  0
  184.6320  178.9810  141.7150 C   0  0  0  0  0  0  0  0  0  0  0  0
  182.6000  178.9190  140.9620 C   0  0  0  0  0  0  0  0  0  0  0  0
  183.1240  179.1000  138.4930 C   0  0  0  0  0  2  0  0  0  0  0  0
  181.2050  178.7770  140.7450 N   0  0  0  0  0  0  0  0  0  0  0  0
  183.8620  178.7080  144.6100 C   0  0  0  0  0  3  0  0  0  0  0  0
  186.1050  176.3630  145.8800 C   0  0  0  0  0  1  0  0  0  0  0  0
  187.3720  176.9780  145.2870 C   0  0  2  0  0  3  0  0  0  0  0  0
  187.2450  178.9610  146.6470 O   0  0  0  0  0  0  0  0  0  0  0  0
  187.9550  178.0000  146.2240 C   0  0  0  0  0  0  0  0  0  0  0  0
  189.3060  177.9040  146.5790 O   0  0  0  0  0  0  0  0  0  0  0  0
  189.9060  176.6560  146.9250 C   0  0  0  0  0  2  0  0  0  0  0  0
  193.1490  175.5810  148.0230 N   0  0  0  0  0  2  0  0  0  0  0  0
  191.4050  176.8140  147.1600 C   0  0  1  0  0  3  0  0  0  0  0  0
  191.6730  177.2220  148.4670 O   0  0  0  0  0  0  0  0  0  0  0  0
  192.9510  176.8030  148.6990 N   0  0  0  0  0  2  0  0  0  0  0  0
  192.1480  175.5360  146.9810 C   0  0  0  0  0  2  0  0  0  0  0  0
  189.2090  176.0040  143.2490 C   0  0  0  0  0  1  0  0  0  0  0  0
  188.4140  177.2750  142.9230 C   0  0  1  0  0  0  0  0  0  0  0  0
  188.0750  177.2750  141.4890 N   0  0  0  0  0  2  0  0  0  0  0  0
  188.7040  178.4000  140.8010 C   0  0  0  0  0  2  0  0  0  0  0  0
  189.1860  177.9510  139.4360 C   0  0  0  0  0  2  0  0  0  0  0  0
  188.9300  179.0000  138.4640 N   0  0  0  0  0  1  0  0  0  0  0  0
  189.3530  178.4550  143.1750 C   0  0  0  0  0  2  0  0  0  0  0  0
  190.5600  178.0210  143.7310 O   0  0  0  0  0  0  0  0  0  0  0  0
  191.2950  179.1830  143.9610 C   0  0  0  0  0  1  0  0  0  0  0  0
  1 19  1  1  0  0  0
  2 10  1  0  0  0  0
  2 14  2  0  0  0  0
  3 11  1  0  0  0  0
  4 16  2  0  0  0  0
  5 17  1  0  0  0  0
  6 15  1  0  0  0  0
  6  4  1  0  0  0  0
  7 12  1  0  0  0  0
  7  5  2  0  0  0  0
  9  6  2  0  0  0  0
 10 13  1  0  0  0  0
 11  8  1  0  0  0  0
 11 17  2  0  0  0  0
 12  1  1  6  0  0  0
 12  5  1  0  0  0  0
 13  3  2  0  0  0  0
 13  7  1  0  0  0  0
 14  3  1  0  0  0  0
 15  2  1  0  0  0  0
 16 14  1  0  0  0  0
 19 18  1  1  0  0  0
 19 21  1  0  0  0  0
 21 22  1  0  0  0  0
 21 20  2  0  0  0  0
 22 23  1  0  0  0  0
 24 27  1  0  0  0  0
 25 23  1  1  0  0  0
 25 26  1  0  0  0  0
 26 27  1  0  0  0  0
 28 25  1  0  0  0  0
 28 24  1  0  0  0  0
 30 35  1  0  0  0  0
 30 29  1  1  0  0  0
 30  1  1  0  0  0  0
 31 30  1  0  0  0  0
 32 31  1  0  0  0  0
 33 32  1  0  0  0  0
 34 33  1  0  0  0  0
 35 36  1  0  0  0  0
 36 37  1  0  0  0  0
M  END
>  <MODEL>
6

>  <REMARK>
 VINA RESULT:      -6.1      2.093      3.730
  Name = 
  12 active torsions:
  status: ('A' for Active; 'I' for Inactive)
    1  A    between atoms: N_7  and  C_29
    2  A    between atoms: N_7  and  C_36
    3  A    between atoms: C_8  and  C_28
    4  A    between atoms: C_13  and  O_14
    5  A    between atoms: C_13  and  C_29
    6  A    between atoms: O_15  and  C_20
    7  A    between atoms: O_15  and  C_28
    8  A    between atoms: C_16  and  C_23
    9  A    between atoms: C_16  and  C_24
   10  A    between atoms: C_16  and  C_29
   11  A    between atoms: C_18  and  C_36
   12  A    between atoms: C_20  and  C_23
                            x       y       z     vdW  Elec       q    Type
                         _______ _______ _______ _____ _____    ______ ____

>  <TORSDO>
F 12

$$$$
=
 OpenBabel10222421143D

 37 41  0  0  1  0  0  0  0  0999 V2000
  188.1540  177.8290  142.5870 C   0  0  2  0  0  3  0  0  0  0  0  0
  191.8480  176.5540  138.6450 C   0  0  0  0  0  0  0  0  0  0  0  0
  189.6700  176.9980  138.5060 C   0  0  0  0  0  0  0  0  0  0  0  0
  191.9120  175.0110  136.2620 N   0  0  0  0  0  0  0  0  0  0  0  0
  187.9860  178.2530  140.2210 C   0  0  0  0  0  0  0  0  0  0  0  0
  193.1240  175.1420  137.0300 C   0  0  0  0  0  0  0  0  0  0  0  0
  189.4150  178.1020  140.5240 C   0  0  0  0  0  0  0  0  0  0  0  0
  187.7060  176.5630  136.9240 C   0  0  0  0  0  1  0  0  0  0  0  0
  194.1510  174.5120  136.6690 O   0  0  0  0  0  0  0  0  0  0  0  0
  191.5560  177.2220  139.7510 O   0  0  0  0  0  0  0  0  0  0  0  0
  188.2520  177.1290  138.1900 C   0  0  0  0  0  0  0  0  0  0  0  0
  188.5350  178.7570  141.4140 C   0  0  2  0  0  3  0  0  0  0  0  0
  190.2720  177.4790  139.6820 C   0  0  0  0  0  0  0  0  0  0  0  0
  190.7210  176.3800  137.8680 C   0  0  0  0  0  0  0  0  0  0  0  0
  193.1900  176.0050  138.2750 C   0  0  0  0  0  2  0  0  0  0  0  0
  190.7160  175.6300  136.6640 N   0  0  0  0  0  0  0  0  0  0  0  0
  187.3400  177.8020  139.0910 C   0  0  0  0  0  3  0  0  0  0  0  0
  186.3070  177.1240  144.2050 C   0  0  0  0  0  1  0  0  0  0  0  0
  186.8430  178.2450  143.3150 C   0  0  2  0  0  3  0  0  0  0  0  0
  185.6810  180.0100  142.1610 O   0  0  0  0  0  0  0  0  0  0  0  0
  185.7590  178.7710  142.4140 C   0  0  0  0  0  0  0  0  0  0  0  0
  184.8090  177.8780  141.9010 O   0  0  0  0  0  0  0  0  0  0  0  0
  183.8070  178.2980  140.9760 C   0  0  0  0  0  2  0  0  0  0  0  0
  180.5450  179.6070  141.7000 N   0  0  0  0  0  2  0  0  0  0  0  0
  182.4230  178.2770  141.6190 C   0  0  1  0  0  3  0  0  0  0  0  0
  182.4080  179.0030  142.8100 O   0  0  0  0  0  0  0  0  0  0  0  0
  181.1000  179.3620  142.9730 N   0  0  0  0  0  2  0  0  0  0  0  0
  181.3840  178.9030  140.7570 C   0  0  0  0  0  2  0  0  0  0  0  0
  190.4420  178.5610  143.5920 C   0  0  0  0  0  1  0  0  0  0  0  0
  189.3220  177.5120  143.5940 C   0  0  1  0  0  0  0  0  0  0  0  0
  188.8330  177.3350  144.9720 N   0  0  0  0  0  2  0  0  0  0  0  0
  189.8030  177.8380  145.9420 C   0  0  0  0  0  2  0  0  0  0  0  0
  190.1210  176.7500  146.9480 C   0  0  0  0  0  2  0  0  0  0  0  0
  191.5460  176.7590  147.2340 N   0  0  0  0  0  1  0  0  0  0  0  0
  189.9580  176.1930  143.1560 C   0  0  0  0  0  2  0  0  0  0  0  0
  191.3530  176.2900  143.1480 O   0  0  0  0  0  0  0  0  0  0  0  0
  191.7960  175.2560  143.9710 C   0  0  0  0  0  1  0  0  0  0  0  0
  1 19  1  1  0  0  0
  1 30  1  0  0  0  0
  2 10  1  0  0  0  0
  3 13  1  0  0  0  0
  4 16  2  0  0  0  0
  4  6  1  0  0  0  0
  5  7  1  0  0  0  0
  5 12  1  0  0  0  0
  6 15  1  0  0  0  0
  7 12  1  0  0  0  0
  8 11  1  0  0  0  0
  9  6  2  0  0  0  0
 11  3  2  0  0  0  0
 11 17  1  0  0  0  0
 12  1  1  1  0  0  0
 13 10  1  0  0  0  0
 13  7  2  0  0  0  0
 14  3  1  0  0  0  0
 14  2  2  0  0  0  0
 15  2  1  0  0  0  0
 16 14  1  0  0  0  0
 17  5  2  0  0  0  0
 19 18  1  6  0  0  0
 20 21  2  0  0  0  0
 21 19  1  0  0  0  0
 22 21  1  0  0  0  0
 23 22  1  0  0  0  0
 24 27  1  0  0  0  0
 25 23  1  6  0  0  0
 25 26  1  0  0  0  0
 26 27  1  0  0  0  0
 28 25  1  0  0  0  0
 28 24  1  0  0  0  0
 30 29  1  6  0  0  0
 30 31  1  0  0  0  0
 31 32  1  0  0  0  0
 32 33  1  0  0  0  0
 33 34  1  0  0  0  0
 35 30  1  0  0  0  0
 36 35  1  0  0  0  0
 36 37  1  0  0  0  0
M  END
>  <MODEL>
7

>  <REMARK>
 VINA RESULT:      -5.9      1.987      8.068
  Name = 
  12 active torsions:
  status: ('A' for Active; 'I' for Inactive)
    1  A    between atoms: N_7  and  C_29
    2  A    between atoms: N_7  and  C_36
    3  A    between atoms: C_8  and  C_28
    4  A    between atoms: C_13  and  O_14
    5  A    between atoms: C_13  and  C_29
    6  A    between atoms: O_15  and  C_20
    7  A    between atoms: O_15  and  C_28
    8  A    between atoms: C_16  and  C_23
    9  A    between atoms: C_16  and  C_24
   10  A    between atoms: C_16  and  C_29
   11  A    between atoms: C_18  and  C_36
   12  A    between atoms: C_20  and  C_23
                            x       y       z     vdW  Elec       q    Type
                         _______ _______ _______ _____ _____    ______ ____

>  <TORSDO>
F 12

$$$$
=
 OpenBabel10222421143D

 37 41  0  0  1  0  0  0  0  0999 V2000
  186.8360  178.1200  143.0600 C   0  0  2  0  0  3  0  0  0  0  0  0
  188.4140  177.2900  137.8020 C   0  0  0  0  0  0  0  0  0  0  0  0
  186.4590  177.9420  138.6470 C   0  0  0  0  0  0  0  0  0  0  0  0
  187.2840  176.2240  135.4260 N   0  0  0  0  0  0  0  0  0  0  0  0
  185.8140  178.9950  141.0610 C   0  0  0  0  0  0  0  0  0  0  0  0
  188.7050  176.1000  135.6270 C   0  0  0  0  0  0  0  0  0  0  0  0
  187.2020  178.6650  140.7170 C   0  0  0  0  0  0  0  0  0  0  0  0
  183.9870  177.9880  137.9860 C   0  0  0  0  0  1  0  0  0  0  0  0
  189.3910  175.4610  134.7900 O   0  0  0  0  0  0  0  0  0  0  0  0
  188.6930  177.7610  139.0090 O   0  0  0  0  0  0  0  0  0  0  0  0
  185.0720  178.2540  138.9730 C   0  0  0  0  0  0  0  0  0  0  0  0
  186.8620  179.2150  141.9720 C   0  0  2  0  0  3  0  0  0  0  0  0
  187.5450  178.1370  139.5180 C   0  0  0  0  0  0  0  0  0  0  0  0
  187.0590  177.3650  137.5520 C   0  0  0  0  0  0  0  0  0  0  0  0
  189.3950  176.7040  136.8360 C   0  0  0  0  0  2  0  0  0  0  0  0
  186.4590  176.8590  136.3700 N   0  0  0  0  0  0  0  0  0  0  0  0
  184.7110  178.8240  140.2540 C   0  0  0  0  0  3  0  0  0  0  0  0
  185.7670  177.3060  145.2320 C   0  0  0  0  0  1  0  0  0  0  0  0
  186.0130  178.5090  144.3210 C   0  0  2  0  0  3  0  0  0  0  0  0
  184.6480  180.4880  144.1780 O   0  0  0  0  0  0  0  0  0  0  0  0
  184.7240  179.2300  144.0360 C   0  0  0  0  0  0  0  0  0  0  0  0
  183.5970  178.4880  143.6630 O   0  0  0  0  0  0  0  0  0  0  0  0
  182.3480  178.6260  144.3390 C   0  0  0  0  0  2  0  0  0  0  0  0
  179.2890  178.2530  142.4970 N   0  0  0  0  0  2  0  0  0  0  0  0
  181.2510  179.0780  143.3780 C   0  0  1  0  0  3  0  0  0  0  0  0
  181.4770  178.5950  142.0890 O   0  0  0  0  0  0  0  0  0  0  0  0
  180.2410  178.5830  141.5090 N   0  0  0  0  0  2  0  0  0  0  0  0
  179.9070  178.5680  143.7660 C   0  0  0  0  0  2  0  0  0  0  0  0
  188.3260  175.9910  143.2330 C   0  0  0  0  0  1  0  0  0  0  0  0
  188.2410  177.5110  143.4270 C   0  0  1  0  0  0  0  0  0  0  0  0
  189.3360  178.1520  142.6790 N   0  0  0  0  0  2  0  0  0  0  0  0
  190.2380  177.1530  142.1090 C   0  0  0  0  0  2  0  0  0  0  0  0
  191.6700  177.5140  142.4480 C   0  0  0  0  0  2  0  0  0  0  0  0
  191.6920  178.3160  143.6590 N   0  0  0  0  0  1  0  0  0  0  0  0
  188.4800  177.7750  144.9140 C   0  0  0  0  0  2  0  0  0  0  0  0
  189.2420  176.7520  145.4860 O   0  0  0  0  0  0  0  0  0  0  0  0
  189.4710  177.1590  146.7990 C   0  0  0  0  0  1  0  0  0  0  0  0
  1 30  1  0  0  0  0
  1 19  1  1  0  0  0
  2 10  1  0  0  0  0
  3 11  2  0  0  0  0
  3 13  1  0  0  0  0
  4  6  1  0  0  0  0
  4 16  2  0  0  0  0
  5 12  1  0  0  0  0
  6 15  1  0  0  0  0
  7  5  1  0  0  0  0
  7 12  1  0  0  0  0
  8 11  1  0  0  0  0
  9  6  2  0  0  0  0
 10 13  1  0  0  0  0
 11 17  1  0  0  0  0
 12  1  1  1  0  0  0
 13  7  2  0  0  0  0
 14  2  2  0  0  0  0
 14  3  1  0  0  0  0
 15  2  1  0  0  0  0
 16 14  1  0  0  0  0
 17  5  2  0  0  0  0
 19 18  1  6  0  0  0
 21 20  2  0  0  0  0
 21 19  1  0  0  0  0
 22 21  1  0  0  0  0
 22 23  1  0  0  0  0
 24 28  1  0  0  0  0
 25 28  1  0  0  0  0
 25 23  1  1  0  0  0
 26 25  1  0  0  0  0
 27 26  1  0  0  0  0
 27 24  1  0  0  0  0
 30 29  1  6  0  0  0
 30 35  1  0  0  0  0
 31 30  1  0  0  0  0
 32 33  1  0  0  0  0
 32 31  1  0  0  0  0
 33 34  1  0  0  0  0
 35 36  1  0  0  0  0
 36 37  1  0  0  0  0
M  END
>  <MODEL>
8

>  <REMARK>
 VINA RESULT:      -5.8      2.629      7.069
  Name = 
  12 active torsions:
  status: ('A' for Active; 'I' for Inactive)
    1  A    between atoms: N_7  and  C_29
    2  A    between atoms: N_7  and  C_36
    3  A    between atoms: C_8  and  C_28
    4  A    between atoms: C_13  and  O_14
    5  A    between atoms: C_13  and  C_29
    6  A    between atoms: O_15  and  C_20
    7  A    between atoms: O_15  and  C_28
    8  A    between atoms: C_16  and  C_23
    9  A    between atoms: C_16  and  C_24
   10  A    between atoms: C_16  and  C_29
   11  A    between atoms: C_18  and  C_36
   12  A    between atoms: C_20  and  C_23
                            x       y       z     vdW  Elec       q    Type
                         _______ _______ _______ _____ _____    ______ ____

>  <TORSDO>
F 12

$$$$
=
 OpenBabel10222421143D

 37 41  0  0  1  0  0  0  0  0999 V2000
  185.3960  177.0930  137.8620 C   0  0  2  0  0  3  0  0  0  0  0  0
  184.9280  178.8060  143.1220 C   0  0  0  0  0  0  0  0  0  0  0  0
  186.7320  178.3850  141.8860 C   0  0  0  0  0  0  0  0  0  0  0  0
  186.2400  178.3370  145.5960 N   0  0  0  0  0  0  0  0  0  0  0  0
  187.0610  178.2080  139.2010 C   0  0  0  0  0  0  0  0  0  0  0  0
  184.8350  178.6550  145.6120 C   0  0  0  0  0  0  0  0  0  0  0  0
  185.7570  178.5300  139.7920 C   0  0  0  0  0  0  0  0  0  0  0  0
  189.2020  177.7960  142.2090 C   0  0  0  0  0  1  0  0  0  0  0  0
  184.2130  178.6420  146.7050 O   0  0  0  0  0  0  0  0  0  0  0  0
  184.5160  178.8800  141.8650 O   0  0  0  0  0  0  0  0  0  0  0  0
  188.0340  178.0540  141.3190 C   0  0  0  0  0  0  0  0  0  0  0  0
  185.9320  178.4390  138.3940 C   0  0  2  0  0  3  0  0  0  0  0  0
  185.5710  178.6220  141.1290 C   0  0  0  0  0  0  0  0  0  0  0  0
  186.2690  178.4870  143.1770 C   0  0  0  0  0  0  0  0  0  0  0  0
  184.0780  178.9870  144.3400 C   0  0  0  0  0  2  0  0  0  0  0  0
  186.9640  178.2610  144.3940 N   0  0  0  0  0  0  0  0  0  0  0  0
  188.2300  177.9620  139.8870 C   0  0  0  0  0  3  0  0  0  0  0  0
  186.9130  175.2130  137.0310 C   0  0  0  0  0  1  0  0  0  0  0  0
  186.2110  176.5210  136.6660 C   0  0  2  0  0  3  0  0  0  0  0  0
  186.8060  178.2600  135.1110 O   0  0  0  0  0  0  0  0  0  0  0  0
  187.1810  177.4870  136.0430 C   0  0  0  0  0  0  0  0  0  0  0  0
  188.5140  177.4840  136.4710 O   0  0  0  0  0  0  0  0  0  0  0  0
  189.5750  177.0440  135.6240 C   0  0  0  0  0  2  0  0  0  0  0  0
  190.5750  174.1650  137.5200 N   0  0  0  0  0  2  0  0  0  0  0  0
  190.5660  176.1730  136.3920 C   0  0  1  0  0  3  0  0  0  0  0  0
  190.4810  176.4010  137.7660 O   0  0  0  0  0  0  0  0  0  0  0  0
  190.9590  175.2540  138.3310 N   0  0  0  0  0  2  0  0  0  0  0  0
  190.3050  174.7190  136.2110 C   0  0  0  0  0  2  0  0  0  0  0  0
  183.0650  176.2400  138.6490 C   0  0  0  0  0  1  0  0  0  0  0  0
  183.8430  177.0480  137.6030 C   0  0  1  0  0  0  0  0  0  0  0  0
  183.2590  178.3970  137.5070 N   0  0  0  0  0  2  0  0  0  0  0  0
  181.9870  178.4710  138.2220 C   0  0  0  0  0  2  0  0  0  0  0  0
  182.1050  179.4630  139.3610 C   0  0  0  0  0  2  0  0  0  0  0  0
  183.0330  180.5170  138.9890 N   0  0  0  0  0  1  0  0  0  0  0  0
  183.6230  176.3530  136.2600 C   0  0  0  0  0  2  0  0  0  0  0  0
  182.2610  176.2830  135.9520 O   0  0  0  0  0  0  0  0  0  0  0  0
  182.1760  175.4110  134.8680 C   0  0  0  0  0  1  0  0  0  0  0  0
  1 19  1  6  0  0  0
  2 14  2  0  0  0  0
  2 15  1  0  0  0  0
  3 14  1  0  0  0  0
  4  6  1  0  0  0  0
  5  7  2  0  0  0  0
  5 17  1  0  0  0  0
  6  9  2  0  0  0  0
  7 13  1  0  0  0  0
 10  2  1  0  0  0  0
 11  3  1  0  0  0  0
 11  8  1  0  0  0  0
 12  1  1  1  0  0  0
 12  5  1  0  0  0  0
 12  7  1  0  0  0  0
 13 10  1  0  0  0  0
 13  3  2  0  0  0  0
 14 16  1  0  0  0  0
 15  6  1  0  0  0  0
 16  4  2  0  0  0  0
 17 11  2  0  0  0  0
 19 18  1  1  0  0  0
 20 21  2  0  0  0  0
 21 22  1  0  0  0  0
 21 19  1  0  0  0  0
 23 22  1  0  0  0  0
 24 27  1  0  0  0  0
 25 23  1  6  0  0  0
 25 26  1  0  0  0  0
 26 27  1  0  0  0  0
 28 25  1  0  0  0  0
 28 24  1  0  0  0  0
 30  1  1  0  0  0  0
 30 29  1  1  0  0  0
 31 30  1  0  0  0  0
 31 32  1  0  0  0  0
 32 33  1  0  0  0  0
 34 33  1  0  0  0  0
 35 30  1  0  0  0  0
 36 35  1  0  0  0  0
 37 36  1  0  0  0  0
M  END
>  <MODEL>
9

>  <REMARK>
 VINA RESULT:      -5.7      2.906      6.845
  Name = 
  12 active torsions:
  status: ('A' for Active; 'I' for Inactive)
    1  A    between atoms: N_7  and  C_29
    2  A    between atoms: N_7  and  C_36
    3  A    between atoms: C_8  and  C_28
    4  A    between atoms: C_13  and  O_14
    5  A    between atoms: C_13  and  C_29
    6  A    between atoms: O_15  and  C_20
    7  A    between atoms: O_15  and  C_28
    8  A    between atoms: C_16  and  C_23
    9  A    between atoms: C_16  and  C_24
   10  A    between atoms: C_16  and  C_29
   11  A    between atoms: C_18  and  C_36
   12  A    between atoms: C_20  and  C_23
                            x       y       z     vdW  Elec       q    Type
                         _______ _______ _______ _____ _____    ______ ____

>  <TORSDO>
F 12

$$$$
