=
 OpenBabel10222417363D

 67 70  0  0  1  0  0  0  0  0999 V2000
  188.5370  178.0610  144.4530 N   0  0  0  0  0  0  0  0  0  0  0  0
  188.1030  177.4660  145.7340 C   0  0  0  0  0  2  0  0  0  0  0  0
  186.6460  177.3820  145.7110 N   0  0  0  0  0  0  0  0  0  0  0  0
  187.3250  178.2960  143.7840 N   0  0  0  0  0  2  0  0  0  0  0  0
  186.2610  177.8620  144.5900 C   0  0  0  0  0  0  0  0  0  0  0  0
  184.8330  177.9410  144.1770 C   0  0  0  0  0  2  0  0  0  0  0  0
  184.7150  177.8070  142.6660 C   0  0  0  0  0  2  0  0  0  0  0  0
  185.3970  178.9800  141.9700 C   0  0  0  0  0  2  0  0  0  0  0  0
  185.7590  178.6200  140.6670 O   0  0  0  0  0  0  0  0  0  0  0  0
  185.1510  179.5720  139.8410 C   0  0  0  0  0  2  0  0  0  0  0  0
  183.9360  178.9900  139.1900 C   0  0  0  0  0  0  0  0  0  0  0  0
  184.0570  178.1640  138.2980 O   0  0  0  0  0  0  0  0  0  0  0  0
  182.5650  179.4150  139.6260 C   0  0  0  0  0  2  0  0  0  0  0  0
  181.4400  178.5180  139.0890 C   0  0  1  0  0  3  0  0  0  0  0  0
  179.4630  176.3730  141.3070 O   0  0  0  0  0  0  0  0  0  0  0  0
  180.5410  178.0720  140.1480 N   0  0  0  0  0  2  0  0  0  0  0  0
  180.2350  176.6910  140.3660 C   0  0  0  0  0  0  0  0  0  0  0  0
  180.8190  175.6220  139.4960 C   0  0  0  0  0  2  0  0  0  0  0  0
  179.8060  175.1940  138.4440 C   0  0  0  0  0  2  0  0  0  0  0  0
  182.0020  174.0730  137.3470 O   0  0  0  0  0  0  0  0  0  0  0  0
  180.5000  173.9530  137.3700 S   0  0  0  0  0  0  0  0  0  0  0  0
  180.1120  172.5920  137.8770 O   0  0  0  0  0  0  0  0  0  0  0  0
  180.9660  173.9890  134.8290 C   0  0  0  0  0  1  0  0  0  0  0  0
  179.8690  174.1750  135.7670 N   0  0  0  0  0  2  0  0  0  0  0  0
  180.8300  178.5960  136.6980 C   0  0  0  0  0  3  0  0  0  0  0  0
  180.6630  179.0900  137.9310 C   0  0  0  0  0  0  0  0  0  0  0  0
  179.7170  180.1420  138.1560 N   0  0  0  0  0  2  0  0  0  0  0  0
  180.0600  181.5580  138.1420 C   0  0  0  0  0  2  0  0  0  0  0  0
  178.9510  183.5960  137.2580 C   0  0  0  0  0  1  0  0  0  0  0  0
  180.5900  182.3740  135.8700 C   0  0  0  0  0  1  0  0  0  0  0  0
  179.4910  182.2230  136.9000 C   0  0  0  0  0  3  0  0  0  0  0  0
  181.7900  177.4980  136.3760 C   0  0  0  0  0  2  0  0  0  0  0  0
  183.4520  177.1520  134.9700 C   0  0  0  0  0  1  0  0  0  0  0  0
  182.1130  177.5370  135.0180 O   0  0  0  0  0  0  0  0  0  0  0  0
  189.2720  177.0360  143.6970 C   0  0  1  0  0  3  0  0  0  0  0  0
  188.4220  175.8680  143.3840 C   0  0  0  0  0  0  0  0  0  0  0  0
  187.7260  174.9190  143.1300 C   0  0  0  0  0  3  0  0  0  0  0  0
  189.8780  177.5930  142.4810 N   0  0  0  0  0  2  0  0  0  0  0  0
  188.8500  178.1370  141.5920 C   0  0  0  0  0  2  0  0  0  0  0  0
  188.7120  178.6090  139.2730 O   0  0  0  0  0  0  0  0  0  0  0  0
  189.2590  177.9240  140.1760 C   0  0  0  0  0  0  0  0  0  0  0  0
  191.0830  175.7260  137.3780 C   0  0  1  0  0  3  0  0  0  0  0  0
  190.4150  176.5050  138.4650 N   0  0  0  0  0  0  0  0  0  0  0  0
  190.2570  176.9050  139.8230 C   0  0  0  0  0  0  0  0  0  0  0  0
  190.9630  176.3710  140.7180 O   0  0  0  0  0  0  0  0  0  0  0  0
  189.9980  176.5160  137.0300 C   0  0  2  0  0  3  0  0  0  0  0  0
  194.3120  174.1420  137.5820 C   0  0  0  0  0  0  0  0  0  0  0  0
  194.0320  175.0120  138.5690 C   0  0  0  0  0  3  0  0  0  0  0  0
  193.3400  176.3310  138.3400 C   0  0  0  0  0  2  0  0  0  0  0  0
  195.4260  172.0320  136.7220 C   0  0  0  0  0  0  0  0  0  0  0  0
  196.1440  173.1220  138.7150 O   0  0  0  0  0  1  0  0  0  0  0  0
  192.4740  176.3290  137.0810 C   0  0  1  0  0  3  0  0  0  0  0  0
  195.0140  172.8480  137.9310 C   0  0  1  0  0  3  0  0  0  0  0  0
  193.7330  174.3270  136.1950 C   0  0  2  0  0  3  0  0  0  0  0  0
  194.7090  173.8390  135.1460 C   0  0  0  0  0  2  0  0  0  0  0  0
  194.9280  172.3490  135.3380 C   0  0  0  0  0  2  0  0  0  0  0  0
  193.2710  175.7540  135.8980 C   0  0  0  0  0  2  0  0  0  0  0  0
  195.9640  170.8320  136.9250 C   0  0  0  0  0  2  0  0  0  0  0  0
  187.6360  176.1940  137.5120 C   0  0  0  0  0  2  0  0  0  0  0  0
  188.7150  175.7450  136.8730 C   0  0  0  0  0  0  0  0  0  0  0  0
  188.6550  174.3910  136.2120 C   0  0  0  0  0  2  0  0  0  0  0  0
  187.4930  173.5540  136.7390 C   0  0  0  0  0  2  0  0  0  0  0  0
  186.9000  172.6970  135.6630 C   0  0  0  0  0  0  0  0  0  0  0  0
  187.5260  172.4830  134.6350 O   0  0  0  0  0  0  0  0  0  0  0  0
  185.5320  172.1160  135.8530 C   0  0  2  0  0  3  0  0  0  0  0  0
  184.7160  172.4590  134.7770 O   0  0  0  0  0  1  0  0  0  0  0  0
  184.9110  172.6180  137.1450 C   0  0  0  0  0  1  0  0  0  0  0  0
  1  2  1  0  0  0  0
  3  2  1  0  0  0  0
  4  1  1  0  0  0  0
  4  5  1  0  0  0  0
  5  3  2  0  0  0  0
  6  5  1  0  0  0  0
  7  6  1  0  0  0  0
  8  7  1  0  0  0  0
  9  8  1  0  0  0  0
 10  9  1  0  0  0  0
 11 13  1  0  0  0  0
 11 10  1  0  0  0  0
 12 11  2  0  0  0  0
 14 13  1  1  0  0  0
 14 16  1  0  0  0  0
 16 17  1  0  0  0  0
 17 15  2  0  0  0  0
 18 17  1  0  0  0  0
 19 18  1  0  0  0  0
 20 21  2  0  0  0  0
 21 22  2  0  0  0  0
 21 19  1  0  0  0  0
 23 24  1  0  0  0  0
 24 21  1  0  0  0  0
 25 26  2  0  0  0  0
 26 27  1  0  0  0  0
 26 14  1  0  0  0  0
 28 27  1  0  0  0  0
 30 31  1  0  0  0  0
 31 29  1  0  0  0  0
 31 28  1  0  0  0  0
 32 25  1  0  0  0  0
 33 34  1  0  0  0  0
 34 32  1  0  0  0  0
 35 36  1  6  0  0  0
 35  1  1  0  0  0  0
 37 36  3  0  0  0  0
 38 35  1  0  0  0  0
 39 38  1  0  0  0  0
 40 41  2  0  0  0  0
 41 39  1  0  0  0  0
 42 43  1  1  0  0  0
 43 44  1  0  0  0  0
 44 41  1  0  0  0  0
 44 45  2  0  0  0  0
 46 60  1  1  0  0  0
 46 42  1  0  0  0  0
 46 43  1  0  0  0  0
 47 53  1  0  0  0  0
 47 48  2  0  0  0  0
 49 48  1  0  0  0  0
 50 58  2  0  0  0  0
 50 53  1  0  0  0  0
 52 57  1  6  0  0  0
 52 42  1  0  0  0  0
 52 49  1  0  0  0  0
 53 51  1  6  0  0  0
 54 55  1  6  0  0  0
 54 47  1  0  0  0  0
 55 56  1  0  0  0  0
 56 50  1  0  0  0  0
 57 54  1  0  0  0  0
 60 59  2  0  0  0  0
 61 62  1  0  0  0  0
 61 60  1  0  0  0  0
 63 65  1  0  0  0  0
 63 62  1  0  0  0  0
 64 63  2  0  0  0  0
 65 67  1  1  0  0  0
 66 65  1  0  0  0  0
M  END
>  <MODEL>
1

>  <REMARK>
 VINA RESULT:      -3.7      0.000      0.000
  Name = 
  31 active torsions:
  status: ('A' for Active; 'I' for Inactive)
    1  A    between atoms: C_3  and  C_5
    2  A    between atoms: C_5  and  C_46
    3  A    between atoms: N_6  and  C_20
    4  A    between atoms: C_7  and  C_37
    5  A    between atoms: O_11  and  C_40
    6  A    between atoms: O_11  and  C_50
    7  A    between atoms: N_13  and  C_63
    8  A    between atoms: C_14  and  S_22
    9  A    between atoms: C_14  and  C_64
   10  A    between atoms: C_15  and  C_32
   11  A    between atoms: C_15  and  C_46
   12  A    between atoms: C_17  and  C_57
   13  A    between atoms: C_18  and  C_38
   14  A    between atoms: C_18  and  C_50
   15  A    between atoms: C_19  and  C_39
   16  A    between atoms: C_19  and  N_62
   17  A    between atoms: C_20  and  C_24
   18  A    between atoms: C_20  and  N_28
   19  A    between atoms: S_22  and  N_65
   20  A    between atoms: C_23  and  C_40
   21  A    between atoms: C_23  and  C_42
   22  A    between atoms: C_26  and  N_62
   23  A    between atoms: C_26  and  C_63
   24  A    between atoms: N_28  and  C_60
   25  A    between atoms: C_31  and  C_44
   26  A    between atoms: C_32  and  C_48
   27  A    between atoms: C_38  and  C_67
   28  A    between atoms: C_42  and  C_63
   29  A    between atoms: C_44  and  C_60
   30  A    between atoms: C_47  and  C_64
   31  A    between atoms: O_55  and  C_57
                            x       y       z     vdW  Elec       q    Type
                         _______ _______ _______ _____ _____    ______ ____

>  <TORSDO>
F 31

$$$$
=
 OpenBabel10222417363D

 67 70  0  0  1  0  0  0  0  0999 V2000
  190.3150  176.9510  146.1150 N   0  0  0  0  0  0  0  0  0  0  0  0
  191.7250  176.7960  145.7010 C   0  0  0  0  0  2  0  0  0  0  0  0
  191.7330  176.1900  144.3730 N   0  0  0  0  0  0  0  0  0  0  0  0
  189.6040  176.4200  145.0260 N   0  0  0  0  0  2  0  0  0  0  0  0
  190.5120  176.0010  144.0420 C   0  0  0  0  0  0  0  0  0  0  0  0
  190.0970  175.4090  142.7400 C   0  0  0  0  0  2  0  0  0  0  0  0
  190.5780  176.2800  141.5890 C   0  0  0  0  0  2  0  0  0  0  0  0
  189.5000  177.2810  141.1880 C   0  0  0  0  0  2  0  0  0  0  0  0
  189.0410  177.0000  139.8960 O   0  0  0  0  0  0  0  0  0  0  0  0
  190.0600  177.4360  139.0410 C   0  0  0  0  0  2  0  0  0  0  0  0
  189.4880  178.2850  137.9500 C   0  0  0  0  0  0  0  0  0  0  0  0
  188.8020  179.2560  138.2280 O   0  0  0  0  0  0  0  0  0  0  0  0
  189.7510  177.9490  136.5110 C   0  0  0  0  0  2  0  0  0  0  0  0
  190.3270  176.5410  136.3010 C   0  0  1  0  0  3  0  0  0  0  0  0
  193.1600  175.4900  138.3740 O   0  0  0  0  0  0  0  0  0  0  0  0
  191.1230  176.0980  137.4410 N   0  0  0  0  0  2  0  0  0  0  0  0
  192.5300  175.8570  137.3480 C   0  0  0  0  0  0  0  0  0  0  0  0
  193.2630  176.0370  136.0560 C   0  0  0  0  0  2  0  0  0  0  0  0
  194.7430  176.2700  136.3240 C   0  0  0  0  0  2  0  0  0  0  0  0
  194.8590  174.0460  134.8010 O   0  0  0  0  0  0  0  0  0  0  0  0
  195.7210  174.9370  135.6570 S   0  0  0  0  0  0  0  0  0  0  0  0
  196.8320  175.5130  134.8250 O   0  0  0  0  0  0  0  0  0  0  0  0
  195.3030  173.3130  137.6220 C   0  0  0  0  0  1  0  0  0  0  0  0
  196.3950  174.0200  136.9680 N   0  0  0  0  0  2  0  0  0  0  0  0
  188.1450  175.8480  135.3770 C   0  0  0  0  0  3  0  0  0  0  0  0
  189.3200  175.4910  135.9080 C   0  0  0  0  0  0  0  0  0  0  0  0
  189.6350  174.1030  136.0710 N   0  0  0  0  0  2  0  0  0  0  0  0
  188.9070  173.0230  135.4180 C   0  0  0  0  0  2  0  0  0  0  0  0
  186.9920  173.2660  136.9790 C   0  0  0  0  0  1  0  0  0  0  0  0
  187.3150  171.1590  135.7300 C   0  0  0  0  0  1  0  0  0  0  0  0
  188.0240  172.3020  136.4220 C   0  0  0  0  0  3  0  0  0  0  0  0
  187.7370  177.2700  135.1680 C   0  0  0  0  0  2  0  0  0  0  0  0
  185.5620  177.2450  135.5190 C   0  0  0  0  0  1  0  0  0  0  0  0
  186.7670  177.6260  136.1060 O   0  0  0  0  0  0  0  0  0  0  0  0
  190.0130  178.3880  146.1850 C   0  0  1  0  0  3  0  0  0  0  0  0
  190.5950  179.1290  145.0480 C   0  0  0  0  0  0  0  0  0  0  0  0
  191.0690  179.7310  144.1180 C   0  0  0  0  0  3  0  0  0  0  0  0
  188.5690  178.6310  146.2940 N   0  0  0  0  0  2  0  0  0  0  0  0
  187.9790  178.8480  144.9730 C   0  0  0  0  0  2  0  0  0  0  0  0
  185.9320  178.1800  145.9660 O   0  0  0  0  0  0  0  0  0  0  0  0
  186.6330  178.2110  144.9220 C   0  0  0  0  0  0  0  0  0  0  0  0
  184.0990  178.2620  141.8290 C   0  0  1  0  0  3  0  0  0  0  0  0
  185.0520  178.1820  142.9790 N   0  0  0  0  0  0  0  0  0  0  0  0
  186.1380  177.5910  143.6850 C   0  0  0  0  0  0  0  0  0  0  0  0
  186.6600  176.5300  143.2530 O   0  0  0  0  0  0  0  0  0  0  0  0
  183.9520  179.1860  142.8510 C   0  0  2  0  0  3  0  0  0  0  0  0
  183.0250  178.1520  138.3930 C   0  0  0  0  0  0  0  0  0  0  0  0
  183.9810  177.2680  138.7270 C   0  0  0  0  0  3  0  0  0  0  0  0
  185.1440  177.6050  139.6250 C   0  0  0  0  0  2  0  0  0  0  0  0
  180.9870  178.8240  137.0400 C   0  0  0  0  0  0  0  0  0  0  0  0
  182.4440  177.0710  136.3500 O   0  0  0  0  0  1  0  0  0  0  0  0
  184.8390  178.7650  140.5700 C   0  0  1  0  0  3  0  0  0  0  0  0
  181.9050  177.7010  137.4800 C   0  0  1  0  0  3  0  0  0  0  0  0
  182.9240  179.4910  139.0930 C   0  0  2  0  0  3  0  0  0  0  0  0
  182.4290  180.5530  138.1350 C   0  0  0  0  0  2  0  0  0  0  0  0
  181.0270  180.1850  137.6810 C   0  0  0  0  0  2  0  0  0  0  0  0
  184.2150  179.9300  139.7850 C   0  0  0  0  0  2  0  0  0  0  0  0
  179.9160  178.5150  136.3140 C   0  0  0  0  0  2  0  0  0  0  0  0
  183.1320  178.8650  145.1190 C   0  0  0  0  0  2  0  0  0  0  0  0
  182.8480  178.8490  143.8180 C   0  0  0  0  0  0  0  0  0  0  0  0
  181.5190  178.2920  143.3720 C   0  0  0  0  0  2  0  0  0  0  0  0
  180.4940  179.3980  143.1300 C   0  0  0  0  0  2  0  0  0  0  0  0
  180.1030  179.4780  141.6870 C   0  0  0  0  0  0  0  0  0  0  0  0
  180.0700  178.4650  141.0030 O   0  0  0  0  0  0  0  0  0  0  0  0
  179.7630  180.8090  141.0880 C   0  0  2  0  0  3  0  0  0  0  0  0
  179.0580  181.5790  142.0100 O   0  0  0  0  0  1  0  0  0  0  0  0
  178.9340  180.6340  139.8270 C   0  0  0  0  0  1  0  0  0  0  0  0
  1 35  1  0  0  0  0
  2  1  1  0  0  0  0
  3  2  1  0  0  0  0
  4  1  1  0  0  0  0
  5  3  2  0  0  0  0
  5  4  1  0  0  0  0
  6  5  1  0  0  0  0
  7  6  1  0  0  0  0
  8  7  1  0  0  0  0
  9  8  1  0  0  0  0
 10  9  1  0  0  0  0
 11 12  2  0  0  0  0
 11 10  1  0  0  0  0
 13 11  1  0  0  0  0
 14 13  1  1  0  0  0
 14 16  1  0  0  0  0
 17 16  1  0  0  0  0
 17 15  2  0  0  0  0
 18 19  1  0  0  0  0
 18 17  1  0  0  0  0
 20 21  2  0  0  0  0
 21 19  1  0  0  0  0
 21 24  1  0  0  0  0
 22 21  2  0  0  0  0
 24 23  1  0  0  0  0
 25 26  2  0  0  0  0
 26 27  1  0  0  0  0
 26 14  1  0  0  0  0
 28 27  1  0  0  0  0
 28 31  1  0  0  0  0
 30 31  1  0  0  0  0
 31 29  1  0  0  0  0
 32 25  1  0  0  0  0
 32 34  1  0  0  0  0
 33 34  1  0  0  0  0
 35 36  1  6  0  0  0
 35 38  1  0  0  0  0
 37 36  3  0  0  0  0
 39 38  1  0  0  0  0
 41 39  1  0  0  0  0
 41 40  2  0  0  0  0
 42 46  1  0  0  0  0
 42 43  1  1  0  0  0
 43 44  1  0  0  0  0
 44 41  1  0  0  0  0
 45 44  2  0  0  0  0
 46 43  1  0  0  0  0
 46 60  1  1  0  0  0
 47 48  2  0  0  0  0
 47 54  1  0  0  0  0
 48 49  1  0  0  0  0
 50 53  1  0  0  0  0
 50 56  1  0  0  0  0
 52 49  1  6  0  0  0
 52 42  1  0  0  0  0
 53 51  1  6  0  0  0
 53 47  1  0  0  0  0
 54 55  1  6  0  0  0
 54 57  1  0  0  0  0
 56 55  1  0  0  0  0
 57 52  1  0  0  0  0
 58 50  2  0  0  0  0
 60 59  2  0  0  0  0
 61 60  1  0  0  0  0
 62 61  1  0  0  0  0
 63 62  1  0  0  0  0
 64 63  2  0  0  0  0
 65 67  1  6  0  0  0
 65 63  1  0  0  0  0
 65 66  1  0  0  0  0
M  END
>  <MODEL>
2

>  <REMARK>
 VINA RESULT:      -3.1      3.374     10.339
  Name = 
  31 active torsions:
  status: ('A' for Active; 'I' for Inactive)
    1  A    between atoms: C_3  and  C_5
    2  A    between atoms: C_5  and  C_46
    3  A    between atoms: N_6  and  C_20
    4  A    between atoms: C_7  and  C_37
    5  A    between atoms: O_11  and  C_40
    6  A    between atoms: O_11  and  C_50
    7  A    between atoms: N_13  and  C_63
    8  A    between atoms: C_14  and  S_22
    9  A    between atoms: C_14  and  C_64
   10  A    between atoms: C_15  and  C_32
   11  A    between atoms: C_15  and  C_46
   12  A    between atoms: C_17  and  C_57
   13  A    between atoms: C_18  and  C_38
   14  A    between atoms: C_18  and  C_50
   15  A    between atoms: C_19  and  C_39
   16  A    between atoms: C_19  and  N_62
   17  A    between atoms: C_20  and  C_24
   18  A    between atoms: C_20  and  N_28
   19  A    between atoms: S_22  and  N_65
   20  A    between atoms: C_23  and  C_40
   21  A    between atoms: C_23  and  C_42
   22  A    between atoms: C_26  and  N_62
   23  A    between atoms: C_26  and  C_63
   24  A    between atoms: N_28  and  C_60
   25  A    between atoms: C_31  and  C_44
   26  A    between atoms: C_32  and  C_48
   27  A    between atoms: C_38  and  C_67
   28  A    between atoms: C_42  and  C_63
   29  A    between atoms: C_44  and  C_60
   30  A    between atoms: C_47  and  C_64
   31  A    between atoms: O_55  and  C_57
                            x       y       z     vdW  Elec       q    Type
                         _______ _______ _______ _____ _____    ______ ____

>  <TORSDO>
F 31

$$$$
=
 OpenBabel10222417363D

 67 70  0  0  1  0  0  0  0  0999 V2000
  188.9280  178.4670  144.6520 N   0  0  0  0  0  0  0  0  0  0  0  0
  188.6360  177.8650  145.9690 C   0  0  0  0  0  2  0  0  0  0  0  0
  187.2030  177.5930  146.0230 N   0  0  0  0  0  0  0  0  0  0  0  0
  187.6660  178.5210  144.0400 N   0  0  0  0  0  2  0  0  0  0  0  0
  186.7070  177.9820  144.9100 C   0  0  0  0  0  0  0  0  0  0  0  0
  185.2630  177.8620  144.5680 C   0  0  0  0  0  2  0  0  0  0  0  0
  185.0860  177.7670  143.0600 C   0  0  0  0  0  2  0  0  0  0  0  0
  185.5620  179.0480  142.3830 C   0  0  0  0  0  2  0  0  0  0  0  0
  186.1060  178.7540  141.1280 O   0  0  0  0  0  0  0  0  0  0  0  0
  185.3620  179.5150  140.2180 C   0  0  0  0  0  2  0  0  0  0  0  0
  184.3610  178.6490  139.5210 C   0  0  0  0  0  0  0  0  0  0  0  0
  184.6920  177.5520  139.0960 O   0  0  0  0  0  0  0  0  0  0  0  0
  182.9480  179.1190  139.3380 C   0  0  0  0  0  2  0  0  0  0  0  0
  182.0150  178.0550  138.7420 C   0  0  1  0  0  3  0  0  0  0  0  0
  179.7130  175.8100  140.4980 O   0  0  0  0  0  0  0  0  0  0  0  0
  181.0960  177.5120  139.7360 N   0  0  0  0  0  2  0  0  0  0  0  0
  180.4860  176.2250  139.5960 C   0  0  0  0  0  0  0  0  0  0  0  0
  180.7530  175.3680  138.3990 C   0  0  0  0  0  2  0  0  0  0  0  0
  179.7330  174.2410  138.3270 C   0  0  0  0  0  2  0  0  0  0  0  0
  179.2310  173.3970  135.8130 O   0  0  0  0  0  0  0  0  0  0  0  0
  180.1240  173.1220  136.9960 S   0  0  0  0  0  0  0  0  0  0  0  0
  181.5600  173.3150  136.5980 O   0  0  0  0  0  0  0  0  0  0  0  0
  178.9810  170.8370  136.6090 C   0  0  0  0  0  1  0  0  0  0  0  0
  179.8890  171.4900  137.5420 N   0  0  0  0  0  2  0  0  0  0  0  0
  181.4870  177.8480  136.3390 C   0  0  0  0  0  3  0  0  0  0  0  0
  181.2730  178.4780  137.5000 C   0  0  0  0  0  0  0  0  0  0  0  0
  180.3110  179.5380  137.5690 N   0  0  0  0  0  2  0  0  0  0  0  0
  180.5750  180.9040  137.1350 C   0  0  0  0  0  2  0  0  0  0  0  0
  179.0000  182.8110  136.9250 C   0  0  0  0  0  1  0  0  0  0  0  0
  179.7520  181.5950  134.9100 C   0  0  0  0  0  1  0  0  0  0  0  0
  179.3820  181.4510  136.3710 C   0  0  0  0  0  3  0  0  0  0  0  0
  182.4670  176.7320  136.1790 C   0  0  0  0  0  2  0  0  0  0  0  0
  184.3760  177.7530  135.7680 C   0  0  0  0  0  1  0  0  0  0  0  0
  183.3590  177.0310  135.1470 O   0  0  0  0  0  0  0  0  0  0  0  0
  189.7540  177.5210  143.8880 C   0  0  1  0  0  3  0  0  0  0  0  0
  189.0700  176.2250  143.6960 C   0  0  0  0  0  0  0  0  0  0  0  0
  188.5120  175.1690  143.5430 C   0  0  0  0  0  3  0  0  0  0  0  0
  190.1810  178.0920  142.6040 N   0  0  0  0  0  2  0  0  0  0  0  0
  189.0320  178.3030  141.7230 C   0  0  0  0  0  2  0  0  0  0  0  0
  189.0260  178.9600  139.4450 O   0  0  0  0  0  0  0  0  0  0  0  0
  189.4610  178.1510  140.3050 C   0  0  0  0  0  0  0  0  0  0  0  0
  191.2120  176.0470  137.3900 C   0  0  1  0  0  3  0  0  0  0  0  0
  190.5630  176.7860  138.5170 N   0  0  0  0  0  0  0  0  0  0  0  0
  190.3480  177.0530  139.8990 C   0  0  0  0  0  0  0  0  0  0  0  0
  190.9090  176.3350  140.7680 O   0  0  0  0  0  0  0  0  0  0  0  0
  190.2660  177.0080  137.0690 C   0  0  2  0  0  3  0  0  0  0  0  0
  194.1670  173.9940  137.2320 C   0  0  0  0  0  0  0  0  0  0  0  0
  193.9730  174.6380  138.3970 C   0  0  0  0  0  3  0  0  0  0  0  0
  193.4880  176.0620  138.4860 C   0  0  0  0  0  2  0  0  0  0  0  0
  195.0030  172.0050  135.8990 C   0  0  0  0  0  0  0  0  0  0  0  0
  195.7830  172.4730  138.1000 O   0  0  0  0  0  1  0  0  0  0  0  0
  192.6860  176.4870  137.2570 C   0  0  1  0  0  3  0  0  0  0  0  0
  194.6600  172.5640  137.2650 C   0  0  1  0  0  3  0  0  0  0  0  0
  193.6820  174.5870  135.9250 C   0  0  2  0  0  3  0  0  0  0  0  0
  194.6210  174.2200  134.7970 C   0  0  0  0  0  2  0  0  0  0  0  0
  194.6150  172.7110  134.6270 C   0  0  0  0  0  2  0  0  0  0  0  0
  193.4430  176.0960  135.9760 C   0  0  0  0  0  2  0  0  0  0  0  0
  195.3530  170.7240  135.8110 C   0  0  0  0  0  2  0  0  0  0  0  0
  188.1900  177.0480  135.8010 C   0  0  0  0  0  2  0  0  0  0  0  0
  188.9120  176.4370  136.7390 C   0  0  0  0  0  0  0  0  0  0  0  0
  188.2620  175.3560  137.5660 C   0  0  0  0  0  2  0  0  0  0  0  0
  187.5100  174.3530  136.6950 C   0  0  0  0  0  2  0  0  0  0  0  0
  188.4480  173.5470  135.8500 C   0  0  0  0  0  0  0  0  0  0  0  0
  188.4370  173.6690  134.6340 O   0  0  0  0  0  0  0  0  0  0  0  0
  189.3900  172.5840  136.5080 C   0  0  2  0  0  3  0  0  0  0  0  0
  190.0970  173.2270  137.5200 O   0  0  0  0  0  1  0  0  0  0  0  0
  190.3610  172.0060  135.4930 C   0  0  0  0  0  1  0  0  0  0  0  0
  1  2  1  0  0  0  0
  2  3  1  0  0  0  0
  4  1  1  0  0  0  0
  4  5  1  0  0  0  0
  5  3  2  0  0  0  0
  6  5  1  0  0  0  0
  7  6  1  0  0  0  0
  8  7  1  0  0  0  0
  9  8  1  0  0  0  0
 10  9  1  0  0  0  0
 11 10  1  0  0  0  0
 12 11  2  0  0  0  0
 13 11  1  0  0  0  0
 14 13  1  1  0  0  0
 14 16  1  0  0  0  0
 17 16  1  0  0  0  0
 17 15  2  0  0  0  0
 18 17  1  0  0  0  0
 19 18  1  0  0  0  0
 20 21  2  0  0  0  0
 21 24  1  0  0  0  0
 21 19  1  0  0  0  0
 22 21  2  0  0  0  0
 23 24  1  0  0  0  0
 25 26  2  0  0  0  0
 26 27  1  0  0  0  0
 26 14  1  0  0  0  0
 28 27  1  0  0  0  0
 30 31  1  0  0  0  0
 31 29  1  0  0  0  0
 31 28  1  0  0  0  0
 32 25  1  0  0  0  0
 34 33  1  0  0  0  0
 34 32  1  0  0  0  0
 35 36  1  6  0  0  0
 35  1  1  0  0  0  0
 37 36  3  0  0  0  0
 38 35  1  0  0  0  0
 39 38  1  0  0  0  0
 40 41  2  0  0  0  0
 41 39  1  0  0  0  0
 42 43  1  1  0  0  0
 43 44  1  0  0  0  0
 44 41  1  0  0  0  0
 44 45  2  0  0  0  0
 46 60  1  1  0  0  0
 46 42  1  0  0  0  0
 46 43  1  0  0  0  0
 47 53  1  0  0  0  0
 47 48  2  0  0  0  0
 48 49  1  0  0  0  0
 50 53  1  0  0  0  0
 52 57  1  6  0  0  0
 52 42  1  0  0  0  0
 52 49  1  0  0  0  0
 53 51  1  1  0  0  0
 54 55  1  6  0  0  0
 54 57  1  0  0  0  0
 54 47  1  0  0  0  0
 56 55  1  0  0  0  0
 56 50  1  0  0  0  0
 58 50  2  0  0  0  0
 59 60  2  0  0  0  0
 60 61  1  0  0  0  0
 62 61  1  0  0  0  0
 63 65  1  0  0  0  0
 63 62  1  0  0  0  0
 64 63  2  0  0  0  0
 65 67  1  6  0  0  0
 65 66  1  0  0  0  0
M  END
>  <MODEL>
3

>  <REMARK>
 VINA RESULT:      -3.0      1.241      1.619
  Name = 
  31 active torsions:
  status: ('A' for Active; 'I' for Inactive)
    1  A    between atoms: C_3  and  C_5
    2  A    between atoms: C_5  and  C_46
    3  A    between atoms: N_6  and  C_20
    4  A    between atoms: C_7  and  C_37
    5  A    between atoms: O_11  and  C_40
    6  A    between atoms: O_11  and  C_50
    7  A    between atoms: N_13  and  C_63
    8  A    between atoms: C_14  and  S_22
    9  A    between atoms: C_14  and  C_64
   10  A    between atoms: C_15  and  C_32
   11  A    between atoms: C_15  and  C_46
   12  A    between atoms: C_17  and  C_57
   13  A    between atoms: C_18  and  C_38
   14  A    between atoms: C_18  and  C_50
   15  A    between atoms: C_19  and  C_39
   16  A    between atoms: C_19  and  N_62
   17  A    between atoms: C_20  and  C_24
   18  A    between atoms: C_20  and  N_28
   19  A    between atoms: S_22  and  N_65
   20  A    between atoms: C_23  and  C_40
   21  A    between atoms: C_23  and  C_42
   22  A    between atoms: C_26  and  N_62
   23  A    between atoms: C_26  and  C_63
   24  A    between atoms: N_28  and  C_60
   25  A    between atoms: C_31  and  C_44
   26  A    between atoms: C_32  and  C_48
   27  A    between atoms: C_38  and  C_67
   28  A    between atoms: C_42  and  C_63
   29  A    between atoms: C_44  and  C_60
   30  A    between atoms: C_47  and  C_64
   31  A    between atoms: O_55  and  C_57
                            x       y       z     vdW  Elec       q    Type
                         _______ _______ _______ _____ _____    ______ ____

>  <TORSDO>
F 31

$$$$
=
 OpenBabel10222417363D

 67 70  0  0  1  0  0  0  0  0999 V2000
  186.5050  178.7490  142.9180 N   0  0  0  0  0  0  0  0  0  0  0  0
  187.0240  179.9810  142.2880 C   0  0  0  0  0  2  0  0  0  0  0  0
  188.0500  179.5870  141.3260 N   0  0  0  0  0  0  0  0  0  0  0  0
  187.2600  177.7360  142.3050 N   0  0  0  0  0  2  0  0  0  0  0  0
  188.1400  178.3130  141.3770 C   0  0  0  0  0  0  0  0  0  0  0  0
  189.0740  177.5210  140.5290 C   0  0  0  0  0  2  0  0  0  0  0  0
  189.9490  176.6330  141.4000 C   0  0  0  0  0  2  0  0  0  0  0  0
  190.9260  177.4740  142.2140 C   0  0  0  0  0  2  0  0  0  0  0  0
  192.1890  177.4610  141.6120 O   0  0  0  0  0  0  0  0  0  0  0  0
  192.1830  176.3410  140.7720 C   0  0  0  0  0  2  0  0  0  0  0  0
  192.5770  176.7360  139.3830 C   0  0  0  0  0  0  0  0  0  0  0  0
  193.5510  177.4510  139.2050 O   0  0  0  0  0  0  0  0  0  0  0  0
  191.7800  176.2610  138.2040 C   0  0  0  0  0  2  0  0  0  0  0  0
  192.2080  174.8800  137.6860 C   0  0  1  0  0  3  0  0  0  0  0  0
  188.9040  173.6020  136.7500 O   0  0  0  0  0  0  0  0  0  0  0  0
  191.0690  173.9890  137.4940 N   0  0  0  0  0  2  0  0  0  0  0  0
  189.8430  174.4260  136.8990 C   0  0  0  0  0  0  0  0  0  0  0  0
  189.6620  175.8420  136.4530 C   0  0  0  0  0  2  0  0  0  0  0  0
  188.6510  175.9050  135.3170 C   0  0  0  0  0  2  0  0  0  0  0  0
  187.5170  178.0810  136.4410 O   0  0  0  0  0  0  0  0  0  0  0  0
  187.1680  176.7440  135.8400 S   0  0  0  0  0  0  0  0  0  0  0  0
  186.2720  176.9460  134.6500 O   0  0  0  0  0  0  0  0  0  0  0  0
  186.7700  176.2180  138.3380 C   0  0  0  0  0  1  0  0  0  0  0  0
  186.3510  175.7650  137.0190 N   0  0  0  0  0  2  0  0  0  0  0  0
  193.1040  173.8550  135.6270 C   0  0  0  0  0  3  0  0  0  0  0  0
  193.0860  174.9010  136.4620 C   0  0  0  0  0  0  0  0  0  0  0  0
  193.8790  176.0580  136.1710 N   0  0  0  0  0  2  0  0  0  0  0  0
  195.2880  176.1850  136.5220 C   0  0  0  0  0  2  0  0  0  0  0  0
  196.8220  175.8770  134.5940 C   0  0  0  0  0  1  0  0  0  0  0  0
  197.1490  174.5660  136.6620 C   0  0  0  0  0  1  0  0  0  0  0  0
  196.1160  175.1780  135.7420 C   0  0  0  0  0  3  0  0  0  0  0  0
  192.3070  172.6110  135.8500 C   0  0  0  0  0  2  0  0  0  0  0  0
  190.8140  171.3280  134.8600 C   0  0  0  0  0  1  0  0  0  0  0  0
  192.0010  172.0190  134.6240 O   0  0  0  0  0  0  0  0  0  0  0  0
  185.1060  178.5760  142.5020 C   0  0  1  0  0  3  0  0  0  0  0  0
  184.1720  178.7300  143.6360 C   0  0  0  0  0  0  0  0  0  0  0  0
  183.4120  178.8530  144.5620 C   0  0  0  0  0  3  0  0  0  0  0  0
  184.7550  179.4780  141.3970 N   0  0  0  0  0  2  0  0  0  0  0  0
  184.7250  178.7520  140.1270 C   0  0  0  0  0  2  0  0  0  0  0  0
  182.6870  177.5880  140.4650 O   0  0  0  0  0  0  0  0  0  0  0  0
  183.3140  178.4320  139.7730 C   0  0  0  0  0  0  0  0  0  0  0  0
  180.9160  178.1090  136.5890 C   0  0  1  0  0  3  0  0  0  0  0  0
  181.8410  178.2780  137.7530 N   0  0  0  0  0  0  0  0  0  0  0  0
  182.6670  179.0570  138.6120 C   0  0  0  0  0  0  0  0  0  0  0  0
  182.8500  180.2780  138.3630 O   0  0  0  0  0  0  0  0  0  0  0  0
  181.2690  176.9730  137.3010 C   0  0  2  0  0  3  0  0  0  0  0  0
  180.0810  181.5200  137.3910 C   0  0  0  0  0  0  0  0  0  0  0  0
  180.0780  180.6660  138.4290 C   0  0  0  0  0  3  0  0  0  0  0  0
  179.5220  179.2670  138.3500 C   0  0  0  0  0  2  0  0  0  0  0  0
  180.4570  183.8260  136.4040 C   0  0  0  0  0  0  0  0  0  0  0  0
  180.1100  183.4870  138.7360 O   0  0  0  0  0  1  0  0  0  0  0  0
  179.5350  178.7100  136.9270 C   0  0  1  0  0  3  0  0  0  0  0  0
  180.6640  182.9030  137.5880 C   0  0  1  0  0  3  0  0  0  0  0  0
  179.7380  181.0470  135.9930 C   0  0  2  0  0  3  0  0  0  0  0  0
  179.0320  182.1420  135.2230 C   0  0  0  0  0  2  0  0  0  0  0  0
  179.9780  183.3210  135.0710 C   0  0  0  0  0  2  0  0  0  0  0  0
  178.9410  179.7430  135.9550 C   0  0  0  0  0  2  0  0  0  0  0  0
  181.0170  185.0330  136.4420 C   0  0  0  0  0  2  0  0  0  0  0  0
  183.5860  176.6390  136.6390 C   0  0  0  0  0  2  0  0  0  0  0  0
  182.3460  176.1550  136.6380 C   0  0  0  0  0  0  0  0  0  0  0  0
  182.0420  174.9380  135.7990 C   0  0  0  0  0  2  0  0  0  0  0  0
  182.3790  173.6440  136.5350 C   0  0  0  0  0  2  0  0  0  0  0  0
  181.5730  172.4930  136.0190 C   0  0  0  0  0  0  0  0  0  0  0  0
  180.4120  172.3500  136.3730 O   0  0  0  0  0  0  0  0  0  0  0  0
  182.2040  171.5140  135.0770 C   0  0  2  0  0  3  0  0  0  0  0  0
  181.7370  170.2290  135.3420 O   0  0  0  0  0  1  0  0  0  0  0  0
  183.7170  171.5440  135.2060 C   0  0  0  0  0  1  0  0  0  0  0  0
  2  1  1  0  0  0  0
  3  5  2  0  0  0  0
  3  2  1  0  0  0  0
  4  1  1  0  0  0  0
  5  4  1  0  0  0  0
  6  5  1  0  0  0  0
  6  7  1  0  0  0  0
  7  8  1  0  0  0  0
  9  8  1  0  0  0  0
 10  9  1  0  0  0  0
 11 10  1  0  0  0  0
 12 11  2  0  0  0  0
 13 11  1  0  0  0  0
 14 13  1  6  0  0  0
 15 17  2  0  0  0  0
 16 14  1  0  0  0  0
 17 16  1  0  0  0  0
 18 17  1  0  0  0  0
 19 21  1  0  0  0  0
 19 18  1  0  0  0  0
 21 20  2  0  0  0  0
 21 24  1  0  0  0  0
 22 21  2  0  0  0  0
 24 23  1  0  0  0  0
 25 32  1  0  0  0  0
 25 26  2  0  0  0  0
 26 14  1  0  0  0  0
 27 26  1  0  0  0  0
 27 28  1  0  0  0  0
 29 31  1  0  0  0  0
 31 28  1  0  0  0  0
 31 30  1  0  0  0  0
 34 33  1  0  0  0  0
 34 32  1  0  0  0  0
 35  1  1  0  0  0  0
 35 36  1  1  0  0  0
 36 37  3  0  0  0  0
 38 35  1  0  0  0  0
 39 38  1  0  0  0  0
 41 39  1  0  0  0  0
 41 40  2  0  0  0  0
 42 52  1  0  0  0  0
 42 46  1  0  0  0  0
 42 43  1  1  0  0  0
 43 44  1  0  0  0  0
 44 41  1  0  0  0  0
 45 44  2  0  0  0  0
 46 60  1  6  0  0  0
 46 43  1  0  0  0  0
 47 53  1  0  0  0  0
 47 48  2  0  0  0  0
 49 48  1  0  0  0  0
 50 58  2  0  0  0  0
 50 53  1  0  0  0  0
 52 57  1  6  0  0  0
 52 49  1  0  0  0  0
 53 51  1  1  0  0  0
 54 55  1  1  0  0  0
 54 47  1  0  0  0  0
 56 55  1  0  0  0  0
 56 50  1  0  0  0  0
 57 54  1  0  0  0  0
 60 59  2  0  0  0  0
 61 62  1  0  0  0  0
 61 60  1  0  0  0  0
 63 64  2  0  0  0  0
 63 62  1  0  0  0  0
 65 67  1  1  0  0  0
 65 66  1  0  0  0  0
 65 63  1  0  0  0  0
M  END
>  <MODEL>
4

>  <REMARK>
 VINA RESULT:      -1.9      2.542     10.932
  Name = 
  31 active torsions:
  status: ('A' for Active; 'I' for Inactive)
    1  A    between atoms: C_3  and  C_5
    2  A    between atoms: C_5  and  C_46
    3  A    between atoms: N_6  and  C_20
    4  A    between atoms: C_7  and  C_37
    5  A    between atoms: O_11  and  C_40
    6  A    between atoms: O_11  and  C_50
    7  A    between atoms: N_13  and  C_63
    8  A    between atoms: C_14  and  S_22
    9  A    between atoms: C_14  and  C_64
   10  A    between atoms: C_15  and  C_32
   11  A    between atoms: C_15  and  C_46
   12  A    between atoms: C_17  and  C_57
   13  A    between atoms: C_18  and  C_38
   14  A    between atoms: C_18  and  C_50
   15  A    between atoms: C_19  and  C_39
   16  A    between atoms: C_19  and  N_62
   17  A    between atoms: C_20  and  C_24
   18  A    between atoms: C_20  and  N_28
   19  A    between atoms: S_22  and  N_65
   20  A    between atoms: C_23  and  C_40
   21  A    between atoms: C_23  and  C_42
   22  A    between atoms: C_26  and  N_62
   23  A    between atoms: C_26  and  C_63
   24  A    between atoms: N_28  and  C_60
   25  A    between atoms: C_31  and  C_44
   26  A    between atoms: C_32  and  C_48
   27  A    between atoms: C_38  and  C_67
   28  A    between atoms: C_42  and  C_63
   29  A    between atoms: C_44  and  C_60
   30  A    between atoms: C_47  and  C_64
   31  A    between atoms: O_55  and  C_57
                            x       y       z     vdW  Elec       q    Type
                         _______ _______ _______ _____ _____    ______ ____

>  <TORSDO>
F 31

$$$$
=
 OpenBabel10222417363D

 67 70  0  0  1  0  0  0  0  0999 V2000
  186.5770  178.9000  142.9040 N   0  0  0  0  0  0  0  0  0  0  0  0
  187.0640  180.1560  142.2970 C   0  0  0  0  0  2  0  0  0  0  0  0
  188.1250  179.8100  141.3560 N   0  0  0  0  0  0  0  0  0  0  0  0
  187.3830  177.9210  142.3000 N   0  0  0  0  0  2  0  0  0  0  0  0
  188.2630  178.5400  141.3980 C   0  0  0  0  0  0  0  0  0  0  0  0
  189.2450  177.7910  140.5660 C   0  0  0  0  0  2  0  0  0  0  0  0
  190.1000  176.8900  141.4440 C   0  0  0  0  0  2  0  0  0  0  0  0
  191.1050  177.7150  142.2390 C   0  0  0  0  0  2  0  0  0  0  0  0
  192.3780  177.5990  141.6690 O   0  0  0  0  0  0  0  0  0  0  0  0
  192.2810  176.5330  140.7680 C   0  0  0  0  0  2  0  0  0  0  0  0
  192.6770  176.9810  139.3960 C   0  0  0  0  0  0  0  0  0  0  0  0
  193.6490  177.7050  139.2460 O   0  0  0  0  0  0  0  0  0  0  0  0
  191.8840  176.5460  138.1980 C   0  0  0  0  0  2  0  0  0  0  0  0
  192.1530  175.0950  137.7730 C   0  0  1  0  0  3  0  0  0  0  0  0
  188.7940  174.1860  136.6270 O   0  0  0  0  0  0  0  0  0  0  0  0
  190.9190  174.3510  137.5480 N   0  0  0  0  0  2  0  0  0  0  0  0
  189.8260  174.8860  136.7950 C   0  0  0  0  0  0  0  0  0  0  0  0
  189.8910  176.2600  136.2050 C   0  0  0  0  0  2  0  0  0  0  0  0
  188.7300  176.4710  135.2450 C   0  0  0  0  0  2  0  0  0  0  0  0
  188.4960  178.7780  136.6250 O   0  0  0  0  0  0  0  0  0  0  0  0
  187.6900  177.8090  135.7980 S   0  0  0  0  0  0  0  0  0  0  0  0
  187.1250  178.5190  134.6000 O   0  0  0  0  0  0  0  0  0  0  0  0
  186.9420  176.7770  138.0450 C   0  0  0  0  0  1  0  0  0  0  0  0
  186.3930  177.1590  136.7520 N   0  0  0  0  0  2  0  0  0  0  0  0
  192.7760  174.1310  135.5870 C   0  0  0  0  0  3  0  0  0  0  0  0
  193.0960  174.9350  136.6090 C   0  0  0  0  0  0  0  0  0  0  0  0
  194.3250  175.6720  136.5770 N   0  0  0  0  0  2  0  0  0  0  0  0
  195.6350  175.0580  136.4010 C   0  0  0  0  0  2  0  0  0  0  0  0
  196.5480  172.7580  136.5980 C   0  0  0  0  0  1  0  0  0  0  0  0
  196.5300  174.2570  138.5610 C   0  0  0  0  0  1  0  0  0  0  0  0
  195.7760  173.8510  137.3140 C   0  0  0  0  0  3  0  0  0  0  0  0
  191.5160  173.3310  135.5360 C   0  0  0  0  0  2  0  0  0  0  0  0
  190.4220  171.6390  134.6420 C   0  0  0  0  0  1  0  0  0  0  0  0
  191.6460  172.3040  134.5990 O   0  0  0  0  0  0  0  0  0  0  0  0
  185.1950  178.6790  142.4530 C   0  0  1  0  0  3  0  0  0  0  0  0
  184.2200  178.8880  143.5440 C   0  0  0  0  0  0  0  0  0  0  0  0
  183.4230  179.0580  144.4300 C   0  0  0  0  0  3  0  0  0  0  0  0
  184.8700  179.5040  141.2830 N   0  0  0  0  0  2  0  0  0  0  0  0
  184.7250  178.6730  140.0870 C   0  0  0  0  0  2  0  0  0  0  0  0
  182.8440  177.3440  140.6490 O   0  0  0  0  0  0  0  0  0  0  0  0
  183.2980  178.2730  139.9330 C   0  0  0  0  0  0  0  0  0  0  0  0
  180.9260  177.9710  136.7280 C   0  0  1  0  0  3  0  0  0  0  0  0
  181.8250  178.1430  137.9120 N   0  0  0  0  0  0  0  0  0  0  0  0
  182.4370  178.9210  138.9350 C   0  0  0  0  0  0  0  0  0  0  0  0
  182.2490  180.1660  138.9690 O   0  0  0  0  0  0  0  0  0  0  0  0
  181.6280  176.8600  137.1700 C   0  0  2  0  0  3  0  0  0  0  0  0
  179.5250  177.3500  139.9880 C   0  0  0  0  0  0  0  0  0  0  0  0
  179.3000  176.3930  139.0710 C   0  0  0  0  0  3  0  0  0  0  0  0
  178.9480  176.6860  137.6350 C   0  0  0  0  0  2  0  0  0  0  0  0
  179.9300  178.0950  142.3780 C   0  0  0  0  0  0  0  0  0  0  0  0
  178.9320  175.9950  141.8570 O   0  0  0  0  0  1  0  0  0  0  0  0
  179.4500  178.0540  137.1760 C   0  0  1  0  0  3  0  0  0  0  0  0
  179.8670  176.9370  141.4020 C   0  0  1  0  0  3  0  0  0  0  0  0
  179.6730  178.8010  139.5780 C   0  0  2  0  0  3  0  0  0  0  0  0
  179.1190  179.7130  140.6510 C   0  0  0  0  0  2  0  0  0  0  0  0
  179.9330  179.5270  141.9190 C   0  0  0  0  0  2  0  0  0  0  0  0
  179.0700  179.1260  138.2100 C   0  0  0  0  0  2  0  0  0  0  0  0
  180.3190  177.8460  143.6270 C   0  0  0  0  0  2  0  0  0  0  0  0
  183.8870  177.3950  136.4450 C   0  0  0  0  0  2  0  0  0  0  0  0
  182.8560  176.5570  136.3540 C   0  0  0  0  0  0  0  0  0  0  0  0
  182.8830  175.4870  135.2910 C   0  0  0  0  0  2  0  0  0  0  0  0
  183.9190  174.4090  135.5990 C   0  0  0  0  0  2  0  0  0  0  0  0
  183.3310  173.2970  136.4110 C   0  0  0  0  0  0  0  0  0  0  0  0
  184.0540  172.5870  137.0950 O   0  0  0  0  0  0  0  0  0  0  0  0
  181.8520  173.0560  136.3690 C   0  0  2  0  0  3  0  0  0  0  0  0
  181.4220  172.5290  137.5840 O   0  0  0  0  0  1  0  0  0  0  0  0
  181.4960  172.1020  135.2430 C   0  0  0  0  0  1  0  0  0  0  0  0
  2  1  1  0  0  0  0
  3  5  2  0  0  0  0
  3  2  1  0  0  0  0
  4  1  1  0  0  0  0
  5  4  1  0  0  0  0
  6  5  1  0  0  0  0
  6  7  1  0  0  0  0
  7  8  1  0  0  0  0
  9  8  1  0  0  0  0
 10  9  1  0  0  0  0
 11 10  1  0  0  0  0
 12 11  2  0  0  0  0
 13 11  1  0  0  0  0
 14 13  1  6  0  0  0
 15 17  2  0  0  0  0
 16 14  1  0  0  0  0
 17 16  1  0  0  0  0
 18 17  1  0  0  0  0
 19 21  1  0  0  0  0
 19 18  1  0  0  0  0
 21 20  2  0  0  0  0
 21 24  1  0  0  0  0
 22 21  2  0  0  0  0
 24 23  1  0  0  0  0
 25 26  2  0  0  0  0
 26 14  1  0  0  0  0
 27 26  1  0  0  0  0
 28 27  1  0  0  0  0
 28 31  1  0  0  0  0
 29 31  1  0  0  0  0
 31 30  1  0  0  0  0
 32 25  1  0  0  0  0
 34 33  1  0  0  0  0
 34 32  1  0  0  0  0
 35  1  1  0  0  0  0
 35 36  1  1  0  0  0
 36 37  3  0  0  0  0
 38 35  1  0  0  0  0
 39 38  1  0  0  0  0
 41 39  1  0  0  0  0
 41 40  2  0  0  0  0
 42 46  1  0  0  0  0
 42 52  1  0  0  0  0
 42 43  1  1  0  0  0
 43 44  1  0  0  0  0
 44 45  2  0  0  0  0
 44 41  1  0  0  0  0
 46 60  1  6  0  0  0
 46 43  1  0  0  0  0
 47 53  1  0  0  0  0
 48 47  2  0  0  0  0
 49 48  1  0  0  0  0
 50 58  2  0  0  0  0
 52 49  1  1  0  0  0
 52 57  1  0  0  0  0
 53 51  1  1  0  0  0
 53 50  1  0  0  0  0
 54 57  1  6  0  0  0
 54 47  1  0  0  0  0
 54 55  1  0  0  0  0
 55 56  1  0  0  0  0
 56 50  1  0  0  0  0
 60 59  2  0  0  0  0
 61 62  1  0  0  0  0
 61 60  1  0  0  0  0
 62 63  1  0  0  0  0
 63 64  2  0  0  0  0
 65 67  1  6  0  0  0
 65 63  1  0  0  0  0
 65 66  1  0  0  0  0
M  END
>  <MODEL>
5

>  <REMARK>
 VINA RESULT:      -1.4      2.561     10.750
  Name = 
  31 active torsions:
  status: ('A' for Active; 'I' for Inactive)
    1  A    between atoms: C_3  and  C_5
    2  A    between atoms: C_5  and  C_46
    3  A    between atoms: N_6  and  C_20
    4  A    between atoms: C_7  and  C_37
    5  A    between atoms: O_11  and  C_40
    6  A    between atoms: O_11  and  C_50
    7  A    between atoms: N_13  and  C_63
    8  A    between atoms: C_14  and  S_22
    9  A    between atoms: C_14  and  C_64
   10  A    between atoms: C_15  and  C_32
   11  A    between atoms: C_15  and  C_46
   12  A    between atoms: C_17  and  C_57
   13  A    between atoms: C_18  and  C_38
   14  A    between atoms: C_18  and  C_50
   15  A    between atoms: C_19  and  C_39
   16  A    between atoms: C_19  and  N_62
   17  A    between atoms: C_20  and  C_24
   18  A    between atoms: C_20  and  N_28
   19  A    between atoms: S_22  and  N_65
   20  A    between atoms: C_23  and  C_40
   21  A    between atoms: C_23  and  C_42
   22  A    between atoms: C_26  and  N_62
   23  A    between atoms: C_26  and  C_63
   24  A    between atoms: N_28  and  C_60
   25  A    between atoms: C_31  and  C_44
   26  A    between atoms: C_32  and  C_48
   27  A    between atoms: C_38  and  C_67
   28  A    between atoms: C_42  and  C_63
   29  A    between atoms: C_44  and  C_60
   30  A    between atoms: C_47  and  C_64
   31  A    between atoms: O_55  and  C_57
                            x       y       z     vdW  Elec       q    Type
                         _______ _______ _______ _____ _____    ______ ____

>  <TORSDO>
F 31

$$$$
