=
 OpenBabel10222416583D

 40 44  0  0  1  0  0  0  0  0999 V2000
  182.7280  178.9260  140.0240 C   0  0  1  0  0  3  0  0  0  0  0  0
  184.5920  177.6800  142.9070 O   0  0  0  0  0  1  0  0  0  0  0  0
  184.3850  178.7750  142.0670 C   0  0  1  0  0  3  0  0  0  0  0  0
  185.4350  178.7710  140.9520 C   0  0  1  0  0  3  0  0  0  0  0  0
  184.0090  179.1000  139.1890 C   0  0  1  0  0  3  0  0  0  0  0  0
  185.0800  179.6620  139.9230 O   0  0  0  0  0  0  0  0  0  0  0  0
  182.9930  178.7120  141.4980 C   0  0  0  0  0  0  0  0  0  0  0  0
  182.0490  178.5080  142.2460 O   0  0  0  0  0  0  0  0  0  0  0  0
  184.3960  177.8770  138.4080 C   0  0  0  0  0  0  0  0  0  0  0  0
  183.1010  174.5350  137.7140 C   0  0  0  0  0  3  0  0  0  0  0  0
  183.9420  175.6480  137.7240 C   0  0  0  0  0  0  0  0  0  0  0  0
  185.1750  175.5860  137.0450 C   0  0  0  0  0  0  0  0  0  0  0  0
  183.4930  173.3790  137.0340 C   0  0  0  0  0  3  0  0  0  0  0  0
  184.7270  173.3550  136.3750 C   0  0  0  0  0  3  0  0  0  0  0  0
  183.5850  176.7810  138.3840 N   0  0  0  0  0  0  0  0  0  0  0  0
  185.5370  174.4490  136.3920 N   0  0  0  0  0  0  0  0  0  0  0  0
  186.0180  176.6980  137.0590 C   0  0  0  0  0  3  0  0  0  0  0  0
  185.6300  177.8490  137.7470 C   0  0  0  0  0  3  0  0  0  0  0  0
  181.8010  180.0370  139.8040 N   0  0  0  0  0  2  0  0  0  0  0  0
  180.5810  179.5270  139.3270 N   0  0  0  0  0  2  0  0  0  0  0  0
  181.3310  179.3080  136.6340 F   0  0  0  0  0  0  0  0  0  0  0  0
  179.6320  182.8930  137.9240 C   0  0  0  0  0  3  0  0  0  0  0  0
  179.9800  182.7750  136.6380 C   0  0  0  0  0  0  0  0  0  0  0  0
  181.1000  180.5590  137.1800 C   0  0  2  0  0  3  0  0  0  0  0  0
  180.0960  180.4600  138.3240 C   0  0  2  0  0  3  0  0  0  0  0  0
  179.9390  181.8420  138.9540 C   0  0  0  0  0  2  0  0  0  0  0  0
  180.5600  181.4890  136.0930 C   0  0  0  0  0  2  0  0  0  0  0  0
  180.6810  184.6950  135.1470 C   0  0  0  0  0  1  0  0  0  0  0  0
  179.6650  183.8490  135.7510 N   0  0  0  0  0  2  0  0  0  0  0  0
  186.8160  179.1410  141.4800 C   0  0  0  0  0  2  0  0  0  0  0  0
  188.5000  178.6610  139.7960 C   0  0  0  0  0  0  0  0  0  0  0  0
  189.0850  179.0230  138.7670 O   0  0  0  0  0  0  0  0  0  0  0  0
  187.8800  178.2790  140.8820 C   0  0  0  0  0  0  0  0  0  0  0  0
  188.3630  177.0840  141.6330 C   0  0  0  0  0  2  0  0  0  0  0  0
  188.1210  177.3430  145.4050 C   0  0  0  0  0  3  0  0  0  0  0  0
  189.8590  178.1260  143.3590 C   0  0  0  0  0  3  0  0  0  0  0  0
  190.1640  178.4300  144.6880 C   0  0  0  0  0  3  0  0  0  0  0  0
  187.8150  177.0380  144.0760 C   0  0  0  0  0  3  0  0  0  0  0  0
  189.2940  178.0400  145.7110 C   0  0  0  0  0  3  0  0  0  0  0  0
  188.6820  177.4320  143.0490 C   0  0  0  0  0  0  0  0  0  0  0  0
  1 19  1  1  0  0  0
  1  7  1  0  0  0  0
  3  2  1  1  0  0  0
  4 30  1  1  0  0  0
  4  3  1  0  0  0  0
  5  9  1  1  0  0  0
  5  6  1  0  0  0  0
  5  1  1  0  0  0  0
  6  4  1  0  0  0  0
  7  3  1  0  0  0  0
  7  8  2  0  0  0  0
 10 11  1  0  0  0  0
 11 15  2  0  0  0  0
 12 17  2  0  0  0  0
 12 11  1  0  0  0  0
 13 10  2  0  0  0  0
 14 16  2  0  0  0  0
 14 13  1  0  0  0  0
 15  9  1  0  0  0  0
 16 12  1  0  0  0  0
 17 18  1  0  0  0  0
 18  9  2  0  0  0  0
 20 19  1  0  0  0  0
 22 26  1  0  0  0  0
 23 22  2  0  0  0  0
 24 21  1  6  0  0  0
 24 25  1  0  0  0  0
 25 26  1  0  0  0  0
 25 20  1  1  0  0  0
 27 23  1  0  0  0  0
 27 24  1  0  0  0  0
 28 29  1  0  0  0  0
 29 23  1  0  0  0  0
 31 33  2  0  0  0  0
 32 31  2  0  0  0  0
 33 30  1  0  0  0  0
 33 34  1  0  0  0  0
 34 40  1  0  0  0  0
 35 39  1  0  0  0  0
 36 37  1  0  0  0  0
 37 39  2  0  0  0  0
 38 35  2  0  0  0  0
 40 36  2  0  0  0  0
 40 38  1  0  0  0  0
M  END
>  <MODEL>
1

>  <REMARK>
 VINA RESULT:      -7.7      0.000      0.000
  Name = 
  9 active torsions:
  status: ('A' for Active; 'I' for Inactive)
    1  A    between atoms: C_1  and  N_16
    2  A    between atoms: N_4  and  N_16
    3  A    between atoms: N_4  and  C_26
    4  A    between atoms: C_5  and  C_15
    5  A    between atoms: C_14  and  C_34
    6  A    between atoms: C_17  and  N_30
    7  A    between atoms: C_31  and  C_38
    8  A    between atoms: C_31  and  C_39
    9  A    between atoms: C_34  and  C_38
                            x       y       z     vdW  Elec       q    Type
                         _______ _______ _______ _____ _____    ______ ____

>  <TORSDO>
F 9

$$$$
=
 OpenBabel10222416583D

 40 44  0  0  1  0  0  0  0  0999 V2000
  188.8200  177.8450  141.9540 C   0  0  1  0  0  3  0  0  0  0  0  0
  189.1800  175.9670  138.8430 O   0  0  0  0  0  1  0  0  0  0  0  0
  189.5080  177.1490  139.5090 C   0  0  1  0  0  3  0  0  0  0  0  0
  188.5040  178.2430  139.1340 C   0  0  1  0  0  3  0  0  0  0  0  0
  188.0520  178.9810  141.2560 C   0  0  1  0  0  3  0  0  0  0  0  0
  188.6080  179.3430  140.0060 O   0  0  0  0  0  0  0  0  0  0  0  0
  189.5100  176.9020  140.9940 C   0  0  0  0  0  0  0  0  0  0  0  0
  190.1040  175.9320  141.4390 O   0  0  0  0  0  0  0  0  0  0  0  0
  186.5660  178.7730  141.2110 C   0  0  0  0  0  0  0  0  0  0  0  0
  183.7310  179.6430  139.0810 C   0  0  0  0  0  3  0  0  0  0  0  0
  184.4730  179.1290  140.1450 C   0  0  0  0  0  0  0  0  0  0  0  0
  183.8050  178.4700  141.1960 C   0  0  0  0  0  0  0  0  0  0  0  0
  182.3410  179.4980  139.0740 C   0  0  0  0  0  3  0  0  0  0  0  0
  181.7140  178.8400  140.1380 C   0  0  0  0  0  3  0  0  0  0  0  0
  185.8250  179.2650  140.1760 N   0  0  0  0  0  0  0  0  0  0  0  0
  182.4510  178.3430  141.1690 N   0  0  0  0  0  0  0  0  0  0  0  0
  184.5470  177.9600  142.2620 C   0  0  0  0  0  3  0  0  0  0  0  0
  185.9350  178.1140  142.2730 C   0  0  0  0  0  3  0  0  0  0  0  0
  189.7560  178.3740  142.9480 N   0  0  0  0  0  2  0  0  0  0  0  0
  189.1020  178.4660  144.1890 N   0  0  0  0  0  2  0  0  0  0  0  0
  188.1190  177.9910  146.7710 F   0  0  0  0  0  0  0  0  0  0  0  0
  191.8760  176.4710  145.7800 C   0  0  0  0  0  3  0  0  0  0  0  0
  191.3930  176.2380  147.0050 C   0  0  0  0  0  0  0  0  0  0  0  0
  189.4680  177.8230  146.5120 C   0  0  2  0  0  3  0  0  0  0  0  0
  189.6830  177.4480  145.0490 C   0  0  2  0  0  3  0  0  0  0  0  0
  191.1840  177.3610  144.7850 C   0  0  0  0  0  2  0  0  0  0  0  0
  190.0200  176.7210  147.4170 C   0  0  0  0  0  2  0  0  0  0  0  0
  193.1090  175.9220  148.8370 C   0  0  0  0  0  1  0  0  0  0  0  0
  192.1470  175.3990  147.8810 N   0  0  0  0  0  2  0  0  0  0  0  0
  188.7020  178.7200  137.7010 C   0  0  0  0  0  2  0  0  0  0  0  0
  186.6370  177.6470  137.0010 C   0  0  0  0  0  0  0  0  0  0  0  0
  185.4510  177.3930  137.2510 O   0  0  0  0  0  0  0  0  0  0  0  0
  187.8890  177.9150  136.7390 C   0  0  0  0  0  0  0  0  0  0  0  0
  188.4550  177.5890  135.3970 C   0  0  0  0  0  2  0  0  0  0  0  0
  191.3160  175.1210  135.6840 C   0  0  0  0  0  3  0  0  0  0  0  0
  188.5460  175.0820  135.3000 C   0  0  0  0  0  3  0  0  0  0  0  0
  189.2590  173.8820  135.3570 C   0  0  0  0  0  3  0  0  0  0  0  0
  190.6020  176.3220  135.6280 C   0  0  0  0  0  3  0  0  0  0  0  0
  190.6450  173.9010  135.5470 C   0  0  0  0  0  3  0  0  0  0  0  0
  189.2160  176.3050  135.4330 C   0  0  0  0  0  0  0  0  0  0  0  0
  1 19  1  1  0  0  0
  3  2  1  6  0  0  0
  3  7  1  0  0  0  0
  4 30  1  6  0  0  0
  4  3  1  0  0  0  0
  4  6  1  0  0  0  0
  5  9  1  6  0  0  0
  5  1  1  0  0  0  0
  6  5  1  0  0  0  0
  7  8  2  0  0  0  0
  7  1  1  0  0  0  0
  9 18  1  0  0  0  0
 10 11  1  0  0  0  0
 11 15  1  0  0  0  0
 11 12  2  0  0  0  0
 12 17  1  0  0  0  0
 13 10  2  0  0  0  0
 13 14  1  0  0  0  0
 14 16  2  0  0  0  0
 15  9  2  0  0  0  0
 16 12  1  0  0  0  0
 17 18  2  0  0  0  0
 19 20  1  0  0  0  0
 22 23  2  0  0  0  0
 23 27  1  0  0  0  0
 23 29  1  0  0  0  0
 24 21  1  6  0  0  0
 24 27  1  0  0  0  0
 25 20  1  6  0  0  0
 25 24  1  0  0  0  0
 26 25  1  0  0  0  0
 26 22  1  0  0  0  0
 29 28  1  0  0  0  0
 31 32  2  0  0  0  0
 33 31  2  0  0  0  0
 33 30  1  0  0  0  0
 34 40  1  0  0  0  0
 34 33  1  0  0  0  0
 36 37  2  0  0  0  0
 36 40  1  0  0  0  0
 37 39  1  0  0  0  0
 38 35  1  0  0  0  0
 39 35  2  0  0  0  0
 40 38  2  0  0  0  0
M  END
>  <MODEL>
2

>  <REMARK>
 VINA RESULT:      -7.6      4.271      9.516
  Name = 
  9 active torsions:
  status: ('A' for Active; 'I' for Inactive)
    1  A    between atoms: C_1  and  N_16
    2  A    between atoms: N_4  and  N_16
    3  A    between atoms: N_4  and  C_26
    4  A    between atoms: C_5  and  C_15
    5  A    between atoms: C_14  and  C_34
    6  A    between atoms: C_17  and  N_30
    7  A    between atoms: C_31  and  C_38
    8  A    between atoms: C_31  and  C_39
    9  A    between atoms: C_34  and  C_38
                            x       y       z     vdW  Elec       q    Type
                         _______ _______ _______ _____ _____    ______ ____

>  <TORSDO>
F 9

$$$$
=
 OpenBabel10222416583D

 40 44  0  0  1  0  0  0  0  0999 V2000
  189.8790  177.5500  138.8280 C   0  0  1  0  0  3  0  0  0  0  0  0
  188.6150  177.8660  135.4160 O   0  0  0  0  0  1  0  0  0  0  0  0
  188.4180  177.2560  136.6560 C   0  0  1  0  0  3  0  0  0  0  0  0
  189.0670  175.8690  136.6530 C   0  0  1  0  0  3  0  0  0  0  0  0
  190.1850  176.0530  138.6450 C   0  0  1  0  0  3  0  0  0  0  0  0
  189.1620  175.3550  137.9600 O   0  0  0  0  0  0  0  0  0  0  0  0
  189.0010  178.1240  137.7390 C   0  0  0  0  0  0  0  0  0  0  0  0
  188.7390  179.3170  137.7550 O   0  0  0  0  0  0  0  0  0  0  0  0
  191.5600  175.7740  138.1110 C   0  0  0  0  0  0  0  0  0  0  0  0
  193.5160  172.9390  136.9000 C   0  0  0  0  0  3  0  0  0  0  0  0
  193.1700  174.2340  137.2870 C   0  0  0  0  0  0  0  0  0  0  0  0
  194.1400  175.2540  137.2250 C   0  0  0  0  0  0  0  0  0  0  0  0
  194.8160  172.6740  136.4600 C   0  0  0  0  0  3  0  0  0  0  0  0
  195.7520  173.7120  136.4160 C   0  0  0  0  0  3  0  0  0  0  0  0
  191.9150  174.5140  137.7250 N   0  0  0  0  0  0  0  0  0  0  0  0
  195.4000  174.9710  136.7960 N   0  0  0  0  0  0  0  0  0  0  0  0
  193.7950  176.5490  137.6160 C   0  0  0  0  0  3  0  0  0  0  0  0
  192.5000  176.8110  138.0650 C   0  0  0  0  0  3  0  0  0  0  0  0
  189.3240  177.8160  140.1560 N   0  0  0  0  0  2  0  0  0  0  0  0
  190.0860  177.1270  141.1160 N   0  0  0  0  0  2  0  0  0  0  0  0
  191.8590  177.7840  143.1860 F   0  0  0  0  0  0  0  0  0  0  0  0
  187.8660  177.0680  144.1610 C   0  0  0  0  0  3  0  0  0  0  0  0
  188.7160  177.3950  145.1400 C   0  0  0  0  0  0  0  0  0  0  0  0
  190.6390  177.2050  143.4890 C   0  0  2  0  0  3  0  0  0  0  0  0
  189.6080  177.5530  142.4210 C   0  0  2  0  0  3  0  0  0  0  0  0
  188.3070  176.8220  142.7440 C   0  0  0  0  0  2  0  0  0  0  0  0
  190.1670  177.7120  144.8520 C   0  0  0  0  0  2  0  0  0  0  0  0
  188.9970  177.3930  147.6550 C   0  0  0  0  0  1  0  0  0  0  0  0
  188.1940  177.5770  146.4570 N   0  0  0  0  0  2  0  0  0  0  0  0
  188.2920  174.8870  135.7840 C   0  0  0  0  0  2  0  0  0  0  0  0
  189.9250  173.1770  135.2250 C   0  0  0  0  0  0  0  0  0  0  0  0
  190.9450  172.8690  134.5940 O   0  0  0  0  0  0  0  0  0  0  0  0
  188.8480  173.5040  135.8890 C   0  0  0  0  0  0  0  0  0  0  0  0
  188.2840  172.5630  136.9010 C   0  0  0  0  0  2  0  0  0  0  0  0
  184.9660  171.4350  135.4620 C   0  0  0  0  0  3  0  0  0  0  0  0
  185.9090  172.9510  137.6140 C   0  0  0  0  0  3  0  0  0  0  0  0
  184.5350  172.7630  137.4420 C   0  0  0  0  0  3  0  0  0  0  0  0
  186.3410  171.6230  135.6340 C   0  0  0  0  0  3  0  0  0  0  0  0
  184.0630  172.0060  136.3650 C   0  0  0  0  0  3  0  0  0  0  0  0
  186.8150  172.3840  136.7090 C   0  0  0  0  0  0  0  0  0  0  0  0
  1 19  1  1  0  0  0
  3  2  1  6  0  0  0
  3  7  1  0  0  0  0
  4 30  1  6  0  0  0
  4  3  1  0  0  0  0
  4  6  1  0  0  0  0
  5  9  1  6  0  0  0
  5  1  1  0  0  0  0
  6  5  1  0  0  0  0
  7  8  2  0  0  0  0
  7  1  1  0  0  0  0
 10 11  1  0  0  0  0
 11 15  1  0  0  0  0
 12 11  2  0  0  0  0
 12 17  1  0  0  0  0
 13 10  2  0  0  0  0
 14 13  1  0  0  0  0
 14 16  2  0  0  0  0
 15  9  2  0  0  0  0
 16 12  1  0  0  0  0
 17 18  2  0  0  0  0
 18  9  1  0  0  0  0
 19 20  1  0  0  0  0
 22 23  2  0  0  0  0
 23 29  1  0  0  0  0
 24 21  1  6  0  0  0
 24 27  1  0  0  0  0
 25 20  1  6  0  0  0
 25 26  1  0  0  0  0
 25 24  1  0  0  0  0
 26 22  1  0  0  0  0
 27 23  1  0  0  0  0
 29 28  1  0  0  0  0
 30 33  1  0  0  0  0
 31 33  2  0  0  0  0
 32 31  2  0  0  0  0
 33 34  1  0  0  0  0
 35 38  2  0  0  0  0
 35 39  1  0  0  0  0
 37 36  1  0  0  0  0
 38 40  1  0  0  0  0
 39 37  2  0  0  0  0
 40 34  1  0  0  0  0
 40 36  2  0  0  0  0
M  END
>  <MODEL>
3

>  <REMARK>
 VINA RESULT:      -7.5      6.185      9.863
  Name = 
  9 active torsions:
  status: ('A' for Active; 'I' for Inactive)
    1  A    between atoms: C_1  and  N_16
    2  A    between atoms: N_4  and  N_16
    3  A    between atoms: N_4  and  C_26
    4  A    between atoms: C_5  and  C_15
    5  A    between atoms: C_14  and  C_34
    6  A    between atoms: C_17  and  N_30
    7  A    between atoms: C_31  and  C_38
    8  A    between atoms: C_31  and  C_39
    9  A    between atoms: C_34  and  C_38
                            x       y       z     vdW  Elec       q    Type
                         _______ _______ _______ _____ _____    ______ ____

>  <TORSDO>
F 9

$$$$
=
 OpenBabel10222416583D

 40 44  0  0  1  0  0  0  0  0999 V2000
  186.3910  178.5100  140.9800 C   0  0  1  0  0  3  0  0  0  0  0  0
  187.1380  176.5790  143.9880 O   0  0  0  0  0  1  0  0  0  0  0  0
  187.1770  177.8470  143.4050 C   0  0  1  0  0  3  0  0  0  0  0  0
  188.5630  178.0900  142.8010 C   0  0  1  0  0  3  0  0  0  0  0  0
  187.8730  178.8550  140.7540 C   0  0  1  0  0  3  0  0  0  0  0  0
  188.5510  179.2080  141.9450 O   0  0  0  0  0  0  0  0  0  0  0  0
  186.1040  177.9460  142.3530 C   0  0  0  0  0  0  0  0  0  0  0  0
  184.9680  177.5870  142.6220 O   0  0  0  0  0  0  0  0  0  0  0  0
  188.6120  177.8470  139.9220 C   0  0  0  0  0  0  0  0  0  0  0  0
  187.9500  175.5390  137.1720 C   0  0  0  0  0  3  0  0  0  0  0  0
  188.6170  176.2220  138.1900 C   0  0  0  0  0  0  0  0  0  0  0  0
  189.9640  175.9120  138.4590 C   0  0  0  0  0  0  0  0  0  0  0  0
  188.6260  174.5590  136.4400 C   0  0  0  0  0  3  0  0  0  0  0  0
  189.9630  174.2780  136.7400 C   0  0  0  0  0  3  0  0  0  0  0  0
  187.9770  177.1730  138.9200 N   0  0  0  0  0  0  0  0  0  0  0  0
  190.6010  174.9530  137.7340 N   0  0  0  0  0  0  0  0  0  0  0  0
  190.6300  176.5930  139.4810 C   0  0  0  0  0  3  0  0  0  0  0  0
  189.9510  177.5630  140.2190 C   0  0  0  0  0  3  0  0  0  0  0  0
  185.5320  179.6580  140.6850 N   0  0  0  0  0  2  0  0  0  0  0  0
  185.0460  179.5400  139.3710 N   0  0  0  0  0  2  0  0  0  0  0  0
  185.4950  177.8070  137.2130 F   0  0  0  0  0  0  0  0  0  0  0  0
  182.1740  177.1140  139.6410 C   0  0  0  0  0  3  0  0  0  0  0  0
  182.4040  176.2850  138.6170 C   0  0  0  0  0  0  0  0  0  0  0  0
  184.2500  177.8370  137.8170 C   0  0  2  0  0  3  0  0  0  0  0  0
  184.3820  178.2500  139.2800 C   0  0  2  0  0  3  0  0  0  0  0  0
  182.9840  178.3570  139.8830 C   0  0  0  0  0  2  0  0  0  0  0  0
  183.6130  176.4510  137.7240 C   0  0  0  0  0  2  0  0  0  0  0  0
  180.8860  174.8260  137.2140 C   0  0  0  0  0  1  0  0  0  0  0  0
  181.5540  175.1470  138.4650 N   0  0  0  0  0  2  0  0  0  0  0  0
  189.6170  178.2980  143.8810 C   0  0  0  0  0  2  0  0  0  0  0  0
  190.3450  176.0160  143.4740 C   0  0  0  0  0  0  0  0  0  0  0  0
  190.4690  175.0840  142.6680 O   0  0  0  0  0  0  0  0  0  0  0  0
  190.2120  177.0010  144.3230 C   0  0  0  0  0  0  0  0  0  0  0  0
  190.8270  176.9020  145.6790 C   0  0  0  0  0  2  0  0  0  0  0  0
  187.5930  177.4010  147.5890 C   0  0  0  0  0  3  0  0  0  0  0  0
  190.3150  177.9630  147.8960 C   0  0  0  0  0  3  0  0  0  0  0  0
  189.4100  178.3300  148.8950 C   0  0  0  0  0  3  0  0  0  0  0  0
  188.4980  177.0330  146.5890 C   0  0  0  0  0  3  0  0  0  0  0  0
  188.0490  178.0500  148.7410 C   0  0  0  0  0  3  0  0  0  0  0  0
  189.8610  177.3170  146.7390 C   0  0  0  0  0  0  0  0  0  0  0  0
  1 19  1  1  0  0  0
  1  7  1  0  0  0  0
  3  2  1  6  0  0  0
  4  3  1  0  0  0  0
  4 30  1  1  0  0  0
  5  9  1  1  0  0  0
  5  1  1  0  0  0  0
  5  6  1  0  0  0  0
  6  4  1  0  0  0  0
  7  8  2  0  0  0  0
  7  3  1  0  0  0  0
  9 18  1  0  0  0  0
 10 11  1  0  0  0  0
 11 12  2  0  0  0  0
 11 15  1  0  0  0  0
 12 17  1  0  0  0  0
 13 14  1  0  0  0  0
 13 10  2  0  0  0  0
 14 16  2  0  0  0  0
 15  9  2  0  0  0  0
 16 12  1  0  0  0  0
 17 18  2  0  0  0  0
 20 19  1  0  0  0  0
 22 26  1  0  0  0  0
 23 22  2  0  0  0  0
 24 21  1  1  0  0  0
 24 25  1  0  0  0  0
 25 20  1  6  0  0  0
 25 26  1  0  0  0  0
 27 24  1  0  0  0  0
 27 23  1  0  0  0  0
 28 29  1  0  0  0  0
 29 23  1  0  0  0  0
 30 33  1  0  0  0  0
 31 33  2  0  0  0  0
 32 31  2  0  0  0  0
 33 34  1  0  0  0  0
 34 40  1  0  0  0  0
 35 39  1  0  0  0  0
 36 37  1  0  0  0  0
 38 40  1  0  0  0  0
 38 35  2  0  0  0  0
 39 37  2  0  0  0  0
 40 36  2  0  0  0  0
M  END
>  <MODEL>
4

>  <REMARK>
 VINA RESULT:      -7.4      3.360      4.946
  Name = 
  9 active torsions:
  status: ('A' for Active; 'I' for Inactive)
    1  A    between atoms: C_1  and  N_16
    2  A    between atoms: N_4  and  N_16
    3  A    between atoms: N_4  and  C_26
    4  A    between atoms: C_5  and  C_15
    5  A    between atoms: C_14  and  C_34
    6  A    between atoms: C_17  and  N_30
    7  A    between atoms: C_31  and  C_38
    8  A    between atoms: C_31  and  C_39
    9  A    between atoms: C_34  and  C_38
                            x       y       z     vdW  Elec       q    Type
                         _______ _______ _______ _____ _____    ______ ____

>  <TORSDO>
F 9

$$$$
=
 OpenBabel10222416583D

 40 44  0  0  1  0  0  0  0  0999 V2000
  190.7030  177.2470  140.0860 C   0  0  1  0  0  3  0  0  0  0  0  0
  192.4300  178.1200  143.1830 O   0  0  0  0  0  1  0  0  0  0  0  0
  192.0330  177.0700  142.3530 C   0  0  1  0  0  3  0  0  0  0  0  0
  190.7040  176.4980  142.8520 C   0  0  1  0  0  3  0  0  0  0  0  0
  189.6100  176.4680  140.8390 C   0  0  1  0  0  3  0  0  0  0  0  0
  190.1200  175.6610  141.8830 O   0  0  0  0  0  0  0  0  0  0  0  0
  191.9090  177.5710  140.9380 C   0  0  0  0  0  0  0  0  0  0  0  0
  192.8150  178.2340  140.4570 O   0  0  0  0  0  0  0  0  0  0  0  0
  188.4380  177.3120  141.2530 C   0  0  0  0  0  0  0  0  0  0  0  0
  186.1630  177.6540  144.0870 C   0  0  0  0  0  3  0  0  0  0  0  0
  186.7560  177.8530  142.8400 C   0  0  0  0  0  0  0  0  0  0  0  0
  186.2090  178.8080  141.9610 C   0  0  0  0  0  0  0  0  0  0  0  0
  185.0360  178.4000  144.4420 C   0  0  0  0  0  3  0  0  0  0  0  0
  184.5200  179.3370  143.5410 C   0  0  0  0  0  3  0  0  0  0  0  0
  187.8480  177.1330  142.4690 N   0  0  0  0  0  0  0  0  0  0  0  0
  185.1100  179.5210  142.3280 N   0  0  0  0  0  0  0  0  0  0  0  0
  186.8000  179.0040  140.7110 C   0  0  0  0  0  3  0  0  0  0  0  0
  187.9190  178.2500  140.3530 C   0  0  0  0  0  3  0  0  0  0  0  0
  191.0900  176.5550  138.8550 N   0  0  0  0  0  2  0  0  0  0  0  0
  190.4130  177.1390  137.7700 N   0  0  0  0  0  2  0  0  0  0  0  0
  187.6610  177.1930  137.2420 F   0  0  0  0  0  0  0  0  0  0  0  0
  189.6760  173.5610  136.8440 C   0  0  0  0  0  3  0  0  0  0  0  0
  188.3650  173.5990  136.5810 C   0  0  0  0  0  0  0  0  0  0  0  0
  188.2900  175.9810  137.4660 C   0  0  2  0  0  3  0  0  0  0  0  0
  189.7560  176.0610  137.0510 C   0  0  2  0  0  3  0  0  0  0  0  0
  190.4330  174.7370  137.3980 C   0  0  0  0  0  2  0  0  0  0  0  0
  187.5810  174.8900  136.6620 C   0  0  0  0  0  2  0  0  0  0  0  0
  186.2970  172.2530  136.0230 C   0  0  0  0  0  1  0  0  0  0  0  0
  187.7410  172.4150  136.0840 N   0  0  0  0  0  2  0  0  0  0  0  0
  190.8800  175.7170  144.1480 C   0  0  0  0  0  2  0  0  0  0  0  0
  191.6810  176.4650  146.3160 C   0  0  0  0  0  0  0  0  0  0  0  0
  192.4930  176.3220  147.2400 O   0  0  0  0  0  0  0  0  0  0  0  0
  190.8240  176.6140  145.3410 C   0  0  0  0  0  0  0  0  0  0  0  0
  189.9150  177.7980  145.3240 C   0  0  0  0  0  2  0  0  0  0  0  0
  186.9720  177.5410  147.6960 C   0  0  0  0  0  3  0  0  0  0  0  0
  189.6750  178.2530  147.7810 C   0  0  0  0  0  3  0  0  0  0  0  0
  188.9070  178.2890  148.9480 C   0  0  0  0  0  3  0  0  0  0  0  0
  187.7400  177.5030  146.5290 C   0  0  0  0  0  3  0  0  0  0  0  0
  187.5550  177.9350  148.9050 C   0  0  0  0  0  3  0  0  0  0  0  0
  189.0930  177.8620  146.5680 C   0  0  0  0  0  0  0  0  0  0  0  0
  1 19  1  6  0  0  0
  1  5  1  0  0  0  0
  1  7  1  0  0  0  0
  3  4  1  0  0  0  0
  3  2  1  1  0  0  0
  4 30  1  1  0  0  0
  5  9  1  1  0  0  0
  5  6  1  0  0  0  0
  6  4  1  0  0  0  0
  7  3  1  0  0  0  0
  8  7  2  0  0  0  0
  9 15  1  0  0  0  0
 10 13  2  0  0  0  0
 11 10  1  0  0  0  0
 12 16  1  0  0  0  0
 12 11  1  0  0  0  0
 14 13  1  0  0  0  0
 15 11  2  0  0  0  0
 16 14  2  0  0  0  0
 17 12  2  0  0  0  0
 18 17  1  0  0  0  0
 18  9  2  0  0  0  0
 20 19  1  0  0  0  0
 22 26  1  0  0  0  0
 23 27  1  0  0  0  0
 23 22  2  0  0  0  0
 24 21  1  6  0  0  0
 25 26  1  0  0  0  0
 25 24  1  0  0  0  0
 25 20  1  1  0  0  0
 27 24  1  0  0  0  0
 28 29  1  0  0  0  0
 29 23  1  0  0  0  0
 30 33  1  0  0  0  0
 31 32  2  0  0  0  0
 33 31  2  0  0  0  0
 34 33  1  0  0  0  0
 34 40  1  0  0  0  0
 35 39  1  0  0  0  0
 36 37  1  0  0  0  0
 38 40  1  0  0  0  0
 38 35  2  0  0  0  0
 39 37  2  0  0  0  0
 40 36  2  0  0  0  0
M  END
>  <MODEL>
5

>  <REMARK>
 VINA RESULT:      -7.1      4.951      8.212
  Name = 
  9 active torsions:
  status: ('A' for Active; 'I' for Inactive)
    1  A    between atoms: C_1  and  N_16
    2  A    between atoms: N_4  and  N_16
    3  A    between atoms: N_4  and  C_26
    4  A    between atoms: C_5  and  C_15
    5  A    between atoms: C_14  and  C_34
    6  A    between atoms: C_17  and  N_30
    7  A    between atoms: C_31  and  C_38
    8  A    between atoms: C_31  and  C_39
    9  A    between atoms: C_34  and  C_38
                            x       y       z     vdW  Elec       q    Type
                         _______ _______ _______ _____ _____    ______ ____

>  <TORSDO>
F 9

$$$$
=
 OpenBabel10222416583D

 40 44  0  0  1  0  0  0  0  0999 V2000
  189.1960  177.7750  138.3400 C   0  0  1  0  0  3  0  0  0  0  0  0
  187.8560  178.3530  134.9920 O   0  0  0  0  0  1  0  0  0  0  0  0
  187.5680  177.8750  136.2720 C   0  0  1  0  0  3  0  0  0  0  0  0
  187.7600  176.3560  136.3070 C   0  0  1  0  0  3  0  0  0  0  0  0
  189.0150  176.2520  138.2210 C   0  0  1  0  0  3  0  0  0  0  0  0
  187.7830  175.8820  137.6310 O   0  0  0  0  0  0  0  0  0  0  0  0
  188.4630  178.5560  137.2730 C   0  0  0  0  0  0  0  0  0  0  0  0
  188.5810  179.7720  137.2410 O   0  0  0  0  0  0  0  0  0  0  0  0
  190.1990  175.5440  137.6270 C   0  0  0  0  0  0  0  0  0  0  0  0
  193.6280  176.2920  136.6200 C   0  0  0  0  0  3  0  0  0  0  0  0
  192.4370  175.5960  136.8330 C   0  0  0  0  0  0  0  0  0  0  0  0
  192.3450  174.2480  136.4320 C   0  0  0  0  0  0  0  0  0  0  0  0
  194.7070  175.6440  136.0130 C   0  0  0  0  0  3  0  0  0  0  0  0
  194.5760  174.3060  135.6250 C   0  0  0  0  0  3  0  0  0  0  0  0
  191.3720  176.2070  137.4150 N   0  0  0  0  0  0  0  0  0  0  0  0
  193.4080  173.6400  135.8400 N   0  0  0  0  0  0  0  0  0  0  0  0
  191.1520  173.5540  136.6400 C   0  0  0  0  0  3  0  0  0  0  0  0
  190.0720  174.2050  137.2380 C   0  0  0  0  0  3  0  0  0  0  0  0
  188.8440  178.2440  139.6820 N   0  0  0  0  0  2  0  0  0  0  0  0
  189.5820  177.5140  140.6300 N   0  0  0  0  0  2  0  0  0  0  0  0
  190.3200  176.0370  142.8950 F   0  0  0  0  0  0  0  0  0  0  0  0
  186.7170  178.1380  142.9970 C   0  0  0  0  0  3  0  0  0  0  0  0
  187.0840  177.4410  144.0790 C   0  0  0  0  0  0  0  0  0  0  0  0
  189.0070  176.4490  142.7460 C   0  0  2  0  0  3  0  0  0  0  0  0
  188.9450  177.7290  141.9180 C   0  0  2  0  0  3  0  0  0  0  0  0
  187.4790  178.0980  141.7020 C   0  0  0  0  0  2  0  0  0  0  0  0
  188.3970  176.6930  144.1270 C   0  0  0  0  0  2  0  0  0  0  0  0
  185.5520  178.7400  145.6180 C   0  0  0  0  0  1  0  0  0  0  0  0
  186.2690  177.5300  145.2480 N   0  0  0  0  0  2  0  0  0  0  0  0
  186.6620  175.6340  135.5360 C   0  0  0  0  0  2  0  0  0  0  0  0
  185.2190  174.5080  137.1340 C   0  0  0  0  0  0  0  0  0  0  0  0
  185.0440  173.5400  137.8860 O   0  0  0  0  0  0  0  0  0  0  0  0
  185.4070  175.5290  136.3390 C   0  0  0  0  0  0  0  0  0  0  0  0
  184.4620  176.6840  136.3770 C   0  0  0  0  0  2  0  0  0  0  0  0
  184.5540  178.5170  139.6910 C   0  0  0  0  0  3  0  0  0  0  0  0
  183.1420  176.4200  138.4960 C   0  0  0  0  0  3  0  0  0  0  0  0
  182.8400  176.8080  139.8040 C   0  0  0  0  0  3  0  0  0  0  0  0
  184.8560  178.1300  138.3830 C   0  0  0  0  0  3  0  0  0  0  0  0
  183.5470  177.8560  140.4020 C   0  0  0  0  0  3  0  0  0  0  0  0
  184.1520  177.0780  137.7830 C   0  0  0  0  0  0  0  0  0  0  0  0
  1 19  1  1  0  0  0
  3  2  1  6  0  0  0
  3  4  1  0  0  0  0
  3  7  1  0  0  0  0
  4 30  1  6  0  0  0
  4  6  1  0  0  0  0
  5  9  1  6  0  0  0
  5  1  1  0  0  0  0
  6  5  1  0  0  0  0
  7  1  1  0  0  0  0
  8  7  2  0  0  0  0
 10 11  1  0  0  0  0
 11 15  2  0  0  0  0
 12 17  2  0  0  0  0
 12 11  1  0  0  0  0
 13 10  2  0  0  0  0
 14 16  2  0  0  0  0
 14 13  1  0  0  0  0
 15  9  1  0  0  0  0
 16 12  1  0  0  0  0
 17 18  1  0  0  0  0
 18  9  2  0  0  0  0
 19 20  1  0  0  0  0
 22 23  2  0  0  0  0
 23 27  1  0  0  0  0
 23 29  1  0  0  0  0
 24 21  1  1  0  0  0
 24 27  1  0  0  0  0
 25 20  1  6  0  0  0
 25 24  1  0  0  0  0
 26 25  1  0  0  0  0
 26 22  1  0  0  0  0
 29 28  1  0  0  0  0
 30 33  1  0  0  0  0
 31 32  2  0  0  0  0
 33 34  1  0  0  0  0
 33 31  2  0  0  0  0
 34 40  1  0  0  0  0
 35 39  1  0  0  0  0
 36 37  1  0  0  0  0
 37 39  2  0  0  0  0
 38 35  2  0  0  0  0
 40 38  1  0  0  0  0
 40 36  2  0  0  0  0
M  END
>  <MODEL>
6

>  <REMARK>
 VINA RESULT:      -7.1      4.740      8.546
  Name = 
  9 active torsions:
  status: ('A' for Active; 'I' for Inactive)
    1  A    between atoms: C_1  and  N_16
    2  A    between atoms: N_4  and  N_16
    3  A    between atoms: N_4  and  C_26
    4  A    between atoms: C_5  and  C_15
    5  A    between atoms: C_14  and  C_34
    6  A    between atoms: C_17  and  N_30
    7  A    between atoms: C_31  and  C_38
    8  A    between atoms: C_31  and  C_39
    9  A    between atoms: C_34  and  C_38
                            x       y       z     vdW  Elec       q    Type
                         _______ _______ _______ _____ _____    ______ ____

>  <TORSDO>
F 9

$$$$
=
 OpenBabel10222416583D

 40 44  0  0  1  0  0  0  0  0999 V2000
  189.4000  176.4640  137.6730 C   0  0  1  0  0  3  0  0  0  0  0  0
  186.1320  174.8460  137.4720 O   0  0  0  0  0  1  0  0  0  0  0  0
  186.9240  175.8860  136.9840 C   0  0  1  0  0  3  0  0  0  0  0  0
  186.6240  177.1690  137.7650 C   0  0  1  0  0  3  0  0  0  0  0  0
  188.7910  177.7760  138.1970 C   0  0  1  0  0  3  0  0  0  0  0  0
  187.6050  178.1480  137.5210 O   0  0  0  0  0  0  0  0  0  0  0  0
  188.3770  175.5070  137.1030 C   0  0  0  0  0  0  0  0  0  0  0  0
  188.7440  174.4110  136.7080 O   0  0  0  0  0  0  0  0  0  0  0  0
  188.6710  177.8360  139.6930 C   0  0  0  0  0  0  0  0  0  0  0  0
  190.2330  176.3460  142.6370 C   0  0  0  0  0  3  0  0  0  0  0  0
  189.3760  177.1060  141.8400 C   0  0  0  0  0  0  0  0  0  0  0  0
  188.3700  177.8780  142.4530 C   0  0  0  0  0  0  0  0  0  0  0  0
  190.0790  176.3600  144.0260 C   0  0  0  0  0  3  0  0  0  0  0  0
  189.0650  177.1360  144.5960 C   0  0  0  0  0  3  0  0  0  0  0  0
  189.5030  177.1030  140.4870 N   0  0  0  0  0  0  0  0  0  0  0  0
  188.2370  177.8740  143.8070 N   0  0  0  0  0  0  0  0  0  0  0  0
  187.5090  178.6350  141.6550 C   0  0  0  0  0  3  0  0  0  0  0  0
  187.6580  178.6120  140.2680 C   0  0  0  0  0  3  0  0  0  0  0  0
  190.4750  176.7270  136.7150 N   0  0  0  0  0  2  0  0  0  0  0  0
  191.7120  176.6230  137.3750 N   0  0  0  0  0  2  0  0  0  0  0  0
  191.5200  173.8380  137.6290 F   0  0  0  0  0  0  0  0  0  0  0  0
  194.8730  175.4180  135.7140 C   0  0  0  0  0  3  0  0  0  0  0  0
  194.7670  174.0890  135.8280 C   0  0  0  0  0  0  0  0  0  0  0  0
  192.7430  174.4140  137.3310 C   0  0  2  0  0  3  0  0  0  0  0  0
  192.5400  175.7280  136.5840 C   0  0  2  0  0  3  0  0  0  0  0  0
  193.9050  176.3730  136.3550 C   0  0  0  0  0  2  0  0  0  0  0  0
  193.5570  173.4470  136.4710 C   0  0  0  0  0  2  0  0  0  0  0  0
  195.8500  171.8400  135.4180 C   0  0  0  0  0  1  0  0  0  0  0  0
  195.7600  173.2760  135.2040 N   0  0  0  0  0  2  0  0  0  0  0  0
  185.2540  177.7340  137.4120 C   0  0  0  0  0  2  0  0  0  0  0  0
  184.3340  179.4550  138.8590 C   0  0  0  0  0  0  0  0  0  0  0  0
  184.1650  180.6630  139.0730 O   0  0  0  0  0  0  0  0  0  0  0  0
  184.5160  178.1810  138.6310 C   0  0  0  0  0  0  0  0  0  0  0  0
  183.8220  177.1680  139.4800 C   0  0  0  0  0  2  0  0  0  0  0  0
  183.6760  178.6250  142.9750 C   0  0  0  0  0  3  0  0  0  0  0  0
  181.9470  178.1540  140.8270 C   0  0  0  0  0  3  0  0  0  0  0  0
  181.4640  178.7540  141.9940 C   0  0  0  0  0  3  0  0  0  0  0  0
  184.1600  178.0260  141.8080 C   0  0  0  0  0  3  0  0  0  0  0  0
  182.3280  178.9870  143.0680 C   0  0  0  0  0  3  0  0  0  0  0  0
  183.2950  177.7870  140.7330 C   0  0  0  0  0  0  0  0  0  0  0  0
  1 19  1  6  0  0  0
  1  5  1  0  0  0  0
  3  7  1  0  0  0  0
  3  2  1  1  0  0  0
  3  4  1  0  0  0  0
  4 30  1  6  0  0  0
  5  9  1  1  0  0  0
  6  4  1  0  0  0  0
  6  5  1  0  0  0  0
  7  1  1  0  0  0  0
  8  7  2  0  0  0  0
  9 18  2  0  0  0  0
  9 15  1  0  0  0  0
 10 13  2  0  0  0  0
 11 12  1  0  0  0  0
 11 10  1  0  0  0  0
 12 16  1  0  0  0  0
 13 14  1  0  0  0  0
 15 11  2  0  0  0  0
 16 14  2  0  0  0  0
 17 12  2  0  0  0  0
 18 17  1  0  0  0  0
 19 20  1  0  0  0  0
 22 23  2  0  0  0  0
 22 26  1  0  0  0  0
 23 27  1  0  0  0  0
 24 21  1  6  0  0  0
 25 24  1  0  0  0  0
 25 20  1  1  0  0  0
 26 25  1  0  0  0  0
 27 24  1  0  0  0  0
 29 28  1  0  0  0  0
 29 23  1  0  0  0  0
 30 33  1  0  0  0  0
 31 32  2  0  0  0  0
 33 31  2  0  0  0  0
 33 34  1  0  0  0  0
 34 40  1  0  0  0  0
 35 39  1  0  0  0  0
 36 37  1  0  0  0  0
 37 39  2  0  0  0  0
 38 35  2  0  0  0  0
 40 36  2  0  0  0  0
 40 38  1  0  0  0  0
M  END
>  <MODEL>
7

>  <REMARK>
 VINA RESULT:      -7.0      4.920      9.779
  Name = 
  9 active torsions:
  status: ('A' for Active; 'I' for Inactive)
    1  A    between atoms: C_1  and  N_16
    2  A    between atoms: N_4  and  N_16
    3  A    between atoms: N_4  and  C_26
    4  A    between atoms: C_5  and  C_15
    5  A    between atoms: C_14  and  C_34
    6  A    between atoms: C_17  and  N_30
    7  A    between atoms: C_31  and  C_38
    8  A    between atoms: C_31  and  C_39
    9  A    between atoms: C_34  and  C_38
                            x       y       z     vdW  Elec       q    Type
                         _______ _______ _______ _____ _____    ______ ____

>  <TORSDO>
F 9

$$$$
=
 OpenBabel10222416583D

 40 44  0  0  1  0  0  0  0  0999 V2000
  187.7510  178.2680  139.2340 C   0  0  1  0  0  3  0  0  0  0  0  0
  184.6010  177.4020  140.8680 O   0  0  0  0  0  1  0  0  0  0  0  0
  185.4100  178.4510  140.4290 C   0  0  1  0  0  3  0  0  0  0  0  0
  186.2720  178.9550  141.5910 C   0  0  1  0  0  3  0  0  0  0  0  0
  188.2810  178.9810  140.4900 C   0  0  1  0  0  3  0  0  0  0  0  0
  187.3070  179.7860  141.1270 O   0  0  0  0  0  0  0  0  0  0  0  0
  186.2680  177.9770  139.2860 C   0  0  0  0  0  0  0  0  0  0  0  0
  185.7510  177.3650  138.3640 O   0  0  0  0  0  0  0  0  0  0  0  0
  189.0210  178.0790  141.4350 C   0  0  0  0  0  0  0  0  0  0  0  0
  190.6940  178.2690  144.6750 C   0  0  0  0  0  3  0  0  0  0  0  0
  190.2120  177.7650  143.4660 C   0  0  0  0  0  0  0  0  0  0  0  0
  190.4780  176.4240  143.1240 C   0  0  0  0  0  0  0  0  0  0  0  0
  191.4340  177.4400  145.5230 C   0  0  0  0  0  3  0  0  0  0  0  0
  191.6800  176.1160  145.1460 C   0  0  0  0  0  3  0  0  0  0  0  0
  189.4970  178.5540  142.6230 N   0  0  0  0  0  0  0  0  0  0  0  0
  191.2020  175.6370  143.9650 N   0  0  0  0  0  0  0  0  0  0  0  0
  189.9990  175.9210  141.9130 C   0  0  0  0  0  3  0  0  0  0  0  0
  189.2700  176.7520  141.0620 C   0  0  0  0  0  3  0  0  0  0  0  0
  188.1080  179.0030  138.0200 N   0  0  0  0  0  2  0  0  0  0  0  0
  189.4320  178.6870  137.6680 N   0  0  0  0  0  2  0  0  0  0  0  0
  191.4370  177.1140  138.8370 F   0  0  0  0  0  0  0  0  0  0  0  0
  189.2020  175.4660  135.7230 C   0  0  0  0  0  3  0  0  0  0  0  0
  190.1520  174.7190  136.2960 C   0  0  0  0  0  0  0  0  0  0  0  0
  190.9220  176.7580  137.6020 C   0  0  2  0  0  3  0  0  0  0  0  0
  189.4840  177.2480  137.4680 C   0  0  2  0  0  3  0  0  0  0  0  0
  188.9870  176.9150  136.0630 C   0  0  0  0  0  2  0  0  0  0  0  0
  190.9690  175.2370  137.4590 C   0  0  0  0  0  2  0  0  0  0  0  0
  191.5790  172.7120  135.7180 C   0  0  0  0  0  1  0  0  0  0  0  0
  190.2880  173.3600  135.8770 N   0  0  0  0  0  2  0  0  0  0  0  0
  185.4410  179.7140  142.6180 C   0  0  0  0  0  2  0  0  0  0  0  0
  183.8290  178.9190  144.2530 C   0  0  0  0  0  0  0  0  0  0  0  0
  182.6870  179.0040  144.7250 O   0  0  0  0  0  0  0  0  0  0  0  0
  185.0330  178.8310  143.7530 C   0  0  0  0  0  0  0  0  0  0  0  0
  185.9370  177.7230  144.1800 C   0  0  0  0  0  2  0  0  0  0  0  0
  188.1300  177.5030  147.2620 C   0  0  0  0  0  3  0  0  0  0  0  0
  185.8990  178.9380  146.3770 C   0  0  0  0  0  3  0  0  0  0  0  0
  186.4280  179.1840  147.6470 C   0  0  0  0  0  3  0  0  0  0  0  0
  187.6020  177.2570  145.9910 C   0  0  0  0  0  3  0  0  0  0  0  0
  187.5420  178.4650  148.0900 C   0  0  0  0  0  3  0  0  0  0  0  0
  186.4830  177.9730  145.5470 C   0  0  0  0  0  0  0  0  0  0  0  0
  1 19  1  6  0  0  0
  1  7  1  0  0  0  0
  1  5  1  0  0  0  0
  3  2  1  1  0  0  0
  3  4  1  0  0  0  0
  4 30  1  1  0  0  0
  5  6  1  0  0  0  0
  5  9  1  1  0  0  0
  6  4  1  0  0  0  0
  7  3  1  0  0  0  0
  8  7  2  0  0  0  0
  9 15  1  0  0  0  0
 10 13  2  0  0  0  0
 11 10  1  0  0  0  0
 12 11  1  0  0  0  0
 12 16  1  0  0  0  0
 14 13  1  0  0  0  0
 15 11  2  0  0  0  0
 16 14  2  0  0  0  0
 17 12  2  0  0  0  0
 18  9  2  0  0  0  0
 18 17  1  0  0  0  0
 20 19  1  0  0  0  0
 22 26  1  0  0  0  0
 22 23  2  0  0  0  0
 23 27  1  0  0  0  0
 24 21  1  1  0  0  0
 25 24  1  0  0  0  0
 25 20  1  6  0  0  0
 26 25  1  0  0  0  0
 27 24  1  0  0  0  0
 28 29  1  0  0  0  0
 29 23  1  0  0  0  0
 30 33  1  0  0  0  0
 31 32  2  0  0  0  0
 33 34  1  0  0  0  0
 33 31  2  0  0  0  0
 34 40  1  0  0  0  0
 35 39  1  0  0  0  0
 36 37  1  0  0  0  0
 37 39  2  0  0  0  0
 38 35  2  0  0  0  0
 40 38  1  0  0  0  0
 40 36  2  0  0  0  0
M  END
>  <MODEL>
8

>  <REMARK>
 VINA RESULT:      -7.0      4.807      8.128
  Name = 
  9 active torsions:
  status: ('A' for Active; 'I' for Inactive)
    1  A    between atoms: C_1  and  N_16
    2  A    between atoms: N_4  and  N_16
    3  A    between atoms: N_4  and  C_26
    4  A    between atoms: C_5  and  C_15
    5  A    between atoms: C_14  and  C_34
    6  A    between atoms: C_17  and  N_30
    7  A    between atoms: C_31  and  C_38
    8  A    between atoms: C_31  and  C_39
    9  A    between atoms: C_34  and  C_38
                            x       y       z     vdW  Elec       q    Type
                         _______ _______ _______ _____ _____    ______ ____

>  <TORSDO>
F 9

$$$$
=
 OpenBabel10222416583D

 40 44  0  0  1  0  0  0  0  0999 V2000
  189.7740  177.7520  138.8510 C   0  0  1  0  0  3  0  0  0  0  0  0
  188.8380  178.4630  135.3930 O   0  0  0  0  0  1  0  0  0  0  0  0
  188.4440  177.8400  136.5790 C   0  0  1  0  0  3  0  0  0  0  0  0
  188.8290  176.3590  136.5310 C   0  0  1  0  0  3  0  0  0  0  0  0
  189.8150  176.2350  138.5960 C   0  0  1  0  0  3  0  0  0  0  0  0
  188.7350  175.7730  137.8070 O   0  0  0  0  0  0  0  0  0  0  0  0
  189.0960  178.5320  137.7470 C   0  0  0  0  0  0  0  0  0  0  0  0
  189.0550  179.7500  137.8200 O   0  0  0  0  0  0  0  0  0  0  0  0
  191.1530  175.7320  138.1320 C   0  0  0  0  0  0  0  0  0  0  0  0
  192.5610  172.8050  136.4680 C   0  0  0  0  0  3  0  0  0  0  0  0
  192.4690  174.0380  137.1140 C   0  0  0  0  0  0  0  0  0  0  0  0
  193.6440  174.7700  137.3730 C   0  0  0  0  0  0  0  0  0  0  0  0
  193.8150  172.3140  136.0920 C   0  0  0  0  0  3  0  0  0  0  0  0
  194.9600  173.0690  136.3700 C   0  0  0  0  0  3  0  0  0  0  0  0
  191.2620  174.5310  137.4960 N   0  0  0  0  0  0  0  0  0  0  0  0
  194.8540  174.2710  137.0000 N   0  0  0  0  0  0  0  0  0  0  0  0
  193.5520  176.0010  138.0240 C   0  0  0  0  0  3  0  0  0  0  0  0
  192.3000  176.4850  138.4090 C   0  0  0  0  0  3  0  0  0  0  0  0
  189.1830  178.0510  140.1560 N   0  0  0  0  0  2  0  0  0  0  0  0
  189.8200  177.2700  141.1360 N   0  0  0  0  0  2  0  0  0  0  0  0
  191.4880  178.5200  143.0110 F   0  0  0  0  0  0  0  0  0  0  0  0
  187.8110  177.0430  144.3170 C   0  0  0  0  0  3  0  0  0  0  0  0
  188.6080  177.6530  145.2010 C   0  0  0  0  0  0  0  0  0  0  0  0
  190.4470  177.7200  143.4490 C   0  0  2  0  0  3  0  0  0  0  0  0
  189.3170  177.7150  142.4250 C   0  0  2  0  0  3  0  0  0  0  0  0
  188.2320  176.7530  142.9030 C   0  0  0  0  0  2  0  0  0  0  0  0
  189.9340  178.2510  144.7870 C   0  0  0  0  0  2  0  0  0  0  0  0
  188.6650  177.1590  147.6820 C   0  0  0  0  0  1  0  0  0  0  0  0
  188.1170  177.8530  146.5280 N   0  0  0  0  0  2  0  0  0  0  0  0
  187.9530  175.5820  135.5580 C   0  0  0  0  0  2  0  0  0  0  0  0
  186.1620  174.5500  136.8360 C   0  0  0  0  0  0  0  0  0  0  0  0
  185.8080  173.6400  137.5970 O   0  0  0  0  0  0  0  0  0  0  0  0
  186.5380  175.5100  136.0320 C   0  0  0  0  0  0  0  0  0  0  0  0
  185.6100  176.6430  135.7420 C   0  0  0  0  0  2  0  0  0  0  0  0
  184.6680  178.2520  139.0400 C   0  0  0  0  0  3  0  0  0  0  0  0
  183.5220  176.5580  137.1320 C   0  0  0  0  0  3  0  0  0  0  0  0
  182.7880  176.9360  138.2600 C   0  0  0  0  0  3  0  0  0  0  0  0
  185.4020  177.8750  137.9110 C   0  0  0  0  0  3  0  0  0  0  0  0
  183.3620  177.7820  139.2150 C   0  0  0  0  0  3  0  0  0  0  0  0
  184.8310  177.0240  136.9570 C   0  0  0  0  0  0  0  0  0  0  0  0
  1 19  1  1  0  0  0
  3  2  1  6  0  0  0
  3  7  1  0  0  0  0
  4 30  1  6  0  0  0
  4  3  1  0  0  0  0
  4  6  1  0  0  0  0
  5  9  1  6  0  0  0
  5  1  1  0  0  0  0
  6  5  1  0  0  0  0
  7  8  2  0  0  0  0
  7  1  1  0  0  0  0
  9 18  1  0  0  0  0
 10 11  1  0  0  0  0
 11 12  2  0  0  0  0
 11 15  1  0  0  0  0
 12 17  1  0  0  0  0
 13 14  1  0  0  0  0
 13 10  2  0  0  0  0
 14 16  2  0  0  0  0
 15  9  2  0  0  0  0
 16 12  1  0  0  0  0
 17 18  2  0  0  0  0
 19 20  1  0  0  0  0
 22 23  2  0  0  0  0
 23 29  1  0  0  0  0
 24 21  1  6  0  0  0
 24 27  1  0  0  0  0
 25 20  1  6  0  0  0
 25 26  1  0  0  0  0
 25 24  1  0  0  0  0
 26 22  1  0  0  0  0
 27 23  1  0  0  0  0
 29 28  1  0  0  0  0
 30 33  1  0  0  0  0
 31 32  2  0  0  0  0
 33 31  2  0  0  0  0
 34 33  1  0  0  0  0
 34 40  1  0  0  0  0
 35 39  1  0  0  0  0
 36 37  1  0  0  0  0
 37 39  2  0  0  0  0
 38 35  2  0  0  0  0
 40 36  2  0  0  0  0
 40 38  1  0  0  0  0
M  END
>  <MODEL>
9

>  <REMARK>
 VINA RESULT:      -6.9      4.889      9.243
  Name = 
  9 active torsions:
  status: ('A' for Active; 'I' for Inactive)
    1  A    between atoms: C_1  and  N_16
    2  A    between atoms: N_4  and  N_16
    3  A    between atoms: N_4  and  C_26
    4  A    between atoms: C_5  and  C_15
    5  A    between atoms: C_14  and  C_34
    6  A    between atoms: C_17  and  N_30
    7  A    between atoms: C_31  and  C_38
    8  A    between atoms: C_31  and  C_39
    9  A    between atoms: C_34  and  C_38
                            x       y       z     vdW  Elec       q    Type
                         _______ _______ _______ _____ _____    ______ ____

>  <TORSDO>
F 9

$$$$
