=
 OpenBabel10222418073D

 25 28  0  0  1  0  0  0  0  0999 V2000
  189.5110  176.9520  144.9350 C   0  0  0  0  0  0  0  0  0  0  0  0
  191.5930  177.5430  143.7340 C   0  0  0  0  0  3  0  0  0  0  0  0
  187.3160  176.5520  144.1110 O   0  0  0  0  0  0  0  0  0  0  0  0
  189.2090  175.9290  142.6810 C   0  0  0  0  0  3  0  0  0  0  0  0
  191.3100  177.2860  142.4570 C   0  0  0  0  0  0  0  0  0  0  0  0
  187.7360  178.3760  148.5400 C   0  0  0  0  0  3  0  0  0  0  0  0
  188.7080  176.5100  143.9450 C   0  0  0  0  0  0  0  0  0  0  0  0
  186.6620  177.4300  145.0350 C   0  0  1  0  0  3  0  0  0  0  0  0
  190.3310  176.2670  142.0340 C   0  0  0  0  0  3  0  0  0  0  0  0
  186.9240  178.1130  147.4350 C   0  0  0  0  0  3  0  0  0  0  0  0
  187.5080  177.6540  146.2510 C   0  0  0  0  0  0  0  0  0  0  0  0
  188.8970  177.4700  146.1800 C   0  0  0  0  0  0  0  0  0  0  0  0
  189.6720  177.7510  147.3140 C   0  0  0  0  0  3  0  0  0  0  0  0
  190.9980  176.7780  144.8690 C   0  0  0  0  0  2  0  0  0  0  0  0
  189.0810  178.1930  148.4560 N   0  0  0  0  0  0  0  0  0  0  0  0
  191.9930  177.9890  141.4750 O   0  0  0  0  0  1  0  0  0  0  0  0
  186.3730  178.7680  144.3610 C   0  0  0  0  0  2  0  0  0  0  0  0
  184.0970  179.9410  144.1400 C   0  0  0  0  0  2  0  0  0  0  0  0
  184.9840  178.7870  143.7370 C   0  0  0  0  0  0  0  0  0  0  0  0
  183.8560  178.5480  144.7120 C   0  0  0  0  0  2  0  0  0  0  0  0
  184.7460  178.2360  142.3410 C   0  0  0  0  0  2  0  0  0  0  0  0
  185.0390  179.2550  141.3460 N   0  0  0  0  0  2  0  0  0  0  0  0
  184.9360  178.7010  138.9910 C   0  0  0  0  0  1  0  0  0  0  0  0
  183.1980  177.8880  140.5490 C   0  0  0  0  0  1  0  0  0  0  0  0
  184.1340  179.0380  140.2310 C   0  0  0  0  0  3  0  0  0  0  0  0
  1 12  1  0  0  0  0
  2 14  1  0  0  0  0
  3  8  1  0  0  0  0
  4  7  1  0  0  0  0
  5  2  2  0  0  0  0
  7  3  1  0  0  0  0
  7  1  2  0  0  0  0
  8 17  1  6  0  0  0
  8 11  1  0  0  0  0
  9  5  1  0  0  0  0
  9  4  2  0  0  0  0
 10  6  2  0  0  0  0
 11 10  1  0  0  0  0
 12 11  2  0  0  0  0
 12 13  1  0  0  0  0
 13 15  2  0  0  0  0
 14  1  1  0  0  0  0
 15  6  1  0  0  0  0
 16  5  1  0  0  0  0
 18 20  1  0  0  0  0
 19 18  1  0  0  0  0
 19 17  1  0  0  0  0
 19 20  1  0  0  0  0
 21 19  1  0  0  0  0
 22 21  1  0  0  0  0
 23 25  1  0  0  0  0
 25 24  1  0  0  0  0
 25 22  1  0  0  0  0
M  END
>  <MODEL>
1

>  <REMARK>
 VINA RESULT:      -8.5      0.000      0.000
  Name = 
  5 active torsions:
  status: ('A' for Active; 'I' for Inactive)
    1  A    between atoms: C_10  and  C_19
    2  A    between atoms: N_12  and  C_14
    3  A    between atoms: N_12  and  C_15
    4  A    between atoms: C_13  and  C_15
    5  A    between atoms: C_13  and  C_19
                            x       y       z     vdW  Elec       q    Type
                         _______ _______ _______ _____ _____    ______ ____

>  <TORSDO>
F 5

$$$$
=
 OpenBabel10222418073D

 25 28  0  0  1  0  0  0  0  0999 V2000
  186.1140  178.0430  143.6600 C   0  0  0  0  0  0  0  0  0  0  0  0
  185.0880  179.4950  145.3810 C   0  0  0  0  0  3  0  0  0  0  0  0
  188.0610  176.6780  143.7540 O   0  0  0  0  0  0  0  0  0  0  0  0
  186.7550  176.9590  145.8120 C   0  0  0  0  0  3  0  0  0  0  0  0
  185.6810  179.1190  146.5130 C   0  0  0  0  0  0  0  0  0  0  0  0
  186.8630  178.5610  139.4950 C   0  0  0  0  0  3  0  0  0  0  0  0
  186.9530  177.2690  144.3800 C   0  0  0  0  0  0  0  0  0  0  0  0
  188.6360  177.1770  142.5410 C   0  0  1  0  0  3  0  0  0  0  0  0
  186.2110  177.7590  146.7370 C   0  0  0  0  0  3  0  0  0  0  0  0
  187.8280  177.9420  140.2910 C   0  0  0  0  0  3  0  0  0  0  0  0
  187.5850  177.7800  141.6580 C   0  0  0  0  0  0  0  0  0  0  0  0
  186.3850  178.2450  142.2170 C   0  0  0  0  0  0  0  0  0  0  0  0
  185.4480  178.8640  141.3780 C   0  0  0  0  0  3  0  0  0  0  0  0
  184.8360  178.5610  144.2450 C   0  0  0  0  0  2  0  0  0  0  0  0
  185.7040  179.0070  140.0500 N   0  0  0  0  0  0  0  0  0  0  0  0
  185.7790  180.0400  147.5460 O   0  0  0  0  0  1  0  0  0  0  0  0
  189.6930  178.2280  142.8650 C   0  0  0  0  0  2  0  0  0  0  0  0
  192.0370  177.4000  142.2150 C   0  0  0  0  0  2  0  0  0  0  0  0
  191.0020  177.5830  143.2990 C   0  0  0  0  0  0  0  0  0  0  0  0
  191.2400  176.2060  142.7300 C   0  0  0  0  0  2  0  0  0  0  0  0
  191.5530  177.7980  144.7000 C   0  0  0  0  0  2  0  0  0  0  0  0
  191.6800  176.5220  145.3860 N   0  0  0  0  0  2  0  0  0  0  0  0
  190.0910  176.8070  147.1910 C   0  0  0  0  0  1  0  0  0  0  0  0
  192.2640  175.7030  147.5950 C   0  0  0  0  0  1  0  0  0  0  0  0
  191.5560  176.7880  146.8090 C   0  0  0  0  0  3  0  0  0  0  0  0
  1 14  1  0  0  0  0
  1  7  2  0  0  0  0
  2  5  2  0  0  0  0
  3  7  1  0  0  0  0
  4  9  2  0  0  0  0
  5  9  1  0  0  0  0
  5 16  1  0  0  0  0
  6 15  2  0  0  0  0
  6 10  1  0  0  0  0
  7  4  1  0  0  0  0
  8 17  1  1  0  0  0
  8  3  1  0  0  0  0
 10 11  2  0  0  0  0
 11 12  1  0  0  0  0
 11  8  1  0  0  0  0
 12  1  1  0  0  0  0
 13 12  2  0  0  0  0
 14  2  1  0  0  0  0
 15 13  1  0  0  0  0
 17 19  1  0  0  0  0
 18 20  1  0  0  0  0
 18 19  1  0  0  0  0
 19 21  1  0  0  0  0
 20 19  1  0  0  0  0
 21 22  1  0  0  0  0
 22 25  1  0  0  0  0
 25 23  1  0  0  0  0
 25 24  1  0  0  0  0
M  END
>  <MODEL>
2

>  <REMARK>
 VINA RESULT:      -8.3      2.086      7.128
  Name = 
  5 active torsions:
  status: ('A' for Active; 'I' for Inactive)
    1  A    between atoms: C_10  and  C_19
    2  A    between atoms: N_12  and  C_14
    3  A    between atoms: N_12  and  C_15
    4  A    between atoms: C_13  and  C_15
    5  A    between atoms: C_13  and  C_19
                            x       y       z     vdW  Elec       q    Type
                         _______ _______ _______ _____ _____    ______ ____

>  <TORSDO>
F 5

$$$$
=
 OpenBabel10222418073D

 25 28  0  0  1  0  0  0  0  0999 V2000
  189.3890  176.9660  144.9980 C   0  0  0  0  0  0  0  0  0  0  0  0
  191.5050  177.4830  143.8240 C   0  0  0  0  0  3  0  0  0  0  0  0
  187.1840  176.6820  144.1510 O   0  0  0  0  0  0  0  0  0  0  0  0
  189.0590  175.9980  142.7240 C   0  0  0  0  0  3  0  0  0  0  0  0
  191.2210  177.2620  142.5410 C   0  0  0  0  0  0  0  0  0  0  0  0
  187.6510  178.4020  148.6160 C   0  0  0  0  0  3  0  0  0  0  0  0
  188.5740  176.5780  143.9940 C   0  0  0  0  0  0  0  0  0  0  0  0
  186.5630  177.5710  145.0860 C   0  0  1  0  0  3  0  0  0  0  0  0
  190.2000  176.2960  142.0910 C   0  0  0  0  0  3  0  0  0  0  0  0
  186.8360  178.1970  147.5010 C   0  0  0  0  0  3  0  0  0  0  0  0
  187.4090  177.7340  146.3130 C   0  0  0  0  0  0  0  0  0  0  0  0
  188.7890  177.4880  146.2480 C   0  0  0  0  0  0  0  0  0  0  0  0
  189.5660  177.7130  147.3930 C   0  0  0  0  0  3  0  0  0  0  0  0
  190.8670  176.7250  144.9390 C   0  0  0  0  0  2  0  0  0  0  0  0
  188.9870  178.1600  148.5390 N   0  0  0  0  0  0  0  0  0  0  0  0
  191.9430  177.9510  141.5760 O   0  0  0  0  0  1  0  0  0  0  0  0
  186.3410  178.9330  144.4350 C   0  0  0  0  0  2  0  0  0  0  0  0
  184.9460  177.8860  142.5490 C   0  0  0  0  0  2  0  0  0  0  0  0
  185.0610  178.9520  143.6110 C   0  0  0  0  0  0  0  0  0  0  0  0
  185.2550  179.3280  142.1620 C   0  0  0  0  0  2  0  0  0  0  0  0
  183.7460  179.4140  144.2190 C   0  0  0  0  0  2  0  0  0  0  0  0
  182.7020  178.4390  143.9450 N   0  0  0  0  0  2  0  0  0  0  0  0
  181.4960  178.9040  141.8970 C   0  0  0  0  0  1  0  0  0  0  0  0
  180.2900  178.7020  144.0450 C   0  0  0  0  0  1  0  0  0  0  0  0
  181.5750  179.1660  143.3870 C   0  0  0  0  0  3  0  0  0  0  0  0
  1 12  1  0  0  0  0
  2 14  1  0  0  0  0
  3  8  1  0  0  0  0
  4  7  1  0  0  0  0
  5  2  2  0  0  0  0
  7  3  1  0  0  0  0
  7  1  2  0  0  0  0
  8 17  1  6  0  0  0
  8 11  1  0  0  0  0
  9  5  1  0  0  0  0
  9  4  2  0  0  0  0
 10  6  2  0  0  0  0
 11 10  1  0  0  0  0
 12 11  2  0  0  0  0
 12 13  1  0  0  0  0
 13 15  2  0  0  0  0
 14  1  1  0  0  0  0
 15  6  1  0  0  0  0
 16  5  1  0  0  0  0
 18 19  1  0  0  0  0
 19 21  1  0  0  0  0
 19 17  1  0  0  0  0
 20 18  1  0  0  0  0
 20 19  1  0  0  0  0
 22 21  1  0  0  0  0
 23 25  1  0  0  0  0
 25 22  1  0  0  0  0
 25 24  1  0  0  0  0
M  END
>  <MODEL>
3

>  <REMARK>
 VINA RESULT:      -7.9      1.291      1.939
  Name = 
  5 active torsions:
  status: ('A' for Active; 'I' for Inactive)
    1  A    between atoms: C_10  and  C_19
    2  A    between atoms: N_12  and  C_14
    3  A    between atoms: N_12  and  C_15
    4  A    between atoms: C_13  and  C_15
    5  A    between atoms: C_13  and  C_19
                            x       y       z     vdW  Elec       q    Type
                         _______ _______ _______ _____ _____    ______ ____

>  <TORSDO>
F 5

$$$$
=
 OpenBabel10222418073D

 25 28  0  0  1  0  0  0  0  0999 V2000
  184.3280  178.6400  142.1230 C   0  0  0  0  0  0  0  0  0  0  0  0
  182.6600  177.5050  140.6900 C   0  0  0  0  0  3  0  0  0  0  0  0
  186.6830  178.8630  141.8710 O   0  0  0  0  0  0  0  0  0  0  0  0
  185.3130  178.7830  139.8370 C   0  0  0  0  0  3  0  0  0  0  0  0
  183.3110  177.2940  139.5460 C   0  0  0  0  0  0  0  0  0  0  0  0
  184.9200  178.7680  146.3430 C   0  0  0  0  0  3  0  0  0  0  0  0
  185.4010  178.7430  141.3120 C   0  0  0  0  0  0  0  0  0  0  0  0
  187.0030  178.4340  143.1990 C   0  0  1  0  0  3  0  0  0  0  0  0
  184.4130  178.1530  139.0710 C   0  0  0  0  0  3  0  0  0  0  0  0
  186.0280  178.6630  145.5000 C   0  0  0  0  0  3  0  0  0  0  0  0
  185.8320  178.6130  144.1170 C   0  0  0  0  0  0  0  0  0  0  0  0
  184.5320  178.6600  143.5910 C   0  0  0  0  0  0  0  0  0  0  0  0
  183.4510  178.7610  144.4770 C   0  0  0  0  0  3  0  0  0  0  0  0
  182.9320  178.6730  141.5770 C   0  0  0  0  0  2  0  0  0  0  0  0
  183.6660  178.8120  145.8190 N   0  0  0  0  0  0  0  0  0  0  0  0
  182.9130  176.2330  138.7450 O   0  0  0  0  0  1  0  0  0  0  0  0
  187.4180  176.9660  143.1830 C   0  0  0  0  0  2  0  0  0  0  0  0
  189.9100  177.3230  142.6700 C   0  0  0  0  0  2  0  0  0  0  0  0
  188.8660  176.7930  143.6220 C   0  0  0  0  0  0  0  0  0  0  0  0
  189.6630  175.8230  142.7850 C   0  0  0  0  0  2  0  0  0  0  0  0
  189.2450  176.8260  145.0940 C   0  0  0  0  0  2  0  0  0  0  0  0
  190.6920  176.7990  145.2360 N   0  0  0  0  0  2  0  0  0  0  0  0
  189.6970  177.0300  147.4310 C   0  0  0  0  0  1  0  0  0  0  0  0
  191.8870  175.9190  147.1570 C   0  0  0  0  0  1  0  0  0  0  0  0
  190.9880  177.0250  146.6400 C   0  0  0  0  0  3  0  0  0  0  0  0
  1 12  1  0  0  0  0
  2 14  1  0  0  0  0
  3  8  1  0  0  0  0
  4  7  1  0  0  0  0
  5  2  2  0  0  0  0
  7  3  1  0  0  0  0
  7  1  2  0  0  0  0
  8 17  1  6  0  0  0
  8 11  1  0  0  0  0
  9  5  1  0  0  0  0
  9  4  2  0  0  0  0
 10  6  2  0  0  0  0
 11 10  1  0  0  0  0
 12 11  2  0  0  0  0
 12 13  1  0  0  0  0
 13 15  2  0  0  0  0
 14  1  1  0  0  0  0
 15  6  1  0  0  0  0
 16  5  1  0  0  0  0
 17 19  1  0  0  0  0
 18 20  1  0  0  0  0
 18 19  1  0  0  0  0
 19 21  1  0  0  0  0
 20 19  1  0  0  0  0
 21 22  1  0  0  0  0
 22 25  1  0  0  0  0
 25 24  1  0  0  0  0
 25 23  1  0  0  0  0
M  END
>  <MODEL>
4

>  <REMARK>
 VINA RESULT:      -7.9      2.244      6.733
  Name = 
  5 active torsions:
  status: ('A' for Active; 'I' for Inactive)
    1  A    between atoms: C_10  and  C_19
    2  A    between atoms: N_12  and  C_14
    3  A    between atoms: N_12  and  C_15
    4  A    between atoms: C_13  and  C_15
    5  A    between atoms: C_13  and  C_19
                            x       y       z     vdW  Elec       q    Type
                         _______ _______ _______ _____ _____    ______ ____

>  <TORSDO>
F 5

$$$$
=
 OpenBabel10222418073D

 25 28  0  0  1  0  0  0  0  0999 V2000
  184.2770  178.6370  142.1400 C   0  0  0  0  0  0  0  0  0  0  0  0
  182.6400  177.4840  140.6870 C   0  0  0  0  0  3  0  0  0  0  0  0
  186.6160  178.9750  141.8630 O   0  0  0  0  0  0  0  0  0  0  0  0
  185.2190  178.9120  139.8480 C   0  0  0  0  0  3  0  0  0  0  0  0
  183.2810  177.3470  139.5270 C   0  0  0  0  0  0  0  0  0  0  0  0
  184.9300  178.6290  146.3530 C   0  0  0  0  0  3  0  0  0  0  0  0
  185.3330  178.8200  141.3190 C   0  0  0  0  0  0  0  0  0  0  0  0
  186.9760  178.5100  143.1690 C   0  0  1  0  0  3  0  0  0  0  0  0
  184.3370  178.2730  139.0710 C   0  0  0  0  0  3  0  0  0  0  0  0
  186.0280  178.6070  145.4910 C   0  0  0  0  0  3  0  0  0  0  0  0
  185.8130  178.6010  144.1100 C   0  0  0  0  0  0  0  0  0  0  0  0
  184.5040  178.6100  143.6040 C   0  0  0  0  0  0  0  0  0  0  0  0
  183.4330  178.6280  144.5090 C   0  0  0  0  0  3  0  0  0  0  0  0
  182.8740  178.6280  141.6150 C   0  0  0  0  0  2  0  0  0  0  0  0
  183.6670  178.6380  145.8490 N   0  0  0  0  0  0  0  0  0  0  0  0
  182.9180  176.3010  138.6900 O   0  0  0  0  0  1  0  0  0  0  0  0
  187.4550  177.0640  143.0900 C   0  0  0  0  0  2  0  0  0  0  0  0
  189.3710  177.0550  144.8020 C   0  0  0  0  0  2  0  0  0  0  0  0
  188.9510  176.9590  143.3550 C   0  0  0  0  0  0  0  0  0  0  0  0
  189.5880  178.2320  143.8570 C   0  0  0  0  0  2  0  0  0  0  0  0
  189.8440  176.1060  142.4690 C   0  0  0  0  0  2  0  0  0  0  0  0
  190.6490  176.9560  141.6060 N   0  0  0  0  0  2  0  0  0  0  0  0
  189.2300  177.8730  139.8710 C   0  0  0  0  0  1  0  0  0  0  0  0
  191.3550  176.7530  139.2920 C   0  0  0  0  0  1  0  0  0  0  0  0
  190.1780  176.7540  140.2470 C   0  0  0  0  0  3  0  0  0  0  0  0
  1 12  1  0  0  0  0
  2 14  1  0  0  0  0
  3  8  1  0  0  0  0
  4  7  1  0  0  0  0
  5  2  2  0  0  0  0
  7  3  1  0  0  0  0
  7  1  2  0  0  0  0
  8 17  1  6  0  0  0
  8 11  1  0  0  0  0
  9  5  1  0  0  0  0
  9  4  2  0  0  0  0
 10  6  2  0  0  0  0
 11 10  1  0  0  0  0
 12 11  2  0  0  0  0
 12 13  1  0  0  0  0
 13 15  2  0  0  0  0
 14  1  1  0  0  0  0
 15  6  1  0  0  0  0
 16  5  1  0  0  0  0
 17 19  1  0  0  0  0
 19 20  1  0  0  0  0
 19 18  1  0  0  0  0
 20 18  1  0  0  0  0
 21 19  1  0  0  0  0
 22 21  1  0  0  0  0
 23 25  1  0  0  0  0
 24 25  1  0  0  0  0
 25 22  1  0  0  0  0
M  END
>  <MODEL>
5

>  <REMARK>
 VINA RESULT:      -7.6      2.546      6.084
  Name = 
  5 active torsions:
  status: ('A' for Active; 'I' for Inactive)
    1  A    between atoms: C_10  and  C_19
    2  A    between atoms: N_12  and  C_14
    3  A    between atoms: N_12  and  C_15
    4  A    between atoms: C_13  and  C_15
    5  A    between atoms: C_13  and  C_19
                            x       y       z     vdW  Elec       q    Type
                         _______ _______ _______ _____ _____    ______ ____

>  <TORSDO>
F 5

$$$$
=
 OpenBabel10222418073D

 25 28  0  0  1  0  0  0  0  0999 V2000
  188.6790  177.5490  139.0570 C   0  0  0  0  0  0  0  0  0  0  0  0
  189.1230  175.6900  137.4860 C   0  0  0  0  0  3  0  0  0  0  0  0
  189.7930  178.1710  141.0660 O   0  0  0  0  0  0  0  0  0  0  0  0
  191.1320  177.1570  139.2770 C   0  0  0  0  0  3  0  0  0  0  0  0
  190.3400  175.2660  137.8260 C   0  0  0  0  0  0  0  0  0  0  0  0
  185.0960  179.1440  140.7290 C   0  0  0  0  0  3  0  0  0  0  0  0
  189.8170  177.6110  139.7800 C   0  0  0  0  0  0  0  0  0  0  0  0
  188.6030  178.2680  141.8560 C   0  0  1  0  0  3  0  0  0  0  0  0
  191.3600  176.1400  138.4380 C   0  0  0  0  0  3  0  0  0  0  0  0
  186.2270  179.0110  141.5360 C   0  0  0  0  0  3  0  0  0  0  0  0
  187.3990  178.4800  140.9900 C   0  0  0  0  0  0  0  0  0  0  0  0
  187.4270  178.0800  139.6450 C   0  0  0  0  0  0  0  0  0  0  0  0
  186.2650  178.2300  138.8740 C   0  0  0  0  0  3  0  0  0  0  0  0
  188.6880  177.1100  137.6240 C   0  0  0  0  0  2  0  0  0  0  0  0
  185.1380  178.7530  139.4270 N   0  0  0  0  0  0  0  0  0  0  0  0
  190.6770  173.9460  137.5650 O   0  0  0  0  0  1  0  0  0  0  0  0
  188.4220  176.9950  142.6770 C   0  0  0  0  0  2  0  0  0  0  0  0
  189.8460  178.2590  144.4020 C   0  0  0  0  0  2  0  0  0  0  0  0
  188.7820  177.2200  144.1390 C   0  0  0  0  0  0  0  0  0  0  0  0
  190.1740  176.7750  144.5170 C   0  0  0  0  0  2  0  0  0  0  0  0
  187.7410  177.0580  145.2350 C   0  0  0  0  0  2  0  0  0  0  0  0
  186.4210  177.3860  144.7200 N   0  0  0  0  0  2  0  0  0  0  0  0
  184.6100  178.9820  144.9050 C   0  0  0  0  0  1  0  0  0  0  0  0
  186.0470  178.4840  146.8530 C   0  0  0  0  0  1  0  0  0  0  0  0
  186.0160  178.6330  145.3440 C   0  0  0  0  0  3  0  0  0  0  0  0
  1 12  1  0  0  0  0
  1  7  2  0  0  0  0
  2 14  1  0  0  0  0
  2  5  2  0  0  0  0
  3  8  1  0  0  0  0
  4  7  1  0  0  0  0
  5  9  1  0  0  0  0
  6 10  1  0  0  0  0
  7  3  1  0  0  0  0
  8 17  1  6  0  0  0
  9  4  2  0  0  0  0
 11 10  2  0  0  0  0
 11  8  1  0  0  0  0
 12 11  1  0  0  0  0
 13 15  1  0  0  0  0
 13 12  2  0  0  0  0
 14  1  1  0  0  0  0
 15  6  2  0  0  0  0
 16  5  1  0  0  0  0
 17 19  1  0  0  0  0
 18 20  1  0  0  0  0
 19 18  1  0  0  0  0
 19 20  1  0  0  0  0
 19 21  1  0  0  0  0
 22 21  1  0  0  0  0
 22 25  1  0  0  0  0
 23 25  1  0  0  0  0
 25 24  1  0  0  0  0
M  END
>  <MODEL>
6

>  <REMARK>
 VINA RESULT:      -7.5      2.835      5.996
  Name = 
  5 active torsions:
  status: ('A' for Active; 'I' for Inactive)
    1  A    between atoms: C_10  and  C_19
    2  A    between atoms: N_12  and  C_14
    3  A    between atoms: N_12  and  C_15
    4  A    between atoms: C_13  and  C_15
    5  A    between atoms: C_13  and  C_19
                            x       y       z     vdW  Elec       q    Type
                         _______ _______ _______ _____ _____    ______ ____

>  <TORSDO>
F 5

$$$$
=
 OpenBabel10222418073D

 25 28  0  0  1  0  0  0  0  0999 V2000
  187.9010  177.5010  144.8230 C   0  0  0  0  0  0  0  0  0  0  0  0
  190.1650  178.2530  145.4820 C   0  0  0  0  0  3  0  0  0  0  0  0
  187.0830  176.7250  142.7280 O   0  0  0  0  0  0  0  0  0  0  0  0
  189.4170  176.2320  143.3020 C   0  0  0  0  0  3  0  0  0  0  0  0
  190.9440  177.8370  144.4840 C   0  0  0  0  0  0  0  0  0  0  0  0
  183.9950  179.0090  145.6200 C   0  0  0  0  0  3  0  0  0  0  0  0
  188.1250  176.8580  143.6570 C   0  0  0  0  0  0  0  0  0  0  0  0
  185.9420  177.5900  142.6990 C   0  0  1  0  0  3  0  0  0  0  0  0
  190.6360  176.6570  143.6540 C   0  0  0  0  0  3  0  0  0  0  0  0
  184.2960  178.5320  144.3430 C   0  0  0  0  0  3  0  0  0  0  0  0
  185.5790  178.0450  144.0810 C   0  0  0  0  0  0  0  0  0  0  0  0
  186.5510  178.0480  145.0930 C   0  0  0  0  0  0  0  0  0  0  0  0
  186.2030  178.5410  146.3580 C   0  0  0  0  0  3  0  0  0  0  0  0
  188.9340  177.5270  145.9090 C   0  0  0  0  0  2  0  0  0  0  0  0
  184.9460  179.0050  146.5920 N   0  0  0  0  0  0  0  0  0  0  0  0
  192.1200  178.5290  144.2320 O   0  0  0  0  0  1  0  0  0  0  0  0
  186.2340  178.8040  141.8230 C   0  0  0  0  0  2  0  0  0  0  0  0
  184.4870  179.4610  140.0580 C   0  0  0  0  0  2  0  0  0  0  0  0
  185.6870  178.6170  140.4140 C   0  0  0  0  0  0  0  0  0  0  0  0
  184.3230  177.9740  140.3540 C   0  0  0  0  0  2  0  0  0  0  0  0
  186.6080  178.2680  139.2570 C   0  0  0  0  0  2  0  0  0  0  0  0
  187.9790  178.6230  139.5880 N   0  0  0  0  0  2  0  0  0  0  0  0
  189.1520  177.6630  137.6990 C   0  0  0  0  0  1  0  0  0  0  0  0
  190.1050  177.5150  139.9740 C   0  0  0  0  0  1  0  0  0  0  0  0
  188.8200  177.5150  139.1690 C   0  0  0  0  0  3  0  0  0  0  0  0
  1 12  1  0  0  0  0
  1 14  1  0  0  0  0
  2 14  1  0  0  0  0
  3  7  1  0  0  0  0
  4  9  2  0  0  0  0
  4  7  1  0  0  0  0
  5  2  2  0  0  0  0
  6 15  1  0  0  0  0
  7  1  2  0  0  0  0
  8 17  1  6  0  0  0
  8  3  1  0  0  0  0
  8 11  1  0  0  0  0
  9  5  1  0  0  0  0
 10  6  2  0  0  0  0
 11 10  1  0  0  0  0
 11 12  2  0  0  0  0
 12 13  1  0  0  0  0
 13 15  2  0  0  0  0
 16  5  1  0  0  0  0
 18 20  1  0  0  0  0
 18 19  1  0  0  0  0
 19 17  1  0  0  0  0
 20 19  1  0  0  0  0
 21 22  1  0  0  0  0
 21 19  1  0  0  0  0
 23 25  1  0  0  0  0
 25 22  1  0  0  0  0
 25 24  1  0  0  0  0
M  END
>  <MODEL>
7

>  <REMARK>
 VINA RESULT:      -7.5      2.061      3.479
  Name = 
  5 active torsions:
  status: ('A' for Active; 'I' for Inactive)
    1  A    between atoms: C_10  and  C_19
    2  A    between atoms: N_12  and  C_14
    3  A    between atoms: N_12  and  C_15
    4  A    between atoms: C_13  and  C_15
    5  A    between atoms: C_13  and  C_19
                            x       y       z     vdW  Elec       q    Type
                         _______ _______ _______ _____ _____    ______ ____

>  <TORSDO>
F 5

$$$$
=
 OpenBabel10222418073D

 25 28  0  0  1  0  0  0  0  0999 V2000
  188.5040  177.8180  139.3180 C   0  0  0  0  0  0  0  0  0  0  0  0
  189.2950  176.0930  137.7310 C   0  0  0  0  0  3  0  0  0  0  0  0
  189.2360  178.3380  141.5210 O   0  0  0  0  0  0  0  0  0  0  0  0
  190.9020  177.5050  139.9260 C   0  0  0  0  0  3  0  0  0  0  0  0
  190.4580  175.6930  138.2450 C   0  0  0  0  0  0  0  0  0  0  0  0
  184.6190  179.1540  140.4550 C   0  0  0  0  0  3  0  0  0  0  0  0
  189.5020  177.8730  140.2260 C   0  0  0  0  0  0  0  0  0  0  0  0
  187.9270  178.3350  142.1040 C   0  0  1  0  0  3  0  0  0  0  0  0
  191.3180  176.5590  139.0740 C   0  0  0  0  0  3  0  0  0  0  0  0
  185.6050  179.0080  141.4330 C   0  0  0  0  0  3  0  0  0  0  0  0
  186.8750  178.5620  141.0600 C   0  0  0  0  0  0  0  0  0  0  0  0
  187.1470  178.2590  139.7170 C   0  0  0  0  0  0  0  0  0  0  0  0
  186.1240  178.4190  138.7720 C   0  0  0  0  0  3  0  0  0  0  0  0
  188.7740  177.4820  137.8830 C   0  0  0  0  0  2  0  0  0  0  0  0
  184.8960  178.8580  139.1570 N   0  0  0  0  0  0  0  0  0  0  0  0
  190.8990  174.4080  137.9610 O   0  0  0  0  0  1  0  0  0  0  0  0
  187.6750  177.0000  142.8000 C   0  0  0  0  0  2  0  0  0  0  0  0
  186.5780  176.8850  145.1200 C   0  0  0  0  0  2  0  0  0  0  0  0
  187.8290  177.1240  144.3090 C   0  0  0  0  0  0  0  0  0  0  0  0
  187.1060  178.3010  144.9180 C   0  0  0  0  0  2  0  0  0  0  0  0
  189.1340  176.7530  144.9950 C   0  0  0  0  0  2  0  0  0  0  0  0
  189.8990  177.9530  145.2930 N   0  0  0  0  0  2  0  0  0  0  0  0
  191.2430  176.5300  143.8670 C   0  0  0  0  0  1  0  0  0  0  0  0
  191.6630  178.9640  143.9660 C   0  0  0  0  0  1  0  0  0  0  0  0
  191.2370  177.7480  144.7660 C   0  0  0  0  0  3  0  0  0  0  0  0
  1 12  1  0  0  0  0
  1  7  2  0  0  0  0
  2 14  1  0  0  0  0
  2  5  2  0  0  0  0
  3  8  1  0  0  0  0
  4  7  1  0  0  0  0
  5  9  1  0  0  0  0
  6 10  1  0  0  0  0
  7  3  1  0  0  0  0
  8 17  1  6  0  0  0
  9  4  2  0  0  0  0
 11 10  2  0  0  0  0
 11  8  1  0  0  0  0
 12 11  1  0  0  0  0
 13 15  1  0  0  0  0
 13 12  2  0  0  0  0
 14  1  1  0  0  0  0
 15  6  2  0  0  0  0
 16  5  1  0  0  0  0
 17 19  1  0  0  0  0
 19 20  1  0  0  0  0
 19 21  1  0  0  0  0
 19 18  1  0  0  0  0
 20 18  1  0  0  0  0
 21 22  1  0  0  0  0
 23 25  1  0  0  0  0
 24 25  1  0  0  0  0
 25 22  1  0  0  0  0
M  END
>  <MODEL>
8

>  <REMARK>
 VINA RESULT:      -7.4      2.609      6.199
  Name = 
  5 active torsions:
  status: ('A' for Active; 'I' for Inactive)
    1  A    between atoms: C_10  and  C_19
    2  A    between atoms: N_12  and  C_14
    3  A    between atoms: N_12  and  C_15
    4  A    between atoms: C_13  and  C_15
    5  A    between atoms: C_13  and  C_19
                            x       y       z     vdW  Elec       q    Type
                         _______ _______ _______ _____ _____    ______ ____

>  <TORSDO>
F 5

$$$$
=
 OpenBabel10222418073D

 25 28  0  0  1  0  0  0  0  0999 V2000
  190.5490  177.5180  142.1600 C   0  0  0  0  0  0  0  0  0  0  0  0
  191.8920  176.0730  143.6530 C   0  0  0  0  0  3  0  0  0  0  0  0
  188.7420  178.9870  142.6500 O   0  0  0  0  0  0  0  0  0  0  0  0
  190.4870  178.7070  144.3510 C   0  0  0  0  0  3  0  0  0  0  0  0
  191.6030  176.5190  144.8750 C   0  0  0  0  0  0  0  0  0  0  0  0
  188.8060  176.9000  138.3190 C   0  0  0  0  0  3  0  0  0  0  0  0
  189.9400  178.3600  143.0220 C   0  0  0  0  0  0  0  0  0  0  0  0
  187.8730  178.4780  141.6320 C   0  0  1  0  0  3  0  0  0  0  0  0
  191.2010  177.9110  145.1560 C   0  0  0  0  0  3  0  0  0  0  0  0
  188.0860  177.5960  139.2920 C   0  0  0  0  0  3  0  0  0  0  0  0
  188.6550  177.7910  140.5530 C   0  0  0  0  0  0  0  0  0  0  0  0
  189.9330  177.2820  140.8330 C   0  0  0  0  0  0  0  0  0  0  0  0
  190.6150  176.5870  139.8250 C   0  0  0  0  0  3  0  0  0  0  0  0
  191.9060  176.9540  142.4490 C   0  0  0  0  0  2  0  0  0  0  0  0
  190.0430  176.4120  138.6040 N   0  0  0  0  0  0  0  0  0  0  0  0
  191.7160  175.6400  145.9430 O   0  0  0  0  0  1  0  0  0  0  0  0
  186.8790  177.4950  142.2440 C   0  0  0  0  0  2  0  0  0  0  0  0
  184.4040  178.1850  142.2450 C   0  0  0  0  0  2  0  0  0  0  0  0
  185.7400  178.2230  142.9460 C   0  0  0  0  0  0  0  0  0  0  0  0
  185.2470  179.4550  142.2270 C   0  0  0  0  0  2  0  0  0  0  0  0
  185.6820  178.3040  144.4630 C   0  0  0  0  0  2  0  0  0  0  0  0
  186.7070  177.4530  145.0470 N   0  0  0  0  0  2  0  0  0  0  0  0
  188.0240  177.7730  147.0530 C   0  0  0  0  0  1  0  0  0  0  0  0
  185.8140  178.8530  146.8190 C   0  0  0  0  0  1  0  0  0  0  0  0
  186.6280  177.6170  146.4880 C   0  0  0  0  0  3  0  0  0  0  0  0
  1 14  1  0  0  0  0
  1  7  2  0  0  0  0
  2  5  2  0  0  0  0
  3  7  1  0  0  0  0
  4  9  2  0  0  0  0
  5  9  1  0  0  0  0
  5 16  1  0  0  0  0
  6 15  2  0  0  0  0
  6 10  1  0  0  0  0
  7  4  1  0  0  0  0
  8 17  1  1  0  0  0
  8  3  1  0  0  0  0
 10 11  2  0  0  0  0
 11 12  1  0  0  0  0
 11  8  1  0  0  0  0
 12  1  1  0  0  0  0
 13 12  2  0  0  0  0
 14  2  1  0  0  0  0
 15 13  1  0  0  0  0
 17 19  1  0  0  0  0
 18 19  1  0  0  0  0
 19 21  1  0  0  0  0
 20 18  1  0  0  0  0
 20 19  1  0  0  0  0
 21 22  1  0  0  0  0
 22 25  1  0  0  0  0
 25 24  1  0  0  0  0
 25 23  1  0  0  0  0
M  END
>  <MODEL>
9

>  <REMARK>
 VINA RESULT:      -7.4      2.599      5.377
  Name = 
  5 active torsions:
  status: ('A' for Active; 'I' for Inactive)
    1  A    between atoms: C_10  and  C_19
    2  A    between atoms: N_12  and  C_14
    3  A    between atoms: N_12  and  C_15
    4  A    between atoms: C_13  and  C_15
    5  A    between atoms: C_13  and  C_19
                            x       y       z     vdW  Elec       q    Type
                         _______ _______ _______ _____ _____    ______ ____

>  <TORSDO>
F 5

$$$$
