=
 OpenBabel10222416143D

 44 49  0  0  1  0  0  0  0  0999 V2000
  188.2750  177.4020  138.0510 C   0  0  2  0  0  3  0  0  0  0  0  0
  185.0090  178.9860  138.4510 C   0  0  0  0  0  3  0  0  0  0  0  0
  182.4520  176.6830  138.7210 C   0  0  0  0  0  3  0  0  0  0  0  0
  183.8110  178.5870  142.5380 C   0  0  0  0  0  0  0  0  0  0  0  0
  188.8120  176.2010  137.4730 N   0  0  0  0  0  0  0  0  0  0  0  0
  187.9670  175.5690  136.7470 C   0  0  0  0  0  3  0  0  0  0  0  0
  184.1550  175.9620  136.8750 C   0  0  0  0  0  3  0  0  0  0  0  0
  186.8880  177.4320  137.5220 C   0  0  0  0  0  0  0  0  0  0  0  0
  189.0580  178.6040  137.5490 C   0  0  0  0  0  1  0  0  0  0  0  0
  184.5810  178.8470  139.8500 C   0  0  0  0  0  0  0  0  0  0  0  0
  182.8580  178.4170  141.5240 C   0  0  0  0  0  0  0  0  0  0  0  0
  185.4770  175.3390  137.2030 C   0  0  2  0  0  3  0  0  0  0  0  0
  183.3110  176.3120  137.8090 C   0  0  0  0  0  0  0  0  0  0  0  0
  185.9650  178.2360  137.9780 C   0  0  0  0  0  0  0  0  0  0  0  0
  186.6250  176.2320  136.6630 C   0  0  2  0  0  3  0  0  0  0  0  0
  185.5200  179.0120  140.8720 C   0  0  0  0  0  3  0  0  0  0  0  0
  182.2910  178.1270  139.0760 C   0  0  0  0  0  2  0  0  0  0  0  0
  183.2460  178.5200  140.1680 C   0  0  0  0  0  0  0  0  0  0  0  0
  185.1390  178.8800  142.2060 C   0  0  0  0  0  3  0  0  0  0  0  0
  182.7140  171.8930  134.9130 C   0  0  0  0  0  3  0  0  0  0  0  0
  184.6350  173.7750  135.3450 C   0  0  0  0  0  2  0  0  0  0  0  0
  183.7950  172.5960  135.6400 C   0  0  0  0  0  0  0  0  0  0  0  0
  183.9380  172.1370  136.8260 C   0  0  0  0  0  0  0  0  0  0  0  0
  184.9340  172.8450  137.6490 C   0  0  0  0  0  2  0  0  0  0  0  0
  183.0870  171.0970  137.1120 O   0  0  0  0  0  0  0  0  0  0  0  0
  185.4570  173.9030  136.6460 C   0  0  2  0  0  3  0  0  0  0  0  0
  182.2800  170.8400  135.9610 C   0  0  0  0  0  3  0  0  0  0  0  0
  181.5420  178.1270  141.9040 O   0  0  0  0  0  0  0  0  0  0  0  0
  179.4000  178.3020  143.3350 O   0  0  0  0  0  1  0  0  0  0  0  0
  179.3910  179.2380  140.9060 N   0  0  0  0  0  1  0  0  0  0  0  0
  180.3880  179.3700  142.3910 P   0  0  2  0  0  0  0  0  0  0  0  0
  183.4050  178.4720  143.8710 O   0  0  0  0  0  0  0  0  0  0  0  0
  183.7940  179.3930  144.8820 C   0  0  0  0  0  2  0  0  0  0  0  0
  184.4850  178.6410  146.0050 C   0  0  0  0  0  2  0  0  0  0  0  0
  185.9950  178.6970  145.8290 C   0  0  0  0  0  2  0  0  0  0  0  0
  186.5430  177.3420  145.3970 C   0  0  0  0  0  2  0  0  0  0  0  0
  190.2820  177.5900  144.7770 C   0  0  1  0  0  3  0  0  0  0  0  0
  188.8040  177.1450  146.5620 C   0  0  0  0  0  0  0  0  0  0  0  0
  188.3360  176.9080  147.7060 O   0  0  0  0  0  0  0  0  0  0  0  0
  188.8270  177.6380  144.2740 C   0  0  0  0  0  2  0  0  0  0  0  0
  190.2450  177.2490  146.2710 C   0  0  0  0  0  2  0  0  0  0  0  0
  188.0000  177.3480  145.4220 N   0  0  0  0  0  0  0  0  0  0  0  0
  191.0640  176.5210  144.0340 C   0  0  0  0  0  2  0  0  0  0  0  0
  190.2140  175.9080  142.9380 C   0  0  0  0  0  1  0  0  0  0  0  0
  1  9  1  6  0  0  0
  2 10  1  0  0  0  0
  3 17  1  0  0  0  0
  4 32  1  0  0  0  0
  5  1  1  0  0  0  0
  6  5  2  0  0  0  0
  7 13  2  0  0  0  0
  8 14  2  0  0  0  0
  8  1  1  0  0  0  0
 10 18  2  0  0  0  0
 10 16  1  0  0  0  0
 11 28  1  0  0  0  0
 11  4  2  0  0  0  0
 12  7  1  6  0  0  0
 13  3  2  0  0  0  0
 14  2  2  0  0  0  0
 15  6  1  1  0  0  0
 15 12  1  0  0  0  0
 15  8  1  0  0  0  0
 16 19  2  0  0  0  0
 17 18  1  0  0  0  0
 18 11  1  0  0  0  0
 19  4  1  0  0  0  0
 20 22  1  0  0  0  0
 20 27  2  0  0  0  0
 21 22  1  0  0  0  0
 22 23  2  0  0  0  0
 23 25  1  0  0  0  0
 23 24  1  0  0  0  0
 26 21  1  6  0  0  0
 26 12  1  0  0  0  0
 26 24  1  0  0  0  0
 27 25  1  0  0  0  0
 28 31  1  0  0  0  0
 31 30  1  6  0  0  0
 31 29  1  0  0  0  0
 32 33  1  0  0  0  0
 33 34  1  0  0  0  0
 35 34  1  0  0  0  0
 36 42  1  0  0  0  0
 36 35  1  0  0  0  0
 37 43  1  6  0  0  0
 37 41  1  0  0  0  0
 38 39  2  0  0  0  0
 40 37  1  0  0  0  0
 40 42  1  0  0  0  0
 41 38  1  0  0  0  0
 42 38  1  0  0  0  0
 44 43  1  0  0  0  0
M  END
>  <MODEL>
1

>  <REMARK>
 VINA RESULT:      -9.0      0.000      0.000
  Name = 
  10 active torsions:
  status: ('A' for Active; 'I' for Inactive)
    1  A    between atoms: O_4  and  C_16
    2  A    between atoms: O_4  and  P_33
    3  A    between atoms: C_5  and  O_25
    4  A    between atoms: C_7  and  C_26
    5  A    between atoms: C_7  and  C_36
    6  A    between atoms: C_13  and  O_25
    7  A    between atoms: C_13  and  C_26
    8  A    between atoms: C_18  and  C_31
    9  A    between atoms: C_20  and  C_29
   10  A    between atoms: C_36  and  N_44
                            x       y       z     vdW  Elec       q    Type
                         _______ _______ _______ _____ _____    ______ ____

>  <TORSDO>
F 10

$$$$
=
 OpenBabel10222416143D

 44 49  0  0  1  0  0  0  0  0999 V2000
  180.3880  179.7670  142.7110 C   0  0  2  0  0  3  0  0  0  0  0  0
  182.2330  177.5140  140.5080 C   0  0  0  0  0  3  0  0  0  0  0  0
  183.1170  179.0160  137.5290 C   0  0  0  0  0  3  0  0  0  0  0  0
  186.3610  178.6310  140.5900 C   0  0  0  0  0  0  0  0  0  0  0  0
  179.4790  180.8730  142.5840 N   0  0  0  0  0  0  0  0  0  0  0  0
  179.0470  181.0350  141.3890 C   0  0  0  0  0  3  0  0  0  0  0  0
  180.6760  179.6630  138.2010 C   0  0  0  0  0  3  0  0  0  0  0  0
  180.4400  179.2210  141.3310 C   0  0  0  0  0  0  0  0  0  0  0  0
  179.8070  178.7370  143.6660 C   0  0  0  0  0  1  0  0  0  0  0  0
  183.6520  177.8930  140.5200 C   0  0  0  0  0  0  0  0  0  0  0  0
  185.7740  178.2600  139.3720 C   0  0  0  0  0  0  0  0  0  0  0  0
  180.3800  180.6870  139.2530 C   0  0  2  0  0  3  0  0  0  0  0  0
  181.9030  179.3540  137.8710 C   0  0  0  0  0  0  0  0  0  0  0  0
  181.3250  178.3450  140.9410 C   0  0  0  0  0  0  0  0  0  0  0  0
  179.5800  180.0330  140.4100 C   0  0  2  0  0  3  0  0  0  0  0  0
  184.2510  178.2670  141.7260 C   0  0  0  0  0  3  0  0  0  0  0  0
  183.7140  177.7290  138.0030 C   0  0  0  0  0  2  0  0  0  0  0  0
  184.4040  177.9150  139.3260 C   0  0  0  0  0  0  0  0  0  0  0  0
  185.5930  178.6360  141.7610 C   0  0  0  0  0  3  0  0  0  0  0  0
  179.6930  183.0580  134.9340 C   0  0  0  0  0  3  0  0  0  0  0  0
  179.2000  181.5210  137.1270 C   0  0  0  0  0  2  0  0  0  0  0  0
  179.6970  182.6860  136.3660 C   0  0  0  0  0  0  0  0  0  0  0  0
  180.3850  183.5090  137.0630 C   0  0  0  0  0  0  0  0  0  0  0  0
  180.5150  183.1590  138.4880 C   0  0  0  0  0  2  0  0  0  0  0  0
  180.9120  184.5390  136.3220 O   0  0  0  0  0  0  0  0  0  0  0  0
  179.6690  181.8630  138.5580 C   0  0  2  0  0  3  0  0  0  0  0  0
  180.5170  184.3680  134.9590 C   0  0  0  0  0  3  0  0  0  0  0  0
  186.5810  178.2690  138.2270 O   0  0  0  0  0  0  0  0  0  0  0  0
  189.0030  177.7230  137.5190 O   0  0  0  0  0  1  0  0  0  0  0  0
  187.0320  177.0150  135.9730 N   0  0  0  0  0  1  0  0  0  0  0  0
  187.5070  176.8630  137.6960 P   0  0  2  0  0  0  0  0  0  0  0  0
  187.7150  178.9770  140.6100 O   0  0  0  0  0  0  0  0  0  0  0  0
  188.5780  178.6750  141.6990 C   0  0  0  0  0  2  0  0  0  0  0  0
  189.0790  177.2490  141.5590 C   0  0  0  0  0  2  0  0  0  0  0  0
  188.8290  176.4720  142.8410 C   0  0  0  0  0  2  0  0  0  0  0  0
  189.5040  177.1490  144.0290 C   0  0  0  0  0  2  0  0  0  0  0  0
  186.5230  177.5640  146.3450 C   0  0  1  0  0  3  0  0  0  0  0  0
  188.8730  177.4140  146.4870 C   0  0  0  0  0  0  0  0  0  0  0  0
  190.0500  177.3390  146.9270 O   0  0  0  0  0  0  0  0  0  0  0  0
  187.1220  177.4170  144.9340 C   0  0  0  0  0  2  0  0  0  0  0  0
  187.6860  177.5780  147.3430 C   0  0  0  0  0  2  0  0  0  0  0  0
  188.5530  177.3420  145.1160 N   0  0  0  0  0  0  0  0  0  0  0  0
  185.7450  178.8640  146.4570 C   0  0  0  0  0  2  0  0  0  0  0  0
  184.7550  178.9900  145.3150 C   0  0  0  0  0  1  0  0  0  0  0  0
  1  9  1  1  0  0  0
  2 10  1  0  0  0  0
  2 14  2  0  0  0  0
  3 13  2  0  0  0  0
  3 17  1  0  0  0  0
  4 32  1  0  0  0  0
  4 19  1  0  0  0  0
  5  1  1  0  0  0  0
  6  5  2  0  0  0  0
  8  1  1  0  0  0  0
 10 16  1  0  0  0  0
 11  4  2  0  0  0  0
 12  7  1  6  0  0  0
 12 15  1  0  0  0  0
 13  7  2  0  0  0  0
 14  8  2  0  0  0  0
 15  8  1  0  0  0  0
 15  6  1  1  0  0  0
 16 19  2  0  0  0  0
 17 18  1  0  0  0  0
 18 11  1  0  0  0  0
 18 10  2  0  0  0  0
 20 27  2  0  0  0  0
 20 22  1  0  0  0  0
 22 23  2  0  0  0  0
 22 21  1  0  0  0  0
 23 24  1  0  0  0  0
 24 26  1  0  0  0  0
 25 23  1  0  0  0  0
 26 21  1  6  0  0  0
 26 12  1  0  0  0  0
 27 25  1  0  0  0  0
 28 11  1  0  0  0  0
 29 31  1  0  0  0  0
 31 30  1  6  0  0  0
 31 28  1  0  0  0  0
 32 33  1  0  0  0  0
 34 33  1  0  0  0  0
 34 35  1  0  0  0  0
 35 36  1  0  0  0  0
 36 42  1  0  0  0  0
 37 43  1  6  0  0  0
 37 41  1  0  0  0  0
 38 39  2  0  0  0  0
 38 41  1  0  0  0  0
 40 42  1  0  0  0  0
 40 37  1  0  0  0  0
 42 38  1  0  0  0  0
 44 43  1  0  0  0  0
M  END
>  <MODEL>
2

>  <REMARK>
 VINA RESULT:      -8.6      3.938      7.500
  Name = 
  10 active torsions:
  status: ('A' for Active; 'I' for Inactive)
    1  A    between atoms: O_4  and  C_16
    2  A    between atoms: O_4  and  P_33
    3  A    between atoms: C_5  and  O_25
    4  A    between atoms: C_7  and  C_26
    5  A    between atoms: C_7  and  C_36
    6  A    between atoms: C_13  and  O_25
    7  A    between atoms: C_13  and  C_26
    8  A    between atoms: C_18  and  C_31
    9  A    between atoms: C_20  and  C_29
   10  A    between atoms: C_36  and  N_44
                            x       y       z     vdW  Elec       q    Type
                         _______ _______ _______ _____ _____    ______ ____

>  <TORSDO>
F 10

$$$$
=
 OpenBabel10222416143D

 44 49  0  0  1  0  0  0  0  0999 V2000
  189.8270  175.1410  137.6350 C   0  0  2  0  0  3  0  0  0  0  0  0
  187.4660  177.9070  137.3120 C   0  0  0  0  0  3  0  0  0  0  0  0
  184.1850  176.8820  137.6300 C   0  0  0  0  0  3  0  0  0  0  0  0
  185.9890  178.8780  141.2080 C   0  0  0  0  0  0  0  0  0  0  0  0
  189.8630  173.7330  137.3500 N   0  0  0  0  0  0  0  0  0  0  0  0
  188.8750  173.3370  136.6380 C   0  0  0  0  0  3  0  0  0  0  0  0
  185.5470  175.1860  136.1820 C   0  0  0  0  0  3  0  0  0  0  0  0
  188.6020  175.5900  136.9270 C   0  0  0  0  0  0  0  0  0  0  0  0
  191.0560  175.8120  137.0420 C   0  0  0  0  0  1  0  0  0  0  0  0
  186.9430  178.2440  138.6430 C   0  0  0  0  0  0  0  0  0  0  0  0
  185.1050  178.8770  140.1190 C   0  0  0  0  0  0  0  0  0  0  0  0
  186.4840  174.1870  136.7870 C   0  0  2  0  0  3  0  0  0  0  0  0
  184.8680  176.0240  136.9190 C   0  0  0  0  0  0  0  0  0  0  0  0
  188.0600  176.7640  137.1080 C   0  0  0  0  0  0  0  0  0  0  0  0
  187.9230  174.4320  136.2610 C   0  0  2  0  0  3  0  0  0  0  0  0
  187.8110  178.2470  139.7390 C   0  0  0  0  0  3  0  0  0  0  0  0
  184.6030  178.3160  137.7050 C   0  0  0  0  0  2  0  0  0  0  0  0
  185.5750  178.5320  138.8300 C   0  0  0  0  0  0  0  0  0  0  0  0
  187.3380  178.5580  141.0110 C   0  0  0  0  0  3  0  0  0  0  0  0
  182.7770  171.6680  134.6270 C   0  0  0  0  0  3  0  0  0  0  0  0
  185.2580  172.6900  135.0960 C   0  0  0  0  0  2  0  0  0  0  0  0
  183.9710  172.0400  135.4190 C   0  0  0  0  0  0  0  0  0  0  0  0
  183.7810  171.8550  136.6710 C   0  0  0  0  0  0  0  0  0  0  0  0
  184.8900  172.2870  137.5380 C   0  0  0  0  0  2  0  0  0  0  0  0
  182.5430  171.3310  136.9590 O   0  0  0  0  0  0  0  0  0  0  0  0
  185.9150  172.7870  136.4890 C   0  0  2  0  0  3  0  0  0  0  0  0
  181.8300  171.1480  135.7350 C   0  0  0  0  0  3  0  0  0  0  0  0
  183.7660  179.2050  140.3630 O   0  0  0  0  0  0  0  0  0  0  0  0
  181.3640  178.6230  139.6150 O   0  0  0  0  0  1  0  0  0  0  0  0
  181.8840  178.8710  142.1530 N   0  0  0  0  0  1  0  0  0  0  0  0
  182.5350  177.9940  140.7300 P   0  0  2  0  0  0  0  0  0  0  0  0
  185.5010  179.2140  142.4740 O   0  0  0  0  0  0  0  0  0  0  0  0
  185.2400  178.2500  143.4860 C   0  0  0  0  0  2  0  0  0  0  0  0
  184.7850  178.9610  144.7470 C   0  0  0  0  0  2  0  0  0  0  0  0
  185.8570  178.8680  145.8220 C   0  0  0  0  0  2  0  0  0  0  0  0
  186.3840  177.4430  145.9430 C   0  0  0  0  0  2  0  0  0  0  0  0
  190.0450  177.6090  144.9420 C   0  0  1  0  0  3  0  0  0  0  0  0
  188.7500  177.2280  146.8770 C   0  0  0  0  0  0  0  0  0  0  0  0
  188.3960  177.0230  148.0680 O   0  0  0  0  0  0  0  0  0  0  0  0
  188.5470  177.6740  144.5880 C   0  0  0  0  0  2  0  0  0  0  0  0
  190.1540  177.2990  146.4390 C   0  0  0  0  0  2  0  0  0  0  0  0
  187.8370  177.4230  145.8200 N   0  0  0  0  0  0  0  0  0  0  0  0
  190.7290  176.5110  144.1460 C   0  0  0  0  0  2  0  0  0  0  0  0
  189.8300  176.0300  143.0240 C   0  0  0  0  0  1  0  0  0  0  0  0
  1  9  1  6  0  0  0
  2 10  1  0  0  0  0
  3 17  1  0  0  0  0
  4 32  1  0  0  0  0
  5  1  1  0  0  0  0
  6  5  2  0  0  0  0
  7 13  2  0  0  0  0
  8 14  2  0  0  0  0
  8  1  1  0  0  0  0
 10 18  2  0  0  0  0
 10 16  1  0  0  0  0
 11 28  1  0  0  0  0
 11  4  2  0  0  0  0
 12  7  1  6  0  0  0
 13  3  2  0  0  0  0
 14  2  2  0  0  0  0
 15  6  1  1  0  0  0
 15 12  1  0  0  0  0
 15  8  1  0  0  0  0
 16 19  2  0  0  0  0
 17 18  1  0  0  0  0
 18 11  1  0  0  0  0
 19  4  1  0  0  0  0
 20 22  1  0  0  0  0
 20 27  2  0  0  0  0
 21 22  1  0  0  0  0
 22 23  2  0  0  0  0
 23 25  1  0  0  0  0
 23 24  1  0  0  0  0
 26 21  1  6  0  0  0
 26 12  1  0  0  0  0
 26 24  1  0  0  0  0
 27 25  1  0  0  0  0
 28 31  1  0  0  0  0
 31 29  1  6  0  0  0
 31 30  1  0  0  0  0
 32 33  1  0  0  0  0
 33 34  1  0  0  0  0
 34 35  1  0  0  0  0
 35 36  1  0  0  0  0
 37 43  1  6  0  0  0
 37 41  1  0  0  0  0
 38 39  2  0  0  0  0
 40 37  1  0  0  0  0
 40 42  1  0  0  0  0
 41 38  1  0  0  0  0
 42 36  1  0  0  0  0
 42 38  1  0  0  0  0
 44 43  1  0  0  0  0
M  END
>  <MODEL>
3

>  <REMARK>
 VINA RESULT:      -8.5      1.533      2.058
  Name = 
  10 active torsions:
  status: ('A' for Active; 'I' for Inactive)
    1  A    between atoms: O_4  and  C_16
    2  A    between atoms: O_4  and  P_33
    3  A    between atoms: C_5  and  O_25
    4  A    between atoms: C_7  and  C_26
    5  A    between atoms: C_7  and  C_36
    6  A    between atoms: C_13  and  O_25
    7  A    between atoms: C_13  and  C_26
    8  A    between atoms: C_18  and  C_31
    9  A    between atoms: C_20  and  C_29
   10  A    between atoms: C_36  and  N_44
                            x       y       z     vdW  Elec       q    Type
                         _______ _______ _______ _____ _____    ______ ____

>  <TORSDO>
F 10

$$$$
=
 OpenBabel10222416143D

 44 49  0  0  1  0  0  0  0  0999 V2000
  189.7380  173.1630  135.6570 C   0  0  2  0  0  3  0  0  0  0  0  0
  189.0640  176.7100  136.2000 C   0  0  0  0  0  3  0  0  0  0  0  0
  185.9300  177.2660  137.5350 C   0  0  0  0  0  3  0  0  0  0  0  0
  189.3700  177.5130  140.3900 C   0  0  0  0  0  0  0  0  0  0  0  0
  188.9960  171.9750  135.3350 N   0  0  0  0  0  0  0  0  0  0  0  0
  187.7920  172.2150  134.9710 C   0  0  0  0  0  3  0  0  0  0  0  0
  185.8300  175.4340  135.6750 C   0  0  0  0  0  3  0  0  0  0  0  0
  188.7560  174.2460  135.3990 C   0  0  0  0  0  0  0  0  0  0  0  0
  190.9250  173.2920  134.7170 C   0  0  0  0  0  1  0  0  0  0  0  0
  189.1560  176.9970  137.6380 C   0  0  0  0  0  0  0  0  0  0  0  0
  188.3450  178.1190  139.6480 C   0  0  0  0  0  0  0  0  0  0  0  0
  186.2740  174.0240  135.9140 C   0  0  2  0  0  3  0  0  0  0  0  0
  185.8800  176.3380  136.6170 C   0  0  0  0  0  0  0  0  0  0  0  0
  188.9360  175.4820  135.7800 C   0  0  0  0  0  0  0  0  0  0  0  0
  187.4440  173.6740  134.9560 C   0  0  2  0  0  3  0  0  0  0  0  0
  190.1700  176.4000  138.3910 C   0  0  0  0  0  3  0  0  0  0  0  0
  187.0040  178.3070  137.5120 C   0  0  0  0  0  2  0  0  0  0  0  0
  188.2170  177.8410  138.2670 C   0  0  0  0  0  0  0  0  0  0  0  0
  190.2750  176.6520  139.7570 C   0  0  0  0  0  3  0  0  0  0  0  0
  181.4000  173.9250  134.9240 C   0  0  0  0  0  3  0  0  0  0  0  0
  184.0860  173.5740  134.6440 C   0  0  0  0  0  2  0  0  0  0  0  0
  182.7760  173.5590  135.3270 C   0  0  0  0  0  0  0  0  0  0  0  0
  182.8430  173.2830  136.5750 C   0  0  0  0  0  0  0  0  0  0  0  0
  184.1980  172.9970  137.0760 C   0  0  0  0  0  2  0  0  0  0  0  0
  181.6280  173.3600  137.2130 O   0  0  0  0  0  0  0  0  0  0  0  0
  185.0320  173.1230  135.7770 C   0  0  2  0  0  3  0  0  0  0  0  0
  180.6350  173.7350  136.2570 C   0  0  0  0  0  3  0  0  0  0  0  0
  187.4650  178.9730  140.3230 O   0  0  0  0  0  0  0  0  0  0  0  0
  184.9800  179.6030  140.0130 O   0  0  0  0  0  1  0  0  0  0  0  0
  185.9650  179.4440  142.4170 N   0  0  0  0  0  1  0  0  0  0  0  0
  185.8930  178.4460  140.9280 P   0  0  2  0  0  0  0  0  0  0  0  0
  189.4720  177.7960  141.7560 O   0  0  0  0  0  0  0  0  0  0  0  0
  190.7030  177.7540  142.4660 C   0  0  0  0  0  2  0  0  0  0  0  0
  190.8370  176.4080  143.1540 C   0  0  0  0  0  2  0  0  0  0  0  0
  191.0810  176.5970  144.6430 C   0  0  0  0  0  2  0  0  0  0  0  0
  190.5930  177.9660  145.1050 C   0  0  0  0  0  2  0  0  0  0  0  0
  186.9410  177.6770  146.1110 C   0  0  1  0  0  3  0  0  0  0  0  0
  189.0720  177.6210  147.1250 C   0  0  0  0  0  0  0  0  0  0  0  0
  190.0020  177.5070  147.9650 O   0  0  0  0  0  0  0  0  0  0  0  0
  188.0320  177.8930  145.0450 C   0  0  0  0  0  2  0  0  0  0  0  0
  187.6420  177.5190  147.4660 C   0  0  0  0  0  2  0  0  0  0  0  0
  189.2910  177.8520  145.7510 N   0  0  0  0  0  0  0  0  0  0  0  0
  186.0060  178.8730  146.1620 C   0  0  0  0  0  2  0  0  0  0  0  0
  184.5730  178.4180  146.3530 C   0  0  0  0  0  1  0  0  0  0  0  0
  1  9  1  6  0  0  0
  2 10  1  0  0  0  0
  4 32  1  0  0  0  0
  5  1  1  0  0  0  0
  6  5  2  0  0  0  0
  7 13  2  0  0  0  0
  8  1  1  0  0  0  0
  8 14  2  0  0  0  0
 10 18  2  0  0  0  0
 10 16  1  0  0  0  0
 11 28  1  0  0  0  0
 11  4  2  0  0  0  0
 12  7  1  6  0  0  0
 13  3  2  0  0  0  0
 14  2  2  0  0  0  0
 15  6  1  1  0  0  0
 15  8  1  0  0  0  0
 15 12  1  0  0  0  0
 16 19  2  0  0  0  0
 17  3  1  0  0  0  0
 17 18  1  0  0  0  0
 18 11  1  0  0  0  0
 19  4  1  0  0  0  0
 20 22  1  0  0  0  0
 20 27  2  0  0  0  0
 21 22  1  0  0  0  0
 22 23  2  0  0  0  0
 23 24  1  0  0  0  0
 23 25  1  0  0  0  0
 26 21  1  6  0  0  0
 26 12  1  0  0  0  0
 26 24  1  0  0  0  0
 27 25  1  0  0  0  0
 28 31  1  0  0  0  0
 31 29  1  6  0  0  0
 31 30  1  0  0  0  0
 32 33  1  0  0  0  0
 33 34  1  0  0  0  0
 34 35  1  0  0  0  0
 35 36  1  0  0  0  0
 36 42  1  0  0  0  0
 37 43  1  1  0  0  0
 37 41  1  0  0  0  0
 38 41  1  0  0  0  0
 38 39  2  0  0  0  0
 40 42  1  0  0  0  0
 40 37  1  0  0  0  0
 42 38  1  0  0  0  0
 43 44  1  0  0  0  0
M  END
>  <MODEL>
4

>  <REMARK>
 VINA RESULT:      -7.9      2.886      4.625
  Name = 
  10 active torsions:
  status: ('A' for Active; 'I' for Inactive)
    1  A    between atoms: O_4  and  C_16
    2  A    between atoms: O_4  and  P_33
    3  A    between atoms: C_5  and  O_25
    4  A    between atoms: C_7  and  C_26
    5  A    between atoms: C_7  and  C_36
    6  A    between atoms: C_13  and  O_25
    7  A    between atoms: C_13  and  C_26
    8  A    between atoms: C_18  and  C_31
    9  A    between atoms: C_20  and  C_29
   10  A    between atoms: C_36  and  N_44
                            x       y       z     vdW  Elec       q    Type
                         _______ _______ _______ _____ _____    ______ ____

>  <TORSDO>
F 10

$$$$
=
 OpenBabel10222416143D

 44 49  0  0  1  0  0  0  0  0999 V2000
  188.9210  172.3160  135.5980 C   0  0  2  0  0  3  0  0  0  0  0  0
  187.9230  175.7920  135.0890 C   0  0  0  0  0  3  0  0  0  0  0  0
  184.7220  176.4220  136.2170 C   0  0  0  0  0  3  0  0  0  0  0  0
  188.0610  177.7990  138.8630 C   0  0  0  0  0  0  0  0  0  0  0  0
  188.2950  171.0240  135.6390 N   0  0  0  0  0  0  0  0  0  0  0  0
  187.0820  171.0370  135.2250 C   0  0  0  0  0  3  0  0  0  0  0  0
  184.8270  174.1280  134.9710 C   0  0  0  0  0  3  0  0  0  0  0  0
  187.8530  173.1840  135.0400 C   0  0  0  0  0  0  0  0  0  0  0  0
  190.1130  172.2750  134.6570 C   0  0  0  0  0  1  0  0  0  0  0  0
  187.9560  176.4900  136.3800 C   0  0  0  0  0  0  0  0  0  0  0  0
  187.0040  178.0680  137.9810 C   0  0  0  0  0  0  0  0  0  0  0  0
  185.3890  172.8950  135.6080 C   0  0  2  0  0  3  0  0  0  0  0  0
  184.7760  175.2670  135.6090 C   0  0  0  0  0  0  0  0  0  0  0  0
  187.9140  174.4880  135.0450 C   0  0  0  0  0  0  0  0  0  0  0  0
  186.6070  172.3900  134.7880 C   0  0  2  0  0  3  0  0  0  0  0  0
  189.0020  176.2320  137.2710 C   0  0  0  0  0  3  0  0  0  0  0  0
  185.7000  177.5050  135.8880 C   0  0  0  0  0  2  0  0  0  0  0  0
  186.9320  177.3910  136.7410 C   0  0  0  0  0  0  0  0  0  0  0  0
  189.0530  176.8790  138.5040 C   0  0  0  0  0  3  0  0  0  0  0  0
  180.4490  172.3160  135.5570 C   0  0  0  0  0  3  0  0  0  0  0  0
  183.0590  172.1850  134.7900 C   0  0  0  0  0  2  0  0  0  0  0  0
  181.9040  172.0960  135.7080 C   0  0  0  0  0  0  0  0  0  0  0  0
  182.2250  171.8990  136.9310 C   0  0  0  0  0  0  0  0  0  0  0  0
  183.6700  171.7610  137.1800 C   0  0  0  0  0  2  0  0  0  0  0  0
  181.1460  171.9060  137.7830 O   0  0  0  0  0  0  0  0  0  0  0  0
  184.2360  171.8830  135.7430 C   0  0  2  0  0  3  0  0  0  0  0  0
  179.9630  172.1390  137.0160 C   0  0  0  0  0  3  0  0  0  0  0  0
  186.0360  178.9970  138.3820 O   0  0  0  0  0  0  0  0  0  0  0  0
  183.6870  179.9170  138.9320 O   0  0  0  0  0  1  0  0  0  0  0  0
  185.3330  179.3780  140.8760 N   0  0  0  0  0  1  0  0  0  0  0  0
  184.6700  178.5720  139.4160 P   0  0  2  0  0  0  0  0  0  0  0  0
  188.1070  178.4740  140.0870 O   0  0  0  0  0  0  0  0  0  0  0  0
  188.9410  178.0700  141.1640 C   0  0  0  0  0  2  0  0  0  0  0  0
  188.1620  177.1450  142.0810 C   0  0  0  0  0  2  0  0  0  0  0  0
  189.1100  176.3830  142.9940 C   0  0  0  0  0  2  0  0  0  0  0  0
  189.9540  177.3430  143.8240 C   0  0  0  0  0  2  0  0  0  0  0  0
  188.3040  177.0860  147.2360 C   0  0  1  0  0  3  0  0  0  0  0  0
  190.4750  177.1510  146.3150 C   0  0  0  0  0  0  0  0  0  0  0  0
  191.7270  177.1240  146.1800 O   0  0  0  0  0  0  0  0  0  0  0  0
  188.2170  177.2260  145.7040 C   0  0  0  0  0  2  0  0  0  0  0  0
  189.7890  177.0570  147.6150 C   0  0  0  0  0  2  0  0  0  0  0  0
  189.5810  177.2660  145.2310 N   0  0  0  0  0  0  0  0  0  0  0  0
  187.6320  178.2680  147.9140 C   0  0  0  0  0  2  0  0  0  0  0  0
  186.3610  178.6480  147.1800 C   0  0  0  0  0  1  0  0  0  0  0  0
  1  9  1  6  0  0  0
  1  5  1  0  0  0  0
  2 10  1  0  0  0  0
  4 32  1  0  0  0  0
  6  5  2  0  0  0  0
  7 13  2  0  0  0  0
  8 14  2  0  0  0  0
  8  1  1  0  0  0  0
 10 18  2  0  0  0  0
 10 16  1  0  0  0  0
 11 28  1  0  0  0  0
 11  4  2  0  0  0  0
 12  7  1  6  0  0  0
 12 26  1  0  0  0  0
 13  3  2  0  0  0  0
 14  2  2  0  0  0  0
 15  8  1  0  0  0  0
 15  6  1  1  0  0  0
 15 12  1  0  0  0  0
 16 19  2  0  0  0  0
 17  3  1  0  0  0  0
 17 18  1  0  0  0  0
 18 11  1  0  0  0  0
 19  4  1  0  0  0  0
 20 22  1  0  0  0  0
 20 27  2  0  0  0  0
 21 22  1  0  0  0  0
 22 23  2  0  0  0  0
 23 24  1  0  0  0  0
 23 25  1  0  0  0  0
 26 21  1  6  0  0  0
 26 24  1  0  0  0  0
 27 25  1  0  0  0  0
 28 31  1  0  0  0  0
 31 29  1  6  0  0  0
 31 30  1  0  0  0  0
 32 33  1  0  0  0  0
 33 34  1  0  0  0  0
 34 35  1  0  0  0  0
 35 36  1  0  0  0  0
 36 42  1  0  0  0  0
 37 41  1  0  0  0  0
 37 43  1  1  0  0  0
 38 41  1  0  0  0  0
 39 38  2  0  0  0  0
 40 37  1  0  0  0  0
 42 40  1  0  0  0  0
 42 38  1  0  0  0  0
 44 43  1  0  0  0  0
M  END
>  <MODEL>
5

>  <REMARK>
 VINA RESULT:      -7.8      2.976      4.536
  Name = 
  10 active torsions:
  status: ('A' for Active; 'I' for Inactive)
    1  A    between atoms: O_4  and  C_16
    2  A    between atoms: O_4  and  P_33
    3  A    between atoms: C_5  and  O_25
    4  A    between atoms: C_7  and  C_26
    5  A    between atoms: C_7  and  C_36
    6  A    between atoms: C_13  and  O_25
    7  A    between atoms: C_13  and  C_26
    8  A    between atoms: C_18  and  C_31
    9  A    between atoms: C_20  and  C_29
   10  A    between atoms: C_36  and  N_44
                            x       y       z     vdW  Elec       q    Type
                         _______ _______ _______ _____ _____    ______ ____

>  <TORSDO>
F 10

$$$$
=
 OpenBabel10222416143D

 44 49  0  0  1  0  0  0  0  0999 V2000
  184.9940  178.2950  140.6260 C   0  0  2  0  0  3  0  0  0  0  0  0
  188.4290  178.6340  139.4340 C   0  0  0  0  0  3  0  0  0  0  0  0
  190.6440  176.6940  141.2350 C   0  0  0  0  0  3  0  0  0  0  0  0
  189.4400  175.1150  137.2230 C   0  0  0  0  0  0  0  0  0  0  0  0
  184.3180  178.0390  141.8670 N   0  0  0  0  0  0  0  0  0  0  0  0
  185.0920  178.1040  142.8860 C   0  0  0  0  0  3  0  0  0  0  0  0
  188.9160  177.8400  142.8250 C   0  0  0  0  0  3  0  0  0  0  0  0
  186.3870  178.5690  141.0580 C   0  0  0  0  0  0  0  0  0  0  0  0
  184.3940  179.5250  139.9640 C   0  0  0  0  0  1  0  0  0  0  0  0
  188.7920  177.4260  138.6810 C   0  0  0  0  0  0  0  0  0  0  0  0
  190.3920  175.6820  138.0820 C   0  0  0  0  0  0  0  0  0  0  0  0
  187.5140  177.3380  142.9790 C   0  0  2  0  0  3  0  0  0  0  0  0
  189.7720  177.2530  142.0300 C   0  0  0  0  0  0  0  0  0  0  0  0
  187.3950  178.6270  140.2300 C   0  0  0  0  0  0  0  0  0  0  0  0
  186.5120  178.4420  142.5460 C   0  0  2  0  0  3  0  0  0  0  0  0
  187.8540  176.8470  137.8210 C   0  0  0  0  0  3  0  0  0  0  0  0
  190.9870  177.3160  139.9190 C   0  0  0  0  0  2  0  0  0  0  0  0
  190.0610  176.8300  138.8390 C   0  0  0  0  0  0  0  0  0  0  0  0
  188.1730  175.7000  137.1000 C   0  0  0  0  0  3  0  0  0  0  0  0
  186.9660  178.7700  147.7120 C   0  0  0  0  0  3  0  0  0  0  0  0
  186.3940  177.7360  145.2580 C   0  0  0  0  0  2  0  0  0  0  0  0
  187.1840  177.9730  146.4840 C   0  0  0  0  0  0  0  0  0  0  0  0
  188.3660  177.4850  146.4450 C   0  0  0  0  0  0  0  0  0  0  0  0
  188.6940  176.7520  145.2100 C   0  0  0  0  0  2  0  0  0  0  0  0
  189.1150  177.7890  147.5560 O   0  0  0  0  0  0  0  0  0  0  0  0
  187.3580  176.8560  144.4340 C   0  0  2  0  0  3  0  0  0  0  0  0
  188.3190  178.5810  148.4390 C   0  0  0  0  0  3  0  0  0  0  0  0
  191.6450  175.0640  138.1710 O   0  0  0  0  0  0  0  0  0  0  0  0
  193.9650  174.0790  137.6090 O   0  0  0  0  0  1  0  0  0  0  0  0
  193.7080  176.6530  137.8980 N   0  0  0  0  0  1  0  0  0  0  0  0
  192.9260  175.3210  136.9850 P   0  0  2  0  0  0  0  0  0  0  0  0
  189.7860  173.9750  136.4900 O   0  0  0  0  0  0  0  0  0  0  0  0
  188.9400  172.8380  136.3790 C   0  0  0  0  0  2  0  0  0  0  0  0
  188.5700  172.6320  134.9220 C   0  0  0  0  0  2  0  0  0  0  0  0
  187.0870  172.8960  134.7100 C   0  0  0  0  0  2  0  0  0  0  0  0
  186.2560  172.2380  135.8050 C   0  0  0  0  0  2  0  0  0  0  0  0
  183.8010  175.0460  136.5270 C   0  0  1  0  0  3  0  0  0  0  0  0
  183.9980  172.7230  136.8920 C   0  0  0  0  0  0  0  0  0  0  0  0
  183.7580  171.5310  137.2190 O   0  0  0  0  0  0  0  0  0  0  0  0
  185.1380  174.5400  135.9540 C   0  0  0  0  0  2  0  0  0  0  0  0
  183.0810  173.8460  137.1520 C   0  0  0  0  0  2  0  0  0  0  0  0
  185.1760  173.1220  136.2270 N   0  0  0  0  0  0  0  0  0  0  0  0
  184.0490  176.0990  137.5950 C   0  0  0  0  0  2  0  0  0  0  0  0
  184.0140  177.4880  136.9880 C   0  0  0  0  0  1  0  0  0  0  0  0
  1  9  1  1  0  0  0
  1  8  1  0  0  0  0
  1  5  1  0  0  0  0
  2 14  2  0  0  0  0
  3 13  2  0  0  0  0
  4 11  1  0  0  0  0
  5  6  2  0  0  0  0
  8 15  1  0  0  0  0
 10 18  1  0  0  0  0
 10  2  1  0  0  0  0
 11 28  1  0  0  0  0
 11 18  2  0  0  0  0
 12  7  1  1  0  0  0
 12 26  1  0  0  0  0
 13  7  2  0  0  0  0
 14  8  2  0  0  0  0
 15  6  1  1  0  0  0
 15 12  1  0  0  0  0
 16 10  2  0  0  0  0
 17  3  1  0  0  0  0
 18 17  1  0  0  0  0
 19  4  2  0  0  0  0
 19 16  1  0  0  0  0
 20 27  2  0  0  0  0
 21 22  1  0  0  0  0
 22 20  1  0  0  0  0
 23 22  2  0  0  0  0
 23 25  1  0  0  0  0
 24 23  1  0  0  0  0
 25 27  1  0  0  0  0
 26 24  1  1  0  0  0
 26 21  1  0  0  0  0
 31 29  1  1  0  0  0
 31 30  1  0  0  0  0
 31 28  1  0  0  0  0
 32  4  1  0  0  0  0
 33 32  1  0  0  0  0
 34 33  1  0  0  0  0
 35 34  1  0  0  0  0
 35 36  1  0  0  0  0
 36 42  1  0  0  0  0
 37 41  1  0  0  0  0
 37 43  1  1  0  0  0
 38 41  1  0  0  0  0
 38 39  2  0  0  0  0
 40 42  1  0  0  0  0
 40 37  1  0  0  0  0
 42 38  1  0  0  0  0
 44 43  1  0  0  0  0
M  END
>  <MODEL>
6

>  <REMARK>
 VINA RESULT:      -7.8      3.875     10.125
  Name = 
  10 active torsions:
  status: ('A' for Active; 'I' for Inactive)
    1  A    between atoms: O_4  and  C_16
    2  A    between atoms: O_4  and  P_33
    3  A    between atoms: C_5  and  O_25
    4  A    between atoms: C_7  and  C_26
    5  A    between atoms: C_7  and  C_36
    6  A    between atoms: C_13  and  O_25
    7  A    between atoms: C_13  and  C_26
    8  A    between atoms: C_18  and  C_31
    9  A    between atoms: C_20  and  C_29
   10  A    between atoms: C_36  and  N_44
                            x       y       z     vdW  Elec       q    Type
                         _______ _______ _______ _____ _____    ______ ____

>  <TORSDO>
F 10

$$$$
=
 OpenBabel10222416143D

 44 49  0  0  1  0  0  0  0  0999 V2000
  180.3950  179.7230  142.7510 C   0  0  2  0  0  3  0  0  0  0  0  0
  182.3020  177.4450  140.6280 C   0  0  0  0  0  3  0  0  0  0  0  0
  183.1160  178.8530  137.5830 C   0  0  0  0  0  3  0  0  0  0  0  0
  186.3900  178.7040  140.6330 C   0  0  0  0  0  0  0  0  0  0  0  0
  179.4480  180.7900  142.5860 N   0  0  0  0  0  0  0  0  0  0  0  0
  179.0030  180.8900  141.3890 C   0  0  0  0  0  3  0  0  0  0  0  0
  180.6590  179.4440  138.2470 C   0  0  0  0  0  3  0  0  0  0  0  0
  180.4570  179.1220  141.3950 C   0  0  0  0  0  0  0  0  0  0  0  0
  179.8550  178.7130  143.7510 C   0  0  0  0  0  1  0  0  0  0  0  0
  183.7070  177.8730  140.6130 C   0  0  0  0  0  0  0  0  0  0  0  0
  185.8090  178.2640  139.4350 C   0  0  0  0  0  0  0  0  0  0  0  0
  180.3340  180.5000  139.2590 C   0  0  2  0  0  3  0  0  0  0  0  0
  181.8930  179.1630  137.9210 C   0  0  0  0  0  0  0  0  0  0  0  0
  181.3690  178.2610  141.0330 C   0  0  0  0  0  0  0  0  0  0  0  0
  179.5640  179.8660  140.4480 C   0  0  2  0  0  3  0  0  0  0  0  0
  184.3010  178.3150  141.7990 C   0  0  0  0  0  3  0  0  0  0  0  0
  183.7600  177.6080  138.1050 C   0  0  0  0  0  2  0  0  0  0  0  0
  184.4510  177.8710  139.4140 C   0  0  0  0  0  0  0  0  0  0  0  0
  185.6300  178.7300  141.8090 C   0  0  0  0  0  3  0  0  0  0  0  0
  180.0600  183.1550  135.0600 C   0  0  0  0  0  3  0  0  0  0  0  0
  179.4360  181.3560  137.0080 C   0  0  0  0  0  2  0  0  0  0  0  0
  179.8670  182.6490  136.4380 C   0  0  0  0  0  0  0  0  0  0  0  0
  180.2760  183.4920  137.3090 C   0  0  0  0  0  0  0  0  0  0  0  0
  180.2030  183.0280  138.7050 C   0  0  0  0  0  2  0  0  0  0  0  0
  180.7540  184.6550  136.7550 O   0  0  0  0  0  0  0  0  0  0  0  0
  179.5790  181.6220  138.5220 C   0  0  2  0  0  3  0  0  0  0  0  0
  180.6430  184.5620  135.3340 C   0  0  0  0  0  3  0  0  0  0  0  0
  186.6080  178.2530  138.2850 O   0  0  0  0  0  0  0  0  0  0  0  0
  189.0570  178.1450  137.4760 O   0  0  0  0  0  1  0  0  0  0  0  0
  187.2650  176.6500  136.3230 N   0  0  0  0  0  1  0  0  0  0  0  0
  187.8350  177.0220  137.9820 P   0  0  2  0  0  0  0  0  0  0  0  0
  187.7320  179.0960  140.6280 O   0  0  0  0  0  0  0  0  0  0  0  0
  188.6920  178.5880  141.5460 C   0  0  0  0  0  2  0  0  0  0  0  0
  188.2370  177.2290  142.0430 C   0  0  0  0  0  2  0  0  0  0  0  0
  188.9240  176.8890  143.3570 C   0  0  0  0  0  2  0  0  0  0  0  0
  188.3050  177.6690  144.5120 C   0  0  0  0  0  2  0  0  0  0  0  0
  190.9010  177.1100  147.2280 C   0  0  1  0  0  3  0  0  0  0  0  0
  188.6200  177.6840  147.0440 C   0  0  0  0  0  0  0  0  0  0  0  0
  187.4390  178.0290  147.3150 O   0  0  0  0  0  0  0  0  0  0  0  0
  190.4880  177.1360  145.7440 C   0  0  0  0  0  2  0  0  0  0  0  0
  189.6600  177.4530  148.0610 C   0  0  0  0  0  2  0  0  0  0  0  0
  189.0860  177.4850  145.7280 N   0  0  0  0  0  0  0  0  0  0  0  0
  191.4020  175.7290  147.6130 C   0  0  0  0  0  2  0  0  0  0  0  0
  192.8410  175.7990  148.0860 C   0  0  0  0  0  1  0  0  0  0  0  0
  1  9  1  1  0  0  0
  2 14  2  0  0  0  0
  3 13  2  0  0  0  0
  3 17  1  0  0  0  0
  4 19  1  0  0  0  0
  5  1  1  0  0  0  0
  6  5  2  0  0  0  0
  8  1  1  0  0  0  0
 10  2  1  0  0  0  0
 10 16  1  0  0  0  0
 11  4  2  0  0  0  0
 12  7  1  6  0  0  0
 12 15  1  0  0  0  0
 13  7  2  0  0  0  0
 14  8  2  0  0  0  0
 15  6  1  1  0  0  0
 15  8  1  0  0  0  0
 16 19  2  0  0  0  0
 17 18  1  0  0  0  0
 18 11  1  0  0  0  0
 18 10  2  0  0  0  0
 20 27  2  0  0  0  0
 20 22  1  0  0  0  0
 22 21  1  0  0  0  0
 22 23  2  0  0  0  0
 23 24  1  0  0  0  0
 25 23  1  0  0  0  0
 26 21  1  6  0  0  0
 26 24  1  0  0  0  0
 26 12  1  0  0  0  0
 27 25  1  0  0  0  0
 28 11  1  0  0  0  0
 29 31  1  0  0  0  0
 31 30  1  6  0  0  0
 31 28  1  0  0  0  0
 32  4  1  0  0  0  0
 32 33  1  0  0  0  0
 33 34  1  0  0  0  0
 34 35  1  0  0  0  0
 35 36  1  0  0  0  0
 36 42  1  0  0  0  0
 37 43  1  1  0  0  0
 37 41  1  0  0  0  0
 38 39  2  0  0  0  0
 38 41  1  0  0  0  0
 40 37  1  0  0  0  0
 42 40  1  0  0  0  0
 42 38  1  0  0  0  0
 43 44  1  0  0  0  0
M  END
>  <MODEL>
7

>  <REMARK>
 VINA RESULT:      -7.4      3.943      7.390
  Name = 
  10 active torsions:
  status: ('A' for Active; 'I' for Inactive)
    1  A    between atoms: O_4  and  C_16
    2  A    between atoms: O_4  and  P_33
    3  A    between atoms: C_5  and  O_25
    4  A    between atoms: C_7  and  C_26
    5  A    between atoms: C_7  and  C_36
    6  A    between atoms: C_13  and  O_25
    7  A    between atoms: C_13  and  C_26
    8  A    between atoms: C_18  and  C_31
    9  A    between atoms: C_20  and  C_29
   10  A    between atoms: C_36  and  N_44
                            x       y       z     vdW  Elec       q    Type
                         _______ _______ _______ _____ _____    ______ ____

>  <TORSDO>
F 10

$$$$
=
 OpenBabel10222416143D

 44 49  0  0  1  0  0  0  0  0999 V2000
  185.0930  178.1280  143.4370 C   0  0  2  0  0  3  0  0  0  0  0  0
  184.8150  179.0160  139.9060 C   0  0  0  0  0  3  0  0  0  0  0  0
  187.2220  177.4780  137.9680 C   0  0  0  0  0  3  0  0  0  0  0  0
  183.1180  175.6950  137.8120 C   0  0  0  0  0  0  0  0  0  0  0  0
  186.1290  177.7730  144.3670 N   0  0  0  0  0  0  0  0  0  0  0  0
  187.3090  177.9720  143.9090 C   0  0  0  0  0  3  0  0  0  0  0  0
  188.2520  178.3370  140.2100 C   0  0  0  0  0  3  0  0  0  0  0  0
  185.8570  178.6300  142.2670 C   0  0  0  0  0  0  0  0  0  0  0  0
  184.2390  179.2390  144.0260 C   0  0  0  0  0  1  0  0  0  0  0  0
  184.2430  177.8790  139.1740 C   0  0  0  0  0  0  0  0  0  0  0  0
  184.1650  176.4160  137.2210 C   0  0  0  0  0  0  0  0  0  0  0  0
  188.0630  177.6130  141.5080 C   0  0  2  0  0  3  0  0  0  0  0  0
  187.7350  177.8920  139.0950 C   0  0  0  0  0  0  0  0  0  0  0  0
  185.3160  178.8460  141.0980 C   0  0  0  0  0  0  0  0  0  0  0  0
  187.3310  178.5350  142.5200 C   0  0  2  0  0  3  0  0  0  0  0  0
  183.2000  177.1480  139.7500 C   0  0  0  0  0  3  0  0  0  0  0  0
  186.0100  178.1390  137.3920 C   0  0  0  0  0  2  0  0  0  0  0  0
  184.7530  177.5000  137.9140 C   0  0  0  0  0  0  0  0  0  0  0  0
  182.6440  176.0630  139.0770 C   0  0  0  0  0  3  0  0  0  0  0  0
  190.7500  176.0010  145.3720 C   0  0  0  0  0  3  0  0  0  0  0  0
  189.3720  176.0020  143.0230 C   0  0  0  0  0  2  0  0  0  0  0  0
  190.3250  176.4900  144.0420 C   0  0  0  0  0  0  0  0  0  0  0  0
  190.8130  177.6450  143.7880 C   0  0  0  0  0  0  0  0  0  0  0  0
  190.3640  178.2430  142.5190 C   0  0  0  0  0  2  0  0  0  0  0  0
  191.6280  178.1210  144.7870 O   0  0  0  0  0  0  0  0  0  0  0  0
  189.4500  177.1230  141.9640 C   0  0  2  0  0  3  0  0  0  0  0  0
  191.6800  177.1490  145.8330 C   0  0  0  0  0  3  0  0  0  0  0  0
  184.6060  176.0120  135.9550 O   0  0  0  0  0  0  0  0  0  0  0  0
  186.1080  174.4050  137.3070 O   0  0  0  0  0  1  0  0  0  0  0  0
  186.9610  175.3380  135.0310 N   0  0  0  0  0  1  0  0  0  0  0  0
  185.5050  174.5180  135.6840 P   0  0  2  0  0  0  0  0  0  0  0  0
  182.5580  174.6220  137.1120 O   0  0  0  0  0  0  0  0  0  0  0  0
  181.2600  174.1110  137.3840 C   0  0  0  0  0  2  0  0  0  0  0  0
  180.2910  174.6250  136.3360 C   0  0  0  0  0  2  0  0  0  0  0  0
  179.3940  175.7020  136.9260 C   0  0  0  0  0  2  0  0  0  0  0  0
  179.1380  175.4450  138.4070 C   0  0  0  0  0  2  0  0  0  0  0  0
  179.5130  178.9740  139.7600 C   0  0  1  0  0  3  0  0  0  0  0  0
  179.2860  176.7740  140.5810 C   0  0  0  0  0  0  0  0  0  0  0  0
  179.1520  175.7810  141.3440 O   0  0  0  0  0  0  0  0  0  0  0  0
  179.4270  177.9850  138.5820 C   0  0  0  0  0  2  0  0  0  0  0  0
  179.4370  178.1590  141.0560 C   0  0  0  0  0  2  0  0  0  0  0  0
  179.2990  176.6730  139.1740 N   0  0  0  0  0  0  0  0  0  0  0  0
  180.8270  179.7350  139.7170 C   0  0  0  0  0  2  0  0  0  0  0  0
  181.2570  179.9710  138.2820 C   0  0  0  0  0  1  0  0  0  0  0  0
  1  9  1  1  0  0  0
  1  5  1  0  0  0  0
  2 14  2  0  0  0  0
  3 13  2  0  0  0  0
  4 19  1  0  0  0  0
  6  5  2  0  0  0  0
  8 15  1  0  0  0  0
  8  1  1  0  0  0  0
 10 16  1  0  0  0  0
 10  2  1  0  0  0  0
 11  4  2  0  0  0  0
 11 18  1  0  0  0  0
 12  7  1  6  0  0  0
 12 26  1  0  0  0  0
 12 15  1  0  0  0  0
 13  7  2  0  0  0  0
 14  8  2  0  0  0  0
 15  6  1  1  0  0  0
 17 18  1  0  0  0  0
 17  3  1  0  0  0  0
 18 10  2  0  0  0  0
 19 16  2  0  0  0  0
 20 27  2  0  0  0  0
 21 22  1  0  0  0  0
 22 20  1  0  0  0  0
 23 22  2  0  0  0  0
 23 25  1  0  0  0  0
 24 23  1  0  0  0  0
 25 27  1  0  0  0  0
 26 24  1  1  0  0  0
 26 21  1  0  0  0  0
 28 11  1  0  0  0  0
 31 30  1  6  0  0  0
 31 28  1  0  0  0  0
 31 29  1  0  0  0  0
 32 33  1  0  0  0  0
 32  4  1  0  0  0  0
 34 35  1  0  0  0  0
 34 33  1  0  0  0  0
 35 36  1  0  0  0  0
 36 42  1  0  0  0  0
 37 43  1  1  0  0  0
 37 41  1  0  0  0  0
 38 41  1  0  0  0  0
 38 39  2  0  0  0  0
 40 42  1  0  0  0  0
 40 37  1  0  0  0  0
 42 38  1  0  0  0  0
 44 43  1  0  0  0  0
M  END
>  <MODEL>
8

>  <REMARK>
 VINA RESULT:      -7.0      2.872      8.913
  Name = 
  10 active torsions:
  status: ('A' for Active; 'I' for Inactive)
    1  A    between atoms: O_4  and  C_16
    2  A    between atoms: O_4  and  P_33
    3  A    between atoms: C_5  and  O_25
    4  A    between atoms: C_7  and  C_26
    5  A    between atoms: C_7  and  C_36
    6  A    between atoms: C_13  and  O_25
    7  A    between atoms: C_13  and  C_26
    8  A    between atoms: C_18  and  C_31
    9  A    between atoms: C_20  and  C_29
   10  A    between atoms: C_36  and  N_44
                            x       y       z     vdW  Elec       q    Type
                         _______ _______ _______ _____ _____    ______ ____

>  <TORSDO>
F 10

$$$$
=
 OpenBabel10222416143D

 44 49  0  0  1  0  0  0  0  0999 V2000
  188.9170  172.9680  135.7920 C   0  0  2  0  0  3  0  0  0  0  0  0
  187.3150  176.2190  135.3540 C   0  0  0  0  0  3  0  0  0  0  0  0
  184.0840  176.2690  136.5660 C   0  0  0  0  0  3  0  0  0  0  0  0
  187.1970  178.1850  139.1510 C   0  0  0  0  0  0  0  0  0  0  0  0
  188.5280  171.5850  135.8300 N   0  0  0  0  0  0  0  0  0  0  0  0
  187.3220  171.3900  135.4450 C   0  0  0  0  0  3  0  0  0  0  0  0
  184.5560  174.0410  135.2860 C   0  0  0  0  0  3  0  0  0  0  0  0
  187.7010  173.6400  135.2710 C   0  0  0  0  0  0  0  0  0  0  0  0
  190.0740  173.1440  134.8220 C   0  0  0  0  0  1  0  0  0  0  0  0
  187.2590  176.9010  136.6540 C   0  0  0  0  0  0  0  0  0  0  0  0
  186.0870  178.2730  138.2980 C   0  0  0  0  0  0  0  0  0  0  0  0
  185.3410  172.9190  135.8930 C   0  0  2  0  0  3  0  0  0  0  0  0
  184.3230  175.1480  135.9410 C   0  0  0  0  0  0  0  0  0  0  0  0
  187.5330  174.9350  135.2930 C   0  0  0  0  0  0  0  0  0  0  0  0
  186.6060  172.6430  135.0380 C   0  0  2  0  0  3  0  0  0  0  0  0
  188.3560  176.8220  137.5160 C   0  0  0  0  0  3  0  0  0  0  0  0
  184.8490  177.5100  136.2290 C   0  0  0  0  0  2  0  0  0  0  0  0
  186.1030  177.6050  137.0510 C   0  0  0  0  0  0  0  0  0  0  0  0
  188.3250  177.4550  138.7560 C   0  0  0  0  0  3  0  0  0  0  0  0
  180.8700  171.0960  134.6930 C   0  0  0  0  0  3  0  0  0  0  0  0
  183.5710  171.4390  134.7600 C   0  0  0  0  0  2  0  0  0  0  0  0
  182.2030  171.3070  135.3010 C   0  0  0  0  0  0  0  0  0  0  0  0
  182.1140  171.5380  136.5570 C   0  0  0  0  0  0  0  0  0  0  0  0
  183.3910  171.8490  137.2220 C   0  0  0  0  0  2  0  0  0  0  0  0
  180.8230  171.4980  137.0260 O   0  0  0  0  0  0  0  0  0  0  0  0
  184.3850  171.7200  136.0410 C   0  0  2  0  0  3  0  0  0  0  0  0
  179.9510  171.2010  135.9340 C   0  0  0  0  0  3  0  0  0  0  0  0
  184.9830  179.0140  138.7350 O   0  0  0  0  0  0  0  0  0  0  0  0
  182.4860  179.5340  139.1360 O   0  0  0  0  0  1  0  0  0  0  0  0
  184.0180  178.9910  141.1690 N   0  0  0  0  0  1  0  0  0  0  0  0
  183.6100  178.2860  139.5700 P   0  0  2  0  0  0  0  0  0  0  0  0
  187.1560  178.8460  140.3820 O   0  0  0  0  0  0  0  0  0  0  0  0
  187.9910  178.4970  141.4780 C   0  0  0  0  0  2  0  0  0  0  0  0
  187.2390  177.5530  142.3990 C   0  0  0  0  0  2  0  0  0  0  0  0
  188.1720  176.9970  143.4630 C   0  0  0  0  0  2  0  0  0  0  0  0
  188.9800  178.1130  144.1150 C   0  0  0  0  0  2  0  0  0  0  0  0
  191.0690  177.0270  147.0960 C   0  0  1  0  0  3  0  0  0  0  0  0
  188.8110  177.4790  146.5810 C   0  0  0  0  0  0  0  0  0  0  0  0
  187.5690  177.6620  146.6730 O   0  0  0  0  0  0  0  0  0  0  0  0
  190.9410  177.4180  145.6120 C   0  0  0  0  0  2  0  0  0  0  0  0
  189.6630  177.0560  147.7060 C   0  0  0  0  0  2  0  0  0  0  0  0
  189.5360  177.6660  145.3860 N   0  0  0  0  0  0  0  0  0  0  0  0
  191.6490  175.6290  147.2270 C   0  0  0  0  0  2  0  0  0  0  0  0
  192.8140  175.6270  148.1980 C   0  0  0  0  0  1  0  0  0  0  0  0
  1  9  1  6  0  0  0
  1  5  1  0  0  0  0
  2 10  1  0  0  0  0
  4 32  1  0  0  0  0
  6  5  2  0  0  0  0
  7 13  2  0  0  0  0
  8 14  2  0  0  0  0
  8  1  1  0  0  0  0
 10 18  2  0  0  0  0
 10 16  1  0  0  0  0
 11 28  1  0  0  0  0
 11  4  2  0  0  0  0
 12  7  1  6  0  0  0
 12 26  1  0  0  0  0
 13  3  2  0  0  0  0
 14  2  2  0  0  0  0
 15  8  1  0  0  0  0
 15  6  1  1  0  0  0
 15 12  1  0  0  0  0
 16 19  2  0  0  0  0
 17  3  1  0  0  0  0
 17 18  1  0  0  0  0
 18 11  1  0  0  0  0
 19  4  1  0  0  0  0
 20 22  1  0  0  0  0
 20 27  2  0  0  0  0
 21 22  1  0  0  0  0
 22 23  2  0  0  0  0
 23 25  1  0  0  0  0
 23 24  1  0  0  0  0
 26 21  1  6  0  0  0
 26 24  1  0  0  0  0
 27 25  1  0  0  0  0
 28 31  1  0  0  0  0
 31 29  1  6  0  0  0
 31 30  1  0  0  0  0
 32 33  1  0  0  0  0
 33 34  1  0  0  0  0
 34 35  1  0  0  0  0
 35 36  1  0  0  0  0
 36 42  1  0  0  0  0
 37 43  1  6  0  0  0
 37 41  1  0  0  0  0
 38 39  2  0  0  0  0
 38 41  1  0  0  0  0
 40 37  1  0  0  0  0
 42 40  1  0  0  0  0
 42 38  1  0  0  0  0
 43 44  1  0  0  0  0
M  END
>  <MODEL>
9

>  <REMARK>
 VINA RESULT:      -6.8      2.675      3.866
  Name = 
  10 active torsions:
  status: ('A' for Active; 'I' for Inactive)
    1  A    between atoms: O_4  and  C_16
    2  A    between atoms: O_4  and  P_33
    3  A    between atoms: C_5  and  O_25
    4  A    between atoms: C_7  and  C_26
    5  A    between atoms: C_7  and  C_36
    6  A    between atoms: C_13  and  O_25
    7  A    between atoms: C_13  and  C_26
    8  A    between atoms: C_18  and  C_31
    9  A    between atoms: C_20  and  C_29
   10  A    between atoms: C_36  and  N_44
                            x       y       z     vdW  Elec       q    Type
                         _______ _______ _______ _____ _____    ______ ____

>  <TORSDO>
F 10

$$$$
