=
 OpenBabel10222417433D

 60 66  0  0  1  0  0  0  0  0999 V2000
  187.5510  177.3580  137.8850 C   0  0  2  0  0  3  0  0  0  0  0  0
  188.5040  178.8070  140.1650 O   0  0  0  0  0  0  0  0  0  0  0  0
  188.3260  176.7970  138.9840 N   0  0  0  0  0  2  0  0  0  0  0  0
  188.7890  177.5810  140.0850 C   0  0  0  0  0  0  0  0  0  0  0  0
  189.6000  176.9370  141.1540 C   0  0  0  0  0  2  0  0  0  0  0  0
  190.7640  177.7580  141.4440 N   0  0  0  0  0  2  0  0  0  0  0  0
  190.3980  178.6670  142.9140 S   0  0  0  0  0  0  0  0  0  0  0  0
  190.8920  177.3030  147.5390 C   0  0  0  0  0  2  0  0  0  0  0  0
  190.1640  177.7060  146.2490 C   0  0  2  0  0  3  0  0  0  0  0  0
  187.8920  177.5550  145.3000 C   0  0  0  0  0  0  0  0  0  0  0  0
  191.3190  175.8380  147.5210 C   0  0  0  0  0  2  0  0  0  0  0  0
  191.4840  175.9490  145.0520 C   0  0  0  0  0  3  0  0  0  0  0  0
  189.7810  177.1890  143.7790 C   0  0  1  0  0  3  0  0  0  0  0  0
  192.2180  175.6040  146.3130 C   0  0  0  0  0  2  0  0  0  0  0  0
  188.7540  177.5920  146.4080 O   0  0  0  0  0  0  0  0  0  0  0  0
  190.5870  176.9460  145.0160 C   0  0  0  0  0  0  0  0  0  0  0  0
  188.3580  177.3540  144.0990 N   0  0  0  0  0  0  0  0  0  0  0  0
  186.0730  177.9940  146.9380 C   0  0  0  0  0  1  0  0  0  0  0  0
  186.4120  177.6880  145.4880 C   0  0  1  0  0  3  0  0  0  0  0  0
  184.1540  178.3000  142.7080 C   0  0  0  0  0  2  0  0  0  0  0  0
  185.7330  178.6750  144.5270 C   0  0  0  0  0  3  0  0  0  0  0  0
  183.5350  179.2360  143.7210 C   0  0  0  0  0  2  0  0  0  0  0  0
  185.6120  178.1570  143.0980 C   0  0  0  0  0  2  0  0  0  0  0  0
  184.3360  179.0480  144.9890 C   0  0  0  0  0  2  0  0  0  0  0  0
  188.4230  178.3270  137.0950 C   0  0  0  0  0  2  0  0  0  0  0  0
  190.6630  177.5210  137.0710 O   0  0  0  0  0  0  0  0  0  0  0  0
  189.5730  177.6270  136.4530 C   0  0  0  0  0  0  0  0  0  0  0  0
  189.4250  177.1000  135.1710 O   0  0  0  0  0  0  0  0  0  0  0  0
  190.1210  175.9360  134.7520 C   0  0  0  0  0  2  0  0  0  0  0  0
  189.6680  174.7490  135.5780 C   0  0  0  0  0  2  0  0  0  0  0  0
  192.3730  174.4490  137.7400 C   0  0  0  0  0  2  0  0  0  0  0  0
  191.0010  174.4170  137.5200 O   0  0  0  0  0  0  0  0  0  0  0  0
  193.0320  174.5490  136.3900 C   0  0  1  0  0  0  0  0  0  0  0  0
  190.8630  174.0310  136.1780 C   0  0  2  0  0  3  0  0  0  0  0  0
  192.0220  174.3440  135.4430 O   0  0  0  0  0  0  0  0  0  0  0  0
  193.9900  176.5200  137.4020 O   0  0  0  0  0  1  0  0  0  0  0  0
  193.6520  175.9440  136.1740 C   0  0  1  0  0  3  0  0  0  0  0  0
  194.8830  175.9020  135.2730 C   0  0  0  0  0  2  0  0  0  0  0  0
  195.3110  177.3090  134.9110 C   0  0  0  0  0  1  0  0  0  0  0  0
  195.1480  173.5640  136.9370 O   0  0  0  0  0  0  0  0  0  0  0  0
  194.0840  173.4600  136.2720 C   0  0  0  0  0  0  0  0  0  0  0  0
  193.9410  172.3460  135.4320 O   0  0  0  0  0  0  0  0  0  0  0  0
  193.4360  171.0830  135.8490 C   0  0  0  0  0  2  0  0  0  0  0  0
  194.4560  170.1310  135.8220 O   0  0  0  0  0  0  0  0  0  0  0  0
  194.5030  169.6310  137.1220 C   0  0  0  0  0  1  0  0  0  0  0  0
  186.3340  178.0870  138.4480 C   0  0  0  0  0  2  0  0  0  0  0  0
  183.9050  177.8460  138.3840 C   0  0  0  0  0  2  0  0  0  0  0  0
  183.1820  176.7190  136.3050 C   0  0  2  0  0  3  0  0  0  0  0  0
  181.6060  177.4200  137.9860 O   0  0  0  0  0  0  0  0  0  0  0  0
  185.0540  177.7500  137.7460 C   0  0  2  0  0  3  0  0  0  0  0  0
  184.9510  177.1360  136.0530 S   0  0  0  0  0  0  0  0  0  0  0  0
  182.7980  177.3540  137.5920 C   0  0  0  0  0  0  0  0  0  0  0  0
  183.8930  174.3520  136.7690 C   0  0  0  0  0  3  0  0  0  0  0  0
  183.1930  173.1590  136.8000 C   0  0  0  0  0  0  0  0  0  0  0  0
  182.9860  175.2730  136.3850 N   0  0  0  0  0  0  0  0  0  0  0  0
  181.8130  174.6850  136.2120 N   0  0  0  0  0  0  0  0  0  0  0  0
  181.9120  173.3860  136.4470 N   0  0  0  0  0  0  0  0  0  0  0  0
  183.1670  170.7570  136.1880 C   0  0  0  0  0  2  0  0  0  0  0  0
  183.7420  171.8060  137.1200 C   0  0  0  0  0  3  0  0  0  0  0  0
  184.5550  171.3020  135.9430 C   0  0  0  0  0  2  0  0  0  0  0  0
  1 25  1  1  0  0  0
  1 46  1  0  0  0  0
  1  3  1  0  0  0  0
  3  4  1  0  0  0  0
  4  2  2  0  0  0  0
  4  5  1  0  0  0  0
  5  6  1  0  0  0  0
  6  7  1  0  0  0  0
  9 15  1  0  0  0  0
  9  8  1  1  0  0  0
 10 19  1  0  0  0  0
 10 15  1  0  0  0  0
 11  8  1  0  0  0  0
 12 14  1  0  0  0  0
 13  7  1  1  0  0  0
 13 17  1  0  0  0  0
 13 16  1  0  0  0  0
 14 11  1  0  0  0  0
 16 12  2  0  0  0  0
 16  9  1  0  0  0  0
 17 10  2  0  0  0  0
 19 18  1  1  0  0  0
 20 23  1  0  0  0  0
 20 22  1  0  0  0  0
 21 24  1  0  0  0  0
 21 19  1  0  0  0  0
 22 24  1  0  0  0  0
 23 21  1  0  0  0  0
 27 26  2  0  0  0  0
 27 25  1  0  0  0  0
 28 27  1  0  0  0  0
 29 28  1  0  0  0  0
 29 30  1  0  0  0  0
 32 31  1  0  0  0  0
 33 41  1  6  0  0  0
 33 31  1  0  0  0  0
 34 30  1  6  0  0  0
 34 32  1  0  0  0  0
 35 34  1  0  0  0  0
 35 33  1  0  0  0  0
 37 33  1  0  0  0  0
 37 36  1  1  0  0  0
 38 37  1  0  0  0  0
 39 38  1  0  0  0  0
 41 40  2  0  0  0  0
 42 43  1  0  0  0  0
 42 41  1  0  0  0  0
 44 43  1  0  0  0  0
 44 45  1  0  0  0  0
 48 55  1  1  0  0  0
 48 52  1  0  0  0  0
 50 47  1  0  0  0  0
 50 46  1  1  0  0  0
 51 48  1  0  0  0  0
 51 50  1  0  0  0  0
 52 49  2  0  0  0  0
 52 47  1  0  0  0  0
 53 54  2  0  0  0  0
 54 59  1  0  0  0  0
 55 53  1  0  0  0  0
 56 55  1  0  0  0  0
 56 57  2  0  0  0  0
 57 54  1  0  0  0  0
 58 59  1  0  0  0  0
 60 58  1  0  0  0  0
 60 59  1  0  0  0  0
M  END
>  <MODEL>
1

>  <REMARK>
 VINA RESULT:      -7.1      0.000      0.000
  Name = 
  23 active torsions:
  status: ('A' for Active; 'I' for Inactive)
    1  A    between atoms: C_1  and  C_31
    2  A    between atoms: C_1  and  N_52
    3  A    between atoms: C_1  and  C_56
    4  A    between atoms: O_3  and  C_39
    5  A    between atoms: N_4  and  C_32
    6  A    between atoms: N_4  and  S_54
    7  A    between atoms: C_9  and  N_16
    8  A    between atoms: O_11  and  C_39
    9  A    between atoms: O_11  and  C_57
   10  A    between atoms: C_14  and  C_33
   11  A    between atoms: C_17  and  C_18
   12  A    between atoms: C_18  and  C_24
   13  A    between atoms: C_19  and  O_30
   14  A    between atoms: C_19  and  C_31
   15  A    between atoms: C_22  and  C_55
   16  A    between atoms: C_22  and  C_57
   17  A    between atoms: C_23  and  C_55
   18  A    between atoms: C_29  and  S_54
   19  A    between atoms: O_30  and  C_41
   20  A    between atoms: C_32  and  C_53
   21  A    between atoms: C_41  and  C_58
   22  A    between atoms: C_42  and  C_58
   23  A    between atoms: C_45  and  C_56
                            x       y       z     vdW  Elec       q    Type
                         _______ _______ _______ _____ _____    ______ ____

>  <TORSDO>
F 23

$$$$
=
 OpenBabel10222417433D

 60 66  0  0  1  0  0  0  0  0999 V2000
  189.0300  175.7910  136.8630 C   0  0  2  0  0  3  0  0  0  0  0  0
  188.8900  178.6170  137.3140 O   0  0  0  0  0  0  0  0  0  0  0  0
  189.1450  176.4510  138.1570 N   0  0  0  0  0  2  0  0  0  0  0  0
  189.0860  177.8710  138.3100 C   0  0  0  0  0  0  0  0  0  0  0  0
  189.2400  178.4680  139.6650 C   0  0  0  0  0  2  0  0  0  0  0  0
  189.1450  177.4240  140.6720 N   0  0  0  0  0  2  0  0  0  0  0  0
  190.5110  177.6420  141.7690 S   0  0  0  0  0  0  0  0  0  0  0  0
  191.5240  176.8400  146.4420 C   0  0  0  0  0  2  0  0  0  0  0  0
  190.6590  177.1300  145.2070 C   0  0  2  0  0  3  0  0  0  0  0  0
  188.2770  177.0310  144.5700 C   0  0  0  0  0  0  0  0  0  0  0  0
  191.8590  175.3560  146.5700 C   0  0  0  0  0  2  0  0  0  0  0  0
  191.7060  175.1410  144.1070 C   0  0  0  0  0  3  0  0  0  0  0  0
  189.9270  176.3350  142.8940 C   0  0  1  0  0  3  0  0  0  0  0  0
  192.5770  174.9050  145.3040 C   0  0  0  0  0  2  0  0  0  0  0  0
  189.2770  177.1430  145.5500 O   0  0  0  0  0  0  0  0  0  0  0  0
  190.8720  176.1900  144.0460 C   0  0  0  0  0  0  0  0  0  0  0  0
  188.5700  176.6450  143.3610 N   0  0  0  0  0  0  0  0  0  0  0  0
  186.6880  177.5760  146.4040 C   0  0  0  0  0  1  0  0  0  0  0  0
  186.8450  177.2970  144.9180 C   0  0  1  0  0  3  0  0  0  0  0  0
  184.3770  178.2370  142.4220 C   0  0  0  0  0  2  0  0  0  0  0  0
  186.1730  178.3830  144.0640 C   0  0  0  0  0  3  0  0  0  0  0  0
  183.9720  179.1930  143.5220 C   0  0  0  0  0  2  0  0  0  0  0  0
  185.8450  177.9340  142.6450 C   0  0  0  0  0  2  0  0  0  0  0  0
  184.8810  178.8780  144.6880 C   0  0  0  0  0  2  0  0  0  0  0  0
  187.6610  175.1290  136.7540 C   0  0  0  0  0  2  0  0  0  0  0  0
  186.3210  176.3440  135.2060 O   0  0  0  0  0  0  0  0  0  0  0  0
  186.6010  176.1210  136.4110 C   0  0  0  0  0  0  0  0  0  0  0  0
  185.9350  176.7920  137.4350 O   0  0  0  0  0  0  0  0  0  0  0  0
  185.0480  177.8700  137.1740 C   0  0  0  0  0  2  0  0  0  0  0  0
  184.4940  178.3980  138.4820 C   0  0  0  0  0  2  0  0  0  0  0  0
  181.2810  178.5240  137.1630 C   0  0  0  0  0  2  0  0  0  0  0  0
  182.5210  177.9030  137.2490 O   0  0  0  0  0  0  0  0  0  0  0  0
  181.2490  179.5910  138.2240 C   0  0  1  0  0  0  0  0  0  0  0  0
  182.9880  178.2140  138.5350 C   0  0  2  0  0  3  0  0  0  0  0  0
  182.3830  179.3890  139.0190 O   0  0  0  0  0  0  0  0  0  0  0  0
  180.7370  180.9930  136.3270 O   0  0  0  0  0  1  0  0  0  0  0  0
  181.3140  180.9990  137.5990 C   0  0  1  0  0  3  0  0  0  0  0  0
  180.6300  182.0530  138.4660 C   0  0  0  0  0  2  0  0  0  0  0  0
  179.4150  182.6070  137.7500 C   0  0  0  0  0  1  0  0  0  0  0  0
  178.9460  178.9880  138.5060 O   0  0  0  0  0  0  0  0  0  0  0  0
  179.9920  179.4210  139.0580 C   0  0  0  0  0  0  0  0  0  0  0  0
  179.9260  179.7530  140.4200 O   0  0  0  0  0  0  0  0  0  0  0  0
  180.9430  179.4560  141.3690 C   0  0  0  0  0  2  0  0  0  0  0  0
  180.3770  179.2840  142.6330 O   0  0  0  0  0  0  0  0  0  0  0  0
  179.0320  179.6050  142.4610 C   0  0  0  0  0  1  0  0  0  0  0  0
  190.1310  174.7420  136.7330 C   0  0  0  0  0  2  0  0  0  0  0  0
  192.1470  175.5550  135.6200 C   0  0  0  0  0  2  0  0  0  0  0  0
  193.9660  175.9330  137.2510 C   0  0  2  0  0  3  0  0  0  0  0  0
  194.2690  176.3250  134.8940 O   0  0  0  0  0  0  0  0  0  0  0  0
  191.5140  175.3190  136.7520 C   0  0  2  0  0  3  0  0  0  0  0  0
  192.4510  175.6720  138.2520 S   0  0  0  0  0  0  0  0  0  0  0  0
  193.5120  175.9820  135.8370 C   0  0  0  0  0  0  0  0  0  0  0  0
  194.6410  173.5160  137.4110 C   0  0  0  0  0  3  0  0  0  0  0  0
  195.8760  172.8980  137.4970 C   0  0  0  0  0  0  0  0  0  0  0  0
  194.9150  174.8360  137.4310 N   0  0  0  0  0  0  0  0  0  0  0  0
  196.2240  175.0090  137.5070 N   0  0  0  0  0  0  0  0  0  0  0  0
  196.8390  173.8380  137.5620 N   0  0  0  0  0  0  0  0  0  0  0  0
  195.5400  170.7210  136.3620 C   0  0  0  0  0  2  0  0  0  0  0  0
  196.1390  171.4280  137.5620 C   0  0  0  0  0  3  0  0  0  0  0  0
  197.0200  171.0230  136.3970 C   0  0  0  0  0  2  0  0  0  0  0  0
  1 46  1  1  0  0  0
  1  3  1  0  0  0  0
  2  4  2  0  0  0  0
  3  4  1  0  0  0  0
  4  5  1  0  0  0  0
  5  6  1  0  0  0  0
  6  7  1  0  0  0  0
  8 11  1  0  0  0  0
  9 15  1  0  0  0  0
  9  8  1  1  0  0  0
 10 19  1  0  0  0  0
 10 15  1  0  0  0  0
 12 14  1  0  0  0  0
 13  7  1  6  0  0  0
 13 17  1  0  0  0  0
 13 16  1  0  0  0  0
 14 11  1  0  0  0  0
 16 12  2  0  0  0  0
 16  9  1  0  0  0  0
 17 10  2  0  0  0  0
 19 18  1  1  0  0  0
 20 23  1  0  0  0  0
 20 22  1  0  0  0  0
 21 24  1  0  0  0  0
 21 19  1  0  0  0  0
 22 24  1  0  0  0  0
 23 21  1  0  0  0  0
 25  1  1  0  0  0  0
 26 27  2  0  0  0  0
 27 25  1  0  0  0  0
 27 28  1  0  0  0  0
 29 28  1  0  0  0  0
 29 30  1  0  0  0  0
 31 32  1  0  0  0  0
 31 33  1  0  0  0  0
 32 34  1  0  0  0  0
 33 35  1  0  0  0  0
 33 41  1  1  0  0  0
 34 30  1  6  0  0  0
 34 35  1  0  0  0  0
 37 36  1  6  0  0  0
 37 33  1  0  0  0  0
 37 38  1  0  0  0  0
 39 38  1  0  0  0  0
 40 41  2  0  0  0  0
 41 42  1  0  0  0  0
 42 43  1  0  0  0  0
 43 44  1  0  0  0  0
 45 44  1  0  0  0  0
 47 52  1  0  0  0  0
 47 50  1  0  0  0  0
 48 55  1  6  0  0  0
 48 51  1  0  0  0  0
 49 52  2  0  0  0  0
 50 46  1  1  0  0  0
 50 51  1  0  0  0  0
 52 48  1  0  0  0  0
 53 55  1  0  0  0  0
 53 54  2  0  0  0  0
 54 59  1  0  0  0  0
 54 57  1  0  0  0  0
 55 56  1  0  0  0  0
 56 57  2  0  0  0  0
 58 60  1  0  0  0  0
 58 59  1  0  0  0  0
 60 59  1  0  0  0  0
M  END
>  <MODEL>
2

>  <REMARK>
 VINA RESULT:      -6.9      3.046      9.514
  Name = 
  23 active torsions:
  status: ('A' for Active; 'I' for Inactive)
    1  A    between atoms: C_1  and  C_31
    2  A    between atoms: C_1  and  N_52
    3  A    between atoms: C_1  and  C_56
    4  A    between atoms: O_3  and  C_39
    5  A    between atoms: N_4  and  C_32
    6  A    between atoms: N_4  and  S_54
    7  A    between atoms: C_9  and  N_16
    8  A    between atoms: O_11  and  C_39
    9  A    between atoms: O_11  and  C_57
   10  A    between atoms: C_14  and  C_33
   11  A    between atoms: C_17  and  C_18
   12  A    between atoms: C_18  and  C_24
   13  A    between atoms: C_19  and  O_30
   14  A    between atoms: C_19  and  C_31
   15  A    between atoms: C_22  and  C_55
   16  A    between atoms: C_22  and  C_57
   17  A    between atoms: C_23  and  C_55
   18  A    between atoms: C_29  and  S_54
   19  A    between atoms: O_30  and  C_41
   20  A    between atoms: C_32  and  C_53
   21  A    between atoms: C_41  and  C_58
   22  A    between atoms: C_42  and  C_58
   23  A    between atoms: C_45  and  C_56
                            x       y       z     vdW  Elec       q    Type
                         _______ _______ _______ _____ _____    ______ ____

>  <TORSDO>
F 23

$$$$
=
 OpenBabel10222417433D

 60 66  0  0  1  0  0  0  0  0999 V2000
  188.5870  175.4180  137.1290 C   0  0  2  0  0  3  0  0  0  0  0  0
  189.1500  178.1960  137.5510 O   0  0  0  0  0  0  0  0  0  0  0  0
  189.0680  176.0080  138.3720 N   0  0  0  0  0  2  0  0  0  0  0  0
  189.3500  177.4020  138.5100 C   0  0  0  0  0  0  0  0  0  0  0  0
  189.8640  177.9210  139.8070 C   0  0  0  0  0  2  0  0  0  0  0  0
  189.9700  176.8290  140.7610 N   0  0  0  0  0  2  0  0  0  0  0  0
  190.9730  177.4060  142.0950 S   0  0  0  0  0  0  0  0  0  0  0  0
  191.2080  177.2140  146.9330 C   0  0  0  0  0  2  0  0  0  0  0  0
  190.5540  177.3030  145.5470 C   0  0  2  0  0  3  0  0  0  0  0  0
  188.3240  176.9730  144.5450 C   0  0  0  0  0  0  0  0  0  0  0  0
  191.5840  175.7800  147.2970 C   0  0  0  0  0  2  0  0  0  0  0  0
  191.8650  175.2750  144.8890 C   0  0  0  0  0  3  0  0  0  0  0  0
  190.2660  176.2010  143.2620 C   0  0  1  0  0  3  0  0  0  0  0  0
  192.5280  175.2360  146.2320 C   0  0  0  0  0  2  0  0  0  0  0  0
  189.1350  177.2630  145.6540 O   0  0  0  0  0  0  0  0  0  0  0  0
  191.0060  176.2520  144.5620 C   0  0  0  0  0  0  0  0  0  0  0  0
  188.8360  176.4720  143.4570 N   0  0  0  0  0  0  0  0  0  0  0  0
  186.4920  178.2570  145.6330 C   0  0  0  0  0  1  0  0  0  0  0  0
  186.8420  177.1820  144.6170 C   0  0  1  0  0  3  0  0  0  0  0  0
  184.9000  179.3630  142.4540 C   0  0  0  0  0  2  0  0  0  0  0  0
  186.1690  177.4430  143.2620 C   0  0  0  0  0  3  0  0  0  0  0  0
  186.0880  179.1320  141.5470 C   0  0  0  0  0  2  0  0  0  0  0  0
  184.8260  178.1560  143.3690 C   0  0  0  0  0  2  0  0  0  0  0  0
  187.0460  178.2760  142.3430 C   0  0  0  0  0  2  0  0  0  0  0  0
  187.0720  175.2640  137.1960 C   0  0  0  0  0  2  0  0  0  0  0  0
  187.0780  176.0950  134.9650 O   0  0  0  0  0  0  0  0  0  0  0  0
  186.4090  175.8710  136.0060 C   0  0  0  0  0  0  0  0  0  0  0  0
  185.0520  176.1840  136.0640 O   0  0  0  0  0  0  0  0  0  0  0  0
  184.5800  177.5120  135.8920 C   0  0  0  0  0  2  0  0  0  0  0  0
  183.0660  177.5040  135.8090 C   0  0  0  0  0  2  0  0  0  0  0  0
  182.5680  176.9940  139.2100 C   0  0  0  0  0  2  0  0  0  0  0  0
  183.3640  177.4540  138.1680 O   0  0  0  0  0  0  0  0  0  0  0  0
  181.2270  176.6490  138.6200 C   0  0  1  0  0  0  0  0  0  0  0  0
  182.4580  177.8230  137.1630 C   0  0  2  0  0  3  0  0  0  0  0  0
  181.2380  177.1350  137.3080 O   0  0  0  0  0  0  0  0  0  0  0  0
  179.6450  174.8280  138.6930 O   0  0  0  0  0  1  0  0  0  0  0  0
  181.0070  175.1240  138.5920 C   0  0  1  0  0  3  0  0  0  0  0  0
  181.5790  174.4750  137.3340 C   0  0  0  0  0  2  0  0  0  0  0  0
  182.9590  173.9170  137.6180 C   0  0  0  0  0  1  0  0  0  0  0  0
  179.4100  178.1960  138.8540 O   0  0  0  0  0  0  0  0  0  0  0  0
  180.1410  177.3430  139.4230 C   0  0  0  0  0  0  0  0  0  0  0  0
  179.9250  177.1000  140.7880 O   0  0  0  0  0  0  0  0  0  0  0  0
  179.8250  178.1160  141.7790 C   0  0  0  0  0  2  0  0  0  0  0  0
  179.6880  177.5360  143.0400 O   0  0  0  0  0  0  0  0  0  0  0  0
  179.7580  178.6080  143.9280 C   0  0  0  0  0  1  0  0  0  0  0  0
  189.2450  174.0560  136.9310 C   0  0  0  0  0  2  0  0  0  0  0  0
  191.1040  173.0030  135.7490 C   0  0  0  0  0  2  0  0  0  0  0  0
  192.8680  174.6540  135.2250 C   0  0  2  0  0  3  0  0  0  0  0  0
  193.0790  172.3320  134.6210 O   0  0  0  0  0  0  0  0  0  0  0  0
  190.5270  174.1150  136.1590 C   0  0  2  0  0  3  0  0  0  0  0  0
  191.4210  175.6350  135.7800 S   0  0  0  0  0  0  0  0  0  0  0  0
  192.3940  173.2480  135.1410 C   0  0  0  0  0  0  0  0  0  0  0  0
  194.1300  174.0330  137.3090 C   0  0  0  0  0  3  0  0  0  0  0  0
  195.3760  174.3980  137.7860 C   0  0  0  0  0  0  0  0  0  0  0  0
  193.9710  174.7510  136.1790 N   0  0  0  0  0  0  0  0  0  0  0  0
  195.0510  175.4870  135.9740 N   0  0  0  0  0  0  0  0  0  0  0  0
  195.9250  175.3010  136.9500 N   0  0  0  0  0  0  0  0  0  0  0  0
  197.4440  174.4520  139.1520 C   0  0  0  0  0  2  0  0  0  0  0  0
  196.0250  173.9270  139.0480 C   0  0  0  0  0  3  0  0  0  0  0  0
  196.3350  175.1210  139.9300 C   0  0  0  0  0  2  0  0  0  0  0  0
  1 46  1  1  0  0  0
  1 25  1  0  0  0  0
  1  3  1  0  0  0  0
  2  4  2  0  0  0  0
  3  4  1  0  0  0  0
  4  5  1  0  0  0  0
  5  6  1  0  0  0  0
  6  7  1  0  0  0  0
  8 11  1  0  0  0  0
  9 15  1  0  0  0  0
  9  8  1  1  0  0  0
 10 19  1  0  0  0  0
 10 15  1  0  0  0  0
 12 14  1  0  0  0  0
 13  7  1  6  0  0  0
 13 17  1  0  0  0  0
 13 16  1  0  0  0  0
 14 11  1  0  0  0  0
 16 12  2  0  0  0  0
 16  9  1  0  0  0  0
 17 10  2  0  0  0  0
 19 18  1  1  0  0  0
 20 23  1  0  0  0  0
 21 23  1  0  0  0  0
 21 19  1  0  0  0  0
 22 24  1  0  0  0  0
 22 20  1  0  0  0  0
 24 21  1  0  0  0  0
 26 27  2  0  0  0  0
 27 28  1  0  0  0  0
 27 25  1  0  0  0  0
 29 28  1  0  0  0  0
 30 29  1  0  0  0  0
 32 31  1  0  0  0  0
 33 31  1  0  0  0  0
 33 41  1  1  0  0  0
 34 30  1  6  0  0  0
 34 35  1  0  0  0  0
 34 32  1  0  0  0  0
 35 33  1  0  0  0  0
 37 33  1  0  0  0  0
 37 36  1  6  0  0  0
 38 39  1  0  0  0  0
 38 37  1  0  0  0  0
 40 41  2  0  0  0  0
 41 42  1  0  0  0  0
 42 43  1  0  0  0  0
 43 44  1  0  0  0  0
 44 45  1  0  0  0  0
 47 50  1  0  0  0  0
 48 51  1  0  0  0  0
 48 55  1  1  0  0  0
 49 52  2  0  0  0  0
 50 46  1  1  0  0  0
 51 50  1  0  0  0  0
 52 48  1  0  0  0  0
 52 47  1  0  0  0  0
 53 54  2  0  0  0  0
 54 59  1  0  0  0  0
 55 53  1  0  0  0  0
 56 55  1  0  0  0  0
 56 57  2  0  0  0  0
 57 54  1  0  0  0  0
 58 60  1  0  0  0  0
 59 58  1  0  0  0  0
 59 60  1  0  0  0  0
M  END
>  <MODEL>
3

>  <REMARK>
 VINA RESULT:      -6.8      2.789      9.178
  Name = 
  23 active torsions:
  status: ('A' for Active; 'I' for Inactive)
    1  A    between atoms: C_1  and  C_31
    2  A    between atoms: C_1  and  N_52
    3  A    between atoms: C_1  and  C_56
    4  A    between atoms: O_3  and  C_39
    5  A    between atoms: N_4  and  C_32
    6  A    between atoms: N_4  and  S_54
    7  A    between atoms: C_9  and  N_16
    8  A    between atoms: O_11  and  C_39
    9  A    between atoms: O_11  and  C_57
   10  A    between atoms: C_14  and  C_33
   11  A    between atoms: C_17  and  C_18
   12  A    between atoms: C_18  and  C_24
   13  A    between atoms: C_19  and  O_30
   14  A    between atoms: C_19  and  C_31
   15  A    between atoms: C_22  and  C_55
   16  A    between atoms: C_22  and  C_57
   17  A    between atoms: C_23  and  C_55
   18  A    between atoms: C_29  and  S_54
   19  A    between atoms: O_30  and  C_41
   20  A    between atoms: C_32  and  C_53
   21  A    between atoms: C_41  and  C_58
   22  A    between atoms: C_42  and  C_58
   23  A    between atoms: C_45  and  C_56
                            x       y       z     vdW  Elec       q    Type
                         _______ _______ _______ _____ _____    ______ ____

>  <TORSDO>
F 23

$$$$
=
 OpenBabel10222417433D

 60 66  0  0  1  0  0  0  0  0999 V2000
  182.7750  178.9640  142.0190 C   0  0  2  0  0  3  0  0  0  0  0  0
  184.5140  177.3740  140.3900 O   0  0  0  0  0  0  0  0  0  0  0  0
  183.4040  179.3950  140.7780 N   0  0  0  0  0  2  0  0  0  0  0  0
  184.2800  178.5570  140.0210 C   0  0  0  0  0  0  0  0  0  0  0  0
  184.9050  179.0820  138.7760 C   0  0  0  0  0  2  0  0  0  0  0  0
  185.2300  177.9770  137.8910 N   0  0  0  0  0  2  0  0  0  0  0  0
  186.9910  177.8560  137.8440 S   0  0  0  0  0  0  0  0  0  0  0  0
  189.2470  173.6520  136.9820 C   0  0  0  0  0  2  0  0  0  0  0  0
  188.0680  174.6200  137.1570 C   0  0  2  0  0  3  0  0  0  0  0  0
  185.6700  174.7130  136.5850 C   0  0  0  0  0  0  0  0  0  0  0  0
  189.8860  173.7730  135.6020 C   0  0  0  0  0  2  0  0  0  0  0  0
  189.1840  176.1470  135.5170 C   0  0  0  0  0  3  0  0  0  0  0  0
  186.9660  176.7850  136.3720 C   0  0  1  0  0  3  0  0  0  0  0  0
  190.3490  175.2110  135.3990 C   0  0  0  0  0  2  0  0  0  0  0  0
  186.8360  173.9760  136.8480 O   0  0  0  0  0  0  0  0  0  0  0  0
  188.1720  175.8990  136.3620 C   0  0  0  0  0  0  0  0  0  0  0  0
  185.7290  175.9940  136.3500 N   0  0  0  0  0  0  0  0  0  0  0  0
  184.3390  172.7550  137.3470 C   0  0  0  0  0  1  0  0  0  0  0  0
  184.3410  174.0250  136.5110 C   0  0  1  0  0  3  0  0  0  0  0  0
  180.9500  175.1090  135.7860 C   0  0  0  0  0  2  0  0  0  0  0  0
  183.1400  174.9230  136.8410 C   0  0  0  0  0  3  0  0  0  0  0  0
  180.7730  174.7470  137.2440 C   0  0  0  0  0  2  0  0  0  0  0  0
  182.4150  175.4570  135.6110 C   0  0  0  0  0  2  0  0  0  0  0  0
  182.1090  174.2020  137.6910 C   0  0  0  0  0  2  0  0  0  0  0  0
  183.8240  178.3260  142.9220 C   0  0  0  0  0  2  0  0  0  0  0  0
  182.6610  179.1980  144.8070 O   0  0  0  0  0  0  0  0  0  0  0  0
  183.7710  178.8870  144.3020 C   0  0  0  0  0  0  0  0  0  0  0  0
  184.9540  179.0630  145.0170 O   0  0  0  0  0  0  0  0  0  0  0  0
  185.3320  178.1900  146.0720 C   0  0  0  0  0  2  0  0  0  0  0  0
  186.8390  178.0240  146.0760 C   0  0  0  0  0  2  0  0  0  0  0  0
  188.0840  176.3020  143.3270 C   0  0  0  0  0  2  0  0  0  0  0  0
  187.0120  176.6650  144.1320 O   0  0  0  0  0  0  0  0  0  0  0  0
  189.2640  177.1250  143.7690 C   0  0  1  0  0  0  0  0  0  0  0  0
  187.3660  177.9160  144.6570 C   0  0  2  0  0  3  0  0  0  0  0  0
  188.7640  178.0840  144.6570 O   0  0  0  0  0  0  0  0  0  0  0  0
  191.0680  175.5340  143.5750 O   0  0  0  0  0  1  0  0  0  0  0  0
  190.3080  176.2560  144.4980 C   0  0  1  0  0  3  0  0  0  0  0  0
  191.2340  177.0800  145.3890 C   0  0  0  0  0  2  0  0  0  0  0  0
  191.1290  176.6100  146.8250 C   0  0  0  0  0  1  0  0  0  0  0  0
  190.7210  178.7220  142.7300 O   0  0  0  0  0  0  0  0  0  0  0  0
  189.8730  177.8070  142.5560 C   0  0  0  0  0  0  0  0  0  0  0  0
  189.5150  177.4860  141.2380 O   0  0  0  0  0  0  0  0  0  0  0  0
  190.3250  176.7300  140.3460 C   0  0  0  0  0  2  0  0  0  0  0  0
  190.6210  177.4880  139.2140 O   0  0  0  0  0  0  0  0  0  0  0  0
  191.5980  176.7530  138.5450 C   0  0  0  0  0  1  0  0  0  0  0  0
  181.6730  177.9570  141.7020 C   0  0  0  0  0  2  0  0  0  0  0  0
  180.4150  177.8710  139.6110 C   0  0  0  0  0  2  0  0  0  0  0  0
  179.0660  179.9210  139.3060 C   0  0  2  0  0  3  0  0  0  0  0  0
  179.0770  178.1500  137.6730 O   0  0  0  0  0  0  0  0  0  0  0  0
  180.6340  178.4810  140.7590 C   0  0  2  0  0  3  0  0  0  0  0  0
  179.6610  179.9730  141.0400 S   0  0  0  0  0  0  0  0  0  0  0  0
  179.4770  178.5940  138.7790 C   0  0  0  0  0  0  0  0  0  0  0  0
  179.1160  181.6250  137.4580 C   0  0  0  0  0  3  0  0  0  0  0  0
  180.0230  182.6170  137.1320 C   0  0  0  0  0  0  0  0  0  0  0  0
  179.6710  180.9830  138.5060 N   0  0  0  0  0  0  0  0  0  0  0  0
  180.8250  181.5560  138.8070 N   0  0  0  0  0  0  0  0  0  0  0  0
  181.0740  182.5530  137.9730 N   0  0  0  0  0  0  0  0  0  0  0  0
  179.4430  184.9440  136.5030 C   0  0  0  0  0  2  0  0  0  0  0  0
  179.9160  183.5920  136.0040 C   0  0  0  0  0  3  0  0  0  0  0  0
  180.9090  184.7180  136.2160 C   0  0  0  0  0  2  0  0  0  0  0  0
  1 46  1  6  0  0  0
  1 25  1  0  0  0  0
  3  1  1  0  0  0  0
  4  2  2  0  0  0  0
  4  3  1  0  0  0  0
  5  4  1  0  0  0  0
  6  5  1  0  0  0  0
  7  6  1  0  0  0  0
  9  8  1  6  0  0  0
 10 15  1  0  0  0  0
 11  8  1  0  0  0  0
 12 16  2  0  0  0  0
 13  7  1  1  0  0  0
 14 12  1  0  0  0  0
 14 11  1  0  0  0  0
 15  9  1  0  0  0  0
 16 13  1  0  0  0  0
 16  9  1  0  0  0  0
 17 13  1  0  0  0  0
 17 10  2  0  0  0  0
 19 10  1  0  0  0  0
 19 21  1  0  0  0  0
 19 18  1  1  0  0  0
 20 22  1  0  0  0  0
 21 24  1  0  0  0  0
 22 24  1  0  0  0  0
 23 20  1  0  0  0  0
 23 21  1  0  0  0  0
 25 27  1  0  0  0  0
 27 26  2  0  0  0  0
 27 28  1  0  0  0  0
 28 29  1  0  0  0  0
 29 30  1  0  0  0  0
 31 33  1  0  0  0  0
 31 32  1  0  0  0  0
 32 34  1  0  0  0  0
 33 41  1  6  0  0  0
 33 37  1  0  0  0  0
 33 35  1  0  0  0  0
 34 35  1  0  0  0  0
 34 30  1  1  0  0  0
 37 36  1  6  0  0  0
 37 38  1  0  0  0  0
 38 39  1  0  0  0  0
 41 40  2  0  0  0  0
 42 41  1  0  0  0  0
 43 42  1  0  0  0  0
 44 43  1  0  0  0  0
 45 44  1  0  0  0  0
 47 50  1  0  0  0  0
 48 55  1  6  0  0  0
 48 51  1  0  0  0  0
 49 52  2  0  0  0  0
 50 51  1  0  0  0  0
 50 46  1  6  0  0  0
 52 48  1  0  0  0  0
 52 47  1  0  0  0  0
 53 55  1  0  0  0  0
 54 53  2  0  0  0  0
 54 57  1  0  0  0  0
 55 56  1  0  0  0  0
 57 56  2  0  0  0  0
 59 60  1  0  0  0  0
 59 58  1  0  0  0  0
 59 54  1  0  0  0  0
 60 58  1  0  0  0  0
M  END
>  <MODEL>
4

>  <REMARK>
 VINA RESULT:      -6.7      3.705      9.017
  Name = 
  23 active torsions:
  status: ('A' for Active; 'I' for Inactive)
    1  A    between atoms: C_1  and  C_31
    2  A    between atoms: C_1  and  N_52
    3  A    between atoms: C_1  and  C_56
    4  A    between atoms: O_3  and  C_39
    5  A    between atoms: N_4  and  C_32
    6  A    between atoms: N_4  and  S_54
    7  A    between atoms: C_9  and  N_16
    8  A    between atoms: O_11  and  C_39
    9  A    between atoms: O_11  and  C_57
   10  A    between atoms: C_14  and  C_33
   11  A    between atoms: C_17  and  C_18
   12  A    between atoms: C_18  and  C_24
   13  A    between atoms: C_19  and  O_30
   14  A    between atoms: C_19  and  C_31
   15  A    between atoms: C_22  and  C_55
   16  A    between atoms: C_22  and  C_57
   17  A    between atoms: C_23  and  C_55
   18  A    between atoms: C_29  and  S_54
   19  A    between atoms: O_30  and  C_41
   20  A    between atoms: C_32  and  C_53
   21  A    between atoms: C_41  and  C_58
   22  A    between atoms: C_42  and  C_58
   23  A    between atoms: C_45  and  C_56
                            x       y       z     vdW  Elec       q    Type
                         _______ _______ _______ _____ _____    ______ ____

>  <TORSDO>
F 23

$$$$
=
 OpenBabel10222417433D

 60 66  0  0  1  0  0  0  0  0999 V2000
  188.9840  175.4580  136.8420 C   0  0  2  0  0  3  0  0  0  0  0  0
  188.8600  178.3190  136.9420 O   0  0  0  0  0  0  0  0  0  0  0  0
  188.4850  176.2470  137.9610 N   0  0  0  0  0  2  0  0  0  0  0  0
  188.4690  177.6770  137.9540 C   0  0  0  0  0  0  0  0  0  0  0  0
  187.9680  178.4100  139.1490 C   0  0  0  0  0  2  0  0  0  0  0  0
  187.9960  177.5300  140.3060 N   0  0  0  0  0  2  0  0  0  0  0  0
  189.3550  178.0450  141.3110 S   0  0  0  0  0  0  0  0  0  0  0  0
  191.1730  177.4360  145.7630 C   0  0  0  0  0  2  0  0  0  0  0  0
  190.0990  177.6330  144.6840 C   0  0  2  0  0  3  0  0  0  0  0  0
  187.6600  177.3460  144.4490 C   0  0  0  0  0  0  0  0  0  0  0  0
  191.6360  175.9850  145.8530 C   0  0  0  0  0  2  0  0  0  0  0  0
  191.1000  175.6970  143.4520 C   0  0  0  0  0  3  0  0  0  0  0  0
  189.0620  176.7290  142.5340 C   0  0  1  0  0  3  0  0  0  0  0  0
  192.1690  175.5550  144.4920 C   0  0  0  0  0  2  0  0  0  0  0  0
  188.7950  177.5550  145.2500 O   0  0  0  0  0  0  0  0  0  0  0  0
  190.1900  176.6820  143.5150 C   0  0  0  0  0  0  0  0  0  0  0  0
  187.7800  176.9520  143.2130 N   0  0  0  0  0  0  0  0  0  0  0  0
  186.3450  177.6600  146.5370 C   0  0  0  0  0  1  0  0  0  0  0  0
  186.2880  177.5170  145.0240 C   0  0  1  0  0  3  0  0  0  0  0  0
  183.7740  178.5730  142.6220 C   0  0  0  0  0  2  0  0  0  0  0  0
  185.4620  178.6410  144.3800 C   0  0  0  0  0  3  0  0  0  0  0  0
  183.1710  179.1760  143.8710 C   0  0  0  0  0  2  0  0  0  0  0  0
  185.2650  178.4750  142.8770 C   0  0  0  0  0  2  0  0  0  0  0  0
  184.0830  178.7610  145.0020 C   0  0  0  0  0  2  0  0  0  0  0  0
  187.8730  174.5500  136.3300 C   0  0  0  0  0  2  0  0  0  0  0  0
  186.9070  175.9230  134.6420 O   0  0  0  0  0  0  0  0  0  0  0  0
  186.7500  175.3380  135.7440 C   0  0  0  0  0  0  0  0  0  0  0  0
  185.5390  175.4170  136.4290 O   0  0  0  0  0  0  0  0  0  0  0  0
  185.0940  174.3820  137.2930 C   0  0  0  0  0  2  0  0  0  0  0  0
  183.6040  174.1760  137.1120 C   0  0  0  0  0  2  0  0  0  0  0  0
  181.6580  175.9910  139.3470 C   0  0  0  0  0  2  0  0  0  0  0  0
  182.8930  175.4790  138.9710 O   0  0  0  0  0  0  0  0  0  0  0  0
  180.7170  175.7590  138.1960 C   0  0  1  0  0  0  0  0  0  0  0  0
  182.8380  175.4030  137.5710 C   0  0  2  0  0  3  0  0  0  0  0  0
  181.5050  175.3250  137.1240 O   0  0  0  0  0  0  0  0  0  0  0  0
  179.8230  173.5780  137.6710 O   0  0  0  0  0  1  0  0  0  0  0  0
  179.6810  174.6680  138.5350 C   0  0  1  0  0  3  0  0  0  0  0  0
  179.7880  174.1910  139.9810 C   0  0  0  0  0  2  0  0  0  0  0  0
  179.2080  175.2320  140.9170 C   0  0  0  0  0  1  0  0  0  0  0  0
  179.5400  177.2110  136.6940 O   0  0  0  0  0  0  0  0  0  0  0  0
  180.0340  177.0680  137.8440 C   0  0  0  0  0  0  0  0  0  0  0  0
  179.9490  178.1500  138.7330 O   0  0  0  0  0  0  0  0  0  0  0  0
  180.2220  179.5020  138.3830 C   0  0  0  0  0  2  0  0  0  0  0  0
  181.2820  179.9860  139.1490 O   0  0  0  0  0  0  0  0  0  0  0  0
  182.4240  179.6100  138.4440 C   0  0  0  0  0  1  0  0  0  0  0  0
  190.1730  174.6210  137.3070 C   0  0  0  0  0  2  0  0  0  0  0  0
  191.8460  175.5240  135.7750 C   0  0  0  0  0  2  0  0  0  0  0  0
  193.9780  175.9600  136.9500 C   0  0  2  0  0  3  0  0  0  0  0  0
  193.7130  176.3860  134.5940 O   0  0  0  0  0  0  0  0  0  0  0  0
  191.5000  175.2520  137.0180 C   0  0  2  0  0  3  0  0  0  0  0  0
  192.7450  175.6290  138.2670 S   0  0  0  0  0  0  0  0  0  0  0  0
  193.2080  176.0040  135.6800 C   0  0  0  0  0  0  0  0  0  0  0  0
  194.7870  173.5850  137.1110 C   0  0  0  0  0  3  0  0  0  0  0  0
  195.9990  172.9920  136.8040 C   0  0  0  0  0  0  0  0  0  0  0  0
  194.9820  174.9000  136.8860 N   0  0  0  0  0  0  0  0  0  0  0  0
  196.2190  175.0910  136.4580 N   0  0  0  0  0  0  0  0  0  0  0  0
  196.8710  173.9400  136.4090 N   0  0  0  0  0  0  0  0  0  0  0  0
  197.3370  171.1320  135.8560 C   0  0  0  0  0  2  0  0  0  0  0  0
  196.3420  171.5420  136.9250 C   0  0  0  0  0  3  0  0  0  0  0  0
  197.8130  171.4000  137.2650 C   0  0  0  0  0  2  0  0  0  0  0  0
  1 25  1  1  0  0  0
  1 46  1  0  0  0  0
  1  3  1  0  0  0  0
  2  4  2  0  0  0  0
  4  3  1  0  0  0  0
  4  5  1  0  0  0  0
  5  6  1  0  0  0  0
  6  7  1  0  0  0  0
  8 11  1  0  0  0  0
  9 15  1  0  0  0  0
  9  8  1  1  0  0  0
 10 19  1  0  0  0  0
 10 15  1  0  0  0  0
 12 16  2  0  0  0  0
 12 14  1  0  0  0  0
 13  7  1  6  0  0  0
 13 17  1  0  0  0  0
 13 16  1  0  0  0  0
 14 11  1  0  0  0  0
 16  9  1  0  0  0  0
 17 10  2  0  0  0  0
 19 18  1  1  0  0  0
 20 23  1  0  0  0  0
 20 22  1  0  0  0  0
 21 24  1  0  0  0  0
 21 19  1  0  0  0  0
 22 24  1  0  0  0  0
 23 21  1  0  0  0  0
 26 27  2  0  0  0  0
 27 25  1  0  0  0  0
 27 28  1  0  0  0  0
 28 29  1  0  0  0  0
 30 29  1  0  0  0  0
 32 31  1  0  0  0  0
 33 41  1  6  0  0  0
 33 37  1  0  0  0  0
 33 31  1  0  0  0  0
 34 30  1  1  0  0  0
 34 32  1  0  0  0  0
 35 34  1  0  0  0  0
 35 33  1  0  0  0  0
 37 36  1  6  0  0  0
 37 38  1  0  0  0  0
 38 39  1  0  0  0  0
 40 41  2  0  0  0  0
 41 42  1  0  0  0  0
 43 42  1  0  0  0  0
 43 44  1  0  0  0  0
 45 44  1  0  0  0  0
 47 50  1  0  0  0  0
 48 55  1  6  0  0  0
 48 51  1  0  0  0  0
 49 52  2  0  0  0  0
 50 46  1  6  0  0  0
 50 51  1  0  0  0  0
 52 47  1  0  0  0  0
 52 48  1  0  0  0  0
 54 59  1  0  0  0  0
 54 53  2  0  0  0  0
 55 53  1  0  0  0  0
 56 55  1  0  0  0  0
 57 56  2  0  0  0  0
 57 54  1  0  0  0  0
 58 59  1  0  0  0  0
 58 60  1  0  0  0  0
 59 60  1  0  0  0  0
M  END
>  <MODEL>
5

>  <REMARK>
 VINA RESULT:      -6.7      2.908      9.314
  Name = 
  23 active torsions:
  status: ('A' for Active; 'I' for Inactive)
    1  A    between atoms: C_1  and  C_31
    2  A    between atoms: C_1  and  N_52
    3  A    between atoms: C_1  and  C_56
    4  A    between atoms: O_3  and  C_39
    5  A    between atoms: N_4  and  C_32
    6  A    between atoms: N_4  and  S_54
    7  A    between atoms: C_9  and  N_16
    8  A    between atoms: O_11  and  C_39
    9  A    between atoms: O_11  and  C_57
   10  A    between atoms: C_14  and  C_33
   11  A    between atoms: C_17  and  C_18
   12  A    between atoms: C_18  and  C_24
   13  A    between atoms: C_19  and  O_30
   14  A    between atoms: C_19  and  C_31
   15  A    between atoms: C_22  and  C_55
   16  A    between atoms: C_22  and  C_57
   17  A    between atoms: C_23  and  C_55
   18  A    between atoms: C_29  and  S_54
   19  A    between atoms: O_30  and  C_41
   20  A    between atoms: C_32  and  C_53
   21  A    between atoms: C_41  and  C_58
   22  A    between atoms: C_42  and  C_58
   23  A    between atoms: C_45  and  C_56
                            x       y       z     vdW  Elec       q    Type
                         _______ _______ _______ _____ _____    ______ ____

>  <TORSDO>
F 23

$$$$
=
 OpenBabel10222417433D

 60 66  0  0  1  0  0  0  0  0999 V2000
  189.2290  175.5790  136.9580 C   0  0  2  0  0  3  0  0  0  0  0  0
  190.0040  178.3300  137.1570 O   0  0  0  0  0  0  0  0  0  0  0  0
  188.8960  176.4770  138.0560 N   0  0  0  0  0  2  0  0  0  0  0  0
  189.3330  177.8370  138.1040 C   0  0  0  0  0  0  0  0  0  0  0  0
  188.9730  178.6810  139.2760 C   0  0  0  0  0  2  0  0  0  0  0  0
  188.7920  177.8380  140.4460 N   0  0  0  0  0  2  0  0  0  0  0  0
  190.3900  177.2390  140.9000 S   0  0  0  0  0  0  0  0  0  0  0  0
  191.6410  177.4360  145.5790 C   0  0  0  0  0  2  0  0  0  0  0  0
  190.7290  177.5410  144.3490 C   0  0  2  0  0  3  0  0  0  0  0  0
  188.3120  177.6180  143.8580 C   0  0  0  0  0  0  0  0  0  0  0  0
  191.8020  175.9940  146.0510 C   0  0  0  0  0  2  0  0  0  0  0  0
  191.4420  175.2250  143.7250 C   0  0  0  0  0  3  0  0  0  0  0  0
  189.7370  176.3280  142.3340 C   0  0  1  0  0  3  0  0  0  0  0  0
  192.3640  175.1620  144.9050 C   0  0  0  0  0  2  0  0  0  0  0  0
  189.3890  177.8220  144.7370 O   0  0  0  0  0  0  0  0  0  0  0  0
  190.7400  176.3330  143.4440 C   0  0  0  0  0  0  0  0  0  0  0  0
  188.4650  176.9210  142.7680 N   0  0  0  0  0  0  0  0  0  0  0  0
  185.9580  177.8340  143.0840 C   0  0  0  0  0  1  0  0  0  0  0  0
  186.9530  178.1510  144.1900 C   0  0  1  0  0  3  0  0  0  0  0  0
  187.1320  178.3570  147.8140 C   0  0  0  0  0  2  0  0  0  0  0  0
  186.4220  177.7280  145.5670 C   0  0  0  0  0  3  0  0  0  0  0  0
  185.6750  178.7180  147.6310 C   0  0  0  0  0  2  0  0  0  0  0  0
  187.5140  177.5180  146.6100 C   0  0  0  0  0  2  0  0  0  0  0  0
  185.4480  178.7430  146.1370 C   0  0  0  0  0  2  0  0  0  0  0  0
  187.9910  174.7810  136.5650 C   0  0  0  0  0  2  0  0  0  0  0  0
  186.9520  176.1560  134.9230 O   0  0  0  0  0  0  0  0  0  0  0  0
  186.8970  175.6720  136.0830 C   0  0  0  0  0  0  0  0  0  0  0  0
  185.8260  175.9600  136.9270 O   0  0  0  0  0  0  0  0  0  0  0  0
  184.5840  176.4360  136.4300 C   0  0  0  0  0  2  0  0  0  0  0  0
  184.0960  177.5790  137.2970 C   0  0  0  0  0  2  0  0  0  0  0  0
  181.2720  175.9870  138.5500 C   0  0  0  0  0  2  0  0  0  0  0  0
  182.5250  175.9180  137.9530 O   0  0  0  0  0  0  0  0  0  0  0  0
  181.0620  177.4180  138.9660 C   0  0  1  0  0  0  0  0  0  0  0  0
  183.2010  177.0590  138.4080 C   0  0  2  0  0  3  0  0  0  0  0  0
  182.2920  178.0630  138.7930 O   0  0  0  0  0  0  0  0  0  0  0  0
  180.2650  179.4740  137.9840 O   0  0  0  0  0  1  0  0  0  0  0  0
  180.0020  178.1050  138.0820 C   0  0  1  0  0  3  0  0  0  0  0  0
  179.9260  177.4980  136.6840 C   0  0  0  0  0  2  0  0  0  0  0  0
  180.6970  178.3550  135.7010 C   0  0  0  0  0  1  0  0  0  0  0  0
  179.6410  176.8080  140.7980 O   0  0  0  0  0  0  0  0  0  0  0  0
  180.6580  177.4520  140.4290 C   0  0  0  0  0  0  0  0  0  0  0  0
  181.3510  178.1960  141.3970 O   0  0  0  0  0  0  0  0  0  0  0  0
  180.7440  178.7980  142.5340 C   0  0  0  0  0  2  0  0  0  0  0  0
  180.5760  180.1650  142.3150 O   0  0  0  0  0  0  0  0  0  0  0  0
  179.3100  180.4490  142.8250 C   0  0  0  0  0  1  0  0  0  0  0  0
  190.3440  174.6350  137.3990 C   0  0  0  0  0  2  0  0  0  0  0  0
  191.9690  175.5830  135.8430 C   0  0  0  0  0  2  0  0  0  0  0  0
  194.2540  175.4880  136.7830 C   0  0  2  0  0  3  0  0  0  0  0  0
  193.8150  176.3960  134.5960 O   0  0  0  0  0  0  0  0  0  0  0  0
  191.7170  175.1240  137.0520 C   0  0  2  0  0  3  0  0  0  0  0  0
  193.1290  175.0780  138.1730 S   0  0  0  0  0  0  0  0  0  0  0  0
  193.3720  175.8820  135.6540 C   0  0  0  0  0  0  0  0  0  0  0  0
  196.1060  173.8140  137.0820 C   0  0  0  0  0  3  0  0  0  0  0  0
  196.4490  172.6700  136.3830 C   0  0  0  0  0  0  0  0  0  0  0  0
  195.0660  174.3340  136.4000 N   0  0  0  0  0  0  0  0  0  0  0  0
  194.7840  173.5530  135.3710 N   0  0  0  0  0  0  0  0  0  0  0  0
  195.6240  172.5310  135.3270 N   0  0  0  0  0  0  0  0  0  0  0  0
  198.5930  171.7350  135.5630 C   0  0  0  0  0  2  0  0  0  0  0  0
  197.5770  171.7390  136.6890 C   0  0  0  0  0  3  0  0  0  0  0  0
  198.8630  172.5320  136.8180 C   0  0  0  0  0  2  0  0  0  0  0  0
  1 25  1  1  0  0  0
  1 46  1  0  0  0  0
  1  3  1  0  0  0  0
  2  4  2  0  0  0  0
  3  4  1  0  0  0  0
  4  5  1  0  0  0  0
  5  6  1  0  0  0  0
  6  7  1  0  0  0  0
  8 11  1  0  0  0  0
  9 15  1  0  0  0  0
  9  8  1  1  0  0  0
 10 19  1  0  0  0  0
 10 15  1  0  0  0  0
 12 14  1  0  0  0  0
 13  7  1  6  0  0  0
 13 17  1  0  0  0  0
 13 16  1  0  0  0  0
 14 11  1  0  0  0  0
 16 12  2  0  0  0  0
 16  9  1  0  0  0  0
 17 10  2  0  0  0  0
 19 18  1  6  0  0  0
 19 21  1  0  0  0  0
 21 24  1  0  0  0  0
 21 23  1  0  0  0  0
 22 20  1  0  0  0  0
 23 20  1  0  0  0  0
 24 22  1  0  0  0  0
 26 27  2  0  0  0  0
 27 25  1  0  0  0  0
 27 28  1  0  0  0  0
 29 28  1  0  0  0  0
 29 30  1  0  0  0  0
 31 33  1  0  0  0  0
 32 34  1  0  0  0  0
 32 31  1  0  0  0  0
 33 41  1  1  0  0  0
 34 30  1  6  0  0  0
 34 35  1  0  0  0  0
 35 33  1  0  0  0  0
 37 36  1  6  0  0  0
 37 33  1  0  0  0  0
 38 37  1  0  0  0  0
 39 38  1  0  0  0  0
 41 40  2  0  0  0  0
 41 42  1  0  0  0  0
 42 43  1  0  0  0  0
 44 43  1  0  0  0  0
 44 45  1  0  0  0  0
 47 50  1  0  0  0  0
 48 55  1  6  0  0  0
 48 51  1  0  0  0  0
 49 52  2  0  0  0  0
 50 46  1  6  0  0  0
 50 51  1  0  0  0  0
 52 47  1  0  0  0  0
 52 48  1  0  0  0  0
 54 59  1  0  0  0  0
 54 53  2  0  0  0  0
 55 53  1  0  0  0  0
 56 55  1  0  0  0  0
 57 56  2  0  0  0  0
 57 54  1  0  0  0  0
 58 59  1  0  0  0  0
 58 60  1  0  0  0  0
 59 60  1  0  0  0  0
M  END
>  <MODEL>
6

>  <REMARK>
 VINA RESULT:      -6.5      3.060      9.561
  Name = 
  23 active torsions:
  status: ('A' for Active; 'I' for Inactive)
    1  A    between atoms: C_1  and  C_31
    2  A    between atoms: C_1  and  N_52
    3  A    between atoms: C_1  and  C_56
    4  A    between atoms: O_3  and  C_39
    5  A    between atoms: N_4  and  C_32
    6  A    between atoms: N_4  and  S_54
    7  A    between atoms: C_9  and  N_16
    8  A    between atoms: O_11  and  C_39
    9  A    between atoms: O_11  and  C_57
   10  A    between atoms: C_14  and  C_33
   11  A    between atoms: C_17  and  C_18
   12  A    between atoms: C_18  and  C_24
   13  A    between atoms: C_19  and  O_30
   14  A    between atoms: C_19  and  C_31
   15  A    between atoms: C_22  and  C_55
   16  A    between atoms: C_22  and  C_57
   17  A    between atoms: C_23  and  C_55
   18  A    between atoms: C_29  and  S_54
   19  A    between atoms: O_30  and  C_41
   20  A    between atoms: C_32  and  C_53
   21  A    between atoms: C_41  and  C_58
   22  A    between atoms: C_42  and  C_58
   23  A    between atoms: C_45  and  C_56
                            x       y       z     vdW  Elec       q    Type
                         _______ _______ _______ _____ _____    ______ ____

>  <TORSDO>
F 23

$$$$
=
 OpenBabel10222417433D

 60 66  0  0  1  0  0  0  0  0999 V2000
  188.4420  178.2450  139.8340 C   0  0  2  0  0  3  0  0  0  0  0  0
  185.7100  179.1080  139.8630 O   0  0  0  0  0  0  0  0  0  0  0  0
  187.4010  177.7990  138.9170 N   0  0  0  0  0  2  0  0  0  0  0  0
  186.0490  178.2550  138.9990 C   0  0  0  0  0  0  0  0  0  0  0  0
  185.0390  177.7290  138.0410 C   0  0  0  0  0  2  0  0  0  0  0  0
  185.6450  176.7000  137.2110 N   0  0  0  0  0  2  0  0  0  0  0  0
  185.3690  177.1670  135.5300 S   0  0  0  0  0  0  0  0  0  0  0  0
  186.7260  172.9910  137.5840 C   0  0  0  0  0  2  0  0  0  0  0  0
  185.7660  174.0560  137.0350 C   0  0  2  0  0  3  0  0  0  0  0  0
  183.4100  174.2090  136.3180 C   0  0  0  0  0  0  0  0  0  0  0  0
  187.3180  172.1280  136.4730 C   0  0  0  0  0  2  0  0  0  0  0  0
  187.0880  174.0360  134.9100 C   0  0  0  0  0  3  0  0  0  0  0  0
  185.0740  175.4480  135.0100 C   0  0  1  0  0  3  0  0  0  0  0  0
  188.0430  173.0330  135.4830 C   0  0  0  0  0  2  0  0  0  0  0  0
  184.4210  173.5910  137.0730 O   0  0  0  0  0  0  0  0  0  0  0  0
  186.0840  174.5420  135.6420 C   0  0  0  0  0  0  0  0  0  0  0  0
  183.7070  175.0450  135.3640 N   0  0  0  0  0  0  0  0  0  0  0  0
  181.8000  172.3860  136.8380 C   0  0  0  0  0  1  0  0  0  0  0  0
  181.9710  173.8710  136.5610 C   0  0  1  0  0  3  0  0  0  0  0  0
  179.1440  175.8920  137.6210 C   0  0  0  0  0  2  0  0  0  0  0  0
  181.2870  174.7300  137.6350 C   0  0  0  0  0  3  0  0  0  0  0  0
  179.1720  174.9090  138.7700 C   0  0  0  0  0  2  0  0  0  0  0  0
  180.5570  175.9460  137.0760 C   0  0  0  0  0  2  0  0  0  0  0  0
  180.2780  173.9330  138.4420 C   0  0  0  0  0  2  0  0  0  0  0  0
  189.7810  177.6570  139.4030 C   0  0  0  0  0  2  0  0  0  0  0  0
  189.8070  177.9080  137.0360 O   0  0  0  0  0  0  0  0  0  0  0  0
  189.7200  177.1210  138.0130 C   0  0  0  0  0  0  0  0  0  0  0  0
  189.5630  175.7510  137.8140 O   0  0  0  0  0  0  0  0  0  0  0  0
  190.6600  174.9080  137.4910 C   0  0  0  0  0  2  0  0  0  0  0  0
  191.0560  175.1250  136.0450 C   0  0  0  0  0  2  0  0  0  0  0  0
  193.7470  173.0640  136.8100 C   0  0  0  0  0  2  0  0  0  0  0  0
  192.3890  173.2260  136.5700 O   0  0  0  0  0  0  0  0  0  0  0  0
  194.4120  174.3720  136.4740 C   0  0  1  0  0  0  0  0  0  0  0  0
  192.3070  174.3320  135.7110 C   0  0  2  0  0  3  0  0  0  0  0  0
  193.4400  175.1570  135.8440 O   0  0  0  0  0  0  0  0  0  0  0  0
  193.8630  175.8540  138.2980 O   0  0  0  0  0  1  0  0  0  0  0  0
  194.8970  175.0930  137.7470 C   0  0  1  0  0  3  0  0  0  0  0  0
  195.4350  174.1250  138.7970 C   0  0  0  0  0  2  0  0  0  0  0  0
  196.9060  174.3890  139.0440 C   0  0  0  0  0  1  0  0  0  0  0  0
  196.1540  175.0870  134.9900 O   0  0  0  0  0  0  0  0  0  0  0  0
  195.5660  174.1090  135.5220 C   0  0  0  0  0  0  0  0  0  0  0  0
  195.9970  172.8180  135.1810 O   0  0  0  0  0  0  0  0  0  0  0  0
  197.2630  172.2730  135.5360 C   0  0  0  0  0  2  0  0  0  0  0  0
  197.1460  171.5290  136.7100 O   0  0  0  0  0  0  0  0  0  0  0  0
  198.4440  171.4620  137.2130 C   0  0  0  0  0  1  0  0  0  0  0  0
  188.0980  177.7860  141.2480 C   0  0  0  0  0  2  0  0  0  0  0  0
  189.7340  176.2450  142.2020 C   0  0  0  0  0  2  0  0  0  0  0  0
  191.1220  177.3730  143.9100 C   0  0  2  0  0  3  0  0  0  0  0  0
  191.4200  175.0460  143.3620 O   0  0  0  0  0  0  0  0  0  0  0  0
  189.3010  177.4840  142.0900 C   0  0  2  0  0  3  0  0  0  0  0  0
  190.2060  178.7110  143.0540 S   0  0  0  0  0  0  0  0  0  0  0  0
  190.8160  176.1290  143.1560 C   0  0  0  0  0  0  0  0  0  0  0  0
  189.4180  177.2880  145.7560 C   0  0  0  0  0  3  0  0  0  0  0  0
  189.5170  176.9760  147.1000 C   0  0  0  0  0  0  0  0  0  0  0  0
  190.6850  177.2350  145.2970 N   0  0  0  0  0  0  0  0  0  0  0  0
  191.4940  176.8970  146.2880 N   0  0  0  0  0  0  0  0  0  0  0  0
  190.8080  176.7440  147.4090 N   0  0  0  0  0  0  0  0  0  0  0  0
  188.3040  178.2550  148.8420 C   0  0  0  0  0  2  0  0  0  0  0  0
  188.4020  176.9390  148.0950 C   0  0  0  0  0  3  0  0  0  0  0  0
  187.3490  177.9600  147.7090 C   0  0  0  0  0  2  0  0  0  0  0  0
  1 25  1  6  0  0  0
  1 46  1  0  0  0  0
  3  4  1  0  0  0  0
  3  1  1  0  0  0  0
  4  2  2  0  0  0  0
  5  4  1  0  0  0  0
  6  5  1  0  0  0  0
  7  6  1  0  0  0  0
  9 15  1  0  0  0  0
  9  8  1  6  0  0  0
 10 19  1  0  0  0  0
 10 15  1  0  0  0  0
 11  8  1  0  0  0  0
 12 14  1  0  0  0  0
 12 16  2  0  0  0  0
 13 17  1  0  0  0  0
 13  7  1  1  0  0  0
 13 16  1  0  0  0  0
 14 11  1  0  0  0  0
 16  9  1  0  0  0  0
 17 10  2  0  0  0  0
 19 18  1  1  0  0  0
 19 21  1  0  0  0  0
 20 22  1  0  0  0  0
 21 24  1  0  0  0  0
 23 20  1  0  0  0  0
 23 21  1  0  0  0  0
 24 22  1  0  0  0  0
 26 27  2  0  0  0  0
 27 25  1  0  0  0  0
 28 27  1  0  0  0  0
 29 28  1  0  0  0  0
 30 29  1  0  0  0  0
 32 31  1  0  0  0  0
 33 41  1  6  0  0  0
 33 31  1  0  0  0  0
 33 37  1  0  0  0  0
 34 35  1  0  0  0  0
 34 30  1  1  0  0  0
 34 32  1  0  0  0  0
 35 33  1  0  0  0  0
 37 36  1  1  0  0  0
 37 38  1  0  0  0  0
 38 39  1  0  0  0  0
 40 41  2  0  0  0  0
 42 41  1  0  0  0  0
 42 43  1  0  0  0  0
 43 44  1  0  0  0  0
 44 45  1  0  0  0  0
 47 52  1  0  0  0  0
 48 55  1  1  0  0  0
 50 46  1  1  0  0  0
 50 47  1  0  0  0  0
 50 51  1  0  0  0  0
 51 48  1  0  0  0  0
 52 49  2  0  0  0  0
 52 48  1  0  0  0  0
 53 54  2  0  0  0  0
 54 57  1  0  0  0  0
 54 59  1  0  0  0  0
 55 53  1  0  0  0  0
 55 56  1  0  0  0  0
 56 57  2  0  0  0  0
 59 58  1  0  0  0  0
 60 59  1  0  0  0  0
 60 58  1  0  0  0  0
M  END
>  <MODEL>
7

>  <REMARK>
 VINA RESULT:      -6.5      2.441      8.314
  Name = 
  23 active torsions:
  status: ('A' for Active; 'I' for Inactive)
    1  A    between atoms: C_1  and  C_31
    2  A    between atoms: C_1  and  N_52
    3  A    between atoms: C_1  and  C_56
    4  A    between atoms: O_3  and  C_39
    5  A    between atoms: N_4  and  C_32
    6  A    between atoms: N_4  and  S_54
    7  A    between atoms: C_9  and  N_16
    8  A    between atoms: O_11  and  C_39
    9  A    between atoms: O_11  and  C_57
   10  A    between atoms: C_14  and  C_33
   11  A    between atoms: C_17  and  C_18
   12  A    between atoms: C_18  and  C_24
   13  A    between atoms: C_19  and  O_30
   14  A    between atoms: C_19  and  C_31
   15  A    between atoms: C_22  and  C_55
   16  A    between atoms: C_22  and  C_57
   17  A    between atoms: C_23  and  C_55
   18  A    between atoms: C_29  and  S_54
   19  A    between atoms: O_30  and  C_41
   20  A    between atoms: C_32  and  C_53
   21  A    between atoms: C_41  and  C_58
   22  A    between atoms: C_42  and  C_58
   23  A    between atoms: C_45  and  C_56
                            x       y       z     vdW  Elec       q    Type
                         _______ _______ _______ _____ _____    ______ ____

>  <TORSDO>
F 23

$$$$
=
 OpenBabel10222417433D

 60 66  0  0  1  0  0  0  0  0999 V2000
  190.6160  177.4280  140.7740 C   0  0  2  0  0  3  0  0  0  0  0  0
  188.5350  179.3610  141.1490 O   0  0  0  0  0  0  0  0  0  0  0  0
  189.2880  177.3720  140.1760 N   0  0  0  0  0  2  0  0  0  0  0  0
  188.2860  178.3620  140.4210 C   0  0  0  0  0  0  0  0  0  0  0  0
  186.9440  178.2170  139.7940 C   0  0  0  0  0  2  0  0  0  0  0  0
  185.9660  178.9750  140.5570 N   0  0  0  0  0  2  0  0  0  0  0  0
  184.4800  179.0050  139.6020 S   0  0  0  0  0  0  0  0  0  0  0  0
  180.5680  179.4570  142.4280 C   0  0  0  0  0  2  0  0  0  0  0  0
  181.4450  178.9000  141.2990 C   0  0  2  0  0  3  0  0  0  0  0  0
  181.5290  176.8990  139.8580 C   0  0  0  0  0  0  0  0  0  0  0  0
  180.9350  178.8620  143.7850 C   0  0  0  0  0  2  0  0  0  0  0  0
  183.2600  178.5580  142.9870 C   0  0  0  0  0  3  0  0  0  0  0  0
  183.6600  177.7910  140.6820 C   0  0  1  0  0  3  0  0  0  0  0  0
  182.4050  179.1520  144.0650 C   0  0  0  0  0  2  0  0  0  0  0  0
  180.8090  177.7960  140.6630 O   0  0  0  0  0  0  0  0  0  0  0  0
  182.8380  178.4970  141.7150 C   0  0  0  0  0  0  0  0  0  0  0  0
  182.8320  176.8830  139.8780 N   0  0  0  0  0  0  0  0  0  0  0  0
  179.4440  176.4290  138.5860 C   0  0  0  0  0  1  0  0  0  0  0  0
  180.8070  175.9020  139.0040 C   0  0  1  0  0  3  0  0  0  0  0  0
  180.8820  174.3640  135.7130 C   0  0  0  0  0  2  0  0  0  0  0  0
  181.6120  175.3950  137.7990 C   0  0  0  0  0  3  0  0  0  0  0  0
  181.6680  175.6190  135.4020 C   0  0  0  0  0  2  0  0  0  0  0  0
  181.0680  174.1050  137.1950 C   0  0  0  0  0  2  0  0  0  0  0  0
  181.6720  176.4220  136.6820 C   0  0  0  0  0  2  0  0  0  0  0  0
  191.6670  177.3940  139.6710 C   0  0  0  0  0  2  0  0  0  0  0  0
  191.3800  175.1560  138.9110 O   0  0  0  0  0  0  0  0  0  0  0  0
  191.3330  176.3810  138.6290 C   0  0  0  0  0  0  0  0  0  0  0  0
  190.9740  176.8050  137.3510 O   0  0  0  0  0  0  0  0  0  0  0  0
  191.5040  176.2000  136.1810 C   0  0  0  0  0  2  0  0  0  0  0  0
  191.9250  174.7780  136.4930 C   0  0  0  0  0  2  0  0  0  0  0  0
  194.0650  172.4610  135.0320 C   0  0  0  0  0  2  0  0  0  0  0  0
  192.8220  173.0790  135.0900 O   0  0  0  0  0  0  0  0  0  0  0  0
  194.9740  173.2160  135.9640 C   0  0  1  0  0  0  0  0  0  0  0  0
  193.0810  174.3580  135.6040 C   0  0  2  0  0  3  0  0  0  0  0  0
  194.2780  174.3690  136.3460 O   0  0  0  0  0  0  0  0  0  0  0  0
  194.5970  172.8730  138.3240 O   0  0  0  0  0  1  0  0  0  0  0  0
  195.3000  172.3840  137.2200 C   0  0  1  0  0  3  0  0  0  0  0  0
  194.9910  170.9010  137.0340 C   0  0  0  0  0  2  0  0  0  0  0  0
  195.1250  170.1710  138.3540 C   0  0  0  0  0  1  0  0  0  0  0  0
  196.9180  172.6920  134.6620 O   0  0  0  0  0  0  0  0  0  0  0  0
  196.2400  173.5970  135.2180 C   0  0  0  0  0  0  0  0  0  0  0  0
  196.7150  174.9150  135.1380 O   0  0  0  0  0  0  0  0  0  0  0  0
  197.6100  175.5050  136.0740 C   0  0  0  0  0  2  0  0  0  0  0  0
  198.3100  174.5090  136.7540 O   0  0  0  0  0  0  0  0  0  0  0  0
  197.7620  174.5070  138.0360 C   0  0  0  0  0  1  0  0  0  0  0  0
  190.7980  176.2360  141.7090 C   0  0  0  0  0  2  0  0  0  0  0  0
  191.5030  175.7020  143.9850 C   0  0  0  0  0  2  0  0  0  0  0  0
  191.2480  177.6610  145.4720 C   0  0  2  0  0  3  0  0  0  0  0  0
  192.0700  175.5470  146.2820 O   0  0  0  0  0  0  0  0  0  0  0  0
  191.1370  176.6230  143.1160 C   0  0  2  0  0  3  0  0  0  0  0  0
  191.0220  178.3010  143.7680 S   0  0  0  0  0  0  0  0  0  0  0  0
  191.6590  176.2420  145.3190 C   0  0  0  0  0  0  0  0  0  0  0  0
  188.7870  178.0810  145.7690 C   0  0  0  0  0  3  0  0  0  0  0  0
  187.9300  177.8800  146.8370 C   0  0  0  0  0  0  0  0  0  0  0  0
  190.0040  177.7390  146.2360 N   0  0  0  0  0  0  0  0  0  0  0  0
  189.8940  177.3410  147.4930 N   0  0  0  0  0  0  0  0  0  0  0  0
  188.6350  177.4290  147.8930 N   0  0  0  0  0  0  0  0  0  0  0  0
  186.0190  178.8770  145.6120 C   0  0  0  0  0  2  0  0  0  0  0  0
  186.4610  178.1540  146.8700 C   0  0  0  0  0  3  0  0  0  0  0  0
  185.7810  177.3910  145.7490 C   0  0  0  0  0  2  0  0  0  0  0  0
  1 25  1  6  0  0  0
  1 46  1  0  0  0  0
  3  4  1  0  0  0  0
  3  1  1  0  0  0  0
  4  2  2  0  0  0  0
  5  4  1  0  0  0  0
  5  6  1  0  0  0  0
  7  6  1  0  0  0  0
  8 11  1  0  0  0  0
  9 16  1  0  0  0  0
  9  8  1  1  0  0  0
 10 17  2  0  0  0  0
 10 15  1  0  0  0  0
 11 14  1  0  0  0  0
 12 14  1  0  0  0  0
 13  7  1  6  0  0  0
 13 16  1  0  0  0  0
 15  9  1  0  0  0  0
 16 12  2  0  0  0  0
 17 13  1  0  0  0  0
 19 18  1  6  0  0  0
 19 10  1  0  0  0  0
 20 23  1  0  0  0  0
 21 19  1  0  0  0  0
 22 20  1  0  0  0  0
 22 24  1  0  0  0  0
 23 21  1  0  0  0  0
 24 21  1  0  0  0  0
 27 26  2  0  0  0  0
 27 25  1  0  0  0  0
 28 27  1  0  0  0  0
 29 30  1  0  0  0  0
 29 28  1  0  0  0  0
 31 32  1  0  0  0  0
 31 33  1  0  0  0  0
 32 34  1  0  0  0  0
 33 41  1  6  0  0  0
 33 35  1  0  0  0  0
 33 37  1  0  0  0  0
 34 35  1  0  0  0  0
 34 30  1  1  0  0  0
 37 36  1  1  0  0  0
 38 37  1  0  0  0  0
 38 39  1  0  0  0  0
 40 41  2  0  0  0  0
 42 41  1  0  0  0  0
 42 43  1  0  0  0  0
 43 44  1  0  0  0  0
 44 45  1  0  0  0  0
 47 52  1  0  0  0  0
 48 55  1  1  0  0  0
 50 46  1  1  0  0  0
 50 51  1  0  0  0  0
 50 47  1  0  0  0  0
 51 48  1  0  0  0  0
 52 48  1  0  0  0  0
 52 49  2  0  0  0  0
 53 55  1  0  0  0  0
 53 54  2  0  0  0  0
 54 59  1  0  0  0  0
 54 57  1  0  0  0  0
 55 56  1  0  0  0  0
 56 57  2  0  0  0  0
 58 60  1  0  0  0  0
 58 59  1  0  0  0  0
 60 59  1  0  0  0  0
M  END
>  <MODEL>
8

>  <REMARK>
 VINA RESULT:      -6.5      2.333      8.117
  Name = 
  23 active torsions:
  status: ('A' for Active; 'I' for Inactive)
    1  A    between atoms: C_1  and  C_31
    2  A    between atoms: C_1  and  N_52
    3  A    between atoms: C_1  and  C_56
    4  A    between atoms: O_3  and  C_39
    5  A    between atoms: N_4  and  C_32
    6  A    between atoms: N_4  and  S_54
    7  A    between atoms: C_9  and  N_16
    8  A    between atoms: O_11  and  C_39
    9  A    between atoms: O_11  and  C_57
   10  A    between atoms: C_14  and  C_33
   11  A    between atoms: C_17  and  C_18
   12  A    between atoms: C_18  and  C_24
   13  A    between atoms: C_19  and  O_30
   14  A    between atoms: C_19  and  C_31
   15  A    between atoms: C_22  and  C_55
   16  A    between atoms: C_22  and  C_57
   17  A    between atoms: C_23  and  C_55
   18  A    between atoms: C_29  and  S_54
   19  A    between atoms: O_30  and  C_41
   20  A    between atoms: C_32  and  C_53
   21  A    between atoms: C_41  and  C_58
   22  A    between atoms: C_42  and  C_58
   23  A    between atoms: C_45  and  C_56
                            x       y       z     vdW  Elec       q    Type
                         _______ _______ _______ _____ _____    ______ ____

>  <TORSDO>
F 23

$$$$
=
 OpenBabel10222417433D

 60 66  0  0  1  0  0  0  0  0999 V2000
  190.8070  177.0630  139.7790 C   0  0  2  0  0  3  0  0  0  0  0  0
  188.9310  179.0360  138.8860 O   0  0  0  0  0  0  0  0  0  0  0  0
  189.4880  176.7900  139.2250 N   0  0  0  0  0  2  0  0  0  0  0  0
  188.5900  177.8240  138.8160 C   0  0  0  0  0  0  0  0  0  0  0  0
  187.2470  177.4620  138.2850 C   0  0  0  0  0  2  0  0  0  0  0  0
  186.3790  178.6280  138.3200 N   0  0  0  0  0  2  0  0  0  0  0  0
  184.7170  178.0320  138.3340 S   0  0  0  0  0  0  0  0  0  0  0  0
  180.2180  179.3900  139.5230 C   0  0  0  0  0  2  0  0  0  0  0  0
  181.6620  178.9180  139.7430 C   0  0  2  0  0  3  0  0  0  0  0  0
  183.2960  178.8070  141.5880 C   0  0  0  0  0  0  0  0  0  0  0  0
  180.1380  180.8960  139.2880 C   0  0  0  0  0  2  0  0  0  0  0  0
  182.4190  180.8350  138.3230 C   0  0  0  0  0  3  0  0  0  0  0  0
  184.1370  179.4150  139.3660 C   0  0  1  0  0  3  0  0  0  0  0  0
  180.9990  181.2500  138.0810 C   0  0  0  0  0  2  0  0  0  0  0  0
  181.9680  178.8600  141.1320 O   0  0  0  0  0  0  0  0  0  0  0  0
  182.7140  179.7380  139.0370 C   0  0  0  0  0  0  0  0  0  0  0  0
  184.2880  179.0770  140.7870 N   0  0  0  0  0  0  0  0  0  0  0  0
  184.6440  179.4400  143.5810 C   0  0  0  0  0  1  0  0  0  0  0  0
  183.5900  178.4950  143.0240 C   0  0  1  0  0  3  0  0  0  0  0  0
  180.2780  179.7150  143.8880 C   0  0  0  0  0  2  0  0  0  0  0  0
  182.3510  178.4320  143.9290 C   0  0  0  0  0  3  0  0  0  0  0  0
  179.9570  178.2440  143.7540 C   0  0  0  0  0  2  0  0  0  0  0  0
  181.7500  179.7970  144.2440 C   0  0  0  0  0  2  0  0  0  0  0  0
  181.2470  177.5850  143.3210 C   0  0  0  0  0  2  0  0  0  0  0  0
  191.8610  176.8650  138.6950 C   0  0  0  0  0  2  0  0  0  0  0  0
  191.1720  174.6640  138.1050 O   0  0  0  0  0  0  0  0  0  0  0  0
  191.4420  175.8270  137.7090 C   0  0  0  0  0  0  0  0  0  0  0  0
  191.3580  176.1590  136.3580 O   0  0  0  0  0  0  0  0  0  0  0  0
  192.2480  175.6160  135.3940 C   0  0  0  0  0  2  0  0  0  0  0  0
  193.0140  174.4600  136.0060 C   0  0  0  0  0  2  0  0  0  0  0  0
  196.3250  173.5590  135.4560 C   0  0  0  0  0  2  0  0  0  0  0  0
  195.0750  173.9030  134.9570 O   0  0  0  0  0  0  0  0  0  0  0  0
  196.2830  173.7880  136.9430 C   0  0  1  0  0  0  0  0  0  0  0  0
  194.5080  174.7210  135.9450 C   0  0  2  0  0  3  0  0  0  0  0  0
  195.0850  174.4640  137.2030 O   0  0  0  0  0  0  0  0  0  0  0  0
  195.3000  172.4600  138.7030 O   0  0  0  0  0  1  0  0  0  0  0  0
  196.2860  172.4520  137.7130 C   0  0  1  0  0  3  0  0  0  0  0  0
  196.0800  171.2500  136.7950 C   0  0  0  0  0  2  0  0  0  0  0  0
  196.2220  169.9640  137.5830 C   0  0  0  0  0  1  0  0  0  0  0  0
  197.8050  175.6090  136.5990 O   0  0  0  0  0  0  0  0  0  0  0  0
  197.4660  174.6520  137.3440 C   0  0  0  0  0  0  0  0  0  0  0  0
  198.2260  174.4200  138.5000 O   0  0  0  0  0  0  0  0  0  0  0  0
  198.5520  175.4160  139.4620 C   0  0  0  0  0  2  0  0  0  0  0  0
  198.3730  174.9100  140.7490 O   0  0  0  0  0  0  0  0  0  0  0  0
  197.3230  175.6590  141.2770 C   0  0  0  0  0  1  0  0  0  0  0  0
  191.0700  176.1140  140.9440 C   0  0  0  0  0  2  0  0  0  0  0  0
  191.5360  176.1830  143.3400 C   0  0  0  0  0  2  0  0  0  0  0  0
  190.3840  178.0900  144.4110 C   0  0  2  0  0  3  0  0  0  0  0  0
  191.7420  176.5530  145.6730 O   0  0  0  0  0  0  0  0  0  0  0  0
  191.0220  176.7820  142.2840 C   0  0  2  0  0  3  0  0  0  0  0  0
  190.2310  178.3700  142.6050 S   0  0  0  0  0  0  0  0  0  0  0  0
  191.2790  176.9140  144.5620 C   0  0  0  0  0  0  0  0  0  0  0  0
  188.6280  178.2490  146.2040 C   0  0  0  0  0  3  0  0  0  0  0  0
  187.3150  177.8200  146.2610 C   0  0  0  0  0  0  0  0  0  0  0  0
  189.0830  177.8070  145.0150 N   0  0  0  0  0  0  0  0  0  0  0  0
  188.1100  177.1680  144.3860 N   0  0  0  0  0  0  0  0  0  0  0  0
  187.0170  177.1490  145.1310 N   0  0  0  0  0  0  0  0  0  0  0  0
  186.0580  179.4750  147.6120 C   0  0  0  0  0  2  0  0  0  0  0  0
  186.3610  178.0050  147.3970 C   0  0  0  0  0  3  0  0  0  0  0  0
  185.0680  178.6020  146.8760 C   0  0  0  0  0  2  0  0  0  0  0  0
  1 25  1  6  0  0  0
  1 46  1  0  0  0  0
  3  1  1  0  0  0  0
  4  2  2  0  0  0  0
  4  3  1  0  0  0  0
  5  6  1  0  0  0  0
  5  4  1  0  0  0  0
  6  7  1  0  0  0  0
  9  8  1  1  0  0  0
  9 15  1  0  0  0  0
 10 19  1  0  0  0  0
 11  8  1  0  0  0  0
 12 16  2  0  0  0  0
 13  7  1  6  0  0  0
 13 17  1  0  0  0  0
 14 12  1  0  0  0  0
 14 11  1  0  0  0  0
 15 10  1  0  0  0  0
 16 13  1  0  0  0  0
 16  9  1  0  0  0  0
 17 10  2  0  0  0  0
 19 18  1  1  0  0  0
 19 21  1  0  0  0  0
 20 23  1  0  0  0  0
 21 23  1  0  0  0  0
 22 20  1  0  0  0  0
 24 22  1  0  0  0  0
 24 21  1  0  0  0  0
 27 26  2  0  0  0  0
 27 25  1  0  0  0  0
 28 27  1  0  0  0  0
 29 30  1  0  0  0  0
 29 28  1  0  0  0  0
 31 33  1  0  0  0  0
 32 31  1  0  0  0  0
 32 34  1  0  0  0  0
 33 35  1  0  0  0  0
 33 41  1  1  0  0  0
 33 37  1  0  0  0  0
 34 30  1  1  0  0  0
 34 35  1  0  0  0  0
 37 36  1  1  0  0  0
 38 39  1  0  0  0  0
 38 37  1  0  0  0  0
 40 41  2  0  0  0  0
 41 42  1  0  0  0  0
 42 43  1  0  0  0  0
 43 44  1  0  0  0  0
 44 45  1  0  0  0  0
 47 52  1  0  0  0  0
 48 52  1  0  0  0  0
 48 55  1  6  0  0  0
 50 46  1  1  0  0  0
 50 51  1  0  0  0  0
 50 47  1  0  0  0  0
 51 48  1  0  0  0  0
 52 49  2  0  0  0  0
 53 54  2  0  0  0  0
 54 59  1  0  0  0  0
 55 53  1  0  0  0  0
 56 55  1  0  0  0  0
 56 57  2  0  0  0  0
 57 54  1  0  0  0  0
 59 58  1  0  0  0  0
 60 59  1  0  0  0  0
 60 58  1  0  0  0  0
M  END
>  <MODEL>
9

>  <REMARK>
 VINA RESULT:      -6.4      3.045      7.875
  Name = 
  23 active torsions:
  status: ('A' for Active; 'I' for Inactive)
    1  A    between atoms: C_1  and  C_31
    2  A    between atoms: C_1  and  N_52
    3  A    between atoms: C_1  and  C_56
    4  A    between atoms: O_3  and  C_39
    5  A    between atoms: N_4  and  C_32
    6  A    between atoms: N_4  and  S_54
    7  A    between atoms: C_9  and  N_16
    8  A    between atoms: O_11  and  C_39
    9  A    between atoms: O_11  and  C_57
   10  A    between atoms: C_14  and  C_33
   11  A    between atoms: C_17  and  C_18
   12  A    between atoms: C_18  and  C_24
   13  A    between atoms: C_19  and  O_30
   14  A    between atoms: C_19  and  C_31
   15  A    between atoms: C_22  and  C_55
   16  A    between atoms: C_22  and  C_57
   17  A    between atoms: C_23  and  C_55
   18  A    between atoms: C_29  and  S_54
   19  A    between atoms: O_30  and  C_41
   20  A    between atoms: C_32  and  C_53
   21  A    between atoms: C_41  and  C_58
   22  A    between atoms: C_42  and  C_58
   23  A    between atoms: C_45  and  C_56
                            x       y       z     vdW  Elec       q    Type
                         _______ _______ _______ _____ _____    ______ ____

>  <TORSDO>
F 23

$$$$
