=
 OpenBabel10222421103D

 29 31  0  0  1  0  0  0  0  0999 V2000
  185.5580  178.7840  140.3960 N   0  0  0  0  0  0  0  0  0  0  0  0
  188.4130  178.4170  140.2400 C   0  0  0  0  0  2  0  0  0  0  0  0
  185.6370  179.0020  142.7870 O   0  0  0  0  0  0  0  0  0  0  0  0
  186.1840  178.3660  139.2000 N   0  0  0  0  0  0  0  0  0  0  0  0
  186.3630  179.1280  141.5700 C   0  0  1  0  0  3  0  0  0  0  0  0
  187.0240  177.1980  143.5990 C   0  0  2  0  0  3  0  0  0  0  0  0
  187.9340  177.4130  142.4280 C   0  0  0  0  0  3  0  0  0  0  0  0
  187.4730  178.1770  139.0860 C   0  0  0  0  0  0  0  0  0  0  0  0
  185.6150  177.6530  143.2040 C   0  0  0  0  0  2  0  0  0  0  0  0
  187.6610  178.3610  141.5240 C   0  0  0  0  0  0  0  0  0  0  0  0
  183.3620  177.7610  140.7510 C   0  0  0  0  0  2  0  0  0  0  0  0
  184.2340  180.8520  138.8350 O   0  0  0  0  0  1  0  0  0  0  0  0
  181.8610  178.0070  140.6400 C   0  0  0  0  0  2  0  0  0  0  0  0
  182.1410  179.7270  139.0350 C   0  0  0  0  0  2  0  0  0  0  0  0
  181.5260  178.4250  139.2790 N   0  0  0  0  0  0  0  0  0  0  0  0
  184.1210  179.0400  140.4000 C   0  0  2  0  0  3  0  0  0  0  0  0
  183.6620  179.5980  139.0490 C   0  0  2  0  0  3  0  0  0  0  0  0
  180.0860  178.6280  139.2380 C   0  0  0  0  0  2  0  0  0  0  0  0
  179.7510  180.0910  139.4790 C   0  0  0  0  0  2  0  0  0  0  0  0
  178.9340  180.2410  140.7480 C   0  0  0  0  0  2  0  0  0  0  0  0
  179.7330  180.9050  141.7620 N   0  0  0  0  0  2  0  0  0  0  0  0
  179.6050  180.1160  142.9740 C   0  0  0  0  0  1  0  0  0  0  0  0
  187.5420  177.9750  144.8040 C   0  0  0  0  0  2  0  0  0  0  0  0
  189.0450  177.8010  144.9750 C   0  0  0  0  0  2  0  0  0  0  0  0
  188.1910  177.5470  147.3060 C   0  0  0  0  0  1  0  0  0  0  0  0
  189.4130  177.4640  146.4120 C   0  0  0  0  0  2  0  0  0  0  0  0
  188.0210  177.7670  137.8670 O   0  0  0  0  0  0  0  0  0  0  0  0
  190.2590  177.0290  137.3440 C   0  0  0  0  0  1  0  0  0  0  0  0
  189.2980  178.2010  137.4100 C   0  0  0  0  0  2  0  0  0  0  0  0
  1  5  1  0  0  0  0
  2 10  1  0  0  0  0
  3  9  1  0  0  0  0
  4  1  1  0  0  0  0
  5 10  1  1  0  0  0
  5  3  1  0  0  0  0
  6 23  1  1  0  0  0
  7  6  1  0  0  0  0
  8  4  2  0  0  0  0
  8  2  1  0  0  0  0
  9  6  1  0  0  0  0
 10  7  2  0  0  0  0
 13 11  1  0  0  0  0
 14 17  1  0  0  0  0
 14 15  1  0  0  0  0
 15 13  1  0  0  0  0
 16  1  1  6  0  0  0
 16 11  1  0  0  0  0
 17 12  1  1  0  0  0
 17 16  1  0  0  0  0
 18 15  1  0  0  0  0
 18 19  1  0  0  0  0
 19 20  1  0  0  0  0
 20 21  1  0  0  0  0
 21 22  1  0  0  0  0
 23 24  1  0  0  0  0
 24 26  1  0  0  0  0
 26 25  1  0  0  0  0
 27  8  1  0  0  0  0
 28 29  1  0  0  0  0
 29 27  1  0  0  0  0
M  END
>  <MODEL>
1

>  <REMARK>
 VINA RESULT:      -6.5      0.000      0.000
  Name = 
  10 active torsions:
  status: ('A' for Active; 'I' for Inactive)
    1  A    between atoms: N_1  and  C_15
    2  A    between atoms: C_6  and  C_18
    3  A    between atoms: C_6  and  N_22
    4  A    between atoms: C_9  and  C_11
    5  A    between atoms: C_11  and  C_23
    6  A    between atoms: N_14  and  C_29
    7  A    between atoms: C_17  and  C_23
    8  A    between atoms: C_18  and  C_29
    9  A    between atoms: C_20  and  O_27
   10  A    between atoms: O_27  and  C_28
                            x       y       z     vdW  Elec       q    Type
                         _______ _______ _______ _____ _____    ______ ____

>  <TORSDO>
F 10

$$$$
=
 OpenBabel10222421103D

 29 31  0  0  1  0  0  0  0  0999 V2000
  189.5760  177.4410  144.6830 N   0  0  0  0  0  0  0  0  0  0  0  0
  189.3680  177.1990  147.5480 C   0  0  0  0  0  2  0  0  0  0  0  0
  187.5270  178.6890  144.5610 O   0  0  0  0  0  0  0  0  0  0  0  0
  190.4210  176.5750  145.4130 N   0  0  0  0  0  0  0  0  0  0  0  0
  188.6250  178.3080  145.3820 C   0  0  1  0  0  3  0  0  0  0  0  0
  185.9140  177.5030  145.9120 C   0  0  2  0  0  3  0  0  0  0  0  0
  186.9980  177.2320  146.9110 C   0  0  0  0  0  3  0  0  0  0  0  0
  190.3560  176.4260  146.7110 C   0  0  0  0  0  0  0  0  0  0  0  0
  186.5600  177.6620  144.5320 C   0  0  0  0  0  2  0  0  0  0  0  0
  188.2430  177.6700  146.6940 C   0  0  0  0  0  0  0  0  0  0  0  0
  188.9410  176.5650  142.4860 C   0  0  0  0  0  2  0  0  0  0  0  0
  191.9780  178.5240  143.4490 O   0  0  0  0  0  1  0  0  0  0  0  0
  189.2460  176.6550  140.9940 C   0  0  0  0  0  2  0  0  0  0  0  0
  191.4300  177.4930  141.3700 C   0  0  0  0  0  2  0  0  0  0  0  0
  190.6690  176.4040  140.7630 N   0  0  0  0  0  0  0  0  0  0  0  0
  189.7790  177.5940  143.2460 C   0  0  2  0  0  3  0  0  0  0  0  0
  191.2630  177.4660  142.8870 C   0  0  2  0  0  3  0  0  0  0  0  0
  190.8890  176.4900  139.3270 C   0  0  0  0  0  2  0  0  0  0  0  0
  189.5850  176.7980  138.6100 C   0  0  0  0  0  2  0  0  0  0  0  0
  189.7460  178.0210  137.7270 C   0  0  0  0  0  2  0  0  0  0  0  0
  188.5470  178.8330  137.8020 N   0  0  0  0  0  2  0  0  0  0  0  0
  187.4450  177.9250  138.0640 C   0  0  0  0  0  1  0  0  0  0  0  0
  185.1450  178.7580  146.3130 C   0  0  0  0  0  2  0  0  0  0  0  0
  183.7580  178.7840  145.6850 C   0  0  0  0  0  2  0  0  0  0  0  0
  182.6290  178.9760  143.4670 C   0  0  0  0  0  1  0  0  0  0  0  0
  183.7640  179.4840  144.3350 C   0  0  0  0  0  2  0  0  0  0  0  0
  191.2300  175.5530  147.3670 O   0  0  0  0  0  0  0  0  0  0  0  0
  193.1000  175.9380  148.8420 C   0  0  0  0  0  1  0  0  0  0  0  0
  192.6380  175.7580  147.4080 C   0  0  0  0  0  2  0  0  0  0  0  0
  1  5  1  0  0  0  0
  1  4  1  0  0  0  0
  4  8  2  0  0  0  0
  5  3  1  6  0  0  0
  5 10  1  0  0  0  0
  6 23  1  1  0  0  0
  6  7  1  0  0  0  0
  8 27  1  0  0  0  0
  8  2  1  0  0  0  0
  9  3  1  0  0  0  0
  9  6  1  0  0  0  0
 10  7  2  0  0  0  0
 10  2  1  0  0  0  0
 13 11  1  0  0  0  0
 14 17  1  0  0  0  0
 15 13  1  0  0  0  0
 15 14  1  0  0  0  0
 16 11  1  6  0  0  0
 16  1  1  0  0  0  0
 17 16  1  0  0  0  0
 17 12  1  1  0  0  0
 18 15  1  0  0  0  0
 19 18  1  0  0  0  0
 20 21  1  0  0  0  0
 20 19  1  0  0  0  0
 21 22  1  0  0  0  0
 24 23  1  0  0  0  0
 25 26  1  0  0  0  0
 26 24  1  0  0  0  0
 27 29  1  0  0  0  0
 29 28  1  0  0  0  0
M  END
>  <MODEL>
2

>  <REMARK>
 VINA RESULT:      -6.5      3.979      7.943
  Name = 
  10 active torsions:
  status: ('A' for Active; 'I' for Inactive)
    1  A    between atoms: N_1  and  C_15
    2  A    between atoms: C_6  and  C_18
    3  A    between atoms: C_6  and  N_22
    4  A    between atoms: C_9  and  C_11
    5  A    between atoms: C_11  and  C_23
    6  A    between atoms: N_14  and  C_29
    7  A    between atoms: C_17  and  C_23
    8  A    between atoms: C_18  and  C_29
    9  A    between atoms: C_20  and  O_27
   10  A    between atoms: O_27  and  C_28
                            x       y       z     vdW  Elec       q    Type
                         _______ _______ _______ _____ _____    ______ ____

>  <TORSDO>
F 10

$$$$
=
 OpenBabel10222421103D

 29 31  0  0  1  0  0  0  0  0999 V2000
  189.5940  177.4490  144.7270 N   0  0  0  0  0  0  0  0  0  0  0  0
  189.2930  177.2110  147.5840 C   0  0  0  0  0  2  0  0  0  0  0  0
  187.5340  178.6680  144.5320 O   0  0  0  0  0  0  0  0  0  0  0  0
  190.4260  176.5970  145.4890 N   0  0  0  0  0  0  0  0  0  0  0  0
  188.6080  178.3050  145.3900 C   0  0  1  0  0  3  0  0  0  0  0  0
  185.8930  177.4630  145.8310 C   0  0  2  0  0  3  0  0  0  0  0  0
  186.9460  177.2100  146.8670 C   0  0  0  0  0  3  0  0  0  0  0  0
  190.3190  176.4500  146.7840 C   0  0  0  0  0  0  0  0  0  0  0  0
  186.5830  177.6270  144.4730 C   0  0  0  0  0  2  0  0  0  0  0  0
  188.1910  177.6650  146.6910 C   0  0  0  0  0  0  0  0  0  0  0  0
  189.1310  176.4930  142.5210 C   0  0  0  0  0  2  0  0  0  0  0  0
  191.9440  178.7200  143.5760 O   0  0  0  0  0  1  0  0  0  0  0  0
  189.4900  176.5900  141.0420 C   0  0  0  0  0  2  0  0  0  0  0  0
  191.5760  177.6200  141.4930 C   0  0  0  0  0  2  0  0  0  0  0  0
  190.9370  176.4610  140.8720 N   0  0  0  0  0  0  0  0  0  0  0  0
  189.8440  177.6000  143.2970 C   0  0  2  0  0  3  0  0  0  0  0  0
  191.3470  177.5970  143.0020 C   0  0  2  0  0  3  0  0  0  0  0  0
  191.2090  176.5480  139.4460 C   0  0  0  0  0  2  0  0  0  0  0  0
  189.9200  176.7700  138.6740 C   0  0  0  0  0  2  0  0  0  0  0  0
  189.8010  175.7620  137.5470 C   0  0  0  0  0  2  0  0  0  0  0  0
  190.7000  174.6500  137.7950 N   0  0  0  0  0  2  0  0  0  0  0  0
  190.3360  173.6040  136.8570 C   0  0  0  0  0  1  0  0  0  0  0  0
  185.0940  178.7080  146.2020 C   0  0  0  0  0  2  0  0  0  0  0  0
  184.4400  179.3350  144.9760 C   0  0  0  0  0  2  0  0  0  0  0  0
  182.6400  178.9530  143.2910 C   0  0  0  0  0  1  0  0  0  0  0  0
  183.0400  178.7900  144.7440 C   0  0  0  0  0  2  0  0  0  0  0  0
  191.1820  175.5910  147.4710 O   0  0  0  0  0  0  0  0  0  0  0  0
  193.1300  175.9590  148.8470 C   0  0  0  0  0  1  0  0  0  0  0  0
  192.5980  175.7360  147.4440 C   0  0  0  0  0  2  0  0  0  0  0  0
  1  5  1  0  0  0  0
  1  4  1  0  0  0  0
  4  8  2  0  0  0  0
  5  3  1  6  0  0  0
  5 10  1  0  0  0  0
  6 23  1  1  0  0  0
  6  7  1  0  0  0  0
  8 27  1  0  0  0  0
  8  2  1  0  0  0  0
  9  3  1  0  0  0  0
  9  6  1  0  0  0  0
 10  7  2  0  0  0  0
 10  2  1  0  0  0  0
 13 11  1  0  0  0  0
 14 17  1  0  0  0  0
 15 13  1  0  0  0  0
 15 14  1  0  0  0  0
 16 11  1  6  0  0  0
 16  1  1  0  0  0  0
 17 16  1  0  0  0  0
 17 12  1  1  0  0  0
 18 15  1  0  0  0  0
 19 18  1  0  0  0  0
 20 21  1  0  0  0  0
 20 19  1  0  0  0  0
 22 21  1  0  0  0  0
 24 23  1  0  0  0  0
 25 26  1  0  0  0  0
 26 24  1  0  0  0  0
 29 27  1  0  0  0  0
 29 28  1  0  0  0  0
M  END
>  <MODEL>
3

>  <REMARK>
 VINA RESULT:      -6.5      4.428      8.435
  Name = 
  10 active torsions:
  status: ('A' for Active; 'I' for Inactive)
    1  A    between atoms: N_1  and  C_15
    2  A    between atoms: C_6  and  C_18
    3  A    between atoms: C_6  and  N_22
    4  A    between atoms: C_9  and  C_11
    5  A    between atoms: C_11  and  C_23
    6  A    between atoms: N_14  and  C_29
    7  A    between atoms: C_17  and  C_23
    8  A    between atoms: C_18  and  C_29
    9  A    between atoms: C_20  and  O_27
   10  A    between atoms: O_27  and  C_28
                            x       y       z     vdW  Elec       q    Type
                         _______ _______ _______ _____ _____    ______ ____

>  <TORSDO>
F 10

$$$$
=
 OpenBabel10222421103D

 29 31  0  0  1  0  0  0  0  0999 V2000
  190.2620  176.8010  139.2870 N   0  0  0  0  0  0  0  0  0  0  0  0
  187.8490  178.2650  139.8690 C   0  0  0  0  0  2  0  0  0  0  0  0
  190.4430  176.0410  141.5580 O   0  0  0  0  0  0  0  0  0  0  0  0
  189.7100  177.7120  138.3580 N   0  0  0  0  0  0  0  0  0  0  0  0
  189.5660  176.5120  140.5420 C   0  0  1  0  0  3  0  0  0  0  0  0
  190.0930  177.9750  142.9630 C   0  0  2  0  0  3  0  0  0  0  0  0
  189.0200  178.4260  142.0200 C   0  0  0  0  0  3  0  0  0  0  0  0
  188.6230  178.4050  138.5840 C   0  0  0  0  0  0  0  0  0  0  0  0
  191.0990  177.1260  142.1780 C   0  0  0  0  0  2  0  0  0  0  0  0
  188.7290  177.7050  140.9310 C   0  0  0  0  0  0  0  0  0  0  0  0
  192.6590  176.9300  138.8010 C   0  0  0  0  0  2  0  0  0  0  0  0
  190.1900  174.3150  137.7770 O   0  0  0  0  0  1  0  0  0  0  0  0
  193.8540  176.1280  138.2960 C   0  0  0  0  0  2  0  0  0  0  0  0
  192.4780  174.5700  137.1580 C   0  0  0  0  0  2  0  0  0  0  0  0
  193.5470  175.5520  136.9870 N   0  0  0  0  0  0  0  0  0  0  0  0
  191.4360  176.0190  138.9100 C   0  0  2  0  0  3  0  0  0  0  0  0
  191.1930  175.2680  137.5980 C   0  0  2  0  0  3  0  0  0  0  0  0
  194.7260  174.8160  136.5590 C   0  0  0  0  0  2  0  0  0  0  0  0
  195.5900  174.4560  137.7560 C   0  0  0  0  0  2  0  0  0  0  0  0
  197.0570  174.4810  137.3740 C   0  0  0  0  0  2  0  0  0  0  0  0
  197.8080  175.1980  138.3860 N   0  0  0  0  0  2  0  0  0  0  0  0
  197.2290  174.8370  139.6680 C   0  0  0  0  0  1  0  0  0  0  0  0
  189.4730  177.1820  144.1090 C   0  0  0  0  0  2  0  0  0  0  0  0
  189.5240  177.9610  145.4170 C   0  0  0  0  0  2  0  0  0  0  0  0
  187.0860  177.4500  145.2670 C   0  0  0  0  0  1  0  0  0  0  0  0
  188.2210  177.8450  146.1920 C   0  0  0  0  0  2  0  0  0  0  0  0
  188.1330  179.2850  137.6140 O   0  0  0  0  0  0  0  0  0  0  0  0
  186.4640  177.8610  136.6090 C   0  0  0  0  0  1  0  0  0  0  0  0
  187.5960  178.8430  136.3720 C   0  0  0  0  0  2  0  0  0  0  0  0
  1  5  1  0  0  0  0
  2 10  1  0  0  0  0
  3  9  1  0  0  0  0
  4  8  2  0  0  0  0
  4  1  1  0  0  0  0
  5 10  1  1  0  0  0
  5  3  1  0  0  0  0
  6 23  1  1  0  0  0
  7  6  1  0  0  0  0
  8  2  1  0  0  0  0
  9  6  1  0  0  0  0
 10  7  2  0  0  0  0
 13 11  1  0  0  0  0
 14 17  1  0  0  0  0
 15 14  1  0  0  0  0
 15 13  1  0  0  0  0
 16 11  1  6  0  0  0
 16  1  1  0  0  0  0
 17 12  1  1  0  0  0
 17 16  1  0  0  0  0
 18 15  1  0  0  0  0
 18 19  1  0  0  0  0
 20 19  1  0  0  0  0
 20 21  1  0  0  0  0
 21 22  1  0  0  0  0
 23 24  1  0  0  0  0
 24 26  1  0  0  0  0
 25 26  1  0  0  0  0
 27  8  1  0  0  0  0
 29 28  1  0  0  0  0
 29 27  1  0  0  0  0
M  END
>  <MODEL>
4

>  <REMARK>
 VINA RESULT:      -6.3      4.850      9.378
  Name = 
  10 active torsions:
  status: ('A' for Active; 'I' for Inactive)
    1  A    between atoms: N_1  and  C_15
    2  A    between atoms: C_6  and  C_18
    3  A    between atoms: C_6  and  N_22
    4  A    between atoms: C_9  and  C_11
    5  A    between atoms: C_11  and  C_23
    6  A    between atoms: N_14  and  C_29
    7  A    between atoms: C_17  and  C_23
    8  A    between atoms: C_18  and  C_29
    9  A    between atoms: C_20  and  O_27
   10  A    between atoms: O_27  and  C_28
                            x       y       z     vdW  Elec       q    Type
                         _______ _______ _______ _____ _____    ______ ____

>  <TORSDO>
F 10

$$$$
=
 OpenBabel10222421103D

 29 31  0  0  1  0  0  0  0  0999 V2000
  189.7520  176.9520  140.7520 N   0  0  0  0  0  0  0  0  0  0  0  0
  187.4860  177.9210  142.2460 C   0  0  0  0  0  2  0  0  0  0  0  0
  190.8280  176.1570  142.7480 O   0  0  0  0  0  0  0  0  0  0  0  0
  188.7730  177.7780  140.1550 N   0  0  0  0  0  0  0  0  0  0  0  0
  189.5900  176.4940  142.1340 C   0  0  1  0  0  3  0  0  0  0  0  0
  190.6770  177.9410  144.3700 C   0  0  2  0  0  3  0  0  0  0  0  0
  189.2860  178.2190  143.8880 C   0  0  0  0  0  3  0  0  0  0  0  0
  187.7350  178.2490  140.7960 C   0  0  0  0  0  0  0  0  0  0  0  0
  191.4730  177.3230  143.2160 C   0  0  0  0  0  2  0  0  0  0  0  0
  188.7570  177.4960  142.8940 C   0  0  0  0  0  0  0  0  0  0  0  0
  192.0420  177.3510  139.9810 C   0  0  0  0  0  2  0  0  0  0  0  0
  189.3850  175.2090  138.4520 O   0  0  0  0  0  1  0  0  0  0  0  0
  193.1230  176.8450  139.0320 C   0  0  0  0  0  2  0  0  0  0  0  0
  191.5490  175.7690  137.6240 C   0  0  0  0  0  2  0  0  0  0  0  0
  192.5980  176.7860  137.6680 N   0  0  0  0  0  0  0  0  0  0  0  0
  190.8340  176.4160  139.9310 C   0  0  2  0  0  3  0  0  0  0  0  0
  190.3670  176.1990  138.4880 C   0  0  2  0  0  3  0  0  0  0  0  0
  193.6770  176.3120  136.8150 C   0  0  0  0  0  2  0  0  0  0  0  0
  194.0920  174.9070  137.2200 C   0  0  0  0  0  2  0  0  0  0  0  0
  195.5420  174.6600  136.8490 C   0  0  0  0  0  2  0  0  0  0  0  0
  196.3830  174.8840  138.0100 N   0  0  0  0  0  2  0  0  0  0  0  0
  195.8150  174.1010  139.0930 C   0  0  0  0  0  1  0  0  0  0  0  0
  190.6280  177.0060  145.5740 C   0  0  0  0  0  2  0  0  0  0  0  0
  189.3350  177.1780  146.3600 C   0  0  0  0  0  2  0  0  0  0  0  0
  188.3330  177.9740  148.5030 C   0  0  0  0  0  1  0  0  0  0  0  0
  189.6040  177.5050  147.8210 C   0  0  0  0  0  2  0  0  0  0  0  0
  186.8040  179.0570  140.1360 O   0  0  0  0  0  0  0  0  0  0  0  0
  184.4270  179.1190  139.7270 C   0  0  0  0  0  1  0  0  0  0  0  0
  185.7640  178.5280  139.3210 C   0  0  0  0  0  2  0  0  0  0  0  0
  1  5  1  0  0  0  0
  2 10  1  0  0  0  0
  3  9  1  0  0  0  0
  4  1  1  0  0  0  0
  4  8  2  0  0  0  0
  5  3  1  1  0  0  0
  5 10  1  0  0  0  0
  6 23  1  1  0  0  0
  7  6  1  0  0  0  0
  8  2  1  0  0  0  0
  9  6  1  0  0  0  0
 10  7  2  0  0  0  0
 13 11  1  0  0  0  0
 14 15  1  0  0  0  0
 14 17  1  0  0  0  0
 15 13  1  0  0  0  0
 16 11  1  6  0  0  0
 16  1  1  0  0  0  0
 17 12  1  1  0  0  0
 17 16  1  0  0  0  0
 18 19  1  0  0  0  0
 18 15  1  0  0  0  0
 20 19  1  0  0  0  0
 20 21  1  0  0  0  0
 21 22  1  0  0  0  0
 23 24  1  0  0  0  0
 24 26  1  0  0  0  0
 26 25  1  0  0  0  0
 27  8  1  0  0  0  0
 29 28  1  0  0  0  0
 29 27  1  0  0  0  0
M  END
>  <MODEL>
5

>  <REMARK>
 VINA RESULT:      -6.3      3.765      8.786
  Name = 
  10 active torsions:
  status: ('A' for Active; 'I' for Inactive)
    1  A    between atoms: N_1  and  C_15
    2  A    between atoms: C_6  and  C_18
    3  A    between atoms: C_6  and  N_22
    4  A    between atoms: C_9  and  C_11
    5  A    between atoms: C_11  and  C_23
    6  A    between atoms: N_14  and  C_29
    7  A    between atoms: C_17  and  C_23
    8  A    between atoms: C_18  and  C_29
    9  A    between atoms: C_20  and  O_27
   10  A    between atoms: O_27  and  C_28
                            x       y       z     vdW  Elec       q    Type
                         _______ _______ _______ _____ _____    ______ ____

>  <TORSDO>
F 10

$$$$
=
 OpenBabel10222421103D

 29 31  0  0  1  0  0  0  0  0999 V2000
  185.5880  178.6480  140.4350 N   0  0  0  0  0  0  0  0  0  0  0  0
  188.4570  178.4180  140.2930 C   0  0  0  0  0  2  0  0  0  0  0  0
  185.6430  178.8590  142.8270 O   0  0  0  0  0  0  0  0  0  0  0  0
  186.2390  178.2650  139.2400 N   0  0  0  0  0  0  0  0  0  0  0  0
  186.3690  179.0250  141.6150 C   0  0  1  0  0  3  0  0  0  0  0  0
  187.1100  177.1190  143.6390 C   0  0  2  0  0  3  0  0  0  0  0  0
  188.0150  177.3830  142.4740 C   0  0  0  0  0  3  0  0  0  0  0  0
  187.5360  178.1380  139.1330 C   0  0  0  0  0  0  0  0  0  0  0  0
  185.6830  177.5090  143.2380 C   0  0  0  0  0  2  0  0  0  0  0  0
  187.7020  178.3200  141.5720 C   0  0  0  0  0  0  0  0  0  0  0  0
  183.4400  177.5070  140.7190 C   0  0  0  0  0  2  0  0  0  0  0  0
  184.1820  180.7150  138.9460 O   0  0  0  0  0  1  0  0  0  0  0  0
  181.9290  177.6870  140.6000 C   0  0  0  0  0  2  0  0  0  0  0  0
  182.1440  179.4840  139.0720 C   0  0  0  0  0  2  0  0  0  0  0  0
  181.5890  178.1450  139.2530 N   0  0  0  0  0  0  0  0  0  0  0  0
  184.1400  178.8350  140.4320 C   0  0  2  0  0  3  0  0  0  0  0  0
  183.6690  179.4270  139.0990 C   0  0  2  0  0  3  0  0  0  0  0  0
  180.1410  178.2820  139.2030 C   0  0  0  0  0  2  0  0  0  0  0  0
  179.4780  176.9170  139.2900 C   0  0  0  0  0  2  0  0  0  0  0  0
  179.6140  176.1800  137.9720 C   0  0  0  0  0  2  0  0  0  0  0  0
  179.6640  174.7510  138.2190 N   0  0  0  0  0  2  0  0  0  0  0  0
  180.0220  174.5840  139.6170 C   0  0  0  0  0  1  0  0  0  0  0  0
  187.5830  177.9160  144.8510 C   0  0  0  0  0  2  0  0  0  0  0  0
  189.0750  177.7280  145.0910 C   0  0  0  0  0  2  0  0  0  0  0  0
  188.2160  177.4920  147.4220 C   0  0  0  0  0  1  0  0  0  0  0  0
  189.3560  177.1660  146.4760 C   0  0  0  0  0  2  0  0  0  0  0  0
  188.1110  177.7600  137.9160 O   0  0  0  0  0  0  0  0  0  0  0  0
  190.4260  177.1560  137.6000 C   0  0  0  0  0  1  0  0  0  0  0  0
  189.3750  178.2440  137.4750 C   0  0  0  0  0  2  0  0  0  0  0  0
  1  5  1  0  0  0  0
  2 10  1  0  0  0  0
  3  9  1  0  0  0  0
  4  1  1  0  0  0  0
  5 10  1  1  0  0  0
  5  3  1  0  0  0  0
  6 23  1  1  0  0  0
  7  6  1  0  0  0  0
  8  4  2  0  0  0  0
  8  2  1  0  0  0  0
  9  6  1  0  0  0  0
 10  7  2  0  0  0  0
 13 11  1  0  0  0  0
 14 17  1  0  0  0  0
 14 15  1  0  0  0  0
 15 13  1  0  0  0  0
 16  1  1  6  0  0  0
 16 11  1  0  0  0  0
 17 12  1  1  0  0  0
 17 16  1  0  0  0  0
 18 15  1  0  0  0  0
 18 19  1  0  0  0  0
 20 21  1  0  0  0  0
 20 19  1  0  0  0  0
 21 22  1  0  0  0  0
 23 24  1  0  0  0  0
 24 26  1  0  0  0  0
 26 25  1  0  0  0  0
 27  8  1  0  0  0  0
 29 28  1  0  0  0  0
 29 27  1  0  0  0  0
M  END
>  <MODEL>
6

>  <REMARK>
 VINA RESULT:      -6.1      1.266      2.103
  Name = 
  10 active torsions:
  status: ('A' for Active; 'I' for Inactive)
    1  A    between atoms: N_1  and  C_15
    2  A    between atoms: C_6  and  C_18
    3  A    between atoms: C_6  and  N_22
    4  A    between atoms: C_9  and  C_11
    5  A    between atoms: C_11  and  C_23
    6  A    between atoms: N_14  and  C_29
    7  A    between atoms: C_17  and  C_23
    8  A    between atoms: C_18  and  C_29
    9  A    between atoms: C_20  and  O_27
   10  A    between atoms: O_27  and  C_28
                            x       y       z     vdW  Elec       q    Type
                         _______ _______ _______ _____ _____    ______ ____

>  <TORSDO>
F 10

$$$$
=
 OpenBabel10222421103D

 29 31  0  0  1  0  0  0  0  0999 V2000
  185.9800  178.6950  140.4350 N   0  0  0  0  0  0  0  0  0  0  0  0
  188.7740  178.1630  139.9680 C   0  0  0  0  0  2  0  0  0  0  0  0
  186.3320  178.8850  142.8040 O   0  0  0  0  0  0  0  0  0  0  0  0
  186.4460  178.2520  139.1770 N   0  0  0  0  0  0  0  0  0  0  0  0
  186.9270  178.9800  141.5160 C   0  0  1  0  0  3  0  0  0  0  0  0
  187.6900  176.9960  143.4550 C   0  0  2  0  0  3  0  0  0  0  0  0
  188.4780  177.1690  142.1920 C   0  0  0  0  0  3  0  0  0  0  0  0
  187.7020  177.9880  138.9230 C   0  0  0  0  0  0  0  0  0  0  0  0
  186.2760  177.5370  143.2170 C   0  0  0  0  0  2  0  0  0  0  0  0
  188.1640  178.1390  141.3260 C   0  0  0  0  0  0  0  0  0  0  0  0
  183.8250  177.8760  141.2600 C   0  0  0  0  0  2  0  0  0  0  0  0
  184.5160  180.5600  138.7490 O   0  0  0  0  0  1  0  0  0  0  0  0
  182.3340  178.1910  141.3200 C   0  0  0  0  0  2  0  0  0  0  0  0
  182.4370  179.6090  139.4250 C   0  0  0  0  0  2  0  0  0  0  0  0
  181.8170  178.4030  139.9690 N   0  0  0  0  0  0  0  0  0  0  0  0
  184.5700  179.0340  140.5970 C   0  0  2  0  0  3  0  0  0  0  0  0
  183.9370  179.3930  139.2480 C   0  0  2  0  0  3  0  0  0  0  0  0
  180.3950  178.6830  140.0950 C   0  0  0  0  0  2  0  0  0  0  0  0
  180.1610  179.7790  141.1210 C   0  0  0  0  0  2  0  0  0  0  0  0
  178.9320  179.4670  141.9540 C   0  0  0  0  0  2  0  0  0  0  0  0
  179.1590  178.2530  142.7140 N   0  0  0  0  0  2  0  0  0  0  0  0
  179.7450  178.6570  143.9790 C   0  0  0  0  0  1  0  0  0  0  0  0
  188.3800  177.7310  144.5990 C   0  0  0  0  0  2  0  0  0  0  0  0
  189.7620  177.1530  144.8780 C   0  0  0  0  0  2  0  0  0  0  0  0
  191.6740  178.2640  143.7220 C   0  0  0  0  0  1  0  0  0  0  0  0
  190.8180  178.2430  144.9740 C   0  0  0  0  0  2  0  0  0  0  0  0
  188.0900  177.5580  137.6500 O   0  0  0  0  0  0  0  0  0  0  0  0
  189.6140  177.1550  135.8230 C   0  0  0  0  0  1  0  0  0  0  0  0
  189.4330  177.2120  137.3280 C   0  0  0  0  0  2  0  0  0  0  0  0
  1  5  1  0  0  0  0
  2 10  1  0  0  0  0
  3  9  1  0  0  0  0
  4  1  1  0  0  0  0
  5 10  1  1  0  0  0
  5  3  1  0  0  0  0
  6 23  1  1  0  0  0
  7  6  1  0  0  0  0
  8  4  2  0  0  0  0
  8  2  1  0  0  0  0
  9  6  1  0  0  0  0
 10  7  2  0  0  0  0
 11 13  1  0  0  0  0
 14 15  1  0  0  0  0
 15 18  1  0  0  0  0
 15 13  1  0  0  0  0
 16  1  1  6  0  0  0
 16 11  1  0  0  0  0
 17 12  1  1  0  0  0
 17 14  1  0  0  0  0
 17 16  1  0  0  0  0
 18 19  1  0  0  0  0
 19 20  1  0  0  0  0
 20 21  1  0  0  0  0
 21 22  1  0  0  0  0
 23 24  1  0  0  0  0
 24 26  1  0  0  0  0
 25 26  1  0  0  0  0
 27  8  1  0  0  0  0
 28 29  1  0  0  0  0
 29 27  1  0  0  0  0
M  END
>  <MODEL>
7

>  <REMARK>
 VINA RESULT:      -6.0      1.159      1.424
  Name = 
  10 active torsions:
  status: ('A' for Active; 'I' for Inactive)
    1  A    between atoms: N_1  and  C_15
    2  A    between atoms: C_6  and  C_18
    3  A    between atoms: C_6  and  N_22
    4  A    between atoms: C_9  and  C_11
    5  A    between atoms: C_11  and  C_23
    6  A    between atoms: N_14  and  C_29
    7  A    between atoms: C_17  and  C_23
    8  A    between atoms: C_18  and  C_29
    9  A    between atoms: C_20  and  O_27
   10  A    between atoms: O_27  and  C_28
                            x       y       z     vdW  Elec       q    Type
                         _______ _______ _______ _____ _____    ______ ____

>  <TORSDO>
F 10

$$$$
=
 OpenBabel10222421103D

 29 31  0  0  1  0  0  0  0  0999 V2000
  187.9970  177.6990  142.8500 N   0  0  0  0  0  0  0  0  0  0  0  0
  185.9140  177.4470  144.8270 C   0  0  0  0  0  2  0  0  0  0  0  0
  189.6560  176.8750  144.3790 O   0  0  0  0  0  0  0  0  0  0  0  0
  186.7130  178.2540  142.6440 N   0  0  0  0  0  0  0  0  0  0  0  0
  188.2740  176.9000  144.0460 C   0  0  1  0  0  3  0  0  0  0  0  0
  189.3280  178.0610  146.4580 C   0  0  2  0  0  3  0  0  0  0  0  0
  187.8480  177.9500  146.2510 C   0  0  0  0  0  3  0  0  0  0  0  0
  185.7420  178.1730  143.5170 C   0  0  0  0  0  0  0  0  0  0  0  0
  190.0090  178.0450  145.0860 C   0  0  0  0  0  2  0  0  0  0  0  0
  187.3610  177.3450  145.1620 C   0  0  0  0  0  0  0  0  0  0  0  0
  188.4350  178.5850  140.6100 C   0  0  0  0  0  2  0  0  0  0  0  0
  190.0820  175.7260  142.3720 O   0  0  0  0  0  1  0  0  0  0  0  0
  189.4320  178.5640  139.4560 C   0  0  0  0  0  2  0  0  0  0  0  0
  190.3490  176.4860  140.1280 C   0  0  0  0  0  2  0  0  0  0  0  0
  189.6770  177.1850  139.0350 N   0  0  0  0  0  0  0  0  0  0  0  0
  188.9900  177.7770  141.7830 C   0  0  2  0  0  3  0  0  0  0  0  0
  189.4170  176.3760  141.3320 C   0  0  2  0  0  3  0  0  0  0  0  0
  190.6190  177.2370  137.9280 C   0  0  0  0  0  2  0  0  0  0  0  0
  191.9460  176.6170  138.3340 C   0  0  0  0  0  2  0  0  0  0  0  0
  192.6040  175.9540  137.1390 C   0  0  0  0  0  2  0  0  0  0  0  0
  193.9200  176.5280  136.9310 N   0  0  0  0  0  2  0  0  0  0  0  0
  194.3220  176.1690  135.5830 C   0  0  0  0  0  1  0  0  0  0  0  0
  189.8150  176.9100  147.3330 C   0  0  0  0  0  2  0  0  0  0  0  0
  191.3030  177.0340  147.6370 C   0  0  0  0  0  2  0  0  0  0  0  0
  192.4300  175.2530  146.3010 C   0  0  0  0  0  1  0  0  0  0  0  0
  191.9820  175.6740  147.6870 C   0  0  0  0  0  2  0  0  0  0  0  0
  184.4960  178.7430  143.2410 O   0  0  0  0  0  0  0  0  0  0  0  0
  182.3520  178.6300  144.3430 C   0  0  0  0  0  1  0  0  0  0  0  0
  183.6850  179.3480  144.2420 C   0  0  0  0  0  2  0  0  0  0  0  0
  1  5  1  0  0  0  0
  2 10  1  0  0  0  0
  3  9  1  0  0  0  0
  4  1  1  0  0  0  0
  4  8  2  0  0  0  0
  5  3  1  1  0  0  0
  5 10  1  0  0  0  0
  6 23  1  1  0  0  0
  7  6  1  0  0  0  0
  8  2  1  0  0  0  0
  9  6  1  0  0  0  0
 10  7  2  0  0  0  0
 13 11  1  0  0  0  0
 14 17  1  0  0  0  0
 15 13  1  0  0  0  0
 15 14  1  0  0  0  0
 16 11  1  6  0  0  0
 16  1  1  0  0  0  0
 17 16  1  0  0  0  0
 17 12  1  1  0  0  0
 18 19  1  0  0  0  0
 18 15  1  0  0  0  0
 20 19  1  0  0  0  0
 21 20  1  0  0  0  0
 22 21  1  0  0  0  0
 23 24  1  0  0  0  0
 24 26  1  0  0  0  0
 25 26  1  0  0  0  0
 27  8  1  0  0  0  0
 27 29  1  0  0  0  0
 29 28  1  0  0  0  0
M  END
>  <MODEL>
8

>  <REMARK>
 VINA RESULT:      -6.0      3.657      8.061
  Name = 
  10 active torsions:
  status: ('A' for Active; 'I' for Inactive)
    1  A    between atoms: N_1  and  C_15
    2  A    between atoms: C_6  and  C_18
    3  A    between atoms: C_6  and  N_22
    4  A    between atoms: C_9  and  C_11
    5  A    between atoms: C_11  and  C_23
    6  A    between atoms: N_14  and  C_29
    7  A    between atoms: C_17  and  C_23
    8  A    between atoms: C_18  and  C_29
    9  A    between atoms: C_20  and  O_27
   10  A    between atoms: O_27  and  C_28
                            x       y       z     vdW  Elec       q    Type
                         _______ _______ _______ _____ _____    ______ ____

>  <TORSDO>
F 10

$$$$
=
 OpenBabel10222421103D

 29 31  0  0  1  0  0  0  0  0999 V2000
  188.7830  176.9980  144.2140 N   0  0  0  0  0  0  0  0  0  0  0  0
  191.6150  176.4790  144.0890 C   0  0  0  0  0  2  0  0  0  0  0  0
  188.5180  176.5520  141.8690 O   0  0  0  0  0  0  0  0  0  0  0  0
  189.6380  177.3080  145.2960 N   0  0  0  0  0  0  0  0  0  0  0  0
  189.3080  176.3180  143.0280 C   0  0  1  0  0  3  0  0  0  0  0  0
  190.2750  177.7600  140.7340 C   0  0  2  0  0  3  0  0  0  0  0  0
  191.2080  177.3810  141.8430 C   0  0  0  0  0  3  0  0  0  0  0  0
  190.9300  177.1010  145.2790 C   0  0  0  0  0  0  0  0  0  0  0  0
  188.8500  177.7980  141.2950 C   0  0  0  0  0  2  0  0  0  0  0  0
  190.7720  176.6490  142.8740 C   0  0  0  0  0  0  0  0  0  0  0  0
  186.7960  177.9530  143.1490 C   0  0  0  0  0  2  0  0  0  0  0  0
  187.3750  177.1510  146.7560 O   0  0  0  0  0  1  0  0  0  0  0  0
  185.3170  178.2590  143.3620 C   0  0  0  0  0  2  0  0  0  0  0  0
  185.5340  178.2570  145.7210 C   0  0  0  0  0  2  0  0  0  0  0  0
  185.1460  179.0670  144.5690 N   0  0  0  0  0  0  0  0  0  0  0  0
  187.3440  177.1980  144.3600 C   0  0  2  0  0  3  0  0  0  0  0  0
  187.0260  177.9420  145.6610 C   0  0  2  0  0  3  0  0  0  0  0  0
  183.7230  179.3350  144.7050 C   0  0  0  0  0  2  0  0  0  0  0  0
  182.9730  178.8530  143.4740 C   0  0  0  0  0  2  0  0  0  0  0  0
  181.4780  179.0080  143.6740 C   0  0  0  0  0  2  0  0  0  0  0  0
  180.8530  179.3430  142.4080 N   0  0  0  0  0  2  0  0  0  0  0  0
  181.6390  178.6960  141.3730 C   0  0  0  0  0  1  0  0  0  0  0  0
  190.3950  176.7560  139.5920 C   0  0  0  0  0  2  0  0  0  0  0  0
  189.1610  176.7790  138.6990 C   0  0  0  0  0  2  0  0  0  0  0  0
  189.0610  178.8730  137.3450 C   0  0  0  0  0  1  0  0  0  0  0  0
  189.4580  177.4090  137.3470 C   0  0  0  0  0  2  0  0  0  0  0  0
  191.7120  177.4290  146.3900 O   0  0  0  0  0  0  0  0  0  0  0  0
  192.4250  175.5460  147.7210 C   0  0  0  0  0  1  0  0  0  0  0  0
  191.5630  176.7930  147.6550 C   0  0  0  0  0  2  0  0  0  0  0  0
  1 16  1  0  0  0  0
  1  4  1  0  0  0  0
  2  8  1  0  0  0  0
  5  3  1  6  0  0  0
  5  1  1  0  0  0  0
  6 23  1  6  0  0  0
  6  9  1  0  0  0  0
  6  7  1  0  0  0  0
  7 10  2  0  0  0  0
  8  4  2  0  0  0  0
  8 27  1  0  0  0  0
  9  3  1  0  0  0  0
 10  5  1  0  0  0  0
 10  2  1  0  0  0  0
 11 13  1  0  0  0  0
 13 15  1  0  0  0  0
 15 18  1  0  0  0  0
 15 14  1  0  0  0  0
 16 11  1  6  0  0  0
 16 17  1  0  0  0  0
 17 14  1  0  0  0  0
 17 12  1  1  0  0  0
 19 20  1  0  0  0  0
 19 18  1  0  0  0  0
 21 20  1  0  0  0  0
 22 21  1  0  0  0  0
 24 23  1  0  0  0  0
 25 26  1  0  0  0  0
 26 24  1  0  0  0  0
 27 29  1  0  0  0  0
 29 28  1  0  0  0  0
M  END
>  <MODEL>
9

>  <REMARK>
 VINA RESULT:      -6.0      3.142      6.530
  Name = 
  10 active torsions:
  status: ('A' for Active; 'I' for Inactive)
    1  A    between atoms: N_1  and  C_15
    2  A    between atoms: C_6  and  C_18
    3  A    between atoms: C_6  and  N_22
    4  A    between atoms: C_9  and  C_11
    5  A    between atoms: C_11  and  C_23
    6  A    between atoms: N_14  and  C_29
    7  A    between atoms: C_17  and  C_23
    8  A    between atoms: C_18  and  C_29
    9  A    between atoms: C_20  and  O_27
   10  A    between atoms: O_27  and  C_28
                            x       y       z     vdW  Elec       q    Type
                         _______ _______ _______ _____ _____    ______ ____

>  <TORSDO>
F 10

$$$$
