=
 OpenBabel10222415283D

 31 34  0  0  1  0  0  0  0  0999 V2000
  188.4420  178.2640  141.6240 C   0  0  2  0  0  3  0  0  0  0  0  0
  184.9920  178.6140  142.6180 C   0  0  0  0  0  0  0  0  0  0  0  0
  186.3220  178.4240  142.9190 C   0  0  0  0  0  3  0  0  0  0  0  0
  182.4050  178.5400  141.4600 C   0  0  1  0  0  3  0  0  0  0  0  0
  184.8790  178.7630  141.2660 C   0  0  0  0  0  0  0  0  0  0  0  0
  187.0010  178.4610  141.7500 N   0  0  0  0  0  0  0  0  0  0  0  0
  183.8310  178.6780  143.5070 C   0  0  0  0  0  3  0  0  0  0  0  0
  183.5770  179.0620  140.5960 C   0  0  0  0  0  2  0  0  0  0  0  0
  186.1410  178.6860  140.7280 C   0  0  0  0  0  3  0  0  0  0  0  0
  182.6060  178.7200  142.9620 C   0  0  0  0  0  0  0  0  0  0  0  0
  181.5280  178.7730  143.7840 F   0  0  0  0  0  0  0  0  0  0  0  0
  181.1000  179.1700  141.0010 C   0  0  0  0  0  2  0  0  0  0  0  0
  180.2090  178.1320  140.3340 C   0  0  0  0  0  2  0  0  0  0  0  0
  178.9310  177.9940  142.3420 O   0  0  0  0  0  0  0  0  0  0  0  0
  179.2750  175.9700  141.2560 N   0  0  0  0  0  1  0  0  0  0  0  0
  179.4240  177.3830  141.3590 C   0  0  0  0  0  0  0  0  0  0  0  0
  188.6380  178.9170  139.2330 O   0  0  0  0  0  0  0  0  0  0  0  0
  189.3890  176.9040  139.6760 C   0  0  0  0  0  3  0  0  0  0  0  0
  189.0800  179.0110  136.8090 C   0  0  0  0  0  1  0  0  0  0  0  0
  189.0940  178.3550  138.1410 C   0  0  0  0  0  0  0  0  0  0  0  0
  188.8060  178.0440  140.1930 C   0  0  0  0  0  0  0  0  0  0  0  0
  189.5760  177.1120  138.3540 N   0  0  0  0  0  0  0  0  0  0  0  0
  188.8640  177.1200  142.4310 N   0  0  0  0  0  2  0  0  0  0  0  0
  189.7330  177.5890  143.5090 C   0  0  0  0  0  2  0  0  0  0  0  0
  189.5670  176.7740  144.7100 N   0  0  0  0  0  2  0  0  0  0  0  0
  187.0670  178.1340  147.1470 C   0  0  0  0  0  3  0  0  0  0  0  0
  187.6190  177.6410  145.9600 C   0  0  0  0  0  3  0  0  0  0  0  0
  189.1940  177.8260  148.2660 C   0  0  0  0  0  3  0  0  0  0  0  0
  187.8550  178.2300  148.2970 C   0  0  0  0  0  3  0  0  0  0  0  0
  188.9630  177.2360  145.9230 C   0  0  0  0  0  0  0  0  0  0  0  0
  189.7450  177.3300  147.0790 C   0  0  0  0  0  3  0  0  0  0  0  0
  1  6  1  0  0  0  0
  1 23  1  1  0  0  0
  2  3  2  0  0  0  0
  2  7  1  0  0  0  0
  4 12  1  6  0  0  0
  4 10  1  0  0  0  0
  5  2  1  0  0  0  0
  6  3  1  0  0  0  0
  8  5  1  0  0  0  0
  8  4  1  0  0  0  0
  9  5  2  0  0  0  0
  9  6  1  0  0  0  0
 10  7  2  0  0  0  0
 10 11  1  0  0  0  0
 13 12  1  0  0  0  0
 13 16  1  0  0  0  0
 15 16  1  0  0  0  0
 16 14  2  0  0  0  0
 17 21  1  0  0  0  0
 18 21  2  0  0  0  0
 19 20  1  0  0  0  0
 20 22  2  0  0  0  0
 20 17  1  0  0  0  0
 21  1  1  0  0  0  0
 22 18  1  0  0  0  0
 23 24  1  0  0  0  0
 24 25  1  0  0  0  0
 25 30  1  0  0  0  0
 26 29  1  0  0  0  0
 27 26  2  0  0  0  0
 28 29  2  0  0  0  0
 30 27  1  0  0  0  0
 30 31  2  0  0  0  0
 31 28  1  0  0  0  0
M  END
>  <MODEL>
1

>  <REMARK>
 VINA RESULT:      -8.4      0.000      0.000
  Name = 
  9 active torsions:
  status: ('A' for Active; 'I' for Inactive)
    1  A    between atoms: C_2  and  N_13
    2  A    between atoms: C_2  and  N_25
    3  A    between atoms: C_2  and  C_28
    4  A    between atoms: N_4  and  C_22
    5  A    between atoms: N_4  and  C_27
    6  A    between atoms: C_8  and  C_23
    7  A    between atoms: C_11  and  C_21
    8  A    between atoms: C_11  and  C_23
    9  A    between atoms: C_22  and  N_25
                            x       y       z     vdW  Elec       q    Type
                         _______ _______ _______ _____ _____    ______ ____

>  <TORSDO>
F 9

$$$$
=
 OpenBabel10222415283D

 31 34  0  0  1  0  0  0  0  0999 V2000
  190.4920  177.3760  139.6220 C   0  0  2  0  0  3  0  0  0  0  0  0
  190.3420  177.5230  143.2230 C   0  0  0  0  0  0  0  0  0  0  0  0
  191.0520  177.4610  142.0460 C   0  0  0  0  0  3  0  0  0  0  0  0
  188.4580  177.1630  145.3110 C   0  0  1  0  0  3  0  0  0  0  0  0
  189.0130  177.5650  142.9160 C   0  0  0  0  0  0  0  0  0  0  0  0
  190.1500  177.4680  141.0390 N   0  0  0  0  0  0  0  0  0  0  0  0
  190.8220  177.5590  144.6050 C   0  0  0  0  0  3  0  0  0  0  0  0
  187.9510  177.7120  143.9570 C   0  0  0  0  0  2  0  0  0  0  0  0
  188.8970  177.5500  141.5460 C   0  0  0  0  0  3  0  0  0  0  0  0
  189.9250  177.4650  145.5990 C   0  0  0  0  0  0  0  0  0  0  0  0
  190.3690  177.4920  146.8810 F   0  0  0  0  0  0  0  0  0  0  0  0
  187.5640  177.6540  146.4390 C   0  0  0  0  0  2  0  0  0  0  0  0
  186.0960  177.4940  146.0680 C   0  0  0  0  0  2  0  0  0  0  0  0
  185.8010  179.5640  147.2140 O   0  0  0  0  0  0  0  0  0  0  0  0
  184.0760  178.9860  145.7700 N   0  0  0  0  0  1  0  0  0  0  0  0
  185.3420  178.7440  146.3780 C   0  0  0  0  0  0  0  0  0  0  0  0
  188.2690  176.9500  138.5910 O   0  0  0  0  0  0  0  0  0  0  0  0
  189.1160  178.9170  138.1140 C   0  0  0  0  0  3  0  0  0  0  0  0
  186.1430  177.0900  137.3500 C   0  0  0  0  0  1  0  0  0  0  0  0
  187.4480  177.6210  137.8210 C   0  0  0  0  0  0  0  0  0  0  0  0
  189.3050  177.7260  138.7850 C   0  0  0  0  0  0  0  0  0  0  0  0
  187.9150  178.8450  137.4980 N   0  0  0  0  0  0  0  0  0  0  0  0
  190.9490  176.0260  139.3020 N   0  0  0  0  0  2  0  0  0  0  0  0
  191.9190  176.0940  138.2110 C   0  0  0  0  0  2  0  0  0  0  0  0
  191.5880  175.1450  137.1510 N   0  0  0  0  0  2  0  0  0  0  0  0
  188.2190  174.1340  135.8580 C   0  0  0  0  0  3  0  0  0  0  0  0
  189.3950  174.1370  136.6150 C   0  0  0  0  0  3  0  0  0  0  0  0
  188.9520  176.1390  134.7110 C   0  0  0  0  0  3  0  0  0  0  0  0
  188.0000  175.1320  134.9040 C   0  0  0  0  0  3  0  0  0  0  0  0
  190.3540  175.1440  136.4250 C   0  0  0  0  0  0  0  0  0  0  0  0
  190.1260  176.1440  135.4710 C   0  0  0  0  0  3  0  0  0  0  0  0
  1 23  1  6  0  0  0
  1  6  1  0  0  0  0
  2  7  1  0  0  0  0
  3  2  2  0  0  0  0
  4 10  1  0  0  0  0
  4 12  1  1  0  0  0
  5  2  1  0  0  0  0
  5  8  1  0  0  0  0
  6  9  1  0  0  0  0
  6  3  1  0  0  0  0
  7 10  2  0  0  0  0
  8  4  1  0  0  0  0
  9  5  2  0  0  0  0
 10 11  1  0  0  0  0
 13 16  1  0  0  0  0
 13 12  1  0  0  0  0
 15 16  1  0  0  0  0
 16 14  2  0  0  0  0
 17 21  1  0  0  0  0
 18 21  2  0  0  0  0
 19 20  1  0  0  0  0
 20 17  1  0  0  0  0
 21  1  1  0  0  0  0
 22 20  2  0  0  0  0
 22 18  1  0  0  0  0
 24 23  1  0  0  0  0
 25 24  1  0  0  0  0
 26 27  1  0  0  0  0
 28 29  1  0  0  0  0
 28 31  2  0  0  0  0
 29 26  2  0  0  0  0
 30 27  2  0  0  0  0
 30 25  1  0  0  0  0
 31 30  1  0  0  0  0
M  END
>  <MODEL>
2

>  <REMARK>
 VINA RESULT:      -8.3      4.211      7.469
  Name = 
  9 active torsions:
  status: ('A' for Active; 'I' for Inactive)
    1  A    between atoms: C_2  and  N_13
    2  A    between atoms: C_2  and  N_25
    3  A    between atoms: C_2  and  C_28
    4  A    between atoms: N_4  and  C_22
    5  A    between atoms: N_4  and  C_27
    6  A    between atoms: C_8  and  C_23
    7  A    between atoms: C_11  and  C_21
    8  A    between atoms: C_11  and  C_23
    9  A    between atoms: C_22  and  N_25
                            x       y       z     vdW  Elec       q    Type
                         _______ _______ _______ _____ _____    ______ ____

>  <TORSDO>
F 9

$$$$
=
 OpenBabel10222415283D

 31 34  0  0  1  0  0  0  0  0999 V2000
  189.3170  177.9050  139.6230 C   0  0  2  0  0  3  0  0  0  0  0  0
  186.3170  178.5800  141.5100 C   0  0  0  0  0  0  0  0  0  0  0  0
  187.0250  178.5730  140.3300 C   0  0  0  0  0  3  0  0  0  0  0  0
  185.4900  178.8370  144.2100 C   0  0  1  0  0  3  0  0  0  0  0  0
  187.1180  178.0650  142.4890 C   0  0  0  0  0  0  0  0  0  0  0  0
  188.2440  178.0540  140.6020 N   0  0  0  0  0  0  0  0  0  0  0  0
  184.9470  179.0200  141.7780 C   0  0  0  0  0  3  0  0  0  0  0  0
  186.6420  177.8550  143.8900 C   0  0  0  0  0  2  0  0  0  0  0  0
  188.3170  177.7190  141.9130 C   0  0  0  0  0  3  0  0  0  0  0  0
  184.5270  179.0710  143.0510 C   0  0  0  0  0  0  0  0  0  0  0  0
  183.2590  179.4850  143.3020 F   0  0  0  0  0  0  0  0  0  0  0  0
  184.7500  178.3810  145.4570 C   0  0  0  0  0  2  0  0  0  0  0  0
  185.6990  177.6780  146.4170 C   0  0  0  0  0  2  0  0  0  0  0  0
  185.8020  179.7950  147.5100 O   0  0  0  0  0  0  0  0  0  0  0  0
  187.5520  178.3490  148.0020 N   0  0  0  0  0  1  0  0  0  0  0  0
  186.3280  178.6640  147.3440 C   0  0  0  0  0  0  0  0  0  0  0  0
  188.1530  176.3910  138.0310 O   0  0  0  0  0  0  0  0  0  0  0  0
  188.7540  178.3140  137.1620 C   0  0  0  0  0  3  0  0  0  0  0  0
  187.0820  175.3540  136.0670 C   0  0  0  0  0  1  0  0  0  0  0  0
  187.7890  176.4520  136.7740 C   0  0  0  0  0  0  0  0  0  0  0  0
  188.7510  177.5250  138.2950 C   0  0  0  0  0  0  0  0  0  0  0  0
  188.1290  177.6190  136.1860 N   0  0  0  0  0  0  0  0  0  0  0  0
  190.2670  176.8900  140.0720 N   0  0  0  0  0  2  0  0  0  0  0  0
  191.5910  177.4960  140.2020 C   0  0  0  0  0  2  0  0  0  0  0  0
  192.1990  177.1620  141.4880 N   0  0  0  0  0  2  0  0  0  0  0  0
  190.4710  176.5230  144.7500 C   0  0  0  0  0  3  0  0  0  0  0  0
  191.1250  176.2900  143.5360 C   0  0  0  0  0  3  0  0  0  0  0  0
  190.6970  178.9120  144.4150 C   0  0  0  0  0  3  0  0  0  0  0  0
  190.2530  177.8330  145.1870 C   0  0  0  0  0  3  0  0  0  0  0  0
  191.5700  177.3690  142.7570 C   0  0  0  0  0  0  0  0  0  0  0  0
  191.3540  178.6790  143.2020 C   0  0  0  0  0  3  0  0  0  0  0  0
  1 23  1  1  0  0  0
  1  6  1  0  0  0  0
  2  7  1  0  0  0  0
  2  5  1  0  0  0  0
  3  6  1  0  0  0  0
  3  2  2  0  0  0  0
  4 12  1  1  0  0  0
  5  8  1  0  0  0  0
  6  9  1  0  0  0  0
  7 10  2  0  0  0  0
  8  4  1  0  0  0  0
  9  5  2  0  0  0  0
 10 11  1  0  0  0  0
 10  4  1  0  0  0  0
 12 13  1  0  0  0  0
 13 16  1  0  0  0  0
 16 14  2  0  0  0  0
 16 15  1  0  0  0  0
 17 21  1  0  0  0  0
 18 21  2  0  0  0  0
 19 20  1  0  0  0  0
 20 17  1  0  0  0  0
 21  1  1  0  0  0  0
 22 20  2  0  0  0  0
 22 18  1  0  0  0  0
 23 24  1  0  0  0  0
 24 25  1  0  0  0  0
 25 30  1  0  0  0  0
 26 29  1  0  0  0  0
 27 26  2  0  0  0  0
 28 29  2  0  0  0  0
 30 31  2  0  0  0  0
 30 27  1  0  0  0  0
 31 28  1  0  0  0  0
M  END
>  <MODEL>
3

>  <REMARK>
 VINA RESULT:      -8.3      3.232      4.643
  Name = 
  9 active torsions:
  status: ('A' for Active; 'I' for Inactive)
    1  A    between atoms: C_2  and  N_13
    2  A    between atoms: C_2  and  N_25
    3  A    between atoms: C_2  and  C_28
    4  A    between atoms: N_4  and  C_22
    5  A    between atoms: N_4  and  C_27
    6  A    between atoms: C_8  and  C_23
    7  A    between atoms: C_11  and  C_21
    8  A    between atoms: C_11  and  C_23
    9  A    between atoms: C_22  and  N_25
                            x       y       z     vdW  Elec       q    Type
                         _______ _______ _______ _____ _____    ______ ____

>  <TORSDO>
F 9

$$$$
=
 OpenBabel10222415283D

 31 34  0  0  1  0  0  0  0  0999 V2000
  189.0640  177.9210  140.1630 C   0  0  2  0  0  3  0  0  0  0  0  0
  186.9320  178.0430  143.0700 C   0  0  0  0  0  0  0  0  0  0  0  0
  188.1180  177.7100  142.4560 C   0  0  0  0  0  3  0  0  0  0  0  0
  184.2050  178.4740  143.7170 C   0  0  1  0  0  3  0  0  0  0  0  0
  186.1320  178.6520  142.1470 C   0  0  0  0  0  0  0  0  0  0  0  0
  188.0260  178.1190  141.1700 N   0  0  0  0  0  0  0  0  0  0  0  0
  186.5080  177.8440  144.4570 C   0  0  0  0  0  3  0  0  0  0  0  0
  184.7900  179.2150  142.4920 C   0  0  0  0  0  2  0  0  0  0  0  0
  186.8280  178.7150  140.9630 C   0  0  0  0  0  3  0  0  0  0  0  0
  185.2360  178.1190  144.7840 C   0  0  0  0  0  0  0  0  0  0  0  0
  184.8390  177.9290  146.0680 F   0  0  0  0  0  0  0  0  0  0  0  0
  183.0560  179.2750  144.3080 C   0  0  0  0  0  2  0  0  0  0  0  0
  181.7210  178.6210  143.9770 C   0  0  0  0  0  2  0  0  0  0  0  0
  181.3200  178.8790  141.6400 O   0  0  0  0  0  0  0  0  0  0  0  0
  180.2640  180.4410  142.9960 N   0  0  0  0  0  1  0  0  0  0  0  0
  181.0880  179.2950  142.8050 C   0  0  0  0  0  0  0  0  0  0  0  0
  188.0590  178.5200  137.9690 O   0  0  0  0  0  0  0  0  0  0  0  0
  188.2010  176.3610  138.3290 C   0  0  0  0  0  3  0  0  0  0  0  0
  187.0330  178.5090  135.7260 C   0  0  0  0  0  1  0  0  0  0  0  0
  187.5870  177.8580  136.9410 C   0  0  0  0  0  0  0  0  0  0  0  0
  188.4430  177.6200  138.8390 C   0  0  0  0  0  0  0  0  0  0  0  0
  187.6540  176.5200  137.1050 N   0  0  0  0  0  0  0  0  0  0  0  0
  189.9470  176.8260  140.5620 N   0  0  0  0  0  2  0  0  0  0  0  0
  191.3350  177.2200  140.3250 C   0  0  0  0  0  2  0  0  0  0  0  0
  192.1210  177.1420  141.5540 N   0  0  0  0  0  2  0  0  0  0  0  0
  190.7370  176.4420  144.9650 C   0  0  0  0  0  3  0  0  0  0  0  0
  191.3050  176.2350  143.7040 C   0  0  0  0  0  3  0  0  0  0  0  0
  190.7230  178.8320  144.5670 C   0  0  0  0  0  3  0  0  0  0  0  0
  190.4420  177.7400  145.3940 C   0  0  0  0  0  3  0  0  0  0  0  0
  191.5860  177.3270  142.8690 C   0  0  0  0  0  0  0  0  0  0  0  0
  191.2940  178.6250  143.3060 C   0  0  0  0  0  3  0  0  0  0  0  0
  1 23  1  1  0  0  0
  1  6  1  0  0  0  0
  2  7  1  0  0  0  0
  3  2  2  0  0  0  0
  4 12  1  1  0  0  0
  4 10  1  0  0  0  0
  5  8  1  0  0  0  0
  5  2  1  0  0  0  0
  6  3  1  0  0  0  0
  7 10  2  0  0  0  0
  8  4  1  0  0  0  0
  9  6  1  0  0  0  0
  9  5  2  0  0  0  0
 10 11  1  0  0  0  0
 13 12  1  0  0  0  0
 14 16  2  0  0  0  0
 16 15  1  0  0  0  0
 16 13  1  0  0  0  0
 17 21  1  0  0  0  0
 18 21  2  0  0  0  0
 19 20  1  0  0  0  0
 20 22  2  0  0  0  0
 20 17  1  0  0  0  0
 21  1  1  0  0  0  0
 22 18  1  0  0  0  0
 24 23  1  0  0  0  0
 24 25  1  0  0  0  0
 25 30  1  0  0  0  0
 26 29  1  0  0  0  0
 27 26  2  0  0  0  0
 28 29  2  0  0  0  0
 30 31  2  0  0  0  0
 30 27  1  0  0  0  0
 31 28  1  0  0  0  0
M  END
>  <MODEL>
4

>  <REMARK>
 VINA RESULT:      -8.3      2.305      3.115
  Name = 
  9 active torsions:
  status: ('A' for Active; 'I' for Inactive)
    1  A    between atoms: C_2  and  N_13
    2  A    between atoms: C_2  and  N_25
    3  A    between atoms: C_2  and  C_28
    4  A    between atoms: N_4  and  C_22
    5  A    between atoms: N_4  and  C_27
    6  A    between atoms: C_8  and  C_23
    7  A    between atoms: C_11  and  C_21
    8  A    between atoms: C_11  and  C_23
    9  A    between atoms: C_22  and  N_25
                            x       y       z     vdW  Elec       q    Type
                         _______ _______ _______ _____ _____    ______ ____

>  <TORSDO>
F 9

$$$$
=
 OpenBabel10222415283D

 31 34  0  0  1  0  0  0  0  0999 V2000
  190.3180  177.1770  139.3400 C   0  0  2  0  0  3  0  0  0  0  0  0
  190.2640  177.4420  142.9380 C   0  0  0  0  0  0  0  0  0  0  0  0
  190.9420  177.3250  141.7460 C   0  0  0  0  0  3  0  0  0  0  0  0
  188.4260  177.1940  145.0830 C   0  0  1  0  0  3  0  0  0  0  0  0
  188.9290  177.5070  142.6620 C   0  0  0  0  0  0  0  0  0  0  0  0
  190.0150  177.3220  140.7620 N   0  0  0  0  0  0  0  0  0  0  0  0
  190.7800  177.5100  144.3060 C   0  0  0  0  0  3  0  0  0  0  0  0
  187.8970  177.7130  143.7240 C   0  0  0  0  0  2  0  0  0  0  0  0
  188.7780  177.4510  141.2970 C   0  0  0  0  0  3  0  0  0  0  0  0
  189.9070  177.4690  145.3240 C   0  0  0  0  0  0  0  0  0  0  0  0
  190.3840  177.5260  146.5930 F   0  0  0  0  0  0  0  0  0  0  0  0
  187.5730  177.7420  146.2160 C   0  0  0  0  0  2  0  0  0  0  0  0
  186.0960  177.5000  145.9400 C   0  0  0  0  0  2  0  0  0  0  0  0
  185.6920  179.4640  147.2310 O   0  0  0  0  0  0  0  0  0  0  0  0
  184.0480  178.9600  145.6700 N   0  0  0  0  0  1  0  0  0  0  0  0
  185.2930  178.7020  146.3140 C   0  0  0  0  0  0  0  0  0  0  0  0
  188.0890  176.9700  138.2570 O   0  0  0  0  0  0  0  0  0  0  0  0
  189.0640  178.9090  137.9370 C   0  0  0  0  0  3  0  0  0  0  0  0
  185.9950  177.3370  137.0070 C   0  0  0  0  0  1  0  0  0  0  0  0
  187.3230  177.7470  137.5310 C   0  0  0  0  0  0  0  0  0  0  0  0
  189.1690  177.6620  138.5200 C   0  0  0  0  0  0  0  0  0  0  0  0
  187.8710  178.9600  137.3050 N   0  0  0  0  0  0  0  0  0  0  0  0
  190.6010  175.7780  139.0280 N   0  0  0  0  0  2  0  0  0  0  0  0
  191.1940  175.6950  137.6950 C   0  0  0  0  0  2  0  0  0  0  0  0
  192.4660  176.4120  137.6390 N   0  0  0  0  0  2  0  0  0  0  0  0
  195.5710  174.3310  137.3720 C   0  0  0  0  0  3  0  0  0  0  0  0
  194.3540  174.8290  137.8470 C   0  0  0  0  0  3  0  0  0  0  0  0
  195.4720  175.8710  135.5040 C   0  0  0  0  0  3  0  0  0  0  0  0
  196.1320  174.8550  136.2030 C   0  0  0  0  0  3  0  0  0  0  0  0
  193.6890  175.8500  137.1500 C   0  0  0  0  0  0  0  0  0  0  0  0
  194.2530  176.3670  135.9780 C   0  0  0  0  0  3  0  0  0  0  0  0
  1 23  1  1  0  0  0
  1  6  1  0  0  0  0
  2  7  1  0  0  0  0
  3  2  2  0  0  0  0
  4 10  1  0  0  0  0
  4 12  1  1  0  0  0
  5  2  1  0  0  0  0
  5  8  1  0  0  0  0
  6  9  1  0  0  0  0
  6  3  1  0  0  0  0
  7 10  2  0  0  0  0
  8  4  1  0  0  0  0
  9  5  2  0  0  0  0
 10 11  1  0  0  0  0
 13 12  1  0  0  0  0
 13 16  1  0  0  0  0
 15 16  1  0  0  0  0
 16 14  2  0  0  0  0
 17 21  1  0  0  0  0
 18 21  2  0  0  0  0
 19 20  1  0  0  0  0
 20 17  1  0  0  0  0
 21  1  1  0  0  0  0
 22 20  2  0  0  0  0
 22 18  1  0  0  0  0
 24 23  1  0  0  0  0
 25 24  1  0  0  0  0
 26 27  1  0  0  0  0
 28 31  2  0  0  0  0
 28 29  1  0  0  0  0
 29 26  2  0  0  0  0
 30 25  1  0  0  0  0
 30 27  2  0  0  0  0
 31 30  1  0  0  0  0
M  END
>  <MODEL>
5

>  <REMARK>
 VINA RESULT:      -8.3      4.189      7.699
  Name = 
  9 active torsions:
  status: ('A' for Active; 'I' for Inactive)
    1  A    between atoms: C_2  and  N_13
    2  A    between atoms: C_2  and  N_25
    3  A    between atoms: C_2  and  C_28
    4  A    between atoms: N_4  and  C_22
    5  A    between atoms: N_4  and  C_27
    6  A    between atoms: C_8  and  C_23
    7  A    between atoms: C_11  and  C_21
    8  A    between atoms: C_11  and  C_23
    9  A    between atoms: C_22  and  N_25
                            x       y       z     vdW  Elec       q    Type
                         _______ _______ _______ _____ _____    ______ ____

>  <TORSDO>
F 9

$$$$
=
 OpenBabel10222415283D

 31 34  0  0  1  0  0  0  0  0999 V2000
  183.9790  179.0580  141.9460 C   0  0  2  0  0  3  0  0  0  0  0  0
  185.5310  178.6300  145.1740 C   0  0  0  0  0  0  0  0  0  0  0  0
  184.5480  179.1560  144.3680 C   0  0  0  0  0  3  0  0  0  0  0  0
  187.9850  177.7310  146.2760 C   0  0  1  0  0  3  0  0  0  0  0  0
  186.3510  177.8620  144.3990 C   0  0  0  0  0  0  0  0  0  0  0  0
  184.7780  178.7030  143.1150 N   0  0  0  0  0  0  0  0  0  0  0  0
  185.7450  178.7870  146.6140 C   0  0  0  0  0  3  0  0  0  0  0  0
  187.4890  177.0760  144.9650 C   0  0  0  0  0  2  0  0  0  0  0  0
  185.8650  177.8940  143.1130 C   0  0  0  0  0  3  0  0  0  0  0  0
  186.8710  178.2960  147.1530 C   0  0  0  0  0  0  0  0  0  0  0  0
  187.0740  178.4450  148.4860 F   0  0  0  0  0  0  0  0  0  0  0  0
  188.8520  176.7520  147.0500 C   0  0  0  0  0  2  0  0  0  0  0  0
  190.1290  177.4300  147.5300 C   0  0  0  0  0  2  0  0  0  0  0  0
  192.2190  176.2950  147.7040 O   0  0  0  0  0  0  0  0  0  0  0  0
  191.4880  176.6790  145.5330 N   0  0  0  0  0  1  0  0  0  0  0  0
  191.3260  176.7560  146.9470 C   0  0  0  0  0  0  0  0  0  0  0  0
  181.9740  178.9010  143.4090 O   0  0  0  0  0  0  0  0  0  0  0  0
  181.5660  178.5270  141.2870 C   0  0  0  0  0  3  0  0  0  0  0  0
  179.7040  178.6280  144.3330 C   0  0  0  0  0  1  0  0  0  0  0  0
  180.7000  178.6530  143.2310 C   0  0  0  0  0  0  0  0  0  0  0  0
  182.5300  178.8280  142.2260 C   0  0  0  0  0  0  0  0  0  0  0  0
  180.3870  178.4190  141.9390 N   0  0  0  0  0  0  0  0  0  0  0  0
  184.3980  178.2660  140.7920 N   0  0  0  0  0  2  0  0  0  0  0  0
  184.9460  179.1580  139.7720 C   0  0  0  0  0  2  0  0  0  0  0  0
  185.8670  178.4450  138.8890 N   0  0  0  0  0  2  0  0  0  0  0  0
  189.3570  177.0960  138.6980 C   0  0  0  0  0  3  0  0  0  0  0  0
  188.0480  177.4220  138.3330 C   0  0  0  0  0  3  0  0  0  0  0  0
  189.0370  178.1970  140.8330 C   0  0  0  0  0  3  0  0  0  0  0  0
  189.8500  177.4790  139.9490 C   0  0  0  0  0  3  0  0  0  0  0  0
  187.2270  178.1400  139.2170 C   0  0  0  0  0  0  0  0  0  0  0  0
  187.7270  178.5250  140.4660 C   0  0  0  0  0  3  0  0  0  0  0  0
  1 23  1  6  0  0  0
  1 21  1  0  0  0  0
  1  6  1  0  0  0  0
  2  7  1  0  0  0  0
  3  2  2  0  0  0  0
  4 12  1  1  0  0  0
  4 10  1  0  0  0  0
  5  8  1  0  0  0  0
  5  2  1  0  0  0  0
  6  3  1  0  0  0  0
  7 10  2  0  0  0  0
  8  4  1  0  0  0  0
  9  6  1  0  0  0  0
  9  5  2  0  0  0  0
 10 11  1  0  0  0  0
 12 13  1  0  0  0  0
 15 16  1  0  0  0  0
 16 13  1  0  0  0  0
 16 14  2  0  0  0  0
 18 22  1  0  0  0  0
 18 21  2  0  0  0  0
 20 17  1  0  0  0  0
 20 19  1  0  0  0  0
 21 17  1  0  0  0  0
 22 20  2  0  0  0  0
 24 23  1  0  0  0  0
 25 30  1  0  0  0  0
 25 24  1  0  0  0  0
 26 29  1  0  0  0  0
 27 26  2  0  0  0  0
 27 30  1  0  0  0  0
 29 28  2  0  0  0  0
 30 31  2  0  0  0  0
 31 28  1  0  0  0  0
M  END
>  <MODEL>
6

>  <REMARK>
 VINA RESULT:      -8.2      2.774      8.127
  Name = 
  9 active torsions:
  status: ('A' for Active; 'I' for Inactive)
    1  A    between atoms: C_2  and  N_13
    2  A    between atoms: C_2  and  N_25
    3  A    between atoms: C_2  and  C_28
    4  A    between atoms: N_4  and  C_22
    5  A    between atoms: N_4  and  C_27
    6  A    between atoms: C_8  and  C_23
    7  A    between atoms: C_11  and  C_21
    8  A    between atoms: C_11  and  C_23
    9  A    between atoms: C_22  and  N_25
                            x       y       z     vdW  Elec       q    Type
                         _______ _______ _______ _____ _____    ______ ____

>  <TORSDO>
F 9

$$$$
=
 OpenBabel10222415283D

 31 34  0  0  1  0  0  0  0  0999 V2000
  183.6260  178.9030  139.3760 C   0  0  2  0  0  3  0  0  0  0  0  0
  183.8700  178.6550  142.9660 C   0  0  0  0  0  0  0  0  0  0  0  0
  183.1330  178.8040  141.8140 C   0  0  0  0  0  3  0  0  0  0  0  0
  185.8380  178.8090  145.0020 C   0  0  1  0  0  3  0  0  0  0  0  0
  185.1820  178.5130  142.6160 C   0  0  0  0  0  0  0  0  0  0  0  0
  184.0010  178.7490  140.7790 N   0  0  0  0  0  0  0  0  0  0  0  0
  183.4300  178.6240  144.3620 C   0  0  0  0  0  3  0  0  0  0  0  0
  186.2580  178.2540  143.6200 C   0  0  0  0  0  2  0  0  0  0  0  0
  185.2570  178.5530  141.2440 C   0  0  0  0  0  3  0  0  0  0  0  0
  184.3600  178.6200  145.3290 C   0  0  0  0  0  0  0  0  0  0  0  0
  183.9540  178.5970  146.6230 F   0  0  0  0  0  0  0  0  0  0  0  0
  186.7220  178.2190  146.0890 C   0  0  0  0  0  2  0  0  0  0  0  0
  187.8390  177.3840  145.4780 C   0  0  0  0  0  2  0  0  0  0  0  0
  188.7290  177.2340  147.6850 O   0  0  0  0  0  0  0  0  0  0  0  0
  190.3030  177.1180  145.9810 N   0  0  0  0  0  1  0  0  0  0  0  0
  188.9610  177.2250  146.4490 C   0  0  0  0  0  0  0  0  0  0  0  0
  185.8530  178.9520  138.2690 O   0  0  0  0  0  0  0  0  0  0  0  0
  184.6630  177.1680  137.8090 C   0  0  0  0  0  3  0  0  0  0  0  0
  187.8790  178.4620  136.9530 C   0  0  0  0  0  1  0  0  0  0  0  0
  186.5190  178.1600  137.4670 C   0  0  0  0  0  0  0  0  0  0  0  0
  184.7050  178.3650  138.4950 C   0  0  0  0  0  0  0  0  0  0  0  0
  185.8360  177.0390  137.1520 N   0  0  0  0  0  0  0  0  0  0  0  0
  183.3890  180.3130  139.0720 N   0  0  0  0  0  2  0  0  0  0  0  0
  182.0480  180.4630  138.5090 C   0  0  0  0  0  2  0  0  0  0  0  0
  181.5790  181.8420  138.6240 N   0  0  0  0  0  2  0  0  0  0  0  0
  180.2300  182.9150  135.2970 C   0  0  0  0  0  3  0  0  0  0  0  0
  180.5590  182.1040  136.3880 C   0  0  0  0  0  3  0  0  0  0  0  0
  181.1600  184.8360  136.4450 C   0  0  0  0  0  3  0  0  0  0  0  0
  180.5350  184.2790  135.3240 C   0  0  0  0  0  3  0  0  0  0  0  0
  181.1880  182.6570  137.5140 C   0  0  0  0  0  0  0  0  0  0  0  0
  181.4850  184.0250  137.5380 C   0  0  0  0  0  3  0  0  0  0  0  0
  1 23  1  6  0  0  0
  1  6  1  0  0  0  0
  2  7  1  0  0  0  0
  3  2  2  0  0  0  0
  4 10  1  0  0  0  0
  4 12  1  1  0  0  0
  5  2  1  0  0  0  0
  5  8  1  0  0  0  0
  6  9  1  0  0  0  0
  6  3  1  0  0  0  0
  7 10  2  0  0  0  0
  8  4  1  0  0  0  0
  9  5  2  0  0  0  0
 10 11  1  0  0  0  0
 13 12  1  0  0  0  0
 13 16  1  0  0  0  0
 15 16  1  0  0  0  0
 16 14  2  0  0  0  0
 17 21  1  0  0  0  0
 18 21  2  0  0  0  0
 19 20  1  0  0  0  0
 20 17  1  0  0  0  0
 21  1  1  0  0  0  0
 22 20  2  0  0  0  0
 22 18  1  0  0  0  0
 24 25  1  0  0  0  0
 24 23  1  0  0  0  0
 26 29  2  0  0  0  0
 26 27  1  0  0  0  0
 27 30  2  0  0  0  0
 28 31  2  0  0  0  0
 29 28  1  0  0  0  0
 30 31  1  0  0  0  0
 30 25  1  0  0  0  0
M  END
>  <MODEL>
7

>  <REMARK>
 VINA RESULT:      -8.1      3.994      8.515
  Name = 
  9 active torsions:
  status: ('A' for Active; 'I' for Inactive)
    1  A    between atoms: C_2  and  N_13
    2  A    between atoms: C_2  and  N_25
    3  A    between atoms: C_2  and  C_28
    4  A    between atoms: N_4  and  C_22
    5  A    between atoms: N_4  and  C_27
    6  A    between atoms: C_8  and  C_23
    7  A    between atoms: C_11  and  C_21
    8  A    between atoms: C_11  and  C_23
    9  A    between atoms: C_22  and  N_25
                            x       y       z     vdW  Elec       q    Type
                         _______ _______ _______ _____ _____    ______ ____

>  <TORSDO>
F 9

$$$$
=
 OpenBabel10222415283D

 31 34  0  0  1  0  0  0  0  0999 V2000
  188.5710  177.7800  143.6150 C   0  0  2  0  0  3  0  0  0  0  0  0
  189.0290  178.1060  140.0510 C   0  0  0  0  0  0  0  0  0  0  0  0
  188.4430  178.4960  141.2340 C   0  0  0  0  0  3  0  0  0  0  0  0
  190.1110  176.6360  137.8810 C   0  0  1  0  0  3  0  0  0  0  0  0
  189.8950  177.0860  140.3220 C   0  0  0  0  0  0  0  0  0  0  0  0
  188.9580  177.7130  142.2080 N   0  0  0  0  0  0  0  0  0  0  0  0
  188.8430  178.6290  138.6970 C   0  0  0  0  0  3  0  0  0  0  0  0
  190.7630  176.4680  139.2740 C   0  0  0  0  0  2  0  0  0  0  0  0
  189.8630  176.8560  141.6770 C   0  0  0  0  0  3  0  0  0  0  0  0
  189.4170  177.9780  137.6730 C   0  0  0  0  0  0  0  0  0  0  0  0
  189.2410  178.4580  136.4160 F   0  0  0  0  0  0  0  0  0  0  0  0
  191.1390  176.3740  136.7920 C   0  0  0  0  0  2  0  0  0  0  0  0
  192.5460  176.3650  137.3730 C   0  0  0  0  0  2  0  0  0  0  0  0
  194.7740  176.2760  136.5260 O   0  0  0  0  0  0  0  0  0  0  0  0
  193.1220  175.6650  135.0120 N   0  0  0  0  0  1  0  0  0  0  0  0
  193.5500  176.0890  136.3030 C   0  0  0  0  0  0  0  0  0  0  0  0
  189.9500  176.6630  145.3580 O   0  0  0  0  0  0  0  0  0  0  0  0
  190.8790  178.4500  144.4880 C   0  0  0  0  0  3  0  0  0  0  0  0
  191.7090  176.0040  146.9550 C   0  0  0  0  0  1  0  0  0  0  0  0
  191.1250  176.8700  145.8980 C   0  0  0  0  0  0  0  0  0  0  0  0
  189.7740  177.6240  144.4850 C   0  0  0  0  0  0  0  0  0  0  0  0
  191.7490  177.9560  145.3970 N   0  0  0  0  0  0  0  0  0  0  0  0
  187.5950  176.7340  143.9160 N   0  0  0  0  0  2  0  0  0  0  0  0
  186.7630  177.1640  145.0370 C   0  0  0  0  0  2  0  0  0  0  0  0
  186.1140  178.4420  144.7510 N   0  0  0  0  0  2  0  0  0  0  0  0
  182.5060  179.0050  143.9070 C   0  0  0  0  0  3  0  0  0  0  0  0
  183.6910  178.9230  144.6460 C   0  0  0  0  0  3  0  0  0  0  0  0
  183.7180  178.4020  141.8970 C   0  0  0  0  0  3  0  0  0  0  0  0
  182.5190  178.7410  142.5340 C   0  0  0  0  0  3  0  0  0  0  0  0
  184.8960  178.5810  144.0120 C   0  0  0  0  0  0  0  0  0  0  0  0
  184.9030  178.3230  142.6360 C   0  0  0  0  0  3  0  0  0  0  0  0
  1 23  1  1  0  0  0
  1 21  1  0  0  0  0
  2  5  1  0  0  0  0
  2  3  2  0  0  0  0
  3  6  1  0  0  0  0
  4 12  1  6  0  0  0
  4  8  1  0  0  0  0
  5  9  2  0  0  0  0
  6  1  1  0  0  0  0
  7  2  1  0  0  0  0
  8  5  1  0  0  0  0
  9  6  1  0  0  0  0
 10  4  1  0  0  0  0
 10  7  2  0  0  0  0
 11 10  1  0  0  0  0
 12 13  1  0  0  0  0
 15 16  1  0  0  0  0
 16 14  2  0  0  0  0
 16 13  1  0  0  0  0
 17 20  1  0  0  0  0
 18 22  1  0  0  0  0
 20 19  1  0  0  0  0
 21 18  2  0  0  0  0
 21 17  1  0  0  0  0
 22 20  2  0  0  0  0
 23 24  1  0  0  0  0
 25 24  1  0  0  0  0
 26 27  1  0  0  0  0
 28 29  1  0  0  0  0
 28 31  2  0  0  0  0
 29 26  2  0  0  0  0
 30 27  2  0  0  0  0
 30 25  1  0  0  0  0
 31 30  1  0  0  0  0
M  END
>  <MODEL>
8

>  <REMARK>
 VINA RESULT:      -8.1      3.869      8.244
  Name = 
  9 active torsions:
  status: ('A' for Active; 'I' for Inactive)
    1  A    between atoms: C_2  and  N_13
    2  A    between atoms: C_2  and  N_25
    3  A    between atoms: C_2  and  C_28
    4  A    between atoms: N_4  and  C_22
    5  A    between atoms: N_4  and  C_27
    6  A    between atoms: C_8  and  C_23
    7  A    between atoms: C_11  and  C_21
    8  A    between atoms: C_11  and  C_23
    9  A    between atoms: C_22  and  N_25
                            x       y       z     vdW  Elec       q    Type
                         _______ _______ _______ _____ _____    ______ ____

>  <TORSDO>
F 9

$$$$
=
 OpenBabel10222415283D

 31 34  0  0  1  0  0  0  0  0999 V2000
  188.1970  178.4110  141.7030 C   0  0  2  0  0  3  0  0  0  0  0  0
  184.7110  178.7020  142.5860 C   0  0  0  0  0  0  0  0  0  0  0  0
  186.0370  178.5710  142.9310 C   0  0  0  0  0  3  0  0  0  0  0  0
  182.1610  178.4850  141.3650 C   0  0  1  0  0  3  0  0  0  0  0  0
  184.6310  178.7760  141.2250 C   0  0  0  0  0  0  0  0  0  0  0  0
  186.7470  178.5680  141.7800 N   0  0  0  0  0  0  0  0  0  0  0  0
  183.5240  178.7760  143.4390 C   0  0  0  0  0  3  0  0  0  0  0  0
  183.3400  178.9970  140.5050 C   0  0  0  0  0  2  0  0  0  0  0  0
  185.9100  178.7110  140.7250 C   0  0  0  0  0  3  0  0  0  0  0  0
  182.3140  178.7500  142.8600 C   0  0  0  0  0  0  0  0  0  0  0  0
  181.2130  178.8120  143.6490 F   0  0  0  0  0  0  0  0  0  0  0  0
  180.8500  179.0480  140.8390 C   0  0  0  0  0  2  0  0  0  0  0  0
  181.0280  179.5870  139.4260 C   0  0  0  0  0  2  0  0  0  0  0  0
  181.0310  181.7820  138.4940 O   0  0  0  0  0  0  0  0  0  0  0  0
  179.5440  181.4620  140.2500 N   0  0  0  0  0  1  0  0  0  0  0  0
  180.5360  180.9940  139.3400 C   0  0  0  0  0  0  0  0  0  0  0  0
  188.5050  178.9810  139.3020 O   0  0  0  0  0  0  0  0  0  0  0  0
  189.1720  176.9610  139.8360 C   0  0  0  0  0  3  0  0  0  0  0  0
  189.0430  178.9830  136.8960 C   0  0  0  0  0  1  0  0  0  0  0  0
  188.9840  178.3700  138.2470 C   0  0  0  0  0  0  0  0  0  0  0  0
  188.6080  178.1330  140.2950 C   0  0  0  0  0  0  0  0  0  0  0  0
  189.4170  177.1200  138.5170 N   0  0  0  0  0  0  0  0  0  0  0  0
  188.6300  177.3210  142.5750 N   0  0  0  0  0  2  0  0  0  0  0  0
  189.6110  177.8330  143.5300 C   0  0  0  0  0  2  0  0  0  0  0  0
  189.6120  177.0420  144.7590 N   0  0  0  0  0  2  0  0  0  0  0  0
  186.9850  178.2220  147.1560 C   0  0  0  0  0  3  0  0  0  0  0  0
  187.5960  177.8040  145.9700 C   0  0  0  0  0  3  0  0  0  0  0  0
  189.0700  177.8930  148.3470 C   0  0  0  0  0  3  0  0  0  0  0  0
  187.7230  178.2700  148.3430 C   0  0  0  0  0  3  0  0  0  0  0  0
  188.9480  177.4270  145.9670 C   0  0  0  0  0  0  0  0  0  0  0  0
  189.6800  177.4720  147.1600 C   0  0  0  0  0  3  0  0  0  0  0  0
  1  6  1  0  0  0  0
  1 23  1  1  0  0  0
  2  3  2  0  0  0  0
  2  7  1  0  0  0  0
  4 12  1  6  0  0  0
  4 10  1  0  0  0  0
  5  2  1  0  0  0  0
  6  3  1  0  0  0  0
  8  5  1  0  0  0  0
  8  4  1  0  0  0  0
  9  5  2  0  0  0  0
  9  6  1  0  0  0  0
 10  7  2  0  0  0  0
 10 11  1  0  0  0  0
 13 12  1  0  0  0  0
 14 16  2  0  0  0  0
 16 13  1  0  0  0  0
 16 15  1  0  0  0  0
 17 21  1  0  0  0  0
 18 21  2  0  0  0  0
 19 20  1  0  0  0  0
 20 22  2  0  0  0  0
 20 17  1  0  0  0  0
 21  1  1  0  0  0  0
 22 18  1  0  0  0  0
 23 24  1  0  0  0  0
 24 25  1  0  0  0  0
 25 30  1  0  0  0  0
 26 29  1  0  0  0  0
 27 26  2  0  0  0  0
 29 28  2  0  0  0  0
 30 27  1  0  0  0  0
 30 31  2  0  0  0  0
 31 28  1  0  0  0  0
M  END
>  <MODEL>
9

>  <REMARK>
 VINA RESULT:      -8.1      1.562      1.690
  Name = 
  9 active torsions:
  status: ('A' for Active; 'I' for Inactive)
    1  A    between atoms: C_2  and  N_13
    2  A    between atoms: C_2  and  N_25
    3  A    between atoms: C_2  and  C_28
    4  A    between atoms: N_4  and  C_22
    5  A    between atoms: N_4  and  C_27
    6  A    between atoms: C_8  and  C_23
    7  A    between atoms: C_11  and  C_21
    8  A    between atoms: C_11  and  C_23
    9  A    between atoms: C_22  and  N_25
                            x       y       z     vdW  Elec       q    Type
                         _______ _______ _______ _____ _____    ______ ____

>  <TORSDO>
F 9

$$$$
