=
 OpenBabel10222421073D

 29 31  0  0  0  0  0  0  0  0999 V2000
  183.0640  179.1550  144.5280 C   0  0  0  0  0  3  0  0  0  0  0  0
  184.4300  179.0080  144.2400 C   0  0  0  0  0  0  0  0  0  0  0  0
  182.5040  178.6580  142.2230 C   0  0  0  0  0  0  0  0  0  0  0  0
  182.1080  178.9810  143.5270 C   0  0  0  0  0  3  0  0  0  0  0  0
  184.8320  178.6850  142.9350 C   0  0  0  0  0  0  0  0  0  0  0  0
  183.8630  178.5120  141.9330 C   0  0  0  0  0  3  0  0  0  0  0  0
  181.5440  178.4740  141.1790 N   0  0  0  0  0  2  0  0  0  0  0  0
  180.1480  178.8600  141.3130 C   0  0  0  0  0  2  0  0  0  0  0  0
  179.6150  181.1630  141.5680 O   0  0  0  0  0  0  0  0  0  0  0  0
  179.9590  180.2380  140.7840 C   0  0  0  0  0  0  0  0  0  0  0  0
  180.2920  181.7930  138.9090 C   0  0  0  0  0  1  0  0  0  0  0  0
  180.1310  180.4790  139.4210 O   0  0  0  0  0  0  0  0  0  0  0  0
  186.1960  178.5400  142.6590 O   0  0  0  0  0  0  0  0  0  0  0  0
  186.7340  178.6680  141.3490 C   0  0  0  0  0  2  0  0  0  0  0  0
  188.2490  178.6430  141.4130 C   0  0  0  0  0  2  0  0  0  0  0  0
  189.1520  177.4990  139.5950 C   0  0  0  0  0  1  0  0  0  0  0  0
  188.7410  177.3470  140.9770 N   0  0  0  0  0  2  0  0  0  0  0  0
  185.4030  179.1780  145.2300 O   0  0  0  0  0  0  0  0  0  0  0  0
  185.5380  178.2980  146.3380 C   0  0  0  0  0  2  0  0  0  0  0  0
  187.7240  177.5470  145.3790 C   0  0  0  0  0  3  0  0  0  0  0  0
  191.7810  176.8790  147.7920 O   0  0  0  0  0  0  0  0  0  0  0  0
  188.9200  177.6430  147.9240 C   0  0  0  0  0  3  0  0  0  0  0  0
  186.9660  177.9160  146.5000 C   0  0  0  0  0  0  0  0  0  0  0  0
  189.0710  177.2220  145.5450 C   0  0  0  0  0  0  0  0  0  0  0  0
  191.6450  176.4920  145.1360 S   0  0  0  0  0  0  0  0  0  0  0  0
  187.5660  177.9710  147.7690 C   0  0  0  0  0  3  0  0  0  0  0  0
  189.9750  176.8130  144.4290 C   0  0  0  0  0  2  0  0  0  0  0  0
  191.0480  176.9040  146.7680 C   0  0  0  0  0  0  0  0  0  0  0  0
  189.6530  177.2680  146.7950 C   0  0  0  0  0  0  0  0  0  0  0  0
  2  1  1  0  0  0  0
  2 18  1  0  0  0  0
  3  4  1  0  0  0  0
  4  1  2  0  0  0  0
  5  2  2  0  0  0  0
  6  3  2  0  0  0  0
  6  5  1  0  0  0  0
  7  8  1  0  0  0  0
  7  3  1  0  0  0  0
 10  8  1  0  0  0  0
 10  9  2  0  0  0  0
 11 12  1  0  0  0  0
 12 10  1  0  0  0  0
 13  5  1  0  0  0  0
 14 15  1  0  0  0  0
 14 13  1  0  0  0  0
 16 17  1  0  0  0  0
 17 15  1  0  0  0  0
 18 19  1  0  0  0  0
 19 23  1  0  0  0  0
 20 24  2  0  0  0  0
 20 23  1  0  0  0  0
 23 26  2  0  0  0  0
 24 29  1  0  0  0  0
 25 28  1  0  0  0  0
 26 22  1  0  0  0  0
 27 25  1  0  0  0  0
 27 24  1  0  0  0  0
 28 29  1  0  0  0  0
 28 21  2  0  0  0  0
 29 22  2  0  0  0  0
M  END
>  <MODEL>
1

>  <REMARK>
 VINA RESULT:      -7.9      0.000      0.000
  Name = 
  11 active torsions:
  status: ('A' for Active; 'I' for Inactive)
    1  A    between atoms: C_2  and  O_26
    2  A    between atoms: C_4  and  N_17
    3  A    between atoms: C_9  and  C_16
    4  A    between atoms: C_9  and  O_25
    5  A    between atoms: C_10  and  C_23
    6  A    between atoms: C_16  and  N_17
    7  A    between atoms: O_18  and  C_19
    8  A    between atoms: O_18  and  C_22
    9  A    between atoms: C_22  and  C_29
   10  A    between atoms: C_23  and  O_26
   11  A    between atoms: N_28  and  C_29
                            x       y       z     vdW  Elec       q    Type
                         _______ _______ _______ _____ _____    ______ ____

>  <TORSDO>
F 11

$$$$
=
 OpenBabel10222421073D

 29 31  0  0  0  0  0  0  0  0999 V2000
  183.0630  179.0920  144.6780 C   0  0  0  0  0  3  0  0  0  0  0  0
  184.4230  179.0520  144.3340 C   0  0  0  0  0  0  0  0  0  0  0  0
  182.4460  178.6920  142.3680 C   0  0  0  0  0  0  0  0  0  0  0  0
  182.0810  178.9120  143.7020 C   0  0  0  0  0  3  0  0  0  0  0  0
  184.7940  178.8330  142.9990 C   0  0  0  0  0  0  0  0  0  0  0  0
  183.8000  178.6540  142.0230 C   0  0  0  0  0  3  0  0  0  0  0  0
  181.4610  178.5060  141.3500 N   0  0  0  0  0  2  0  0  0  0  0  0
  181.7980  178.1640  139.9770 C   0  0  0  0  0  2  0  0  0  0  0  0
  182.6110  175.9480  139.6900 O   0  0  0  0  0  0  0  0  0  0  0  0
  181.6050  176.7040  139.7660 C   0  0  0  0  0  0  0  0  0  0  0  0
  179.9700  174.8910  140.0540 C   0  0  0  0  0  1  0  0  0  0  0  0
  180.3140  176.1960  139.6180 O   0  0  0  0  0  0  0  0  0  0  0  0
  186.1520  178.7960  142.6660 O   0  0  0  0  0  0  0  0  0  0  0  0
  186.6150  178.6990  141.3250 C   0  0  0  0  0  2  0  0  0  0  0  0
  188.1270  178.5810  141.3120 C   0  0  0  0  0  2  0  0  0  0  0  0
  189.8270  177.1450  140.6160 C   0  0  0  0  0  1  0  0  0  0  0  0
  188.5440  177.7040  140.2310 N   0  0  0  0  0  2  0  0  0  0  0  0
  185.4210  179.2290  145.2980 O   0  0  0  0  0  0  0  0  0  0  0  0
  185.5630  178.3770  146.4270 C   0  0  0  0  0  2  0  0  0  0  0  0
  187.7260  177.5940  145.4420 C   0  0  0  0  0  3  0  0  0  0  0  0
  191.8020  176.8710  147.8080 O   0  0  0  0  0  0  0  0  0  0  0  0
  188.9540  177.6760  147.9720 C   0  0  0  0  0  3  0  0  0  0  0  0
  186.9870  177.9760  146.5720 C   0  0  0  0  0  0  0  0  0  0  0  0
  189.0710  177.2500  145.5930 C   0  0  0  0  0  0  0  0  0  0  0  0
  191.6280  176.4840  145.1540 S   0  0  0  0  0  0  0  0  0  0  0  0
  187.6030  178.0230  147.8340 C   0  0  0  0  0  3  0  0  0  0  0  0
  189.9550  176.8280  144.4660 C   0  0  0  0  0  2  0  0  0  0  0  0
  191.0580  176.9060  146.7930 C   0  0  0  0  0  0  0  0  0  0  0  0
  189.6680  177.2900  146.8360 C   0  0  0  0  0  0  0  0  0  0  0  0
  2  1  1  0  0  0  0
  2 18  1  0  0  0  0
  3  4  1  0  0  0  0
  4  1  2  0  0  0  0
  5  2  2  0  0  0  0
  6  3  2  0  0  0  0
  6  5  1  0  0  0  0
  7  3  1  0  0  0  0
  8  7  1  0  0  0  0
  9 10  2  0  0  0  0
 10  8  1  0  0  0  0
 12 10  1  0  0  0  0
 12 11  1  0  0  0  0
 13  5  1  0  0  0  0
 14 13  1  0  0  0  0
 15 14  1  0  0  0  0
 17 16  1  0  0  0  0
 17 15  1  0  0  0  0
 18 19  1  0  0  0  0
 19 23  1  0  0  0  0
 20 24  2  0  0  0  0
 20 23  1  0  0  0  0
 23 26  2  0  0  0  0
 24 29  1  0  0  0  0
 25 28  1  0  0  0  0
 26 22  1  0  0  0  0
 27 25  1  0  0  0  0
 27 24  1  0  0  0  0
 28 29  1  0  0  0  0
 28 21  2  0  0  0  0
 29 22  2  0  0  0  0
M  END
>  <MODEL>
2

>  <REMARK>
 VINA RESULT:      -7.8      1.661      2.126
  Name = 
  11 active torsions:
  status: ('A' for Active; 'I' for Inactive)
    1  A    between atoms: C_2  and  O_26
    2  A    between atoms: C_4  and  N_17
    3  A    between atoms: C_9  and  C_16
    4  A    between atoms: C_9  and  O_25
    5  A    between atoms: C_10  and  C_23
    6  A    between atoms: C_16  and  N_17
    7  A    between atoms: O_18  and  C_19
    8  A    between atoms: O_18  and  C_22
    9  A    between atoms: C_22  and  C_29
   10  A    between atoms: C_23  and  O_26
   11  A    between atoms: N_28  and  C_29
                            x       y       z     vdW  Elec       q    Type
                         _______ _______ _______ _____ _____    ______ ____

>  <TORSDO>
F 11

$$$$
=
 OpenBabel10222421073D

 29 31  0  0  0  0  0  0  0  0999 V2000
  186.2570  178.6410  146.9050 C   0  0  0  0  0  3  0  0  0  0  0  0
  186.1180  178.6320  145.5080 C   0  0  0  0  0  0  0  0  0  0  0  0
  188.2540  177.2770  146.7360 C   0  0  0  0  0  0  0  0  0  0  0  0
  187.3170  177.9690  147.5150 C   0  0  0  0  0  3  0  0  0  0  0  0
  187.0530  177.9390  144.7240 C   0  0  0  0  0  0  0  0  0  0  0  0
  188.1170  177.2650  145.3450 C   0  0  0  0  0  3  0  0  0  0  0  0
  189.3490  176.5810  147.3360 N   0  0  0  0  0  2  0  0  0  0  0  0
  190.6770  177.1580  147.4640 C   0  0  0  0  0  2  0  0  0  0  0  0
  192.4910  175.6440  147.2010 O   0  0  0  0  0  0  0  0  0  0  0  0
  191.6400  176.3830  146.6370 C   0  0  0  0  0  0  0  0  0  0  0  0
  191.5940  177.7780  144.6130 C   0  0  0  0  0  1  0  0  0  0  0  0
  191.6100  176.5100  145.2480 O   0  0  0  0  0  0  0  0  0  0  0  0
  186.9070  177.9360  143.3330 O   0  0  0  0  0  0  0  0  0  0  0  0
  187.9250  177.4820  142.4510 C   0  0  0  0  0  2  0  0  0  0  0  0
  188.2590  178.5710  141.4490 C   0  0  0  0  0  2  0  0  0  0  0  0
  189.4930  177.9220  139.5820 C   0  0  0  0  0  1  0  0  0  0  0  0
  188.1430  178.0510  140.0980 N   0  0  0  0  0  2  0  0  0  0  0  0
  185.0630  179.3000  144.8790 O   0  0  0  0  0  0  0  0  0  0  0  0
  183.6980  178.9870  145.1230 C   0  0  0  0  0  2  0  0  0  0  0  0
  183.6960  178.6950  142.6380 C   0  0  0  0  0  3  0  0  0  0  0  0
  179.8490  178.3980  139.8370 O   0  0  0  0  0  0  0  0  0  0  0  0
  180.8830  178.7370  142.5940 C   0  0  0  0  0  3  0  0  0  0  0  0
  182.9750  178.8680  143.8290 C   0  0  0  0  0  0  0  0  0  0  0  0
  183.0000  178.5530  141.4360 C   0  0  0  0  0  0  0  0  0  0  0  0
  182.3360  178.2240  138.8340 S   0  0  0  0  0  0  0  0  0  0  0  0
  181.5710  178.8810  143.8070 C   0  0  0  0  0  3  0  0  0  0  0  0
  183.6580  178.3660  140.1080 C   0  0  0  0  0  2  0  0  0  0  0  0
  181.0820  178.4120  140.0910 C   0  0  0  0  0  0  0  0  0  0  0  0
  181.6210  178.5760  141.4190 C   0  0  0  0  0  0  0  0  0  0  0  0
  1  4  1  0  0  0  0
  2  1  2  0  0  0  0
  3  7  1  0  0  0  0
  3  4  2  0  0  0  0
  5  6  2  0  0  0  0
  5  2  1  0  0  0  0
  6  3  1  0  0  0  0
  7  8  1  0  0  0  0
 10  9  2  0  0  0  0
 10  8  1  0  0  0  0
 11 12  1  0  0  0  0
 12 10  1  0  0  0  0
 13  5  1  0  0  0  0
 14 13  1  0  0  0  0
 15 14  1  0  0  0  0
 16 17  1  0  0  0  0
 17 15  1  0  0  0  0
 18 19  1  0  0  0  0
 18  2  1  0  0  0  0
 20 23  1  0  0  0  0
 21 28  2  0  0  0  0
 22 26  1  0  0  0  0
 23 19  1  0  0  0  0
 24 20  2  0  0  0  0
 25 28  1  0  0  0  0
 25 27  1  0  0  0  0
 26 23  2  0  0  0  0
 27 24  1  0  0  0  0
 28 29  1  0  0  0  0
 29 24  1  0  0  0  0
 29 22  2  0  0  0  0
M  END
>  <MODEL>
3

>  <REMARK>
 VINA RESULT:      -7.4      2.845      8.488
  Name = 
  11 active torsions:
  status: ('A' for Active; 'I' for Inactive)
    1  A    between atoms: C_2  and  O_26
    2  A    between atoms: C_4  and  N_17
    3  A    between atoms: C_9  and  C_16
    4  A    between atoms: C_9  and  O_25
    5  A    between atoms: C_10  and  C_23
    6  A    between atoms: C_16  and  N_17
    7  A    between atoms: O_18  and  C_19
    8  A    between atoms: O_18  and  C_22
    9  A    between atoms: C_22  and  C_29
   10  A    between atoms: C_23  and  O_26
   11  A    between atoms: N_28  and  C_29
                            x       y       z     vdW  Elec       q    Type
                         _______ _______ _______ _____ _____    ______ ____

>  <TORSDO>
F 11

$$$$
=
 OpenBabel10222421073D

 29 31  0  0  0  0  0  0  0  0999 V2000
  189.0200  178.2600  138.4270 C   0  0  0  0  0  3  0  0  0  0  0  0
  189.1950  177.9920  139.7940 C   0  0  0  0  0  0  0  0  0  0  0  0
  190.8370  176.7520  137.8780 C   0  0  0  0  0  0  0  0  0  0  0  0
  189.8350  177.6440  137.4760 C   0  0  0  0  0  3  0  0  0  0  0  0
  190.1990  177.1010  140.2020 C   0  0  0  0  0  0  0  0  0  0  0  0
  191.0150  176.4860  139.2390 C   0  0  0  0  0  3  0  0  0  0  0  0
  191.6850  176.1090  136.9240 N   0  0  0  0  0  2  0  0  0  0  0  0
  192.2340  174.7770  137.1260 C   0  0  0  0  0  2  0  0  0  0  0  0
  194.2690  175.9780  137.3920 O   0  0  0  0  0  0  0  0  0  0  0  0
  193.6600  174.8830  137.5350 C   0  0  0  0  0  0  0  0  0  0  0  0
  195.5140  173.8680  138.7910 C   0  0  0  0  0  1  0  0  0  0  0  0
  194.3150  173.7600  138.0400 O   0  0  0  0  0  0  0  0  0  0  0  0
  190.3660  176.8410  141.5660 O   0  0  0  0  0  0  0  0  0  0  0  0
  191.5130  177.2560  142.2960 C   0  0  0  0  0  2  0  0  0  0  0  0
  191.3610  176.8710  143.7550 C   0  0  0  0  0  2  0  0  0  0  0  0
  191.0890  179.1770  143.9510 C   0  0  0  0  0  1  0  0  0  0  0  0
  191.6610  178.0130  144.6010 N   0  0  0  0  0  2  0  0  0  0  0  0
  188.3890  178.5990  140.7620 O   0  0  0  0  0  0  0  0  0  0  0  0
  187.0080  178.3000  140.9120 C   0  0  0  0  0  2  0  0  0  0  0  0
  187.6260  177.8700  143.2990 C   0  0  0  0  0  3  0  0  0  0  0  0
  184.8130  178.4960  147.0970 O   0  0  0  0  0  0  0  0  0  0  0  0
  185.0600  178.6530  144.1480 C   0  0  0  0  0  3  0  0  0  0  0  0
  186.6610  178.2600  142.3580 C   0  0  0  0  0  0  0  0  0  0  0  0
  187.2930  177.8690  144.6550 C   0  0  0  0  0  0  0  0  0  0  0  0
  187.3470  177.6360  147.3500 S   0  0  0  0  0  0  0  0  0  0  0  0
  185.3830  178.6580  142.7830 C   0  0  0  0  0  3  0  0  0  0  0  0
  188.2340  177.4720  145.7440 C   0  0  0  0  0  2  0  0  0  0  0  0
  185.8770  178.1890  146.4990 C   0  0  0  0  0  0  0  0  0  0  0  0
  186.0330  178.2520  145.0660 C   0  0  0  0  0  0  0  0  0  0  0  0
  1  2  1  0  0  0  0
  2  5  2  0  0  0  0
  2 18  1  0  0  0  0
  3  6  2  0  0  0  0
  4  3  1  0  0  0  0
  4  1  2  0  0  0  0
  5 13  1  0  0  0  0
  6  5  1  0  0  0  0
  7  8  1  0  0  0  0
  7  3  1  0  0  0  0
  8 10  1  0  0  0  0
  9 10  2  0  0  0  0
 10 12  1  0  0  0  0
 12 11  1  0  0  0  0
 13 14  1  0  0  0  0
 14 15  1  0  0  0  0
 15 17  1  0  0  0  0
 16 17  1  0  0  0  0
 18 19  1  0  0  0  0
 19 23  1  0  0  0  0
 20 24  1  0  0  0  0
 22 29  1  0  0  0  0
 23 26  1  0  0  0  0
 23 20  2  0  0  0  0
 24 29  2  0  0  0  0
 24 27  1  0  0  0  0
 26 22  2  0  0  0  0
 27 25  1  0  0  0  0
 28 21  2  0  0  0  0
 28 25  1  0  0  0  0
 29 28  1  0  0  0  0
M  END
>  <MODEL>
4

>  <REMARK>
 VINA RESULT:      -7.3      4.254      8.573
  Name = 
  11 active torsions:
  status: ('A' for Active; 'I' for Inactive)
    1  A    between atoms: C_2  and  O_26
    2  A    between atoms: C_4  and  N_17
    3  A    between atoms: C_9  and  C_16
    4  A    between atoms: C_9  and  O_25
    5  A    between atoms: C_10  and  C_23
    6  A    between atoms: C_16  and  N_17
    7  A    between atoms: O_18  and  C_19
    8  A    between atoms: O_18  and  C_22
    9  A    between atoms: C_22  and  C_29
   10  A    between atoms: C_23  and  O_26
   11  A    between atoms: N_28  and  C_29
                            x       y       z     vdW  Elec       q    Type
                         _______ _______ _______ _____ _____    ______ ____

>  <TORSDO>
F 11

$$$$
=
 OpenBabel10222421073D

 29 31  0  0  0  0  0  0  0  0999 V2000
  190.2790  177.3520  140.8280 C   0  0  0  0  0  3  0  0  0  0  0  0
  189.0220  177.9040  140.5360 C   0  0  0  0  0  0  0  0  0  0  0  0
  190.6130  176.8230  138.4860 C   0  0  0  0  0  0  0  0  0  0  0  0
  191.0690  176.8150  139.8100 C   0  0  0  0  0  3  0  0  0  0  0  0
  188.5600  177.9130  139.2110 C   0  0  0  0  0  0  0  0  0  0  0  0
  189.3610  177.3710  138.1930 C   0  0  0  0  0  3  0  0  0  0  0  0
  191.4030  176.2790  137.4250 N   0  0  0  0  0  2  0  0  0  0  0  0
  192.3620  175.2040  137.6260 C   0  0  0  0  0  2  0  0  0  0  0  0
  193.9710  176.7680  136.8400 O   0  0  0  0  0  0  0  0  0  0  0  0
  193.7440  175.7480  137.5450 C   0  0  0  0  0  0  0  0  0  0  0  0
  194.8540  173.6850  138.2920 C   0  0  0  0  0  1  0  0  0  0  0  0
  194.7770  175.1010  138.2230 O   0  0  0  0  0  0  0  0  0  0  0  0
  187.3060  178.4660  138.9300 O   0  0  0  0  0  0  0  0  0  0  0  0
  186.5020  178.0390  137.8390 C   0  0  0  0  0  2  0  0  0  0  0  0
  185.0350  178.2090  138.1860 C   0  0  0  0  0  2  0  0  0  0  0  0
  183.5400  179.7620  139.0700 C   0  0  0  0  0  1  0  0  0  0  0  0
  184.8840  179.2330  139.2050 N   0  0  0  0  0  2  0  0  0  0  0  0
  188.2170  178.4470  141.5410 O   0  0  0  0  0  0  0  0  0  0  0  0
  187.2710  177.6760  142.2710 C   0  0  0  0  0  2  0  0  0  0  0  0
  189.0230  177.2990  144.0180 C   0  0  0  0  0  3  0  0  0  0  0  0
  188.4140  177.6100  148.7360 O   0  0  0  0  0  0  0  0  0  0  0  0
  187.1560  177.8090  146.0600 C   0  0  0  0  0  3  0  0  0  0  0  0
  187.6900  177.5930  143.6960 C   0  0  0  0  0  0  0  0  0  0  0  0
  189.4060  177.2560  145.3600 C   0  0  0  0  0  0  0  0  0  0  0  0
  190.8050  177.0150  147.6630 S   0  0  0  0  0  0  0  0  0  0  0  0
  186.7600  177.8550  144.7160 C   0  0  0  0  0  3  0  0  0  0  0  0
  190.7930  176.9520  145.8220 C   0  0  0  0  0  2  0  0  0  0  0  0
  189.0660  177.4180  147.6760 C   0  0  0  0  0  0  0  0  0  0  0  0
  188.4860  177.5050  146.3580 C   0  0  0  0  0  0  0  0  0  0  0  0
  2  1  1  0  0  0  0
  2 18  1  0  0  0  0
  3  4  1  0  0  0  0
  4  1  2  0  0  0  0
  5  2  2  0  0  0  0
  6  3  2  0  0  0  0
  6  5  1  0  0  0  0
  7  8  1  0  0  0  0
  7  3  1  0  0  0  0
  9 10  2  0  0  0  0
 10  8  1  0  0  0  0
 10 12  1  0  0  0  0
 12 11  1  0  0  0  0
 13  5  1  0  0  0  0
 14 15  1  0  0  0  0
 14 13  1  0  0  0  0
 15 17  1  0  0  0  0
 16 17  1  0  0  0  0
 18 19  1  0  0  0  0
 19 23  1  0  0  0  0
 20 24  1  0  0  0  0
 22 29  1  0  0  0  0
 23 20  2  0  0  0  0
 23 26  1  0  0  0  0
 24 27  1  0  0  0  0
 24 29  2  0  0  0  0
 25 28  1  0  0  0  0
 26 22  2  0  0  0  0
 27 25  1  0  0  0  0
 28 21  2  0  0  0  0
 29 28  1  0  0  0  0
M  END
>  <MODEL>
5

>  <REMARK>
 VINA RESULT:      -7.2      3.864      7.991
  Name = 
  11 active torsions:
  status: ('A' for Active; 'I' for Inactive)
    1  A    between atoms: C_2  and  O_26
    2  A    between atoms: C_4  and  N_17
    3  A    between atoms: C_9  and  C_16
    4  A    between atoms: C_9  and  O_25
    5  A    between atoms: C_10  and  C_23
    6  A    between atoms: C_16  and  N_17
    7  A    between atoms: O_18  and  C_19
    8  A    between atoms: O_18  and  C_22
    9  A    between atoms: C_22  and  C_29
   10  A    between atoms: C_23  and  O_26
   11  A    between atoms: N_28  and  C_29
                            x       y       z     vdW  Elec       q    Type
                         _______ _______ _______ _____ _____    ______ ____

>  <TORSDO>
F 11

$$$$
=
 OpenBabel10222421073D

 29 31  0  0  0  0  0  0  0  0999 V2000
  184.4480  178.7510  142.6620 C   0  0  0  0  0  3  0  0  0  0  0  0
  185.3940  178.8460  141.6300 C   0  0  0  0  0  0  0  0  0  0  0  0
  182.6580  178.6030  141.0350 C   0  0  0  0  0  0  0  0  0  0  0  0
  183.0890  178.6300  142.3670 C   0  0  0  0  0  3  0  0  0  0  0  0
  184.9670  178.8220  140.2940 C   0  0  0  0  0  0  0  0  0  0  0  0
  183.5980  178.6990  140.0050 C   0  0  0  0  0  3  0  0  0  0  0  0
  181.2720  178.4800  140.7060 N   0  0  0  0  0  2  0  0  0  0  0  0
  180.3640  179.6150  140.6750 C   0  0  0  0  0  2  0  0  0  0  0  0
  179.7190  180.9990  142.4980 O   0  0  0  0  0  0  0  0  0  0  0  0
  179.7900  179.8300  142.0310 C   0  0  0  0  0  0  0  0  0  0  0  0
  179.7800  178.5430  144.1250 C   0  0  0  0  0  1  0  0  0  0  0  0
  179.3690  178.7320  142.7810 O   0  0  0  0  0  0  0  0  0  0  0  0
  185.9180  178.9170  139.2720 O   0  0  0  0  0  0  0  0  0  0  0  0
  185.8190  178.1870  138.0560 C   0  0  0  0  0  2  0  0  0  0  0  0
  187.2060  177.9220  137.5020 C   0  0  0  0  0  2  0  0  0  0  0  0
  189.3800  178.0770  138.3280 C   0  0  0  0  0  1  0  0  0  0  0  0
  188.1610  178.8340  138.1080 N   0  0  0  0  0  2  0  0  0  0  0  0
  186.7600  178.9680  141.9060 O   0  0  0  0  0  0  0  0  0  0  0  0
  187.6320  177.8490  141.9870 C   0  0  0  0  0  2  0  0  0  0  0  0
  189.3770  177.3480  143.7090 C   0  0  0  0  0  3  0  0  0  0  0  0
  188.7150  177.1760  148.4280 O   0  0  0  0  0  0  0  0  0  0  0  0
  187.4780  177.6040  145.7690 C   0  0  0  0  0  3  0  0  0  0  0  0
  188.0400  177.6370  143.4020 C   0  0  0  0  0  0  0  0  0  0  0  0
  189.7480  177.1820  145.0450 C   0  0  0  0  0  0  0  0  0  0  0  0
  191.1310  176.7520  147.3310 S   0  0  0  0  0  0  0  0  0  0  0  0
  187.0940  177.7720  144.4310 C   0  0  0  0  0  3  0  0  0  0  0  0
  191.1380  176.8710  145.4930 C   0  0  0  0  0  2  0  0  0  0  0  0
  189.3820  177.1060  147.3620 C   0  0  0  0  0  0  0  0  0  0  0  0
  188.8130  177.3070  146.0510 C   0  0  0  0  0  0  0  0  0  0  0  0
  2 18  1  0  0  0  0
  2  1  2  0  0  0  0
  3  4  2  0  0  0  0
  4  1  1  0  0  0  0
  5  2  1  0  0  0  0
  6  5  2  0  0  0  0
  6  3  1  0  0  0  0
  7  3  1  0  0  0  0
  8  7  1  0  0  0  0
  8 10  1  0  0  0  0
 10  9  2  0  0  0  0
 10 12  1  0  0  0  0
 12 11  1  0  0  0  0
 13  5  1  0  0  0  0
 14 13  1  0  0  0  0
 15 14  1  0  0  0  0
 15 17  1  0  0  0  0
 17 16  1  0  0  0  0
 18 19  1  0  0  0  0
 19 23  1  0  0  0  0
 20 24  1  0  0  0  0
 22 29  1  0  0  0  0
 23 20  2  0  0  0  0
 23 26  1  0  0  0  0
 24 27  1  0  0  0  0
 24 29  2  0  0  0  0
 25 28  1  0  0  0  0
 26 22  2  0  0  0  0
 27 25  1  0  0  0  0
 28 21  2  0  0  0  0
 29 28  1  0  0  0  0
M  END
>  <MODEL>
6

>  <REMARK>
 VINA RESULT:      -7.2      1.860      2.828
  Name = 
  11 active torsions:
  status: ('A' for Active; 'I' for Inactive)
    1  A    between atoms: C_2  and  O_26
    2  A    between atoms: C_4  and  N_17
    3  A    between atoms: C_9  and  C_16
    4  A    between atoms: C_9  and  O_25
    5  A    between atoms: C_10  and  C_23
    6  A    between atoms: C_16  and  N_17
    7  A    between atoms: O_18  and  C_19
    8  A    between atoms: O_18  and  C_22
    9  A    between atoms: C_22  and  C_29
   10  A    between atoms: C_23  and  O_26
   11  A    between atoms: N_28  and  C_29
                            x       y       z     vdW  Elec       q    Type
                         _______ _______ _______ _____ _____    ______ ____

>  <TORSDO>
F 11

$$$$
=
 OpenBabel10222421073D

 29 31  0  0  0  0  0  0  0  0999 V2000
  191.9160  177.4190  141.0060 C   0  0  0  0  0  3  0  0  0  0  0  0
  190.5580  177.3510  140.6590 C   0  0  0  0  0  0  0  0  0  0  0  0
  192.5450  176.9310  138.7170 C   0  0  0  0  0  0  0  0  0  0  0  0
  192.9030  177.2110  140.0410 C   0  0  0  0  0  3  0  0  0  0  0  0
  190.1940  177.0690  139.3340 C   0  0  0  0  0  0  0  0  0  0  0  0
  191.1930  176.8600  138.3690 C   0  0  0  0  0  3  0  0  0  0  0  0
  193.5370  176.7130  137.7100 N   0  0  0  0  0  2  0  0  0  0  0  0
  193.4290  175.6630  136.7090 C   0  0  0  0  0  2  0  0  0  0  0  0
  195.0020  174.2880  135.5740 O   0  0  0  0  0  0  0  0  0  0  0  0
  194.7130  174.9180  136.6280 C   0  0  0  0  0  0  0  0  0  0  0  0
  195.4810  173.8820  138.7220 C   0  0  0  0  0  1  0  0  0  0  0  0
  195.5650  174.8960  137.7320 O   0  0  0  0  0  0  0  0  0  0  0  0
  188.8370  177.0030  138.9990 O   0  0  0  0  0  0  0  0  0  0  0  0
  188.3810  176.6660  137.6950 C   0  0  0  0  0  2  0  0  0  0  0  0
  187.4710  177.7600  137.1710 C   0  0  0  0  0  2  0  0  0  0  0  0
  185.5520  178.2520  138.3990 C   0  0  0  0  0  1  0  0  0  0  0  0
  186.9660  178.5540  138.2780 N   0  0  0  0  0  2  0  0  0  0  0  0
  189.5540  177.5570  141.6110 O   0  0  0  0  0  0  0  0  0  0  0  0
  189.5880  176.9710  142.9060 C   0  0  0  0  0  2  0  0  0  0  0  0
  187.2290  177.8000  143.0100 C   0  0  0  0  0  3  0  0  0  0  0  0
  184.7080  178.6410  146.9680 O   0  0  0  0  0  0  0  0  0  0  0  0
  187.2980  177.7680  145.8230 C   0  0  0  0  0  3  0  0  0  0  0  0
  188.3970  177.4090  143.6820 C   0  0  0  0  0  0  0  0  0  0  0  0
  186.1100  178.1780  143.7550 C   0  0  0  0  0  0  0  0  0  0  0  0
  183.6510  179.0040  144.5250 S   0  0  0  0  0  0  0  0  0  0  0  0
  188.4280  177.3860  145.0860 C   0  0  0  0  0  3  0  0  0  0  0  0
  184.8150  178.6140  143.1520 C   0  0  0  0  0  2  0  0  0  0  0  0
  184.9030  178.5810  145.7260 C   0  0  0  0  0  0  0  0  0  0  0  0
  186.1490  178.1630  145.1340 C   0  0  0  0  0  0  0  0  0  0  0  0
  2  1  1  0  0  0  0
  2 18  1  0  0  0  0
  3  4  1  0  0  0  0
  4  1  2  0  0  0  0
  5  2  2  0  0  0  0
  6  3  2  0  0  0  0
  6  5  1  0  0  0  0
  7  3  1  0  0  0  0
  8  7  1  0  0  0  0
  9 10  2  0  0  0  0
 10  8  1  0  0  0  0
 10 12  1  0  0  0  0
 12 11  1  0  0  0  0
 13  5  1  0  0  0  0
 14 13  1  0  0  0  0
 15 14  1  0  0  0  0
 15 17  1  0  0  0  0
 17 16  1  0  0  0  0
 18 19  1  0  0  0  0
 19 23  1  0  0  0  0
 20 23  2  0  0  0  0
 20 24  1  0  0  0  0
 23 26  1  0  0  0  0
 24 29  2  0  0  0  0
 25 28  1  0  0  0  0
 26 22  2  0  0  0  0
 27 24  1  0  0  0  0
 27 25  1  0  0  0  0
 28 21  2  0  0  0  0
 29 28  1  0  0  0  0
 29 22  1  0  0  0  0
M  END
>  <MODEL>
7

>  <REMARK>
 VINA RESULT:      -7.1      4.694      9.160
  Name = 
  11 active torsions:
  status: ('A' for Active; 'I' for Inactive)
    1  A    between atoms: C_2  and  O_26
    2  A    between atoms: C_4  and  N_17
    3  A    between atoms: C_9  and  C_16
    4  A    between atoms: C_9  and  O_25
    5  A    between atoms: C_10  and  C_23
    6  A    between atoms: C_16  and  N_17
    7  A    between atoms: O_18  and  C_19
    8  A    between atoms: O_18  and  C_22
    9  A    between atoms: C_22  and  C_29
   10  A    between atoms: C_23  and  O_26
   11  A    between atoms: N_28  and  C_29
                            x       y       z     vdW  Elec       q    Type
                         _______ _______ _______ _____ _____    ______ ____

>  <TORSDO>
F 11

$$$$
=
 OpenBabel10222421073D

 29 31  0  0  0  0  0  0  0  0999 V2000
  182.4950  178.4940  141.4040 C   0  0  0  0  0  3  0  0  0  0  0  0
  183.8910  178.5450  141.5350 C   0  0  0  0  0  0  0  0  0  0  0  0
  182.6520  179.3830  139.1540 C   0  0  0  0  0  0  0  0  0  0  0  0
  181.8790  178.9090  140.2220 C   0  0  0  0  0  3  0  0  0  0  0  0
  184.6700  179.0200  140.4690 C   0  0  0  0  0  0  0  0  0  0  0  0
  184.0430  179.4370  139.2830 C   0  0  0  0  0  3  0  0  0  0  0  0
  182.0460  179.8150  137.9330 N   0  0  0  0  0  2  0  0  0  0  0  0
  180.6930  180.3410  137.8670 C   0  0  0  0  0  2  0  0  0  0  0  0
  179.8540  181.9190  139.4350 O   0  0  0  0  0  0  0  0  0  0  0  0
  180.6530  181.6930  138.4860 C   0  0  0  0  0  0  0  0  0  0  0  0
  181.0740  183.5240  136.8990 C   0  0  0  0  0  1  0  0  0  0  0  0
  181.4740  182.7030  137.9850 O   0  0  0  0  0  0  0  0  0  0  0  0
  186.0610  179.0670  140.6090 O   0  0  0  0  0  0  0  0  0  0  0  0
  186.9410  178.2620  139.8350 C   0  0  0  0  0  2  0  0  0  0  0  0
  188.3180  178.2500  140.4720 C   0  0  0  0  0  2  0  0  0  0  0  0
  189.8590  177.5930  138.8520 C   0  0  0  0  0  1  0  0  0  0  0  0
  189.0800  177.1150  139.9780 N   0  0  0  0  0  2  0  0  0  0  0  0
  184.5260  178.1330  142.7100 O   0  0  0  0  0  0  0  0  0  0  0  0
  184.1560  178.6140  143.9950 C   0  0  0  0  0  2  0  0  0  0  0  0
  186.4930  177.8720  144.4970 C   0  0  0  0  0  3  0  0  0  0  0  0
  188.6060  177.9070  148.7710 O   0  0  0  0  0  0  0  0  0  0  0  0
  186.1430  178.4760  147.2230 C   0  0  0  0  0  3  0  0  0  0  0  0
  185.2640  178.3680  144.9570 C   0  0  0  0  0  0  0  0  0  0  0  0
  187.5320  177.6760  145.4090 C   0  0  0  0  0  0  0  0  0  0  0  0
  189.9010  177.0740  146.5680 S   0  0  0  0  0  0  0  0  0  0  0  0
  185.0930  178.6770  146.3160 C   0  0  0  0  0  3  0  0  0  0  0  0
  188.8800  177.1520  145.0380 C   0  0  0  0  0  2  0  0  0  0  0  0
  188.5360  177.7080  147.5290 C   0  0  0  0  0  0  0  0  0  0  0  0
  187.3550  177.9720  146.7450 C   0  0  0  0  0  0  0  0  0  0  0  0
  1  2  1  0  0  0  0
  2 18  1  0  0  0  0
  3  6  2  0  0  0  0
  3  4  1  0  0  0  0
  4  1  2  0  0  0  0
  5 13  1  0  0  0  0
  5  2  2  0  0  0  0
  6  5  1  0  0  0  0
  7  3  1  0  0  0  0
  8  7  1  0  0  0  0
  8 10  1  0  0  0  0
 10  9  2  0  0  0  0
 11 12  1  0  0  0  0
 12 10  1  0  0  0  0
 14 15  1  0  0  0  0
 14 13  1  0  0  0  0
 16 17  1  0  0  0  0
 17 15  1  0  0  0  0
 18 19  1  0  0  0  0
 19 23  1  0  0  0  0
 20 23  2  0  0  0  0
 20 24  1  0  0  0  0
 23 26  1  0  0  0  0
 24 29  2  0  0  0  0
 25 28  1  0  0  0  0
 26 22  2  0  0  0  0
 27 24  1  0  0  0  0
 27 25  1  0  0  0  0
 28 21  2  0  0  0  0
 29 22  1  0  0  0  0
 29 28  1  0  0  0  0
M  END
>  <MODEL>
8

>  <REMARK>
 VINA RESULT:      -7.0      1.841      2.603
  Name = 
  11 active torsions:
  status: ('A' for Active; 'I' for Inactive)
    1  A    between atoms: C_2  and  O_26
    2  A    between atoms: C_4  and  N_17
    3  A    between atoms: C_9  and  C_16
    4  A    between atoms: C_9  and  O_25
    5  A    between atoms: C_10  and  C_23
    6  A    between atoms: C_16  and  N_17
    7  A    between atoms: O_18  and  C_19
    8  A    between atoms: O_18  and  C_22
    9  A    between atoms: C_22  and  C_29
   10  A    between atoms: C_23  and  O_26
   11  A    between atoms: N_28  and  C_29
                            x       y       z     vdW  Elec       q    Type
                         _______ _______ _______ _____ _____    ______ ____

>  <TORSDO>
F 11

$$$$
=
 OpenBabel10222421073D

 29 31  0  0  0  0  0  0  0  0999 V2000
  188.8280  178.2190  141.1860 C   0  0  0  0  0  3  0  0  0  0  0  0
  189.7910  177.2630  140.8260 C   0  0  0  0  0  0  0  0  0  0  0  0
  187.8300  178.0740  138.9820 C   0  0  0  0  0  0  0  0  0  0  0  0
  187.8540  178.6210  140.2700 C   0  0  0  0  0  3  0  0  0  0  0  0
  189.7720  176.7120  139.5350 C   0  0  0  0  0  0  0  0  0  0  0  0
  188.7890  177.1230  138.6200 C   0  0  0  0  0  3  0  0  0  0  0  0
  186.8430  178.4690  138.0250 N   0  0  0  0  0  2  0  0  0  0  0  0
  185.4680  178.0000  138.0700 C   0  0  0  0  0  2  0  0  0  0  0  0
  184.6150  180.0160  138.9980 O   0  0  0  0  0  0  0  0  0  0  0  0
  184.7140  178.7630  139.1000 C   0  0  0  0  0  0  0  0  0  0  0  0
  182.8580  177.5160  140.1230 C   0  0  0  0  0  1  0  0  0  0  0  0
  184.1560  178.0870  140.1850 O   0  0  0  0  0  0  0  0  0  0  0  0
  190.7350  175.7600  139.1860 O   0  0  0  0  0  0  0  0  0  0  0  0
  191.4180  175.7760  137.9390 C   0  0  0  0  0  2  0  0  0  0  0  0
  192.6200  176.6970  138.0240 C   0  0  0  0  0  2  0  0  0  0  0  0
  194.0860  176.0060  136.3500 C   0  0  0  0  0  1  0  0  0  0  0  0
  193.8380  175.9430  137.7780 N   0  0  0  0  0  2  0  0  0  0  0  0
  190.7740  176.8470  141.7280 O   0  0  0  0  0  0  0  0  0  0  0  0
  190.5580  175.8150  142.6820 C   0  0  0  0  0  2  0  0  0  0  0  0
  188.7950  176.6970  144.2230 C   0  0  0  0  0  3  0  0  0  0  0  0
  189.4750  178.3100  148.6570 O   0  0  0  0  0  0  0  0  0  0  0  0
  190.7210  177.1860  146.2140 C   0  0  0  0  0  3  0  0  0  0  0  0
  190.1470  176.4130  143.9790 C   0  0  0  0  0  0  0  0  0  0  0  0
  188.4230  177.2300  145.4580 C   0  0  0  0  0  0  0  0  0  0  0  0
  187.0290  178.2340  147.5480 S   0  0  0  0  0  0  0  0  0  0  0  0
  191.1070  176.6510  144.9770 C   0  0  0  0  0  3  0  0  0  0  0  0
  187.0170  177.5720  145.8300 C   0  0  0  0  0  2  0  0  0  0  0  0
  188.7990  178.0160  147.6370 C   0  0  0  0  0  0  0  0  0  0  0  0
  189.3710  177.4700  146.4310 C   0  0  0  0  0  0  0  0  0  0  0  0
  2  1  1  0  0  0  0
  2 18  1  0  0  0  0
  3  4  1  0  0  0  0
  4  1  2  0  0  0  0
  5  2  2  0  0  0  0
  6  3  2  0  0  0  0
  6  5  1  0  0  0  0
  7  8  1  0  0  0  0
  7  3  1  0  0  0  0
  8 10  1  0  0  0  0
  9 10  2  0  0  0  0
 10 12  1  0  0  0  0
 11 12  1  0  0  0  0
 13  5  1  0  0  0  0
 14 15  1  0  0  0  0
 14 13  1  0  0  0  0
 16 17  1  0  0  0  0
 17 15  1  0  0  0  0
 18 19  1  0  0  0  0
 19 23  1  0  0  0  0
 20 24  1  0  0  0  0
 22 29  1  0  0  0  0
 23 20  2  0  0  0  0
 23 26  1  0  0  0  0
 24 27  1  0  0  0  0
 24 29  2  0  0  0  0
 25 28  1  0  0  0  0
 26 22  2  0  0  0  0
 27 25  1  0  0  0  0
 28 21  2  0  0  0  0
 29 28  1  0  0  0  0
M  END
>  <MODEL>
9

>  <REMARK>
 VINA RESULT:      -7.0      3.298      5.339
  Name = 
  11 active torsions:
  status: ('A' for Active; 'I' for Inactive)
    1  A    between atoms: C_2  and  O_26
    2  A    between atoms: C_4  and  N_17
    3  A    between atoms: C_9  and  C_16
    4  A    between atoms: C_9  and  O_25
    5  A    between atoms: C_10  and  C_23
    6  A    between atoms: C_16  and  N_17
    7  A    between atoms: O_18  and  C_19
    8  A    between atoms: O_18  and  C_22
    9  A    between atoms: C_22  and  C_29
   10  A    between atoms: C_23  and  O_26
   11  A    between atoms: N_28  and  C_29
                            x       y       z     vdW  Elec       q    Type
                         _______ _______ _______ _____ _____    ______ ____

>  <TORSDO>
F 11

$$$$
