=
 OpenBabel10222420073D

 27 31  0  0  1  0  0  0  0  0999 V2000
  184.9160  179.3250  143.1440 C   0  0  1  0  0  3  0  0  0  0  0  0
  188.9430  174.9600  142.8710 O   0  0  0  0  0  1  0  0  0  0  0  0
  187.9780  177.6430  143.7720 C   0  0  0  0  0  0  0  0  0  0  0  0
  187.2150  177.5720  146.4750 C   0  0  0  0  0  3  0  0  0  0  0  0
  186.2430  177.6990  145.4900 C   0  0  0  0  0  0  0  0  0  0  0  0
  183.5440  179.2570  142.8910 O   0  0  0  0  0  1  0  0  0  0  0  0
  190.0330  175.7820  142.5740 C   0  0  2  0  0  3  0  0  0  0  0  0
  191.3490  177.8480  145.6180 C   0  0  0  0  0  2  0  0  0  0  0  0
  189.5490  177.4930  147.2820 C   0  0  0  0  0  2  0  0  0  0  0  0
  190.9390  177.0550  146.8470 C   0  0  0  0  0  2  0  0  0  0  0  0
  190.4410  177.4880  144.4380 C   0  0  1  0  0  3  0  0  0  0  0  0
  192.1820  176.0950  143.5400 O   0  0  0  0  0  1  0  0  0  0  0  0
  184.9550  178.6270  140.7950 O   0  0  0  0  0  1  0  0  0  0  0  0
  188.2000  179.1160  141.8320 C   0  0  0  0  0  3  0  0  0  0  0  0
  190.8190  176.1220  143.8420 C   0  0  2  0  0  3  0  0  0  0  0  0
  188.3220  177.7020  142.2940 C   0  0  1  0  0  3  0  0  0  0  0  0
  184.5630  177.7410  146.0110 Cl  0  0  0  0  0  0  0  0  0  0  0  0
  189.6120  177.0310  141.7880 C   0  0  2  0  0  3  0  0  0  0  0  0
  185.5100  177.9120  143.0900 C   0  0  2  0  0  3  0  0  0  0  0  0
  188.9660  177.5630  144.7910 C   0  0  0  0  0  0  0  0  0  0  0  0
  186.9920  179.6750  141.7140 C   0  0  0  0  0  3  0  0  0  0  0  0
  188.5640  177.5040  146.1460 C   0  0  0  0  0  0  0  0  0  0  0  0
  186.6100  177.7830  144.1320 C   0  0  0  0  0  0  0  0  0  0  0  0
  185.7190  178.8990  141.9330 C   0  0  2  0  0  0  0  0  0  0  0  0
  190.5250  176.0250  139.6850 O   0  0  0  0  0  0  0  0  0  0  0  0
  189.5030  176.7100  140.3340 C   0  0  0  0  0  0  0  0  0  0  0  0
  188.4840  177.0690  139.6890 O   0  0  0  0  0  1  0  0  0  0  0  0
  1  6  1  6  0  0  0
  3 23  2  0  0  0  0
  3 20  1  0  0  0  0
  5 17  1  0  0  0  0
  5  4  2  0  0  0  0
  7  2  1  1  0  0  0
  7 15  1  0  0  0  0
  8 10  1  0  0  0  0
 10  9  1  0  0  0  0
 11 20  1  0  0  0  0
 11  8  1  1  0  0  0
 15 12  1  6  0  0  0
 15 11  1  0  0  0  0
 16 14  1  1  0  0  0
 16  3  1  0  0  0  0
 18 26  1  6  0  0  0
 18 16  1  0  0  0  0
 18  7  1  0  0  0  0
 19  1  1  0  0  0  0
 19 23  1  1  0  0  0
 20 22  2  0  0  0  0
 21 14  2  0  0  0  0
 21 24  1  0  0  0  0
 22  4  1  0  0  0  0
 22  9  1  0  0  0  0
 23  5  1  0  0  0  0
 24 13  1  6  0  0  0
 24 19  1  0  0  0  0
 24  1  1  0  0  0  0
 25 26  2  0  0  0  0
 27 26  1  0  0  0  0
M  END
>  <MODEL>
1

>  <REMARK>
 VINA RESULT:      -7.9      0.000      0.000
  Name = 
  1 active torsions:
  status: ('A' for Active; 'I' for Inactive)
    1  A    between atoms: C_18  and  C_23
                            x       y       z     vdW  Elec       q    Type
                         _______ _______ _______ _____ _____    ______ ____

>  <TORSDO>
F 1

$$$$
=
 OpenBabel10222420073D

 27 31  0  0  1  0  0  0  0  0999 V2000
  190.4360  176.2230  145.6080 C   0  0  1  0  0  3  0  0  0  0  0  0
  187.9200  180.3280  142.1200 O   0  0  0  0  0  1  0  0  0  0  0  0
  187.8430  177.8870  143.8450 C   0  0  0  0  0  0  0  0  0  0  0  0
  186.7150  178.4710  146.3510 C   0  0  0  0  0  3  0  0  0  0  0  0
  188.0750  178.2020  146.2560 C   0  0  0  0  0  0  0  0  0  0  0  0
  191.6550  176.2910  146.2880 O   0  0  0  0  0  1  0  0  0  0  0  0
  187.1990  179.4290  141.3290 C   0  0  2  0  0  3  0  0  0  0  0  0
  184.0670  177.9050  143.0990 C   0  0  0  0  0  2  0  0  0  0  0  0
  184.4200  178.6160  145.4460 C   0  0  0  0  0  2  0  0  0  0  0  0
  183.6720  178.9200  144.1570 C   0  0  0  0  0  2  0  0  0  0  0  0
  185.5460  178.0750  142.7390 C   0  0  1  0  0  3  0  0  0  0  0  0
  184.9090  179.2230  140.7250 O   0  0  0  0  0  1  0  0  0  0  0  0
  191.9640  176.4830  143.7090 O   0  0  0  0  0  1  0  0  0  0  0  0
  188.7740  176.0800  142.4830 C   0  0  0  0  0  3  0  0  0  0  0  0
  185.7600  179.2980  141.8310 C   0  0  2  0  0  3  0  0  0  0  0  0
  188.5140  177.5490  142.5250 C   0  0  1  0  0  3  0  0  0  0  0  0
  189.0270  178.3110  147.7310 Cl  0  0  0  0  0  0  0  0  0  0  0  0
  187.9090  178.0740  141.2110 C   0  0  2  0  0  3  0  0  0  0  0  0
  190.1430  177.5820  144.9600 C   0  0  2  0  0  3  0  0  0  0  0  0
  186.4450  178.1160  143.9620 C   0  0  0  0  0  0  0  0  0  0  0  0
  189.7240  175.5510  143.2600 C   0  0  0  0  0  3  0  0  0  0  0  0
  185.8970  178.4330  145.2270 C   0  0  0  0  0  0  0  0  0  0  0  0
  188.6490  177.8610  145.0150 C   0  0  0  0  0  0  0  0  0  0  0  0
  190.6300  176.3960  144.1160 C   0  0  2  0  0  0  0  0  0  0  0  0
  190.1960  177.5550  140.3350 O   0  0  0  0  0  1  0  0  0  0  0  0
  188.9460  178.1300  140.1380 C   0  0  0  0  0  0  0  0  0  0  0  0
  188.6890  178.7100  139.0510 O   0  0  0  0  0  0  0  0  0  0  0  0
  1  6  1  1  0  0  0
  3 20  2  0  0  0  0
  3 23  1  0  0  0  0
  5  4  1  0  0  0  0
  5 17  1  0  0  0  0
  7 15  1  0  0  0  0
  7  2  1  1  0  0  0
  8 10  1  0  0  0  0
 10  9  1  0  0  0  0
 11  8  1  1  0  0  0
 11 20  1  0  0  0  0
 14 21  2  0  0  0  0
 15 12  1  6  0  0  0
 15 11  1  0  0  0  0
 16 14  1  6  0  0  0
 16  3  1  0  0  0  0
 18 26  1  6  0  0  0
 18  7  1  0  0  0  0
 18 16  1  0  0  0  0
 19 23  1  6  0  0  0
 19  1  1  0  0  0  0
 20 22  1  0  0  0  0
 21 24  1  0  0  0  0
 22  9  1  0  0  0  0
 22  4  2  0  0  0  0
 23  5  2  0  0  0  0
 24 13  1  6  0  0  0
 24 19  1  0  0  0  0
 24  1  1  0  0  0  0
 26 25  1  0  0  0  0
 27 26  2  0  0  0  0
M  END
>  <MODEL>
2

>  <REMARK>
 VINA RESULT:      -7.1      1.644      5.087
  Name = 
  1 active torsions:
  status: ('A' for Active; 'I' for Inactive)
    1  A    between atoms: C_18  and  C_23
                            x       y       z     vdW  Elec       q    Type
                         _______ _______ _______ _____ _____    ______ ____

>  <TORSDO>
F 1

$$$$
=
 OpenBabel10222420073D

 27 31  0  0  1  0  0  0  0  0999 V2000
  188.2760  177.1270  146.6440 C   0  0  1  0  0  3  0  0  0  0  0  0
  187.0440  180.3190  141.7820 O   0  0  0  0  0  1  0  0  0  0  0  0
  186.4550  178.1770  143.7840 C   0  0  0  0  0  0  0  0  0  0  0  0
  184.4330  178.9950  145.5540 C   0  0  0  0  0  3  0  0  0  0  0  0
  185.7400  178.8810  146.0100 C   0  0  0  0  0  0  0  0  0  0  0  0
  189.1410  177.4440  147.6940 O   0  0  0  0  0  1  0  0  0  0  0  0
  186.7270  179.2300  140.9660 C   0  0  2  0  0  3  0  0  0  0  0  0
  183.2480  177.6260  141.7300 C   0  0  0  0  0  2  0  0  0  0  0  0
  182.6470  178.7220  143.8680 C   0  0  0  0  0  2  0  0  0  0  0  0
  182.4260  178.7350  142.3630 C   0  0  0  0  0  2  0  0  0  0  0  0
  184.7400  177.9170  141.9060 C   0  0  1  0  0  3  0  0  0  0  0  0
  184.8510  178.6590  139.6220 O   0  0  0  0  0  1  0  0  0  0  0  0
  190.3920  177.2780  145.4150 O   0  0  0  0  0  1  0  0  0  0  0  0
  187.9300  176.3100  143.2150 C   0  0  0  0  0  3  0  0  0  0  0  0
  185.2140  179.0030  140.9260 C   0  0  2  0  0  3  0  0  0  0  0  0
  187.5940  177.7270  142.8850 C   0  0  1  0  0  3  0  0  0  0  0  0
  186.0560  179.3280  147.6820 Cl  0  0  0  0  0  0  0  0  0  0  0  0
  187.5020  177.9680  141.3670 C   0  0  2  0  0  3  0  0  0  0  0  0
  188.1760  178.3260  145.6930 C   0  0  2  0  0  3  0  0  0  0  0  0
  185.1070  178.2510  143.3410 C   0  0  0  0  0  0  0  0  0  0  0  0
  188.5430  176.0240  144.3670 C   0  0  0  0  0  3  0  0  0  0  0  0
  184.1040  178.6880  144.2380 C   0  0  0  0  0  0  0  0  0  0  0  0
  186.7590  178.4270  145.1490 C   0  0  0  0  0  0  0  0  0  0  0  0
  189.0100  177.0930  145.3200 C   0  0  2  0  0  0  0  0  0  0  0  0
  189.9980  177.8760  141.5500 O   0  0  0  0  0  1  0  0  0  0  0  0
  188.8630  177.9850  140.7530 C   0  0  0  0  0  0  0  0  0  0  0  0
  188.9850  178.1080  139.5070 O   0  0  0  0  0  0  0  0  0  0  0  0
  1  6  1  1  0  0  0
  3 23  1  0  0  0  0
  4  5  1  0  0  0  0
  5 17  1  0  0  0  0
  7 18  1  0  0  0  0
  7  2  1  1  0  0  0
  8 10  1  0  0  0  0
  9 22  1  0  0  0  0
 10  9  1  0  0  0  0
 11  8  1  1  0  0  0
 11 20  1  0  0  0  0
 14 21  2  0  0  0  0
 15 12  1  6  0  0  0
 15  7  1  0  0  0  0
 15 11  1  0  0  0  0
 16 14  1  6  0  0  0
 16  3  1  0  0  0  0
 18 26  1  1  0  0  0
 18 16  1  0  0  0  0
 19 23  1  6  0  0  0
 19  1  1  0  0  0  0
 20  3  2  0  0  0  0
 20 22  1  0  0  0  0
 21 24  1  0  0  0  0
 22  4  2  0  0  0  0
 23  5  2  0  0  0  0
 24 13  1  1  0  0  0
 24 19  1  0  0  0  0
 24  1  1  0  0  0  0
 26 25  1  0  0  0  0
 27 26  2  0  0  0  0
M  END
>  <MODEL>
3

>  <REMARK>
 VINA RESULT:      -6.8      1.999      5.283
  Name = 
  1 active torsions:
  status: ('A' for Active; 'I' for Inactive)
    1  A    between atoms: C_18  and  C_23
                            x       y       z     vdW  Elec       q    Type
                         _______ _______ _______ _____ _____    ______ ____

>  <TORSDO>
F 1

$$$$
=
 OpenBabel10222420073D

 27 31  0  0  1  0  0  0  0  0999 V2000
  185.4020  177.8230  138.5980 C   0  0  1  0  0  3  0  0  0  0  0  0
  184.6530  180.7260  143.7310 O   0  0  0  0  0  1  0  0  0  0  0  0
  185.4830  178.3570  142.1050 C   0  0  0  0  0  0  0  0  0  0  0  0
  188.2810  178.2090  141.9160 C   0  0  0  0  0  3  0  0  0  0  0  0
  187.5340  178.5520  140.7960 C   0  0  0  0  0  0  0  0  0  0  0  0
  185.4740  178.3490  137.3060 O   0  0  0  0  0  1  0  0  0  0  0  0
  184.0380  179.6700  144.4110 C   0  0  2  0  0  3  0  0  0  0  0  0
  186.4890  176.8260  145.4900 C   0  0  0  0  0  2  0  0  0  0  0  0
  188.5430  177.4340  144.2470 C   0  0  0  0  0  2  0  0  0  0  0  0
  187.8500  177.4910  145.6000 C   0  0  0  0  0  2  0  0  0  0  0  0
  185.5860  177.6360  144.5570 C   0  0  1  0  0  3  0  0  0  0  0  0
  184.4570  178.5580  146.4690 O   0  0  0  0  0  1  0  0  0  0  0  0
  183.1850  178.8550  138.4400 O   0  0  0  0  0  1  0  0  0  0  0  0
  183.4080  177.2300  141.4650 C   0  0  0  0  0  3  0  0  0  0  0  0
  185.0560  178.9000  145.2540 C   0  0  2  0  0  3  0  0  0  0  0  0
  183.9660  178.4410  142.1350 C   0  0  1  0  0  3  0  0  0  0  0  0
  188.4150  178.9400  139.3230 Cl  0  0  0  0  0  0  0  0  0  0  0  0
  183.2500  178.7590  143.4600 C   0  0  2  0  0  3  0  0  0  0  0  0
  185.3530  178.9740  139.6100 C   0  0  2  0  0  3  0  0  0  0  0  0
  186.2540  177.9600  143.2320 C   0  0  0  0  0  0  0  0  0  0  0  0
  183.5130  177.0960  140.1400 C   0  0  0  0  0  3  0  0  0  0  0  0
  187.6640  177.9140  143.1260 C   0  0  0  0  0  0  0  0  0  0  0  0
  186.1270  178.5850  140.8600 C   0  0  0  0  0  0  0  0  0  0  0  0
  184.0880  178.1770  139.2620 C   0  0  2  0  0  0  0  0  0  0  0  0
  180.8650  179.1480  144.1170 O   0  0  0  0  0  1  0  0  0  0  0  0
  181.8960  179.3340  143.2030 C   0  0  0  0  0  0  0  0  0  0  0  0
  181.6840  179.9850  142.1460 O   0  0  0  0  0  0  0  0  0  0  0  0
  1  6  1  6  0  0  0
  1 24  1  0  0  0  0
  1 19  1  0  0  0  0
  3 16  1  0  0  0  0
  3 20  1  0  0  0  0
  4 22  1  0  0  0  0
  5 23  1  0  0  0  0
  5  4  2  0  0  0  0
  7  2  1  6  0  0  0
  7 15  1  0  0  0  0
  8 10  1  0  0  0  0
  9 10  1  0  0  0  0
 11 15  1  0  0  0  0
 11  8  1  1  0  0  0
 15 12  1  1  0  0  0
 16 14  1  1  0  0  0
 16 18  1  0  0  0  0
 17  5  1  0  0  0  0
 18 26  1  6  0  0  0
 18  7  1  0  0  0  0
 19 23  1  1  0  0  0
 20 11  1  0  0  0  0
 21 14  2  0  0  0  0
 22 20  2  0  0  0  0
 22  9  1  0  0  0  0
 23  3  2  0  0  0  0
 24 13  1  6  0  0  0
 24 19  1  0  0  0  0
 24 21  1  0  0  0  0
 26 25  1  0  0  0  0
 27 26  2  0  0  0  0
M  END
>  <MODEL>
4

>  <REMARK>
 VINA RESULT:      -6.3      3.409      5.787
  Name = 
  1 active torsions:
  status: ('A' for Active; 'I' for Inactive)
    1  A    between atoms: C_18  and  C_23
                            x       y       z     vdW  Elec       q    Type
                         _______ _______ _______ _____ _____    ______ ____

>  <TORSDO>
F 1

$$$$
=
 OpenBabel10222420073D

 27 31  0  0  1  0  0  0  0  0999 V2000
  192.0120  174.5550  136.3260 C   0  0  1  0  0  3  0  0  0  0  0  0
  188.9090  179.2920  138.1360 O   0  0  0  0  0  1  0  0  0  0  0  0
  190.2640  176.6640  138.5830 C   0  0  0  0  0  0  0  0  0  0  0  0
  192.7110  177.0180  139.9170 C   0  0  0  0  0  3  0  0  0  0  0  0
  192.7060  176.6400  138.5800 C   0  0  0  0  0  0  0  0  0  0  0  0
  192.8040  174.4220  135.1830 O   0  0  0  0  0  1  0  0  0  0  0  0
  187.9370  178.5740  138.8390 C   0  0  2  0  0  3  0  0  0  0  0  0
  189.1810  177.1250  142.2480 C   0  0  0  0  0  2  0  0  0  0  0  0
  191.6260  177.4890  142.0860 C   0  0  0  0  0  2  0  0  0  0  0  0
  190.3280  178.0260  142.6710 C   0  0  0  0  0  2  0  0  0  0  0  0
  188.9870  177.2050  140.7310 C   0  0  1  0  0  3  0  0  0  0  0  0
  187.1010  178.6590  141.0620 O   0  0  0  0  0  1  0  0  0  0  0  0
  190.3170  174.9190  134.5940 O   0  0  0  0  0  1  0  0  0  0  0  0
  188.7570  174.9720  137.6600 C   0  0  0  0  0  3  0  0  0  0  0  0
  188.2800  178.5100  140.3290 C   0  0  2  0  0  3  0  0  0  0  0  0
  188.9780  176.4420  137.8070 C   0  0  1  0  0  3  0  0  0  0  0  0
  194.2640  176.4690  137.7810 Cl  0  0  0  0  0  0  0  0  0  0  0  0
  187.6980  177.1860  138.2290 C   0  0  2  0  0  3  0  0  0  0  0  0
  191.5340  176.0080  136.4430 C   0  0  2  0  0  3  0  0  0  0  0  0
  190.2810  177.0040  139.9640 C   0  0  0  0  0  0  0  0  0  0  0  0
  189.5370  174.2620  136.8410 C   0  0  0  0  0  3  0  0  0  0  0  0
  191.5220  177.2020  140.6140 C   0  0  0  0  0  0  0  0  0  0  0  0
  191.4880  176.4130  137.9080 C   0  0  0  0  0  0  0  0  0  0  0  0
  190.5830  174.9020  135.9650 C   0  0  2  0  0  0  0  0  0  0  0  0
  187.2010  177.6110  135.8120 O   0  0  0  0  0  0  0  0  0  0  0  0
  186.7440  177.2860  137.0850 C   0  0  0  0  0  0  0  0  0  0  0  0
  185.5170  177.0840  137.2750 O   0  0  0  0  0  1  0  0  0  0  0  0
  1  6  1  6  0  0  0
  1 19  1  0  0  0  0
  3 20  1  0  0  0  0
  4 22  1  0  0  0  0
  5  4  2  0  0  0  0
  7  2  1  6  0  0  0
  7 15  1  0  0  0  0
  8 10  1  0  0  0  0
  9 10  1  0  0  0  0
 11  8  1  1  0  0  0
 15 11  1  0  0  0  0
 15 12  1  1  0  0  0
 16 14  1  1  0  0  0
 16 18  1  0  0  0  0
 16  3  1  0  0  0  0
 17  5  1  0  0  0  0
 18 26  1  6  0  0  0
 18  7  1  0  0  0  0
 19 23  1  1  0  0  0
 20 22  2  0  0  0  0
 20 11  1  0  0  0  0
 21 14  2  0  0  0  0
 22  9  1  0  0  0  0
 23  5  1  0  0  0  0
 23  3  2  0  0  0  0
 24 13  1  6  0  0  0
 24  1  1  0  0  0  0
 24 19  1  0  0  0  0
 24 21  1  0  0  0  0
 25 26  2  0  0  0  0
 26 27  1  0  0  0  0
M  END
>  <MODEL>
5

>  <REMARK>
 VINA RESULT:      -6.3      4.124      7.267
  Name = 
  1 active torsions:
  status: ('A' for Active; 'I' for Inactive)
    1  A    between atoms: C_18  and  C_23
                            x       y       z     vdW  Elec       q    Type
                         _______ _______ _______ _____ _____    ______ ____

>  <TORSDO>
F 1

$$$$
=
 OpenBabel10222420073D

 27 31  0  0  1  0  0  0  0  0999 V2000
  184.8060  177.9610  143.6810 C   0  0  1  0  0  3  0  0  0  0  0  0
  190.4740  179.6730  143.1420 O   0  0  0  0  0  1  0  0  0  0  0  0
  188.1420  177.9270  142.4670 C   0  0  0  0  0  0  0  0  0  0  0  0
  187.0800  178.6070  139.9570 C   0  0  0  0  0  3  0  0  0  0  0  0
  186.3610  178.9000  141.1100 C   0  0  0  0  0  0  0  0  0  0  0  0
  183.7250  178.6860  144.1880 O   0  0  0  0  0  1  0  0  0  0  0  0
  191.0260  178.3910  143.2360 C   0  0  2  0  0  3  0  0  0  0  0  0
  190.5730  176.2200  140.0200 C   0  0  0  0  0  2  0  0  0  0  0  0
  188.9550  177.5740  138.7230 C   0  0  0  0  0  2  0  0  0  0  0  0
  190.4240  177.2150  138.8820 C   0  0  0  0  0  2  0  0  0  0  0  0
  190.1880  176.8810  141.3460 C   0  0  1  0  0  3  0  0  0  0  0  0
  192.5180  177.1280  141.8840 O   0  0  0  0  0  1  0  0  0  0  0  0
  185.5900  178.3370  145.9730 O   0  0  0  0  0  1  0  0  0  0  0  0
  187.9040  176.3780  144.3460 C   0  0  0  0  0  3  0  0  0  0  0  0
  191.3030  177.8150  141.8460 C   0  0  2  0  0  3  0  0  0  0  0  0
  188.6500  177.5740  143.8540 C   0  0  1  0  0  3  0  0  0  0  0  0
  184.8340  179.7520  140.9160 Cl  0  0  0  0  0  0  0  0  0  0  0  0
  190.1660  177.4600  144.1000 C   0  0  2  0  0  3  0  0  0  0  0  0
  186.0370  178.8740  143.6070 C   0  0  2  0  0  3  0  0  0  0  0  0
  188.8460  177.5890  141.2800 C   0  0  0  0  0  0  0  0  0  0  0  0
  186.6200  176.4930  144.6960 C   0  0  0  0  0  3  0  0  0  0  0  0
  188.3080  177.9600  140.0250 C   0  0  0  0  0  0  0  0  0  0  0  0
  186.8560  178.5240  142.3740 C   0  0  0  0  0  0  0  0  0  0  0  0
  185.9040  177.8190  144.7140 C   0  0  2  0  0  0  0  0  0  0  0  0
  191.6800  177.1980  146.0770 O   0  0  0  0  0  0  0  0  0  0  0  0
  190.4820  177.6630  145.5450 C   0  0  0  0  0  0  0  0  0  0  0  0
  189.6550  178.2520  146.2890 O   0  0  0  0  0  1  0  0  0  0  0  0
  1  6  1  1  0  0  0
  1 24  1  0  0  0  0
  3 16  1  0  0  0  0
  4 22  2  0  0  0  0
  4  5  1  0  0  0  0
  5 23  2  0  0  0  0
  7  2  1  6  0  0  0
  7 18  1  0  0  0  0
  9 10  1  0  0  0  0
  9 22  1  0  0  0  0
 10  8  1  0  0  0  0
 11  8  1  6  0  0  0
 11 15  1  0  0  0  0
 14 21  2  0  0  0  0
 15 12  1  1  0  0  0
 15  7  1  0  0  0  0
 16 18  1  0  0  0  0
 16 14  1  6  0  0  0
 17  5  1  0  0  0  0
 18 26  1  1  0  0  0
 19 23  1  6  0  0  0
 19  1  1  0  0  0  0
 19 24  1  0  0  0  0
 20 11  1  0  0  0  0
 20  3  2  0  0  0  0
 21 24  1  0  0  0  0
 22 20  1  0  0  0  0
 23  3  1  0  0  0  0
 24 13  1  1  0  0  0
 26 25  2  0  0  0  0
 26 27  1  0  0  0  0
M  END
>  <MODEL>
6

>  <REMARK>
 VINA RESULT:      -6.1      2.207      4.627
  Name = 
  1 active torsions:
  status: ('A' for Active; 'I' for Inactive)
    1  A    between atoms: C_18  and  C_23
                            x       y       z     vdW  Elec       q    Type
                         _______ _______ _______ _____ _____    ______ ____

>  <TORSDO>
F 1

$$$$
=
 OpenBabel10222420073D

 27 31  0  0  1  0  0  0  0  0999 V2000
  184.3270  178.4320  144.2150 C   0  0  1  0  0  3  0  0  0  0  0  0
  190.1300  179.4700  144.9870 O   0  0  0  0  0  1  0  0  0  0  0  0
  187.8220  177.8780  143.9460 C   0  0  0  0  0  0  0  0  0  0  0  0
  187.5200  178.2530  141.1780 C   0  0  0  0  0  3  0  0  0  0  0  0
  186.5840  178.7940  142.0510 C   0  0  0  0  0  0  0  0  0  0  0  0
  183.2630  179.3310  144.3200 O   0  0  0  0  0  1  0  0  0  0  0  0
  190.4610  178.1720  145.3870 C   0  0  2  0  0  3  0  0  0  0  0  0
  190.5290  175.5740  142.4700 C   0  0  0  0  0  2  0  0  0  0  0  0
  189.4840  176.8580  140.6280 C   0  0  0  0  0  2  0  0  0  0  0  0
  190.8050  176.3860  141.2170 C   0  0  0  0  0  2  0  0  0  0  0  0
  189.9210  176.4720  143.5510 C   0  0  1  0  0  3  0  0  0  0  0  0
  192.0550  176.5700  144.6530 O   0  0  0  0  0  1  0  0  0  0  0  0
  184.5600  179.0870  146.5650 O   0  0  0  0  0  1  0  0  0  0  0  0
  186.9170  176.6770  145.8750 C   0  0  0  0  0  3  0  0  0  0  0  0
  190.9930  177.3590  144.2060 C   0  0  2  0  0  3  0  0  0  0  0  0
  187.9170  177.7010  145.4510 C   0  0  1  0  0  3  0  0  0  0  0  0
  185.2840  179.7520  141.3520 Cl  0  0  0  0  0  0  0  0  0  0  0  0
  189.2940  177.4780  146.1030 C   0  0  2  0  0  3  0  0  0  0  0  0
  185.6490  179.1960  144.3540 C   0  0  2  0  0  3  0  0  0  0  0  0
  188.7470  177.2880  143.0410 C   0  0  0  0  0  0  0  0  0  0  0  0
  185.6140  176.9720  145.8540 C   0  0  0  0  0  3  0  0  0  0  0  0
  188.5930  177.5070  141.6510 C   0  0  0  0  0  0  0  0  0  0  0  0
  186.6940  178.5770  143.4390 C   0  0  0  0  0  0  0  0  0  0  0  0
  185.1040  178.3480  145.5110 C   0  0  2  0  0  0  0  0  0  0  0  0
  188.1860  178.5840  148.0570 O   0  0  0  0  0  0  0  0  0  0  0  0
  189.2660  177.8760  147.5420 C   0  0  0  0  0  0  0  0  0  0  0  0
  190.2320  177.5750  148.2920 O   0  0  0  0  0  1  0  0  0  0  0  0
  1  6  1  1  0  0  0
  1 19  1  0  0  0  0
  1 24  1  0  0  0  0
  3 16  1  0  0  0  0
  4 22  2  0  0  0  0
  4  5  1  0  0  0  0
  5 23  2  0  0  0  0
  7  2  1  6  0  0  0
  7 18  1  0  0  0  0
  9 10  1  0  0  0  0
  9 22  1  0  0  0  0
 10  8  1  0  0  0  0
 11  8  1  6  0  0  0
 11 15  1  0  0  0  0
 15 12  1  1  0  0  0
 15  7  1  0  0  0  0
 16 14  1  6  0  0  0
 16 18  1  0  0  0  0
 17  5  1  0  0  0  0
 18 26  1  1  0  0  0
 19 23  1  6  0  0  0
 19 24  1  0  0  0  0
 20 11  1  0  0  0  0
 20  3  2  0  0  0  0
 21 14  2  0  0  0  0
 22 20  1  0  0  0  0
 23  3  1  0  0  0  0
 24 21  1  0  0  0  0
 24 13  1  1  0  0  0
 26 25  2  0  0  0  0
 26 27  1  0  0  0  0
M  END
>  <MODEL>
7

>  <REMARK>
 VINA RESULT:      -6.1      2.368      4.625
  Name = 
  1 active torsions:
  status: ('A' for Active; 'I' for Inactive)
    1  A    between atoms: C_18  and  C_23
                            x       y       z     vdW  Elec       q    Type
                         _______ _______ _______ _____ _____    ______ ____

>  <TORSDO>
F 1

$$$$
=
 OpenBabel10222420073D

 27 31  0  0  1  0  0  0  0  0999 V2000
  191.3460  177.8780  141.2470 C   0  0  1  0  0  3  0  0  0  0  0  0
  186.9000  175.8600  144.6400 O   0  0  0  0  0  1  0  0  0  0  0  0
  188.2260  177.9320  142.9390 C   0  0  0  0  0  0  0  0  0  0  0  0
  187.0210  178.0620  140.4050 C   0  0  0  0  0  3  0  0  0  0  0  0
  188.3000  177.5340  140.5310 C   0  0  0  0  0  0  0  0  0  0  0  0
  192.3380  177.1450  140.5910 O   0  0  0  0  0  1  0  0  0  0  0  0
  186.7790  177.0110  145.4250 C   0  0  2  0  0  3  0  0  0  0  0  0
  185.0550  180.0080  143.6070 C   0  0  0  0  0  2  0  0  0  0  0  0
  185.0090  179.2140  141.2610 C   0  0  0  0  0  2  0  0  0  0  0  0
  184.1870  179.3780  142.5310 C   0  0  0  0  0  2  0  0  0  0  0  0
  186.1830  179.0490  143.9950 C   0  0  1  0  0  3  0  0  0  0  0  0
  184.9730  178.4510  145.9850 O   0  0  0  0  0  1  0  0  0  0  0  0
  192.4300  176.8220  143.1740 O   0  0  0  0  0  1  0  0  0  0  0  0
  189.9700  178.9260  144.3380 C   0  0  0  0  0  3  0  0  0  0  0  0
  185.6650  177.9150  144.8960 C   0  0  2  0  0  3  0  0  0  0  0  0
  188.9420  177.8450  144.2760 C   0  0  1  0  0  3  0  0  0  0  0  0
  189.0650  176.9120  139.0740 Cl  0  0  0  0  0  0  0  0  0  0  0  0
  188.1170  177.7480  145.5720 C   0  0  2  0  0  3  0  0  0  0  0  0
  190.3350  176.9100  141.8750 C   0  0  2  0  0  3  0  0  0  0  0  0
  186.9370  178.5140  142.7910 C   0  0  0  0  0  0  0  0  0  0  0  0
  191.0710  178.8390  143.5870 C   0  0  0  0  0  3  0  0  0  0  0  0
  186.3350  178.5500  141.5120 C   0  0  0  0  0  0  0  0  0  0  0  0
  188.9380  177.5040  141.7860 C   0  0  0  0  0  0  0  0  0  0  0  0
  191.3780  177.6310  142.7400 C   0  0  2  0  0  0  0  0  0  0  0  0
  190.2450  176.7530  146.4410 O   0  0  0  0  0  0  0  0  0  0  0  0
  188.9250  177.1300  146.6660 C   0  0  0  0  0  0  0  0  0  0  0  0
  188.4060  176.9410  147.7960 O   0  0  0  0  0  1  0  0  0  0  0  0
  1  6  1  6  0  0  0
  1 19  1  0  0  0  0
  1 24  1  0  0  0  0
  3 16  1  0  0  0  0
  4  5  2  0  0  0  0
  4 22  1  0  0  0  0
  5 23  1  0  0  0  0
  7  2  1  6  0  0  0
  7 18  1  0  0  0  0
  9 22  1  0  0  0  0
  9 10  1  0  0  0  0
 10  8  1  0  0  0  0
 11  8  1  6  0  0  0
 11 15  1  0  0  0  0
 15  7  1  0  0  0  0
 15 12  1  1  0  0  0
 16 14  1  1  0  0  0
 16 18  1  0  0  0  0
 17  5  1  0  0  0  0
 18 26  1  1  0  0  0
 19 23  1  1  0  0  0
 19 24  1  0  0  0  0
 20  3  1  0  0  0  0
 20 11  1  0  0  0  0
 21 14  2  0  0  0  0
 22 20  2  0  0  0  0
 23  3  2  0  0  0  0
 24 13  1  1  0  0  0
 24 21  1  0  0  0  0
 25 26  2  0  0  0  0
 26 27  1  0  0  0  0
M  END
>  <MODEL>
8

>  <REMARK>
 VINA RESULT:      -5.9      2.524      5.987
  Name = 
  1 active torsions:
  status: ('A' for Active; 'I' for Inactive)
    1  A    between atoms: C_18  and  C_23
                            x       y       z     vdW  Elec       q    Type
                         _______ _______ _______ _____ _____    ______ ____

>  <TORSDO>
F 1

$$$$
=
 OpenBabel10222420073D

 27 31  0  0  1  0  0  0  0  0999 V2000
  190.2540  178.1070  141.7510 C   0  0  1  0  0  3  0  0  0  0  0  0
  188.8140  175.4770  146.8850 O   0  0  0  0  0  1  0  0  0  0  0  0
  188.7730  177.7640  144.9590 C   0  0  0  0  0  0  0  0  0  0  0  0
  186.2850  177.9350  143.6670 C   0  0  0  0  0  3  0  0  0  0  0  0
  187.4030  177.5240  142.9520 C   0  0  0  0  0  0  0  0  0  0  0  0
  190.6820  177.5120  140.5620 O   0  0  0  0  0  1  0  0  0  0  0  0
  189.1440  176.5610  147.7040 C   0  0  2  0  0  3  0  0  0  0  0  0
  186.5600  179.4890  147.5930 C   0  0  0  0  0  2  0  0  0  0  0  0
  185.1470  178.8390  145.6650 C   0  0  0  0  0  2  0  0  0  0  0  0
  185.2450  178.8470  147.1830 C   0  0  0  0  0  2  0  0  0  0  0  0
  187.7320  178.6180  147.1320 C   0  0  1  0  0  3  0  0  0  0  0  0
  187.9810  177.7880  149.3750 O   0  0  0  0  0  1  0  0  0  0  0  0
  192.3170  177.0410  142.5330 O   0  0  0  0  0  1  0  0  0  0  0  0
  190.9680  178.8300  145.1440 C   0  0  0  0  0  3  0  0  0  0  0  0
  187.9010  177.3880  148.0390 C   0  0  2  0  0  3  0  0  0  0  0  0
  190.1510  177.6640  145.5910 C   0  0  1  0  0  3  0  0  0  0  0  0
  187.1650  177.0660  141.2700 Cl  0  0  0  0  0  0  0  0  0  0  0  0
  190.2730  177.4100  147.1050 C   0  0  2  0  0  3  0  0  0  0  0  0
  189.8600  177.0110  142.7500 C   0  0  2  0  0  3  0  0  0  0  0  0
  187.6330  178.2310  145.6670 C   0  0  0  0  0  0  0  0  0  0  0  0
  191.4000  178.8930  143.8820 C   0  0  0  0  0  3  0  0  0  0  0  0
  186.3820  178.2880  145.0080 C   0  0  0  0  0  0  0  0  0  0  0  0
  188.6680  177.4770  143.5710 C   0  0  0  0  0  0  0  0  0  0  0  0
  191.1840  177.7730  142.8980 C   0  0  2  0  0  0  0  0  0  0  0  0
  192.1420  175.8140  146.6210 O   0  0  0  0  0  0  0  0  0  0  0  0
  191.5990  176.8050  147.4320 C   0  0  0  0  0  0  0  0  0  0  0  0
  192.2250  177.1880  148.4550 O   0  0  0  0  0  1  0  0  0  0  0  0
  1  6  1  6  0  0  0
  1 19  1  0  0  0  0
  1 24  1  0  0  0  0
  3 16  1  0  0  0  0
  3 20  1  0  0  0  0
  4 22  1  0  0  0  0
  5 23  1  0  0  0  0
  5  4  2  0  0  0  0
  7  2  1  6  0  0  0
  7 15  1  0  0  0  0
  9 10  1  0  0  0  0
 10  8  1  0  0  0  0
 11  8  1  1  0  0  0
 11 15  1  0  0  0  0
 15 12  1  1  0  0  0
 16 14  1  1  0  0  0
 16 18  1  0  0  0  0
 17  5  1  0  0  0  0
 18 26  1  6  0  0  0
 18  7  1  0  0  0  0
 19 24  1  0  0  0  0
 19 23  1  1  0  0  0
 20 11  1  0  0  0  0
 21 14  2  0  0  0  0
 22  9  1  0  0  0  0
 22 20  2  0  0  0  0
 23  3  2  0  0  0  0
 24 13  1  6  0  0  0
 24 21  1  0  0  0  0
 25 26  2  0  0  0  0
 26 27  1  0  0  0  0
M  END
>  <MODEL>
9

>  <REMARK>
 VINA RESULT:      -5.9      2.632      5.375
  Name = 
  1 active torsions:
  status: ('A' for Active; 'I' for Inactive)
    1  A    between atoms: C_18  and  C_23
                            x       y       z     vdW  Elec       q    Type
                         _______ _______ _______ _____ _____    ______ ____

>  <TORSDO>
F 1

$$$$
