=
 OpenBabel10222421013D

 38 41  0  0  1  0  0  0  0  0999 V2000
  189.1570  178.0030  139.6790 O   0  0  0  0  0  0  0  0  0  0  0  0
  188.0340  178.4530  140.3990 C   0  0  0  0  0  2  0  0  0  0  0  0
  185.8610  180.0460  142.6960 C   0  0  0  0  0  1  0  0  0  0  0  0
  190.0370  177.3830  140.5990 C   0  0  1  0  0  3  0  0  0  0  0  0
  190.0220  177.5010  142.9740 O   0  0  0  0  0  1  0  0  0  0  0  0
  189.2980  177.0290  141.8780 C   0  0  1  0  0  3  0  0  0  0  0  0
  185.4550  177.9230  144.1090 C   0  0  2  0  0  3  0  0  0  0  0  0
  186.8030  177.2930  143.9980 C   0  0  0  0  0  2  0  0  0  0  0  0
  187.0790  177.8590  142.6150 C   0  0  0  0  0  0  0  0  0  0  0  0
  185.7120  178.5130  142.7400 C   0  0  2  0  0  0  0  0  0  0  0  0
  188.0670  177.7980  141.7170 C   0  0  0  0  0  0  0  0  0  0  0  0
  184.7350  177.8980  141.7120 C   0  0  2  0  0  3  0  0  0  0  0  0
  184.5820  178.7250  140.4430 C   0  0  2  0  0  3  0  0  0  0  0  0
  182.7770  177.7770  139.4640 C   0  0  1  0  0  3  0  0  0  0  0  0
  183.4990  178.7590  141.5060 C   0  0  1  0  0  3  0  0  0  0  0  0
  184.1760  177.8950  139.3790 O   0  0  0  0  0  0  0  0  0  0  0  0
  182.3820  177.9540  140.9100 C   0  0  0  0  0  2  0  0  0  0  0  0
  182.1700  178.7660  138.6820 O   0  0  0  0  0  0  0  0  0  0  0  0
  181.4820  178.0640  137.6890 C   0  0  0  0  0  2  0  0  0  0  0  0
  181.2970  178.9470  136.4630 C   0  0  0  0  0  2  0  0  0  0  0  0
  182.6710  177.7010  134.9980 O   0  0  0  0  0  0  0  0  0  0  0  0
  181.5680  178.1810  135.2060 C   0  0  0  0  0  3  0  0  0  0  0  0
  190.6030  176.1820  140.0030 N   0  0  0  0  0  2  0  0  0  0  0  0
  190.3890  176.2620  138.5670 C   0  0  0  0  0  2  0  0  0  0  0  0
  190.3610  174.9250  137.9980 N   0  0  0  0  0  2  0  0  0  0  0  0
  188.2540  175.8140  137.1760 C   0  0  0  0  0  1  0  0  0  0  0  0
  189.4700  174.9680  136.8510 C   0  0  0  0  0  2  0  0  0  0  0  0
  185.4470  178.9160  145.2690 C   0  0  0  0  0  2  0  0  0  0  0  0
  184.5230  178.2820  147.3800 O   0  0  0  0  0  1  0  0  0  0  0  0
  185.6690  178.1920  146.5900 C   0  0  2  0  0  3  0  0  0  0  0  0
  186.8410  178.8150  147.3380 C   0  0  0  0  0  2  0  0  0  0  0  0
  188.3040  177.9610  149.0480 O   0  0  0  0  0  1  0  0  0  0  0  0
  187.9170  177.7930  147.7170 C   0  0  2  0  0  3  0  0  0  0  0  0
  189.1380  177.8680  146.8080 C   0  0  0  0  0  2  0  0  0  0  0  0
  190.0890  176.7070  147.0640 C   0  0  0  0  0  2  0  0  0  0  0  0
  191.4020  177.0930  146.7970 O   0  0  0  0  0  0  0  0  0  0  0  0
  192.1330  175.9080  146.8470 C   0  0  0  0  0  2  0  0  0  0  0  0
  192.7080  175.7280  148.2360 C   0  0  0  0  0  1  0  0  0  0  0  0
  1  2  1  0  0  0  0
  1  4  1  0  0  0  0
  2 11  1  0  0  0  0
  4 23  1  6  0  0  0
  4  6  1  0  0  0  0
  6  5  1  1  0  0  0
  7 28  1  1  0  0  0
  8  7  1  0  0  0  0
  9 10  1  0  0  0  0
  9  8  1  0  0  0  0
 10  3  1  6  0  0  0
 10  7  1  0  0  0  0
 11  6  1  0  0  0  0
 11  9  2  0  0  0  0
 12 10  1  1  0  0  0
 13 16  1  6  0  0  0
 13 15  1  0  0  0  0
 13 12  1  0  0  0  0
 14 18  1  6  0  0  0
 14 17  1  0  0  0  0
 15 17  1  6  0  0  0
 15 12  1  0  0  0  0
 16 14  1  0  0  0  0
 19 18  1  0  0  0  0
 20 19  1  0  0  0  0
 21 22  2  0  0  0  0
 22 20  1  0  0  0  0
 24 23  1  0  0  0  0
 25 24  1  0  0  0  0
 27 26  1  0  0  0  0
 27 25  1  0  0  0  0
 28 30  1  0  0  0  0
 30 31  1  0  0  0  0
 30 29  1  1  0  0  0
 31 33  1  0  0  0  0
 33 32  1  1  0  0  0
 34 35  1  0  0  0  0
 34 33  1  0  0  0  0
 36 37  1  0  0  0  0
 36 35  1  0  0  0  0
 37 38  1  0  0  0  0
M  END
>  <MODEL>
1

>  <REMARK>
 VINA RESULT:      -6.5      0.000      0.000
  Name = 
  17 active torsions:
  status: ('A' for Active; 'I' for Inactive)
    1  A    between atoms: C_3  and  C_5
    2  A    between atoms: C_3  and  C_30
    3  A    between atoms: C_4  and  N_31
    4  A    between atoms: C_4  and  N_33
    5  A    between atoms: C_5  and  O_11
    6  A    between atoms: C_6  and  C_20
    7  A    between atoms: C_6  and  C_24
    8  A    between atoms: C_9  and  C_37
    9  A    between atoms: C_10  and  C_35
   10  A    between atoms: O_11  and  C_15
   11  A    between atoms: C_16  and  O_26
   12  A    between atoms: C_16  and  C_35
   13  A    between atoms: C_17  and  N_33
   14  A    between atoms: C_23  and  O_26
   15  A    between atoms: C_24  and  C_34
   16  A    between atoms: C_28  and  N_31
   17  A    between atoms: C_30  and  C_34
                            x       y       z     vdW  Elec       q    Type
                         _______ _______ _______ _____ _____    ______ ____

>  <TORSDO>
F 17

$$$$
=
 OpenBabel10222421013D

 38 41  0  0  1  0  0  0  0  0999 V2000
  190.5040  176.0790  141.7010 O   0  0  0  0  0  0  0  0  0  0  0  0
  189.3950  176.3000  142.5410 C   0  0  0  0  0  2  0  0  0  0  0  0
  186.1550  176.4180  143.9640 C   0  0  0  0  0  1  0  0  0  0  0  0
  190.2180  176.6730  140.4480 C   0  0  1  0  0  3  0  0  0  0  0  0
  188.1240  177.4250  139.6080 O   0  0  0  0  0  1  0  0  0  0  0  0
  189.0870  177.6780  140.5870 C   0  0  1  0  0  3  0  0  0  0  0  0
  185.7820  178.9170  143.4310 C   0  0  2  0  0  3  0  0  0  0  0  0
  186.5060  179.0010  142.1280 C   0  0  0  0  0  2  0  0  0  0  0  0
  187.5120  177.9200  142.4890 C   0  0  0  0  0  0  0  0  0  0  0  0
  186.7600  177.8260  143.8070 C   0  0  2  0  0  0  0  0  0  0  0  0
  188.5650  177.3370  141.9070 C   0  0  0  0  0  0  0  0  0  0  0  0
  187.6620  178.3080  144.9660 C   0  0  2  0  0  3  0  0  0  0  0  0
  188.7540  177.3170  145.3440 C   0  0  2  0  0  3  0  0  0  0  0  0
  189.5000  178.1480  147.3110 C   0  0  1  0  0  3  0  0  0  0  0  0
  187.5140  177.4460  146.2090 C   0  0  1  0  0  3  0  0  0  0  0  0
  189.8280  177.9980  145.9520 O   0  0  0  0  0  0  0  0  0  0  0  0
  187.9960  178.1780  147.4260 C   0  0  0  0  0  2  0  0  0  0  0  0
  190.0110  177.0700  148.0420 O   0  0  0  0  0  0  0  0  0  0  0  0
  191.3600  177.0040  147.6870 C   0  0  0  0  0  2  0  0  0  0  0  0
  191.8050  175.5500  147.6040 C   0  0  0  0  0  2  0  0  0  0  0  0
  191.9430  175.8220  145.2610 O   0  0  0  0  0  0  0  0  0  0  0  0
  192.3550  175.2350  146.2490 C   0  0  0  0  0  3  0  0  0  0  0  0
  191.4090  177.3320  139.9350 N   0  0  0  0  0  2  0  0  0  0  0  0
  191.6650  176.8030  138.6060 C   0  0  0  0  0  2  0  0  0  0  0  0
  193.0930  176.6010  138.4230 N   0  0  0  0  0  2  0  0  0  0  0  0
  194.5050  175.5450  136.7490 C   0  0  0  0  0  1  0  0  0  0  0  0
  193.2540  175.4170  137.5960 C   0  0  0  0  0  2  0  0  0  0  0  0
  184.3440  178.4650  143.1890 C   0  0  0  0  0  2  0  0  0  0  0  0
  183.7460  179.1440  145.4010 O   0  0  0  0  0  1  0  0  0  0  0  0
  183.3820  179.2620  144.0600 C   0  0  2  0  0  3  0  0  0  0  0  0
  181.9610  178.7430  143.8800 C   0  0  0  0  0  2  0  0  0  0  0  0
  180.3620  180.3420  143.0570 O   0  0  0  0  0  1  0  0  0  0  0  0
  181.2560  179.3450  142.6620 C   0  0  2  0  0  3  0  0  0  0  0  0
  180.5270  178.2950  141.8310 C   0  0  0  0  0  2  0  0  0  0  0  0
  181.0750  178.2350  140.4130 C   0  0  0  0  0  2  0  0  0  0  0  0
  182.4420  178.5140  140.4130 O   0  0  0  0  0  0  0  0  0  0  0  0
  182.6890  179.0580  139.1540 C   0  0  0  0  0  2  0  0  0  0  0  0
  184.1600  179.3940  139.0300 C   0  0  0  0  0  1  0  0  0  0  0  0
  1  2  1  0  0  0  0
  4 23  1  1  0  0  0
  4  6  1  0  0  0  0
  4  1  1  0  0  0  0
  6  5  1  6  0  0  0
  6 11  1  0  0  0  0
  7 28  1  6  0  0  0
  7 10  1  0  0  0  0
  8  9  1  0  0  0  0
  8  7  1  0  0  0  0
  9 10  1  0  0  0  0
 10  3  1  1  0  0  0
 11  9  2  0  0  0  0
 11  2  1  0  0  0  0
 12 10  1  6  0  0  0
 12 13  1  0  0  0  0
 12 15  1  0  0  0  0
 13 16  1  1  0  0  0
 13 15  1  0  0  0  0
 14 17  1  0  0  0  0
 14 18  1  1  0  0  0
 15 17  1  1  0  0  0
 16 14  1  0  0  0  0
 19 18  1  0  0  0  0
 20 19  1  0  0  0  0
 21 22  2  0  0  0  0
 22 20  1  0  0  0  0
 24 23  1  0  0  0  0
 25 24  1  0  0  0  0
 26 27  1  0  0  0  0
 27 25  1  0  0  0  0
 28 30  1  0  0  0  0
 30 29  1  1  0  0  0
 31 30  1  0  0  0  0
 33 32  1  1  0  0  0
 33 31  1  0  0  0  0
 34 33  1  0  0  0  0
 35 34  1  0  0  0  0
 36 35  1  0  0  0  0
 37 36  1  0  0  0  0
 38 37  1  0  0  0  0
M  END
>  <MODEL>
2

>  <REMARK>
 VINA RESULT:      -5.9      2.071      8.024
  Name = 
  17 active torsions:
  status: ('A' for Active; 'I' for Inactive)
    1  A    between atoms: C_3  and  C_5
    2  A    between atoms: C_3  and  C_30
    3  A    between atoms: C_4  and  N_31
    4  A    between atoms: C_4  and  N_33
    5  A    between atoms: C_5  and  O_11
    6  A    between atoms: C_6  and  C_20
    7  A    between atoms: C_6  and  C_24
    8  A    between atoms: C_9  and  C_37
    9  A    between atoms: C_10  and  C_35
   10  A    between atoms: O_11  and  C_15
   11  A    between atoms: C_16  and  O_26
   12  A    between atoms: C_16  and  C_35
   13  A    between atoms: C_17  and  N_33
   14  A    between atoms: C_23  and  O_26
   15  A    between atoms: C_24  and  C_34
   16  A    between atoms: C_28  and  N_31
   17  A    between atoms: C_30  and  C_34
                            x       y       z     vdW  Elec       q    Type
                         _______ _______ _______ _____ _____    ______ ____

>  <TORSDO>
F 17

$$$$
=
 OpenBabel10222421013D

 38 41  0  0  1  0  0  0  0  0999 V2000
  183.4410  178.5840  144.5680 O   0  0  0  0  0  0  0  0  0  0  0  0
  183.1690  178.4240  143.1960 C   0  0  0  0  0  2  0  0  0  0  0  0
  182.9270  177.2120  139.8780 C   0  0  0  0  0  1  0  0  0  0  0  0
  184.8410  178.4710  144.7440 C   0  0  1  0  0  3  0  0  0  0  0  0
  186.4630  177.6270  143.2230 O   0  0  0  0  0  1  0  0  0  0  0  0
  185.5570  178.6710  143.4200 C   0  0  1  0  0  3  0  0  0  0  0  0
  184.7800  178.7550  138.9540 C   0  0  2  0  0  3  0  0  0  0  0  0
  185.6870  178.7860  140.1390 C   0  0  0  0  0  2  0  0  0  0  0  0
  184.5610  178.6230  141.1470 C   0  0  0  0  0  0  0  0  0  0  0  0
  183.6430  178.5740  139.9360 C   0  0  2  0  0  0  0  0  0  0  0  0
  184.4470  178.5580  142.4770 C   0  0  0  0  0  0  0  0  0  0  0  0
  182.7300  179.8210  139.9140 C   0  0  2  0  0  3  0  0  0  0  0  0
  181.3210  179.5390  139.4100 C   0  0  2  0  0  3  0  0  0  0  0  0
  180.4990  181.6200  139.0810 C   0  0  1  0  0  3  0  0  0  0  0  0
  182.3300  180.2180  138.5010 C   0  0  1  0  0  3  0  0  0  0  0  0
  180.4280  180.4990  139.9270 O   0  0  0  0  0  0  0  0  0  0  0  0
  181.8740  181.6460  138.4580 C   0  0  0  0  0  2  0  0  0  0  0  0
  179.5260  181.5220  138.0820 O   0  0  0  0  0  0  0  0  0  0  0  0
  179.6480  182.7040  137.3460 C   0  0  0  0  0  2  0  0  0  0  0  0
  179.7500  182.3830  135.8620 C   0  0  0  0  0  2  0  0  0  0  0  0
  181.1270  184.2980  135.7210 O   0  0  0  0  0  0  0  0  0  0  0  0
  180.4410  183.4850  135.1220 C   0  0  0  0  0  3  0  0  0  0  0  0
  185.2950  179.4600  145.7090 N   0  0  0  0  0  2  0  0  0  0  0  0
  185.6820  178.7500  146.9170 C   0  0  0  0  0  2  0  0  0  0  0  0
  186.4290  177.5530  146.5660 N   0  0  0  0  0  2  0  0  0  0  0  0
  188.7330  177.7650  145.8230 C   0  0  0  0  0  1  0  0  0  0  0  0
  187.7960  177.7570  147.0140 C   0  0  0  0  0  2  0  0  0  0  0  0
  185.1090  177.5400  138.0890 C   0  0  0  0  0  2  0  0  0  0  0  0
  185.9760  177.4690  135.8640 O   0  0  0  0  0  1  0  0  0  0  0  0
  186.2850  177.8430  137.1720 C   0  0  2  0  0  3  0  0  0  0  0  0
  187.5190  177.0770  137.6320 C   0  0  0  0  0  2  0  0  0  0  0  0
  189.0900  178.8610  137.2570 O   0  0  0  0  0  1  0  0  0  0  0  0
  188.5980  177.9860  138.2270 C   0  0  2  0  0  3  0  0  0  0  0  0
  189.7470  177.1990  138.8460 C   0  0  0  0  0  2  0  0  0  0  0  0
  189.8970  177.5140  140.3280 C   0  0  0  0  0  2  0  0  0  0  0  0
  191.2420  177.4730  140.6950 O   0  0  0  0  0  0  0  0  0  0  0  0
  191.2230  177.3120  142.0790 C   0  0  0  0  0  2  0  0  0  0  0  0
  190.1260  176.3400  142.4590 C   0  0  0  0  0  1  0  0  0  0  0  0
  1  4  1  0  0  0  0
  2  1  1  0  0  0  0
  4 23  1  1  0  0  0
  6  5  1  6  0  0  0
  6  4  1  0  0  0  0
  7 28  1  6  0  0  0
  7 10  1  0  0  0  0
  7  8  1  0  0  0  0
  8  9  1  0  0  0  0
  9 11  2  0  0  0  0
 10  3  1  6  0  0  0
 10  9  1  0  0  0  0
 11  2  1  0  0  0  0
 11  6  1  0  0  0  0
 12 10  1  6  0  0  0
 13 12  1  0  0  0  0
 13 16  1  1  0  0  0
 14 18  1  6  0  0  0
 14 16  1  0  0  0  0
 15 17  1  1  0  0  0
 15 13  1  0  0  0  0
 15 12  1  0  0  0  0
 17 14  1  0  0  0  0
 19 18  1  0  0  0  0
 20 19  1  0  0  0  0
 22 21  2  0  0  0  0
 22 20  1  0  0  0  0
 23 24  1  0  0  0  0
 25 24  1  0  0  0  0
 25 27  1  0  0  0  0
 26 27  1  0  0  0  0
 30 29  1  6  0  0  0
 30 31  1  0  0  0  0
 30 28  1  0  0  0  0
 31 33  1  0  0  0  0
 33 32  1  6  0  0  0
 33 34  1  0  0  0  0
 34 35  1  0  0  0  0
 35 36  1  0  0  0  0
 36 37  1  0  0  0  0
 37 38  1  0  0  0  0
M  END
>  <MODEL>
3

>  <REMARK>
 VINA RESULT:      -5.9      3.278      6.839
  Name = 
  17 active torsions:
  status: ('A' for Active; 'I' for Inactive)
    1  A    between atoms: C_3  and  C_5
    2  A    between atoms: C_3  and  C_30
    3  A    between atoms: C_4  and  N_31
    4  A    between atoms: C_4  and  N_33
    5  A    between atoms: C_5  and  O_11
    6  A    between atoms: C_6  and  C_20
    7  A    between atoms: C_6  and  C_24
    8  A    between atoms: C_9  and  C_37
    9  A    between atoms: C_10  and  C_35
   10  A    between atoms: O_11  and  C_15
   11  A    between atoms: C_16  and  O_26
   12  A    between atoms: C_16  and  C_35
   13  A    between atoms: C_17  and  N_33
   14  A    between atoms: C_23  and  O_26
   15  A    between atoms: C_24  and  C_34
   16  A    between atoms: C_28  and  N_31
   17  A    between atoms: C_30  and  C_34
                            x       y       z     vdW  Elec       q    Type
                         _______ _______ _______ _____ _____    ______ ____

>  <TORSDO>
F 17

$$$$
=
 OpenBabel10222421013D

 38 41  0  0  1  0  0  0  0  0999 V2000
  188.9830  178.1440  137.5260 O   0  0  0  0  0  0  0  0  0  0  0  0
  188.9840  178.3640  138.9170 C   0  0  0  0  0  2  0  0  0  0  0  0
  189.8480  179.2270  142.2400 C   0  0  0  0  0  1  0  0  0  0  0  0
  190.0770  177.2980  137.2240 C   0  0  1  0  0  3  0  0  0  0  0  0
  191.9420  176.7430  138.5910 O   0  0  0  0  0  1  0  0  0  0  0  0
  190.5590  176.5920  138.4800 C   0  0  1  0  0  3  0  0  0  0  0  0
  190.2350  176.7880  142.9970 C   0  0  2  0  0  3  0  0  0  0  0  0
  190.8010  176.2260  141.7350 C   0  0  0  0  0  2  0  0  0  0  0  0
  190.0130  177.1620  140.8320 C   0  0  0  0  0  0  0  0  0  0  0  0
  189.4530  177.7420  142.1210 C   0  0  2  0  0  0  0  0  0  0  0  0
  189.8820  177.3640  139.5180 C   0  0  0  0  0  0  0  0  0  0  0  0
  187.9430  177.4330  142.2280 C   0  0  2  0  0  3  0  0  0  0  0  0
  187.0530  178.6510  142.0250 C   0  0  2  0  0  3  0  0  0  0  0  0
  185.0360  177.8980  142.7200 C   0  0  1  0  0  3  0  0  0  0  0  0
  187.2970  178.1160  143.4240 C   0  0  1  0  0  3  0  0  0  0  0  0
  185.7800  178.2430  141.5780 O   0  0  0  0  0  0  0  0  0  0  0  0
  186.0050  177.4470  143.7860 C   0  0  0  0  0  2  0  0  0  0  0  0
  184.3180  179.0110  143.1710 O   0  0  0  0  0  0  0  0  0  0  0  0
  183.0180  178.8110  142.7040 C   0  0  0  0  0  2  0  0  0  0  0  0
  182.0290  178.9190  143.8560 C   0  0  0  0  0  2  0  0  0  0  0  0
  179.8700  178.0200  144.1940 O   0  0  0  0  0  0  0  0  0  0  0  0
  180.6490  178.5450  143.4150 C   0  0  0  0  0  3  0  0  0  0  0  0
  189.6790  176.3190  136.2250 N   0  0  0  0  0  2  0  0  0  0  0  0
  188.3790  176.7190  135.7110 C   0  0  0  0  0  2  0  0  0  0  0  0
  187.3840  175.7150  136.0520 N   0  0  0  0  0  2  0  0  0  0  0  0
  185.3720  176.9950  135.5840 C   0  0  0  0  0  1  0  0  0  0  0  0
  186.2810  175.8740  135.1200 C   0  0  0  0  0  2  0  0  0  0  0  0
  191.3540  177.4140  143.8260 C   0  0  0  0  0  2  0  0  0  0  0  0
  191.8660  175.5410  145.2190 O   0  0  0  0  0  1  0  0  0  0  0  0
  191.3570  176.8400  145.2360 C   0  0  2  0  0  3  0  0  0  0  0  0
  189.9380  176.8120  145.7920 C   0  0  0  0  0  2  0  0  0  0  0  0
  191.0150  177.2500  147.9000 O   0  0  0  0  0  1  0  0  0  0  0  0
  189.8320  177.4410  147.1840 C   0  0  2  0  0  3  0  0  0  0  0  0
  188.6510  176.8970  147.9810 C   0  0  0  0  0  2  0  0  0  0  0  0
  187.5660  177.9500  148.1480 C   0  0  0  0  0  2  0  0  0  0  0  0
  187.0410  178.3020  146.9050 O   0  0  0  0  0  0  0  0  0  0  0  0
  185.9390  179.1010  147.2020 C   0  0  0  0  0  2  0  0  0  0  0  0
  184.6770  178.4220  146.7160 C   0  0  0  0  0  1  0  0  0  0  0  0
  1  2  1  0  0  0  0
  2 11  1  0  0  0  0
  4 23  1  6  0  0  0
  4  1  1  0  0  0  0
  4  6  1  0  0  0  0
  6  5  1  1  0  0  0
  6 11  1  0  0  0  0
  7 28  1  1  0  0  0
  8  7  1  0  0  0  0
  9  8  1  0  0  0  0
  9 10  1  0  0  0  0
 10  3  1  1  0  0  0
 10  7  1  0  0  0  0
 11  9  2  0  0  0  0
 12 10  1  1  0  0  0
 12 15  1  0  0  0  0
 13 16  1  6  0  0  0
 13 12  1  0  0  0  0
 13 15  1  0  0  0  0
 14 18  1  1  0  0  0
 14 17  1  0  0  0  0
 15 17  1  6  0  0  0
 16 14  1  0  0  0  0
 19 18  1  0  0  0  0
 19 20  1  0  0  0  0
 22 20  1  0  0  0  0
 22 21  2  0  0  0  0
 24 25  1  0  0  0  0
 24 23  1  0  0  0  0
 27 26  1  0  0  0  0
 27 25  1  0  0  0  0
 28 30  1  0  0  0  0
 30 29  1  6  0  0  0
 30 31  1  0  0  0  0
 31 33  1  0  0  0  0
 33 32  1  1  0  0  0
 33 34  1  0  0  0  0
 34 35  1  0  0  0  0
 36 37  1  0  0  0  0
 36 35  1  0  0  0  0
 38 37  1  0  0  0  0
M  END
>  <MODEL>
4

>  <REMARK>
 VINA RESULT:      -5.8      2.579      4.867
  Name = 
  17 active torsions:
  status: ('A' for Active; 'I' for Inactive)
    1  A    between atoms: C_3  and  C_5
    2  A    between atoms: C_3  and  C_30
    3  A    between atoms: C_4  and  N_31
    4  A    between atoms: C_4  and  N_33
    5  A    between atoms: C_5  and  O_11
    6  A    between atoms: C_6  and  C_20
    7  A    between atoms: C_6  and  C_24
    8  A    between atoms: C_9  and  C_37
    9  A    between atoms: C_10  and  C_35
   10  A    between atoms: O_11  and  C_15
   11  A    between atoms: C_16  and  O_26
   12  A    between atoms: C_16  and  C_35
   13  A    between atoms: C_17  and  N_33
   14  A    between atoms: C_23  and  O_26
   15  A    between atoms: C_24  and  C_34
   16  A    between atoms: C_28  and  N_31
   17  A    between atoms: C_30  and  C_34
                            x       y       z     vdW  Elec       q    Type
                         _______ _______ _______ _____ _____    ______ ____

>  <TORSDO>
F 17

$$$$
=
 OpenBabel10222421013D

 38 41  0  0  1  0  0  0  0  0999 V2000
  184.5990  178.7130  138.8180 O   0  0  0  0  0  0  0  0  0  0  0  0
  186.0000  178.5860  138.7540 C   0  0  0  0  0  2  0  0  0  0  0  0
  189.3920  178.6080  137.7360 C   0  0  0  0  0  1  0  0  0  0  0  0
  184.0510  177.9650  137.7490 C   0  0  1  0  0  3  0  0  0  0  0  0
  185.1560  177.0890  135.8330 O   0  0  0  0  0  1  0  0  0  0  0  0
  185.0730  176.9720  137.2210 C   0  0  1  0  0  3  0  0  0  0  0  0
  189.5120  176.0570  137.3470 C   0  0  2  0  0  3  0  0  0  0  0  0
  188.1260  175.8210  136.8440 C   0  0  0  0  0  2  0  0  0  0  0  0
  187.5160  176.9500  137.6580 C   0  0  0  0  0  0  0  0  0  0  0  0
  188.9320  177.1980  138.1540 C   0  0  2  0  0  0  0  0  0  0  0  0
  186.2980  177.4690  137.8430 C   0  0  0  0  0  0  0  0  0  0  0  0
  189.0270  176.8750  139.6620 C   0  0  2  0  0  3  0  0  0  0  0  0
  189.0170  178.1080  140.5550 C   0  0  2  0  0  3  0  0  0  0  0  0
  189.6450  177.2620  142.5570 C   0  0  1  0  0  3  0  0  0  0  0  0
  190.3210  177.3820  140.2800 C   0  0  1  0  0  3  0  0  0  0  0  0
  188.5450  177.7650  141.8380 O   0  0  0  0  0  0  0  0  0  0  0  0
  190.6150  176.6660  141.5650 C   0  0  0  0  0  2  0  0  0  0  0  0
  190.2640  178.2990  143.2620 O   0  0  0  0  0  0  0  0  0  0  0  0
  189.7120  178.2380  144.5440 C   0  0  0  0  0  2  0  0  0  0  0  0
  190.0380  176.8980  145.1880 C   0  0  0  0  0  2  0  0  0  0  0  0
  191.9140  177.0010  146.6210 O   0  0  0  0  0  0  0  0  0  0  0  0
  191.4990  176.7920  145.4920 C   0  0  0  0  0  3  0  0  0  0  0  0
  182.8620  177.2610  138.2020 N   0  0  0  0  0  2  0  0  0  0  0  0
  182.9590  177.1190  139.6450 C   0  0  0  0  0  2  0  0  0  0  0  0
  181.7140  177.5390  140.2670 N   0  0  0  0  0  2  0  0  0  0  0  0
  183.3200  178.4090  141.8700 C   0  0  0  0  0  1  0  0  0  0  0  0
  182.0260  178.6700  141.1240 C   0  0  0  0  0  2  0  0  0  0  0  0
  190.4170  176.4600  136.1860 C   0  0  0  0  0  2  0  0  0  0  0  0
  191.4840  174.4380  135.4900 O   0  0  0  0  0  1  0  0  0  0  0  0
  191.6900  175.6260  136.1910 C   0  0  2  0  0  3  0  0  0  0  0  0
  192.0950  175.2970  137.6230 C   0  0  0  0  0  2  0  0  0  0  0  0
  194.1530  176.3000  136.8800 O   0  0  0  0  0  1  0  0  0  0  0  0
  193.5880  175.5130  137.8860 C   0  0  2  0  0  3  0  0  0  0  0  0
  194.3540  174.2000  138.0090 C   0  0  0  0  0  2  0  0  0  0  0  0
  195.7450  174.4250  138.5820 C   0  0  0  0  0  2  0  0  0  0  0  0
  195.6660  175.1620  139.7640 O   0  0  0  0  0  0  0  0  0  0  0  0
  196.9540  175.1170  140.2930 C   0  0  0  0  0  2  0  0  0  0  0  0
  197.9570  174.9760  139.1680 C   0  0  0  0  0  1  0  0  0  0  0  0
  2  1  1  0  0  0  0
  4 23  1  1  0  0  0
  4  1  1  0  0  0  0
  6  5  1  6  0  0  0
  6  4  1  0  0  0  0
  6 11  1  0  0  0  0
  7 28  1  6  0  0  0
  7 10  1  0  0  0  0
  8  7  1  0  0  0  0
  8  9  1  0  0  0  0
  9 11  2  0  0  0  0
  9 10  1  0  0  0  0
 10  3  1  6  0  0  0
 11  2  1  0  0  0  0
 12 10  1  6  0  0  0
 12 15  1  0  0  0  0
 12 13  1  0  0  0  0
 13 16  1  1  0  0  0
 14 18  1  6  0  0  0
 15 13  1  0  0  0  0
 15 17  1  1  0  0  0
 16 14  1  0  0  0  0
 17 14  1  0  0  0  0
 18 19  1  0  0  0  0
 19 20  1  0  0  0  0
 20 22  1  0  0  0  0
 22 21  2  0  0  0  0
 23 24  1  0  0  0  0
 24 25  1  0  0  0  0
 25 27  1  0  0  0  0
 27 26  1  0  0  0  0
 28 30  1  0  0  0  0
 30 29  1  6  0  0  0
 30 31  1  0  0  0  0
 31 33  1  0  0  0  0
 33 32  1  6  0  0  0
 33 34  1  0  0  0  0
 34 35  1  0  0  0  0
 35 36  1  0  0  0  0
 36 37  1  0  0  0  0
 38 37  1  0  0  0  0
M  END
>  <MODEL>
5

>  <REMARK>
 VINA RESULT:      -5.8      3.699      9.180
  Name = 
  17 active torsions:
  status: ('A' for Active; 'I' for Inactive)
    1  A    between atoms: C_3  and  C_5
    2  A    between atoms: C_3  and  C_30
    3  A    between atoms: C_4  and  N_31
    4  A    between atoms: C_4  and  N_33
    5  A    between atoms: C_5  and  O_11
    6  A    between atoms: C_6  and  C_20
    7  A    between atoms: C_6  and  C_24
    8  A    between atoms: C_9  and  C_37
    9  A    between atoms: C_10  and  C_35
   10  A    between atoms: O_11  and  C_15
   11  A    between atoms: C_16  and  O_26
   12  A    between atoms: C_16  and  C_35
   13  A    between atoms: C_17  and  N_33
   14  A    between atoms: C_23  and  O_26
   15  A    between atoms: C_24  and  C_34
   16  A    between atoms: C_28  and  N_31
   17  A    between atoms: C_30  and  C_34
                            x       y       z     vdW  Elec       q    Type
                         _______ _______ _______ _____ _____    ______ ____

>  <TORSDO>
F 17

$$$$
=
 OpenBabel10222421013D

 38 41  0  0  1  0  0  0  0  0999 V2000
  193.5360  175.2930  137.6580 O   0  0  0  0  0  0  0  0  0  0  0  0
  192.2000  175.5030  138.0540 C   0  0  0  0  0  2  0  0  0  0  0  0
  188.6710  175.4590  138.3330 C   0  0  0  0  0  1  0  0  0  0  0  0
  193.6460  175.6800  136.3000 C   0  0  1  0  0  3  0  0  0  0  0  0
  191.9090  176.0830  134.7280 O   0  0  0  0  0  1  0  0  0  0  0  0
  192.4770  176.5660  135.9070 C   0  0  1  0  0  3  0  0  0  0  0  0
  188.3500  177.8100  137.3120 C   0  0  2  0  0  3  0  0  0  0  0  0
  189.4580  177.7970  136.3120 C   0  0  0  0  0  2  0  0  0  0  0  0
  190.3490  176.8880  137.1440 C   0  0  0  0  0  0  0  0  0  0  0  0
  189.2100  176.8910  138.1510 C   0  0  2  0  0  0  0  0  0  0  0  0
  191.5680  176.3500  137.0300 C   0  0  0  0  0  0  0  0  0  0  0  0
  189.6480  177.6180  139.4430 C   0  0  2  0  0  3  0  0  0  0  0  0
  190.2360  176.6910  140.4980 C   0  0  2  0  0  3  0  0  0  0  0  0
  190.2870  178.0150  142.3310 C   0  0  1  0  0  3  0  0  0  0  0  0
  188.8160  177.2060  140.6470 C   0  0  1  0  0  3  0  0  0  0  0  0
  191.0950  177.4170  141.3470 O   0  0  0  0  0  0  0  0  0  0  0  0
  188.9150  178.2290  141.7390 C   0  0  0  0  0  2  0  0  0  0  0  0
  190.1980  177.1740  143.4450 O   0  0  0  0  0  0  0  0  0  0  0  0
  189.9390  178.0290  144.5190 C   0  0  0  0  0  2  0  0  0  0  0  0
  188.7740  177.4940  145.3400 C   0  0  0  0  0  2  0  0  0  0  0  0
  188.7420  176.7990  147.5980 O   0  0  0  0  0  0  0  0  0  0  0  0
  189.0190  177.6830  146.8040 C   0  0  0  0  0  3  0  0  0  0  0  0
  194.8990  176.3900  136.0940 N   0  0  0  0  0  2  0  0  0  0  0  0
  195.8950  175.4130  135.6840 C   0  0  0  0  0  2  0  0  0  0  0  0
  196.9600  175.3520  136.6720 N   0  0  0  0  0  2  0  0  0  0  0  0
  197.4910  173.1800  135.7180 C   0  0  0  0  0  1  0  0  0  0  0  0
  198.0260  174.5470  136.1000 C   0  0  0  0  0  2  0  0  0  0  0  0
  187.1020  177.1760  136.7020 C   0  0  0  0  0  2  0  0  0  0  0  0
  184.7380  177.4990  136.8380 O   0  0  0  0  0  1  0  0  0  0  0  0
  185.8980  177.3970  137.6060 C   0  0  2  0  0  3  0  0  0  0  0  0
  186.0760  178.6770  138.4130 C   0  0  0  0  0  2  0  0  0  0  0  0
  184.2340  180.0740  139.0830 O   0  0  0  0  0  1  0  0  0  0  0  0
  184.9410  178.9160  139.4120 C   0  0  2  0  0  3  0  0  0  0  0  0
  185.4380  179.0030  140.8510 C   0  0  0  0  0  2  0  0  0  0  0  0
  184.3210  178.7070  141.8400 C   0  0  0  0  0  2  0  0  0  0  0  0
  184.6970  177.6700  142.6950 O   0  0  0  0  0  0  0  0  0  0  0  0
  185.5060  178.2800  143.6520 C   0  0  0  0  0  2  0  0  0  0  0  0
  184.6390  179.0250  144.6440 C   0  0  0  0  0  1  0  0  0  0  0  0
  1  2  1  0  0  0  0
  4 23  1  1  0  0  0
  4  1  1  0  0  0  0
  6  5  1  6  0  0  0
  6  4  1  0  0  0  0
  6 11  1  0  0  0  0
  7 28  1  6  0  0  0
  7 10  1  0  0  0  0
  8  9  1  0  0  0  0
  8  7  1  0  0  0  0
  9 10  1  0  0  0  0
 10  3  1  1  0  0  0
 11  9  2  0  0  0  0
 11  2  1  0  0  0  0
 12 10  1  6  0  0  0
 12 13  1  0  0  0  0
 12 15  1  0  0  0  0
 13 15  1  0  0  0  0
 13 16  1  1  0  0  0
 14 18  1  1  0  0  0
 15 17  1  1  0  0  0
 16 14  1  0  0  0  0
 17 14  1  0  0  0  0
 18 19  1  0  0  0  0
 19 20  1  0  0  0  0
 20 22  1  0  0  0  0
 22 21  2  0  0  0  0
 24 23  1  0  0  0  0
 24 25  1  0  0  0  0
 26 27  1  0  0  0  0
 27 25  1  0  0  0  0
 28 30  1  0  0  0  0
 30 29  1  6  0  0  0
 30 31  1  0  0  0  0
 31 33  1  0  0  0  0
 33 32  1  6  0  0  0
 33 34  1  0  0  0  0
 34 35  1  0  0  0  0
 35 36  1  0  0  0  0
 36 37  1  0  0  0  0
 37 38  1  0  0  0  0
M  END
>  <MODEL>
6

>  <REMARK>
 VINA RESULT:      -5.6      3.375      8.354
  Name = 
  17 active torsions:
  status: ('A' for Active; 'I' for Inactive)
    1  A    between atoms: C_3  and  C_5
    2  A    between atoms: C_3  and  C_30
    3  A    between atoms: C_4  and  N_31
    4  A    between atoms: C_4  and  N_33
    5  A    between atoms: C_5  and  O_11
    6  A    between atoms: C_6  and  C_20
    7  A    between atoms: C_6  and  C_24
    8  A    between atoms: C_9  and  C_37
    9  A    between atoms: C_10  and  C_35
   10  A    between atoms: O_11  and  C_15
   11  A    between atoms: C_16  and  O_26
   12  A    between atoms: C_16  and  C_35
   13  A    between atoms: C_17  and  N_33
   14  A    between atoms: C_23  and  O_26
   15  A    between atoms: C_24  and  C_34
   16  A    between atoms: C_28  and  N_31
   17  A    between atoms: C_30  and  C_34
                            x       y       z     vdW  Elec       q    Type
                         _______ _______ _______ _____ _____    ______ ____

>  <TORSDO>
F 17

$$$$
=
 OpenBabel10222421013D

 38 41  0  0  1  0  0  0  0  0999 V2000
  189.5650  177.8330  137.3450 O   0  0  0  0  0  0  0  0  0  0  0  0
  189.1830  178.2620  138.6310 C   0  0  0  0  0  2  0  0  0  0  0  0
  189.0830  179.6950  141.8670 C   0  0  0  0  0  1  0  0  0  0  0  0
  190.7360  177.0510  137.4850 C   0  0  1  0  0  3  0  0  0  0  0  0
  192.1880  176.8770  139.3600 O   0  0  0  0  0  1  0  0  0  0  0  0
  190.8940  176.5890  138.9230 C   0  0  1  0  0  3  0  0  0  0  0  0
  189.3600  177.4440  143.1030 C   0  0  2  0  0  3  0  0  0  0  0  0
  190.2680  176.7480  142.1440 C   0  0  0  0  0  2  0  0  0  0  0  0
  189.7120  177.4620  140.9230 C   0  0  0  0  0  0  0  0  0  0  0  0
  188.8010  178.1810  141.9050 C   0  0  2  0  0  0  0  0  0  0  0  0
  189.9300  177.4490  139.6040 C   0  0  0  0  0  0  0  0  0  0  0  0
  187.3320  177.7600  141.6700 C   0  0  2  0  0  3  0  0  0  0  0  0
  186.4860  178.8360  141.0040 C   0  0  2  0  0  3  0  0  0  0  0  0
  184.3870  178.0410  141.2800 C   0  0  1  0  0  3  0  0  0  0  0  0
  186.3570  178.5850  142.4950 C   0  0  1  0  0  3  0  0  0  0  0  0
  185.4020  178.2410  140.3280 O   0  0  0  0  0  0  0  0  0  0  0  0
  185.0410  177.8780  142.6300 C   0  0  0  0  0  2  0  0  0  0  0  0
  183.5300  179.1470  141.2980 O   0  0  0  0  0  0  0  0  0  0  0  0
  182.3770  178.7160  140.6380 C   0  0  0  0  0  2  0  0  0  0  0  0
  181.1620  178.9100  141.5360 C   0  0  0  0  0  2  0  0  0  0  0  0
  179.3380  177.5150  142.0930 O   0  0  0  0  0  0  0  0  0  0  0  0
  180.0990  177.9060  141.2210 C   0  0  0  0  0  3  0  0  0  0  0  0
  190.6650  175.8990  136.5980 N   0  0  0  0  0  2  0  0  0  0  0  0
  189.9900  174.8320  137.3180 C   0  0  0  0  0  2  0  0  0  0  0  0
  188.6230  174.7030  136.8390 N   0  0  0  0  0  2  0  0  0  0  0  0
  188.5720  173.0950  135.0170 C   0  0  0  0  0  1  0  0  0  0  0  0
  188.6900  174.5580  135.3940 C   0  0  0  0  0  2  0  0  0  0  0  0
  190.1860  178.2850  144.0730 C   0  0  0  0  0  2  0  0  0  0  0  0
  191.1320  176.7520  145.6430 O   0  0  0  0  0  1  0  0  0  0  0  0
  190.1200  177.6980  145.4750 C   0  0  2  0  0  3  0  0  0  0  0  0
  188.7700  177.0280  145.6990 C   0  0  0  0  0  2  0  0  0  0  0  0
  187.9790  177.5870  147.9030 O   0  0  0  0  0  1  0  0  0  0  0  0
  187.8170  177.8760  146.5470 C   0  0  2  0  0  3  0  0  0  0  0  0
  186.3580  177.6900  146.1470 C   0  0  0  0  0  2  0  0  0  0  0  0
  185.5440  178.9460  146.4230 C   0  0  0  0  0  2  0  0  0  0  0  0
  184.1810  178.6650  146.3330 O   0  0  0  0  0  0  0  0  0  0  0  0
  183.7950  179.1910  145.1010 C   0  0  0  0  0  2  0  0  0  0  0  0
  182.4400  178.6360  144.7180 C   0  0  0  0  0  1  0  0  0  0  0  0
  1  4  1  0  0  0  0
  1  2  1  0  0  0  0
  2 11  1  0  0  0  0
  4 23  1  6  0  0  0
  4  6  1  0  0  0  0
  6  5  1  1  0  0  0
  6 11  1  0  0  0  0
  7 28  1  1  0  0  0
  8  7  1  0  0  0  0
  9 10  1  0  0  0  0
  9  8  1  0  0  0  0
 10  3  1  1  0  0  0
 10  7  1  0  0  0  0
 11  9  2  0  0  0  0
 12 10  1  1  0  0  0
 12 15  1  0  0  0  0
 13 16  1  6  0  0  0
 13 12  1  0  0  0  0
 13 15  1  0  0  0  0
 14 18  1  1  0  0  0
 14 17  1  0  0  0  0
 15 17  1  6  0  0  0
 16 14  1  0  0  0  0
 19 18  1  0  0  0  0
 19 20  1  0  0  0  0
 22 20  1  0  0  0  0
 22 21  2  0  0  0  0
 23 24  1  0  0  0  0
 25 24  1  0  0  0  0
 26 27  1  0  0  0  0
 27 25  1  0  0  0  0
 28 30  1  0  0  0  0
 30 29  1  6  0  0  0
 30 31  1  0  0  0  0
 31 33  1  0  0  0  0
 33 32  1  1  0  0  0
 34 35  1  0  0  0  0
 34 33  1  0  0  0  0
 36 35  1  0  0  0  0
 37 36  1  0  0  0  0
 38 37  1  0  0  0  0
M  END
>  <MODEL>
7

>  <REMARK>
 VINA RESULT:      -5.5      2.319      4.429
  Name = 
  17 active torsions:
  status: ('A' for Active; 'I' for Inactive)
    1  A    between atoms: C_3  and  C_5
    2  A    between atoms: C_3  and  C_30
    3  A    between atoms: C_4  and  N_31
    4  A    between atoms: C_4  and  N_33
    5  A    between atoms: C_5  and  O_11
    6  A    between atoms: C_6  and  C_20
    7  A    between atoms: C_6  and  C_24
    8  A    between atoms: C_9  and  C_37
    9  A    between atoms: C_10  and  C_35
   10  A    between atoms: O_11  and  C_15
   11  A    between atoms: C_16  and  O_26
   12  A    between atoms: C_16  and  C_35
   13  A    between atoms: C_17  and  N_33
   14  A    between atoms: C_23  and  O_26
   15  A    between atoms: C_24  and  C_34
   16  A    between atoms: C_28  and  N_31
   17  A    between atoms: C_30  and  C_34
                            x       y       z     vdW  Elec       q    Type
                         _______ _______ _______ _____ _____    ______ ____

>  <TORSDO>
F 17

$$$$
=
 OpenBabel10222421013D

 38 41  0  0  1  0  0  0  0  0999 V2000
  186.5210  178.6160  142.6310 O   0  0  0  0  0  0  0  0  0  0  0  0
  185.7480  178.8220  141.4710 C   0  0  0  0  0  2  0  0  0  0  0  0
  183.5320  180.1000  139.0230 C   0  0  0  0  0  1  0  0  0  0  0  0
  185.6380  178.5860  143.7360 C   0  0  1  0  0  3  0  0  0  0  0  0
  183.3670  179.2850  143.8380 O   0  0  0  0  0  1  0  0  0  0  0  0
  184.2150  178.3350  143.2670 C   0  0  1  0  0  3  0  0  0  0  0  0
  181.6590  178.3930  139.5230 C   0  0  2  0  0  3  0  0  0  0  0  0
  181.8410  178.2550  140.9990 C   0  0  0  0  0  2  0  0  0  0  0  0
  183.3380  178.5150  140.9530 C   0  0  0  0  0  0  0  0  0  0  0  0
  183.1450  178.6720  139.4530 C   0  0  2  0  0  0  0  0  0  0  0  0
  184.3430  178.5710  141.8320 C   0  0  0  0  0  0  0  0  0  0  0  0
  183.8580  177.5230  138.7050 C   0  0  2  0  0  3  0  0  0  0  0  0
  185.1610  177.9430  138.0370 C   0  0  2  0  0  3  0  0  0  0  0  0
  185.6120  176.1750  136.7000 C   0  0  1  0  0  3  0  0  0  0  0  0
  183.9070  177.7550  137.2030 C   0  0  1  0  0  3  0  0  0  0  0  0
  186.0030  176.8220  137.8860 O   0  0  0  0  0  0  0  0  0  0  0  0
  184.1490  176.4680  136.4710 C   0  0  0  0  0  2  0  0  0  0  0  0
  186.3660  176.6570  135.6260 O   0  0  0  0  0  0  0  0  0  0  0  0
  187.6940  176.5540  136.0470 C   0  0  0  0  0  2  0  0  0  0  0  0
  188.4060  177.8860  135.8500 C   0  0  0  0  0  2  0  0  0  0  0  0
  189.0170  179.6400  137.3120 O   0  0  0  0  0  0  0  0  0  0  0  0
  188.8830  178.4360  137.1580 C   0  0  0  0  0  3  0  0  0  0  0  0
  186.0480  177.5430  144.6630 N   0  0  0  0  0  2  0  0  0  0  0  0
  187.1950  178.0410  145.4050 C   0  0  0  0  0  2  0  0  0  0  0  0
  188.3260  177.1460  145.2210 N   0  0  0  0  0  2  0  0  0  0  0  0
  190.7260  177.2180  145.5970 C   0  0  0  0  0  1  0  0  0  0  0  0
  189.5110  177.9770  145.0990 C   0  0  0  0  0  2  0  0  0  0  0  0
  180.7470  179.5810  139.2280 C   0  0  0  0  0  2  0  0  0  0  0  0
  179.7190  177.9780  137.7840 O   0  0  0  0  0  1  0  0  0  0  0  0
  179.9610  179.3420  137.9470 C   0  0  2  0  0  3  0  0  0  0  0  0
  180.7480  179.8550  136.7470 C   0  0  0  0  0  2  0  0  0  0  0  0
  179.1810  179.8470  134.9190 O   0  0  0  0  0  1  0  0  0  0  0  0
  179.8920  180.6830  135.7830 C   0  0  2  0  0  3  0  0  0  0  0  0
  180.7180  181.6790  134.9780 C   0  0  0  0  0  2  0  0  0  0  0  0
  180.5440  183.0950  135.5060 C   0  0  0  0  0  2  0  0  0  0  0  0
  179.6470  183.1030  136.5750 O   0  0  0  0  0  0  0  0  0  0  0  0
  180.0360  184.1930  137.3510 C   0  0  0  0  0  2  0  0  0  0  0  0
  181.4610  184.5730  137.0090 C   0  0  0  0  0  1  0  0  0  0  0  0
  1  4  1  0  0  0  0
  2 11  1  0  0  0  0
  2  1  1  0  0  0  0
  4 23  1  1  0  0  0
  6  4  1  0  0  0  0
  6  5  1  1  0  0  0
  7 28  1  1  0  0  0
  7  8  1  0  0  0  0
  9  8  1  0  0  0  0
  9 11  2  0  0  0  0
 10  3  1  6  0  0  0
 10  7  1  0  0  0  0
 10  9  1  0  0  0  0
 11  6  1  0  0  0  0
 12 10  1  1  0  0  0
 13 16  1  6  0  0  0
 13 12  1  0  0  0  0
 14 18  1  6  0  0  0
 14 16  1  0  0  0  0
 15 17  1  6  0  0  0
 15 13  1  0  0  0  0
 15 12  1  0  0  0  0
 17 14  1  0  0  0  0
 18 19  1  0  0  0  0
 20 19  1  0  0  0  0
 20 22  1  0  0  0  0
 22 21  2  0  0  0  0
 23 24  1  0  0  0  0
 25 24  1  0  0  0  0
 27 25  1  0  0  0  0
 27 26  1  0  0  0  0
 30 29  1  6  0  0  0
 30 28  1  0  0  0  0
 31 30  1  0  0  0  0
 33 32  1  6  0  0  0
 33 31  1  0  0  0  0
 34 35  1  0  0  0  0
 34 33  1  0  0  0  0
 35 36  1  0  0  0  0
 36 37  1  0  0  0  0
 38 37  1  0  0  0  0
M  END
>  <MODEL>
8

>  <REMARK>
 VINA RESULT:      -5.4      3.128      9.250
  Name = 
  17 active torsions:
  status: ('A' for Active; 'I' for Inactive)
    1  A    between atoms: C_3  and  C_5
    2  A    between atoms: C_3  and  C_30
    3  A    between atoms: C_4  and  N_31
    4  A    between atoms: C_4  and  N_33
    5  A    between atoms: C_5  and  O_11
    6  A    between atoms: C_6  and  C_20
    7  A    between atoms: C_6  and  C_24
    8  A    between atoms: C_9  and  C_37
    9  A    between atoms: C_10  and  C_35
   10  A    between atoms: O_11  and  C_15
   11  A    between atoms: C_16  and  O_26
   12  A    between atoms: C_16  and  C_35
   13  A    between atoms: C_17  and  N_33
   14  A    between atoms: C_23  and  O_26
   15  A    between atoms: C_24  and  C_34
   16  A    between atoms: C_28  and  N_31
   17  A    between atoms: C_30  and  C_34
                            x       y       z     vdW  Elec       q    Type
                         _______ _______ _______ _____ _____    ______ ____

>  <TORSDO>
F 17

$$$$
=
 OpenBabel10222421013D

 38 41  0  0  1  0  0  0  0  0999 V2000
  182.7960  178.0430  140.5090 O   0  0  0  0  0  0  0  0  0  0  0  0
  183.8440  177.7860  141.4140 C   0  0  0  0  0  2  0  0  0  0  0  0
  185.8120  176.6580  144.1330 C   0  0  0  0  0  1  0  0  0  0  0  0
  181.7410  178.6460  141.2340 C   0  0  1  0  0  3  0  0  0  0  0  0
  181.4310  178.7510  143.5890 O   0  0  0  0  0  1  0  0  0  0  0  0
  182.2540  179.1960  142.5540 C   0  0  1  0  0  3  0  0  0  0  0  0
  185.8120  178.9350  145.3520 C   0  0  2  0  0  3  0  0  0  0  0  0
  184.4390  179.4020  144.9980 C   0  0  0  0  0  2  0  0  0  0  0  0
  184.4160  178.6830  143.6590 C   0  0  0  0  0  0  0  0  0  0  0  0
  185.8070  178.1950  144.0320 C   0  0  2  0  0  0  0  0  0  0  0  0
  183.5630  178.5530  142.6380 C   0  0  0  0  0  0  0  0  0  0  0  0
  186.8570  178.8150  143.0810 C   0  0  2  0  0  3  0  0  0  0  0  0
  186.9320  178.1290  141.7230 C   0  0  2  0  0  3  0  0  0  0  0  0
  188.8410  178.9800  140.8580 C   0  0  1  0  0  3  0  0  0  0  0  0
  187.9940  177.8530  142.7720 C   0  0  1  0  0  3  0  0  0  0  0  0
  187.4390  179.0280  140.7630 O   0  0  0  0  0  0  0  0  0  0  0  0
  189.1980  178.5950  142.2730 C   0  0  0  0  0  2  0  0  0  0  0  0
  189.3440  178.0290  139.9650 O   0  0  0  0  0  0  0  0  0  0  0  0
  189.1490  178.5870  138.6990 C   0  0  0  0  0  2  0  0  0  0  0  0
  188.5870  177.5380  137.7500 C   0  0  0  0  0  2  0  0  0  0  0  0
  186.4940  178.6340  137.6880 O   0  0  0  0  0  0  0  0  0  0  0  0
  187.3580  178.0430  137.0610 C   0  0  0  0  0  3  0  0  0  0  0  0
  181.1530  179.7180  140.4440 N   0  0  0  0  0  2  0  0  0  0  0  0
  180.7310  179.1470  139.1760 C   0  0  0  0  0  2  0  0  0  0  0  0
  180.2140  180.1960  138.3120 N   0  0  0  0  0  2  0  0  0  0  0  0
  181.5890  178.8330  136.8420 C   0  0  0  0  0  1  0  0  0  0  0  0
  181.0530  180.2220  137.1250 C   0  0  0  0  0  2  0  0  0  0  0  0
  185.7500  178.0610  146.6020 C   0  0  0  0  0  2  0  0  0  0  0  0
  186.0620  180.1630  147.6940 O   0  0  0  0  0  1  0  0  0  0  0  0
  186.3360  178.7990  147.7970 C   0  0  2  0  0  3  0  0  0  0  0  0
  187.8460  178.5960  147.8480 C   0  0  0  0  0  2  0  0  0  0  0  0
  188.4330  176.2730  148.0760 O   0  0  0  0  0  1  0  0  0  0  0  0
  188.2980  177.3100  147.1510 C   0  0  2  0  0  3  0  0  0  0  0  0
  189.6020  177.4910  146.3820 C   0  0  0  0  0  2  0  0  0  0  0  0
  190.7580  176.7940  147.0830 C   0  0  0  0  0  2  0  0  0  0  0  0
  191.7380  176.4360  146.1560 O   0  0  0  0  0  0  0  0  0  0  0  0
  191.2980  176.9830  144.9520 C   0  0  0  0  0  2  0  0  0  0  0  0
  191.6830  176.0670  143.8110 C   0  0  0  0  0  1  0  0  0  0  0  0
  1  4  1  0  0  0  0
  1  2  1  0  0  0  0
  2 11  1  0  0  0  0
  4 23  1  6  0  0  0
  4  6  1  0  0  0  0
  6 11  1  0  0  0  0
  6  5  1  1  0  0  0
  7 28  1  1  0  0  0
  8  7  1  0  0  0  0
  9 10  1  0  0  0  0
  9  8  1  0  0  0  0
 10  3  1  1  0  0  0
 10  7  1  0  0  0  0
 11  9  2  0  0  0  0
 12 10  1  1  0  0  0
 13 16  1  6  0  0  0
 13 15  1  0  0  0  0
 13 12  1  0  0  0  0
 14 18  1  6  0  0  0
 14 17  1  0  0  0  0
 15 17  1  6  0  0  0
 15 12  1  0  0  0  0
 16 14  1  0  0  0  0
 19 18  1  0  0  0  0
 20 19  1  0  0  0  0
 22 21  2  0  0  0  0
 22 20  1  0  0  0  0
 24 23  1  0  0  0  0
 25 24  1  0  0  0  0
 26 27  1  0  0  0  0
 27 25  1  0  0  0  0
 28 30  1  0  0  0  0
 30 29  1  6  0  0  0
 30 31  1  0  0  0  0
 33 31  1  0  0  0  0
 33 32  1  1  0  0  0
 34 35  1  0  0  0  0
 34 33  1  0  0  0  0
 36 35  1  0  0  0  0
 37 36  1  0  0  0  0
 38 37  1  0  0  0  0
M  END
>  <MODEL>
9

>  <REMARK>
 VINA RESULT:      -5.3      2.973      5.674
  Name = 
  17 active torsions:
  status: ('A' for Active; 'I' for Inactive)
    1  A    between atoms: C_3  and  C_5
    2  A    between atoms: C_3  and  C_30
    3  A    between atoms: C_4  and  N_31
    4  A    between atoms: C_4  and  N_33
    5  A    between atoms: C_5  and  O_11
    6  A    between atoms: C_6  and  C_20
    7  A    between atoms: C_6  and  C_24
    8  A    between atoms: C_9  and  C_37
    9  A    between atoms: C_10  and  C_35
   10  A    between atoms: O_11  and  C_15
   11  A    between atoms: C_16  and  O_26
   12  A    between atoms: C_16  and  C_35
   13  A    between atoms: C_17  and  N_33
   14  A    between atoms: C_23  and  O_26
   15  A    between atoms: C_24  and  C_34
   16  A    between atoms: C_28  and  N_31
   17  A    between atoms: C_30  and  C_34
                            x       y       z     vdW  Elec       q    Type
                         _______ _______ _______ _____ _____    ______ ____

>  <TORSDO>
F 17

$$$$
