=
 OpenBabel10222420073D

 48 48  0  0  1  0  0  0  0  0999 V2000
  189.2430  177.9230  142.7610 C   0  0  2  0  0  3  0  0  0  0  0  0
  190.9100  179.3140  144.0300 C   0  0  0  0  0  1  0  0  0  0  0  0
  190.5240  177.9030  143.6060 C   0  0  1  0  0  3  0  0  0  0  0  0
  190.3850  177.0800  144.7330 O   0  0  0  0  0  0  0  0  0  0  0  0
  191.5640  177.2720  145.4550 C   0  0  0  0  0  2  0  0  0  0  0  0
  191.3530  176.9050  146.9160 C   0  0  1  0  0  3  0  0  0  0  0  0
  189.9050  176.5070  147.1260 C   0  0  0  0  0  1  0  0  0  0  0  0
  192.4930  174.8490  146.5170 O   0  0  0  0  0  0  0  0  0  0  0  0
  192.8800  175.8010  148.5660 O   0  0  0  0  0  1  0  0  0  0  0  0
  192.2570  175.7870  147.3240 C   0  0  0  0  0  0  0  0  0  0  0  0
  188.2070  176.9240  143.2640 C   0  0  0  0  0  2  0  0  0  0  0  0
  187.1390  177.6360  144.0760 C   0  0  0  0  0  2  0  0  0  0  0  0
  185.7870  177.5350  143.3850 C   0  0  0  0  0  2  0  0  0  0  0  0
  185.2320  178.9170  143.0420 C   0  0  2  0  0  3  0  0  0  0  0  0
  184.2240  178.7540  145.4100 C   0  0  0  0  0  1  0  0  0  0  0  0
  183.3700  180.1970  143.7640 O   0  0  0  0  0  0  0  0  0  0  0  0
  184.2100  179.3560  144.0480 C   0  0  0  0  0  0  0  0  0  0  0  0
  185.2850  179.6660  140.7630 O   0  0  0  0  0  0  0  0  0  0  0  0
  184.6980  178.9770  141.6450 C   0  0  0  0  0  0  0  0  0  0  0  0
  183.4860  178.2860  141.3390 N   0  0  0  0  0  2  0  0  0  0  0  0
  182.8560  178.3270  140.0280 C   0  0  2  0  0  3  0  0  0  0  0  0
  181.3660  178.6060  140.1640 C   0  0  0  0  0  1  0  0  0  0  0  0
  183.0790  177.0310  139.3160 C   0  0  0  0  0  0  0  0  0  0  0  0
  182.7130  175.9790  139.8170 O   0  0  0  0  0  0  0  0  0  0  0  0
  183.8070  177.0350  138.0050 C   0  0  0  0  0  2  0  0  0  0  0  0
  182.3710  175.4010  136.9800 O   0  0  0  0  0  1  0  0  0  0  0  0
  183.7050  175.7110  137.2500 C   0  0  1  0  0  3  0  0  0  0  0  0
  184.5060  175.7210  135.9880 C   0  0  0  0  0  3  0  0  0  0  0  0
  185.4180  176.5200  135.8510 O   0  0  0  0  0  0  0  0  0  0  0  0
  189.4940  177.7650  141.2490 C   0  0  1  0  0  3  0  0  0  0  0  0
  190.6120  176.7750  140.9440 C   0  0  0  0  0  2  0  0  0  0  0  0
  191.7750  177.4410  140.5550 O   0  0  0  0  0  1  0  0  0  0  0  0
  188.3300  177.4370  140.5390 O   0  0  0  0  0  0  0  0  0  0  0  0
  188.2280  178.3990  139.5330 C   0  0  0  0  0  2  0  0  0  0  0  0
  187.6890  177.7470  138.2760 C   0  0  0  0  0  2  0  0  0  0  0  0
  195.5560  174.3620  138.5720 C   0  0  0  0  0  0  0  0  0  0  0  0
  190.6330  174.6730  137.0840 N   0  0  0  0  0  0  0  0  0  0  0  0
  196.6280  174.7350  139.1100 O   0  0  0  0  0  0  0  0  0  0  0  0
  190.0030  176.8670  137.7710 N   0  0  0  0  0  2  0  0  0  0  0  0
  190.9810  175.8950  137.3760 C   0  0  0  0  0  0  0  0  0  0  0  0
  195.3340  172.9040  138.3540 C   0  0  0  0  0  1  0  0  0  0  0  0
  188.5890  176.6400  137.8560 C   0  0  0  0  0  0  0  0  0  0  0  0
  192.4250  176.3050  137.2940 C   0  0  0  0  0  2  0  0  0  0  0  0
  191.6170  173.6940  136.6280 C   0  0  0  0  0  2  0  0  0  0  0  0
  188.0930  175.5190  137.5640 O   0  0  0  0  0  0  0  0  0  0  0  0
  193.3090  175.1230  137.5820 C   0  0  0  0  0  0  0  0  0  0  0  0
  192.9030  173.9210  137.2870 N   0  0  0  0  0  0  0  0  0  0  0  0
  194.5850  175.3480  138.1970 N   0  0  0  0  0  2  0  0  0  0  0  0
  1 11  1  1  0  0  0
  1  3  1  0  0  0  0
  3  2  1  1  0  0  0
  3  4  1  0  0  0  0
  4  5  1  0  0  0  0
  5  6  1  0  0  0  0
  6  7  1  6  0  0  0
  6 10  1  0  0  0  0
  8 10  2  0  0  0  0
 10  9  1  0  0  0  0
 11 12  1  0  0  0  0
 13 12  1  0  0  0  0
 14 13  1  1  0  0  0
 14 17  1  0  0  0  0
 16 17  2  0  0  0  0
 17 15  1  0  0  0  0
 18 19  2  0  0  0  0
 19 14  1  0  0  0  0
 20 19  1  0  0  0  0
 21 22  1  1  0  0  0
 21 20  1  0  0  0  0
 23 24  2  0  0  0  0
 23 21  1  0  0  0  0
 25 23  1  0  0  0  0
 27 26  1  6  0  0  0
 27 25  1  0  0  0  0
 28 27  1  0  0  0  0
 29 28  2  0  0  0  0
 30 31  1  1  0  0  0
 30  1  1  0  0  0  0
 32 31  1  0  0  0  0
 33 30  1  0  0  0  0
 34 33  1  0  0  0  0
 35 34  1  0  0  0  0
 36 38  2  0  0  0  0
 37 40  2  0  0  0  0
 39 42  1  0  0  0  0
 40 39  1  0  0  0  0
 41 36  1  0  0  0  0
 42 35  1  0  0  0  0
 43 40  1  0  0  0  0
 43 46  1  0  0  0  0
 44 37  1  0  0  0  0
 44 47  1  0  0  0  0
 45 42  2  0  0  0  0
 46 48  1  0  0  0  0
 47 46  2  0  0  0  0
 48 36  1  0  0  0  0
M  END
>  <MODEL>
1

>  <REMARK>
 VINA RESULT:      -7.3      0.000      0.000
  Name = 
  22 active torsions:
  status: ('A' for Active; 'I' for Inactive)
    1  A    between atoms: C_2  and  C_31
    2  A    between atoms: C_2  and  C_32
    3  A    between atoms: C_4  and  C_41
    4  A    between atoms: C_4  and  C_44
    5  A    between atoms: O_6  and  C_19
    6  A    between atoms: O_6  and  C_44
    7  A    between atoms: C_8  and  C_15
    8  A    between atoms: C_8  and  C_19
    9  A    between atoms: C_8  and  C_32
   10  A    between atoms: C_9  and  C_17
   11  A    between atoms: C_9  and  C_30
   12  A    between atoms: C_11  and  C_34
   13  A    between atoms: C_15  and  C_16
   14  A    between atoms: C_15  and  O_18
   15  A    between atoms: C_17  and  N_47
   16  A    between atoms: O_18  and  C_37
   17  A    between atoms: C_21  and  C_38
   18  A    between atoms: C_30  and  C_34
   19  A    between atoms: C_31  and  C_38
   20  A    between atoms: C_35  and  C_40
   21  A    between atoms: C_37  and  C_40
   22  A    between atoms: C_38  and  C_46
                            x       y       z     vdW  Elec       q    Type
                         _______ _______ _______ _____ _____    ______ ____

>  <TORSDO>
F 22

$$$$
=
 OpenBabel10222420073D

 48 48  0  0  1  0  0  0  0  0999 V2000
  189.2180  177.9330  142.7920 C   0  0  2  0  0  3  0  0  0  0  0  0
  190.8720  179.1190  144.2680 C   0  0  0  0  0  1  0  0  0  0  0  0
  190.4060  177.7650  143.7500 C   0  0  1  0  0  3  0  0  0  0  0  0
  190.0880  176.9190  144.8220 O   0  0  0  0  0  0  0  0  0  0  0  0
  191.1520  177.0670  145.7120 C   0  0  0  0  0  2  0  0  0  0  0  0
  190.7990  176.4590  147.0610 C   0  0  1  0  0  3  0  0  0  0  0  0
  191.9740  176.6240  148.0060 C   0  0  0  0  0  1  0  0  0  0  0  0
  188.4410  176.6530  147.3540 O   0  0  0  0  0  0  0  0  0  0  0  0
  189.7000  178.1670  148.5270 O   0  0  0  0  0  1  0  0  0  0  0  0
  189.5820  177.1050  147.6380 C   0  0  0  0  0  0  0  0  0  0  0  0
  188.1190  176.9080  143.0540 C   0  0  0  0  0  2  0  0  0  0  0  0
  186.7670  177.5950  143.1400 C   0  0  0  0  0  2  0  0  0  0  0  0
  186.1880  177.4600  144.5410 C   0  0  0  0  0  2  0  0  0  0  0  0
  185.7650  178.8160  145.1020 C   0  0  2  0  0  3  0  0  0  0  0  0
  186.4290  179.3000  147.5460 C   0  0  0  0  0  1  0  0  0  0  0  0
  184.4390  178.1940  146.9670 O   0  0  0  0  0  0  0  0  0  0  0  0
  185.4620  178.7280  146.5680 C   0  0  0  0  0  0  0  0  0  0  0  0
  184.6060  180.6460  144.0680 O   0  0  0  0  0  0  0  0  0  0  0  0
  184.6250  179.4110  144.3340 C   0  0  0  0  0  0  0  0  0  0  0  0
  183.5360  178.5690  143.9540 N   0  0  0  0  0  2  0  0  0  0  0  0
  182.3580  179.0600  143.2540 C   0  0  2  0  0  3  0  0  0  0  0  0
  181.0920  178.5760  143.9460 C   0  0  0  0  0  1  0  0  0  0  0  0
  182.3820  178.5990  141.8320 C   0  0  0  0  0  0  0  0  0  0  0  0
  181.3390  178.3610  141.2410 O   0  0  0  0  0  0  0  0  0  0  0  0
  183.7030  178.3760  141.1590 C   0  0  0  0  0  2  0  0  0  0  0  0
  184.7410  179.8600  139.5760 O   0  0  0  0  0  1  0  0  0  0  0  0
  183.7470  178.8900  139.7210 C   0  0  1  0  0  3  0  0  0  0  0  0
  183.9460  177.7850  138.7350 C   0  0  0  0  0  3  0  0  0  0  0  0
  183.0230  177.0310  138.4700 O   0  0  0  0  0  0  0  0  0  0  0  0
  189.6180  177.9660  141.3040 C   0  0  1  0  0  3  0  0  0  0  0  0
  190.6530  176.9020  140.9560 C   0  0  0  0  0  2  0  0  0  0  0  0
  191.9060  177.4770  140.7410 O   0  0  0  0  0  1  0  0  0  0  0  0
  188.5130  177.8870  140.4450 O   0  0  0  0  0  0  0  0  0  0  0  0
  189.0130  177.3830  139.2440 C   0  0  0  0  0  2  0  0  0  0  0  0
  188.9340  178.4600  138.1810 C   0  0  0  0  0  2  0  0  0  0  0  0
  182.3550  173.3300  136.2230 C   0  0  0  0  0  0  0  0  0  0  0  0
  185.4820  177.3830  135.6390 N   0  0  0  0  0  0  0  0  0  0  0  0
  181.9520  172.2380  136.6930 O   0  0  0  0  0  0  0  0  0  0  0  0
  187.3020  176.8690  137.0900 N   0  0  0  0  0  2  0  0  0  0  0  0
  186.1940  176.4880  136.2630 C   0  0  0  0  0  0  0  0  0  0  0  0
  181.3660  174.2380  135.5730 C   0  0  0  0  0  1  0  0  0  0  0  0
  187.7640  178.2110  137.2980 C   0  0  0  0  0  0  0  0  0  0  0  0
  185.8650  175.0280  136.1140 C   0  0  0  0  0  2  0  0  0  0  0  0
  184.3870  176.9970  134.7520 C   0  0  0  0  0  2  0  0  0  0  0  0
  187.2020  179.1860  136.7290 O   0  0  0  0  0  0  0  0  0  0  0  0
  184.3900  174.8600  135.8700 C   0  0  0  0  0  0  0  0  0  0  0  0
  183.7220  175.7970  135.2580 N   0  0  0  0  0  0  0  0  0  0  0  0
  183.7440  173.6680  136.3340 N   0  0  0  0  0  2  0  0  0  0  0  0
  1 11  1  6  0  0  0
  1  3  1  0  0  0  0
  3  2  1  1  0  0  0
  3  4  1  0  0  0  0
  4  5  1  0  0  0  0
  5  6  1  0  0  0  0
  6 10  1  0  0  0  0
  6  7  1  1  0  0  0
  8 10  2  0  0  0  0
 10  9  1  0  0  0  0
 11 12  1  0  0  0  0
 12 13  1  0  0  0  0
 14 13  1  6  0  0  0
 14 17  1  0  0  0  0
 17 16  2  0  0  0  0
 17 15  1  0  0  0  0
 18 19  2  0  0  0  0
 19 14  1  0  0  0  0
 20 19  1  0  0  0  0
 21 22  1  1  0  0  0
 21 20  1  0  0  0  0
 23 21  1  0  0  0  0
 24 23  2  0  0  0  0
 25 23  1  0  0  0  0
 27 26  1  1  0  0  0
 27 25  1  0  0  0  0
 28 27  1  0  0  0  0
 29 28  2  0  0  0  0
 30 31  1  6  0  0  0
 30  1  1  0  0  0  0
 32 31  1  0  0  0  0
 33 30  1  0  0  0  0
 34 33  1  0  0  0  0
 35 34  1  0  0  0  0
 36 48  1  0  0  0  0
 36 38  2  0  0  0  0
 37 40  2  0  0  0  0
 39 42  1  0  0  0  0
 40 39  1  0  0  0  0
 41 36  1  0  0  0  0
 42 35  1  0  0  0  0
 43 40  1  0  0  0  0
 44 47  1  0  0  0  0
 44 37  1  0  0  0  0
 45 42  2  0  0  0  0
 46 43  1  0  0  0  0
 46 48  1  0  0  0  0
 47 46  2  0  0  0  0
M  END
>  <MODEL>
2

>  <REMARK>
 VINA RESULT:      -7.1      2.922      5.329
  Name = 
  22 active torsions:
  status: ('A' for Active; 'I' for Inactive)
    1  A    between atoms: C_2  and  C_31
    2  A    between atoms: C_2  and  C_32
    3  A    between atoms: C_4  and  C_41
    4  A    between atoms: C_4  and  C_44
    5  A    between atoms: O_6  and  C_19
    6  A    between atoms: O_6  and  C_44
    7  A    between atoms: C_8  and  C_15
    8  A    between atoms: C_8  and  C_19
    9  A    between atoms: C_8  and  C_32
   10  A    between atoms: C_9  and  C_17
   11  A    between atoms: C_9  and  C_30
   12  A    between atoms: C_11  and  C_34
   13  A    between atoms: C_15  and  C_16
   14  A    between atoms: C_15  and  O_18
   15  A    between atoms: C_17  and  N_47
   16  A    between atoms: O_18  and  C_37
   17  A    between atoms: C_21  and  C_38
   18  A    between atoms: C_30  and  C_34
   19  A    between atoms: C_31  and  C_38
   20  A    between atoms: C_35  and  C_40
   21  A    between atoms: C_37  and  C_40
   22  A    between atoms: C_38  and  C_46
                            x       y       z     vdW  Elec       q    Type
                         _______ _______ _______ _____ _____    ______ ____

>  <TORSDO>
F 22

$$$$
=
 OpenBabel10222420073D

 48 48  0  0  1  0  0  0  0  0999 V2000
  187.2660  177.5870  145.8430 C   0  0  2  0  0  3  0  0  0  0  0  0
  188.0680  176.5740  148.0010 C   0  0  0  0  0  1  0  0  0  0  0  0
  188.0870  177.8170  147.1200 C   0  0  1  0  0  3  0  0  0  0  0  0
  189.4080  178.1810  146.8250 O   0  0  0  0  0  0  0  0  0  0  0  0
  190.1830  177.1430  147.3450 C   0  0  0  0  0  2  0  0  0  0  0  0
  191.0190  176.5070  146.2460 C   0  0  1  0  0  3  0  0  0  0  0  0
  191.5350  177.5920  145.3210 C   0  0  0  0  0  1  0  0  0  0  0  0
  192.6050  176.0320  147.9620 O   0  0  0  0  0  1  0  0  0  0  0  0
  192.7090  174.6620  146.1280 O   0  0  0  0  0  0  0  0  0  0  0  0
  192.1630  175.7360  146.8200 C   0  0  0  0  0  0  0  0  0  0  0  0
  187.9870  178.0930  144.5980 C   0  0  0  0  0  2  0  0  0  0  0  0
  187.8340  177.0970  143.4610 C   0  0  0  0  0  2  0  0  0  0  0  0
  188.1940  177.7460  142.1320 C   0  0  0  0  0  2  0  0  0  0  0  0
  189.0360  176.8110  141.2660 C   0  0  2  0  0  3  0  0  0  0  0  0
  191.4930  177.4240  141.7550 C   0  0  0  0  0  1  0  0  0  0  0  0
  190.4790  175.4770  142.5930 O   0  0  0  0  0  0  0  0  0  0  0  0
  190.3440  176.4900  141.9240 C   0  0  0  0  0  0  0  0  0  0  0  0
  188.9270  178.5450  139.6100 O   0  0  0  0  0  0  0  0  0  0  0  0
  189.2280  177.3480  139.8810 C   0  0  0  0  0  0  0  0  0  0  0  0
  189.7090  176.4710  138.8620 N   0  0  0  0  0  2  0  0  0  0  0  0
  189.8780  176.8810  137.4760 C   0  0  2  0  0  3  0  0  0  0  0  0
  188.6180  176.5780  136.6770 C   0  0  0  0  0  1  0  0  0  0  0  0
  191.0540  176.1760  136.8770 C   0  0  0  0  0  0  0  0  0  0  0  0
  191.2360  176.1920  135.6690 O   0  0  0  0  0  0  0  0  0  0  0  0
  191.9740  175.4020  137.7730 C   0  0  0  0  0  2  0  0  0  0  0  0
  193.5780  176.7660  138.9360 O   0  0  0  0  0  1  0  0  0  0  0  0
  193.3960  175.9590  137.8110 C   0  0  1  0  0  3  0  0  0  0  0  0
  194.4250  174.8760  137.7710 C   0  0  0  0  0  3  0  0  0  0  0  0
  195.4890  175.0250  138.3510 O   0  0  0  0  0  0  0  0  0  0  0  0
  185.8270  178.1320  145.9240 C   0  0  1  0  0  3  0  0  0  0  0  0
  185.7810  179.6030  146.3210 C   0  0  0  0  0  2  0  0  0  0  0  0
  185.6960  179.7420  147.7070 O   0  0  0  0  0  1  0  0  0  0  0  0
  185.0980  177.9110  144.7460 O   0  0  0  0  0  0  0  0  0  0  0  0
  184.3850  179.0900  144.5260 C   0  0  0  0  0  2  0  0  0  0  0  0
  182.9210  178.7540  144.3270 C   0  0  0  0  0  2  0  0  0  0  0  0
  184.4550  176.6150  136.1710 C   0  0  0  0  0  0  0  0  0  0  0  0
  182.1450  179.1810  139.9960 N   0  0  0  0  0  0  0  0  0  0  0  0
  185.2980  175.8590  135.6290 O   0  0  0  0  0  0  0  0  0  0  0  0
  183.5320  178.7050  141.8750 N   0  0  0  0  0  2  0  0  0  0  0  0
  183.3140  178.8470  140.4650 C   0  0  0  0  0  0  0  0  0  0  0  0
  183.1520  176.8440  135.4830 C   0  0  0  0  0  1  0  0  0  0  0  0
  182.5520  178.9350  142.8970 C   0  0  0  0  0  0  0  0  0  0  0  0
  184.4620  178.6110  139.5230 C   0  0  0  0  0  2  0  0  0  0  0  0
  181.9310  179.3810  138.5650 C   0  0  0  0  0  2  0  0  0  0  0  0
  181.3830  179.3040  142.6040 O   0  0  0  0  0  0  0  0  0  0  0  0
  183.9450  178.1030  138.2050 C   0  0  0  0  0  0  0  0  0  0  0  0
  182.7600  178.4540  137.7930 N   0  0  0  0  0  0  0  0  0  0  0  0
  184.7710  177.2230  137.4320 N   0  0  0  0  0  2  0  0  0  0  0  0
  1 11  1  6  0  0  0
  1 30  1  0  0  0  0
  1  3  1  0  0  0  0
  3  2  1  1  0  0  0
  4  3  1  0  0  0  0
  4  5  1  0  0  0  0
  6  7  1  6  0  0  0
  6 10  1  0  0  0  0
  6  5  1  0  0  0  0
  9 10  2  0  0  0  0
 10  8  1  0  0  0  0
 12 11  1  0  0  0  0
 13 12  1  0  0  0  0
 14 17  1  0  0  0  0
 14 13  1  1  0  0  0
 15 17  1  0  0  0  0
 17 16  2  0  0  0  0
 18 19  2  0  0  0  0
 19 14  1  0  0  0  0
 20 19  1  0  0  0  0
 21 22  1  6  0  0  0
 21 20  1  0  0  0  0
 23 21  1  0  0  0  0
 23 25  1  0  0  0  0
 24 23  2  0  0  0  0
 25 27  1  0  0  0  0
 27 26  1  1  0  0  0
 28 27  1  0  0  0  0
 28 29  2  0  0  0  0
 30 31  1  6  0  0  0
 31 32  1  0  0  0  0
 33 30  1  0  0  0  0
 34 33  1  0  0  0  0
 35 34  1  0  0  0  0
 36 48  1  0  0  0  0
 37 40  2  0  0  0  0
 38 36  2  0  0  0  0
 39 42  1  0  0  0  0
 40 39  1  0  0  0  0
 41 36  1  0  0  0  0
 42 35  1  0  0  0  0
 43 40  1  0  0  0  0
 44 37  1  0  0  0  0
 45 42  2  0  0  0  0
 46 43  1  0  0  0  0
 47 46  2  0  0  0  0
 47 44  1  0  0  0  0
 48 46  1  0  0  0  0
M  END
>  <MODEL>
3

>  <REMARK>
 VINA RESULT:      -7.1      2.037      7.756
  Name = 
  22 active torsions:
  status: ('A' for Active; 'I' for Inactive)
    1  A    between atoms: C_2  and  C_31
    2  A    between atoms: C_2  and  C_32
    3  A    between atoms: C_4  and  C_41
    4  A    between atoms: C_4  and  C_44
    5  A    between atoms: O_6  and  C_19
    6  A    between atoms: O_6  and  C_44
    7  A    between atoms: C_8  and  C_15
    8  A    between atoms: C_8  and  C_19
    9  A    between atoms: C_8  and  C_32
   10  A    between atoms: C_9  and  C_17
   11  A    between atoms: C_9  and  C_30
   12  A    between atoms: C_11  and  C_34
   13  A    between atoms: C_15  and  C_16
   14  A    between atoms: C_15  and  O_18
   15  A    between atoms: C_17  and  N_47
   16  A    between atoms: O_18  and  C_37
   17  A    between atoms: C_21  and  C_38
   18  A    between atoms: C_30  and  C_34
   19  A    between atoms: C_31  and  C_38
   20  A    between atoms: C_35  and  C_40
   21  A    between atoms: C_37  and  C_40
   22  A    between atoms: C_38  and  C_46
                            x       y       z     vdW  Elec       q    Type
                         _______ _______ _______ _____ _____    ______ ____

>  <TORSDO>
F 22

$$$$
=
 OpenBabel10222420073D

 48 48  0  0  1  0  0  0  0  0999 V2000
  189.2010  178.0150  142.5490 C   0  0  2  0  0  3  0  0  0  0  0  0
  191.0030  179.1140  143.9150 C   0  0  0  0  0  1  0  0  0  0  0  0
  190.2280  177.8250  143.6740 C   0  0  1  0  0  3  0  0  0  0  0  0
  189.6200  177.3970  144.8620 O   0  0  0  0  0  0  0  0  0  0  0  0
  190.2100  178.1740  145.8590 C   0  0  0  0  0  2  0  0  0  0  0  0
  190.3970  177.3540  147.1250 C   0  0  1  0  0  3  0  0  0  0  0  0
  189.2000  176.4410  147.3110 C   0  0  0  0  0  1  0  0  0  0  0  0
  192.3550  176.4000  148.0960 O   0  0  0  0  0  1  0  0  0  0  0  0
  192.0240  175.9120  145.8820 O   0  0  0  0  0  0  0  0  0  0  0  0
  191.6530  176.5460  147.0610 C   0  0  0  0  0  0  0  0  0  0  0  0
  188.0580  177.0080  142.6400 C   0  0  0  0  0  2  0  0  0  0  0  0
  186.7280  177.7320  142.7680 C   0  0  0  0  0  2  0  0  0  0  0  0
  186.1270  177.5040  144.1480 C   0  0  0  0  0  2  0  0  0  0  0  0
  185.6560  178.8150  144.7740 C   0  0  2  0  0  3  0  0  0  0  0  0
  186.4780  178.7910  147.2180 C   0  0  0  0  0  1  0  0  0  0  0  0
  184.2390  178.3930  146.6280 O   0  0  0  0  0  0  0  0  0  0  0  0
  185.3670  178.6470  146.2350 C   0  0  0  0  0  0  0  0  0  0  0  0
  184.1700  180.6120  144.2080 O   0  0  0  0  0  0  0  0  0  0  0  0
  184.4900  179.4020  144.0410 C   0  0  0  0  0  0  0  0  0  0  0  0
  183.7150  178.5560  143.1900 N   0  0  0  0  0  2  0  0  0  0  0  0
  182.5320  179.0150  142.4770 C   0  0  2  0  0  3  0  0  0  0  0  0
  181.3010  178.9030  143.3660 C   0  0  0  0  0  1  0  0  0  0  0  0
  182.3460  178.2120  141.2300 C   0  0  0  0  0  0  0  0  0  0  0  0
  181.2420  178.1100  140.7170 O   0  0  0  0  0  0  0  0  0  0  0  0
  183.5220  177.4850  140.6480 C   0  0  0  0  0  2  0  0  0  0  0  0
  184.2550  177.4430  138.3580 O   0  0  0  0  0  1  0  0  0  0  0  0
  184.1970  178.2390  139.5040 C   0  0  1  0  0  3  0  0  0  0  0  0
  183.5170  179.5360  139.2070 C   0  0  0  0  0  3  0  0  0  0  0  0
  184.1810  180.5250  138.9420 O   0  0  0  0  0  0  0  0  0  0  0  0
  189.8200  178.0410  141.1390 C   0  0  1  0  0  3  0  0  0  0  0  0
  190.8240  176.9140  140.9220 C   0  0  0  0  0  2  0  0  0  0  0  0
  192.1040  177.4230  140.6980 O   0  0  0  0  0  1  0  0  0  0  0  0
  188.8540  178.0490  140.1230 O   0  0  0  0  0  0  0  0  0  0  0  0
  189.0770  176.8830  139.3900 C   0  0  0  0  0  2  0  0  0  0  0  0
  189.3390  177.2490  137.9430 C   0  0  0  0  0  2  0  0  0  0  0  0
  197.3840  174.5900  136.6620 C   0  0  0  0  0  0  0  0  0  0  0  0
  192.2620  174.4850  136.1120 N   0  0  0  0  0  0  0  0  0  0  0  0
  198.5010  175.0460  137.0080 O   0  0  0  0  0  0  0  0  0  0  0  0
  191.5860  176.5950  136.9890 N   0  0  0  0  0  2  0  0  0  0  0  0
  192.5520  175.7250  136.3840 C   0  0  0  0  0  0  0  0  0  0  0  0
  197.2500  173.1230  136.4310 C   0  0  0  0  0  1  0  0  0  0  0  0
  190.2370  176.2380  137.3220 C   0  0  0  0  0  0  0  0  0  0  0  0
  193.9160  176.2680  136.0550 C   0  0  0  0  0  2  0  0  0  0  0  0
  193.2240  173.6100  135.4460 C   0  0  0  0  0  2  0  0  0  0  0  0
  189.7930  175.0830  137.0820 O   0  0  0  0  0  0  0  0  0  0  0  0
  194.9360  175.1650  136.1310 C   0  0  0  0  0  0  0  0  0  0  0  0
  194.5860  173.9380  135.8680 N   0  0  0  0  0  0  0  0  0  0  0  0
  196.2790  175.4910  136.5100 N   0  0  0  0  0  2  0  0  0  0  0  0
  1 11  1  6  0  0  0
  1  3  1  0  0  0  0
  3  2  1  1  0  0  0
  3  4  1  0  0  0  0
  4  5  1  0  0  0  0
  5  6  1  0  0  0  0
  6  7  1  6  0  0  0
  9 10  2  0  0  0  0
 10  6  1  0  0  0  0
 10  8  1  0  0  0  0
 11 12  1  0  0  0  0
 12 13  1  0  0  0  0
 14 13  1  6  0  0  0
 14 17  1  0  0  0  0
 17 16  2  0  0  0  0
 17 15  1  0  0  0  0
 19 18  2  0  0  0  0
 19 14  1  0  0  0  0
 20 19  1  0  0  0  0
 21 20  1  0  0  0  0
 21 22  1  1  0  0  0
 23 21  1  0  0  0  0
 24 23  2  0  0  0  0
 25 23  1  0  0  0  0
 27 26  1  6  0  0  0
 27 25  1  0  0  0  0
 28 27  1  0  0  0  0
 29 28  2  0  0  0  0
 30 31  1  6  0  0  0
 30  1  1  0  0  0  0
 32 31  1  0  0  0  0
 33 30  1  0  0  0  0
 34 33  1  0  0  0  0
 35 34  1  0  0  0  0
 36 38  2  0  0  0  0
 37 40  2  0  0  0  0
 39 42  1  0  0  0  0
 40 39  1  0  0  0  0
 41 36  1  0  0  0  0
 42 35  1  0  0  0  0
 43 46  1  0  0  0  0
 43 40  1  0  0  0  0
 44 47  1  0  0  0  0
 44 37  1  0  0  0  0
 45 42  2  0  0  0  0
 46 48  1  0  0  0  0
 47 46  2  0  0  0  0
 48 36  1  0  0  0  0
M  END
>  <MODEL>
4

>  <REMARK>
 VINA RESULT:      -6.6      1.771      2.316
  Name = 
  22 active torsions:
  status: ('A' for Active; 'I' for Inactive)
    1  A    between atoms: C_2  and  C_31
    2  A    between atoms: C_2  and  C_32
    3  A    between atoms: C_4  and  C_41
    4  A    between atoms: C_4  and  C_44
    5  A    between atoms: O_6  and  C_19
    6  A    between atoms: O_6  and  C_44
    7  A    between atoms: C_8  and  C_15
    8  A    between atoms: C_8  and  C_19
    9  A    between atoms: C_8  and  C_32
   10  A    between atoms: C_9  and  C_17
   11  A    between atoms: C_9  and  C_30
   12  A    between atoms: C_11  and  C_34
   13  A    between atoms: C_15  and  C_16
   14  A    between atoms: C_15  and  O_18
   15  A    between atoms: C_17  and  N_47
   16  A    between atoms: O_18  and  C_37
   17  A    between atoms: C_21  and  C_38
   18  A    between atoms: C_30  and  C_34
   19  A    between atoms: C_31  and  C_38
   20  A    between atoms: C_35  and  C_40
   21  A    between atoms: C_37  and  C_40
   22  A    between atoms: C_38  and  C_46
                            x       y       z     vdW  Elec       q    Type
                         _______ _______ _______ _____ _____    ______ ____

>  <TORSDO>
F 22

$$$$
=
 OpenBabel10222420073D

 48 48  0  0  1  0  0  0  0  0999 V2000
  189.5050  178.0940  142.3570 C   0  0  2  0  0  3  0  0  0  0  0  0
  191.8790  177.3410  142.7090 C   0  0  0  0  0  1  0  0  0  0  0  0
  190.4380  177.1930  143.1800 C   0  0  1  0  0  3  0  0  0  0  0  0
  190.3460  177.4700  144.5510 O   0  0  0  0  0  0  0  0  0  0  0  0
  191.4950  176.9000  145.1020 C   0  0  0  0  0  2  0  0  0  0  0  0
  191.4090  176.9040  146.6200 C   0  0  1  0  0  3  0  0  0  0  0  0
  189.9710  176.6640  147.0390 C   0  0  0  0  0  1  0  0  0  0  0  0
  192.5380  174.8040  146.5600 O   0  0  0  0  0  0  0  0  0  0  0  0
  192.8990  176.0550  148.4460 O   0  0  0  0  0  1  0  0  0  0  0  0
  192.2960  175.8560  147.2100 C   0  0  0  0  0  0  0  0  0  0  0  0
  188.1470  178.2770  143.0270 C   0  0  0  0  0  2  0  0  0  0  0  0
  187.7280  176.9940  143.7260 C   0  0  0  0  0  2  0  0  0  0  0  0
  186.2610  177.0600  144.1270 C   0  0  0  0  0  2  0  0  0  0  0  0
  185.8610  178.4740  144.5460 C   0  0  2  0  0  3  0  0  0  0  0  0
  186.5120  178.3650  147.0380 C   0  0  0  0  0  1  0  0  0  0  0  0
  184.2990  178.6840  146.3170 O   0  0  0  0  0  0  0  0  0  0  0  0
  185.4640  178.5220  145.9900 C   0  0  0  0  0  0  0  0  0  0  0  0
  184.3900  180.2270  143.8240 O   0  0  0  0  0  0  0  0  0  0  0  0
  184.7980  179.0430  143.6580 C   0  0  0  0  0  0  0  0  0  0  0  0
  184.2170  178.2080  142.6560 N   0  0  0  0  0  2  0  0  0  0  0  0
  183.1410  178.6480  141.7800 C   0  0  2  0  0  3  0  0  0  0  0  0
  181.8000  178.5330  142.4910 C   0  0  0  0  0  1  0  0  0  0  0  0
  183.1370  177.8300  140.5280 C   0  0  0  0  0  0  0  0  0  0  0  0
  182.8620  176.6400  140.5660 O   0  0  0  0  0  0  0  0  0  0  0  0
  183.5310  178.4770  139.2340 C   0  0  0  0  0  2  0  0  0  0  0  0
  184.4480  180.6580  138.8070 O   0  0  0  0  0  1  0  0  0  0  0  0
  183.2930  179.9850  139.2110 C   0  0  1  0  0  3  0  0  0  0  0  0
  182.1380  180.3590  138.3390 C   0  0  0  0  0  3  0  0  0  0  0  0
  181.2550  181.0800  138.7750 O   0  0  0  0  0  0  0  0  0  0  0  0
  189.3570  177.6580  140.8870 C   0  0  1  0  0  3  0  0  0  0  0  0
  188.4390  178.5810  140.0950 C   0  0  0  0  0  2  0  0  0  0  0  0
  187.1750  178.0120  139.9370 O   0  0  0  0  0  1  0  0  0  0  0  0
  190.5920  177.5080  140.2410 O   0  0  0  0  0  0  0  0  0  0  0  0
  190.4270  176.4270  139.3740 C   0  0  0  0  0  2  0  0  0  0  0  0
  190.7580  176.8670  137.9620 C   0  0  0  0  0  2  0  0  0  0  0  0
  182.3370  175.3700  137.4310 C   0  0  0  0  0  0  0  0  0  0  0  0
  186.9050  177.1160  135.8100 N   0  0  0  0  0  0  0  0  0  0  0  0
  181.5300  174.7490  138.1670 O   0  0  0  0  0  0  0  0  0  0  0  0
  188.4370  176.0970  137.3250 N   0  0  0  0  0  2  0  0  0  0  0  0
  187.1820  176.1440  136.6320 C   0  0  0  0  0  0  0  0  0  0  0  0
  181.8220  176.4830  136.5830 C   0  0  0  0  0  1  0  0  0  0  0  0
  189.5050  177.0450  137.1820 C   0  0  0  0  0  0  0  0  0  0  0  0
  186.1820  175.0450  136.8610 C   0  0  0  0  0  2  0  0  0  0  0  0
  185.6520  177.1410  135.0600 C   0  0  0  0  0  2  0  0  0  0  0  0
  189.4040  178.0210  136.3910 O   0  0  0  0  0  0  0  0  0  0  0  0
  184.7870  175.5780  136.6820 C   0  0  0  0  0  0  0  0  0  0  0  0
  184.5700  176.5660  135.8610 N   0  0  0  0  0  0  0  0  0  0  0  0
  183.7210  174.9920  137.4400 N   0  0  0  0  0  2  0  0  0  0  0  0
  1 11  1  1  0  0  0
  1  3  1  0  0  0  0
  3  2  1  6  0  0  0
  3  4  1  0  0  0  0
  4  5  1  0  0  0  0
  5  6  1  0  0  0  0
  6  7  1  6  0  0  0
  6 10  1  0  0  0  0
  8 10  2  0  0  0  0
 10  9  1  0  0  0  0
 11 12  1  0  0  0  0
 12 13  1  0  0  0  0
 14 13  1  6  0  0  0
 14 17  1  0  0  0  0
 17 16  2  0  0  0  0
 17 15  1  0  0  0  0
 19 18  2  0  0  0  0
 19 14  1  0  0  0  0
 20 19  1  0  0  0  0
 21 22  1  1  0  0  0
 21 20  1  0  0  0  0
 23 24  2  0  0  0  0
 23 21  1  0  0  0  0
 25 23  1  0  0  0  0
 27 26  1  6  0  0  0
 27 25  1  0  0  0  0
 28 29  2  0  0  0  0
 28 27  1  0  0  0  0
 30 31  1  6  0  0  0
 30  1  1  0  0  0  0
 32 31  1  0  0  0  0
 33 30  1  0  0  0  0
 34 33  1  0  0  0  0
 35 34  1  0  0  0  0
 36 48  1  0  0  0  0
 36 38  2  0  0  0  0
 37 40  2  0  0  0  0
 40 43  1  0  0  0  0
 40 39  1  0  0  0  0
 41 36  1  0  0  0  0
 42 39  1  0  0  0  0
 42 35  1  0  0  0  0
 44 37  1  0  0  0  0
 44 47  1  0  0  0  0
 45 42  2  0  0  0  0
 46 43  1  0  0  0  0
 46 48  1  0  0  0  0
 47 46  2  0  0  0  0
M  END
>  <MODEL>
5

>  <REMARK>
 VINA RESULT:      -6.6      2.471      5.163
  Name = 
  22 active torsions:
  status: ('A' for Active; 'I' for Inactive)
    1  A    between atoms: C_2  and  C_31
    2  A    between atoms: C_2  and  C_32
    3  A    between atoms: C_4  and  C_41
    4  A    between atoms: C_4  and  C_44
    5  A    between atoms: O_6  and  C_19
    6  A    between atoms: O_6  and  C_44
    7  A    between atoms: C_8  and  C_15
    8  A    between atoms: C_8  and  C_19
    9  A    between atoms: C_8  and  C_32
   10  A    between atoms: C_9  and  C_17
   11  A    between atoms: C_9  and  C_30
   12  A    between atoms: C_11  and  C_34
   13  A    between atoms: C_15  and  C_16
   14  A    between atoms: C_15  and  O_18
   15  A    between atoms: C_17  and  N_47
   16  A    between atoms: O_18  and  C_37
   17  A    between atoms: C_21  and  C_38
   18  A    between atoms: C_30  and  C_34
   19  A    between atoms: C_31  and  C_38
   20  A    between atoms: C_35  and  C_40
   21  A    between atoms: C_37  and  C_40
   22  A    between atoms: C_38  and  C_46
                            x       y       z     vdW  Elec       q    Type
                         _______ _______ _______ _____ _____    ______ ____

>  <TORSDO>
F 22

$$$$
=
 OpenBabel10222420073D

 48 48  0  0  1  0  0  0  0  0999 V2000
  188.5520  178.2890  142.6690 C   0  0  2  0  0  3  0  0  0  0  0  0
  190.7400  178.7040  143.8380 C   0  0  0  0  0  1  0  0  0  0  0  0
  189.4160  177.9530  143.8940 C   0  0  1  0  0  3  0  0  0  0  0  0
  188.7470  178.2410  145.0910 O   0  0  0  0  0  0  0  0  0  0  0  0
  189.2240  177.2920  145.9970 C   0  0  0  0  0  2  0  0  0  0  0  0
  188.3840  177.3040  147.2640 C   0  0  1  0  0  3  0  0  0  0  0  0
  189.0490  178.1940  148.2960 C   0  0  0  0  0  1  0  0  0  0  0  0
  186.5750  178.8300  147.5550 O   0  0  0  0  0  1  0  0  0  0  0  0
  186.1920  177.1340  146.0630 O   0  0  0  0  0  0  0  0  0  0  0  0
  186.9980  177.7900  146.9850 C   0  0  0  0  0  0  0  0  0  0  0  0
  187.1920  177.6010  142.7210 C   0  0  0  0  0  2  0  0  0  0  0  0
  186.0950  178.5710  142.3160 C   0  0  0  0  0  2  0  0  0  0  0  0
  184.7420  177.8750  142.3130 C   0  0  0  0  0  2  0  0  0  0  0  0
  183.5960  178.8860  142.2830 C   0  0  2  0  0  3  0  0  0  0  0  0
  183.7340  178.9980  144.8560 C   0  0  0  0  0  1  0  0  0  0  0  0
  181.6930  179.0160  143.6930 O   0  0  0  0  0  0  0  0  0  0  0  0
  182.9110  178.9710  143.6140 C   0  0  0  0  0  0  0  0  0  0  0  0
  181.7230  179.4390  140.8890 O   0  0  0  0  0  0  0  0  0  0  0  0
  182.6280  178.6050  141.1770 C   0  0  0  0  0  0  0  0  0  0  0  0
  182.7110  177.3560  140.4880 N   0  0  0  0  0  2  0  0  0  0  0  0
  181.7840  176.9650  139.4370 C   0  0  2  0  0  3  0  0  0  0  0  0
  181.3210  175.5300  139.6460 C   0  0  0  0  0  1  0  0  0  0  0  0
  182.4390  177.1100  138.1010 C   0  0  0  0  0  0  0  0  0  0  0  0
  181.9790  177.8710  137.2640 O   0  0  0  0  0  0  0  0  0  0  0  0
  183.6370  176.2650  137.7810 C   0  0  0  0  0  2  0  0  0  0  0  0
  185.2110  178.0490  138.1290 O   0  0  0  0  0  1  0  0  0  0  0  0
  184.8130  177.0640  137.2230 C   0  0  1  0  0  3  0  0  0  0  0  0
  185.9680  176.1860  136.8620 C   0  0  0  0  0  3  0  0  0  0  0  0
  185.9700  175.0130  137.1990 O   0  0  0  0  0  0  0  0  0  0  0  0
  189.2600  178.0430  141.3230 C   0  0  1  0  0  3  0  0  0  0  0  0
  189.4110  176.5600  141.0060 C   0  0  0  0  0  2  0  0  0  0  0  0
  190.7380  176.1520  141.1510 O   0  0  0  0  0  1  0  0  0  0  0  0
  188.6490  178.7210  140.2590 O   0  0  0  0  0  0  0  0  0  0  0  0
  188.4530  177.7560  139.2700 C   0  0  0  0  0  2  0  0  0  0  0  0
  188.6010  178.4040  137.9080 C   0  0  0  0  0  2  0  0  0  0  0  0
  194.8590  172.5530  137.7140 C   0  0  0  0  0  0  0  0  0  0  0  0
  191.6230  176.0330  135.7220 N   0  0  0  0  0  0  0  0  0  0  0  0
  195.4570  171.9090  138.6120 O   0  0  0  0  0  0  0  0  0  0  0  0
  190.7760  177.1440  137.6530 N   0  0  0  0  0  2  0  0  0  0  0  0
  191.7810  176.3850  136.9670 C   0  0  0  0  0  0  0  0  0  0  0  0
  194.7580  171.9560  136.3520 C   0  0  0  0  0  1  0  0  0  0  0  0
  189.5510  177.6190  137.0770 C   0  0  0  0  0  0  0  0  0  0  0  0
  193.0340  176.0000  137.7040 C   0  0  0  0  0  2  0  0  0  0  0  0
  192.6670  175.3070  135.0020 C   0  0  0  0  0  2  0  0  0  0  0  0
  189.2730  177.3940  135.8680 O   0  0  0  0  0  0  0  0  0  0  0  0
  193.5730  174.7070  137.1560 C   0  0  0  0  0  0  0  0  0  0  0  0
  193.3690  174.3960  135.9070 N   0  0  0  0  0  0  0  0  0  0  0  0
  194.2910  173.8310  138.0330 N   0  0  0  0  0  2  0  0  0  0  0  0
  1 11  1  6  0  0  0
  1  3  1  0  0  0  0
  3  2  1  6  0  0  0
  3  4  1  0  0  0  0
  4  5  1  0  0  0  0
  5  6  1  0  0  0  0
  6  7  1  1  0  0  0
  9 10  2  0  0  0  0
 10  6  1  0  0  0  0
 10  8  1  0  0  0  0
 12 11  1  0  0  0  0
 13 12  1  0  0  0  0
 14 13  1  1  0  0  0
 14 17  1  0  0  0  0
 17 16  2  0  0  0  0
 17 15  1  0  0  0  0
 18 19  2  0  0  0  0
 19 14  1  0  0  0  0
 20 19  1  0  0  0  0
 21 22  1  1  0  0  0
 21 20  1  0  0  0  0
 23 21  1  0  0  0  0
 24 23  2  0  0  0  0
 25 23  1  0  0  0  0
 27 25  1  0  0  0  0
 27 26  1  1  0  0  0
 28 29  2  0  0  0  0
 28 27  1  0  0  0  0
 30 31  1  6  0  0  0
 30  1  1  0  0  0  0
 31 32  1  0  0  0  0
 33 30  1  0  0  0  0
 34 33  1  0  0  0  0
 35 34  1  0  0  0  0
 36 48  1  0  0  0  0
 36 38  2  0  0  0  0
 37 40  2  0  0  0  0
 40 39  1  0  0  0  0
 40 43  1  0  0  0  0
 41 36  1  0  0  0  0
 42 39  1  0  0  0  0
 42 35  1  0  0  0  0
 44 37  1  0  0  0  0
 44 47  1  0  0  0  0
 45 42  2  0  0  0  0
 46 43  1  0  0  0  0
 46 48  1  0  0  0  0
 47 46  2  0  0  0  0
M  END
>  <MODEL>
6

>  <REMARK>
 VINA RESULT:      -6.5      2.047      2.548
  Name = 
  22 active torsions:
  status: ('A' for Active; 'I' for Inactive)
    1  A    between atoms: C_2  and  C_31
    2  A    between atoms: C_2  and  C_32
    3  A    between atoms: C_4  and  C_41
    4  A    between atoms: C_4  and  C_44
    5  A    between atoms: O_6  and  C_19
    6  A    between atoms: O_6  and  C_44
    7  A    between atoms: C_8  and  C_15
    8  A    between atoms: C_8  and  C_19
    9  A    between atoms: C_8  and  C_32
   10  A    between atoms: C_9  and  C_17
   11  A    between atoms: C_9  and  C_30
   12  A    between atoms: C_11  and  C_34
   13  A    between atoms: C_15  and  C_16
   14  A    between atoms: C_15  and  O_18
   15  A    between atoms: C_17  and  N_47
   16  A    between atoms: O_18  and  C_37
   17  A    between atoms: C_21  and  C_38
   18  A    between atoms: C_30  and  C_34
   19  A    between atoms: C_31  and  C_38
   20  A    between atoms: C_35  and  C_40
   21  A    between atoms: C_37  and  C_40
   22  A    between atoms: C_38  and  C_46
                            x       y       z     vdW  Elec       q    Type
                         _______ _______ _______ _____ _____    ______ ____

>  <TORSDO>
F 22

$$$$
=
 OpenBabel10222420073D

 48 48  0  0  1  0  0  0  0  0999 V2000
  185.1430  179.2280  141.6280 C   0  0  2  0  0  3  0  0  0  0  0  0
  183.9430  179.7290  139.4750 C   0  0  0  0  0  1  0  0  0  0  0  0
  184.9010  178.7770  140.1800 C   0  0  1  0  0  3  0  0  0  0  0  0
  186.1010  178.6790  139.4630 O   0  0  0  0  0  0  0  0  0  0  0  0
  185.7260  178.1700  138.2190 C   0  0  0  0  0  2  0  0  0  0  0  0
  186.9270  177.5560  137.5170 C   0  0  1  0  0  3  0  0  0  0  0  0
  186.4620  176.8500  136.2580 C   0  0  0  0  0  1  0  0  0  0  0  0
  189.1660  178.3570  137.3340 O   0  0  0  0  0  1  0  0  0  0  0  0
  187.5450  179.8170  136.6320 O   0  0  0  0  0  0  0  0  0  0  0  0
  187.9400  178.6000  137.1740 C   0  0  0  0  0  0  0  0  0  0  0  0
  186.5890  179.0130  142.0610 C   0  0  0  0  0  2  0  0  0  0  0  0
  186.7950  177.5780  142.5150 C   0  0  0  0  0  2  0  0  0  0  0  0
  187.8840  177.5040  143.5760 C   0  0  0  0  0  2  0  0  0  0  0  0
  189.2540  177.8430  142.9920 C   0  0  2  0  0  3  0  0  0  0  0  0
  189.3610  177.3230  140.4690 C   0  0  0  0  0  1  0  0  0  0  0  0
  190.1140  175.8170  142.1090 O   0  0  0  0  0  0  0  0  0  0  0  0
  189.6170  176.9090  141.8780 C   0  0  0  0  0  0  0  0  0  0  0  0
  191.1550  178.8370  144.0700 O   0  0  0  0  0  0  0  0  0  0  0  0
  190.3170  177.8910  144.0450 C   0  0  0  0  0  0  0  0  0  0  0  0
  190.4010  176.8220  144.9890 N   0  0  0  0  0  2  0  0  0  0  0  0
  191.4300  176.7470  146.0160 C   0  0  2  0  0  3  0  0  0  0  0  0
  192.1480  175.4060  145.9490 C   0  0  0  0  0  1  0  0  0  0  0  0
  190.8170  176.9410  147.3660 C   0  0  0  0  0  0  0  0  0  0  0  0
  191.5190  177.1750  148.3380 O   0  0  0  0  0  0  0  0  0  0  0  0
  189.3330  176.7870  147.5220 C   0  0  0  0  0  2  0  0  0  0  0  0
  189.5190  178.9860  148.4760 O   0  0  0  0  0  1  0  0  0  0  0  0
  188.7010  177.8570  148.4090 C   0  0  1  0  0  3  0  0  0  0  0  0
  187.3290  178.2310  147.9490 C   0  0  0  0  0  3  0  0  0  0  0  0
  186.8960  177.7860  146.8980 O   0  0  0  0  0  0  0  0  0  0  0  0
  184.1530  178.6220  142.6410 C   0  0  1  0  0  3  0  0  0  0  0  0
  183.9150  179.5330  143.8400 C   0  0  0  0  0  2  0  0  0  0  0  0
  184.4880  178.9970  144.9940 O   0  0  0  0  0  1  0  0  0  0  0  0
  182.9370  178.2470  142.0510 O   0  0  0  0  0  0  0  0  0  0  0  0
  181.9610  178.9990  142.7060 C   0  0  0  0  0  2  0  0  0  0  0  0
  180.7750  179.1870  141.7810 C   0  0  0  0  0  2  0  0  0  0  0  0
  182.4600  172.7170  136.4200 C   0  0  0  0  0  0  0  0  0  0  0  0
  179.6960  175.3420  139.8860 N   0  0  0  0  0  0  0  0  0  0  0  0
  183.3840  172.5070  135.5960 O   0  0  0  0  0  0  0  0  0  0  0  0
  180.7680  177.4700  139.9270 N   0  0  0  0  0  2  0  0  0  0  0  0
  180.4250  176.2360  139.2810 C   0  0  0  0  0  0  0  0  0  0  0  0
  181.7660  171.5470  137.0310 C   0  0  0  0  0  1  0  0  0  0  0  0
  180.3460  177.8700  141.2380 C   0  0  0  0  0  0  0  0  0  0  0  0
  180.9130  175.9860  137.8810 C   0  0  0  0  0  2  0  0  0  0  0  0
  179.2970  174.1080  139.2130 C   0  0  0  0  0  2  0  0  0  0  0  0
  179.6010  177.1290  141.9340 O   0  0  0  0  0  0  0  0  0  0  0  0
  181.0990  174.5100  137.6610 C   0  0  0  0  0  0  0  0  0  0  0  0
  180.3550  173.6580  138.3080 N   0  0  0  0  0  0  0  0  0  0  0  0
  182.1110  174.0690  136.7470 N   0  0  0  0  0  2  0  0  0  0  0  0
  1 11  1  1  0  0  0
  1 30  1  0  0  0  0
  3  2  1  6  0  0  0
  3  1  1  0  0  0  0
  4  3  1  0  0  0  0
  5  4  1  0  0  0  0
  6  7  1  6  0  0  0
  6  5  1  0  0  0  0
  9 10  2  0  0  0  0
 10  8  1  0  0  0  0
 10  6  1  0  0  0  0
 11 12  1  0  0  0  0
 12 13  1  0  0  0  0
 14 13  1  1  0  0  0
 14 19  1  0  0  0  0
 15 17  1  0  0  0  0
 17 16  2  0  0  0  0
 17 14  1  0  0  0  0
 19 18  2  0  0  0  0
 19 20  1  0  0  0  0
 20 21  1  0  0  0  0
 21 22  1  1  0  0  0
 21 23  1  0  0  0  0
 23 25  1  0  0  0  0
 23 24  2  0  0  0  0
 25 27  1  0  0  0  0
 27 26  1  6  0  0  0
 28 27  1  0  0  0  0
 29 28  2  0  0  0  0
 30 31  1  1  0  0  0
 31 32  1  0  0  0  0
 33 30  1  0  0  0  0
 33 34  1  0  0  0  0
 35 34  1  0  0  0  0
 36 48  1  0  0  0  0
 36 41  1  0  0  0  0
 38 36  2  0  0  0  0
 39 42  1  0  0  0  0
 40 37  2  0  0  0  0
 40 39  1  0  0  0  0
 42 35  1  0  0  0  0
 42 45  2  0  0  0  0
 43 40  1  0  0  0  0
 44 37  1  0  0  0  0
 46 43  1  0  0  0  0
 46 47  2  0  0  0  0
 47 44  1  0  0  0  0
 48 46  1  0  0  0  0
M  END
>  <MODEL>
7

>  <REMARK>
 VINA RESULT:      -6.3      3.746      9.909
  Name = 
  22 active torsions:
  status: ('A' for Active; 'I' for Inactive)
    1  A    between atoms: C_2  and  C_31
    2  A    between atoms: C_2  and  C_32
    3  A    between atoms: C_4  and  C_41
    4  A    between atoms: C_4  and  C_44
    5  A    between atoms: O_6  and  C_19
    6  A    between atoms: O_6  and  C_44
    7  A    between atoms: C_8  and  C_15
    8  A    between atoms: C_8  and  C_19
    9  A    between atoms: C_8  and  C_32
   10  A    between atoms: C_9  and  C_17
   11  A    between atoms: C_9  and  C_30
   12  A    between atoms: C_11  and  C_34
   13  A    between atoms: C_15  and  C_16
   14  A    between atoms: C_15  and  O_18
   15  A    between atoms: C_17  and  N_47
   16  A    between atoms: O_18  and  C_37
   17  A    between atoms: C_21  and  C_38
   18  A    between atoms: C_30  and  C_34
   19  A    between atoms: C_31  and  C_38
   20  A    between atoms: C_35  and  C_40
   21  A    between atoms: C_37  and  C_40
   22  A    between atoms: C_38  and  C_46
                            x       y       z     vdW  Elec       q    Type
                         _______ _______ _______ _____ _____    ______ ____

>  <TORSDO>
F 22

$$$$
=
 OpenBabel10222420073D

 48 48  0  0  1  0  0  0  0  0999 V2000
  185.1460  179.2880  141.6310 C   0  0  2  0  0  3  0  0  0  0  0  0
  183.8310  179.7780  139.5440 C   0  0  0  0  0  1  0  0  0  0  0  0
  184.7930  178.8070  140.2160 C   0  0  1  0  0  3  0  0  0  0  0  0
  185.9400  178.6390  139.4280 O   0  0  0  0  0  0  0  0  0  0  0  0
  185.4590  178.1720  138.2030 C   0  0  0  0  0  2  0  0  0  0  0  0
  186.5810  177.5220  137.4100 C   0  0  1  0  0  3  0  0  0  0  0  0
  185.9970  176.8310  136.1930 C   0  0  0  0  0  1  0  0  0  0  0  0
  188.8180  178.2350  136.9960 O   0  0  0  0  0  1  0  0  0  0  0  0
  187.1960  179.7860  136.5320 O   0  0  0  0  0  0  0  0  0  0  0  0
  187.5950  178.5340  136.9860 C   0  0  0  0  0  0  0  0  0  0  0  0
  186.6180  179.0630  141.9630 C   0  0  0  0  0  2  0  0  0  0  0  0
  186.8400  177.6330  142.4260 C   0  0  0  0  0  2  0  0  0  0  0  0
  187.9370  177.5780  143.4800 C   0  0  0  0  0  2  0  0  0  0  0  0
  189.2940  177.9610  142.8910 C   0  0  2  0  0  3  0  0  0  0  0  0
  189.4220  177.5940  140.3420 C   0  0  0  0  0  1  0  0  0  0  0  0
  190.1120  175.9710  141.8950 O   0  0  0  0  0  0  0  0  0  0  0  0
  189.6470  177.0880  141.7250 C   0  0  0  0  0  0  0  0  0  0  0  0
  191.2270  178.9000  143.9580 O   0  0  0  0  0  0  0  0  0  0  0  0
  190.3740  177.9680  143.9270 C   0  0  0  0  0  0  0  0  0  0  0  0
  190.4540  176.8790  144.8470 N   0  0  0  0  0  2  0  0  0  0  0  0
  191.4980  176.7650  145.8550 C   0  0  2  0  0  3  0  0  0  0  0  0
  192.2100  175.4250  145.7310 C   0  0  0  0  0  1  0  0  0  0  0  0
  190.9050  176.9130  147.2200 C   0  0  0  0  0  0  0  0  0  0  0  0
  191.6220  177.1160  148.1880 O   0  0  0  0  0  0  0  0  0  0  0  0
  189.4240  176.7520  147.3930 C   0  0  0  0  0  2  0  0  0  0  0  0
  189.6300  178.9020  148.4510 O   0  0  0  0  0  1  0  0  0  0  0  0
  188.8080  177.7790  148.3420 C   0  0  1  0  0  3  0  0  0  0  0  0
  187.4300  178.1770  147.9220 C   0  0  0  0  0  3  0  0  0  0  0  0
  186.9760  177.7730  146.8630 O   0  0  0  0  0  0  0  0  0  0  0  0
  184.2250  178.7210  142.7280 C   0  0  1  0  0  3  0  0  0  0  0  0
  184.1570  179.6210  143.9560 C   0  0  0  0  0  2  0  0  0  0  0  0
  184.8370  179.0480  145.0320 O   0  0  0  0  0  1  0  0  0  0  0  0
  182.9390  178.4250  142.2540 O   0  0  0  0  0  0  0  0  0  0  0  0
  182.0640  178.9840  143.1860 C   0  0  0  0  0  2  0  0  0  0  0  0
  180.6380  178.7670  142.7220 C   0  0  0  0  0  2  0  0  0  0  0  0
  180.2430  184.8750  136.7250 C   0  0  0  0  0  0  0  0  0  0  0  0
  180.1760  180.0440  138.5160 N   0  0  0  0  0  0  0  0  0  0  0  0
  180.2450  186.1300  136.7790 O   0  0  0  0  0  0  0  0  0  0  0  0
  179.9650  180.3490  140.8710 N   0  0  0  0  0  2  0  0  0  0  0  0
  179.7910  180.7860  139.5160 C   0  0  0  0  0  0  0  0  0  0  0  0
  180.7620  184.2110  135.4940 C   0  0  0  0  0  1  0  0  0  0  0  0
  180.5230  179.0910  141.2750 C   0  0  0  0  0  0  0  0  0  0  0  0
  179.1450  182.1200  139.2580 C   0  0  0  0  0  2  0  0  0  0  0  0
  179.9510  180.4600  137.1340 C   0  0  0  0  0  2  0  0  0  0  0  0
  180.9050  178.2460  140.4220 O   0  0  0  0  0  0  0  0  0  0  0  0
  179.6730  182.7030  137.9760 C   0  0  0  0  0  0  0  0  0  0  0  0
  180.0630  181.9140  137.0160 N   0  0  0  0  0  0  0  0  0  0  0  0
  179.7510  184.1290  137.8460 N   0  0  0  0  0  2  0  0  0  0  0  0
  1 11  1  1  0  0  0
  1 30  1  0  0  0  0
  3  2  1  6  0  0  0
  3  1  1  0  0  0  0
  4  3  1  0  0  0  0
  5  4  1  0  0  0  0
  6  7  1  6  0  0  0
  6  5  1  0  0  0  0
  9 10  2  0  0  0  0
 10  8  1  0  0  0  0
 10  6  1  0  0  0  0
 11 12  1  0  0  0  0
 12 13  1  0  0  0  0
 14 13  1  1  0  0  0
 14 19  1  0  0  0  0
 15 17  1  0  0  0  0
 17 16  2  0  0  0  0
 17 14  1  0  0  0  0
 19 18  2  0  0  0  0
 19 20  1  0  0  0  0
 20 21  1  0  0  0  0
 21 22  1  1  0  0  0
 21 23  1  0  0  0  0
 23 25  1  0  0  0  0
 23 24  2  0  0  0  0
 25 27  1  0  0  0  0
 27 26  1  6  0  0  0
 28 27  1  0  0  0  0
 29 28  2  0  0  0  0
 30 31  1  1  0  0  0
 31 32  1  0  0  0  0
 33 30  1  0  0  0  0
 33 34  1  0  0  0  0
 35 34  1  0  0  0  0
 36 38  2  0  0  0  0
 36 48  1  0  0  0  0
 37 40  2  0  0  0  0
 39 42  1  0  0  0  0
 40 39  1  0  0  0  0
 41 36  1  0  0  0  0
 42 35  1  0  0  0  0
 43 40  1  0  0  0  0
 44 37  1  0  0  0  0
 45 42  2  0  0  0  0
 46 43  1  0  0  0  0
 47 44  1  0  0  0  0
 47 46  2  0  0  0  0
 48 46  1  0  0  0  0
M  END
>  <MODEL>
8

>  <REMARK>
 VINA RESULT:      -6.3      3.749     10.951
  Name = 
  22 active torsions:
  status: ('A' for Active; 'I' for Inactive)
    1  A    between atoms: C_2  and  C_31
    2  A    between atoms: C_2  and  C_32
    3  A    between atoms: C_4  and  C_41
    4  A    between atoms: C_4  and  C_44
    5  A    between atoms: O_6  and  C_19
    6  A    between atoms: O_6  and  C_44
    7  A    between atoms: C_8  and  C_15
    8  A    between atoms: C_8  and  C_19
    9  A    between atoms: C_8  and  C_32
   10  A    between atoms: C_9  and  C_17
   11  A    between atoms: C_9  and  C_30
   12  A    between atoms: C_11  and  C_34
   13  A    between atoms: C_15  and  C_16
   14  A    between atoms: C_15  and  O_18
   15  A    between atoms: C_17  and  N_47
   16  A    between atoms: O_18  and  C_37
   17  A    between atoms: C_21  and  C_38
   18  A    between atoms: C_30  and  C_34
   19  A    between atoms: C_31  and  C_38
   20  A    between atoms: C_35  and  C_40
   21  A    between atoms: C_37  and  C_40
   22  A    between atoms: C_38  and  C_46
                            x       y       z     vdW  Elec       q    Type
                         _______ _______ _______ _____ _____    ______ ____

>  <TORSDO>
F 22

$$$$
=
 OpenBabel10222420073D

 48 48  0  0  1  0  0  0  0  0999 V2000
  189.6190  177.3430  139.4070 C   0  0  2  0  0  3  0  0  0  0  0  0
  192.1210  177.2270  139.6340 C   0  0  0  0  0  1  0  0  0  0  0  0
  190.9220  176.8240  138.7840 C   0  0  1  0  0  3  0  0  0  0  0  0
  190.8950  175.4330  138.6140 O   0  0  0  0  0  0  0  0  0  0  0  0
  191.3700  175.2280  137.3180 C   0  0  0  0  0  2  0  0  0  0  0  0
  191.9850  173.8430  137.1940 C   0  0  1  0  0  3  0  0  0  0  0  0
  191.4860  173.1860  135.9220 C   0  0  0  0  0  1  0  0  0  0  0  0
  194.1420  173.0440  136.5640 O   0  0  0  0  0  0  0  0  0  0  0  0
  194.1370  174.9760  137.7960 O   0  0  0  0  0  1  0  0  0  0  0  0
  193.4780  173.9190  137.1800 C   0  0  0  0  0  0  0  0  0  0  0  0
  189.1650  176.4850  140.5840 C   0  0  0  0  0  2  0  0  0  0  0  0
  189.3840  177.2280  141.8920 C   0  0  0  0  0  2  0  0  0  0  0  0
  189.9580  176.2930  142.9470 C   0  0  0  0  0  2  0  0  0  0  0  0
  190.7290  177.0670  144.0160 C   0  0  2  0  0  3  0  0  0  0  0  0
  192.0530  174.8750  144.3200 C   0  0  0  0  0  1  0  0  0  0  0  0
  191.7240  176.4120  146.0660 O   0  0  0  0  0  0  0  0  0  0  0  0
  191.5180  176.1420  144.8930 C   0  0  0  0  0  0  0  0  0  0  0  0
  190.1920  179.1420  145.0940 O   0  0  0  0  0  0  0  0  0  0  0  0
  189.8350  177.9630  144.8150 C   0  0  0  0  0  0  0  0  0  0  0  0
  188.5950  177.4460  145.3000 N   0  0  0  0  0  2  0  0  0  0  0  0
  187.6820  178.2170  146.1300 C   0  0  2  0  0  3  0  0  0  0  0  0
  187.8660  177.8550  147.5970 C   0  0  0  0  0  1  0  0  0  0  0  0
  186.2710  177.9630  145.7060 C   0  0  0  0  0  0  0  0  0  0  0  0
  185.3600  178.0150  146.5190 O   0  0  0  0  0  0  0  0  0  0  0  0
  185.9940  177.5870  144.2800 C   0  0  0  0  0  2  0  0  0  0  0  0
  185.1000  179.8160  144.1610 O   0  0  0  0  0  1  0  0  0  0  0  0
  185.0480  178.5520  143.5700 C   0  0  1  0  0  3  0  0  0  0  0  0
  185.3360  178.6470  142.1060 C   0  0  0  0  0  3  0  0  0  0  0  0
  185.4040  179.7400  141.5680 O   0  0  0  0  0  0  0  0  0  0  0  0
  188.4820  177.5510  138.3880 C   0  0  1  0  0  3  0  0  0  0  0  0
  188.9060  178.4250  137.2130 C   0  0  0  0  0  2  0  0  0  0  0  0
  189.0610  179.7530  137.6100 O   0  0  0  0  0  1  0  0  0  0  0  0
  187.9310  176.3440  137.9380 O   0  0  0  0  0  0  0  0  0  0  0  0
  186.8190  176.7050  137.1770 C   0  0  0  0  0  2  0  0  0  0  0  0
  185.8020  175.5830  137.2180 C   0  0  0  0  0  2  0  0  0  0  0  0
  180.8370  182.5450  137.7690 C   0  0  0  0  0  0  0  0  0  0  0  0
  181.9470  177.5290  138.1600 N   0  0  0  0  0  0  0  0  0  0  0  0
  181.0590  183.7700  137.6020 O   0  0  0  0  0  0  0  0  0  0  0  0
  184.3230  177.4890  137.9660 N   0  0  0  0  0  2  0  0  0  0  0  0
  183.0890  178.1440  138.2910 C   0  0  0  0  0  0  0  0  0  0  0  0
  179.4580  182.0290  137.5320 C   0  0  0  0  0  1  0  0  0  0  0  0
  184.4530  176.1350  137.5130 C   0  0  0  0  0  0  0  0  0  0  0  0
  183.1260  179.5600  138.7980 C   0  0  0  0  0  2  0  0  0  0  0  0
  180.6920  178.1720  138.5420 C   0  0  0  0  0  2  0  0  0  0  0  0
  183.4410  175.3960  137.3750 O   0  0  0  0  0  0  0  0  0  0  0  0
  181.8640  180.2760  138.4050 C   0  0  0  0  0  0  0  0  0  0  0  0
  180.7530  179.6080  138.2680 N   0  0  0  0  0  0  0  0  0  0  0  0
  181.9150  181.6890  138.1710 N   0  0  0  0  0  2  0  0  0  0  0  0
  1 11  1  1  0  0  0
  3  1  1  0  0  0  0
  3  2  1  1  0  0  0
  4  3  1  0  0  0  0
  5  4  1  0  0  0  0
  6  7  1  6  0  0  0
  6  5  1  0  0  0  0
  8 10  2  0  0  0  0
 10  6  1  0  0  0  0
 10  9  1  0  0  0  0
 11 12  1  0  0  0  0
 12 13  1  0  0  0  0
 14 13  1  6  0  0  0
 14 19  1  0  0  0  0
 14 17  1  0  0  0  0
 15 17  1  0  0  0  0
 17 16  2  0  0  0  0
 19 18  2  0  0  0  0
 19 20  1  0  0  0  0
 20 21  1  0  0  0  0
 21 22  1  1  0  0  0
 23 21  1  0  0  0  0
 23 24  2  0  0  0  0
 25 23  1  0  0  0  0
 27 26  1  1  0  0  0
 27 25  1  0  0  0  0
 28 27  1  0  0  0  0
 29 28  2  0  0  0  0
 30 31  1  6  0  0  0
 30  1  1  0  0  0  0
 31 32  1  0  0  0  0
 33 30  1  0  0  0  0
 34 35  1  0  0  0  0
 34 33  1  0  0  0  0
 35 42  1  0  0  0  0
 36 48  1  0  0  0  0
 37 40  2  0  0  0  0
 37 44  1  0  0  0  0
 38 36  2  0  0  0  0
 39 40  1  0  0  0  0
 40 43  1  0  0  0  0
 41 36  1  0  0  0  0
 42 39  1  0  0  0  0
 45 42  2  0  0  0  0
 46 43  1  0  0  0  0
 47 46  2  0  0  0  0
 47 44  1  0  0  0  0
 48 46  1  0  0  0  0
M  END
>  <MODEL>
9

>  <REMARK>
 VINA RESULT:      -6.1      2.911      8.820
  Name = 
  22 active torsions:
  status: ('A' for Active; 'I' for Inactive)
    1  A    between atoms: C_2  and  C_31
    2  A    between atoms: C_2  and  C_32
    3  A    between atoms: C_4  and  C_41
    4  A    between atoms: C_4  and  C_44
    5  A    between atoms: O_6  and  C_19
    6  A    between atoms: O_6  and  C_44
    7  A    between atoms: C_8  and  C_15
    8  A    between atoms: C_8  and  C_19
    9  A    between atoms: C_8  and  C_32
   10  A    between atoms: C_9  and  C_17
   11  A    between atoms: C_9  and  C_30
   12  A    between atoms: C_11  and  C_34
   13  A    between atoms: C_15  and  C_16
   14  A    between atoms: C_15  and  O_18
   15  A    between atoms: C_17  and  N_47
   16  A    between atoms: O_18  and  C_37
   17  A    between atoms: C_21  and  C_38
   18  A    between atoms: C_30  and  C_34
   19  A    between atoms: C_31  and  C_38
   20  A    between atoms: C_35  and  C_40
   21  A    between atoms: C_37  and  C_40
   22  A    between atoms: C_38  and  C_46
                            x       y       z     vdW  Elec       q    Type
                         _______ _______ _______ _____ _____    ______ ____

>  <TORSDO>
F 22

$$$$
