=
 OpenBabel10222418593D

 43 52  0  0  1  0  0  0  0  0999 V2000
  188.9910  176.9870  137.9230 C   0  0  0  0  0  0  0  0  0  0  0  0
  189.3450  177.4860  140.6420 C   0  0  0  0  0  0  0  0  0  0  0  0
  190.2190  176.7060  139.9490 N   0  0  0  0  0  0  0  0  0  0  0  0
  188.8030  176.7500  136.5570 C   0  0  0  0  0  3  0  0  0  0  0  0
  188.2290  178.0420  139.9920 C   0  0  0  0  0  0  0  0  0  0  0  0
  187.7000  177.2900  135.8980 C   0  0  0  0  0  3  0  0  0  0  0  0
  186.9820  178.2930  137.9420 N   0  0  0  0  0  0  0  0  0  0  0  0
  186.7890  178.0640  136.6170 C   0  0  0  0  0  3  0  0  0  0  0  0
  188.0550  177.7910  138.6140 C   0  0  0  0  0  0  0  0  0  0  0  0
  190.0760  176.4330  138.6250 C   0  0  0  0  0  0  0  0  0  0  0  0
  190.4860  176.6050  142.6820 C   0  0  2  0  0  3  0  0  0  0  0  0
  188.9650  176.5390  142.8940 C   0  0  1  0  0  3  0  0  0  0  0  0
  191.1330  176.7340  145.1230 C   0  0  0  0  0  2  0  0  0  0  0  0
  188.9940  178.1130  144.9940 C   0  0  0  0  0  2  0  0  0  0  0  0
  190.1680  177.6530  145.8700 C   0  0  1  0  0  3  0  0  0  0  0  0
  188.3480  176.9500  144.2490 C   0  0  0  0  0  2  0  0  0  0  0  0
  191.3890  177.2660  143.7230 C   0  0  0  0  0  2  0  0  0  0  0  0
  189.5730  177.6910  142.1120 C   0  0  2  0  0  3  0  0  0  0  0  0
  189.3780  177.9840  148.1640 N   0  0  1  0  0  0  0  0  0  0  0  0
  188.2970  177.3010  147.4170 C   0  0  2  0  0  3  0  0  0  0  0  0
  188.1580  177.5230  148.8530 C   0  0  0  0  0  2  0  0  0  0  0  0
  189.6910  176.9660  147.1420 C   0  0  1  0  0  3  0  0  0  0  0  0
  191.1130  175.5910  137.9310 C   0  0  0  0  0  3  0  0  0  0  0  0
  192.4910  175.9230  138.4740 C   0  0  0  0  0  2  0  0  0  0  0  0
  192.0700  176.4550  137.1260 C   0  0  0  0  0  2  0  0  0  0  0  0
  187.3290  178.8130  140.7420 O   0  0  0  0  0  0  0  0  0  0  0  0
  185.8960  179.2320  142.6210 C   0  0  0  0  0  2  0  0  0  0  0  0
  185.0510  179.1380  141.3700 C   0  0  1  0  0  3  0  0  0  0  0  0
  186.2770  178.2630  141.5220 C   0  0  1  0  0  3  0  0  0  0  0  0
  183.8150  178.2970  141.6280 C   0  0  0  0  0  2  0  0  0  0  0  0
  179.7590  177.6670  138.7920 C   0  0  0  0  0  0  0  0  0  0  0  0
  180.1890  178.6720  136.5250 C   0  0  0  0  0  2  0  0  0  0  0  0
  181.5460  177.8870  140.5160 N   0  0  0  0  0  0  0  0  0  0  0  0
  181.9520  178.6600  138.2650 C   0  0  2  0  0  3  0  0  0  0  0  0
  178.9340  176.9020  139.6630 N   0  0  0  0  0  1  0  0  0  0  0  0
  179.3850  177.8440  137.5140 C   0  0  0  0  0  3  0  0  0  0  0  0
  183.3260  179.4160  139.1180 S   0  0  0  0  0  0  0  0  0  0  0  0
  183.0030  178.1070  140.3440 C   0  0  1  0  0  3  0  0  0  0  0  0
  181.3230  179.4920  137.1680 C   0  0  0  0  0  2  0  0  0  0  0  0
  180.9150  178.4600  139.3340 C   0  0  1  0  0  3  0  0  0  0  0  0
  181.0220  178.6610  141.6430 C   0  0  0  0  0  2  0  0  0  0  0  0
  180.5380  179.8830  141.1790 O   0  0  0  0  0  0  0  0  0  0  0  0
  179.6620  180.3110  142.1750 C   0  0  0  0  0  1  0  0  0  0  0  0
  1  9  1  0  0  0  0
  1 10  2  0  0  0  0
  3  2  2  0  0  0  0
  4  1  1  0  0  0  0
  5  2  1  0  0  0  0
  5 26  1  0  0  0  0
  6  4  2  0  0  0  0
  6  8  1  0  0  0  0
  7  9  1  0  0  0  0
  8  7  2  0  0  0  0
  9  5  2  0  0  0  0
 10  3  1  0  0  0  0
 11 12  1  0  0  0  0
 11 17  1  1  0  0  0
 12 16  1  1  0  0  0
 13 15  1  0  0  0  0
 15 14  1  6  0  0  0
 16 14  1  0  0  0  0
 17 13  1  0  0  0  0
 18  2  1  6  0  0  0
 18 11  1  0  0  0  0
 18 12  1  0  0  0  0
 19 21  1  1  0  0  0
 20 19  1  0  0  0  0
 20 21  1  1  0  0  0
 22 15  1  6  0  0  0
 22 20  1  0  0  0  0
 22 19  1  0  0  0  0
 23 24  1  0  0  0  0
 23 10  1  0  0  0  0
 25 23  1  0  0  0  0
 25 24  1  0  0  0  0
 28 29  1  0  0  0  0
 28 30  1  1  0  0  0
 28 27  1  0  0  0  0
 29 26  1  6  0  0  0
 29 27  1  0  0  0  0
 31 35  1  0  0  0  0
 32 39  1  0  0  0  0
 32 36  1  0  0  0  0
 33 41  1  0  0  0  0
 34 39  1  6  0  0  0
 34 37  1  0  0  0  0
 34 40  1  0  0  0  0
 36 31  2  0  0  0  0
 37 38  1  0  0  0  0
 38 33  1  0  0  0  0
 38 30  1  1  0  0  0
 40 31  1  6  0  0  0
 40 33  1  0  0  0  0
 42 41  1  0  0  0  0
 42 43  1  0  0  0  0
M  END
>  <MODEL>
1

>  <REMARK>
 VINA RESULT:      -9.2      0.000      0.000
  Name = 
  9 active torsions:
  status: ('A' for Active; 'I' for Inactive)
    1  A    between atoms: C_3  and  C_43
    2  A    between atoms: O_4  and  C_11
    3  A    between atoms: O_4  and  C_19
    4  A    between atoms: C_6  and  C_32
    5  A    between atoms: C_12  and  C_16
    6  A    between atoms: C_16  and  C_36
    7  A    between atoms: N_17  and  C_38
    8  A    between atoms: C_29  and  C_30
    9  A    between atoms: O_34  and  C_38
                            x       y       z     vdW  Elec       q    Type
                         _______ _______ _______ _____ _____    ______ ____

>  <TORSDO>
F 9

$$$$
=
 OpenBabel10222418593D

 43 52  0  0  1  0  0  0  0  0999 V2000
  189.0320  176.9640  137.8370 C   0  0  0  0  0  0  0  0  0  0  0  0
  189.3510  177.4390  140.5650 C   0  0  0  0  0  0  0  0  0  0  0  0
  190.2430  176.6770  139.8730 N   0  0  0  0  0  0  0  0  0  0  0  0
  188.8620  176.7390  136.4670 C   0  0  0  0  0  3  0  0  0  0  0  0
  188.2360  177.9890  139.9080 C   0  0  0  0  0  0  0  0  0  0  0  0
  187.7590  177.2730  135.8020 C   0  0  0  0  0  3  0  0  0  0  0  0
  187.0080  178.2460  137.8480 N   0  0  0  0  0  0  0  0  0  0  0  0
  186.8320  178.0290  136.5190 C   0  0  0  0  0  3  0  0  0  0  0  0
  188.0800  177.7500  138.5260 C   0  0  0  0  0  0  0  0  0  0  0  0
  190.1170  176.4160  138.5450 C   0  0  0  0  0  0  0  0  0  0  0  0
  190.3600  176.4710  142.6360 C   0  0  2  0  0  3  0  0  0  0  0  0
  188.8340  176.5440  142.8100 C   0  0  1  0  0  3  0  0  0  0  0  0
  190.9570  176.5560  145.0910 C   0  0  0  0  0  2  0  0  0  0  0  0
  188.9550  178.1210  144.9040 C   0  0  0  0  0  2  0  0  0  0  0  0
  190.0610  177.5620  145.8110 C   0  0  1  0  0  3  0  0  0  0  0  0
  188.2250  177.0160  144.1480 C   0  0  0  0  0  2  0  0  0  0  0  0
  191.2930  177.0540  143.6950 C   0  0  0  0  0  2  0  0  0  0  0  0
  189.5620  177.6310  142.0390 C   0  0  2  0  0  3  0  0  0  0  0  0
  189.3350  177.9620  148.1150 N   0  0  1  0  0  0  0  0  0  0  0  0
  188.1640  177.4570  147.3620 C   0  0  2  0  0  3  0  0  0  0  0  0
  188.0640  177.6710  148.8030 C   0  0  0  0  0  2  0  0  0  0  0  0
  189.4940  176.9290  147.0740 C   0  0  1  0  0  3  0  0  0  0  0  0
  191.1700  175.5930  137.8540 C   0  0  0  0  0  3  0  0  0  0  0  0
  192.5310  175.8890  138.4580 C   0  0  0  0  0  2  0  0  0  0  0  0
  192.1620  176.4800  137.1190 C   0  0  0  0  0  2  0  0  0  0  0  0
  187.3190  178.7410  140.6570 O   0  0  0  0  0  0  0  0  0  0  0  0
  185.4820  179.1330  142.1510 C   0  0  0  0  0  2  0  0  0  0  0  0
  185.0140  179.3480  140.7280 C   0  0  1  0  0  3  0  0  0  0  0  0
  186.0330  178.2710  141.0350 C   0  0  1  0  0  3  0  0  0  0  0  0
  183.6630  178.6940  140.5120 C   0  0  0  0  0  2  0  0  0  0  0  0
  182.4610  177.7750  135.7570 C   0  0  0  0  0  0  0  0  0  0  0  0
  180.5280  179.2510  135.1080 C   0  0  0  0  0  2  0  0  0  0  0  0
  183.2710  177.8920  138.1120 N   0  0  0  0  0  0  0  0  0  0  0  0
  181.5450  179.4060  137.3610 C   0  0  2  0  0  3  0  0  0  0  0  0
  183.4720  176.8400  135.3970 N   0  0  0  0  0  1  0  0  0  0  0  0
  181.6530  178.2740  134.8070 C   0  0  0  0  0  3  0  0  0  0  0  0
  181.4280  179.6340  139.1290 S   0  0  0  0  0  0  0  0  0  0  0  0
  183.1310  178.9850  139.1060 C   0  0  1  0  0  3  0  0  0  0  0  0
  180.2320  179.4240  136.6090 C   0  0  0  0  0  2  0  0  0  0  0  0
  182.1410  178.0350  137.2020 C   0  0  1  0  0  3  0  0  0  0  0  0
  183.0940  176.5800  138.7390 C   0  0  0  0  0  2  0  0  0  0  0  0
  181.8220  176.0940  138.4410 O   0  0  0  0  0  0  0  0  0  0  0  0
  181.3220  175.6560  139.6660 C   0  0  0  0  0  1  0  0  0  0  0  0
  1  9  1  0  0  0  0
  1 10  2  0  0  0  0
  3  2  2  0  0  0  0
  4  1  1  0  0  0  0
  5  2  1  0  0  0  0
  5 26  1  0  0  0  0
  6  4  2  0  0  0  0
  6  8  1  0  0  0  0
  7  9  1  0  0  0  0
  8  7  2  0  0  0  0
  9  5  2  0  0  0  0
 10  3  1  0  0  0  0
 11 12  1  0  0  0  0
 11 17  1  1  0  0  0
 12 16  1  1  0  0  0
 13 15  1  0  0  0  0
 15 14  1  6  0  0  0
 16 14  1  0  0  0  0
 17 13  1  0  0  0  0
 18  2  1  6  0  0  0
 18 11  1  0  0  0  0
 18 12  1  0  0  0  0
 19 21  1  1  0  0  0
 20 19  1  0  0  0  0
 20 21  1  1  0  0  0
 22 15  1  6  0  0  0
 22 20  1  0  0  0  0
 22 19  1  0  0  0  0
 23 24  1  0  0  0  0
 23 10  1  0  0  0  0
 25 23  1  0  0  0  0
 25 24  1  0  0  0  0
 28 30  1  1  0  0  0
 28 29  1  0  0  0  0
 28 27  1  0  0  0  0
 29 26  1  6  0  0  0
 29 27  1  0  0  0  0
 32 39  1  0  0  0  0
 33 41  1  0  0  0  0
 33 38  1  0  0  0  0
 34 39  1  6  0  0  0
 34 37  1  0  0  0  0
 35 31  1  0  0  0  0
 36 32  1  0  0  0  0
 36 31  2  0  0  0  0
 38 37  1  0  0  0  0
 38 30  1  1  0  0  0
 40 31  1  6  0  0  0
 40 34  1  0  0  0  0
 40 33  1  0  0  0  0
 42 41  1  0  0  0  0
 42 43  1  0  0  0  0
M  END
>  <MODEL>
2

>  <REMARK>
 VINA RESULT:      -9.0      1.602      1.981
  Name = 
  9 active torsions:
  status: ('A' for Active; 'I' for Inactive)
    1  A    between atoms: C_3  and  C_43
    2  A    between atoms: O_4  and  C_11
    3  A    between atoms: O_4  and  C_19
    4  A    between atoms: C_6  and  C_32
    5  A    between atoms: C_12  and  C_16
    6  A    between atoms: C_16  and  C_36
    7  A    between atoms: N_17  and  C_38
    8  A    between atoms: C_29  and  C_30
    9  A    between atoms: O_34  and  C_38
                            x       y       z     vdW  Elec       q    Type
                         _______ _______ _______ _____ _____    ______ ____

>  <TORSDO>
F 9

$$$$
=
 OpenBabel10222418593D

 43 52  0  0  1  0  0  0  0  0999 V2000
  189.2060  176.8770  137.3380 C   0  0  0  0  0  0  0  0  0  0  0  0
  188.9170  177.5100  140.0360 C   0  0  0  0  0  0  0  0  0  0  0  0
  189.9670  176.7630  139.5970 N   0  0  0  0  0  0  0  0  0  0  0  0
  189.3410  176.5720  135.9790 C   0  0  0  0  0  3  0  0  0  0  0  0
  187.9440  177.9620  139.1270 C   0  0  0  0  0  0  0  0  0  0  0  0
  188.3840  177.0090  135.0650 C   0  0  0  0  0  3  0  0  0  0  0  0
  187.1730  178.0430  136.8430 N   0  0  0  0  0  0  0  0  0  0  0  0
  187.2930  177.7480  135.5230 C   0  0  0  0  0  3  0  0  0  0  0  0
  188.0960  177.6430  137.7610 C   0  0  0  0  0  0  0  0  0  0  0  0
  190.1380  176.4270  138.2910 C   0  0  0  0  0  0  0  0  0  0  0  0
  190.0870  177.4130  142.2420 C   0  0  2  0  0  3  0  0  0  0  0  0
  188.8610  176.4870  142.2860 C   0  0  1  0  0  3  0  0  0  0  0  0
  190.2300  177.8580  144.7260 C   0  0  0  0  0  2  0  0  0  0  0  0
  187.7240  177.7680  144.2750 C   0  0  0  0  0  2  0  0  0  0  0  0
  188.8290  178.0510  145.3030 C   0  0  1  0  0  3  0  0  0  0  0  0
  187.9540  176.4540  143.5360 C   0  0  0  0  0  2  0  0  0  0  0  0
  190.3140  178.4580  143.3330 C   0  0  0  0  0  2  0  0  0  0  0  0
  188.8000  177.7890  141.5070 C   0  0  2  0  0  3  0  0  0  0  0  0
  189.0490  177.9900  147.7420 N   0  0  1  0  0  0  0  0  0  0  0  0
  187.6250  177.7410  147.4180 C   0  0  2  0  0  3  0  0  0  0  0  0
  188.0830  177.6430  148.8010 C   0  0  0  0  0  2  0  0  0  0  0  0
  188.6710  177.1990  146.5550 C   0  0  1  0  0  3  0  0  0  0  0  0
  191.3500  175.6290  137.8890 C   0  0  0  0  0  3  0  0  0  0  0  0
  192.5450  176.0570  138.7200 C   0  0  0  0  0  2  0  0  0  0  0  0
  192.4220  176.5270  137.2910 C   0  0  0  0  0  2  0  0  0  0  0  0
  186.8570  178.6990  139.6180 O   0  0  0  0  0  0  0  0  0  0  0  0
  184.7460  178.5500  140.7500 C   0  0  0  0  0  2  0  0  0  0  0  0
  184.6230  179.5340  139.6070 C   0  0  1  0  0  3  0  0  0  0  0  0
  185.5010  178.3090  139.4600 C   0  0  1  0  0  3  0  0  0  0  0  0
  183.3310  179.3030  138.8470 C   0  0  0  0  0  2  0  0  0  0  0  0
  179.6220  176.6530  140.8780 C   0  0  0  0  0  0  0  0  0  0  0  0
  179.7090  174.3070  139.9700 C   0  0  0  0  0  2  0  0  0  0  0  0
  181.2780  178.2980  140.0010 N   0  0  0  0  0  0  0  0  0  0  0  0
  181.4110  175.9850  139.3200 C   0  0  2  0  0  3  0  0  0  0  0  0
  179.0730  177.6040  141.7830 N   0  0  0  0  0  1  0  0  0  0  0  0
  179.2010  175.3790  140.9210 C   0  0  0  0  0  3  0  0  0  0  0  0
  182.5040  176.7370  138.1240 S   0  0  0  0  0  0  0  0  0  0  0  0
  182.6000  178.0640  139.3700 C   0  0  1  0  0  3  0  0  0  0  0  0
  180.5510  174.8520  138.8020 C   0  0  0  0  0  2  0  0  0  0  0  0
  180.4920  177.0990  139.7360 C   0  0  1  0  0  3  0  0  0  0  0  0
  180.5570  179.3840  139.3320 C   0  0  0  0  0  2  0  0  0  0  0  0
  180.3020  180.4020  140.2500 O   0  0  0  0  0  0  0  0  0  0  0  0
  180.0410  181.5220  139.4620 C   0  0  0  0  0  1  0  0  0  0  0  0
  1  9  1  0  0  0  0
  1 10  1  0  0  0  0
  3  2  1  0  0  0  0
  4  1  2  0  0  0  0
  5 26  1  0  0  0  0
  5  2  2  0  0  0  0
  6  8  2  0  0  0  0
  6  4  1  0  0  0  0
  7  9  2  0  0  0  0
  8  7  1  0  0  0  0
  9  5  1  0  0  0  0
 10  3  2  0  0  0  0
 11 12  1  0  0  0  0
 11 17  1  1  0  0  0
 12 16  1  1  0  0  0
 13 15  1  0  0  0  0
 15 14  1  6  0  0  0
 16 14  1  0  0  0  0
 17 13  1  0  0  0  0
 18  2  1  6  0  0  0
 18 11  1  0  0  0  0
 18 12  1  0  0  0  0
 19 21  1  1  0  0  0
 20 19  1  0  0  0  0
 20 21  1  1  0  0  0
 22 15  1  6  0  0  0
 22 20  1  0  0  0  0
 22 19  1  0  0  0  0
 23 10  1  0  0  0  0
 23 24  1  0  0  0  0
 25 23  1  0  0  0  0
 25 24  1  0  0  0  0
 28 30  1  6  0  0  0
 28 27  1  0  0  0  0
 29 28  1  0  0  0  0
 29 26  1  1  0  0  0
 29 27  1  0  0  0  0
 31 36  2  0  0  0  0
 31 35  1  0  0  0  0
 32 36  1  0  0  0  0
 34 39  1  6  0  0  0
 34 40  1  0  0  0  0
 37 34  1  0  0  0  0
 37 38  1  0  0  0  0
 38 30  1  6  0  0  0
 38 33  1  0  0  0  0
 39 32  1  0  0  0  0
 40 33  1  0  0  0  0
 40 31  1  1  0  0  0
 41 33  1  0  0  0  0
 41 42  1  0  0  0  0
 43 42  1  0  0  0  0
M  END
>  <MODEL>
3

>  <REMARK>
 VINA RESULT:      -8.8      1.524      1.980
  Name = 
  9 active torsions:
  status: ('A' for Active; 'I' for Inactive)
    1  A    between atoms: C_3  and  C_43
    2  A    between atoms: O_4  and  C_11
    3  A    between atoms: O_4  and  C_19
    4  A    between atoms: C_6  and  C_32
    5  A    between atoms: C_12  and  C_16
    6  A    between atoms: C_16  and  C_36
    7  A    between atoms: N_17  and  C_38
    8  A    between atoms: C_29  and  C_30
    9  A    between atoms: O_34  and  C_38
                            x       y       z     vdW  Elec       q    Type
                         _______ _______ _______ _____ _____    ______ ____

>  <TORSDO>
F 9

$$$$
=
 OpenBabel10222418593D

 43 52  0  0  1  0  0  0  0  0999 V2000
  185.7610  177.8380  137.4900 C   0  0  0  0  0  0  0  0  0  0  0  0
  188.4840  177.3170  137.2060 C   0  0  0  0  0  0  0  0  0  0  0  0
  187.6060  177.0460  136.2020 N   0  0  0  0  0  0  0  0  0  0  0  0
  184.3980  178.1100  137.6450 C   0  0  0  0  0  3  0  0  0  0  0  0
  188.0210  177.8540  138.4210 C   0  0  0  0  0  0  0  0  0  0  0  0
  183.9210  178.6380  138.8440 C   0  0  0  0  0  3  0  0  0  0  0  0
  186.1410  178.6240  139.7210 N   0  0  0  0  0  0  0  0  0  0  0  0
  184.8190  178.8870  139.8820 C   0  0  0  0  0  3  0  0  0  0  0  0
  186.6420  178.1200  138.5590 C   0  0  0  0  0  0  0  0  0  0  0  0
  186.2710  177.2780  136.3050 C   0  0  0  0  0  0  0  0  0  0  0  0
  190.1130  175.9800  135.8630 C   0  0  2  0  0  3  0  0  0  0  0  0
  190.1780  175.5210  137.3290 C   0  0  1  0  0  3  0  0  0  0  0  0
  192.4590  175.2930  135.2190 C   0  0  0  0  0  2  0  0  0  0  0  0
  192.7140  176.1340  137.6110 C   0  0  0  0  0  2  0  0  0  0  0  0
  193.4300  175.6300  136.3490 C   0  0  1  0  0  3  0  0  0  0  0  0
  191.5410  175.2390  137.9980 C   0  0  0  0  0  2  0  0  0  0  0  0
  191.3860  176.3630  135.1110 C   0  0  0  0  0  2  0  0  0  0  0  0
  189.9340  176.9840  137.0030 C   0  0  2  0  0  3  0  0  0  0  0  0
  195.6640  174.8790  137.0140 N   0  0  1  0  0  0  0  0  0  0  0  0
  194.7120  174.4050  138.0450 C   0  0  2  0  0  3  0  0  0  0  0  0
  196.1130  174.0030  138.1110 C   0  0  0  0  0  2  0  0  0  0  0  0
  194.3110  174.4230  136.6410 C   0  0  1  0  0  3  0  0  0  0  0  0
  185.3790  176.9820  135.1290 C   0  0  0  0  0  3  0  0  0  0  0  0
  184.4330  175.8470  135.4760 C   0  0  0  0  0  2  0  0  0  0  0  0
  185.6280  175.5810  134.5940 C   0  0  0  0  0  2  0  0  0  0  0  0
  188.9470  178.0900  139.4470 O   0  0  0  0  0  0  0  0  0  0  0  0
  190.7120  177.5110  140.9670 C   0  0  0  0  0  2  0  0  0  0  0  0
  189.4270  177.6840  141.7480 C   0  0  1  0  0  3  0  0  0  0  0  0
  189.3930  177.0920  140.3550 C   0  0  1  0  0  3  0  0  0  0  0  0
  189.2680  176.5630  142.7580 C   0  0  0  0  0  2  0  0  0  0  0  0
  186.7880  177.8900  146.8790 C   0  0  0  0  0  0  0  0  0  0  0  0
  184.5070  178.7260  146.2210 C   0  0  0  0  0  2  0  0  0  0  0  0
  188.3530  177.2290  145.0540 N   0  0  0  0  0  0  0  0  0  0  0  0
  186.0860  177.8660  144.5170 C   0  0  2  0  0  3  0  0  0  0  0  0
  187.7170  177.5120  147.8890 N   0  0  0  0  0  1  0  0  0  0  0  0
  185.5500  178.2760  147.2300 C   0  0  0  0  0  3  0  0  0  0  0  0
  186.8280  177.9110  142.8930 S   0  0  0  0  0  0  0  0  0  0  0  0
  188.0580  176.8080  143.6630 C   0  0  1  0  0  3  0  0  0  0  0  0
  185.0600  178.9420  144.8000 C   0  0  0  0  0  2  0  0  0  0  0  0
  187.2390  178.0780  145.4580 C   0  0  1  0  0  3  0  0  0  0  0  0
  189.5330  178.0950  145.1070 C   0  0  0  0  0  2  0  0  0  0  0  0
  190.5280  177.4740  145.8610 O   0  0  0  0  0  0  0  0  0  0  0  0
  191.6620  177.5320  145.0530 C   0  0  0  0  0  1  0  0  0  0  0  0
  1  4  1  0  0  0  0
  1  9  1  0  0  0  0
  2  5  1  0  0  0  0
  3 10  1  0  0  0  0
  3  2  2  0  0  0  0
  4  6  2  0  0  0  0
  5  9  2  0  0  0  0
  5 26  1  0  0  0  0
  6  8  1  0  0  0  0
  7  8  2  0  0  0  0
  9  7  1  0  0  0  0
 10  1  2  0  0  0  0
 11 17  1  1  0  0  0
 11 18  1  0  0  0  0
 11 12  1  0  0  0  0
 12 16  1  1  0  0  0
 14 16  1  0  0  0  0
 15 13  1  6  0  0  0
 15 14  1  0  0  0  0
 17 13  1  0  0  0  0
 18  2  1  6  0  0  0
 18 12  1  0  0  0  0
 19 20  1  0  0  0  0
 19 21  1  6  0  0  0
 20 21  1  6  0  0  0
 22 15  1  1  0  0  0
 22 19  1  0  0  0  0
 22 20  1  0  0  0  0
 23 24  1  0  0  0  0
 23 10  1  0  0  0  0
 25 23  1  0  0  0  0
 25 24  1  0  0  0  0
 27 28  1  0  0  0  0
 28 30  1  1  0  0  0
 29 26  1  6  0  0  0
 29 27  1  0  0  0  0
 29 28  1  0  0  0  0
 31 36  2  0  0  0  0
 31 35  1  0  0  0  0
 32 36  1  0  0  0  0
 33 41  1  0  0  0  0
 33 40  1  0  0  0  0
 34 39  1  6  0  0  0
 34 40  1  0  0  0  0
 37 38  1  0  0  0  0
 37 34  1  0  0  0  0
 38 30  1  6  0  0  0
 38 33  1  0  0  0  0
 39 32  1  0  0  0  0
 40 31  1  1  0  0  0
 41 42  1  0  0  0  0
 43 42  1  0  0  0  0
M  END
>  <MODEL>
4

>  <REMARK>
 VINA RESULT:      -8.6      3.055      8.035
  Name = 
  9 active torsions:
  status: ('A' for Active; 'I' for Inactive)
    1  A    between atoms: C_3  and  C_43
    2  A    between atoms: O_4  and  C_11
    3  A    between atoms: O_4  and  C_19
    4  A    between atoms: C_6  and  C_32
    5  A    between atoms: C_12  and  C_16
    6  A    between atoms: C_16  and  C_36
    7  A    between atoms: N_17  and  C_38
    8  A    between atoms: C_29  and  C_30
    9  A    between atoms: O_34  and  C_38
                            x       y       z     vdW  Elec       q    Type
                         _______ _______ _______ _____ _____    ______ ____

>  <TORSDO>
F 9

$$$$
=
 OpenBabel10222418593D

 43 52  0  0  1  0  0  0  0  0999 V2000
  184.1950  178.7480  141.3920 C   0  0  0  0  0  0  0  0  0  0  0  0
  186.7610  178.2030  142.3310 C   0  0  0  0  0  0  0  0  0  0  0  0
  185.6810  178.1410  143.1570 N   0  0  0  0  0  0  0  0  0  0  0  0
  182.9110  179.0190  140.9050 C   0  0  0  0  0  3  0  0  0  0  0  0
  186.5970  178.5640  140.9820 C   0  0  0  0  0  0  0  0  0  0  0  0
  182.7310  179.3820  139.5710 C   0  0  0  0  0  3  0  0  0  0  0  0
  185.0850  179.2050  139.2150 N   0  0  0  0  0  0  0  0  0  0  0  0
  183.8440  179.4740  138.7350 C   0  0  0  0  0  3  0  0  0  0  0  0
  185.2960  178.8350  140.5090 C   0  0  0  0  0  0  0  0  0  0  0  0
  184.4150  178.4080  142.7390 C   0  0  0  0  0  0  0  0  0  0  0  0
  188.4730  176.4450  142.8040 C   0  0  2  0  0  3  0  0  0  0  0  0
  187.9950  177.0480  144.1350 C   0  0  1  0  0  3  0  0  0  0  0  0
  190.7480  175.6880  143.6060 C   0  0  0  0  0  2  0  0  0  0  0  0
  190.3810  177.8920  144.8320 C   0  0  0  0  0  2  0  0  0  0  0  0
  191.3580  176.7490  144.5200 C   0  0  1  0  0  3  0  0  0  0  0  0
  189.0110  177.3720  145.2530 C   0  0  0  0  0  2  0  0  0  0  0  0
  189.9640  176.3480  142.4850 C   0  0  0  0  0  2  0  0  0  0  0  0
  188.1210  177.9300  142.9060 C   0  0  2  0  0  3  0  0  0  0  0  0
  192.0760  177.1130  146.8330 N   0  0  1  0  0  0  0  0  0  0  0  0
  190.9080  176.2030  146.8690 C   0  0  2  0  0  3  0  0  0  0  0  0
  191.6300  176.5060  148.1010 C   0  0  0  0  0  2  0  0  0  0  0  0
  191.8820  176.0890  145.7880 C   0  0  1  0  0  3  0  0  0  0  0  0
  183.2750  178.2780  143.7130 C   0  0  0  0  0  3  0  0  0  0  0  0
  182.7880  179.6570  144.1190 C   0  0  0  0  0  2  0  0  0  0  0  0
  183.6460  178.8580  145.0690 C   0  0  0  0  0  2  0  0  0  0  0  0
  187.7350  178.6520  140.1670 O   0  0  0  0  0  0  0  0  0  0  0  0
  188.9910  178.6220  138.1220 C   0  0  0  0  0  2  0  0  0  0  0  0
  189.2130  177.3180  138.8560 C   0  0  1  0  0  3  0  0  0  0  0  0
  187.8620  177.9970  138.9130 C   0  0  1  0  0  3  0  0  0  0  0  0
  189.1320  176.1490  137.8920 C   0  0  0  0  0  2  0  0  0  0  0  0
  192.6760  173.1040  136.1390 C   0  0  0  0  0  0  0  0  0  0  0  0
  194.8720  173.7160  137.2050 C   0  0  0  0  0  2  0  0  0  0  0  0
  190.6830  174.4910  136.7080 N   0  0  0  0  0  0  0  0  0  0  0  0
  192.7850  174.8960  137.8270 C   0  0  2  0  0  3  0  0  0  0  0  0
  191.9040  172.2310  135.3230 N   0  0  0  0  0  1  0  0  0  0  0  0
  193.9670  172.8220  136.3730 C   0  0  0  0  0  3  0  0  0  0  0  0
  191.8870  176.3700  138.2850 S   0  0  0  0  0  0  0  0  0  0  0  0
  190.4330  175.3410  137.8980 C   0  0  1  0  0  3  0  0  0  0  0  0
  194.2590  175.0880  137.5440 C   0  0  0  0  0  2  0  0  0  0  0  0
  192.1320  174.4440  136.5520 C   0  0  1  0  0  3  0  0  0  0  0  0
  190.1870  175.1290  135.4880 C   0  0  0  0  0  2  0  0  0  0  0  0
  189.4100  174.2180  134.7730 O   0  0  0  0  0  0  0  0  0  0  0  0
  188.1580  174.8230  134.6840 C   0  0  0  0  0  1  0  0  0  0  0  0
  1 10  1  0  0  0  0
  2  3  1  0  0  0  0
  4  1  1  0  0  0  0
  5  2  2  0  0  0  0
  6  4  2  0  0  0  0
  7  9  1  0  0  0  0
  8  7  2  0  0  0  0
  8  6  1  0  0  0  0
  9  5  1  0  0  0  0
  9  1  2  0  0  0  0
 10  3  2  0  0  0  0
 10 23  1  0  0  0  0
 11 17  1  1  0  0  0
 11 18  1  0  0  0  0
 11 12  1  0  0  0  0
 12 16  1  1  0  0  0
 14 16  1  0  0  0  0
 15 13  1  6  0  0  0
 15 14  1  0  0  0  0
 17 13  1  0  0  0  0
 18  2  1  6  0  0  0
 18 12  1  0  0  0  0
 19 20  1  0  0  0  0
 19 21  1  1  0  0  0
 20 21  1  1  0  0  0
 22 15  1  6  0  0  0
 22 19  1  0  0  0  0
 22 20  1  0  0  0  0
 23 24  1  0  0  0  0
 23 25  1  0  0  0  0
 24 25  1  0  0  0  0
 26  5  1  0  0  0  0
 27 28  1  0  0  0  0
 27 29  1  0  0  0  0
 28 30  1  6  0  0  0
 28 29  1  0  0  0  0
 29 26  1  1  0  0  0
 31 36  2  0  0  0  0
 32 39  1  0  0  0  0
 33 38  1  0  0  0  0
 34 39  1  6  0  0  0
 34 37  1  0  0  0  0
 35 31  1  0  0  0  0
 36 32  1  0  0  0  0
 38 30  1  6  0  0  0
 38 37  1  0  0  0  0
 40 31  1  1  0  0  0
 40 33  1  0  0  0  0
 40 34  1  0  0  0  0
 41 33  1  0  0  0  0
 42 41  1  0  0  0  0
 43 42  1  0  0  0  0
M  END
>  <MODEL>
5

>  <REMARK>
 VINA RESULT:      -8.4      2.926      8.199
  Name = 
  9 active torsions:
  status: ('A' for Active; 'I' for Inactive)
    1  A    between atoms: C_3  and  C_43
    2  A    between atoms: O_4  and  C_11
    3  A    between atoms: O_4  and  C_19
    4  A    between atoms: C_6  and  C_32
    5  A    between atoms: C_12  and  C_16
    6  A    between atoms: C_16  and  C_36
    7  A    between atoms: N_17  and  C_38
    8  A    between atoms: C_29  and  C_30
    9  A    between atoms: O_34  and  C_38
                            x       y       z     vdW  Elec       q    Type
                         _______ _______ _______ _____ _____    ______ ____

>  <TORSDO>
F 9

$$$$
=
 OpenBabel10222418593D

 43 52  0  0  1  0  0  0  0  0999 V2000
  191.2160  176.3510  137.0870 C   0  0  0  0  0  0  0  0  0  0  0  0
  190.4570  177.0590  139.6740 C   0  0  0  0  0  0  0  0  0  0  0  0
  191.7650  176.8550  139.3540 N   0  0  0  0  0  0  0  0  0  0  0  0
  191.5820  176.0010  135.7830 C   0  0  0  0  0  3  0  0  0  0  0  0
  189.4590  176.8960  138.6970 C   0  0  0  0  0  0  0  0  0  0  0  0
  190.6050  175.8310  134.8040 C   0  0  0  0  0  3  0  0  0  0  0  0
  188.9180  176.3550  136.4090 N   0  0  0  0  0  0  0  0  0  0  0  0
  189.2630  176.0110  135.1420 C   0  0  0  0  0  3  0  0  0  0  0  0
  189.8470  176.5420  137.3870 C   0  0  0  0  0  0  0  0  0  0  0  0
  192.1730  176.5010  138.1070 C   0  0  0  0  0  0  0  0  0  0  0  0
  191.3150  177.2150  142.0160 C   0  0  2  0  0  3  0  0  0  0  0  0
  190.1920  176.1660  141.9640 C   0  0  1  0  0  3  0  0  0  0  0  0
  191.0670  177.8120  144.4590 C   0  0  0  0  0  2  0  0  0  0  0  0
  188.6690  177.4270  143.6890 C   0  0  0  0  0  2  0  0  0  0  0  0
  189.5880  177.8850  144.8310 C   0  0  1  0  0  3  0  0  0  0  0  0
  189.1290  176.1060  143.0820 C   0  0  0  0  0  2  0  0  0  0  0  0
  191.2830  178.3380  143.0510 C   0  0  0  0  0  2  0  0  0  0  0  0
  190.1110  177.4070  141.0920 C   0  0  2  0  0  3  0  0  0  0  0  0
  189.3780  178.0040  147.2690 N   0  0  1  0  0  0  0  0  0  0  0  0
  188.0900  177.5030  146.7370 C   0  0  2  0  0  3  0  0  0  0  0  0
  188.3060  177.5640  148.1790 C   0  0  0  0  0  2  0  0  0  0  0  0
  189.3430  177.0930  146.1080 C   0  0  1  0  0  3  0  0  0  0  0  0
  193.6440  176.3330  137.8340 C   0  0  0  0  0  3  0  0  0  0  0  0
  193.9270  174.9040  137.4100 C   0  0  0  0  0  2  0  0  0  0  0  0
  194.2720  175.3520  138.8100 C   0  0  0  0  0  2  0  0  0  0  0  0
  188.1190  177.0800  139.0680 O   0  0  0  0  0  0  0  0  0  0  0  0
  186.4940  177.8530  137.4810 C   0  0  0  0  0  2  0  0  0  0  0  0
  185.8760  177.8610  138.8620 C   0  0  1  0  0  3  0  0  0  0  0  0
  187.3400  178.2040  138.6860 C   0  0  1  0  0  3  0  0  0  0  0  0
  185.0980  179.1450  139.0850 C   0  0  0  0  0  2  0  0  0  0  0  0
  182.6080  178.9900  143.4060 C   0  0  0  0  0  0  0  0  0  0  0  0
  184.2670  178.9190  145.2980 C   0  0  0  0  0  2  0  0  0  0  0  0
  183.5000  178.9720  141.0780 N   0  0  0  0  0  0  0  0  0  0  0  0
  185.0270  179.0920  142.9460 C   0  0  2  0  0  3  0  0  0  0  0  0
  181.2650  179.1030  142.9500 N   0  0  0  0  0  1  0  0  0  0  0  0
  182.8680  179.0610  144.7220 C   0  0  0  0  0  3  0  0  0  0  0  0
  186.1630  178.6970  141.6260 S   0  0  0  0  0  0  0  0  0  0  0  0
  184.8370  179.3760  140.5760 C   0  0  1  0  0  3  0  0  0  0  0  0
  185.3190  178.4380  144.2800 C   0  0  0  0  0  2  0  0  0  0  0  0
  183.7020  178.5700  142.4650 C   0  0  1  0  0  3  0  0  0  0  0  0
  183.0190  177.7690  140.3970 C   0  0  0  0  0  2  0  0  0  0  0  0
  181.8600  178.0740  139.6840 O   0  0  0  0  0  0  0  0  0  0  0  0
  181.2830  176.8350  139.4130 C   0  0  0  0  0  1  0  0  0  0  0  0
  1  9  1  0  0  0  0
  1 10  1  0  0  0  0
  3  2  1  0  0  0  0
  4  1  2  0  0  0  0
  5 26  1  0  0  0  0
  5  2  2  0  0  0  0
  6  8  2  0  0  0  0
  6  4  1  0  0  0  0
  7  9  2  0  0  0  0
  8  7  1  0  0  0  0
  9  5  1  0  0  0  0
 10  3  2  0  0  0  0
 11 17  1  1  0  0  0
 12 11  1  0  0  0  0
 12 16  1  1  0  0  0
 13 15  1  0  0  0  0
 15 14  1  6  0  0  0
 16 14  1  0  0  0  0
 17 13  1  0  0  0  0
 18  2  1  6  0  0  0
 18 12  1  0  0  0  0
 18 11  1  0  0  0  0
 19 21  1  1  0  0  0
 20 19  1  0  0  0  0
 20 21  1  1  0  0  0
 22 15  1  6  0  0  0
 22 20  1  0  0  0  0
 22 19  1  0  0  0  0
 23 10  1  0  0  0  0
 23 25  1  0  0  0  0
 24 23  1  0  0  0  0
 24 25  1  0  0  0  0
 27 29  1  0  0  0  0
 27 28  1  0  0  0  0
 28 30  1  6  0  0  0
 29 28  1  0  0  0  0
 29 26  1  1  0  0  0
 31 36  2  0  0  0  0
 33 40  1  0  0  0  0
 34 39  1  1  0  0  0
 35 31  1  0  0  0  0
 36 32  1  0  0  0  0
 37 34  1  0  0  0  0
 38 30  1  6  0  0  0
 38 33  1  0  0  0  0
 38 37  1  0  0  0  0
 39 32  1  0  0  0  0
 40 34  1  0  0  0  0
 40 31  1  1  0  0  0
 41 33  1  0  0  0  0
 42 41  1  0  0  0  0
 43 42  1  0  0  0  0
M  END
>  <MODEL>
6

>  <REMARK>
 VINA RESULT:      -8.3      1.939      3.605
  Name = 
  9 active torsions:
  status: ('A' for Active; 'I' for Inactive)
    1  A    between atoms: C_3  and  C_43
    2  A    between atoms: O_4  and  C_11
    3  A    between atoms: O_4  and  C_19
    4  A    between atoms: C_6  and  C_32
    5  A    between atoms: C_12  and  C_16
    6  A    between atoms: C_16  and  C_36
    7  A    between atoms: N_17  and  C_38
    8  A    between atoms: C_29  and  C_30
    9  A    between atoms: O_34  and  C_38
                            x       y       z     vdW  Elec       q    Type
                         _______ _______ _______ _____ _____    ______ ____

>  <TORSDO>
F 9

$$$$
=
 OpenBabel10222418593D

 43 52  0  0  1  0  0  0  0  0999 V2000
  188.6410  177.3890  145.9190 C   0  0  0  0  0  0  0  0  0  0  0  0
  186.9420  177.5530  143.7160 C   0  0  0  0  0  0  0  0  0  0  0  0
  186.5240  177.9250  144.9570 N   0  0  0  0  0  0  0  0  0  0  0  0
  189.5070  177.3060  147.0150 C   0  0  0  0  0  3  0  0  0  0  0  0
  188.2450  177.0580  143.5300 C   0  0  0  0  0  0  0  0  0  0  0  0
  190.8000  176.8130  146.8490 C   0  0  0  0  0  3  0  0  0  0  0  0
  190.3690  176.4920  144.5230 N   0  0  0  0  0  0  0  0  0  0  0  0
  191.2150  176.4040  145.5820 C   0  0  0  0  0  3  0  0  0  0  0  0
  189.1040  176.9800  144.6470 C   0  0  0  0  0  0  0  0  0  0  0  0
  187.3200  177.8520  146.0560 C   0  0  0  0  0  0  0  0  0  0  0  0
  186.1390  178.9410  141.8000 C   0  0  2  0  0  3  0  0  0  0  0  0
  184.9930  178.7730  142.8100 C   0  0  1  0  0  3  0  0  0  0  0  0
  184.6990  179.3270  139.7580 C   0  0  0  0  0  2  0  0  0  0  0  0
  183.3950  177.5930  141.0940 C   0  0  0  0  0  2  0  0  0  0  0  0
  183.4950  178.3890  139.7840 C   0  0  1  0  0  3  0  0  0  0  0  0
  183.5570  178.4880  142.3180 C   0  0  0  0  0  2  0  0  0  0  0  0
  185.9250  178.6270  140.3200 C   0  0  0  0  0  2  0  0  0  0  0  0
  185.9690  177.6340  142.5760 C   0  0  2  0  0  3  0  0  0  0  0  0
  182.5390  180.3170  138.6160 N   0  0  1  0  0  0  0  0  0  0  0  0
  181.8730  179.1030  138.0880 C   0  0  2  0  0  3  0  0  0  0  0  0
  181.4200  180.4240  137.6620 C   0  0  0  0  0  2  0  0  0  0  0  0
  182.2250  179.1800  139.5030 C   0  0  1  0  0  3  0  0  0  0  0  0
  186.7860  178.3220  147.3830 C   0  0  0  0  0  3  0  0  0  0  0  0
  185.2820  178.5000  147.2970 C   0  0  0  0  0  2  0  0  0  0  0  0
  186.1810  179.7120  147.2690 C   0  0  0  0  0  2  0  0  0  0  0  0
  188.6320  176.6500  142.2450 O   0  0  0  0  0  0  0  0  0  0  0  0
  190.6510  177.8650  141.7900 C   0  0  0  0  0  2  0  0  0  0  0  0
  190.4760  176.7910  140.7400 C   0  0  1  0  0  3  0  0  0  0  0  0
  189.2650  177.5030  141.3020 C   0  0  1  0  0  3  0  0  0  0  0  0
  190.7730  177.3470  139.3600 C   0  0  0  0  0  2  0  0  0  0  0  0
  190.5860  174.4420  135.3070 C   0  0  0  0  0  0  0  0  0  0  0  0
  192.9190  173.6840  134.7430 C   0  0  0  0  0  2  0  0  0  0  0  0
  190.3070  176.0030  137.2310 N   0  0  0  0  0  0  0  0  0  0  0  0
  192.4860  175.0850  136.7400 C   0  0  2  0  0  3  0  0  0  0  0  0
  189.1820  174.3760  135.0850 N   0  0  0  0  0  1  0  0  0  0  0  0
  191.4070  173.6540  134.5940 C   0  0  0  0  0  3  0  0  0  0  0  0
  192.9330  176.3880  137.8760 S   0  0  0  0  0  0  0  0  0  0  0  0
  191.1940  176.2330  138.3980 C   0  0  1  0  0  3  0  0  0  0  0  0
  193.4430  174.8590  135.5900 C   0  0  0  0  0  2  0  0  0  0  0  0
  191.1750  175.5330  136.1580 C   0  0  1  0  0  3  0  0  0  0  0  0
  189.7390  177.2610  136.7410 C   0  0  0  0  0  2  0  0  0  0  0  0
  188.3620  177.2620  136.9600 O   0  0  0  0  0  0  0  0  0  0  0  0
  187.9790  178.5870  136.7570 C   0  0  0  0  0  1  0  0  0  0  0  0
  1 10  1  0  0  0  0
  1  4  1  0  0  0  0
  2  3  1  0  0  0  0
  3 10  2  0  0  0  0
  5  2  2  0  0  0  0
  5  9  1  0  0  0  0
  6  4  2  0  0  0  0
  7  9  1  0  0  0  0
  7  8  2  0  0  0  0
  8  6  1  0  0  0  0
  9  1  2  0  0  0  0
 10 23  1  0  0  0  0
 11 17  1  6  0  0  0
 11 18  1  0  0  0  0
 11 12  1  0  0  0  0
 12 16  1  6  0  0  0
 13 17  1  0  0  0  0
 14 16  1  0  0  0  0
 15 13  1  1  0  0  0
 15 14  1  0  0  0  0
 18 12  1  0  0  0  0
 18  2  1  1  0  0  0
 19 21  1  1  0  0  0
 19 22  1  0  0  0  0
 20 21  1  1  0  0  0
 20 19  1  0  0  0  0
 20 22  1  0  0  0  0
 22 15  1  6  0  0  0
 24 23  1  0  0  0  0
 25 24  1  0  0  0  0
 25 23  1  0  0  0  0
 26  5  1  0  0  0  0
 28 30  1  6  0  0  0
 28 29  1  0  0  0  0
 28 27  1  0  0  0  0
 29 27  1  0  0  0  0
 29 26  1  1  0  0  0
 32 39  1  0  0  0  0
 33 38  1  0  0  0  0
 34 39  1  6  0  0  0
 34 37  1  0  0  0  0
 35 31  1  0  0  0  0
 36 32  1  0  0  0  0
 36 31  2  0  0  0  0
 37 38  1  0  0  0  0
 38 30  1  6  0  0  0
 40 31  1  1  0  0  0
 40 34  1  0  0  0  0
 40 33  1  0  0  0  0
 41 42  1  0  0  0  0
 41 33  1  0  0  0  0
 43 42  1  0  0  0  0
M  END
>  <MODEL>
7

>  <REMARK>
 VINA RESULT:      -8.2      2.877      9.266
  Name = 
  9 active torsions:
  status: ('A' for Active; 'I' for Inactive)
    1  A    between atoms: C_3  and  C_43
    2  A    between atoms: O_4  and  C_11
    3  A    between atoms: O_4  and  C_19
    4  A    between atoms: C_6  and  C_32
    5  A    between atoms: C_12  and  C_16
    6  A    between atoms: C_16  and  C_36
    7  A    between atoms: N_17  and  C_38
    8  A    between atoms: C_29  and  C_30
    9  A    between atoms: O_34  and  C_38
                            x       y       z     vdW  Elec       q    Type
                         _______ _______ _______ _____ _____    ______ ____

>  <TORSDO>
F 9

$$$$
=
 OpenBabel10222418593D

 43 52  0  0  1  0  0  0  0  0999 V2000
  186.6630  177.9250  145.3880 C   0  0  0  0  0  0  0  0  0  0  0  0
  188.3700  177.8860  143.1860 C   0  0  0  0  0  0  0  0  0  0  0  0
  188.7770  177.4260  144.4010 N   0  0  0  0  0  0  0  0  0  0  0  0
  185.7930  177.9460  146.4840 C   0  0  0  0  0  3  0  0  0  0  0  0
  187.0740  178.4090  143.0280 C   0  0  0  0  0  0  0  0  0  0  0  0
  184.5070  178.4650  146.3460 C   0  0  0  0  0  3  0  0  0  0  0  0
  184.9520  178.9350  144.0490 N   0  0  0  0  0  0  0  0  0  0  0  0
  184.1030  178.9630  145.1080 C   0  0  0  0  0  3  0  0  0  0  0  0
  186.2110  178.4230  144.1450 C   0  0  0  0  0  0  0  0  0  0  0  0
  187.9770  177.4360  145.5000 C   0  0  0  0  0  0  0  0  0  0  0  0
  189.0690  176.6980  141.1020 C   0  0  2  0  0  3  0  0  0  0  0  0
  190.2120  176.6230  142.1270 C   0  0  1  0  0  3  0  0  0  0  0  0
  190.4960  176.4560  139.0300 C   0  0  0  0  0  2  0  0  0  0  0  0
  191.9340  177.8690  140.5880 C   0  0  0  0  0  2  0  0  0  0  0  0
  191.7810  177.2680  139.1830 C   0  0  1  0  0  3  0  0  0  0  0  0
  191.6750  176.8380  141.6810 C   0  0  0  0  0  2  0  0  0  0  0  0
  189.3320  177.1850  139.6780 C   0  0  0  0  0  2  0  0  0  0  0  0
  189.3470  177.8680  142.0470 C   0  0  2  0  0  3  0  0  0  0  0  0
  192.5180  175.2470  138.0130 N   0  0  1  0  0  0  0  0  0  0  0  0
  193.1660  176.4030  137.3520 C   0  0  2  0  0  3  0  0  0  0  0  0
  193.5140  175.0450  136.9450 C   0  0  0  0  0  2  0  0  0  0  0  0
  192.9770  176.4080  138.8000 C   0  0  1  0  0  3  0  0  0  0  0  0
  188.4990  176.8730  146.7950 C   0  0  0  0  0  3  0  0  0  0  0  0
  188.8700  178.0050  147.7340 C   0  0  0  0  0  2  0  0  0  0  0  0
  189.9560  177.2510  147.0080 C   0  0  0  0  0  2  0  0  0  0  0  0
  186.6980  178.9060  141.7720 O   0  0  0  0  0  0  0  0  0  0  0  0
  184.6250  178.9830  140.5670 C   0  0  0  0  0  2  0  0  0  0  0  0
  185.7690  179.0050  139.5780 C   0  0  1  0  0  3  0  0  0  0  0  0
  185.8850  178.1940  140.8510 C   0  0  1  0  0  3  0  0  0  0  0  0
  185.4880  178.0630  138.4230 C   0  0  0  0  0  2  0  0  0  0  0  0
  188.5890  174.8890  136.1400 C   0  0  0  0  0  0  0  0  0  0  0  0
  190.2470  176.2090  134.7830 C   0  0  0  0  0  2  0  0  0  0  0  0
  186.8090  176.1520  137.3460 N   0  0  0  0  0  0  0  0  0  0  0  0
  188.5470  177.3530  136.1740 C   0  0  2  0  0  3  0  0  0  0  0  0
  188.1400  173.6450  136.6650 N   0  0  0  0  0  1  0  0  0  0  0  0
  189.7150  174.9310  135.4090 C   0  0  0  0  0  3  0  0  0  0  0  0
  187.3820  178.6750  136.4660 S   0  0  0  0  0  0  0  0  0  0  0  0
  186.7910  177.5680  137.7880 C   0  0  1  0  0  3  0  0  0  0  0  0
  189.2660  177.3940  134.8430 C   0  0  0  0  0  2  0  0  0  0  0  0
  187.7080  176.1060  136.1990 C   0  0  1  0  0  3  0  0  0  0  0  0
  185.5030  175.7430  136.8250 C   0  0  0  0  0  2  0  0  0  0  0  0
  185.0120  174.6850  137.5910 O   0  0  0  0  0  0  0  0  0  0  0  0
  184.5460  173.7660  136.6540 C   0  0  0  0  0  1  0  0  0  0  0  0
  1 10  1  0  0  0  0
  1  4  1  0  0  0  0
  2  3  1  0  0  0  0
  3 10  2  0  0  0  0
  5  2  2  0  0  0  0
  5  9  1  0  0  0  0
  6  4  2  0  0  0  0
  7  9  1  0  0  0  0
  7  8  2  0  0  0  0
  8  6  1  0  0  0  0
  9  1  2  0  0  0  0
 10 23  1  0  0  0  0
 11 17  1  6  0  0  0
 11 18  1  0  0  0  0
 11 12  1  0  0  0  0
 12 16  1  6  0  0  0
 13 17  1  0  0  0  0
 14 16  1  0  0  0  0
 15 13  1  1  0  0  0
 15 14  1  0  0  0  0
 18 12  1  0  0  0  0
 18  2  1  1  0  0  0
 19 21  1  1  0  0  0
 19 22  1  0  0  0  0
 20 21  1  1  0  0  0
 20 19  1  0  0  0  0
 20 22  1  0  0  0  0
 22 15  1  6  0  0  0
 23 25  1  0  0  0  0
 23 24  1  0  0  0  0
 25 24  1  0  0  0  0
 26  5  1  0  0  0  0
 27 29  1  0  0  0  0
 28 30  1  6  0  0  0
 28 27  1  0  0  0  0
 28 29  1  0  0  0  0
 29 26  1  1  0  0  0
 31 35  1  0  0  0  0
 32 39  1  0  0  0  0
 32 36  1  0  0  0  0
 33 38  1  0  0  0  0
 34 39  1  6  0  0  0
 34 40  1  0  0  0  0
 34 37  1  0  0  0  0
 36 31  2  0  0  0  0
 37 38  1  0  0  0  0
 38 30  1  6  0  0  0
 40 31  1  1  0  0  0
 40 33  1  0  0  0  0
 41 33  1  0  0  0  0
 41 42  1  0  0  0  0
 43 42  1  0  0  0  0
M  END
>  <MODEL>
8

>  <REMARK>
 VINA RESULT:      -8.0      3.114      7.513
  Name = 
  9 active torsions:
  status: ('A' for Active; 'I' for Inactive)
    1  A    between atoms: C_3  and  C_43
    2  A    between atoms: O_4  and  C_11
    3  A    between atoms: O_4  and  C_19
    4  A    between atoms: C_6  and  C_32
    5  A    between atoms: C_12  and  C_16
    6  A    between atoms: C_16  and  C_36
    7  A    between atoms: N_17  and  C_38
    8  A    between atoms: C_29  and  C_30
    9  A    between atoms: O_34  and  C_38
                            x       y       z     vdW  Elec       q    Type
                         _______ _______ _______ _____ _____    ______ ____

>  <TORSDO>
F 9

$$$$
=
 OpenBabel10222418593D

 43 52  0  0  1  0  0  0  0  0999 V2000
  184.1030  178.7400  141.1710 C   0  0  0  0  0  0  0  0  0  0  0  0
  186.6380  178.2430  142.2170 C   0  0  0  0  0  0  0  0  0  0  0  0
  185.5290  178.2000  143.0060 N   0  0  0  0  0  0  0  0  0  0  0  0
  182.8360  178.9860  140.6310 C   0  0  0  0  0  3  0  0  0  0  0  0
  186.5190  178.5590  140.8520 C   0  0  0  0  0  0  0  0  0  0  0  0
  182.7010  179.3050  139.2810 C   0  0  0  0  0  3  0  0  0  0  0  0
  185.0660  179.1320  139.0130 N   0  0  0  0  0  0  0  0  0  0  0  0
  183.8410  179.3780  138.4810 C   0  0  0  0  0  3  0  0  0  0  0  0
  185.2330  178.8050  140.3250 C   0  0  0  0  0  0  0  0  0  0  0  0
  184.2780  178.4440  142.5350 C   0  0  0  0  0  0  0  0  0  0  0  0
  188.4280  176.5510  142.6370 C   0  0  2  0  0  3  0  0  0  0  0  0
  187.8400  177.0010  143.9840 C   0  0  1  0  0  3  0  0  0  0  0  0
  190.6980  175.8570  143.5060 C   0  0  0  0  0  2  0  0  0  0  0  0
  190.1260  177.9140  144.8960 C   0  0  0  0  0  2  0  0  0  0  0  0
  191.1890  176.8620  144.5460 C   0  0  1  0  0  3  0  0  0  0  0  0
  188.7690  177.2800  145.1860 C   0  0  0  0  0  2  0  0  0  0  0  0
  189.9370  176.5690  142.4020 C   0  0  0  0  0  2  0  0  0  0  0  0
  187.9780  177.9970  142.8470 C   0  0  2  0  0  3  0  0  0  0  0  0
  192.1600  177.0940  146.7820 N   0  0  1  0  0  0  0  0  0  0  0  0
  190.8450  176.4300  146.9360 C   0  0  2  0  0  3  0  0  0  0  0  0
  191.7160  176.5940  148.0960 C   0  0  0  0  0  2  0  0  0  0  0  0
  191.6820  176.1210  145.7810 C   0  0  1  0  0  3  0  0  0  0  0  0
  183.1050  178.3390  143.4730 C   0  0  0  0  0  3  0  0  0  0  0  0
  182.5270  179.7180  143.7290 C   0  0  0  0  0  2  0  0  0  0  0  0
  183.3850  179.0600  144.7820 C   0  0  0  0  0  2  0  0  0  0  0  0
  187.6840  178.6280  140.0740 O   0  0  0  0  0  0  0  0  0  0  0  0
  189.1460  178.4700  138.1780 C   0  0  0  0  0  2  0  0  0  0  0  0
  188.5880  177.0980  138.4840 C   0  0  1  0  0  3  0  0  0  0  0  0
  187.7280  178.3270  138.6870 C   0  0  1  0  0  3  0  0  0  0  0  0
  188.1560  176.4050  137.2050 C   0  0  0  0  0  2  0  0  0  0  0  0
  183.5630  174.4600  137.0680 C   0  0  0  0  0  0  0  0  0  0  0  0
  183.7400  171.9520  137.1760 C   0  0  0  0  0  2  0  0  0  0  0  0
  185.6830  175.7720  137.0130 N   0  0  0  0  0  0  0  0  0  0  0  0
  185.7640  173.3750  137.3020 C   0  0  2  0  0  3  0  0  0  0  0  0
  182.7680  175.6400  137.0780 N   0  0  0  0  0  1  0  0  0  0  0  0
  182.9720  173.2630  137.2080 C   0  0  0  0  0  3  0  0  0  0  0  0
  187.4770  173.7130  136.9270 S   0  0  0  0  0  0  0  0  0  0  0  0
  187.0400  175.3940  137.4790 C   0  0  1  0  0  3  0  0  0  0  0  0
  185.2050  172.0930  136.7220 C   0  0  0  0  0  2  0  0  0  0  0  0
  185.0140  174.5200  136.6800 C   0  0  1  0  0  3  0  0  0  0  0  0
  185.7440  176.5200  135.7560 C   0  0  0  0  0  2  0  0  0  0  0  0
  184.8490  177.5880  135.8110 O   0  0  0  0  0  0  0  0  0  0  0  0
  184.1430  177.5110  134.6110 C   0  0  0  0  0  1  0  0  0  0  0  0
  1 10  1  0  0  0  0
  2  3  1  0  0  0  0
  4  1  1  0  0  0  0
  5  2  2  0  0  0  0
  6  4  2  0  0  0  0
  7  9  1  0  0  0  0
  8  7  2  0  0  0  0
  8  6  1  0  0  0  0
  9  5  1  0  0  0  0
  9  1  2  0  0  0  0
 10  3  2  0  0  0  0
 10 23  1  0  0  0  0
 11 17  1  1  0  0  0
 11 18  1  0  0  0  0
 11 12  1  0  0  0  0
 12 16  1  1  0  0  0
 14 16  1  0  0  0  0
 15 13  1  6  0  0  0
 15 14  1  0  0  0  0
 17 13  1  0  0  0  0
 18  2  1  6  0  0  0
 18 12  1  0  0  0  0
 19 20  1  0  0  0  0
 19 21  1  1  0  0  0
 20 21  1  1  0  0  0
 22 15  1  6  0  0  0
 22 19  1  0  0  0  0
 22 20  1  0  0  0  0
 23 24  1  0  0  0  0
 23 25  1  0  0  0  0
 24 25  1  0  0  0  0
 26  5  1  0  0  0  0
 27 28  1  0  0  0  0
 27 29  1  0  0  0  0
 28 30  1  6  0  0  0
 28 29  1  0  0  0  0
 29 26  1  1  0  0  0
 31 35  1  0  0  0  0
 31 36  2  0  0  0  0
 32 36  1  0  0  0  0
 33 38  1  0  0  0  0
 34 39  1  6  0  0  0
 37 34  1  0  0  0  0
 37 38  1  0  0  0  0
 38 30  1  6  0  0  0
 39 32  1  0  0  0  0
 40 33  1  0  0  0  0
 40 31  1  1  0  0  0
 40 34  1  0  0  0  0
 41 42  1  0  0  0  0
 41 33  1  0  0  0  0
 43 42  1  0  0  0  0
M  END
>  <MODEL>
9

>  <REMARK>
 VINA RESULT:      -7.9      3.034      5.783
  Name = 
  9 active torsions:
  status: ('A' for Active; 'I' for Inactive)
    1  A    between atoms: C_3  and  C_43
    2  A    between atoms: O_4  and  C_11
    3  A    between atoms: O_4  and  C_19
    4  A    between atoms: C_6  and  C_32
    5  A    between atoms: C_12  and  C_16
    6  A    between atoms: C_16  and  C_36
    7  A    between atoms: N_17  and  C_38
    8  A    between atoms: C_29  and  C_30
    9  A    between atoms: O_34  and  C_38
                            x       y       z     vdW  Elec       q    Type
                         _______ _______ _______ _____ _____    ______ ____

>  <TORSDO>
F 9

$$$$
