=
 OpenBabel10222416243D

 38 40  0  0  1  0  0  0  0  0999 V2000
  185.4890  178.6660  143.6680 C   0  0  0  0  0  2  0  0  0  0  0  0
  182.5120  178.8640  143.5430 C   0  0  0  0  0  0  0  0  0  0  0  0
  184.1180  179.0150  141.5710 C   0  0  0  0  0  3  0  0  0  0  0  0
  182.9100  178.8920  142.1340 C   0  0  0  0  0  0  0  0  0  0  0  0
  185.4060  179.2970  142.2890 C   0  0  0  0  0  2  0  0  0  0  0  0
  181.2310  178.7070  143.6240 N   0  0  0  0  0  0  0  0  0  0  0  0
  180.6760  178.6650  142.3370 N   0  0  0  0  0  0  0  0  0  0  0  0
  181.3660  178.7360  140.0550 N   0  0  0  0  0  2  0  0  0  0  0  0
  183.4030  178.6810  144.7330 C   0  0  0  0  0  2  0  0  0  0  0  0
  181.6210  178.7530  141.4630 C   0  0  0  0  0  0  0  0  0  0  0  0
  184.6480  179.4190  144.5840 N   0  0  0  0  0  0  0  0  0  0  0  0
  182.3920  178.9490  139.0420 C   0  0  1  0  0  3  0  0  0  0  0  0
  184.0770  177.2070  136.3500 C   0  0  0  0  0  3  0  0  0  0  0  0
  183.0580  177.6500  138.7100 C   0  0  0  0  0  3  0  0  0  0  0  0
  183.5680  177.4260  137.5290 C   0  0  0  0  0  0  0  0  0  0  0  0
  185.3820  176.6420  136.2300 N   0  0  0  0  0  2  0  0  0  0  0  0
  186.8250  177.5560  134.6240 O   0  0  0  0  0  1  0  0  0  0  0  0
  186.5720  177.4560  135.9950 C   0  0  2  0  0  3  0  0  0  0  0  0
  187.8060  176.9520  136.7700 C   0  0  0  0  0  0  0  0  0  0  0  0
  189.0560  176.9850  135.9050 C   0  0  0  0  0  1  0  0  0  0  0  0
  187.5780  175.5250  137.2410 C   0  0  0  0  0  1  0  0  0  0  0  0
  188.9040  177.1170  139.4280 O   0  0  0  0  0  1  0  0  0  0  0  0
  188.9050  179.2070  137.8580 O   0  0  0  0  0  0  0  0  0  0  0  0
  188.0830  177.9970  138.2390 P   0  0  0  0  0  0  0  0  0  0  0  0
  186.5950  178.5070  138.8580 O   0  0  0  0  0  1  0  0  0  0  0  0
  181.8070  179.5260  137.8790 O   0  0  0  0  0  0  0  0  0  0  0  0
  181.1240  180.7430  137.9080 C   0  0  0  0  0  0  0  0  0  0  0  0
  181.7560  181.9260  138.3910 N   0  0  0  0  0  1  0  0  0  0  0  0
  179.9320  180.7960  137.5090 O   0  0  0  0  0  0  0  0  0  0  0  0
  185.2820  179.3880  145.8330 N   0  0  0  0  0  2  0  0  0  0  0  0
  185.8460  178.1130  145.9690 N   0  0  0  0  0  2  0  0  0  0  0  0
  188.5320  178.0700  148.5800 C   0  0  0  0  0  3  0  0  0  0  0  0
  189.7450  177.5740  147.8380 C   0  0  0  0  0  2  0  0  0  0  0  0
  187.3410  178.2290  147.9960 C   0  0  0  0  0  3  0  0  0  0  0  0
  188.1350  177.4810  145.8140 C   0  0  0  0  0  3  0  0  0  0  0  0
  187.1280  177.9270  146.5660 C   0  0  0  0  0  0  0  0  0  0  0  0
  189.4730  177.2800  146.3880 C   0  0  0  0  0  0  0  0  0  0  0  0
  190.4040  176.8580  145.6560 O   0  0  0  0  0  0  0  0  0  0  0  0
  1 11  1  0  0  0  0
  2  6  2  0  0  0  0
  2  9  1  0  0  0  0
  3  4  2  0  0  0  0
  3  5  1  0  0  0  0
  4  2  1  0  0  0  0
  5  1  1  0  0  0  0
  7  6  1  0  0  0  0
  8 10  1  0  0  0  0
 10  4  1  0  0  0  0
 10  7  2  0  0  0  0
 11  9  1  0  0  0  0
 11 30  1  0  0  0  0
 12 14  1  6  0  0  0
 12  8  1  0  0  0  0
 13 15  2  0  0  0  0
 15 14  2  0  0  0  0
 16 13  1  0  0  0  0
 18 17  1  6  0  0  0
 18 16  1  0  0  0  0
 18 19  1  0  0  0  0
 19 21  1  0  0  0  0
 19 24  1  0  0  0  0
 20 19  1  0  0  0  0
 23 24  2  0  0  0  0
 24 25  1  0  0  0  0
 24 22  1  0  0  0  0
 26 27  1  0  0  0  0
 26 12  1  0  0  0  0
 27 28  1  0  0  0  0
 29 27  2  0  0  0  0
 30 31  1  0  0  0  0
 31 36  1  0  0  0  0
 33 32  1  0  0  0  0
 34 32  2  0  0  0  0
 35 37  1  0  0  0  0
 35 36  2  0  0  0  0
 36 34  1  0  0  0  0
 37 33  1  0  0  0  0
 38 37  2  0  0  0  0
M  END
>  <MODEL>
1

>  <REMARK>
 VINA RESULT:      -7.9      0.000      0.000
  Name = 
  11 active torsions:
  status: ('A' for Active; 'I' for Inactive)
    1  A    between atoms: C_2  and  O_4
    2  A    between atoms: C_2  and  C_15
    3  A    between atoms: C_2  and  N_20
    4  A    between atoms: O_4  and  C_7
    5  A    between atoms: C_13  and  N_17
    6  A    between atoms: N_17  and  C_33
    7  A    between atoms: N_19  and  C_23
    8  A    between atoms: N_19  and  N_37
    9  A    between atoms: C_21  and  P_29
   10  A    between atoms: C_21  and  C_33
   11  A    between atoms: N_31  and  N_37
                            x       y       z     vdW  Elec       q    Type
                         _______ _______ _______ _____ _____    ______ ____

>  <TORSDO>
F 11

$$$$
=
 OpenBabel10222416243D

 38 40  0  0  1  0  0  0  0  0999 V2000
  183.5770  179.0300  142.4070 C   0  0  0  0  0  2  0  0  0  0  0  0
  184.6520  178.7540  145.1790 C   0  0  0  0  0  0  0  0  0  0  0  0
  185.7520  177.9060  143.0440 C   0  0  0  0  0  3  0  0  0  0  0  0
  185.7280  178.2100  144.3470 C   0  0  0  0  0  0  0  0  0  0  0  0
  184.5800  177.9300  142.1050 C   0  0  0  0  0  2  0  0  0  0  0  0
  185.0830  178.9090  146.3890 N   0  0  0  0  0  0  0  0  0  0  0  0
  186.4100  178.4620  146.4810 N   0  0  0  0  0  0  0  0  0  0  0  0
  188.1260  177.5590  145.0920 N   0  0  0  0  0  2  0  0  0  0  0  0
  183.3730  179.3790  144.7150 C   0  0  0  0  0  2  0  0  0  0  0  0
  186.8080  178.0710  145.3180 C   0  0  0  0  0  0  0  0  0  0  0  0
  182.8090  178.6580  143.5850 N   0  0  0  0  0  0  0  0  0  0  0  0
  188.5720  177.0020  143.8230 C   0  0  1  0  0  3  0  0  0  0  0  0
  189.1440  177.6970  140.3130 C   0  0  0  0  0  3  0  0  0  0  0  0
  188.9420  178.1060  142.8820 C   0  0  0  0  0  3  0  0  0  0  0  0
  189.0440  177.9030  141.5960 C   0  0  0  0  0  0  0  0  0  0  0  0
  188.5380  178.6050  139.3960 N   0  0  0  0  0  2  0  0  0  0  0  0
  189.0270  179.7810  137.4260 O   0  0  0  0  0  1  0  0  0  0  0  0
  188.7440  178.5160  137.9520 C   0  0  2  0  0  3  0  0  0  0  0  0
  187.5670  177.8420  137.2180 C   0  0  0  0  0  0  0  0  0  0  0  0
  187.2510  178.5480  135.9090 C   0  0  0  0  0  1  0  0  0  0  0  0
  186.3250  177.8650  138.0950 C   0  0  0  0  0  1  0  0  0  0  0  0
  189.4610  175.7010  137.5670 O   0  0  0  0  0  1  0  0  0  0  0  0
  186.9010  175.1980  137.4190 O   0  0  0  0  0  1  0  0  0  0  0  0
  187.9760  176.1010  136.8610 P   0  0  0  0  0  0  0  0  0  0  0  0
  188.0800  175.8760  135.1890 O   0  0  0  0  0  0  0  0  0  0  0  0
  189.6820  176.1360  144.0420 O   0  0  0  0  0  0  0  0  0  0  0  0
  190.9840  176.6130  144.2090 C   0  0  0  0  0  0  0  0  0  0  0  0
  191.3860  177.2300  145.4300 N   0  0  0  0  0  1  0  0  0  0  0  0
  191.8110  176.5030  143.2680 O   0  0  0  0  0  0  0  0  0  0  0  0
  181.5140  179.1600  143.3970 N   0  0  0  0  0  2  0  0  0  0  0  0
  181.1240  178.8000  142.1000 N   0  0  0  0  0  2  0  0  0  0  0  0
  178.9320  181.5890  140.8970 C   0  0  0  0  0  3  0  0  0  0  0  0
  179.2630  181.6990  139.4320 C   0  0  0  0  0  2  0  0  0  0  0  0
  179.5110  180.6970  141.7060 C   0  0  0  0  0  3  0  0  0  0  0  0
  180.8970  179.7550  139.9330 C   0  0  0  0  0  3  0  0  0  0  0  0
  180.5270  179.7460  141.2140 C   0  0  0  0  0  0  0  0  0  0  0  0
  180.3040  180.7090  138.9840 C   0  0  0  0  0  0  0  0  0  0  0  0
  180.6710  180.6970  137.7820 O   0  0  0  0  0  0  0  0  0  0  0  0
  1 11  1  0  0  0  0
  2  6  2  0  0  0  0
  3  4  2  0  0  0  0
  4  2  1  0  0  0  0
  4 10  1  0  0  0  0
  5  1  1  0  0  0  0
  5  3  1  0  0  0  0
  6  7  1  0  0  0  0
  8 10  1  0  0  0  0
  9  2  1  0  0  0  0
 10  7  2  0  0  0  0
 11  9  1  0  0  0  0
 12 14  1  6  0  0  0
 12 26  1  0  0  0  0
 12  8  1  0  0  0  0
 13 15  2  0  0  0  0
 15 14  2  0  0  0  0
 16 13  1  0  0  0  0
 18 17  1  6  0  0  0
 18 16  1  0  0  0  0
 19 18  1  0  0  0  0
 19 21  1  0  0  0  0
 20 19  1  0  0  0  0
 24 19  1  0  0  0  0
 24 23  1  0  0  0  0
 24 22  1  0  0  0  0
 25 24  2  0  0  0  0
 26 27  1  0  0  0  0
 27 28  1  0  0  0  0
 29 27  2  0  0  0  0
 30 11  1  0  0  0  0
 31 30  1  0  0  0  0
 32 34  2  0  0  0  0
 33 32  1  0  0  0  0
 35 36  2  0  0  0  0
 36 34  1  0  0  0  0
 36 31  1  0  0  0  0
 37 33  1  0  0  0  0
 37 35  1  0  0  0  0
 38 37  2  0  0  0  0
M  END
>  <MODEL>
2

>  <REMARK>
 VINA RESULT:      -7.7      2.383      7.593
  Name = 
  11 active torsions:
  status: ('A' for Active; 'I' for Inactive)
    1  A    between atoms: C_2  and  O_4
    2  A    between atoms: C_2  and  C_15
    3  A    between atoms: C_2  and  N_20
    4  A    between atoms: O_4  and  C_7
    5  A    between atoms: C_13  and  N_17
    6  A    between atoms: N_17  and  C_33
    7  A    between atoms: N_19  and  C_23
    8  A    between atoms: N_19  and  N_37
    9  A    between atoms: C_21  and  P_29
   10  A    between atoms: C_21  and  C_33
   11  A    between atoms: N_31  and  N_37
                            x       y       z     vdW  Elec       q    Type
                         _______ _______ _______ _____ _____    ______ ____

>  <TORSDO>
F 11

$$$$
=
 OpenBabel10222416243D

 38 40  0  0  1  0  0  0  0  0999 V2000
  189.5960  177.5720  139.5850 C   0  0  0  0  0  2  0  0  0  0  0  0
  189.2870  176.8490  142.4660 C   0  0  0  0  0  0  0  0  0  0  0  0
  187.7330  178.3450  141.1110 C   0  0  0  0  0  3  0  0  0  0  0  0
  188.0710  177.6140  142.1800 C   0  0  0  0  0  0  0  0  0  0  0  0
  188.6220  178.6780  139.9470 C   0  0  0  0  0  2  0  0  0  0  0  0
  189.1710  176.2760  143.6190 N   0  0  0  0  0  0  0  0  0  0  0  0
  187.9440  176.6260  144.2020 N   0  0  0  0  0  0  0  0  0  0  0  0
  185.9900  177.9000  143.7020 N   0  0  0  0  0  2  0  0  0  0  0  0
  190.3620  176.4590  141.4990 C   0  0  0  0  0  2  0  0  0  0  0  0
  187.2870  177.3800  143.3880 C   0  0  0  0  0  0  0  0  0  0  0  0
  190.6630  177.5400  140.5730 N   0  0  0  0  0  0  0  0  0  0  0  0
  185.2700  178.8450  142.8610 C   0  0  1  0  0  3  0  0  0  0  0  0
  184.2120  178.9660  139.3980 C   0  0  0  0  0  3  0  0  0  0  0  0
  184.4490  178.1070  141.8490 C   0  0  0  0  0  3  0  0  0  0  0  0
  184.3290  178.5360  140.6220 C   0  0  0  0  0  0  0  0  0  0  0  0
  184.3690  178.0620  138.3060 N   0  0  0  0  0  2  0  0  0  0  0  0
  186.4210  178.9240  137.5670 O   0  0  0  0  0  1  0  0  0  0  0  0
  185.6740  177.7530  137.7250 C   0  0  2  0  0  3  0  0  0  0  0  0
  185.5710  176.9570  136.4080 C   0  0  0  0  0  0  0  0  0  0  0  0
  186.3190  177.6500  135.2810 C   0  0  0  0  0  1  0  0  0  0  0  0
  184.1130  176.8070  136.0030 C   0  0  0  0  0  1  0  0  0  0  0  0
  186.6120  174.5940  135.1330 O   0  0  0  0  0  0  0  0  0  0  0  0
  187.5440  175.3750  137.4460 O   0  0  0  0  0  1  0  0  0  0  0  0
  186.2700  175.2890  136.6370 P   0  0  0  0  0  0  0  0  0  0  0  0
  185.1560  174.3160  137.4560 O   0  0  0  0  0  1  0  0  0  0  0  0
  184.4420  179.6760  143.6700 O   0  0  0  0  0  0  0  0  0  0  0  0
  183.5940  179.1590  144.6520 C   0  0  0  0  0  0  0  0  0  0  0  0
  184.0320  179.0290  146.0030 N   0  0  0  0  0  1  0  0  0  0  0  0
  182.4310  178.7970  144.3400 O   0  0  0  0  0  0  0  0  0  0  0  0
  191.8310  177.1700  139.8950 N   0  0  0  0  0  2  0  0  0  0  0  0
  191.4370  176.7050  138.6330 N   0  0  0  0  0  2  0  0  0  0  0  0
  192.3420  173.6370  136.6840 C   0  0  0  0  0  3  0  0  0  0  0  0
  193.8150  173.8060  136.4140 C   0  0  0  0  0  2  0  0  0  0  0  0
  191.6230  174.5340  137.3640 C   0  0  0  0  0  3  0  0  0  0  0  0
  193.5260  176.0190  137.7240 C   0  0  0  0  0  3  0  0  0  0  0  0
  192.2290  175.7680  137.9050 C   0  0  0  0  0  0  0  0  0  0  0  0
  194.3800  175.0780  136.9850 C   0  0  0  0  0  0  0  0  0  0  0  0
  195.5990  175.3390  136.8280 O   0  0  0  0  0  0  0  0  0  0  0  0
  1  5  1  0  0  0  0
  1 11  1  0  0  0  0
  2  6  2  0  0  0  0
  3  4  2  0  0  0  0
  4  2  1  0  0  0  0
  4 10  1  0  0  0  0
  5  3  1  0  0  0  0
  6  7  1  0  0  0  0
  9  2  1  0  0  0  0
 10  8  1  0  0  0  0
 10  7  2  0  0  0  0
 11  9  1  0  0  0  0
 12 14  1  6  0  0  0
 12 26  1  0  0  0  0
 12  8  1  0  0  0  0
 13 15  2  0  0  0  0
 15 14  2  0  0  0  0
 16 13  1  0  0  0  0
 18 17  1  6  0  0  0
 18 16  1  0  0  0  0
 19 24  1  0  0  0  0
 19 18  1  0  0  0  0
 20 19  1  0  0  0  0
 21 19  1  0  0  0  0
 22 24  2  0  0  0  0
 24 23  1  0  0  0  0
 24 25  1  0  0  0  0
 26 27  1  0  0  0  0
 27 28  1  0  0  0  0
 29 27  2  0  0  0  0
 30 11  1  0  0  0  0
 31 30  1  0  0  0  0
 32 34  2  0  0  0  0
 33 32  1  0  0  0  0
 33 37  1  0  0  0  0
 34 36  1  0  0  0  0
 35 36  2  0  0  0  0
 36 31  1  0  0  0  0
 37 35  1  0  0  0  0
 38 37  2  0  0  0  0
M  END
>  <MODEL>
3

>  <REMARK>
 VINA RESULT:      -7.6      4.010      7.180
  Name = 
  11 active torsions:
  status: ('A' for Active; 'I' for Inactive)
    1  A    between atoms: C_2  and  O_4
    2  A    between atoms: C_2  and  C_15
    3  A    between atoms: C_2  and  N_20
    4  A    between atoms: O_4  and  C_7
    5  A    between atoms: C_13  and  N_17
    6  A    between atoms: N_17  and  C_33
    7  A    between atoms: N_19  and  C_23
    8  A    between atoms: N_19  and  N_37
    9  A    between atoms: C_21  and  P_29
   10  A    between atoms: C_21  and  C_33
   11  A    between atoms: N_31  and  N_37
                            x       y       z     vdW  Elec       q    Type
                         _______ _______ _______ _____ _____    ______ ____

>  <TORSDO>
F 11

$$$$
=
 OpenBabel10222416243D

 38 40  0  0  1  0  0  0  0  0999 V2000
  183.8690  178.9970  142.1460 C   0  0  0  0  0  2  0  0  0  0  0  0
  184.7160  178.7750  145.0010 C   0  0  0  0  0  0  0  0  0  0  0  0
  186.0160  177.9460  142.9730 C   0  0  0  0  0  3  0  0  0  0  0  0
  185.8740  178.2590  144.2660 C   0  0  0  0  0  0  0  0  0  0  0  0
  184.9270  177.9270  141.9400 C   0  0  0  0  0  2  0  0  0  0  0  0
  185.0400  178.9520  146.2400 N   0  0  0  0  0  0  0  0  0  0  0  0
  186.3670  178.5470  146.4470 N   0  0  0  0  0  0  0  0  0  0  0  0
  188.2200  177.6890  145.2150 N   0  0  0  0  0  2  0  0  0  0  0  0
  183.4620  179.3560  144.4250 C   0  0  0  0  0  2  0  0  0  0  0  0
  186.8720  178.1600  145.3250 C   0  0  0  0  0  0  0  0  0  0  0  0
  183.0160  178.6090  143.2590 N   0  0  0  0  0  0  0  0  0  0  0  0
  188.7880  177.1360  143.9930 C   0  0  1  0  0  3  0  0  0  0  0  0
  189.2130  177.7500  140.4480 C   0  0  0  0  0  3  0  0  0  0  0  0
  189.0390  178.2330  143.0060 C   0  0  0  0  0  3  0  0  0  0  0  0
  189.1280  177.9930  141.7250 C   0  0  0  0  0  0  0  0  0  0  0  0
  188.5110  178.5710  139.5170 N   0  0  0  0  0  2  0  0  0  0  0  0
  189.0290  179.7790  137.5750 O   0  0  0  0  0  1  0  0  0  0  0  0
  188.7480  178.5040  138.0770 C   0  0  2  0  0  3  0  0  0  0  0  0
  187.5950  177.8270  137.3090 C   0  0  0  0  0  0  0  0  0  0  0  0
  187.3060  178.5430  135.9980 C   0  0  0  0  0  1  0  0  0  0  0  0
  186.3320  177.8340  138.1540 C   0  0  0  0  0  1  0  0  0  0  0  0
  189.4580  175.6750  137.7470 O   0  0  0  0  0  1  0  0  0  0  0  0
  186.9130  175.1820  137.4100 O   0  0  0  0  0  1  0  0  0  0  0  0
  188.0260  176.0930  136.9470 P   0  0  0  0  0  0  0  0  0  0  0  0
  188.2480  175.9010  135.2820 O   0  0  0  0  0  0  0  0  0  0  0  0
  189.9970  176.4440  144.2950 O   0  0  0  0  0  0  0  0  0  0  0  0
  191.0360  177.0320  145.0170 C   0  0  0  0  0  0  0  0  0  0  0  0
  191.4150  176.5290  146.2960 N   0  0  0  0  0  1  0  0  0  0  0  0
  191.6430  178.0240  144.5370 O   0  0  0  0  0  0  0  0  0  0  0  0
  181.7280  179.0700  142.9590 N   0  0  0  0  0  2  0  0  0  0  0  0
  181.5890  179.0070  141.5660 N   0  0  0  0  0  2  0  0  0  0  0  0
  178.9310  176.5110  140.7100 C   0  0  0  0  0  3  0  0  0  0  0  0
  179.5800  175.6400  139.6660 C   0  0  0  0  0  2  0  0  0  0  0  0
  179.5570  177.5420  141.2840 C   0  0  0  0  0  3  0  0  0  0  0  0
  181.6140  177.2000  140.0180 C   0  0  0  0  0  3  0  0  0  0  0  0
  180.9440  177.9040  140.9320 C   0  0  0  0  0  0  0  0  0  0  0  0
  180.9900  176.0530  139.3430 C   0  0  0  0  0  0  0  0  0  0  0  0
  181.6440  175.4080  138.4860 O   0  0  0  0  0  0  0  0  0  0  0  0
  1 11  1  0  0  0  0
  2  6  2  0  0  0  0
  3  4  2  0  0  0  0
  4  2  1  0  0  0  0
  4 10  1  0  0  0  0
  5  1  1  0  0  0  0
  5  3  1  0  0  0  0
  6  7  1  0  0  0  0
  8 10  1  0  0  0  0
  9  2  1  0  0  0  0
 10  7  2  0  0  0  0
 11  9  1  0  0  0  0
 12 14  1  6  0  0  0
 12 26  1  0  0  0  0
 12  8  1  0  0  0  0
 13 15  2  0  0  0  0
 15 14  2  0  0  0  0
 16 13  1  0  0  0  0
 18 17  1  6  0  0  0
 18 16  1  0  0  0  0
 19 18  1  0  0  0  0
 19 21  1  0  0  0  0
 20 19  1  0  0  0  0
 24 19  1  0  0  0  0
 24 23  1  0  0  0  0
 24 22  1  0  0  0  0
 25 24  2  0  0  0  0
 26 27  1  0  0  0  0
 27 28  1  0  0  0  0
 29 27  2  0  0  0  0
 30 11  1  0  0  0  0
 31 30  1  0  0  0  0
 32 34  2  0  0  0  0
 33 32  1  0  0  0  0
 35 36  2  0  0  0  0
 36 34  1  0  0  0  0
 36 31  1  0  0  0  0
 37 33  1  0  0  0  0
 37 35  1  0  0  0  0
 38 37  2  0  0  0  0
M  END
>  <MODEL>
4

>  <REMARK>
 VINA RESULT:      -7.6      2.522      7.468
  Name = 
  11 active torsions:
  status: ('A' for Active; 'I' for Inactive)
    1  A    between atoms: C_2  and  O_4
    2  A    between atoms: C_2  and  C_15
    3  A    between atoms: C_2  and  N_20
    4  A    between atoms: O_4  and  C_7
    5  A    between atoms: C_13  and  N_17
    6  A    between atoms: N_17  and  C_33
    7  A    between atoms: N_19  and  C_23
    8  A    between atoms: N_19  and  N_37
    9  A    between atoms: C_21  and  P_29
   10  A    between atoms: C_21  and  C_33
   11  A    between atoms: N_31  and  N_37
                            x       y       z     vdW  Elec       q    Type
                         _______ _______ _______ _____ _____    ______ ____

>  <TORSDO>
F 11

$$$$
=
 OpenBabel10222416243D

 38 40  0  0  1  0  0  0  0  0999 V2000
  189.4450  178.0820  142.9400 C   0  0  0  0  0  2  0  0  0  0  0  0
  191.6120  177.3340  141.0270 C   0  0  0  0  0  0  0  0  0  0  0  0
  189.1060  177.1300  140.6210 C   0  0  0  0  0  3  0  0  0  0  0  0
  190.3900  177.1310  140.2450 C   0  0  0  0  0  0  0  0  0  0  0  0
  188.5940  177.2140  142.0300 C   0  0  0  0  0  2  0  0  0  0  0  0
  192.6380  177.2700  140.2420 N   0  0  0  0  0  0  0  0  0  0  0  0
  192.2190  176.9850  138.9340 N   0  0  0  0  0  0  0  0  0  0  0  0
  190.2040  176.6400  137.7050 N   0  0  0  0  0  2  0  0  0  0  0  0
  191.7200  177.8790  142.4170 C   0  0  0  0  0  2  0  0  0  0  0  0
  190.9310  176.9170  138.9070 C   0  0  0  0  0  0  0  0  0  0  0  0
  190.6640  177.3620  143.2740 N   0  0  0  0  0  0  0  0  0  0  0  0
  188.7620  176.4410  137.6570 C   0  0  1  0  0  3  0  0  0  0  0  0
  185.4980  177.9800  137.9760 C   0  0  0  0  0  3  0  0  0  0  0  0
  188.0660  177.7640  137.5740 C   0  0  0  0  0  3  0  0  0  0  0  0
  186.7810  177.8740  137.7740 C   0  0  0  0  0  0  0  0  0  0  0  0
  184.9920  179.0090  138.8250 N   0  0  0  0  0  2  0  0  0  0  0  0
  183.4160  180.7310  139.0440 O   0  0  0  0  0  1  0  0  0  0  0  0
  183.5730  179.3510  138.8830 C   0  0  2  0  0  3  0  0  0  0  0  0
  182.8070  178.5580  139.9610 C   0  0  0  0  0  0  0  0  0  0  0  0
  181.6730  179.3790  140.5540 C   0  0  0  0  0  1  0  0  0  0  0  0
  183.7530  178.1560  141.0810 C   0  0  0  0  0  1  0  0  0  0  0  0
  181.8860  177.2440  137.5700 O   0  0  0  0  0  0  0  0  0  0  0  0
  183.0550  175.8800  139.4680 O   0  0  0  0  0  1  0  0  0  0  0  0
  182.1120  177.0370  139.2340 P   0  0  0  0  0  0  0  0  0  0  0  0
  180.6210  176.6960  139.9550 O   0  0  0  0  0  1  0  0  0  0  0  0
  188.4260  175.6260  136.5370 O   0  0  0  0  0  0  0  0  0  0  0  0
  187.9680  174.3150  136.6760 C   0  0  0  0  0  0  0  0  0  0  0  0
  188.8820  173.2330  136.8430 N   0  0  0  0  0  1  0  0  0  0  0  0
  186.7320  174.0830  136.6460 O   0  0  0  0  0  0  0  0  0  0  0  0
  191.0000  177.7250  144.5850 N   0  0  0  0  0  2  0  0  0  0  0  0
  190.3140  176.8490  145.4360 N   0  0  0  0  0  2  0  0  0  0  0  0
  188.6080  178.0400  148.5510 C   0  0  0  0  0  3  0  0  0  0  0  0
  187.1800  178.2530  148.1190 C   0  0  0  0  0  2  0  0  0  0  0  0
  189.5600  177.6110  147.7180 C   0  0  0  0  0  3  0  0  0  0  0  0
  188.0460  177.4650  145.8110 C   0  0  0  0  0  3  0  0  0  0  0  0
  189.2770  177.3110  146.3000 C   0  0  0  0  0  0  0  0  0  0  0  0
  186.9480  177.9340  146.6670 C   0  0  0  0  0  0  0  0  0  0  0  0
  185.7970  178.0710  146.1800 O   0  0  0  0  0  0  0  0  0  0  0  0
  1 11  1  0  0  0  0
  2  9  1  0  0  0  0
  3  5  1  0  0  0  0
  4  3  2  0  0  0  0
  4  2  1  0  0  0  0
  5  1  1  0  0  0  0
  6  2  2  0  0  0  0
  7  6  1  0  0  0  0
  8 10  1  0  0  0  0
  9 11  1  0  0  0  0
 10  7  2  0  0  0  0
 10  4  1  0  0  0  0
 11 30  1  0  0  0  0
 12 14  1  6  0  0  0
 12  8  1  0  0  0  0
 13 16  1  0  0  0  0
 14 15  2  0  0  0  0
 15 13  2  0  0  0  0
 16 18  1  0  0  0  0
 18 17  1  1  0  0  0
 18 19  1  0  0  0  0
 19 20  1  0  0  0  0
 19 21  1  0  0  0  0
 22 24  2  0  0  0  0
 24 23  1  0  0  0  0
 24 25  1  0  0  0  0
 24 19  1  0  0  0  0
 26 27  1  0  0  0  0
 26 12  1  0  0  0  0
 27 28  1  0  0  0  0
 29 27  2  0  0  0  0
 30 31  1  0  0  0  0
 31 36  1  0  0  0  0
 33 32  1  0  0  0  0
 34 32  2  0  0  0  0
 35 36  2  0  0  0  0
 35 37  1  0  0  0  0
 36 34  1  0  0  0  0
 37 33  1  0  0  0  0
 38 37  2  0  0  0  0
M  END
>  <MODEL>
5

>  <REMARK>
 VINA RESULT:      -7.5      3.768      6.854
  Name = 
  11 active torsions:
  status: ('A' for Active; 'I' for Inactive)
    1  A    between atoms: C_2  and  O_4
    2  A    between atoms: C_2  and  C_15
    3  A    between atoms: C_2  and  N_20
    4  A    between atoms: O_4  and  C_7
    5  A    between atoms: C_13  and  N_17
    6  A    between atoms: N_17  and  C_33
    7  A    between atoms: N_19  and  C_23
    8  A    between atoms: N_19  and  N_37
    9  A    between atoms: C_21  and  P_29
   10  A    between atoms: C_21  and  C_33
   11  A    between atoms: N_31  and  N_37
                            x       y       z     vdW  Elec       q    Type
                         _______ _______ _______ _____ _____    ______ ____

>  <TORSDO>
F 11

$$$$
=
 OpenBabel10222416243D

 38 40  0  0  1  0  0  0  0  0999 V2000
  189.4790  177.5130  139.5690 C   0  0  0  0  0  2  0  0  0  0  0  0
  189.2570  176.9080  142.4850 C   0  0  0  0  0  0  0  0  0  0  0  0
  187.6620  178.3500  141.1170 C   0  0  0  0  0  3  0  0  0  0  0  0
  188.0320  177.6620  142.2040 C   0  0  0  0  0  0  0  0  0  0  0  0
  188.5150  178.6340  139.9150 C   0  0  0  0  0  2  0  0  0  0  0  0
  189.1760  176.3830  143.6640 N   0  0  0  0  0  0  0  0  0  0  0  0
  187.9670  176.7570  144.2680 N   0  0  0  0  0  0  0  0  0  0  0  0
  185.9990  178.0110  143.7760 N   0  0  0  0  0  2  0  0  0  0  0  0
  190.3020  176.4780  141.5030 C   0  0  0  0  0  2  0  0  0  0  0  0
  187.2850  177.4790  143.4440 C   0  0  0  0  0  0  0  0  0  0  0  0
  190.5750  177.5200  140.5250 N   0  0  0  0  0  0  0  0  0  0  0  0
  185.2530  178.9230  142.9190 C   0  0  1  0  0  3  0  0  0  0  0  0
  183.3040  179.3410  139.8940 C   0  0  0  0  0  3  0  0  0  0  0  0
  184.5060  178.1480  141.8780 C   0  0  0  0  0  3  0  0  0  0  0  0
  183.9030  178.7440  140.8840 C   0  0  0  0  0  0  0  0  0  0  0  0
  183.4650  178.8520  138.5630 N   0  0  0  0  0  2  0  0  0  0  0  0
  185.6140  178.1800  137.9100 O   0  0  0  0  0  1  0  0  0  0  0  0
  184.3350  177.7230  138.2420 C   0  0  2  0  0  3  0  0  0  0  0  0
  183.7500  176.8090  137.1460 C   0  0  0  0  0  0  0  0  0  0  0  0
  184.8160  176.3940  136.1430 C   0  0  0  0  0  1  0  0  0  0  0  0
  182.6390  177.5320  136.4030 C   0  0  0  0  0  1  0  0  0  0  0  0
  182.5130  175.6500  139.4740 O   0  0  0  0  0  1  0  0  0  0  0  0
  181.8750  174.8210  137.0790 O   0  0  0  0  0  0  0  0  0  0  0  0
  183.0440  175.3090  137.9040 P   0  0  0  0  0  0  0  0  0  0  0  0
  184.2230  174.0990  137.9700 O   0  0  0  0  0  1  0  0  0  0  0  0
  184.3560  179.6990  143.7080 O   0  0  0  0  0  0  0  0  0  0  0  0
  183.4740  179.1240  144.6250 C   0  0  0  0  0  0  0  0  0  0  0  0
  182.1820  178.6790  144.2180 N   0  0  0  0  0  1  0  0  0  0  0  0
  183.8220  179.0020  145.8270 O   0  0  0  0  0  0  0  0  0  0  0  0
  191.7220  177.1220  139.8270 N   0  0  0  0  0  2  0  0  0  0  0  0
  191.3140  176.1630  138.8910 N   0  0  0  0  0  2  0  0  0  0  0  0
  192.9010  173.7960  136.4590 C   0  0  0  0  0  3  0  0  0  0  0  0
  194.0290  174.5970  135.8630 C   0  0  0  0  0  2  0  0  0  0  0  0
  192.0740  174.2880  137.3860 C   0  0  0  0  0  3  0  0  0  0  0  0
  193.1740  176.4650  137.4370 C   0  0  0  0  0  3  0  0  0  0  0  0
  192.2090  175.6670  137.8970 C   0  0  0  0  0  0  0  0  0  0  0  0
  194.1210  175.9930  136.4170 C   0  0  0  0  0  0  0  0  0  0  0  0
  195.0200  176.7660  136.0010 O   0  0  0  0  0  0  0  0  0  0  0  0
  1  5  1  0  0  0  0
  1 11  1  0  0  0  0
  2  6  2  0  0  0  0
  3  4  2  0  0  0  0
  4  2  1  0  0  0  0
  4 10  1  0  0  0  0
  5  3  1  0  0  0  0
  6  7  1  0  0  0  0
  9  2  1  0  0  0  0
 10  8  1  0  0  0  0
 10  7  2  0  0  0  0
 11  9  1  0  0  0  0
 12 14  1  6  0  0  0
 12 26  1  0  0  0  0
 12  8  1  0  0  0  0
 13 15  2  0  0  0  0
 15 14  2  0  0  0  0
 16 13  1  0  0  0  0
 18 17  1  6  0  0  0
 18 16  1  0  0  0  0
 19 24  1  0  0  0  0
 19 18  1  0  0  0  0
 20 19  1  0  0  0  0
 21 19  1  0  0  0  0
 23 24  2  0  0  0  0
 24 25  1  0  0  0  0
 24 22  1  0  0  0  0
 26 27  1  0  0  0  0
 27 29  2  0  0  0  0
 28 27  1  0  0  0  0
 30 11  1  0  0  0  0
 31 30  1  0  0  0  0
 32 34  2  0  0  0  0
 33 37  1  0  0  0  0
 33 32  1  0  0  0  0
 34 36  1  0  0  0  0
 35 36  2  0  0  0  0
 36 31  1  0  0  0  0
 37 35  1  0  0  0  0
 38 37  2  0  0  0  0
M  END
>  <MODEL>
6

>  <REMARK>
 VINA RESULT:      -7.4      4.096      7.500
  Name = 
  11 active torsions:
  status: ('A' for Active; 'I' for Inactive)
    1  A    between atoms: C_2  and  O_4
    2  A    between atoms: C_2  and  C_15
    3  A    between atoms: C_2  and  N_20
    4  A    between atoms: O_4  and  C_7
    5  A    between atoms: C_13  and  N_17
    6  A    between atoms: N_17  and  C_33
    7  A    between atoms: N_19  and  C_23
    8  A    between atoms: N_19  and  N_37
    9  A    between atoms: C_21  and  P_29
   10  A    between atoms: C_21  and  C_33
   11  A    between atoms: N_31  and  N_37
                            x       y       z     vdW  Elec       q    Type
                         _______ _______ _______ _____ _____    ______ ____

>  <TORSDO>
F 11

$$$$
=
 OpenBabel10222416243D

 38 40  0  0  1  0  0  0  0  0999 V2000
  185.3740  178.7240  143.8920 C   0  0  0  0  0  2  0  0  0  0  0  0
  187.0130  178.3060  146.3530 C   0  0  0  0  0  0  0  0  0  0  0  0
  187.5900  177.5100  144.0030 C   0  0  0  0  0  3  0  0  0  0  0  0
  187.8610  177.7630  145.2890 C   0  0  0  0  0  0  0  0  0  0  0  0
  186.2450  177.6080  143.3440 C   0  0  0  0  0  2  0  0  0  0  0  0
  187.7020  178.3990  147.4440 N   0  0  0  0  0  0  0  0  0  0  0  0
  188.9990  177.9080  147.2300 N   0  0  0  0  0  0  0  0  0  0  0  0
  190.3370  177.0100  145.4720 N   0  0  0  0  0  2  0  0  0  0  0  0
  185.6890  178.9870  146.1990 C   0  0  0  0  0  2  0  0  0  0  0  0
  189.1200  177.5520  145.9960 C   0  0  0  0  0  0  0  0  0  0  0  0
  184.8650  178.3290  145.1970 N   0  0  0  0  0  0  0  0  0  0  0  0
  190.4760  176.4900  144.1180 C   0  0  1  0  0  3  0  0  0  0  0  0
  190.8450  177.2160  140.5880 C   0  0  0  0  0  3  0  0  0  0  0  0
  190.4240  177.6150  143.1310 C   0  0  0  0  0  3  0  0  0  0  0  0
  190.6350  177.4170  141.8580 C   0  0  0  0  0  0  0  0  0  0  0  0
  189.9660  177.7880  139.6210 N   0  0  0  0  0  2  0  0  0  0  0  0
  189.9370  175.8140  138.3550 O   0  0  0  0  0  1  0  0  0  0  0  0
  189.2220  176.9760  138.6600 C   0  0  2  0  0  3  0  0  0  0  0  0
  188.8310  177.7580  137.3900 C   0  0  0  0  0  0  0  0  0  0  0  0
  189.5680  177.2350  136.1670 C   0  0  0  0  0  1  0  0  0  0  0  0
  189.1610  179.2310  137.5630 C   0  0  0  0  0  1  0  0  0  0  0  0
  186.1910  178.5760  138.2020 O   0  0  0  0  0  1  0  0  0  0  0  0
  186.7070  178.0540  135.6940 O   0  0  0  0  0  0  0  0  0  0  0  0
  187.0370  177.6100  137.1000 P   0  0  0  0  0  0  0  0  0  0  0  0
  186.5630  175.9990  137.3000 O   0  0  0  0  0  1  0  0  0  0  0  0
  191.7030  175.7750  144.0010 O   0  0  0  0  0  0  0  0  0  0  0  0
  192.1570  174.9010  144.9890 C   0  0  0  0  0  0  0  0  0  0  0  0
  192.2990  175.3320  146.3410 N   0  0  0  0  0  1  0  0  0  0  0  0
  192.4530  173.7170  144.6830 O   0  0  0  0  0  0  0  0  0  0  0  0
  183.5810  178.8770  145.3130 N   0  0  0  0  0  2  0  0  0  0  0  0
  183.2550  179.4110  144.0590 N   0  0  0  0  0  2  0  0  0  0  0  0
  179.7370  178.3010  143.4050 C   0  0  0  0  0  3  0  0  0  0  0  0
  179.7070  178.0630  141.9180 C   0  0  0  0  0  2  0  0  0  0  0  0
  180.8310  178.7160  144.0510 C   0  0  0  0  0  3  0  0  0  0  0  0
  182.1870  178.7960  142.0230 C   0  0  0  0  0  3  0  0  0  0  0  0
  182.1010  178.9740  143.3430 C   0  0  0  0  0  0  0  0  0  0  0  0
  181.0240  178.3420  141.2470 C   0  0  0  0  0  0  0  0  0  0  0  0
  181.1320  178.1830  140.0050 O   0  0  0  0  0  0  0  0  0  0  0  0
  1 11  1  0  0  0  0
  2  6  2  0  0  0  0
  3  4  2  0  0  0  0
  4 10  1  0  0  0  0
  4  2  1  0  0  0  0
  5  1  1  0  0  0  0
  5  3  1  0  0  0  0
  7  6  1  0  0  0  0
  8 10  1  0  0  0  0
  9  2  1  0  0  0  0
 10  7  2  0  0  0  0
 11 30  1  0  0  0  0
 11  9  1  0  0  0  0
 12 14  1  6  0  0  0
 12  8  1  0  0  0  0
 13 15  2  0  0  0  0
 15 14  2  0  0  0  0
 16 13  1  0  0  0  0
 18 17  1  6  0  0  0
 18 16  1  0  0  0  0
 19 21  1  0  0  0  0
 19 18  1  0  0  0  0
 20 19  1  0  0  0  0
 23 24  2  0  0  0  0
 24 25  1  0  0  0  0
 24 19  1  0  0  0  0
 24 22  1  0  0  0  0
 26 12  1  0  0  0  0
 26 27  1  0  0  0  0
 27 28  1  0  0  0  0
 29 27  2  0  0  0  0
 31 30  1  0  0  0  0
 32 34  2  0  0  0  0
 33 32  1  0  0  0  0
 35 36  2  0  0  0  0
 36 34  1  0  0  0  0
 36 31  1  0  0  0  0
 37 33  1  0  0  0  0
 37 35  1  0  0  0  0
 38 37  2  0  0  0  0
M  END
>  <MODEL>
7

>  <REMARK>
 VINA RESULT:      -7.4      2.779      7.817
  Name = 
  11 active torsions:
  status: ('A' for Active; 'I' for Inactive)
    1  A    between atoms: C_2  and  O_4
    2  A    between atoms: C_2  and  C_15
    3  A    between atoms: C_2  and  N_20
    4  A    between atoms: O_4  and  C_7
    5  A    between atoms: C_13  and  N_17
    6  A    between atoms: N_17  and  C_33
    7  A    between atoms: N_19  and  C_23
    8  A    between atoms: N_19  and  N_37
    9  A    between atoms: C_21  and  P_29
   10  A    between atoms: C_21  and  C_33
   11  A    between atoms: N_31  and  N_37
                            x       y       z     vdW  Elec       q    Type
                         _______ _______ _______ _____ _____    ______ ____

>  <TORSDO>
F 11

$$$$
=
 OpenBabel10222416243D

 38 40  0  0  1  0  0  0  0  0999 V2000
  185.1930  178.4640  143.3100 C   0  0  0  0  0  2  0  0  0  0  0  0
  182.2460  178.8420  143.6190 C   0  0  0  0  0  0  0  0  0  0  0  0
  183.5310  178.7340  141.4220 C   0  0  0  0  0  3  0  0  0  0  0  0
  182.4200  178.7340  142.1690 C   0  0  0  0  0  0  0  0  0  0  0  0
  184.9280  178.9890  141.9100 C   0  0  0  0  0  2  0  0  0  0  0  0
  180.9870  178.7760  143.9060 N   0  0  0  0  0  0  0  0  0  0  0  0
  180.2360  178.6680  142.7260 N   0  0  0  0  0  0  0  0  0  0  0  0
  180.5660  178.5140  140.3690 N   0  0  0  0  0  2  0  0  0  0  0  0
  183.3010  178.6980  144.6730 C   0  0  0  0  0  2  0  0  0  0  0  0
  181.0380  178.6250  141.7160 C   0  0  0  0  0  0  0  0  0  0  0  0
  184.5430  179.3400  144.2730 N   0  0  0  0  0  0  0  0  0  0  0  0
  181.4300  178.5800  139.1990 C   0  0  1  0  0  3  0  0  0  0  0  0
  182.5690  176.9790  136.1540 C   0  0  0  0  0  3  0  0  0  0  0  0
  181.4040  177.2720  138.4700 C   0  0  0  0  0  3  0  0  0  0  0  0
  181.9860  177.1240  137.3100 C   0  0  0  0  0  0  0  0  0  0  0  0
  183.3950  175.8420  135.9090 N   0  0  0  0  0  2  0  0  0  0  0  0
  185.3030  175.7990  137.2710 O   0  0  0  0  0  1  0  0  0  0  0  0
  184.1040  175.1420  136.9780 C   0  0  2  0  0  3  0  0  0  0  0  0
  184.3290  173.6480  136.6700 C   0  0  0  0  0  0  0  0  0  0  0  0
  185.1740  172.9810  137.7440 C   0  0  0  0  0  1  0  0  0  0  0  0
  185.0340  173.4930  135.3320 C   0  0  0  0  0  1  0  0  0  0  0  0
  181.5630  173.6260  137.4700 O   0  0  0  0  0  1  0  0  0  0  0  0
  182.2760  172.7110  135.1280 O   0  0  0  0  0  0  0  0  0  0  0  0
  182.7250  172.7880  136.5690 P   0  0  0  0  0  0  0  0  0  0  0  0
  182.8820  171.2230  137.1880 O   0  0  0  0  0  1  0  0  0  0  0  0
  181.0060  179.6390  138.3460 O   0  0  0  0  0  0  0  0  0  0  0  0
  181.7090  180.8400  138.2350 C   0  0  0  0  0  0  0  0  0  0  0  0
  183.0010  180.9880  138.8180 N   0  0  0  0  0  1  0  0  0  0  0  0
  181.1920  181.8070  137.6180 O   0  0  0  0  0  0  0  0  0  0  0  0
  185.3620  179.3670  145.4100 N   0  0  0  0  0  2  0  0  0  0  0  0
  185.9750  178.1110  145.4970 N   0  0  0  0  0  2  0  0  0  0  0  0
  188.3050  178.0380  148.4290 C   0  0  0  0  0  3  0  0  0  0  0  0
  189.6040  177.5490  147.8430 C   0  0  0  0  0  2  0  0  0  0  0  0
  187.1990  178.2050  147.7000 C   0  0  0  0  0  3  0  0  0  0  0  0
  188.2660  177.4790  145.6290 C   0  0  0  0  0  3  0  0  0  0  0  0
  187.1710  177.9180  146.2510 C   0  0  0  0  0  0  0  0  0  0  0  0
  189.5200  177.2710  146.3670 C   0  0  0  0  0  0  0  0  0  0  0  0
  190.5370  176.8550  145.7560 O   0  0  0  0  0  0  0  0  0  0  0  0
  1 11  1  0  0  0  0
  2  6  2  0  0  0  0
  2  9  1  0  0  0  0
  3  5  1  0  0  0  0
  3  4  2  0  0  0  0
  4  2  1  0  0  0  0
  5  1  1  0  0  0  0
  7  6  1  0  0  0  0
  8 10  1  0  0  0  0
 10  4  1  0  0  0  0
 10  7  2  0  0  0  0
 11  9  1  0  0  0  0
 11 30  1  0  0  0  0
 12 14  1  6  0  0  0
 12  8  1  0  0  0  0
 13 15  2  0  0  0  0
 15 14  2  0  0  0  0
 16 13  1  0  0  0  0
 16 18  1  0  0  0  0
 18 17  1  6  0  0  0
 19 18  1  0  0  0  0
 19 20  1  0  0  0  0
 21 19  1  0  0  0  0
 23 24  2  0  0  0  0
 24 19  1  0  0  0  0
 24 25  1  0  0  0  0
 24 22  1  0  0  0  0
 26 12  1  0  0  0  0
 27 26  1  0  0  0  0
 27 28  1  0  0  0  0
 29 27  2  0  0  0  0
 30 31  1  0  0  0  0
 31 36  1  0  0  0  0
 33 32  1  0  0  0  0
 34 32  2  0  0  0  0
 35 36  2  0  0  0  0
 35 37  1  0  0  0  0
 36 34  1  0  0  0  0
 37 33  1  0  0  0  0
 38 37  2  0  0  0  0
M  END
>  <MODEL>
8

>  <REMARK>
 VINA RESULT:      -7.3      2.717      3.296
  Name = 
  11 active torsions:
  status: ('A' for Active; 'I' for Inactive)
    1  A    between atoms: C_2  and  O_4
    2  A    between atoms: C_2  and  C_15
    3  A    between atoms: C_2  and  N_20
    4  A    between atoms: O_4  and  C_7
    5  A    between atoms: C_13  and  N_17
    6  A    between atoms: N_17  and  C_33
    7  A    between atoms: N_19  and  C_23
    8  A    between atoms: N_19  and  N_37
    9  A    between atoms: C_21  and  P_29
   10  A    between atoms: C_21  and  C_33
   11  A    between atoms: N_31  and  N_37
                            x       y       z     vdW  Elec       q    Type
                         _______ _______ _______ _____ _____    ______ ____

>  <TORSDO>
F 11

$$$$
=
 OpenBabel10222416243D

 38 40  0  0  1  0  0  0  0  0999 V2000
  182.4980  178.6790  141.0110 C   0  0  0  0  0  2  0  0  0  0  0  0
  182.9330  178.9650  143.9510 C   0  0  0  0  0  0  0  0  0  0  0  0
  184.5380  177.8980  142.2850 C   0  0  0  0  0  3  0  0  0  0  0  0
  184.2010  178.4040  143.4770 C   0  0  0  0  0  0  0  0  0  0  0  0
  183.6100  177.6520  141.1310 C   0  0  0  0  0  2  0  0  0  0  0  0
  183.0690  179.3560  145.1760 N   0  0  0  0  0  0  0  0  0  0  0  0
  184.3660  179.0650  145.6260 N   0  0  0  0  0  0  0  0  0  0  0  0
  186.4040  178.1280  144.8180 N   0  0  0  0  0  2  0  0  0  0  0  0
  181.7560  179.3740  143.1220 C   0  0  0  0  0  2  0  0  0  0  0  0
  185.0400  178.5330  144.6640 C   0  0  0  0  0  0  0  0  0  0  0  0
  181.5080  178.4260  142.0460 N   0  0  0  0  0  0  0  0  0  0  0  0
  187.1600  177.4200  143.7940 C   0  0  1  0  0  3  0  0  0  0  0  0
  188.8080  177.5490  140.5700 C   0  0  0  0  0  3  0  0  0  0  0  0
  187.5770  178.3730  142.7160 C   0  0  0  0  0  3  0  0  0  0  0  0
  188.1940  177.9620  141.6420 C   0  0  0  0  0  0  0  0  0  0  0  0
  188.3870  178.0060  139.2850 N   0  0  0  0  0  2  0  0  0  0  0  0
  189.0550  179.4800  137.5890 O   0  0  0  0  0  1  0  0  0  0  0  0
  189.3260  178.2480  138.1920 C   0  0  2  0  0  3  0  0  0  0  0  0
  189.3580  177.1010  137.1630 C   0  0  0  0  0  0  0  0  0  0  0  0
  189.4290  177.6330  135.7400 C   0  0  0  0  0  1  0  0  0  0  0  0
  188.1100  176.2440  137.2990 C   0  0  0  0  0  1  0  0  0  0  0  0
  191.8210  176.7570  138.6170 O   0  0  0  0  0  1  0  0  0  0  0  0
  190.3600  174.6880  137.9680 O   0  0  0  0  0  1  0  0  0  0  0  0
  190.8110  176.0400  137.4640 P   0  0  0  0  0  0  0  0  0  0  0  0
  191.6720  175.8380  136.0230 O   0  0  0  0  0  0  0  0  0  0  0  0
  188.2990  176.7970  144.3810 O   0  0  0  0  0  0  0  0  0  0  0  0
  189.0470  177.4030  145.3910 C   0  0  0  0  0  0  0  0  0  0  0  0
  188.8260  177.0780  146.7620 N   0  0  0  0  0  1  0  0  0  0  0  0
  189.9250  178.2520  145.0900 O   0  0  0  0  0  0  0  0  0  0  0  0
  180.2600  178.7590  141.5010 N   0  0  0  0  0  2  0  0  0  0  0  0
  179.4500  177.6220  141.6240 N   0  0  0  0  0  2  0  0  0  0  0  0
  179.3330  174.1760  140.1600 C   0  0  0  0  0  3  0  0  0  0  0  0
  179.5400  174.4050  138.6860 C   0  0  0  0  0  2  0  0  0  0  0  0
  179.3060  175.1710  141.0510 C   0  0  0  0  0  3  0  0  0  0  0  0
  179.6680  176.8990  139.3670 C   0  0  0  0  0  3  0  0  0  0  0  0
  179.4780  176.5810  140.6490 C   0  0  0  0  0  0  0  0  0  0  0  0
  179.7090  175.8570  138.3300 C   0  0  0  0  0  0  0  0  0  0  0  0
  179.8880  176.1840  137.1300 O   0  0  0  0  0  0  0  0  0  0  0  0
  1  5  1  0  0  0  0
  1 11  1  0  0  0  0
  2  6  2  0  0  0  0
  3  4  2  0  0  0  0
  4  2  1  0  0  0  0
  4 10  1  0  0  0  0
  5  3  1  0  0  0  0
  6  7  1  0  0  0  0
  9  2  1  0  0  0  0
 10  8  1  0  0  0  0
 10  7  2  0  0  0  0
 11  9  1  0  0  0  0
 12 14  1  6  0  0  0
 12 26  1  0  0  0  0
 12  8  1  0  0  0  0
 13 15  2  0  0  0  0
 15 14  2  0  0  0  0
 16 13  1  0  0  0  0
 18 17  1  6  0  0  0
 18 16  1  0  0  0  0
 19 21  1  0  0  0  0
 19 24  1  0  0  0  0
 19 18  1  0  0  0  0
 20 19  1  0  0  0  0
 24 23  1  0  0  0  0
 24 22  1  0  0  0  0
 25 24  2  0  0  0  0
 26 27  1  0  0  0  0
 27 28  1  0  0  0  0
 29 27  2  0  0  0  0
 30 31  1  0  0  0  0
 30 11  1  0  0  0  0
 32 34  2  0  0  0  0
 33 32  1  0  0  0  0
 35 36  2  0  0  0  0
 36 34  1  0  0  0  0
 36 31  1  0  0  0  0
 37 33  1  0  0  0  0
 37 35  1  0  0  0  0
 38 37  2  0  0  0  0
M  END
>  <MODEL>
9

>  <REMARK>
 VINA RESULT:      -7.2      2.704      7.497
  Name = 
  11 active torsions:
  status: ('A' for Active; 'I' for Inactive)
    1  A    between atoms: C_2  and  O_4
    2  A    between atoms: C_2  and  C_15
    3  A    between atoms: C_2  and  N_20
    4  A    between atoms: O_4  and  C_7
    5  A    between atoms: C_13  and  N_17
    6  A    between atoms: N_17  and  C_33
    7  A    between atoms: N_19  and  C_23
    8  A    between atoms: N_19  and  N_37
    9  A    between atoms: C_21  and  P_29
   10  A    between atoms: C_21  and  C_33
   11  A    between atoms: N_31  and  N_37
                            x       y       z     vdW  Elec       q    Type
                         _______ _______ _______ _____ _____    ______ ____

>  <TORSDO>
F 11

$$$$
