=
 OpenBabel10222418553D

 43 49  0  0  1  0  0  0  0  0999 V2000
  179.6280  179.6410  136.9170 C   0  0  0  0  0  2  0  0  0  0  0  0
  180.5960  177.2710  136.9350 C   0  0  1  0  0  3  0  0  0  0  0  0
  186.0560  178.6730  139.6630 C   0  0  0  0  0  0  0  0  0  0  0  0
  188.1610  177.7570  140.5500 C   0  0  0  0  0  2  0  0  0  0  0  0
  182.2590  176.4150  135.0840 C   0  0  0  0  0  2  0  0  0  0  0  0
  186.9840  178.6280  140.5820 N   0  0  0  0  0  0  0  0  0  0  0  0
  189.4270  178.9930  137.0610 C   0  0  0  0  0  1  0  0  0  0  0  0
  187.3290  177.6750  137.7780 C   0  0  0  0  0  0  0  0  0  0  0  0
  187.5360  176.5940  136.7220 C   0  0  1  0  0  3  0  0  0  0  0  0
  182.6090  178.7630  139.4800 C   0  0  2  0  0  0  0  0  0  0  0  0
  180.6990  178.7150  136.4780 C   0  0  2  0  0  0  0  0  0  0  0  0
  182.7920  177.8980  140.5630 O   0  0  0  0  0  1  0  0  0  0  0  0
  181.8950  174.0410  135.4940 C   0  0  1  0  0  3  0  0  0  0  0  0
  185.2920  175.4540  136.5450 C   0  0  1  0  0  3  0  0  0  0  0  0
  188.8940  176.2700  136.6060 O   0  0  0  0  0  1  0  0  0  0  0  0
  184.4100  174.5160  137.2320 N   0  0  0  0  0  2  0  0  0  0  0  0
  183.7540  179.6860  139.0500 C   0  0  2  0  0  3  0  0  0  0  0  0
  182.6350  175.0270  134.5940 C   0  0  0  0  0  2  0  0  0  0  0  0
  180.9770  176.2200  135.8740 C   0  0  1  0  0  3  0  0  0  0  0  0
  184.2530  173.3610  136.3580 C   0  0  1  0  0  3  0  0  0  0  0  0
  189.1640  178.1820  139.4770 C   0  0  2  0  0  3  0  0  0  0  0  0
  184.9240  179.5180  139.9070 N   0  0  0  0  0  2  0  0  0  0  0  0
  184.9820  172.1770  136.9580 C   0  0  0  0  0  1  0  0  0  0  0  0
  184.7810  176.8160  136.6830 N   0  0  0  0  0  2  0  0  0  0  0  0
  182.6450  180.2080  139.9350 C   0  0  0  0  0  2  0  0  0  0  0  0
  182.7780  172.9930  136.1880 C   0  0  0  0  0  2  0  0  0  0  0  0
  181.7430  178.1640  137.4440 C   0  0  1  0  0  3  0  0  0  0  0  0
  181.1040  178.9670  135.1680 O   0  0  0  0  0  0  0  0  0  0  0  0
  181.1190  174.8570  136.5080 C   0  0  0  0  0  2  0  0  0  0  0  0
  180.7010  180.2140  134.9210 O   0  0  0  0  0  0  0  0  0  0  0  0
  187.3220  174.2020  136.4400 O   0  0  0  0  0  1  0  0  0  0  0  0
  188.4700  178.5880  138.1770 C   0  0  1  0  0  3  0  0  0  0  0  0
  181.4270  178.5840  138.7450 O   0  0  0  0  0  0  0  0  0  0  0  0
  184.9570  177.2340  137.9880 O   0  0  0  0  0  0  0  0  0  0  0  0
  179.4930  180.4040  135.6300 C   0  0  2  0  0  3  0  0  0  0  0  0
  190.0490  177.1440  139.2520 F   0  0  0  0  0  0  0  0  0  0  0  0
  186.7350  175.3230  137.0430 C   0  0  1  0  0  3  0  0  0  0  0  0
  186.1420  177.8430  138.4260 C   0  0  0  0  0  0  0  0  0  0  0  0
  178.9310  182.0950  137.2210 O   0  0  0  0  0  1  0  0  0  0  0  0
  179.2640  181.8940  135.8780 C   0  0  1  0  0  3  0  0  0  0  0  0
  180.4090  183.9280  135.0730 C   0  0  0  0  0  3  0  0  0  0  0  0
  180.4870  182.6930  135.5560 C   0  0  0  0  0  3  0  0  0  0  0  0
  179.1850  184.5410  134.8400 O   0  0  0  0  0  1  0  0  0  0  0  0
  2 27  1  0  0  0  0
  3 22  1  0  0  0  0
  3  6  2  0  0  0  0
  4  6  1  0  0  0  0
  5 19  1  0  0  0  0
  7 32  1  0  0  0  0
  8 32  1  0  0  0  0
  8 38  2  0  0  0  0
  9 37  1  0  0  0  0
  9  8  1  0  0  0  0
 10 25  1  0  0  0  0
 10 12  1  0  0  0  0
 11  1  1  0  0  0  0
 11  2  1  0  0  0  0
 11 27  1  0  0  0  0
 13 26  1  0  0  0  0
 13 29  1  0  0  0  0
 14 24  1  0  0  0  0
 14 37  1  0  0  0  0
 14 16  1  0  0  0  0
 15  9  1  0  0  0  0
 17 10  1  0  0  0  0
 17 22  1  0  0  0  0
 17 25  1  0  0  0  0
 18  5  1  0  0  0  0
 18 13  1  0  0  0  0
 19 29  1  0  0  0  0
 19  2  1  0  0  0  0
 20 23  1  0  0  0  0
 20 16  1  0  0  0  0
 21  4  1  0  0  0  0
 24 34  1  0  0  0  0
 26 20  1  0  0  0  0
 27 33  1  0  0  0  0
 28 11  1  0  0  0  0
 30 28  1  0  0  0  0
 30 35  1  0  0  0  0
 31 37  1  0  0  0  0
 32 21  1  0  0  0  0
 33 10  1  0  0  0  0
 34 38  1  0  0  0  0
 35 40  1  0  0  0  0
 35  1  1  0  0  0  0
 36 21  1  0  0  0  0
 38  3  1  0  0  0  0
 40 39  1  0  0  0  0
 41 42  2  0  0  0  0
 42 40  1  0  0  0  0
 43 41  1  0  0  0  0
M  END
>  <MODEL>
1

>  <REMARK>
 VINA RESULT:      -6.8      0.000      0.000
  Name = 
  2 active torsions:
  status: ('A' for Active; 'I' for Inactive)
    1  A    between atoms: C_10  and  C_24
    2  A    between atoms: C_10  and  C_40
                            x       y       z     vdW  Elec       q    Type
                         _______ _______ _______ _____ _____    ______ ____

>  <TORSDO>
F 2

$$$$
=
 OpenBabel10222418553D

 43 49  0  0  1  0  0  0  0  0999 V2000
  179.9370  179.7070  137.5720 C   0  0  0  0  0  2  0  0  0  0  0  0
  180.5070  177.2120  137.5220 C   0  0  1  0  0  3  0  0  0  0  0  0
  186.7030  177.8090  138.2100 C   0  0  0  0  0  0  0  0  0  0  0  0
  188.8300  176.5980  138.4680 C   0  0  0  0  0  2  0  0  0  0  0  0
  181.3240  175.9980  135.3350 C   0  0  0  0  0  2  0  0  0  0  0  0
  187.8660  177.6540  138.7840 N   0  0  0  0  0  0  0  0  0  0  0  0
  189.0320  177.4280  134.6520 C   0  0  0  0  0  1  0  0  0  0  0  0
  187.1240  176.5190  136.1300 C   0  0  0  0  0  0  0  0  0  0  0  0
  186.8140  175.3680  135.1780 C   0  0  1  0  0  3  0  0  0  0  0  0
  183.4400  178.4680  139.1260 C   0  0  2  0  0  0  0  0  0  0  0  0
  180.6590  178.5940  136.9110 C   0  0  2  0  0  0  0  0  0  0  0  0
  183.8460  177.6400  140.1760 O   0  0  0  0  0  1  0  0  0  0  0  0
  180.7820  173.7420  136.0790 C   0  0  1  0  0  3  0  0  0  0  0  0
  184.5000  174.6140  135.8430 C   0  0  1  0  0  3  0  0  0  0  0  0
  187.9970  174.8140  134.6690 O   0  0  0  0  0  1  0  0  0  0  0  0
  183.7700  173.8730  136.8670 N   0  0  0  0  0  2  0  0  0  0  0  0
  184.4980  179.1640  138.2620 C   0  0  2  0  0  3  0  0  0  0  0  0
  181.3150  174.5430  134.8940 C   0  0  0  0  0  2  0  0  0  0  0  0
  180.3620  176.0610  136.5070 C   0  0  1  0  0  3  0  0  0  0  0  0
  183.1700  172.7190  136.2110 C   0  0  1  0  0  3  0  0  0  0  0  0
  189.4710  176.7940  137.0940 C   0  0  2  0  0  3  0  0  0  0  0  0
  185.8490  178.8430  138.7140 N   0  0  0  0  0  2  0  0  0  0  0  0
  183.8800  171.4610  136.6650 C   0  0  0  0  0  1  0  0  0  0  0  0
  184.2630  176.0480  135.9970 N   0  0  0  0  0  2  0  0  0  0  0  0
  183.8310  179.9080  139.3970 C   0  0  0  0  0  2  0  0  0  0  0  0
  181.6860  172.5960  136.5590 C   0  0  0  0  0  2  0  0  0  0  0  0
  181.8730  177.9240  137.5450 C   0  0  1  0  0  3  0  0  0  0  0  0
  180.6390  178.7090  135.5220 O   0  0  0  0  0  0  0  0  0  0  0  0
  180.5090  174.7260  137.1990 C   0  0  0  0  0  2  0  0  0  0  0  0
  180.3590  179.9910  135.2900 O   0  0  0  0  0  0  0  0  0  0  0  0
  186.1800  173.0350  135.2250 O   0  0  0  0  0  1  0  0  0  0  0  0
  188.4520  177.2460  136.0490 C   0  0  1  0  0  3  0  0  0  0  0  0
  182.0690  178.4550  138.8290 O   0  0  0  0  0  0  0  0  0  0  0  0
  184.9190  176.4950  137.1280 O   0  0  0  0  0  0  0  0  0  0  0  0
  179.4930  180.4170  136.3250 C   0  0  2  0  0  3  0  0  0  0  0  0
  190.0740  175.6130  136.7060 F   0  0  0  0  0  0  0  0  0  0  0  0
  185.9910  174.2670  135.8650 C   0  0  1  0  0  3  0  0  0  0  0  0
  186.2560  176.9160  137.1010 C   0  0  0  0  0  0  0  0  0  0  0  0
  179.7270  182.2560  137.8310 O   0  0  0  0  0  1  0  0  0  0  0  0
  179.5750  181.9350  136.4790 C   0  0  1  0  0  3  0  0  0  0  0  0
  180.7640  183.7720  135.3360 C   0  0  0  0  0  3  0  0  0  0  0  0
  180.7290  182.4990  135.7130 C   0  0  0  0  0  3  0  0  0  0  0  0
  179.7270  184.6470  135.6340 O   0  0  0  0  0  1  0  0  0  0  0  0
  2 27  1  0  0  0  0
  3 22  1  0  0  0  0
  3  6  2  0  0  0  0
  4  6  1  0  0  0  0
  5 19  1  0  0  0  0
  7 32  1  0  0  0  0
  8 38  2  0  0  0  0
  9 37  1  0  0  0  0
  9  8  1  0  0  0  0
 10 25  1  0  0  0  0
 10 12  1  0  0  0  0
 11  2  1  0  0  0  0
 11 27  1  0  0  0  0
 11  1  1  0  0  0  0
 13 26  1  0  0  0  0
 13 29  1  0  0  0  0
 14 37  1  0  0  0  0
 14 24  1  0  0  0  0
 14 16  1  0  0  0  0
 15  9  1  0  0  0  0
 17 22  1  0  0  0  0
 17 10  1  0  0  0  0
 17 25  1  0  0  0  0
 18  5  1  0  0  0  0
 18 13  1  0  0  0  0
 19 29  1  0  0  0  0
 19  2  1  0  0  0  0
 20 26  1  0  0  0  0
 20 23  1  0  0  0  0
 20 16  1  0  0  0  0
 21  4  1  0  0  0  0
 24 34  1  0  0  0  0
 27 33  1  0  0  0  0
 28 11  1  0  0  0  0
 30 28  1  0  0  0  0
 30 35  1  0  0  0  0
 31 37  1  0  0  0  0
 32  8  1  0  0  0  0
 32 21  1  0  0  0  0
 33 10  1  0  0  0  0
 35 40  1  0  0  0  0
 35  1  1  0  0  0  0
 36 21  1  0  0  0  0
 38 34  1  0  0  0  0
 38  3  1  0  0  0  0
 40 39  1  0  0  0  0
 41 43  1  0  0  0  0
 41 42  2  0  0  0  0
 42 40  1  0  0  0  0
M  END
>  <MODEL>
2

>  <REMARK>
 VINA RESULT:      -6.3      1.336      1.534
  Name = 
  2 active torsions:
  status: ('A' for Active; 'I' for Inactive)
    1  A    between atoms: C_10  and  C_24
    2  A    between atoms: C_10  and  C_40
                            x       y       z     vdW  Elec       q    Type
                         _______ _______ _______ _____ _____    ______ ____

>  <TORSDO>
F 2

$$$$
=
 OpenBabel10222418553D

 43 49  0  0  1  0  0  0  0  0999 V2000
  187.0460  178.7080  143.5320 C   0  0  0  0  0  2  0  0  0  0  0  0
  187.9670  178.7720  141.1440 C   0  0  1  0  0  3  0  0  0  0  0  0
  182.6730  177.1520  138.2170 C   0  0  0  0  0  0  0  0  0  0  0  0
  181.6080  176.7930  136.0280 C   0  0  0  0  0  2  0  0  0  0  0  0
  188.7870  176.6070  139.8920 C   0  0  0  0  0  2  0  0  0  0  0  0
  181.6610  177.2940  137.4030 N   0  0  0  0  0  0  0  0  0  0  0  0
  182.3900  173.0780  136.9690 C   0  0  0  0  0  1  0  0  0  0  0  0
  183.7970  175.2350  137.1070 C   0  0  0  0  0  0  0  0  0  0  0  0
  184.9950  174.6060  136.4030 C   0  0  1  0  0  3  0  0  0  0  0  0
  184.4760  179.0690  140.4510 C   0  0  2  0  0  0  0  0  0  0  0  0
  187.3320  177.9800  142.2730 C   0  0  2  0  0  0  0  0  0  0  0  0
  184.2310  180.0040  139.4410 O   0  0  0  0  0  1  0  0  0  0  0  0
  190.1410  177.7710  138.2340 C   0  0  1  0  0  3  0  0  0  0  0  0
  186.9230  176.1320  136.9670 C   0  0  1  0  0  3  0  0  0  0  0  0
  184.5750  173.7860  135.3470 O   0  0  0  0  0  1  0  0  0  0  0  0
  187.5070  177.4320  136.6480 N   0  0  0  0  0  2  0  0  0  0  0  0
  183.6100  177.8080  140.5390 C   0  0  2  0  0  3  0  0  0  0  0  0
  189.7340  176.3840  138.7250 C   0  0  0  0  0  2  0  0  0  0  0  0
  189.0630  178.0260  140.3570 C   0  0  1  0  0  3  0  0  0  0  0  0
  188.8200  177.1790  136.0720 C   0  0  1  0  0  3  0  0  0  0  0  0
  181.5110  175.2690  135.9730 C   0  0  2  0  0  3  0  0  0  0  0  0
  182.5880  177.7920  139.4960 N   0  0  0  0  0  2  0  0  0  0  0  0
  188.7900  177.5080  134.5940 C   0  0  0  0  0  1  0  0  0  0  0  0
  186.2790  176.1800  138.2780 N   0  0  0  0  0  2  0  0  0  0  0  0
  183.3090  179.0030  141.4160 C   0  0  0  0  0  2  0  0  0  0  0  0
  189.8920  178.0400  136.7420 C   0  0  0  0  0  2  0  0  0  0  0  0
  186.5360  178.2230  140.9950 C   0  0  1  0  0  3  0  0  0  0  0  0
  187.7890  176.6840  142.5100 O   0  0  0  0  0  0  0  0  0  0  0  0
  189.4160  178.7820  139.0980 C   0  0  0  0  0  2  0  0  0  0  0  0
  187.3980  176.4070  143.7540 O   0  0  0  0  0  0  0  0  0  0  0  0
  186.7130  175.1640  134.7940 O   0  0  0  0  0  1  0  0  0  0  0  0
  182.4240  174.6020  137.0010 C   0  0  1  0  0  3  0  0  0  0  0  0
  185.6370  179.2790  141.2120 O   0  0  0  0  0  0  0  0  0  0  0  0
  185.1310  176.9410  138.1890 O   0  0  0  0  0  0  0  0  0  0  0  0
  187.4550  177.6190  144.4820 C   0  0  2  0  0  3  0  0  0  0  0  0
  181.8250  174.8440  134.6950 F   0  0  0  0  0  0  0  0  0  0  0  0
  185.9640  175.6710  135.8660 C   0  0  1  0  0  3  0  0  0  0  0  0
  183.8940  176.3930  137.8180 C   0  0  0  0  0  0  0  0  0  0  0  0
  187.2600  177.1820  146.8220 O   0  0  0  0  0  1  0  0  0  0  0  0
  186.5230  177.5430  145.6900 C   0  0  1  0  0  3  0  0  0  0  0  0
  184.6280  179.1140  145.5010 C   0  0  0  0  0  3  0  0  0  0  0  0
  185.8540  178.8570  145.9440 C   0  0  0  0  0  3  0  0  0  0  0  0
  183.9050  178.1760  144.7770 O   0  0  0  0  0  1  0  0  0  0  0  0
  1 35  1  0  0  0  0
  2 11  1  0  0  0  0
  3 22  1  0  0  0  0
  4  6  1  0  0  0  0
  5 19  1  0  0  0  0
  6  3  2  0  0  0  0
  7 32  1  0  0  0  0
  8 38  2  0  0  0  0
  9  8  1  0  0  0  0
 10 17  1  0  0  0  0
 10 33  1  0  0  0  0
 10 25  1  0  0  0  0
 11 28  1  0  0  0  0
 11  1  1  0  0  0  0
 12 10  1  0  0  0  0
 13 18  1  0  0  0  0
 13 29  1  0  0  0  0
 14 24  1  0  0  0  0
 15  9  1  0  0  0  0
 16 14  1  0  0  0  0
 17 25  1  0  0  0  0
 18  5  1  0  0  0  0
 19  2  1  0  0  0  0
 20 16  1  0  0  0  0
 20 26  1  0  0  0  0
 21  4  1  0  0  0  0
 21 32  1  0  0  0  0
 22 17  1  0  0  0  0
 23 20  1  0  0  0  0
 26 13  1  0  0  0  0
 27  2  1  0  0  0  0
 27 33  1  0  0  0  0
 27 11  1  0  0  0  0
 28 30  1  0  0  0  0
 29 19  1  0  0  0  0
 30 35  1  0  0  0  0
 31 37  1  0  0  0  0
 32  8  1  0  0  0  0
 34 24  1  0  0  0  0
 35 40  1  0  0  0  0
 36 21  1  0  0  0  0
 37  9  1  0  0  0  0
 37 14  1  0  0  0  0
 38 34  1  0  0  0  0
 38  3  1  0  0  0  0
 40 42  1  0  0  0  0
 40 39  1  0  0  0  0
 41 42  2  0  0  0  0
 43 41  1  0  0  0  0
M  END
>  <MODEL>
3

>  <REMARK>
 VINA RESULT:      -6.2      3.512      7.839
  Name = 
  2 active torsions:
  status: ('A' for Active; 'I' for Inactive)
    1  A    between atoms: C_10  and  C_24
    2  A    between atoms: C_10  and  C_40
                            x       y       z     vdW  Elec       q    Type
                         _______ _______ _______ _____ _____    ______ ____

>  <TORSDO>
F 2

$$$$
=
 OpenBabel10222418553D

 43 49  0  0  1  0  0  0  0  0999 V2000
  189.1070  174.1780  135.5480 C   0  0  0  0  0  2  0  0  0  0  0  0
  186.6060  173.8290  135.1280 C   0  0  1  0  0  3  0  0  0  0  0  0
  184.5690  178.8120  138.3280 C   0  0  0  0  0  0  0  0  0  0  0  0
  182.5900  180.1290  138.9640 C   0  0  0  0  0  2  0  0  0  0  0  0
  185.0380  172.6360  136.8730 C   0  0  0  0  0  2  0  0  0  0  0  0
  183.9710  179.9600  138.5060 N   0  0  0  0  0  0  0  0  0  0  0  0
  183.0390  178.0350  142.2370 C   0  0  0  0  0  1  0  0  0  0  0  0
  183.1060  177.3880  139.7410 C   0  0  0  0  0  0  0  0  0  0  0  0
  182.1410  176.2210  139.9250 C   0  0  1  0  0  3  0  0  0  0  0  0
  186.5950  177.2970  135.9780 C   0  0  2  0  0  0  0  0  0  0  0  0
  187.7580  173.9370  136.1110 C   0  0  2  0  0  0  0  0  0  0  0  0
  185.7340  178.0260  135.1520 O   0  0  0  0  0  1  0  0  0  0  0  0
  183.2690  172.0870  135.2900 C   0  0  1  0  0  3  0  0  0  0  0  0
  182.4750  174.8040  137.8640 C   0  0  1  0  0  3  0  0  0  0  0  0
  181.1120  176.5640  140.8120 O   0  0  0  0  0  1  0  0  0  0  0  0
  182.1700  174.7410  136.4380 N   0  0  0  0  0  2  0  0  0  0  0  0
  186.7290  177.6820  137.4550 C   0  0  2  0  0  3  0  0  0  0  0  0
  183.7010  171.9250  136.7450 C   0  0  0  0  0  2  0  0  0  0  0  0
  185.5680  172.7370  135.4540 C   0  0  1  0  0  3  0  0  0  0  0  0
  181.3420  173.5600  136.2310 C   0  0  1  0  0  3  0  0  0  0  0  0
  182.4190  179.7460  140.4340 C   0  0  2  0  0  3  0  0  0  0  0  0
  185.8940  178.8350  137.7820 N   0  0  0  0  0  2  0  0  0  0  0  0
  179.9300  173.9930  135.8960 C   0  0  0  0  0  1  0  0  0  0  0  0
  183.8800  175.1500  138.0620 N   0  0  0  0  0  2  0  0  0  0  0  0
  187.7480  178.1630  136.4470 C   0  0  0  0  0  2  0  0  0  0  0  0
  181.8770  172.7050  135.0820 C   0  0  0  0  0  2  0  0  0  0  0  0
  186.6750  175.0110  136.1130 C   0  0  1  0  0  3  0  0  0  0  0  0
  187.7910  173.0550  137.1910 O   0  0  0  0  0  0  0  0  0  0  0  0
  184.3380  172.9040  134.5940 C   0  0  0  0  0  2  0  0  0  0  0  0
  189.0560  173.0770  137.6100 O   0  0  0  0  0  0  0  0  0  0  0  0
  180.3010  175.1320  138.7950 O   0  0  0  0  0  1  0  0  0  0  0  0
  183.1990  178.4800  140.7880 C   0  0  1  0  0  3  0  0  0  0  0  0
  187.1460  176.1350  135.4170 O   0  0  0  0  0  0  0  0  0  0  0  0
  184.0720  176.4740  137.7180 O   0  0  0  0  0  0  0  0  0  0  0  0
  189.8650  173.2610  136.4640 C   0  0  2  0  0  3  0  0  0  0  0  0
  181.0730  179.5790  140.7020 F   0  0  0  0  0  0  0  0  0  0  0  0
  181.5320  175.7700  138.5890 C   0  0  1  0  0  3  0  0  0  0  0  0
  183.8870  177.5210  138.6340 C   0  0  0  0  0  0  0  0  0  0  0  0
  192.2180  173.3280  136.0540 O   0  0  0  0  0  1  0  0  0  0  0  0
  191.2130  173.8560  136.8700 C   0  0  1  0  0  3  0  0  0  0  0  0
  191.0590  176.1410  137.7930 C   0  0  0  0  0  3  0  0  0  0  0  0
  191.2120  175.3460  136.7390 C   0  0  0  0  0  3  0  0  0  0  0  0
  190.8900  175.6280  139.0720 O   0  0  0  0  0  1  0  0  0  0  0  0
  1 11  1  0  0  0  0
  1 35  1  0  0  0  0
  2 19  1  0  0  0  0
  2 11  1  0  0  0  0
  2 27  1  0  0  0  0
  3  6  2  0  0  0  0
  3 38  1  0  0  0  0
  4 21  1  0  0  0  0
  6  4  1  0  0  0  0
  8  9  1  0  0  0  0
  8 32  1  0  0  0  0
  9 15  1  0  0  0  0
 10 25  1  0  0  0  0
 10 17  1  0  0  0  0
 11 27  1  0  0  0  0
 11 28  1  0  0  0  0
 12 10  1  0  0  0  0
 13 18  1  0  0  0  0
 14 24  1  0  0  0  0
 14 37  1  0  0  0  0
 16 14  1  0  0  0  0
 17 22  1  0  0  0  0
 18  5  1  0  0  0  0
 19  5  1  0  0  0  0
 20 16  1  0  0  0  0
 21 36  1  0  0  0  0
 21 32  1  0  0  0  0
 22  3  1  0  0  0  0
 23 20  1  0  0  0  0
 25 17  1  0  0  0  0
 26 13  1  0  0  0  0
 26 20  1  0  0  0  0
 28 30  1  0  0  0  0
 29 13  1  0  0  0  0
 29 19  1  0  0  0  0
 32  7  1  0  0  0  0
 33 10  1  0  0  0  0
 33 27  1  0  0  0  0
 34 24  1  0  0  0  0
 34 38  1  0  0  0  0
 35 40  1  0  0  0  0
 35 30  1  0  0  0  0
 37 31  1  0  0  0  0
 37  9  1  0  0  0  0
 38  8  2  0  0  0  0
 39 40  1  0  0  0  0
 41 43  1  0  0  0  0
 42 40  1  0  0  0  0
 42 41  2  0  0  0  0
M  END
>  <MODEL>
4

>  <REMARK>
 VINA RESULT:      -5.9      3.498      7.737
  Name = 
  2 active torsions:
  status: ('A' for Active; 'I' for Inactive)
    1  A    between atoms: C_10  and  C_24
    2  A    between atoms: C_10  and  C_40
                            x       y       z     vdW  Elec       q    Type
                         _______ _______ _______ _____ _____    ______ ____

>  <TORSDO>
F 2

$$$$
=
 OpenBabel10222418553D

 43 49  0  0  1  0  0  0  0  0999 V2000
  187.9460  178.2900  143.7630 C   0  0  0  0  0  2  0  0  0  0  0  0
  188.2500  178.6960  141.2540 C   0  0  1  0  0  3  0  0  0  0  0  0
  182.3510  177.4710  139.5410 C   0  0  0  0  0  0  0  0  0  0  0  0
  180.7680  177.4180  137.6580 C   0  0  0  0  0  2  0  0  0  0  0  0
  188.6710  176.7350  139.5500 C   0  0  0  0  0  2  0  0  0  0  0  0
  181.1740  177.7200  139.0320 N   0  0  0  0  0  0  0  0  0  0  0  0
  181.6510  173.6130  137.8520 C   0  0  0  0  0  1  0  0  0  0  0  0
  183.1100  175.7380  137.9320 C   0  0  0  0  0  0  0  0  0  0  0  0
  184.0780  175.2220  136.8720 C   0  0  1  0  0  3  0  0  0  0  0  0
  184.7060  179.0650  141.5000 C   0  0  2  0  0  0  0  0  0  0  0  0
  187.8900  177.7490  142.3850 C   0  0  2  0  0  0  0  0  0  0  0  0
  184.2460  180.1320  140.7220 O   0  0  0  0  0  1  0  0  0  0  0  0
  189.6060  178.1300  137.7850 C   0  0  1  0  0  3  0  0  0  0  0  0
  186.1290  176.6660  137.1440 C   0  0  1  0  0  3  0  0  0  0  0  0
  183.3860  174.5560  135.8510 O   0  0  0  0  0  1  0  0  0  0  0  0
  186.6530  178.0000  136.8730 N   0  0  0  0  0  2  0  0  0  0  0  0
  183.8520  177.7990  141.6250 C   0  0  2  0  0  3  0  0  0  0  0  0
  189.2930  176.6840  138.1650 C   0  0  0  0  0  2  0  0  0  0  0  0
  189.0940  178.0760  140.1230 C   0  0  1  0  0  3  0  0  0  0  0  0
  187.7750  177.8400  135.9590 C   0  0  1  0  0  3  0  0  0  0  0  0
  180.6160  175.9160  137.4190 C   0  0  2  0  0  3  0  0  0  0  0  0
  182.6040  177.9230  140.8770 N   0  0  0  0  0  2  0  0  0  0  0  0
  187.3900  178.3740  134.5950 C   0  0  0  0  0  1  0  0  0  0  0  0
  185.8310  176.5230  138.5680 N   0  0  0  0  0  2  0  0  0  0  0  0
  183.8120  178.8560  142.7060 C   0  0  0  0  0  2  0  0  0  0  0  0
  189.0040  178.6050  136.4530 C   0  0  0  0  0  2  0  0  0  0  0  0
  186.8110  178.1650  141.3920 C   0  0  1  0  0  3  0  0  0  0  0  0
  188.3540  176.4350  142.3190 O   0  0  0  0  0  0  0  0  0  0  0  0
  189.1470  179.0040  138.9330 C   0  0  0  0  0  2  0  0  0  0  0  0
  188.2750  175.9830  143.5700 O   0  0  0  0  0  0  0  0  0  0  0  0
  185.3600  176.0120  134.9800 O   0  0  0  0  0  1  0  0  0  0  0  0
  181.7360  175.1160  138.0850 C   0  0  1  0  0  3  0  0  0  0  0  0
  186.0240  179.1730  141.9690 O   0  0  0  0  0  0  0  0  0  0  0  0
  184.7180  177.2820  138.8740 O   0  0  0  0  0  0  0  0  0  0  0  0
  188.5460  177.0800  144.4210 C   0  0  2  0  0  3  0  0  0  0  0  0
  180.5920  175.6770  136.0570 F   0  0  0  0  0  0  0  0  0  0  0  0
  184.9150  176.3580  136.2640 C   0  0  1  0  0  3  0  0  0  0  0  0
  183.4140  176.7830  138.7500 C   0  0  0  0  0  0  0  0  0  0  0  0
  188.9590  176.8080  146.7580 O   0  0  0  0  0  1  0  0  0  0  0  0
  187.9400  176.8290  145.8010 C   0  0  1  0  0  3  0  0  0  0  0  0
  186.8050  178.3130  147.4160 C   0  0  0  0  0  3  0  0  0  0  0  0
  186.9530  177.8930  146.1640 C   0  0  0  0  0  3  0  0  0  0  0  0
  187.5590  177.7830  148.4540 O   0  0  0  0  0  1  0  0  0  0  0  0
  1 35  1  0  0  0  0
  2 27  1  0  0  0  0
  2 11  1  0  0  0  0
  3 22  1  0  0  0  0
  4  6  1  0  0  0  0
  5 19  1  0  0  0  0
  6  3  2  0  0  0  0
  7 32  1  0  0  0  0
  8 32  1  0  0  0  0
  8 38  2  0  0  0  0
  9  8  1  0  0  0  0
 10 17  1  0  0  0  0
 10 33  1  0  0  0  0
 10 25  1  0  0  0  0
 11  1  1  0  0  0  0
 12 10  1  0  0  0  0
 13 18  1  0  0  0  0
 13 29  1  0  0  0  0
 14 24  1  0  0  0  0
 15  9  1  0  0  0  0
 16 14  1  0  0  0  0
 17 25  1  0  0  0  0
 18  5  1  0  0  0  0
 19  2  1  0  0  0  0
 20 26  1  0  0  0  0
 20 16  1  0  0  0  0
 21  4  1  0  0  0  0
 21 32  1  0  0  0  0
 22 17  1  0  0  0  0
 23 20  1  0  0  0  0
 24 34  1  0  0  0  0
 26 13  1  0  0  0  0
 27 33  1  0  0  0  0
 27 11  1  0  0  0  0
 28 11  1  0  0  0  0
 28 30  1  0  0  0  0
 29 19  1  0  0  0  0
 30 35  1  0  0  0  0
 31 37  1  0  0  0  0
 35 40  1  0  0  0  0
 36 21  1  0  0  0  0
 37  9  1  0  0  0  0
 37 14  1  0  0  0  0
 38 34  1  0  0  0  0
 38  3  1  0  0  0  0
 40 42  1  0  0  0  0
 40 39  1  0  0  0  0
 41 43  1  0  0  0  0
 42 41  2  0  0  0  0
M  END
>  <MODEL>
5

>  <REMARK>
 VINA RESULT:      -5.1      3.844      8.423
  Name = 
  2 active torsions:
  status: ('A' for Active; 'I' for Inactive)
    1  A    between atoms: C_10  and  C_24
    2  A    between atoms: C_10  and  C_40
                            x       y       z     vdW  Elec       q    Type
                         _______ _______ _______ _____ _____    ______ ____

>  <TORSDO>
F 2

$$$$
=
 OpenBabel10222418553D

 43 49  0  0  1  0  0  0  0  0999 V2000
  185.8340  179.5190  142.9280 C   0  0  0  0  0  2  0  0  0  0  0  0
  187.0670  179.3020  140.6940 C   0  0  1  0  0  3  0  0  0  0  0  0
  182.5820  176.1920  137.6220 C   0  0  0  0  0  0  0  0  0  0  0  0
  181.9150  175.2320  135.4570 C   0  0  0  0  0  2  0  0  0  0  0  0
  188.3980  177.1320  140.0260 C   0  0  0  0  0  2  0  0  0  0  0  0
  181.6880  175.9850  136.6920 N   0  0  0  0  0  0  0  0  0  0  0  0
  183.1440  171.9770  137.2430 C   0  0  0  0  0  1  0  0  0  0  0  0
  184.1490  174.3460  137.0720 C   0  0  0  0  0  0  0  0  0  0  0  0
  185.5220  173.8310  136.6510 C   0  0  1  0  0  3  0  0  0  0  0  0
  183.7100  178.8020  139.5810 C   0  0  2  0  0  0  0  0  0  0  0  0
  186.4120  178.6330  141.8900 C   0  0  2  0  0  0  0  0  0  0  0  0
  183.4650  179.4660  138.3760 O   0  0  0  0  0  1  0  0  0  0  0  0
  189.7690  178.1940  138.3150 C   0  0  1  0  0  3  0  0  0  0  0  0
  187.0760  175.7710  137.0840 C   0  0  1  0  0  3  0  0  0  0  0  0
  185.3960  172.7620  135.7530 O   0  0  0  0  0  1  0  0  0  0  0  0
  187.4810  177.0720  136.5610 N   0  0  0  0  0  2  0  0  0  0  0  0
  183.0560  177.4410  139.8400 C   0  0  2  0  0  3  0  0  0  0  0  0
  189.5260  176.8730  139.0410 C   0  0  0  0  0  2  0  0  0  0  0  0
  188.3700  178.6390  140.2060 C   0  0  1  0  0  3  0  0  0  0  0  0
  188.8870  176.9660  136.1970 C   0  0  1  0  0  3  0  0  0  0  0  0
  182.0750  173.7340  135.7160 C   0  0  2  0  0  3  0  0  0  0  0  0
  182.2110  177.0350  138.7210 N   0  0  0  0  0  2  0  0  0  0  0  0
  189.0170  176.9970  134.6890 C   0  0  0  0  0  1  0  0  0  0  0  0
  186.2510  175.9440  138.2770 N   0  0  0  0  0  2  0  0  0  0  0  0
  182.4420  178.7010  140.4060 C   0  0  0  0  0  2  0  0  0  0  0  0
  189.6980  178.1240  136.7810 C   0  0  0  0  0  2  0  0  0  0  0  0
  185.7800  178.4760  140.5120 C   0  0  1  0  0  3  0  0  0  0  0  0
  187.0340  177.5140  142.4440 O   0  0  0  0  0  0  0  0  0  0  0  0
  188.7740  179.1960  138.8610 C   0  0  0  0  0  2  0  0  0  0  0  0
  186.5180  177.4100  143.6690 O   0  0  0  0  0  0  0  0  0  0  0  0
  187.3400  174.3870  135.1560 O   0  0  0  0  0  1  0  0  0  0  0  0
  182.9260  173.4580  136.9550 C   0  0  1  0  0  3  0  0  0  0  0  0
  184.7000  179.3660  140.4010 O   0  0  0  0  0  0  0  0  0  0  0  0
  185.0190  176.4450  137.9060 O   0  0  0  0  0  0  0  0  0  0  0  0
  186.2740  178.7260  144.1260 C   0  0  2  0  0  3  0  0  0  0  0  0
  182.6340  173.1420  134.5990 F   0  0  0  0  0  0  0  0  0  0  0  0
  186.3730  174.9370  136.0080 C   0  0  1  0  0  3  0  0  0  0  0  0
  183.9540  175.6140  137.5280 C   0  0  0  0  0  0  0  0  0  0  0  0
  184.0000  178.2410  144.6740 O   0  0  0  0  0  1  0  0  0  0  0  0
  185.2020  178.7080  145.2140 C   0  0  1  0  0  3  0  0  0  0  0  0
  186.1920  178.3080  147.4410 C   0  0  0  0  0  3  0  0  0  0  0  0
  185.5990  177.8250  146.3540 C   0  0  0  0  0  3  0  0  0  0  0  0
  186.4760  179.6610  147.5730 O   0  0  0  0  0  1  0  0  0  0  0  0
  1 35  1  0  0  0  0
  2 11  1  0  0  0  0
  3 22  1  0  0  0  0
  4 21  1  0  0  0  0
  4  6  1  0  0  0  0
  5 19  1  0  0  0  0
  6  3  2  0  0  0  0
  8 38  2  0  0  0  0
  9  8  1  0  0  0  0
 10 17  1  0  0  0  0
 10 33  1  0  0  0  0
 10 25  1  0  0  0  0
 11 28  1  0  0  0  0
 11  1  1  0  0  0  0
 12 10  1  0  0  0  0
 13 29  1  0  0  0  0
 13 18  1  0  0  0  0
 14 24  1  0  0  0  0
 15  9  1  0  0  0  0
 16 14  1  0  0  0  0
 17 25  1  0  0  0  0
 18  5  1  0  0  0  0
 19  2  1  0  0  0  0
 20 16  1  0  0  0  0
 20 26  1  0  0  0  0
 21 32  1  0  0  0  0
 22 17  1  0  0  0  0
 23 20  1  0  0  0  0
 26 13  1  0  0  0  0
 27  2  1  0  0  0  0
 27 11  1  0  0  0  0
 28 30  1  0  0  0  0
 29 19  1  0  0  0  0
 30 35  1  0  0  0  0
 31 37  1  0  0  0  0
 32  8  1  0  0  0  0
 32  7  1  0  0  0  0
 33 27  1  0  0  0  0
 34 24  1  0  0  0  0
 35 40  1  0  0  0  0
 36 21  1  0  0  0  0
 37  9  1  0  0  0  0
 37 14  1  0  0  0  0
 38  3  1  0  0  0  0
 38 34  1  0  0  0  0
 39 40  1  0  0  0  0
 40 42  1  0  0  0  0
 41 43  1  0  0  0  0
 42 41  2  0  0  0  0
M  END
>  <MODEL>
6

>  <REMARK>
 VINA RESULT:      -4.5      3.488      7.706
  Name = 
  2 active torsions:
  status: ('A' for Active; 'I' for Inactive)
    1  A    between atoms: C_10  and  C_24
    2  A    between atoms: C_10  and  C_40
                            x       y       z     vdW  Elec       q    Type
                         _______ _______ _______ _____ _____    ______ ____

>  <TORSDO>
F 2

$$$$
