=
 OpenBabel10222417163D

 56 61  0  0  1  0  0  0  0  0999 V2000
  192.2830  178.1260  142.7420 O   0  0  0  0  0  1  0  0  0  0  0  0
  192.8590  175.9560  135.9460 C   0  0  0  0  0  3  0  0  0  0  0  0
  190.3290  175.6590  139.2680 O   0  0  0  0  0  0  0  0  0  0  0  0
  189.9020  177.8930  143.0000 C   0  0  1  0  0  3  0  0  0  0  0  0
  188.5980  178.3770  142.3680 C   0  0  0  0  0  2  0  0  0  0  0  0
  188.9620  177.5710  140.0280 C   0  0  1  0  0  3  0  0  0  0  0  0
  191.0790  178.0960  142.0380 C   0  0  2  0  0  3  0  0  0  0  0  0
  190.8000  176.6490  137.0550 C   0  0  0  0  0  0  0  0  0  0  0  0
  188.1980  177.1420  138.8720 N   0  0  0  0  0  2  0  0  0  0  0  0
  193.1510  175.0680  136.9850 C   0  0  0  0  0  0  0  0  0  0  0  0
  188.4490  177.6690  137.5710 C   0  0  0  0  0  0  0  0  0  0  0  0
  189.5640  177.4500  136.8580 C   0  0  0  0  0  3  0  0  0  0  0  0
  191.1100  175.7700  138.1260 C   0  0  0  0  0  0  0  0  0  0  0  0
  188.1070  177.4310  141.2780 C   0  0  0  0  0  2  0  0  0  0  0  0
  191.1410  176.9810  141.0400 C   0  0  0  0  0  3  0  0  0  0  0  0
  191.6960  176.7260  135.9820 C   0  0  0  0  0  3  0  0  0  0  0  0
  190.1880  176.7350  140.1370 C   0  0  0  0  0  0  0  0  0  0  0  0
  192.2660  174.9830  138.0680 C   0  0  0  0  0  3  0  0  0  0  0  0
  199.1100  172.6030  137.2370 C   0  0  0  0  0  3  0  0  0  0  0  0
  195.4930  172.1310  136.5540 C   0  0  0  0  0  3  0  0  0  0  0  0
  199.1280  173.9570  137.5920 C   0  0  0  0  0  3  0  0  0  0  0  0
  197.9160  170.6410  136.5210 O   0  0  0  0  0  1  0  0  0  0  0  0
  194.3800  174.2480  136.9400 C   0  0  0  0  0  0  0  0  0  0  0  0
  194.3240  172.8930  136.5790 C   0  0  0  0  0  3  0  0  0  0  0  0
  195.5810  174.8030  137.2660 N   0  0  0  0  0  0  0  0  0  0  0  0
  196.7160  172.7210  136.8880 C   0  0  0  0  0  0  0  0  0  0  0  0
  197.9440  174.6980  137.5970 C   0  0  0  0  0  3  0  0  0  0  0  0
  196.7380  174.0890  137.2450 C   0  0  0  0  0  0  0  0  0  0  0  0
  197.9100  171.9820  136.8820 C   0  0  0  0  0  0  0  0  0  0  0  0
  190.1140  178.6040  144.1870 O   0  0  0  0  0  0  0  0  0  0  0  0
  188.3610  176.5840  144.8840 O   0  0  0  0  0  0  0  0  0  0  0  0
  190.8140  176.6710  145.7890 O   0  0  0  0  0  1  0  0  0  0  0  0
  189.6380  177.5550  145.4330 P   0  0  1  0  0  0  0  0  0  0  0  0
  189.1730  178.4830  146.7960 O   0  0  0  0  0  0  0  0  0  0  0  0
  186.9850  177.7940  147.0470 F   0  0  0  0  0  0  0  0  0  0  0  0
  188.6650  176.4430  147.7650 F   0  0  0  0  0  0  0  0  0  0  0  0
  188.2590  177.7570  147.5930 C   0  0  0  0  0  0  0  0  0  0  0  0
  188.2050  178.3500  148.8390 F   0  0  0  0  0  0  0  0  0  0  0  0
  187.3720  178.4690  136.9280 C   0  0  0  0  0  2  0  0  0  0  0  0
  186.1470  177.6010  136.6930 C   0  0  0  0  0  2  0  0  0  0  0  0
  185.0540  177.9650  137.6820 C   0  0  0  0  0  2  0  0  0  0  0  0
  185.4710  179.0250  138.4880 O   0  0  0  0  0  0  0  0  0  0  0  0
  184.3310  179.3880  139.2040 C   0  0  0  0  0  2  0  0  0  0  0  0
  183.6900  178.1480  139.8100 C   0  0  0  0  0  2  0  0  0  0  0  0
  183.1500  179.0140  144.1100 C   0  0  0  0  0  2  0  0  0  0  0  0
  182.1580  178.7630  141.8200 C   0  0  0  0  0  0  0  0  0  0  0  0
  182.0250  179.0870  143.1120 C   0  0  0  0  0  3  0  0  0  0  0  0
  184.3930  178.3890  143.5430 C   0  0  0  0  0  0  0  0  0  0  0  0
  184.5190  178.1480  142.1010 C   0  0  0  0  0  3  0  0  0  0  0  0
  185.3520  178.1090  144.3060 O   0  0  0  0  0  0  0  0  0  0  0  0
  183.4780  178.3230  141.2820 C   0  0  0  0  0  0  0  0  0  0  0  0
  181.0140  178.9180  140.9700 N   0  0  0  0  0  2  0  0  0  0  0  0
  180.3940  176.6640  140.8650 O   0  0  0  0  0  0  0  0  0  0  0  0
  180.2610  177.8330  140.4120 C   0  0  0  0  0  0  0  0  0  0  0  0
  179.5810  177.6450  138.0550 C   0  0  0  0  0  1  0  0  0  0  0  0
  179.3390  178.0640  139.3920 O   0  0  0  0  0  0  0  0  0  0  0  0
  2 16  2  0  0  0  0
  2 10  1  0  0  0  0
  3 17  1  0  0  0  0
  4 30  1  1  0  0  0
  5  4  1  0  0  0  0
  6 17  1  0  0  0  0
  6 14  1  1  0  0  0
  7  1  1  1  0  0  0
  7  4  1  0  0  0  0
  8 13  2  0  0  0  0
  9  6  1  0  0  0  0
 10 18  2  0  0  0  0
 11  9  1  0  0  0  0
 12  8  1  0  0  0  0
 12 11  2  0  0  0  0
 13  3  1  0  0  0  0
 14  5  1  0  0  0  0
 15  7  1  0  0  0  0
 16  8  1  0  0  0  0
 17 15  2  0  0  0  0
 18 13  1  0  0  0  0
 19 21  1  0  0  0  0
 20 24  2  0  0  0  0
 20 26  1  0  0  0  0
 21 27  2  0  0  0  0
 22 29  1  0  0  0  0
 23 10  1  0  0  0  0
 23 25  2  0  0  0  0
 24 23  1  0  0  0  0
 26 28  2  0  0  0  0
 28 25  1  0  0  0  0
 28 27  1  0  0  0  0
 29 26  1  0  0  0  0
 29 19  2  0  0  0  0
 30 33  1  0  0  0  0
 33 31  2  6  0  0  0
 33 32  1  0  0  0  0
 33 34  1  0  0  0  0
 34 37  1  0  0  0  0
 35 37  1  0  0  0  0
 37 36  1  0  0  0  0
 37 38  1  0  0  0  0
 39 11  1  0  0  0  0
 40 39  1  0  0  0  0
 40 41  1  0  0  0  0
 41 42  1  0  0  0  0
 42 43  1  0  0  0  0
 43 44  1  0  0  0  0
 44 51  1  0  0  0  0
 46 47  2  0  0  0  0
 47 45  1  0  0  0  0
 48 45  1  0  0  0  0
 48 50  2  0  0  0  0
 49 48  1  0  0  0  0
 51 46  1  0  0  0  0
 51 49  2  0  0  0  0
 52 46  1  0  0  0  0
 54 53  2  0  0  0  0
 54 52  1  0  0  0  0
 55 56  1  0  0  0  0
 56 54  1  0  0  0  0
M  END
>  <MODEL>
1

>  <REMARK>
 VINA RESULT:      -8.5      0.000      0.000
  Name = 
  14 active torsions:
  status: ('A' for Active; 'I' for Inactive)
    1  A    between atoms: O_11  and  C_12
    2  A    between atoms: O_11  and  P_36
    3  A    between atoms: C_13  and  O_24
    4  A    between atoms: C_15  and  C_35
    5  A    between atoms: C_17  and  C_31
    6  A    between atoms: C_17  and  C_56
    7  A    between atoms: O_19  and  C_31
    8  A    between atoms: O_19  and  C_38
    9  A    between atoms: N_21  and  C_25
   10  A    between atoms: O_24  and  P_36
   11  A    between atoms: C_27  and  C_37
   12  A    between atoms: C_27  and  C_55
   13  A    between atoms: C_38  and  C_55
   14  A    between atoms: O_50  and  C_51
                            x       y       z     vdW  Elec       q    Type
                         _______ _______ _______ _____ _____    ______ ____

>  <TORSDO>
F 14

$$$$
=
 OpenBabel10222417163D

 56 61  0  0  1  0  0  0  0  0999 V2000
  188.0260  176.1940  143.8460 O   0  0  0  0  0  1  0  0  0  0  0  0
  184.5820  177.5710  137.7240 C   0  0  0  0  0  3  0  0  0  0  0  0
  188.0380  178.6260  139.8400 O   0  0  0  0  0  0  0  0  0  0  0  0
  190.2380  176.8680  143.1810 C   0  0  1  0  0  3  0  0  0  0  0  0
  191.2880  176.5650  142.1150 C   0  0  0  0  0  2  0  0  0  0  0  0
  189.9410  177.0670  140.0690 C   0  0  1  0  0  3  0  0  0  0  0  0
  188.8570  176.3700  142.7390 C   0  0  2  0  0  3  0  0  0  0  0  0
  186.9980  177.3630  137.9890 C   0  0  0  0  0  0  0  0  0  0  0  0
  190.1270  177.5130  138.7000 N   0  0  0  0  0  2  0  0  0  0  0  0
  184.5200  178.4890  138.7780 C   0  0  0  0  0  0  0  0  0  0  0  0
  189.5270  176.8290  137.6020 C   0  0  0  0  0  0  0  0  0  0  0  0
  188.2090  176.7780  137.3580 C   0  0  0  0  0  3  0  0  0  0  0  0
  186.9320  178.2710  139.0790 C   0  0  0  0  0  0  0  0  0  0  0  0
  191.1470  177.4750  140.9000 C   0  0  0  0  0  2  0  0  0  0  0  0
  188.2110  177.3560  141.8150 C   0  0  0  0  0  3  0  0  0  0  0  0
  185.8060  177.0260  137.3360 C   0  0  0  0  0  3  0  0  0  0  0  0
  188.6990  177.6800  140.6140 C   0  0  0  0  0  0  0  0  0  0  0  0
  185.7030  178.8310  139.4450 C   0  0  0  0  0  3  0  0  0  0  0  0
  178.9580  180.1830  141.5810 C   0  0  0  0  0  3  0  0  0  0  0  0
  181.4220  180.6550  138.8450 C   0  0  0  0  0  3  0  0  0  0  0  0
  179.5660  179.1450  142.2950 C   0  0  0  0  0  3  0  0  0  0  0  0
  178.9330  181.7150  139.7250 O   0  0  0  0  0  1  0  0  0  0  0  0
  183.2220  179.0700  139.1820 C   0  0  0  0  0  0  0  0  0  0  0  0
  182.6410  180.1100  138.4410 C   0  0  0  0  0  3  0  0  0  0  0  0
  182.5840  178.6050  140.2940 N   0  0  0  0  0  0  0  0  0  0  0  0
  180.7820  180.1610  139.9860 C   0  0  0  0  0  0  0  0  0  0  0  0
  180.7820  178.6100  141.8600 C   0  0  0  0  0  3  0  0  0  0  0  0
  181.3930  179.1110  140.7090 C   0  0  0  0  0  0  0  0  0  0  0  0
  179.5590  180.6930  140.4270 C   0  0  0  0  0  0  0  0  0  0  0  0
  190.6210  176.2460  144.3760 O   0  0  0  0  0  0  0  0  0  0  0  0
  191.9340  176.8960  146.7200 O   0  0  0  0  0  1  0  0  0  0  0  0
  191.8360  178.5320  144.6820 O   0  0  0  0  0  0  0  0  0  0  0  0
  191.0130  177.5120  145.4370 P   0  0  1  0  0  0  0  0  0  0  0  0
  189.5650  178.2340  146.0010 O   0  0  0  0  0  0  0  0  0  0  0  0
  189.4850  176.2210  147.1270 F   0  0  0  0  0  0  0  0  0  0  0  0
  189.5160  178.1590  148.3140 F   0  0  0  0  0  0  0  0  0  0  0  0
  189.0900  177.5510  147.1430 C   0  0  0  0  0  0  0  0  0  0  0  0
  187.7100  177.5850  147.1250 F   0  0  0  0  0  0  0  0  0  0  0  0
  190.4310  176.1750  136.6170 C   0  0  0  0  0  2  0  0  0  0  0  0
  191.4150  175.2660  137.3350 C   0  0  0  0  0  2  0  0  0  0  0  0
  192.7860  175.9150  137.3800 C   0  0  0  0  0  2  0  0  0  0  0  0
  193.1840  176.2840  136.0940 O   0  0  0  0  0  0  0  0  0  0  0  0
  194.5320  175.9330  136.0320 C   0  0  0  0  0  2  0  0  0  0  0  0
  194.7340  174.8620  134.9720 C   0  0  0  0  0  2  0  0  0  0  0  0
  193.9580  170.7230  136.3140 C   0  0  0  0  0  2  0  0  0  0  0  0
  195.2670  172.8510  136.5350 C   0  0  0  0  0  0  0  0  0  0  0  0
  195.0620  171.5750  136.8820 C   0  0  0  0  0  3  0  0  0  0  0  0
  193.0150  171.4980  135.4380 C   0  0  0  0  0  0  0  0  0  0  0  0
  193.3420  172.8630  135.0080 C   0  0  0  0  0  3  0  0  0  0  0  0
  191.9550  170.9570  135.0340 O   0  0  0  0  0  0  0  0  0  0  0  0
  194.3990  173.5070  135.5130 C   0  0  0  0  0  0  0  0  0  0  0  0
  196.3810  173.5350  137.1230 N   0  0  0  0  0  2  0  0  0  0  0  0
  195.4770  173.8220  139.2630 O   0  0  0  0  0  0  0  0  0  0  0  0
  196.3790  174.1200  138.4330 C   0  0  0  0  0  0  0  0  0  0  0  0
  197.7340  175.1860  140.1870 C   0  0  0  0  0  1  0  0  0  0  0  0
  197.3980  174.9890  138.8200 O   0  0  0  0  0  0  0  0  0  0  0  0
  2 10  1  0  0  0  0
  3 17  1  0  0  0  0
  4 30  1  1  0  0  0
  5  4  1  0  0  0  0
  6 17  1  0  0  0  0
  6 14  1  1  0  0  0
  7  4  1  0  0  0  0
  7  1  1  1  0  0  0
  8 13  2  0  0  0  0
  9  6  1  0  0  0  0
 10 23  1  0  0  0  0
 10 18  2  0  0  0  0
 11  9  1  0  0  0  0
 12 11  2  0  0  0  0
 12  8  1  0  0  0  0
 13 18  1  0  0  0  0
 13  3  1  0  0  0  0
 14  5  1  0  0  0  0
 15  7  1  0  0  0  0
 16  2  2  0  0  0  0
 16  8  1  0  0  0  0
 17 15  2  0  0  0  0
 19 21  1  0  0  0  0
 20 26  1  0  0  0  0
 22 29  1  0  0  0  0
 23 25  2  0  0  0  0
 24 20  2  0  0  0  0
 24 23  1  0  0  0  0
 25 28  1  0  0  0  0
 26 29  1  0  0  0  0
 26 28  2  0  0  0  0
 27 21  2  0  0  0  0
 28 27  1  0  0  0  0
 29 19  2  0  0  0  0
 30 33  1  0  0  0  0
 33 32  2  6  0  0  0
 33 34  1  0  0  0  0
 33 31  1  0  0  0  0
 34 37  1  0  0  0  0
 35 37  1  0  0  0  0
 37 36  1  0  0  0  0
 38 37  1  0  0  0  0
 39 40  1  0  0  0  0
 39 11  1  0  0  0  0
 40 41  1  0  0  0  0
 42 41  1  0  0  0  0
 43 42  1  0  0  0  0
 44 51  1  0  0  0  0
 44 43  1  0  0  0  0
 45 47  1  0  0  0  0
 46 47  2  0  0  0  0
 46 52  1  0  0  0  0
 48 45  1  0  0  0  0
 49 48  1  0  0  0  0
 49 51  2  0  0  0  0
 50 48  2  0  0  0  0
 51 46  1  0  0  0  0
 52 54  1  0  0  0  0
 54 56  1  0  0  0  0
 54 53  2  0  0  0  0
 56 55  1  0  0  0  0
M  END
>  <MODEL>
2

>  <REMARK>
 VINA RESULT:      -8.3      2.134     11.486
  Name = 
  14 active torsions:
  status: ('A' for Active; 'I' for Inactive)
    1  A    between atoms: O_11  and  C_12
    2  A    between atoms: O_11  and  P_36
    3  A    between atoms: C_13  and  O_24
    4  A    between atoms: C_15  and  C_35
    5  A    between atoms: C_17  and  C_31
    6  A    between atoms: C_17  and  C_56
    7  A    between atoms: O_19  and  C_31
    8  A    between atoms: O_19  and  C_38
    9  A    between atoms: N_21  and  C_25
   10  A    between atoms: O_24  and  P_36
   11  A    between atoms: C_27  and  C_37
   12  A    between atoms: C_27  and  C_55
   13  A    between atoms: C_38  and  C_55
   14  A    between atoms: O_50  and  C_51
                            x       y       z     vdW  Elec       q    Type
                         _______ _______ _______ _____ _____    ______ ____

>  <TORSDO>
F 14

$$$$
=
 OpenBabel10222417163D

 56 61  0  0  1  0  0  0  0  0999 V2000
  192.1850  177.9170  142.1140 O   0  0  0  0  0  1  0  0  0  0  0  0
  193.0350  175.3100  135.5020 C   0  0  0  0  0  3  0  0  0  0  0  0
  190.2920  175.3690  138.6650 O   0  0  0  0  0  0  0  0  0  0  0  0
  189.7820  177.8460  142.2290 C   0  0  1  0  0  3  0  0  0  0  0  0
  188.5540  178.3690  141.4870 C   0  0  0  0  0  2  0  0  0  0  0  0
  189.0080  177.4030  139.2250 C   0  0  1  0  0  3  0  0  0  0  0  0
  191.0270  177.9180  141.3360 C   0  0  2  0  0  3  0  0  0  0  0  0
  190.9610  176.1930  136.4340 C   0  0  0  0  0  0  0  0  0  0  0  0
  188.2900  176.9530  138.0470 N   0  0  0  0  0  2  0  0  0  0  0  0
  193.2040  174.4700  136.6070 C   0  0  0  0  0  0  0  0  0  0  0  0
  188.6540  177.3840  136.7380 C   0  0  0  0  0  0  0  0  0  0  0  0
  189.7940  177.0550  136.1120 C   0  0  0  0  0  3  0  0  0  0  0  0
  191.1470  175.3630  137.5710 C   0  0  0  0  0  0  0  0  0  0  0  0
  188.0700  177.3920  140.4230 C   0  0  0  0  0  2  0  0  0  0  0  0
  191.0780  176.7430  140.4080 C   0  0  0  0  0  3  0  0  0  0  0  0
  191.9250  176.1510  135.4190 C   0  0  0  0  0  3  0  0  0  0  0  0
  190.1680  176.5020  139.4600 C   0  0  0  0  0  0  0  0  0  0  0  0
  192.2520  174.5040  137.6330 C   0  0  0  0  0  3  0  0  0  0  0  0
  199.0050  171.7000  137.1880 C   0  0  0  0  0  3  0  0  0  0  0  0
  195.3460  171.3540  136.6720 C   0  0  0  0  0  3  0  0  0  0  0  0
  199.1170  173.0910  137.2900 C   0  0  0  0  0  3  0  0  0  0  0  0
  197.6690  169.7240  136.8640 O   0  0  0  0  0  1  0  0  0  0  0  0
  194.3780  173.5750  136.6880 C   0  0  0  0  0  0  0  0  0  0  0  0
  194.2270  172.1840  136.5810 C   0  0  0  0  0  3  0  0  0  0  0  0
  195.6210  174.0990  136.8840 N   0  0  0  0  0  0  0  0  0  0  0  0
  196.6130  171.9120  136.8690 C   0  0  0  0  0  0  0  0  0  0  0  0
  197.9820  173.8980  137.1830 C   0  0  0  0  0  3  0  0  0  0  0  0
  196.7300  173.3170  136.9710 C   0  0  0  0  0  0  0  0  0  0  0  0
  197.7570  171.1060  136.9760 C   0  0  0  0  0  0  0  0  0  0  0  0
  189.9670  178.6130  143.3850 O   0  0  0  0  0  0  0  0  0  0  0  0
  187.6440  177.9290  144.7190 O   0  0  0  0  0  1  0  0  0  0  0  0
  189.5980  176.2250  144.3620 O   0  0  0  0  0  0  0  0  0  0  0  0
  189.3210  177.6850  144.6510 P   0  0  1  0  0  0  0  0  0  0  0  0
  190.0760  178.1410  146.1190 O   0  0  0  0  0  0  0  0  0  0  0  0
  190.4310  176.1710  147.2680 F   0  0  0  0  0  0  0  0  0  0  0  0
  189.6290  177.9800  148.3850 F   0  0  0  0  0  0  0  0  0  0  0  0
  189.6400  177.3070  147.1730 C   0  0  0  0  0  0  0  0  0  0  0  0
  188.3480  176.9040  146.9000 F   0  0  0  0  0  0  0  0  0  0  0  0
  187.6730  178.2080  135.9820 C   0  0  0  0  0  2  0  0  0  0  0  0
  186.3060  178.1270  136.6410 C   0  0  0  0  0  2  0  0  0  0  0  0
  185.4370  177.1130  135.9180 C   0  0  0  0  0  2  0  0  0  0  0  0
  185.0690  176.0890  136.7910 O   0  0  0  0  0  0  0  0  0  0  0  0
  183.6760  176.1340  136.8150 C   0  0  0  0  0  2  0  0  0  0  0  0
  183.2020  176.6200  138.1760 C   0  0  0  0  0  2  0  0  0  0  0  0
  180.9010  180.3860  137.9330 C   0  0  0  0  0  2  0  0  0  0  0  0
  182.3760  178.8420  139.2480 C   0  0  0  0  0  0  0  0  0  0  0  0
  181.6210  179.9450  139.1800 C   0  0  0  0  0  3  0  0  0  0  0  0
  181.2460  179.5500  136.7330 C   0  0  0  0  0  0  0  0  0  0  0  0
  181.9950  178.2960  136.8840 C   0  0  0  0  0  3  0  0  0  0  0  0
  180.8540  179.9050  135.5940 O   0  0  0  0  0  0  0  0  0  0  0  0
  182.5270  177.9510  138.0610 C   0  0  0  0  0  0  0  0  0  0  0  0
  182.9720  178.5160  140.5110 N   0  0  0  0  0  2  0  0  0  0  0  0
  185.0380  179.5580  140.1600 O   0  0  0  0  0  0  0  0  0  0  0  0
  184.3410  178.7720  140.8560 C   0  0  0  0  0  0  0  0  0  0  0  0
  184.4960  178.5550  143.3020 C   0  0  0  0  0  1  0  0  0  0  0  0
  184.9040  178.1890  141.9900 O   0  0  0  0  0  0  0  0  0  0  0  0
  2 10  1  0  0  0  0
  3 17  1  0  0  0  0
  4 30  1  1  0  0  0
  5  4  1  0  0  0  0
  6 17  1  0  0  0  0
  6 14  1  1  0  0  0
  7  1  1  1  0  0  0
  7  4  1  0  0  0  0
  8 13  2  0  0  0  0
  9  6  1  0  0  0  0
 10 23  1  0  0  0  0
 10 18  2  0  0  0  0
 11  9  1  0  0  0  0
 12  8  1  0  0  0  0
 12 11  2  0  0  0  0
 13 18  1  0  0  0  0
 13  3  1  0  0  0  0
 14  5  1  0  0  0  0
 15  7  1  0  0  0  0
 16  2  2  0  0  0  0
 16  8  1  0  0  0  0
 17 15  2  0  0  0  0
 19 21  1  0  0  0  0
 20 26  1  0  0  0  0
 22 29  1  0  0  0  0
 23 25  2  0  0  0  0
 24 20  2  0  0  0  0
 24 23  1  0  0  0  0
 25 28  1  0  0  0  0
 26 28  2  0  0  0  0
 26 29  1  0  0  0  0
 27 21  2  0  0  0  0
 28 27  1  0  0  0  0
 29 19  2  0  0  0  0
 30 33  1  0  0  0  0
 33 32  2  6  0  0  0
 33 31  1  0  0  0  0
 33 34  1  0  0  0  0
 34 37  1  0  0  0  0
 37 35  1  0  0  0  0
 37 36  1  0  0  0  0
 38 37  1  0  0  0  0
 39 40  1  0  0  0  0
 39 11  1  0  0  0  0
 41 40  1  0  0  0  0
 41 42  1  0  0  0  0
 42 43  1  0  0  0  0
 43 44  1  0  0  0  0
 45 47  1  0  0  0  0
 46 52  1  0  0  0  0
 47 46  2  0  0  0  0
 48 49  1  0  0  0  0
 48 45  1  0  0  0  0
 49 51  2  0  0  0  0
 50 48  2  0  0  0  0
 51 44  1  0  0  0  0
 51 46  1  0  0  0  0
 52 54  1  0  0  0  0
 53 54  2  0  0  0  0
 54 56  1  0  0  0  0
 56 55  1  0  0  0  0
M  END
>  <MODEL>
3

>  <REMARK>
 VINA RESULT:      -7.5      1.545      3.005
  Name = 
  14 active torsions:
  status: ('A' for Active; 'I' for Inactive)
    1  A    between atoms: O_11  and  C_12
    2  A    between atoms: O_11  and  P_36
    3  A    between atoms: C_13  and  O_24
    4  A    between atoms: C_15  and  C_35
    5  A    between atoms: C_17  and  C_31
    6  A    between atoms: C_17  and  C_56
    7  A    between atoms: O_19  and  C_31
    8  A    between atoms: O_19  and  C_38
    9  A    between atoms: N_21  and  C_25
   10  A    between atoms: O_24  and  P_36
   11  A    between atoms: C_27  and  C_37
   12  A    between atoms: C_27  and  C_55
   13  A    between atoms: C_38  and  C_55
   14  A    between atoms: O_50  and  C_51
                            x       y       z     vdW  Elec       q    Type
                         _______ _______ _______ _____ _____    ______ ____

>  <TORSDO>
F 14

$$$$
=
 OpenBabel10222417163D

 56 61  0  0  1  0  0  0  0  0999 V2000
  192.4730  177.8640  142.5210 O   0  0  0  0  0  1  0  0  0  0  0  0
  192.6640  175.8200  135.6640 C   0  0  0  0  0  3  0  0  0  0  0  0
  190.2330  175.6220  139.0670 O   0  0  0  0  0  0  0  0  0  0  0  0
  190.0910  177.7920  142.8580 C   0  0  1  0  0  3  0  0  0  0  0  0
  188.8050  178.3800  142.2830 C   0  0  0  0  0  2  0  0  0  0  0  0
  189.0310  177.6060  139.9150 C   0  0  1  0  0  3  0  0  0  0  0  0
  191.2470  177.9350  141.8590 C   0  0  2  0  0  3  0  0  0  0  0  0
  190.6980  176.6290  136.8600 C   0  0  0  0  0  0  0  0  0  0  0  0
  188.2000  177.2590  138.7780 N   0  0  0  0  0  2  0  0  0  0  0  0
  192.9280  174.8890  136.6730 C   0  0  0  0  0  0  0  0  0  0  0  0
  188.4440  177.7970  137.4800 C   0  0  0  0  0  0  0  0  0  0  0  0
  189.5160  177.5190  136.7230 C   0  0  0  0  0  3  0  0  0  0  0  0
  190.9820  175.7050  137.9010 C   0  0  0  0  0  0  0  0  0  0  0  0
  188.2120  177.4970  141.1920 C   0  0  0  0  0  2  0  0  0  0  0  0
  191.1970  176.8420  140.8360 C   0  0  0  0  0  3  0  0  0  0  0  0
  191.5610  176.6690  135.7570 C   0  0  0  0  0  3  0  0  0  0  0  0
  190.1990  176.6850  139.9630 C   0  0  0  0  0  0  0  0  0  0  0  0
  192.0770  174.8410  137.7850 C   0  0  0  0  0  3  0  0  0  0  0  0
  197.2800  170.1330  136.9730 C   0  0  0  0  0  3  0  0  0  0  0  0
  196.2890  173.4690  135.6830 C   0  0  0  0  0  3  0  0  0  0  0  0
  196.1580  169.8150  137.7470 C   0  0  0  0  0  3  0  0  0  0  0  0
  198.4700  171.6490  135.5320 O   0  0  0  0  0  1  0  0  0  0  0  0
  194.0940  173.9870  136.5670 C   0  0  0  0  0  0  0  0  0  0  0  0
  195.2020  174.3390  135.7810 C   0  0  0  0  0  3  0  0  0  0  0  0
  194.0940  172.7940  137.2250 N   0  0  0  0  0  0  0  0  0  0  0  0
  196.2700  172.2510  136.3690 C   0  0  0  0  0  0  0  0  0  0  0  0
  195.0890  170.7110  137.8370 C   0  0  0  0  0  3  0  0  0  0  0  0
  195.1390  171.9280  137.1540 C   0  0  0  0  0  0  0  0  0  0  0  0
  197.3420  171.3480  136.2850 C   0  0  0  0  0  0  0  0  0  0  0  0
  190.3940  178.4590  144.0510 O   0  0  0  0  0  0  0  0  0  0  0  0
  188.7830  177.4660  146.0670 O   0  0  0  0  0  1  0  0  0  0  0  0
  190.3160  175.9160  144.6210 O   0  0  0  0  0  0  0  0  0  0  0  0
  190.2680  177.2830  145.2690 P   0  0  1  0  0  0  0  0  0  0  0  0
  191.5830  177.4600  146.3520 O   0  0  0  0  0  0  0  0  0  0  0  0
  192.3830  175.2970  146.2450 F   0  0  0  0  0  0  0  0  0  0  0  0
  192.5790  176.4600  148.1880 F   0  0  0  0  0  0  0  0  0  0  0  0
  191.7990  176.2550  147.0600 C   0  0  0  0  0  0  0  0  0  0  0  0
  190.5730  175.7720  147.4750 F   0  0  0  0  0  0  0  0  0  0  0  0
  187.4050  178.6850  136.8930 C   0  0  0  0  0  2  0  0  0  0  0  0
  186.0250  178.0830  137.1010 C   0  0  0  0  0  2  0  0  0  0  0  0
  185.5970  178.2510  138.5480 C   0  0  0  0  0  2  0  0  0  0  0  0
  184.9790  179.4900  138.7240 O   0  0  0  0  0  0  0  0  0  0  0  0
  183.6660  179.1780  139.0740 C   0  0  0  0  0  2  0  0  0  0  0  0
  183.6600  178.3210  140.3300 C   0  0  0  0  0  2  0  0  0  0  0  0
  179.6330  176.5170  140.5710 C   0  0  0  0  0  2  0  0  0  0  0  0
  182.0210  176.3670  139.8180 C   0  0  0  0  0  0  0  0  0  0  0  0
  180.7790  175.8670  139.8430 C   0  0  0  0  0  3  0  0  0  0  0  0
  180.0600  177.6960  141.3970 C   0  0  0  0  0  0  0  0  0  0  0  0
  181.4070  178.2630  141.2530 C   0  0  0  0  0  3  0  0  0  0  0  0
  179.2430  178.2300  142.1880 O   0  0  0  0  0  0  0  0  0  0  0  0
  182.3340  177.6500  140.5120 C   0  0  0  0  0  0  0  0  0  0  0  0
  183.0090  175.6670  139.0510 N   0  0  0  0  0  2  0  0  0  0  0  0
  182.5590  176.6590  136.9800 O   0  0  0  0  0  0  0  0  0  0  0  0
  183.1390  175.7440  137.6250 C   0  0  0  0  0  0  0  0  0  0  0  0
  184.5550  173.7330  137.5950 C   0  0  0  0  0  1  0  0  0  0  0  0
  183.9430  174.8360  136.9390 O   0  0  0  0  0  0  0  0  0  0  0  0
  2 16  2  0  0  0  0
  2 10  1  0  0  0  0
  3 17  1  0  0  0  0
  4 30  1  1  0  0  0
  5  4  1  0  0  0  0
  6 17  1  0  0  0  0
  6 14  1  1  0  0  0
  7  1  1  1  0  0  0
  7  4  1  0  0  0  0
  8 13  2  0  0  0  0
  9  6  1  0  0  0  0
 10 18  2  0  0  0  0
 11  9  1  0  0  0  0
 12  8  1  0  0  0  0
 12 11  2  0  0  0  0
 13  3  1  0  0  0  0
 14  5  1  0  0  0  0
 15  7  1  0  0  0  0
 16  8  1  0  0  0  0
 17 15  2  0  0  0  0
 18 13  1  0  0  0  0
 19 21  1  0  0  0  0
 20 24  2  0  0  0  0
 20 26  1  0  0  0  0
 21 27  2  0  0  0  0
 22 29  1  0  0  0  0
 23 10  1  0  0  0  0
 23 25  2  0  0  0  0
 24 23  1  0  0  0  0
 26 28  2  0  0  0  0
 28 25  1  0  0  0  0
 28 27  1  0  0  0  0
 29 26  1  0  0  0  0
 29 19  2  0  0  0  0
 30 33  1  0  0  0  0
 33 32  2  6  0  0  0
 33 31  1  0  0  0  0
 33 34  1  0  0  0  0
 34 37  1  0  0  0  0
 35 37  1  0  0  0  0
 37 38  1  0  0  0  0
 37 36  1  0  0  0  0
 39 40  1  0  0  0  0
 39 11  1  0  0  0  0
 40 41  1  0  0  0  0
 41 42  1  0  0  0  0
 42 43  1  0  0  0  0
 43 44  1  0  0  0  0
 44 51  1  0  0  0  0
 45 48  1  0  0  0  0
 46 47  2  0  0  0  0
 46 51  1  0  0  0  0
 47 45  1  0  0  0  0
 48 50  2  0  0  0  0
 49 48  1  0  0  0  0
 51 49  2  0  0  0  0
 52 46  1  0  0  0  0
 53 54  2  0  0  0  0
 54 52  1  0  0  0  0
 56 55  1  0  0  0  0
 56 54  1  0  0  0  0
M  END
>  <MODEL>
4

>  <REMARK>
 VINA RESULT:      -7.0      1.883      2.865
  Name = 
  14 active torsions:
  status: ('A' for Active; 'I' for Inactive)
    1  A    between atoms: O_11  and  C_12
    2  A    between atoms: O_11  and  P_36
    3  A    between atoms: C_13  and  O_24
    4  A    between atoms: C_15  and  C_35
    5  A    between atoms: C_17  and  C_31
    6  A    between atoms: C_17  and  C_56
    7  A    between atoms: O_19  and  C_31
    8  A    between atoms: O_19  and  C_38
    9  A    between atoms: N_21  and  C_25
   10  A    between atoms: O_24  and  P_36
   11  A    between atoms: C_27  and  C_37
   12  A    between atoms: C_27  and  C_55
   13  A    between atoms: C_38  and  C_55
   14  A    between atoms: O_50  and  C_51
                            x       y       z     vdW  Elec       q    Type
                         _______ _______ _______ _____ _____    ______ ____

>  <TORSDO>
F 14

$$$$
=
 OpenBabel10222417163D

 56 61  0  0  1  0  0  0  0  0999 V2000
  189.6710  174.6030  138.0660 O   0  0  0  0  0  1  0  0  0  0  0  0
  185.7060  177.7860  143.1050 C   0  0  0  0  0  3  0  0  0  0  0  0
  187.7440  178.6140  139.5420 O   0  0  0  0  0  0  0  0  0  0  0  0
  189.3140  176.1710  136.2760 C   0  0  1  0  0  3  0  0  0  0  0  0
  188.1770  176.8040  135.4770 C   0  0  0  0  0  2  0  0  0  0  0  0
  186.8930  177.8410  137.3550 C   0  0  1  0  0  3  0  0  0  0  0  0
  188.7880  175.5720  137.5860 C   0  0  2  0  0  3  0  0  0  0  0  0
  185.6000  178.2330  140.7090 C   0  0  0  0  0  0  0  0  0  0  0  0
  186.0020  178.9590  137.6060 N   0  0  0  0  0  2  0  0  0  0  0  0
  187.0930  177.9580  143.1020 C   0  0  0  0  0  0  0  0  0  0  0  0
  184.7660  178.7910  138.2960 C   0  0  0  0  0  0  0  0  0  0  0  0
  184.6480  178.4670  139.5920 C   0  0  0  0  0  3  0  0  0  0  0  0
  187.0130  178.3770  140.6980 C   0  0  0  0  0  0  0  0  0  0  0  0
  187.7030  178.1120  136.0970 C   0  0  0  0  0  2  0  0  0  0  0  0
  188.6380  176.6360  138.6300 C   0  0  0  0  0  3  0  0  0  0  0  0
  184.9750  177.9310  141.9250 C   0  0  0  0  0  3  0  0  0  0  0  0
  187.7910  177.6640  138.5280 C   0  0  0  0  0  0  0  0  0  0  0  0
  187.7340  178.2560  141.8920 C   0  0  0  0  0  3  0  0  0  0  0  0
  191.3830  176.7690  147.7750 C   0  0  0  0  0  3  0  0  0  0  0  0
  188.1070  178.1720  146.7380 C   0  0  0  0  0  3  0  0  0  0  0  0
  191.8530  176.2860  146.5490 C   0  0  0  0  0  3  0  0  0  0  0  0
  189.6820  177.8560  149.0860 O   0  0  0  0  0  1  0  0  0  0  0  0
  187.8640  177.8110  144.3550 C   0  0  0  0  0  0  0  0  0  0  0  0
  187.3600  178.3090  145.5670 C   0  0  0  0  0  3  0  0  0  0  0  0
  189.0820  177.2010  144.3380 N   0  0  0  0  0  0  0  0  0  0  0  0
  189.3540  177.5390  146.6990 C   0  0  0  0  0  0  0  0  0  0  0  0
  191.0780  176.4260  145.3950 C   0  0  0  0  0  3  0  0  0  0  0  0
  189.8300  177.0480  145.4630 C   0  0  0  0  0  0  0  0  0  0  0  0
  190.1350  177.3940  147.8570 C   0  0  0  0  0  0  0  0  0  0  0  0
  189.9140  175.1790  135.4920 O   0  0  0  0  0  0  0  0  0  0  0  0
  192.2410  173.7660  135.9710 O   0  0  0  0  0  1  0  0  0  0  0  0
  192.2230  175.9900  134.5940 O   0  0  0  0  0  0  0  0  0  0  0  0
  191.5800  175.3160  135.7870 P   0  0  1  0  0  0  0  0  0  0  0  0
  191.8210  176.2670  137.1910 O   0  0  0  0  0  0  0  0  0  0  0  0
  193.9010  176.9590  136.4690 F   0  0  0  0  0  0  0  0  0  0  0  0
  193.4170  177.0200  138.6890 F   0  0  0  0  0  0  0  0  0  0  0  0
  193.1980  176.3470  137.4970 C   0  0  0  0  0  0  0  0  0  0  0  0
  193.6850  175.0630  137.6400 F   0  0  0  0  0  0  0  0  0  0  0  0
  183.5110  179.0560  137.5410 C   0  0  0  0  0  2  0  0  0  0  0  0
  182.8100  177.7460  137.2190 C   0  0  0  0  0  2  0  0  0  0  0  0
  181.4870  178.0200  136.5270 C   0  0  0  0  0  2  0  0  0  0  0  0
  181.6170  179.1020  135.6540 O   0  0  0  0  0  0  0  0  0  0  0  0
  180.3370  179.2870  135.1340 C   0  0  0  0  0  2  0  0  0  0  0  0
  179.5200  180.1530  136.0820 C   0  0  0  0  0  2  0  0  0  0  0  0
  181.2260  184.1380  136.9430 C   0  0  0  0  0  2  0  0  0  0  0  0
  180.7910  181.7760  137.6680 C   0  0  0  0  0  0  0  0  0  0  0  0
  181.2430  183.0080  137.9370 C   0  0  0  0  0  3  0  0  0  0  0  0
  180.7990  183.7010  135.5710 C   0  0  0  0  0  0  0  0  0  0  0  0
  180.2180  182.3710  135.3550 C   0  0  0  0  0  3  0  0  0  0  0  0
  180.9000  184.4990  134.6050 O   0  0  0  0  0  0  0  0  0  0  0  0
  180.2050  181.4600  136.3330 C   0  0  0  0  0  0  0  0  0  0  0  0
  180.8280  180.8040  138.7210 N   0  0  0  0  0  2  0  0  0  0  0  0
  179.0670  181.6610  140.0020 O   0  0  0  0  0  0  0  0  0  0  0  0
  180.0490  180.8740  139.9230 C   0  0  0  0  0  0  0  0  0  0  0  0
  181.3900  179.0860  140.9490 C   0  0  0  0  0  1  0  0  0  0  0  0
  180.3390  180.0410  141.0020 O   0  0  0  0  0  0  0  0  0  0  0  0
  3 13  1  0  0  0  0
  4 30  1  6  0  0  0
  4  7  1  0  0  0  0
  5 14  1  0  0  0  0
  5  4  1  0  0  0  0
  6 14  1  6  0  0  0
  6  9  1  0  0  0  0
  6 17  1  0  0  0  0
  7  1  1  1  0  0  0
  7 15  1  0  0  0  0
  8 16  1  0  0  0  0
  9 11  1  0  0  0  0
 10  2  1  0  0  0  0
 10 23  1  0  0  0  0
 11 12  2  0  0  0  0
 12  8  1  0  0  0  0
 13  8  2  0  0  0  0
 13 18  1  0  0  0  0
 16  2  2  0  0  0  0
 17 15  2  0  0  0  0
 17  3  1  0  0  0  0
 18 10  2  0  0  0  0
 19 29  1  0  0  0  0
 21 19  2  0  0  0  0
 23 24  1  0  0  0  0
 24 20  2  0  0  0  0
 25 23  2  0  0  0  0
 25 28  1  0  0  0  0
 26 20  1  0  0  0  0
 26 29  2  0  0  0  0
 27 28  2  0  0  0  0
 27 21  1  0  0  0  0
 28 26  1  0  0  0  0
 29 22  1  0  0  0  0
 30 33  1  0  0  0  0
 33 32  2  6  0  0  0
 33 31  1  0  0  0  0
 33 34  1  0  0  0  0
 34 37  1  0  0  0  0
 35 37  1  0  0  0  0
 37 38  1  0  0  0  0
 37 36  1  0  0  0  0
 39 11  1  0  0  0  0
 40 39  1  0  0  0  0
 41 40  1  0  0  0  0
 42 41  1  0  0  0  0
 43 42  1  0  0  0  0
 43 44  1  0  0  0  0
 44 51  1  0  0  0  0
 45 47  1  0  0  0  0
 46 47  2  0  0  0  0
 46 52  1  0  0  0  0
 48 45  1  0  0  0  0
 49 48  1  0  0  0  0
 49 51  2  0  0  0  0
 50 48  2  0  0  0  0
 51 46  1  0  0  0  0
 52 54  1  0  0  0  0
 54 53  2  0  0  0  0
 54 56  1  0  0  0  0
 55 56  1  0  0  0  0
M  END
>  <MODEL>
5

>  <REMARK>
 VINA RESULT:      -7.0      4.446      8.763
  Name = 
  14 active torsions:
  status: ('A' for Active; 'I' for Inactive)
    1  A    between atoms: O_11  and  C_12
    2  A    between atoms: O_11  and  P_36
    3  A    between atoms: C_13  and  O_24
    4  A    between atoms: C_15  and  C_35
    5  A    between atoms: C_17  and  C_31
    6  A    between atoms: C_17  and  C_56
    7  A    between atoms: O_19  and  C_31
    8  A    between atoms: O_19  and  C_38
    9  A    between atoms: N_21  and  C_25
   10  A    between atoms: O_24  and  P_36
   11  A    between atoms: C_27  and  C_37
   12  A    between atoms: C_27  and  C_55
   13  A    between atoms: C_38  and  C_55
   14  A    between atoms: O_50  and  C_51
                            x       y       z     vdW  Elec       q    Type
                         _______ _______ _______ _____ _____    ______ ____

>  <TORSDO>
F 14

$$$$
=
 OpenBabel10222417163D

 56 61  0  0  1  0  0  0  0  0999 V2000
  191.7690  173.3870  137.8240 O   0  0  0  0  0  1  0  0  0  0  0  0
  187.4780  177.8020  141.4760 C   0  0  0  0  0  3  0  0  0  0  0  0
  190.4040  177.8230  138.4800 O   0  0  0  0  0  0  0  0  0  0  0  0
  192.1570  174.7690  135.8920 C   0  0  1  0  0  3  0  0  0  0  0  0
  191.3860  175.4950  134.7920 C   0  0  0  0  0  2  0  0  0  0  0  0
  189.9400  176.9600  136.2130 C   0  0  1  0  0  3  0  0  0  0  0  0
  191.2340  174.4330  137.0710 C   0  0  2  0  0  3  0  0  0  0  0  0
  188.0180  177.9720  139.1030 C   0  0  0  0  0  0  0  0  0  0  0  0
  189.2600  178.2400  136.1530 N   0  0  0  0  0  2  0  0  0  0  0  0
  188.8350  177.7220  141.8050 C   0  0  0  0  0  0  0  0  0  0  0  0
  187.8900  178.3790  136.5240 C   0  0  0  0  0  0  0  0  0  0  0  0
  187.4150  178.2370  137.7710 C   0  0  0  0  0  3  0  0  0  0  0  0
  189.3950  177.8600  139.4330 C   0  0  0  0  0  0  0  0  0  0  0  0
  191.0550  176.9310  135.1790 C   0  0  0  0  0  2  0  0  0  0  0  0
  191.0660  175.6230  137.9640 C   0  0  0  0  0  3  0  0  0  0  0  0
  187.0820  177.9330  140.1440 C   0  0  0  0  0  3  0  0  0  0  0  0
  190.4900  176.7660  137.5820 C   0  0  0  0  0  0  0  0  0  0  0  0
  189.7820  177.7550  140.7740 C   0  0  0  0  0  3  0  0  0  0  0  0
  189.3480  177.3380  148.2270 C   0  0  0  0  0  3  0  0  0  0  0  0
  190.9550  177.1690  144.8860 C   0  0  0  0  0  3  0  0  0  0  0  0
  188.0290  177.6250  147.8610 C   0  0  0  0  0  3  0  0  0  0  0  0
  191.6430  176.9170  147.6350 O   0  0  0  0  0  1  0  0  0  0  0  0
  189.2510  177.5910  143.2170 C   0  0  0  0  0  0  0  0  0  0  0  0
  190.5840  177.3020  143.5470 C   0  0  0  0  0  3  0  0  0  0  0  0
  188.3320  177.7360  144.2140 N   0  0  0  0  0  0  0  0  0  0  0  0
  189.9980  177.3260  145.8940 C   0  0  0  0  0  0  0  0  0  0  0  0
  187.6870  177.7650  146.5130 C   0  0  0  0  0  3  0  0  0  0  0  0
  188.6650  177.6180  145.5270 C   0  0  0  0  0  0  0  0  0  0  0  0
  190.3360  177.1900  147.2500 C   0  0  0  0  0  0  0  0  0  0  0  0
  192.7080  173.6000  135.3560 O   0  0  0  0  0  0  0  0  0  0  0  0
  194.8110  173.9380  137.1180 O   0  0  0  0  0  1  0  0  0  0  0  0
  195.0580  172.5650  134.9040 O   0  0  0  0  0  0  0  0  0  0  0  0
  194.3900  173.7940  135.4820 P   0  0  1  0  0  0  0  0  0  0  0  0
  194.8580  175.1830  134.5940 O   0  0  0  0  0  0  0  0  0  0  0  0
  196.5730  176.3100  135.6500 F   0  0  0  0  0  0  0  0  0  0  0  0
  194.7080  177.4510  135.0300 F   0  0  0  0  0  0  0  0  0  0  0  0
  195.2000  176.2340  135.4750 C   0  0  0  0  0  0  0  0  0  0  0  0
  194.6280  175.9700  136.7050 F   0  0  0  0  0  0  0  0  0  0  0  0
  186.9220  178.7710  135.4650 C   0  0  0  0  0  2  0  0  0  0  0  0
  186.5850  177.5710  134.5950 C   0  0  0  0  0  2  0  0  0  0  0  0
  185.0880  177.3210  134.6090 C   0  0  0  0  0  2  0  0  0  0  0  0
  184.7000  176.8040  135.8460 O   0  0  0  0  0  0  0  0  0  0  0  0
  183.4180  177.3150  136.0510 C   0  0  0  0  0  2  0  0  0  0  0  0
  183.2240  177.6340  137.5260 C   0  0  0  0  0  2  0  0  0  0  0  0
  180.0200  180.6350  138.0370 C   0  0  0  0  0  2  0  0  0  0  0  0
  181.7170  179.0970  139.0600 C   0  0  0  0  0  0  0  0  0  0  0  0
  180.7000  179.9570  139.1970 C   0  0  0  0  0  3  0  0  0  0  0  0
  180.7020  180.3700  136.7250 C   0  0  0  0  0  0  0  0  0  0  0  0
  181.7450  179.3430  136.6160 C   0  0  0  0  0  3  0  0  0  0  0  0
  180.3470  181.0060  135.7000 O   0  0  0  0  0  0  0  0  0  0  0  0
  182.2260  178.7360  137.7050 C   0  0  0  0  0  0  0  0  0  0  0  0
  182.2450  178.4920  140.2470 N   0  0  0  0  0  2  0  0  0  0  0  0
  184.2450  179.7030  140.3530 O   0  0  0  0  0  0  0  0  0  0  0  0
  183.5620  178.7260  140.7640 C   0  0  0  0  0  0  0  0  0  0  0  0
  184.1170  178.3030  143.1240 C   0  0  0  0  0  1  0  0  0  0  0  0
  184.0870  177.9030  141.7600 O   0  0  0  0  0  0  0  0  0  0  0  0
  2 10  1  0  0  0  0
  3 13  1  0  0  0  0
  4 30  1  6  0  0  0
  4  7  1  0  0  0  0
  5 14  1  0  0  0  0
  5  4  1  0  0  0  0
  6 14  1  6  0  0  0
  6 17  1  0  0  0  0
  7  1  1  1  0  0  0
  7 15  1  0  0  0  0
  8 13  2  0  0  0  0
  8 16  1  0  0  0  0
  9  6  1  0  0  0  0
  9 11  1  0  0  0  0
 10 23  1  0  0  0  0
 11 12  2  0  0  0  0
 12  8  1  0  0  0  0
 13 18  1  0  0  0  0
 16  2  2  0  0  0  0
 17 15  2  0  0  0  0
 17  3  1  0  0  0  0
 18 10  2  0  0  0  0
 20 26  1  0  0  0  0
 21 19  1  0  0  0  0
 23 24  1  0  0  0  0
 23 25  2  0  0  0  0
 24 20  2  0  0  0  0
 25 28  1  0  0  0  0
 26 29  1  0  0  0  0
 27 21  2  0  0  0  0
 28 26  2  0  0  0  0
 28 27  1  0  0  0  0
 29 22  1  0  0  0  0
 29 19  2  0  0  0  0
 30 33  1  0  0  0  0
 33 32  2  6  0  0  0
 33 31  1  0  0  0  0
 34 37  1  0  0  0  0
 34 33  1  0  0  0  0
 36 37  1  0  0  0  0
 37 35  1  0  0  0  0
 37 38  1  0  0  0  0
 39 11  1  0  0  0  0
 40 41  1  0  0  0  0
 40 39  1  0  0  0  0
 41 42  1  0  0  0  0
 42 43  1  0  0  0  0
 43 44  1  0  0  0  0
 44 51  1  0  0  0  0
 45 47  1  0  0  0  0
 46 47  2  0  0  0  0
 46 52  1  0  0  0  0
 48 45  1  0  0  0  0
 49 48  1  0  0  0  0
 49 51  2  0  0  0  0
 50 48  2  0  0  0  0
 51 46  1  0  0  0  0
 52 54  1  0  0  0  0
 53 54  2  0  0  0  0
 54 56  1  0  0  0  0
 56 55  1  0  0  0  0
M  END
>  <MODEL>
6

>  <REMARK>
 VINA RESULT:      -6.7      4.393      8.709
  Name = 
  14 active torsions:
  status: ('A' for Active; 'I' for Inactive)
    1  A    between atoms: O_11  and  C_12
    2  A    between atoms: O_11  and  P_36
    3  A    between atoms: C_13  and  O_24
    4  A    between atoms: C_15  and  C_35
    5  A    between atoms: C_17  and  C_31
    6  A    between atoms: C_17  and  C_56
    7  A    between atoms: O_19  and  C_31
    8  A    between atoms: O_19  and  C_38
    9  A    between atoms: N_21  and  C_25
   10  A    between atoms: O_24  and  P_36
   11  A    between atoms: C_27  and  C_37
   12  A    between atoms: C_27  and  C_55
   13  A    between atoms: C_38  and  C_55
   14  A    between atoms: O_50  and  C_51
                            x       y       z     vdW  Elec       q    Type
                         _______ _______ _______ _____ _____    ______ ____

>  <TORSDO>
F 14

$$$$
=
 OpenBabel10222417163D

 56 61  0  0  1  0  0  0  0  0999 V2000
  189.2260  174.5730  137.9600 O   0  0  0  0  0  1  0  0  0  0  0  0
  183.3900  177.5400  140.8550 C   0  0  0  0  0  3  0  0  0  0  0  0
  186.2930  178.2300  137.9180 O   0  0  0  0  0  0  0  0  0  0  0  0
  189.2060  175.7180  135.8430 C   0  0  1  0  0  3  0  0  0  0  0  0
  188.2960  175.9450  134.6380 C   0  0  0  0  0  2  0  0  0  0  0  0
  186.3260  176.9500  135.8050 C   0  0  1  0  0  3  0  0  0  0  0  0
  188.3960  175.2300  137.0510 C   0  0  2  0  0  3  0  0  0  0  0  0
  183.9830  177.5680  138.4890 C   0  0  0  0  0  0  0  0  0  0  0  0
  185.2300  177.8650  135.5440 N   0  0  0  0  0  2  0  0  0  0  0  0
  184.6580  178.0160  141.2050 C   0  0  0  0  0  0  0  0  0  0  0  0
  183.8840  177.5350  135.8780 C   0  0  0  0  0  0  0  0  0  0  0  0
  183.4130  177.4020  137.1270 C   0  0  0  0  0  3  0  0  0  0  0  0
  185.2810  178.0220  138.8450 C   0  0  0  0  0  0  0  0  0  0  0  0
  187.4380  177.1950  134.7980 C   0  0  0  0  0  2  0  0  0  0  0  0
  187.7460  176.3850  137.7510 C   0  0  0  0  0  3  0  0  0  0  0  0
  183.0620  177.3290  139.5160 C   0  0  0  0  0  3  0  0  0  0  0  0
  186.8190  177.1670  137.1930 C   0  0  0  0  0  0  0  0  0  0  0  0
  185.5920  178.2550  140.1900 C   0  0  0  0  0  3  0  0  0  0  0  0
  187.2360  178.2830  147.1160 C   0  0  0  0  0  3  0  0  0  0  0  0
  184.5380  179.2760  144.7680 C   0  0  0  0  0  3  0  0  0  0  0  0
  188.0180  177.4780  146.2800 C   0  0  0  0  0  3  0  0  0  0  0  0
  185.3020  179.6690  147.4800 O   0  0  0  0  0  1  0  0  0  0  0  0
  185.0000  178.2460  142.6240 C   0  0  0  0  0  0  0  0  0  0  0  0
  184.1920  179.0600  143.4330 C   0  0  0  0  0  3  0  0  0  0  0  0
  186.1190  177.6780  143.1560 N   0  0  0  0  0  0  0  0  0  0  0  0
  185.6880  178.6800  145.2950 C   0  0  0  0  0  0  0  0  0  0  0  0
  187.6410  177.2700  144.9510 C   0  0  0  0  0  3  0  0  0  0  0  0
  186.4790  177.8650  144.4530 C   0  0  0  0  0  0  0  0  0  0  0  0
  186.0710  178.8840  146.6300 C   0  0  0  0  0  0  0  0  0  0  0  0
  190.1800  174.7750  135.4970 O   0  0  0  0  0  0  0  0  0  0  0  0
  192.4330  176.1010  134.5970 O   0  0  0  0  0  0  0  0  0  0  0  0
  191.3800  176.5810  136.9430 O   0  0  0  0  0  1  0  0  0  0  0  0
  191.6600  175.4620  135.9640 P   0  0  1  0  0  0  0  0  0  0  0  0
  192.6200  174.2580  136.7160 O   0  0  0  0  0  0  0  0  0  0  0  0
  194.7310  173.8210  137.5420 F   0  0  0  0  0  0  0  0  0  0  0  0
  194.5110  174.6660  135.4440 F   0  0  0  0  0  0  0  0  0  0  0  0
  193.9780  174.6500  136.7240 C   0  0  0  0  0  0  0  0  0  0  0  0
  194.0550  175.9330  137.2310 F   0  0  0  0  0  0  0  0  0  0  0  0
  182.9100  177.3890  134.7620 C   0  0  0  0  0  2  0  0  0  0  0  0
  181.9390  178.5580  134.7600 C   0  0  0  0  0  2  0  0  0  0  0  0
  180.5950  178.1200  135.3150 C   0  0  0  0  0  2  0  0  0  0  0  0
  180.0890  179.0990  136.1710 O   0  0  0  0  0  0  0  0  0  0  0  0
  179.2040  178.4120  137.0020 C   0  0  0  0  0  2  0  0  0  0  0  0
  179.4860  176.9190  136.9260 C   0  0  0  0  0  2  0  0  0  0  0  0
  179.5630  175.1040  140.9550 C   0  0  0  0  0  2  0  0  0  0  0  0
  179.9460  174.8890  138.4860 C   0  0  0  0  0  0  0  0  0  0  0  0
  179.9000  174.3370  139.7040 C   0  0  0  0  0  3  0  0  0  0  0  0
  179.4420  176.5820  140.7170 C   0  0  0  0  0  0  0  0  0  0  0  0
  179.3990  177.1210  139.3520 C   0  0  0  0  0  3  0  0  0  0  0  0
  179.3330  177.3630  141.6970 O   0  0  0  0  0  0  0  0  0  0  0  0
  179.6300  176.3350  138.2970 C   0  0  0  0  0  0  0  0  0  0  0  0
  180.2400  174.0330  137.3740 N   0  0  0  0  0  2  0  0  0  0  0  0
  182.5730  174.1590  137.4880 O   0  0  0  0  0  0  0  0  0  0  0  0
  181.5510  173.8180  136.8340 C   0  0  0  0  0  0  0  0  0  0  0  0
  180.7260  172.3170  135.0690 C   0  0  0  0  0  1  0  0  0  0  0  0
  181.7130  173.1900  135.6000 O   0  0  0  0  0  0  0  0  0  0  0  0
  2 10  1  0  0  0  0
  3 13  1  0  0  0  0
  4 30  1  6  0  0  0
  4  7  1  0  0  0  0
  5 14  1  0  0  0  0
  5  4  1  0  0  0  0
  6 14  1  6  0  0  0
  6 17  1  0  0  0  0
  7 15  1  0  0  0  0
  7  1  1  1  0  0  0
  8 13  2  0  0  0  0
  8 16  1  0  0  0  0
  9  6  1  0  0  0  0
  9 11  1  0  0  0  0
 10 23  1  0  0  0  0
 11 12  2  0  0  0  0
 12  8  1  0  0  0  0
 13 18  1  0  0  0  0
 16  2  2  0  0  0  0
 17 15  2  0  0  0  0
 17  3  1  0  0  0  0
 18 10  2  0  0  0  0
 20 26  1  0  0  0  0
 21 19  2  0  0  0  0
 23 25  2  0  0  0  0
 23 24  1  0  0  0  0
 24 20  2  0  0  0  0
 25 28  1  0  0  0  0
 26 29  2  0  0  0  0
 27 21  1  0  0  0  0
 28 27  2  0  0  0  0
 28 26  1  0  0  0  0
 29 19  1  0  0  0  0
 29 22  1  0  0  0  0
 30 33  1  0  0  0  0
 33 31  2  6  0  0  0
 33 34  1  0  0  0  0
 33 32  1  0  0  0  0
 34 37  1  0  0  0  0
 36 37  1  0  0  0  0
 37 38  1  0  0  0  0
 37 35  1  0  0  0  0
 39 11  1  0  0  0  0
 40 39  1  0  0  0  0
 40 41  1  0  0  0  0
 41 42  1  0  0  0  0
 42 43  1  0  0  0  0
 44 43  1  0  0  0  0
 44 51  1  0  0  0  0
 46 47  2  0  0  0  0
 47 45  1  0  0  0  0
 48 45  1  0  0  0  0
 48 50  2  0  0  0  0
 49 48  1  0  0  0  0
 51 46  1  0  0  0  0
 51 49  2  0  0  0  0
 52 46  1  0  0  0  0
 54 52  1  0  0  0  0
 54 53  2  0  0  0  0
 55 56  1  0  0  0  0
 56 54  1  0  0  0  0
M  END
>  <MODEL>
7

>  <REMARK>
 VINA RESULT:      -6.7      4.708      9.509
  Name = 
  14 active torsions:
  status: ('A' for Active; 'I' for Inactive)
    1  A    between atoms: O_11  and  C_12
    2  A    between atoms: O_11  and  P_36
    3  A    between atoms: C_13  and  O_24
    4  A    between atoms: C_15  and  C_35
    5  A    between atoms: C_17  and  C_31
    6  A    between atoms: C_17  and  C_56
    7  A    between atoms: O_19  and  C_31
    8  A    between atoms: O_19  and  C_38
    9  A    between atoms: N_21  and  C_25
   10  A    between atoms: O_24  and  P_36
   11  A    between atoms: C_27  and  C_37
   12  A    between atoms: C_27  and  C_55
   13  A    between atoms: C_38  and  C_55
   14  A    between atoms: O_50  and  C_51
                            x       y       z     vdW  Elec       q    Type
                         _______ _______ _______ _____ _____    ______ ____

>  <TORSDO>
F 14

$$$$
=
 OpenBabel10222417163D

 56 61  0  0  1  0  0  0  0  0999 V2000
  189.2450  174.6680  138.0280 O   0  0  0  0  0  1  0  0  0  0  0  0
  185.0270  177.8360  142.8660 C   0  0  0  0  0  3  0  0  0  0  0  0
  187.1830  178.6570  139.3720 O   0  0  0  0  0  0  0  0  0  0  0  0
  188.9260  176.2040  136.2030 C   0  0  1  0  0  3  0  0  0  0  0  0
  187.8080  176.8020  135.3520 C   0  0  0  0  0  2  0  0  0  0  0  0
  186.4320  177.8370  137.1660 C   0  0  1  0  0  3  0  0  0  0  0  0
  188.3630  175.6110  137.5000 C   0  0  2  0  0  3  0  0  0  0  0  0
  185.0040  178.2480  140.4620 C   0  0  0  0  0  0  0  0  0  0  0  0
  185.5100  178.9400  137.3670 N   0  0  0  0  0  2  0  0  0  0  0  0
  186.4100  178.0360  142.9130 C   0  0  0  0  0  0  0  0  0  0  0  0
  184.2520  178.7560  138.0110 C   0  0  0  0  0  0  0  0  0  0  0  0
  184.0920  178.4470  139.3060 C   0  0  0  0  0  3  0  0  0  0  0  0
  186.4130  178.4210  140.5030 C   0  0  0  0  0  0  0  0  0  0  0  0
  187.2840  178.1090  135.9360 C   0  0  0  0  0  2  0  0  0  0  0  0
  188.1510  176.6860  138.5220 C   0  0  0  0  0  3  0  0  0  0  0  0
  184.3390  177.9490  141.6570 C   0  0  0  0  0  3  0  0  0  0  0  0
  187.2880  177.6950  138.3740 C   0  0  0  0  0  0  0  0  0  0  0  0
  187.0900  178.3310  141.7250 C   0  0  0  0  0  3  0  0  0  0  0  0
  190.6180  177.2240  147.7390 C   0  0  0  0  0  3  0  0  0  0  0  0
  187.1990  178.1240  146.6100 C   0  0  0  0  0  3  0  0  0  0  0  0
  191.2230  176.9300  146.5120 C   0  0  0  0  0  3  0  0  0  0  0  0
  188.6930  177.8920  149.0200 O   0  0  0  0  0  1  0  0  0  0  0  0
  187.1340  177.9220  144.1970 C   0  0  0  0  0  0  0  0  0  0  0  0
  186.4950  178.2250  145.4090 C   0  0  0  0  0  3  0  0  0  0  0  0
  188.4410  177.5330  144.2100 N   0  0  0  0  0  0  0  0  0  0  0  0
  188.5380  177.7190  146.6010 C   0  0  0  0  0  0  0  0  0  0  0  0
  190.4900  177.0280  145.3260 C   0  0  0  0  0  3  0  0  0  0  0  0
  189.1510  177.4200  145.3630 C   0  0  0  0  0  0  0  0  0  0  0  0
  189.2780  177.6160  147.7900 C   0  0  0  0  0  0  0  0  0  0  0  0
  189.5750  175.2130  135.4560 O   0  0  0  0  0  0  0  0  0  0  0  0
  192.1350  174.2870  134.9740 O   0  0  0  0  0  1  0  0  0  0  0  0
  191.4670  176.7890  134.6020 O   0  0  0  0  0  0  0  0  0  0  0  0
  191.2250  175.6100  135.5180 P   0  0  1  0  0  0  0  0  0  0  0  0
  191.6370  176.0290  137.1270 O   0  0  0  0  0  0  0  0  0  0  0  0
  193.6800  175.7410  136.0930 F   0  0  0  0  0  0  0  0  0  0  0  0
  193.5130  177.1810  137.8430 F   0  0  0  0  0  0  0  0  0  0  0  0
  193.0400  175.9980  137.2960 C   0  0  0  0  0  0  0  0  0  0  0  0
  193.3480  174.9740  138.1710 F   0  0  0  0  0  0  0  0  0  0  0  0
  183.0220  178.9850  137.2050 C   0  0  0  0  0  2  0  0  0  0  0  0
  182.0260  177.8620  137.4430 C   0  0  0  0  0  2  0  0  0  0  0  0
  181.3100  177.5180  136.1500 C   0  0  0  0  0  2  0  0  0  0  0  0
  180.5140  178.5910  135.7430 O   0  0  0  0  0  0  0  0  0  0  0  0
  179.3620  178.4850  136.5220 C   0  0  0  0  0  2  0  0  0  0  0  0
  178.9670  179.8600  137.0410 C   0  0  0  0  0  2  0  0  0  0  0  0
  179.5060  179.9580  141.4270 C   0  0  0  0  0  2  0  0  0  0  0  0
  179.2280  181.1910  139.2600 C   0  0  0  0  0  0  0  0  0  0  0  0
  179.4580  181.2010  140.5790 C   0  0  0  0  0  3  0  0  0  0  0  0
  179.1120  178.7210  140.6700 C   0  0  0  0  0  0  0  0  0  0  0  0
  178.9720  178.7490  139.2090 C   0  0  0  0  0  3  0  0  0  0  0  0
  178.9440  177.6400  141.2900 O   0  0  0  0  0  0  0  0  0  0  0  0
  179.0280  179.9020  138.5360 C   0  0  0  0  0  0  0  0  0  0  0  0
  179.2500  182.4460  138.5670 N   0  0  0  0  0  2  0  0  0  0  0  0
  181.4730  182.3630  137.8390 O   0  0  0  0  0  0  0  0  0  0  0  0
  180.4250  183.0450  138.0030 C   0  0  0  0  0  0  0  0  0  0  0  0
  179.2250  185.1610  137.6350 C   0  0  0  0  0  1  0  0  0  0  0  0
  180.4090  184.3760  137.5880 O   0  0  0  0  0  0  0  0  0  0  0  0
  2 10  1  0  0  0  0
  3 13  1  0  0  0  0
  4 30  1  6  0  0  0
  4  7  1  0  0  0  0
  5 14  1  0  0  0  0
  5  4  1  0  0  0  0
  6 14  1  6  0  0  0
  6  9  1  0  0  0  0
  6 17  1  0  0  0  0
  7  1  1  1  0  0  0
  7 15  1  0  0  0  0
  8 13  2  0  0  0  0
  8 16  1  0  0  0  0
  9 11  1  0  0  0  0
 10 23  1  0  0  0  0
 11 12  2  0  0  0  0
 12  8  1  0  0  0  0
 13 18  1  0  0  0  0
 16  2  2  0  0  0  0
 17 15  2  0  0  0  0
 17  3  1  0  0  0  0
 18 10  2  0  0  0  0
 19 29  1  0  0  0  0
 21 19  2  0  0  0  0
 23 25  2  0  0  0  0
 23 24  1  0  0  0  0
 24 20  2  0  0  0  0
 25 28  1  0  0  0  0
 26 20  1  0  0  0  0
 26 29  2  0  0  0  0
 27 28  2  0  0  0  0
 27 21  1  0  0  0  0
 28 26  1  0  0  0  0
 29 22  1  0  0  0  0
 30 33  1  0  0  0  0
 31 33  1  0  0  0  0
 33 32  2  6  0  0  0
 33 34  1  0  0  0  0
 34 37  1  0  0  0  0
 35 37  1  0  0  0  0
 37 36  1  0  0  0  0
 37 38  1  0  0  0  0
 39 40  1  0  0  0  0
 39 11  1  0  0  0  0
 41 40  1  0  0  0  0
 42 41  1  0  0  0  0
 42 43  1  0  0  0  0
 43 44  1  0  0  0  0
 44 51  1  0  0  0  0
 46 47  2  0  0  0  0
 47 45  1  0  0  0  0
 48 50  2  0  0  0  0
 48 45  1  0  0  0  0
 49 48  1  0  0  0  0
 51 49  2  0  0  0  0
 51 46  1  0  0  0  0
 52 46  1  0  0  0  0
 53 54  2  0  0  0  0
 54 52  1  0  0  0  0
 56 55  1  0  0  0  0
 56 54  1  0  0  0  0
M  END
>  <MODEL>
8

>  <REMARK>
 VINA RESULT:      -6.5      4.580      8.823
  Name = 
  14 active torsions:
  status: ('A' for Active; 'I' for Inactive)
    1  A    between atoms: O_11  and  C_12
    2  A    between atoms: O_11  and  P_36
    3  A    between atoms: C_13  and  O_24
    4  A    between atoms: C_15  and  C_35
    5  A    between atoms: C_17  and  C_31
    6  A    between atoms: C_17  and  C_56
    7  A    between atoms: O_19  and  C_31
    8  A    between atoms: O_19  and  C_38
    9  A    between atoms: N_21  and  C_25
   10  A    between atoms: O_24  and  P_36
   11  A    between atoms: C_27  and  C_37
   12  A    between atoms: C_27  and  C_55
   13  A    between atoms: C_38  and  C_55
   14  A    between atoms: O_50  and  C_51
                            x       y       z     vdW  Elec       q    Type
                         _______ _______ _______ _____ _____    ______ ____

>  <TORSDO>
F 14

$$$$
=
 OpenBabel10222417163D

 56 61  0  0  1  0  0  0  0  0999 V2000
  191.6790  173.6880  137.9240 O   0  0  0  0  0  1  0  0  0  0  0  0
  187.0360  177.8560  141.4320 C   0  0  0  0  0  3  0  0  0  0  0  0
  190.0270  178.0360  138.5080 O   0  0  0  0  0  0  0  0  0  0  0  0
  192.0280  175.0770  135.9900 C   0  0  1  0  0  3  0  0  0  0  0  0
  191.2400  175.7450  134.8650 C   0  0  0  0  0  2  0  0  0  0  0  0
  189.6730  177.1280  136.2380 C   0  0  1  0  0  3  0  0  0  0  0  0
  191.1000  174.6930  137.1490 C   0  0  2  0  0  3  0  0  0  0  0  0
  187.6220  178.0410  139.0720 C   0  0  0  0  0  0  0  0  0  0  0  0
  188.9160  178.3630  136.1500 N   0  0  0  0  0  2  0  0  0  0  0  0
  188.3870  177.8630  141.7950 C   0  0  0  0  0  0  0  0  0  0  0  0
  187.5330  178.4190  136.4870 C   0  0  0  0  0  0  0  0  0  0  0  0
  187.0370  178.2580  137.7230 C   0  0  0  0  0  3  0  0  0  0  0  0
  188.9950  178.0170  139.4360 C   0  0  0  0  0  0  0  0  0  0  0  0
  190.8120  177.1610  135.2310 C   0  0  0  0  0  2  0  0  0  0  0  0
  190.8360  175.8770  138.0280 C   0  0  0  0  0  3  0  0  0  0  0  0
  186.6660  177.9520  140.0910 C   0  0  0  0  0  3  0  0  0  0  0  0
  190.2010  176.9790  137.6210 C   0  0  0  0  0  0  0  0  0  0  0  0
  189.3550  177.9470  140.7870 C   0  0  0  0  0  3  0  0  0  0  0  0
  188.7680  177.5780  148.2310 C   0  0  0  0  0  3  0  0  0  0  0  0
  190.4590  177.4500  144.9300 C   0  0  0  0  0  3  0  0  0  0  0  0
  187.4450  177.7960  147.8320 C   0  0  0  0  0  3  0  0  0  0  0  0
  191.0940  177.2630  147.6970 O   0  0  0  0  0  1  0  0  0  0  0  0
  188.7760  177.7680  143.2180 C   0  0  0  0  0  0  0  0  0  0  0  0
  190.1130  177.5490  143.5820 C   0  0  0  0  0  3  0  0  0  0  0  0
  187.8280  177.8800  144.1910 N   0  0  0  0  0  0  0  0  0  0  0  0
  189.4730  177.5710  145.9130 C   0  0  0  0  0  0  0  0  0  0  0  0
  187.1290  177.9030  146.4750 C   0  0  0  0  0  3  0  0  0  0  0  0
  188.1360  177.7930  145.5130 C   0  0  0  0  0  0  0  0  0  0  0  0
  189.7850  177.4670  147.2780 C   0  0  0  0  0  0  0  0  0  0  0  0
  192.6630  173.9400  135.4770 O   0  0  0  0  0  0  0  0  0  0  0  0
  195.1890  172.9650  134.9170 O   0  0  0  0  0  1  0  0  0  0  0  0
  194.5980  175.5040  134.7010 O   0  0  0  0  0  0  0  0  0  0  0  0
  194.3250  174.2800  135.5480 P   0  0  1  0  0  0  0  0  0  0  0  0
  194.7610  174.5900  137.1750 O   0  0  0  0  0  0  0  0  0  0  0  0
  196.9250  174.7270  136.3830 F   0  0  0  0  0  0  0  0  0  0  0  0
  196.5630  174.6860  138.6260 F   0  0  0  0  0  0  0  0  0  0  0  0
  196.1120  174.2370  137.3940 C   0  0  0  0  0  0  0  0  0  0  0  0
  196.2060  172.8590  137.3860 F   0  0  0  0  0  0  0  0  0  0  0  0
  186.5680  178.7430  135.4010 C   0  0  0  0  0  2  0  0  0  0  0  0
  186.1930  177.4800  134.6430 C   0  0  0  0  0  2  0  0  0  0  0  0
  184.6830  177.3170  134.6170 C   0  0  0  0  0  2  0  0  0  0  0  0
  184.1670  177.4320  135.9080 O   0  0  0  0  0  0  0  0  0  0  0  0
  182.7930  177.2510  135.7520 C   0  0  0  0  0  2  0  0  0  0  0  0
  182.0830  177.5590  137.0610 C   0  0  0  0  0  2  0  0  0  0  0  0
  180.0280  173.9540  138.5810 C   0  0  0  0  0  2  0  0  0  0  0  0
  180.6480  176.3660  138.8740 C   0  0  0  0  0  0  0  0  0  0  0  0
  180.0880  175.2470  139.3490 C   0  0  0  0  0  3  0  0  0  0  0  0
  180.5170  174.0920  137.1670 C   0  0  0  0  0  0  0  0  0  0  0  0
  181.2130  175.3080  136.7310 C   0  0  0  0  0  3  0  0  0  0  0  0
  180.3660  173.1390  136.3610 O   0  0  0  0  0  0  0  0  0  0  0  0
  181.2850  176.3810  137.5240 C   0  0  0  0  0  0  0  0  0  0  0  0
  180.6740  177.5170  139.7280 N   0  0  0  0  0  2  0  0  0  0  0  0
  182.8820  177.3070  140.4730 O   0  0  0  0  0  0  0  0  0  0  0  0
  181.7560  177.8570  140.6060 C   0  0  0  0  0  0  0  0  0  0  0  0
  180.4280  179.6510  141.6420 C   0  0  0  0  0  1  0  0  0  0  0  0
  181.5890  178.8330  141.5880 O   0  0  0  0  0  0  0  0  0  0  0  0
  2 10  1  0  0  0  0
  3 13  1  0  0  0  0
  4 30  1  6  0  0  0
  4  7  1  0  0  0  0
  5 14  1  0  0  0  0
  5  4  1  0  0  0  0
  6 14  1  6  0  0  0
  6 17  1  0  0  0  0
  7  1  1  1  0  0  0
  7 15  1  0  0  0  0
  8 13  2  0  0  0  0
  8 16  1  0  0  0  0
  9  6  1  0  0  0  0
  9 11  1  0  0  0  0
 10 23  1  0  0  0  0
 11 12  2  0  0  0  0
 12  8  1  0  0  0  0
 13 18  1  0  0  0  0
 16  2  2  0  0  0  0
 17 15  2  0  0  0  0
 17  3  1  0  0  0  0
 18 10  2  0  0  0  0
 20 26  1  0  0  0  0
 21 19  1  0  0  0  0
 23 24  1  0  0  0  0
 23 25  2  0  0  0  0
 24 20  2  0  0  0  0
 25 28  1  0  0  0  0
 26 29  1  0  0  0  0
 27 21  2  0  0  0  0
 28 26  2  0  0  0  0
 28 27  1  0  0  0  0
 29 22  1  0  0  0  0
 29 19  2  0  0  0  0
 30 33  1  0  0  0  0
 31 33  1  0  0  0  0
 33 32  2  6  0  0  0
 33 34  1  0  0  0  0
 34 37  1  0  0  0  0
 35 37  1  0  0  0  0
 37 36  1  0  0  0  0
 38 37  1  0  0  0  0
 39 11  1  0  0  0  0
 40 39  1  0  0  0  0
 41 40  1  0  0  0  0
 41 42  1  0  0  0  0
 43 42  1  0  0  0  0
 43 44  1  0  0  0  0
 44 51  1  0  0  0  0
 45 47  1  0  0  0  0
 46 47  2  0  0  0  0
 46 52  1  0  0  0  0
 48 45  1  0  0  0  0
 49 48  1  0  0  0  0
 49 51  2  0  0  0  0
 50 48  2  0  0  0  0
 51 46  1  0  0  0  0
 52 54  1  0  0  0  0
 53 54  2  0  0  0  0
 54 56  1  0  0  0  0
 56 55  1  0  0  0  0
M  END
>  <MODEL>
9

>  <REMARK>
 VINA RESULT:      -6.5      4.242      8.769
  Name = 
  14 active torsions:
  status: ('A' for Active; 'I' for Inactive)
    1  A    between atoms: O_11  and  C_12
    2  A    between atoms: O_11  and  P_36
    3  A    between atoms: C_13  and  O_24
    4  A    between atoms: C_15  and  C_35
    5  A    between atoms: C_17  and  C_31
    6  A    between atoms: C_17  and  C_56
    7  A    between atoms: O_19  and  C_31
    8  A    between atoms: O_19  and  C_38
    9  A    between atoms: N_21  and  C_25
   10  A    between atoms: O_24  and  P_36
   11  A    between atoms: C_27  and  C_37
   12  A    between atoms: C_27  and  C_55
   13  A    between atoms: C_38  and  C_55
   14  A    between atoms: O_50  and  C_51
                            x       y       z     vdW  Elec       q    Type
                         _______ _______ _______ _____ _____    ______ ____

>  <TORSDO>
F 14

$$$$
