=
 OpenBabel10222418203D

 34 36  0  0  0  0  0  0  0  0999 V2000
  188.8170  178.8880  142.1410 O   0  0  0  0  0  0  0  0  0  0  0  0
  188.7680  177.1400  148.1050 C   0  0  0  0  0  3  0  0  0  0  0  0
  187.7260  177.4530  145.9040 C   0  0  0  0  0  0  0  0  0  0  0  0
  190.0480  177.2830  147.5470 C   0  0  0  0  0  3  0  0  0  0  0  0
  189.0260  177.5630  145.3710 C   0  0  0  0  0  0  0  0  0  0  0  0
  191.2580  177.6840  145.4600 N   0  0  0  0  0  0  0  0  0  0  0  0
  190.1340  177.4970  146.1750 C   0  0  0  0  0  0  0  0  0  0  0  0
  189.4380  177.7920  144.1040 N   0  0  0  0  0  0  0  0  0  0  0  0
  187.7910  176.7710  142.4610 C   0  0  0  0  0  1  0  0  0  0  0  0
  190.7920  177.8620  144.1990 C   0  0  0  0  0  0  0  0  0  0  0  0
  188.6730  177.8900  142.8950 C   0  0  0  0  0  0  0  0  0  0  0  0
  187.6190  177.2270  147.2940 C   0  0  0  0  0  3  0  0  0  0  0  0
  186.5220  177.5810  145.0680 C   0  0  0  0  0  3  0  0  0  0  0  0
  185.7660  178.6780  145.0460 C   0  0  0  0  0  3  0  0  0  0  0  0
  182.1310  178.8820  144.1160 C   0  0  0  0  0  3  0  0  0  0  0  0
  184.5520  178.7840  144.2270 C   0  0  0  0  0  0  0  0  0  0  0  0
  183.4350  178.9090  142.0680 C   0  0  0  0  0  0  0  0  0  0  0  0
  183.3080  178.8030  144.8650 C   0  0  0  0  0  3  0  0  0  0  0  0
  184.6100  178.8380  142.8250 C   0  0  0  0  0  3  0  0  0  0  0  0
  182.1940  178.9310  142.7210 C   0  0  0  0  0  3  0  0  0  0  0  0
  183.5230  178.9560  140.6750 O   0  0  0  0  0  0  0  0  0  0  0  0
  184.6380  179.4570  140.0400 N   0  0  0  0  0  2  0  0  0  0  0  0
  184.8500  178.6380  138.8600 C   0  0  0  0  0  1  0  0  0  0  0  0
  191.6950  178.1090  143.0370 C   0  0  0  0  0  2  0  0  0  0  0  0
  191.6270  176.9880  142.1160 N   0  0  0  0  0  2  0  0  0  0  0  0
  191.8040  177.5350  140.7830 C   0  0  0  0  0  2  0  0  0  0  0  0
  190.7210  177.0390  139.8930 C   0  0  0  0  0  0  0  0  0  0  0  0
  190.5540  175.7960  139.7560 O   0  0  0  0  0  0  0  0  0  0  0  0
  189.9190  177.9590  139.2030 O   0  0  0  0  0  0  0  0  0  0  0  0
  188.1050  176.9320  137.9440 C   0  0  0  0  0  1  0  0  0  0  0  0
  189.3910  177.7460  137.8880 C   0  0  0  0  0  0  0  0  0  0  0  0
  190.4080  177.0210  137.0220 C   0  0  0  0  0  1  0  0  0  0  0  0
  187.7350  179.2570  137.0190 O   0  0  0  0  0  1  0  0  0  0  0  0
  189.1050  179.0940  137.2410 C   0  0  0  0  0  2  0  0  0  0  0  0
  1 11  2  0  0  0  0
  3 12  1  0  0  0  0
  4  2  1  0  0  0  0
  5  3  2  0  0  0  0
  5  7  1  0  0  0  0
  6  7  1  0  0  0  0
  7  4  2  0  0  0  0
  8 10  1  0  0  0  0
  8  5  1  0  0  0  0
  9 11  1  0  0  0  0
 10  6  2  0  0  0  0
 11  8  1  0  0  0  0
 12  2  2  0  0  0  0
 13  3  1  0  0  0  0
 14 13  2  0  0  0  0
 15 18  1  0  0  0  0
 16 18  2  0  0  0  0
 16 14  1  0  0  0  0
 17 20  1  0  0  0  0
 17 19  2  0  0  0  0
 19 16  1  0  0  0  0
 20 15  2  0  0  0  0
 21 17  1  0  0  0  0
 22 21  1  0  0  0  0
 23 22  1  0  0  0  0
 24 10  1  0  0  0  0
 25 24  1  0  0  0  0
 26 25  1  0  0  0  0
 27 26  1  0  0  0  0
 28 27  2  0  0  0  0
 29 27  1  0  0  0  0
 31 30  1  0  0  0  0
 31 29  1  0  0  0  0
 32 31  1  0  0  0  0
 33 34  1  0  0  0  0
 34 31  1  0  0  0  0
M  END
>  <MODEL>
1

>  <REMARK>
 VINA RESULT:      -8.7      0.000      0.000
  Name = 
  11 active torsions:
  status: ('A' for Active; 'I' for Inactive)
    1  A    between atoms: O_1  and  C_9
    2  A    between atoms: O_1  and  N_22
    3  A    between atoms: C_4  and  C_6
    4  A    between atoms: C_4  and  O_24
    5  A    between atoms: C_6  and  N_18
    6  A    between atoms: C_7  and  C_28
    7  A    between atoms: C_8  and  C_29
    8  A    between atoms: C_11  and  N_18
    9  A    between atoms: C_11  and  C_30
   10  A    between atoms: C_14  and  C_17
   11  A    between atoms: O_24  and  C_28
                            x       y       z     vdW  Elec       q    Type
                         _______ _______ _______ _____ _____    ______ ____

>  <TORSDO>
F 11

$$$$
=
 OpenBabel10222418203D

 34 36  0  0  0  0  0  0  0  0999 V2000
  188.8810  178.7970  142.1060 O   0  0  0  0  0  0  0  0  0  0  0  0
  188.8560  177.2150  148.1160 C   0  0  0  0  0  3  0  0  0  0  0  0
  187.8040  177.4750  145.9130 C   0  0  0  0  0  0  0  0  0  0  0  0
  190.1340  177.3340  147.5460 C   0  0  0  0  0  3  0  0  0  0  0  0
  189.1010  177.5610  145.3690 C   0  0  0  0  0  0  0  0  0  0  0  0
  191.3330  177.6680  145.4420 N   0  0  0  0  0  0  0  0  0  0  0  0
  190.2140  177.5090  146.1690 C   0  0  0  0  0  0  0  0  0  0  0  0
  189.5070  177.7520  144.0950 N   0  0  0  0  0  0  0  0  0  0  0  0
  187.8430  176.6970  142.4900 C   0  0  0  0  0  1  0  0  0  0  0  0
  190.8610  177.8150  144.1800 C   0  0  0  0  0  0  0  0  0  0  0  0
  188.7350  177.8220  142.8880 C   0  0  0  0  0  0  0  0  0  0  0  0
  187.7030  177.2890  147.3090 C   0  0  0  0  0  3  0  0  0  0  0  0
  186.5950  177.5890  145.0810 C   0  0  0  0  0  3  0  0  0  0  0  0
  185.8120  178.6670  145.0800 C   0  0  0  0  0  3  0  0  0  0  0  0
  182.1810  178.9730  144.1650 C   0  0  0  0  0  3  0  0  0  0  0  0
  184.5940  178.7580  144.2650 C   0  0  0  0  0  0  0  0  0  0  0  0
  183.4570  178.7330  142.1130 C   0  0  0  0  0  0  0  0  0  0  0  0
  183.3610  178.9040  144.9080 C   0  0  0  0  0  3  0  0  0  0  0  0
  184.6360  178.6720  142.8640 C   0  0  0  0  0  3  0  0  0  0  0  0
  182.2270  178.8840  142.7710 C   0  0  0  0  0  3  0  0  0  0  0  0
  183.5290  178.6400  140.7210 O   0  0  0  0  0  0  0  0  0  0  0  0
  184.3460  179.4700  139.9850 N   0  0  0  0  0  2  0  0  0  0  0  0
  184.4100  178.9140  138.6460 C   0  0  0  0  0  1  0  0  0  0  0  0
  191.7590  178.0240  143.0060 C   0  0  0  0  0  2  0  0  0  0  0  0
  191.6210  176.9130  142.0800 N   0  0  0  0  0  2  0  0  0  0  0  0
  192.0670  177.3960  140.7850 C   0  0  0  0  0  2  0  0  0  0  0  0
  191.0590  177.0440  139.7490 C   0  0  0  0  0  0  0  0  0  0  0  0
  190.0960  177.8270  139.5310 O   0  0  0  0  0  0  0  0  0  0  0  0
  191.1840  175.8360  139.0480 O   0  0  0  0  0  0  0  0  0  0  0  0
  191.9410  174.2600  137.3520 C   0  0  0  0  0  1  0  0  0  0  0  0
  191.7140  175.7200  137.7220 C   0  0  0  0  0  0  0  0  0  0  0  0
  193.0280  176.4760  137.6110 C   0  0  0  0  0  1  0  0  0  0  0  0
  189.4870  175.7150  136.8160 O   0  0  0  0  0  1  0  0  0  0  0  0
  190.7340  176.3420  136.7370 C   0  0  0  0  0  2  0  0  0  0  0  0
  1 11  2  0  0  0  0
  3 12  1  0  0  0  0
  4  2  1  0  0  0  0
  5  3  2  0  0  0  0
  5  7  1  0  0  0  0
  6  7  1  0  0  0  0
  7  4  2  0  0  0  0
  8 10  1  0  0  0  0
  8  5  1  0  0  0  0
  9 11  1  0  0  0  0
 10  6  2  0  0  0  0
 11  8  1  0  0  0  0
 12  2  2  0  0  0  0
 13  3  1  0  0  0  0
 14 13  2  0  0  0  0
 15 18  1  0  0  0  0
 16 18  2  0  0  0  0
 16 14  1  0  0  0  0
 17 20  1  0  0  0  0
 17 19  2  0  0  0  0
 19 16  1  0  0  0  0
 20 15  2  0  0  0  0
 21 17  1  0  0  0  0
 22 21  1  0  0  0  0
 23 22  1  0  0  0  0
 24 10  1  0  0  0  0
 25 24  1  0  0  0  0
 26 25  1  0  0  0  0
 27 26  1  0  0  0  0
 28 27  2  0  0  0  0
 29 27  1  0  0  0  0
 30 31  1  0  0  0  0
 31 29  1  0  0  0  0
 32 31  1  0  0  0  0
 34 33  1  0  0  0  0
 34 31  1  0  0  0  0
M  END
>  <MODEL>
2

>  <REMARK>
 VINA RESULT:      -8.2      1.097      1.503
  Name = 
  11 active torsions:
  status: ('A' for Active; 'I' for Inactive)
    1  A    between atoms: O_1  and  C_9
    2  A    between atoms: O_1  and  N_22
    3  A    between atoms: C_4  and  C_6
    4  A    between atoms: C_4  and  O_24
    5  A    between atoms: C_6  and  N_18
    6  A    between atoms: C_7  and  C_28
    7  A    between atoms: C_8  and  C_29
    8  A    between atoms: C_11  and  N_18
    9  A    between atoms: C_11  and  C_30
   10  A    between atoms: C_14  and  C_17
   11  A    between atoms: O_24  and  C_28
                            x       y       z     vdW  Elec       q    Type
                         _______ _______ _______ _____ _____    ______ ____

>  <TORSDO>
F 11

$$$$
=
 OpenBabel10222418203D

 34 36  0  0  0  0  0  0  0  0999 V2000
  190.0250  176.7810  141.2590 O   0  0  0  0  0  0  0  0  0  0  0  0
  184.1180  178.7130  141.2980 C   0  0  0  0  0  3  0  0  0  0  0  0
  186.2470  178.1480  142.3830 C   0  0  0  0  0  0  0  0  0  0  0  0
  184.7450  178.7680  140.0420 C   0  0  0  0  0  3  0  0  0  0  0  0
  186.8500  178.2400  141.1130 C   0  0  0  0  0  0  0  0  0  0  0  0
  186.8860  178.5010  138.8920 N   0  0  0  0  0  0  0  0  0  0  0  0
  186.1130  178.5220  139.9920 C   0  0  0  0  0  0  0  0  0  0  0  0
  188.1320  178.0380  140.7340 N   0  0  0  0  0  0  0  0  0  0  0  0
  189.7060  178.7050  142.6140 C   0  0  0  0  0  1  0  0  0  0  0  0
  188.1120  178.2010  139.3850 C   0  0  0  0  0  0  0  0  0  0  0  0
  189.2920  177.7670  141.5330 C   0  0  0  0  0  0  0  0  0  0  0  0
  184.8600  178.4040  142.4550 C   0  0  0  0  0  3  0  0  0  0  0  0
  187.0090  177.7880  143.5890 C   0  0  0  0  0  3  0  0  0  0  0  0
  186.6950  178.2300  144.8060 C   0  0  0  0  0  3  0  0  0  0  0  0
  187.6820  177.8870  148.4150 C   0  0  0  0  0  3  0  0  0  0  0  0
  187.4790  177.8850  145.9990 C   0  0  0  0  0  0  0  0  0  0  0  0
  189.4860  177.0000  147.0540 C   0  0  0  0  0  0  0  0  0  0  0  0
  186.9540  178.1830  147.2600 C   0  0  0  0  0  3  0  0  0  0  0  0
  188.7480  177.2920  145.9020 C   0  0  0  0  0  3  0  0  0  0  0  0
  188.9460  177.3010  148.3130 C   0  0  0  0  0  3  0  0  0  0  0  0
  190.7470  176.4150  146.9270 O   0  0  0  0  0  0  0  0  0  0  0  0
  191.8100  176.8170  147.7070 N   0  0  0  0  0  2  0  0  0  0  0  0
  192.6600  175.6550  147.8870 C   0  0  0  0  0  1  0  0  0  0  0  0
  189.3170  178.0670  138.5150 C   0  0  0  0  0  2  0  0  0  0  0  0
  189.3870  176.7190  137.9780 N   0  0  0  0  0  2  0  0  0  0  0  0
  190.6520  176.6180  137.2730 C   0  0  0  0  0  2  0  0  0  0  0  0
  191.3890  175.4150  137.7440 C   0  0  0  0  0  0  0  0  0  0  0  0
  190.7510  174.3570  137.9950 O   0  0  0  0  0  0  0  0  0  0  0  0
  192.7780  175.4840  137.9240 O   0  0  0  0  0  0  0  0  0  0  0  0
  194.1540  176.2780  136.0780 C   0  0  0  0  0  1  0  0  0  0  0  0
  193.7430  175.0920  136.9390 C   0  0  0  0  0  0  0  0  0  0  0  0
  193.1740  173.9980  136.0500 C   0  0  0  0  0  1  0  0  0  0  0  0
  195.1760  175.1680  138.8680 O   0  0  0  0  0  1  0  0  0  0  0  0
  194.9720  174.5300  137.6410 C   0  0  0  0  0  2  0  0  0  0  0  0
  1 11  2  0  0  0  0
  2 12  1  0  0  0  0
  3 12  2  0  0  0  0
  3 13  1  0  0  0  0
  4  2  2  0  0  0  0
  5  3  1  0  0  0  0
  6 10  2  0  0  0  0
  6  7  1  0  0  0  0
  7  4  1  0  0  0  0
  7  5  2  0  0  0  0
  8  5  1  0  0  0  0
  8 11  1  0  0  0  0
 10  8  1  0  0  0  0
 11  9  1  0  0  0  0
 13 14  2  0  0  0  0
 14 16  1  0  0  0  0
 16 18  1  0  0  0  0
 17 20  2  0  0  0  0
 18 15  2  0  0  0  0
 19 16  2  0  0  0  0
 19 17  1  0  0  0  0
 20 15  1  0  0  0  0
 21 17  1  0  0  0  0
 21 22  1  0  0  0  0
 22 23  1  0  0  0  0
 24 10  1  0  0  0  0
 25 24  1  0  0  0  0
 26 27  1  0  0  0  0
 26 25  1  0  0  0  0
 27 29  1  0  0  0  0
 27 28  2  0  0  0  0
 30 31  1  0  0  0  0
 31 34  1  0  0  0  0
 31 29  1  0  0  0  0
 32 31  1  0  0  0  0
 34 33  1  0  0  0  0
M  END
>  <MODEL>
3

>  <REMARK>
 VINA RESULT:      -8.0      2.658      6.277
  Name = 
  11 active torsions:
  status: ('A' for Active; 'I' for Inactive)
    1  A    between atoms: O_1  and  C_9
    2  A    between atoms: O_1  and  N_22
    3  A    between atoms: C_4  and  C_6
    4  A    between atoms: C_4  and  O_24
    5  A    between atoms: C_6  and  N_18
    6  A    between atoms: C_7  and  C_28
    7  A    between atoms: C_8  and  C_29
    8  A    between atoms: C_11  and  N_18
    9  A    between atoms: C_11  and  C_30
   10  A    between atoms: C_14  and  C_17
   11  A    between atoms: O_24  and  C_28
                            x       y       z     vdW  Elec       q    Type
                         _______ _______ _______ _____ _____    ______ ____

>  <TORSDO>
F 11

$$$$
=
 OpenBabel10222418203D

 34 36  0  0  0  0  0  0  0  0999 V2000
  185.4440  179.8110  142.1610 O   0  0  0  0  0  0  0  0  0  0  0  0
  190.4930  177.2160  139.6310 C   0  0  0  0  0  3  0  0  0  0  0  0
  189.0340  177.7840  141.5220 C   0  0  0  0  0  0  0  0  0  0  0  0
  189.4680  177.5150  138.7190 C   0  0  0  0  0  3  0  0  0  0  0  0
  188.0180  178.0460  140.5820 C   0  0  0  0  0  0  0  0  0  0  0  0
  187.1550  178.2850  138.5330 N   0  0  0  0  0  0  0  0  0  0  0  0
  188.2450  177.9300  139.2350 C   0  0  0  0  0  0  0  0  0  0  0  0
  186.7500  178.4810  140.7590 N   0  0  0  0  0  0  0  0  0  0  0  0
  185.8390  177.6130  142.9670 C   0  0  0  0  0  1  0  0  0  0  0  0
  186.2630  178.6160  139.4990 C   0  0  0  0  0  0  0  0  0  0  0  0
  186.0210  178.7080  141.9730 C   0  0  0  0  0  0  0  0  0  0  0  0
  190.2800  177.3520  141.0170 C   0  0  0  0  0  3  0  0  0  0  0  0
  188.8300  177.9600  142.9690 C   0  0  0  0  0  3  0  0  0  0  0  0
  189.4570  177.2260  143.8860 C   0  0  0  0  0  3  0  0  0  0  0  0
  190.0650  177.2100  147.5940 C   0  0  0  0  0  3  0  0  0  0  0  0
  189.2250  177.3940  145.3270 C   0  0  0  0  0  0  0  0  0  0  0  0
  187.7850  177.9520  147.2080 C   0  0  0  0  0  0  0  0  0  0  0  0
  190.2580  177.0830  146.2170 C   0  0  0  0  0  3  0  0  0  0  0  0
  187.9880  177.8290  145.8290 C   0  0  0  0  0  3  0  0  0  0  0  0
  188.8310  177.6400  148.0900 C   0  0  0  0  0  3  0  0  0  0  0  0
  186.5430  178.3820  147.6790 O   0  0  0  0  0  0  0  0  0  0  0  0
  185.7500  179.2360  146.9440 N   0  0  0  0  0  2  0  0  0  0  0  0
  184.6250  178.4550  146.4660 C   0  0  0  0  0  1  0  0  0  0  0  0
  184.8800  179.0830  139.1880 C   0  0  0  0  0  2  0  0  0  0  0  0
  184.0660  177.9580  138.7610 N   0  0  0  0  0  2  0  0  0  0  0  0
  183.2680  177.5640  139.9080 C   0  0  0  0  0  2  0  0  0  0  0  0
  182.1900  178.5640  140.1310 C   0  0  0  0  0  0  0  0  0  0  0  0
  181.5520  179.0170  139.1420 O   0  0  0  0  0  0  0  0  0  0  0  0
  181.9160  179.0040  141.4330 O   0  0  0  0  0  0  0  0  0  0  0  0
  180.8830  178.6610  143.6120 C   0  0  0  0  0  1  0  0  0  0  0  0
  180.6690  178.8020  142.1110 C   0  0  0  0  0  0  0  0  0  0  0  0
  179.9770  177.5570  141.5820 C   0  0  0  0  0  1  0  0  0  0  0  0
  179.8820  180.9500  142.8540 O   0  0  0  0  0  1  0  0  0  0  0  0
  179.7580  179.9920  141.8430 C   0  0  0  0  0  2  0  0  0  0  0  0
  2 12  1  0  0  0  0
  3 13  1  0  0  0  0
  4  7  1  0  0  0  0
  4  2  2  0  0  0  0
  5  8  1  0  0  0  0
  5  3  1  0  0  0  0
  6  7  1  0  0  0  0
  6 10  2  0  0  0  0
  7  5  2  0  0  0  0
  8 11  1  0  0  0  0
 10  8  1  0  0  0  0
 11  1  2  0  0  0  0
 11  9  1  0  0  0  0
 12  3  2  0  0  0  0
 13 14  2  0  0  0  0
 14 16  1  0  0  0  0
 15 20  1  0  0  0  0
 16 19  2  0  0  0  0
 16 18  1  0  0  0  0
 17 21  1  0  0  0  0
 17 20  2  0  0  0  0
 18 15  2  0  0  0  0
 19 17  1  0  0  0  0
 22 21  1  0  0  0  0
 23 22  1  0  0  0  0
 24 10  1  0  0  0  0
 25 24  1  0  0  0  0
 25 26  1  0  0  0  0
 26 27  1  0  0  0  0
 27 29  1  0  0  0  0
 28 27  2  0  0  0  0
 29 31  1  0  0  0  0
 31 30  1  0  0  0  0
 32 31  1  0  0  0  0
 34 31  1  0  0  0  0
 34 33  1  0  0  0  0
M  END
>  <MODEL>
4

>  <REMARK>
 VINA RESULT:      -8.0      2.814      7.480
  Name = 
  11 active torsions:
  status: ('A' for Active; 'I' for Inactive)
    1  A    between atoms: O_1  and  C_9
    2  A    between atoms: O_1  and  N_22
    3  A    between atoms: C_4  and  C_6
    4  A    between atoms: C_4  and  O_24
    5  A    between atoms: C_6  and  N_18
    6  A    between atoms: C_7  and  C_28
    7  A    between atoms: C_8  and  C_29
    8  A    between atoms: C_11  and  N_18
    9  A    between atoms: C_11  and  C_30
   10  A    between atoms: C_14  and  C_17
   11  A    between atoms: O_24  and  C_28
                            x       y       z     vdW  Elec       q    Type
                         _______ _______ _______ _____ _____    ______ ____

>  <TORSDO>
F 11

$$$$
=
 OpenBabel10222418203D

 34 36  0  0  0  0  0  0  0  0999 V2000
  189.8430  176.9460  141.4180 O   0  0  0  0  0  0  0  0  0  0  0  0
  183.8740  178.6490  141.7340 C   0  0  0  0  0  3  0  0  0  0  0  0
  186.0610  178.1310  142.7220 C   0  0  0  0  0  0  0  0  0  0  0  0
  184.4510  178.7680  140.4590 C   0  0  0  0  0  3  0  0  0  0  0  0
  186.6130  178.2870  141.4350 C   0  0  0  0  0  0  0  0  0  0  0  0
  186.5560  178.6210  139.2240 N   0  0  0  0  0  0  0  0  0  0  0  0
  185.8250  178.5760  140.3510 C   0  0  0  0  0  0  0  0  0  0  0  0
  187.8860  178.1460  141.0030 N   0  0  0  0  0  0  0  0  0  0  0  0
  189.5030  178.8110  142.8470 C   0  0  0  0  0  1  0  0  0  0  0  0
  187.8100  178.3520  139.6620 C   0  0  0  0  0  0  0  0  0  0  0  0
  189.0840  177.8940  141.7500 C   0  0  0  0  0  0  0  0  0  0  0  0
  184.6690  178.3300  142.8520 C   0  0  0  0  0  3  0  0  0  0  0  0
  186.8800  177.7610  143.8870 C   0  0  0  0  0  3  0  0  0  0  0  0
  186.6990  178.2850  145.0980 C   0  0  0  0  0  3  0  0  0  0  0  0
  187.8690  177.9230  148.6500 C   0  0  0  0  0  3  0  0  0  0  0  0
  187.5390  177.9270  146.2480 C   0  0  0  0  0  0  0  0  0  0  0  0
  189.5870  177.0150  147.1950 C   0  0  0  0  0  0  0  0  0  0  0  0
  187.0860  178.2300  147.5350 C   0  0  0  0  0  3  0  0  0  0  0  0
  188.7940  177.3180  146.0830 C   0  0  0  0  0  3  0  0  0  0  0  0
  189.1180  177.3200  148.4810 C   0  0  0  0  0  3  0  0  0  0  0  0
  190.8330  176.4140  147.0010 O   0  0  0  0  0  0  0  0  0  0  0  0
  191.9360  176.7890  147.7370 N   0  0  0  0  0  2  0  0  0  0  0  0
  192.8040  175.6280  147.8100 C   0  0  0  0  0  1  0  0  0  0  0  0
  188.9860  178.2920  138.7450 C   0  0  0  0  0  2  0  0  0  0  0  0
  188.6870  179.0100  137.5180 N   0  0  0  0  0  2  0  0  0  0  0  0
  189.2930  178.2540  136.4370 C   0  0  0  0  0  2  0  0  0  0  0  0
  188.2390  177.5110  135.6970 C   0  0  0  0  0  0  0  0  0  0  0  0
  187.1660  178.0990  135.3910 O   0  0  0  0  0  0  0  0  0  0  0  0
  188.4440  176.1620  135.3740 O   0  0  0  0  0  0  0  0  0  0  0  0
  189.5110  174.8320  137.1120 C   0  0  0  0  0  1  0  0  0  0  0  0
  188.2550  175.0730  136.2860 C   0  0  0  0  0  0  0  0  0  0  0  0
  187.9020  173.8050  135.5260 C   0  0  0  0  0  1  0  0  0  0  0  0
  185.8710  175.1210  136.5990 O   0  0  0  0  0  1  0  0  0  0  0  0
  187.0950  175.3970  137.2160 C   0  0  0  0  0  2  0  0  0  0  0  0
  1 11  2  0  0  0  0
  2 12  1  0  0  0  0
  3 12  2  0  0  0  0
  3 13  1  0  0  0  0
  4  2  2  0  0  0  0
  5  3  1  0  0  0  0
  6 10  2  0  0  0  0
  6  7  1  0  0  0  0
  7  4  1  0  0  0  0
  7  5  2  0  0  0  0
  8  5  1  0  0  0  0
  8 11  1  0  0  0  0
 10  8  1  0  0  0  0
 11  9  1  0  0  0  0
 13 14  2  0  0  0  0
 14 16  1  0  0  0  0
 16 18  1  0  0  0  0
 17 20  2  0  0  0  0
 18 15  2  0  0  0  0
 19 16  2  0  0  0  0
 19 17  1  0  0  0  0
 20 15  1  0  0  0  0
 21 17  1  0  0  0  0
 21 22  1  0  0  0  0
 22 23  1  0  0  0  0
 24 10  1  0  0  0  0
 25 24  1  0  0  0  0
 26 25  1  0  0  0  0
 27 26  1  0  0  0  0
 28 27  2  0  0  0  0
 29 27  1  0  0  0  0
 29 31  1  0  0  0  0
 31 30  1  0  0  0  0
 31 34  1  0  0  0  0
 32 31  1  0  0  0  0
 33 34  1  0  0  0  0
M  END
>  <MODEL>
5

>  <REMARK>
 VINA RESULT:      -7.9      2.434      6.121
  Name = 
  11 active torsions:
  status: ('A' for Active; 'I' for Inactive)
    1  A    between atoms: O_1  and  C_9
    2  A    between atoms: O_1  and  N_22
    3  A    between atoms: C_4  and  C_6
    4  A    between atoms: C_4  and  O_24
    5  A    between atoms: C_6  and  N_18
    6  A    between atoms: C_7  and  C_28
    7  A    between atoms: C_8  and  C_29
    8  A    between atoms: C_11  and  N_18
    9  A    between atoms: C_11  and  C_30
   10  A    between atoms: C_14  and  C_17
   11  A    between atoms: O_24  and  C_28
                            x       y       z     vdW  Elec       q    Type
                         _______ _______ _______ _____ _____    ______ ____

>  <TORSDO>
F 11

$$$$
=
 OpenBabel10222418203D

 34 36  0  0  0  0  0  0  0  0999 V2000
  190.7900  175.8400  142.1790 O   0  0  0  0  0  0  0  0  0  0  0  0
  185.8220  178.8360  139.9480 C   0  0  0  0  0  3  0  0  0  0  0  0
  187.4620  178.3100  141.6980 C   0  0  0  0  0  0  0  0  0  0  0  0
  186.6430  178.2520  138.9700 C   0  0  0  0  0  3  0  0  0  0  0  0
  188.2750  177.7590  140.6880 C   0  0  0  0  0  0  0  0  0  0  0  0
  188.7690  177.1020  138.6080 N   0  0  0  0  0  0  0  0  0  0  0  0
  187.8610  177.7210  139.3810 C   0  0  0  0  0  0  0  0  0  0  0  0
  189.4810  177.1550  140.7640 N   0  0  0  0  0  0  0  0  0  0  0  0
  190.8340  178.1640  142.6650 C   0  0  0  0  0  1  0  0  0  0  0  0
  189.7450  176.7690  139.4890 C   0  0  0  0  0  0  0  0  0  0  0  0
  190.3500  176.9850  141.8930 C   0  0  0  0  0  0  0  0  0  0  0  0
  186.2250  178.8620  141.2980 C   0  0  0  0  0  3  0  0  0  0  0  0
  187.8600  178.3060  143.1150 C   0  0  0  0  0  3  0  0  0  0  0  0
  187.3060  177.5050  144.0230 C   0  0  0  0  0  3  0  0  0  0  0  0
  187.0670  177.9060  147.7520 C   0  0  0  0  0  3  0  0  0  0  0  0
  187.6930  177.5290  145.4400 C   0  0  0  0  0  0  0  0  0  0  0  0
  189.3590  177.3210  147.2020 C   0  0  0  0  0  0  0  0  0  0  0  0
  186.7280  177.8540  146.3980 C   0  0  0  0  0  3  0  0  0  0  0  0
  189.0110  177.2630  145.8490 C   0  0  0  0  0  3  0  0  0  0  0  0
  188.3800  177.6450  148.1530 C   0  0  0  0  0  3  0  0  0  0  0  0
  190.6770  177.0570  147.5790 O   0  0  0  0  0  0  0  0  0  0  0  0
  191.6180  176.6350  146.6650 N   0  0  0  0  0  2  0  0  0  0  0  0
  192.4270  175.6310  147.3300 C   0  0  0  0  0  1  0  0  0  0  0  0
  190.9850  176.0470  139.0790 C   0  0  0  0  0  2  0  0  0  0  0  0
  191.6700  176.7990  138.0420 N   0  0  0  0  0  2  0  0  0  0  0  0
  192.0820  175.8380  137.0350 C   0  0  0  0  0  2  0  0  0  0  0  0
  193.5380  175.9860  136.7710 C   0  0  0  0  0  0  0  0  0  0  0  0
  193.9230  176.4330  135.6570 O   0  0  0  0  0  0  0  0  0  0  0  0
  194.4600  175.6030  137.7560 O   0  0  0  0  0  0  0  0  0  0  0  0
  196.3910  174.5540  136.7070 C   0  0  0  0  0  1  0  0  0  0  0  0
  195.2500  174.4090  137.7050 C   0  0  0  0  0  0  0  0  0  0  0  0
  194.3870  173.2210  137.3130 C   0  0  0  0  0  1  0  0  0  0  0  0
  195.7490  175.2710  139.8940 O   0  0  0  0  0  1  0  0  0  0  0  0
  195.8240  174.1320  139.0880 C   0  0  0  0  0  2  0  0  0  0  0  0
  2 12  1  0  0  0  0
  3 13  1  0  0  0  0
  4  7  1  0  0  0  0
  4  2  2  0  0  0  0
  5  8  1  0  0  0  0
  5  3  1  0  0  0  0
  6  7  1  0  0  0  0
  6 10  2  0  0  0  0
  7  5  2  0  0  0  0
  8 11  1  0  0  0  0
 10  8  1  0  0  0  0
 11  1  2  0  0  0  0
 11  9  1  0  0  0  0
 12  3  2  0  0  0  0
 13 14  2  0  0  0  0
 14 16  1  0  0  0  0
 15 20  1  0  0  0  0
 16 19  2  0  0  0  0
 16 18  1  0  0  0  0
 17 21  1  0  0  0  0
 17 20  2  0  0  0  0
 18 15  2  0  0  0  0
 19 17  1  0  0  0  0
 22 23  1  0  0  0  0
 22 21  1  0  0  0  0
 24 10  1  0  0  0  0
 25 24  1  0  0  0  0
 26 25  1  0  0  0  0
 27 26  1  0  0  0  0
 27 29  1  0  0  0  0
 28 27  2  0  0  0  0
 30 31  1  0  0  0  0
 31 29  1  0  0  0  0
 31 34  1  0  0  0  0
 32 31  1  0  0  0  0
 34 33  1  0  0  0  0
M  END
>  <MODEL>
6

>  <REMARK>
 VINA RESULT:      -7.8      3.234      6.511
  Name = 
  11 active torsions:
  status: ('A' for Active; 'I' for Inactive)
    1  A    between atoms: O_1  and  C_9
    2  A    between atoms: O_1  and  N_22
    3  A    between atoms: C_4  and  C_6
    4  A    between atoms: C_4  and  O_24
    5  A    between atoms: C_6  and  N_18
    6  A    between atoms: C_7  and  C_28
    7  A    between atoms: C_8  and  C_29
    8  A    between atoms: C_11  and  N_18
    9  A    between atoms: C_11  and  C_30
   10  A    between atoms: C_14  and  C_17
   11  A    between atoms: O_24  and  C_28
                            x       y       z     vdW  Elec       q    Type
                         _______ _______ _______ _____ _____    ______ ____

>  <TORSDO>
F 11

$$$$
=
 OpenBabel10222418203D

 34 36  0  0  0  0  0  0  0  0999 V2000
  183.7990  177.9330  141.6970 O   0  0  0  0  0  0  0  0  0  0  0  0
  187.4330  177.7860  146.7360 C   0  0  0  0  0  3  0  0  0  0  0  0
  187.0440  177.7590  144.3120 C   0  0  0  0  0  0  0  0  0  0  0  0
  186.1350  178.2710  146.9630 C   0  0  0  0  0  3  0  0  0  0  0  0
  185.7590  178.2740  144.5720 C   0  0  0  0  0  0  0  0  0  0  0  0
  184.0550  178.9340  145.8620 N   0  0  0  0  0  0  0  0  0  0  0  0
  185.3270  178.5000  145.8540 C   0  0  0  0  0  0  0  0  0  0  0  0
  184.7470  178.5750  143.7290 N   0  0  0  0  0  0  0  0  0  0  0  0
  185.6830  179.3640  141.5020 C   0  0  0  0  0  1  0  0  0  0  0  0
  183.7340  178.9660  144.5450 C   0  0  0  0  0  0  0  0  0  0  0  0
  184.7130  178.5570  142.2950 C   0  0  0  0  0  0  0  0  0  0  0  0
  187.8820  177.5300  145.4250 C   0  0  0  0  0  3  0  0  0  0  0  0
  187.5060  177.4530  142.9480 C   0  0  0  0  0  3  0  0  0  0  0  0
  188.7120  177.7920  142.4960 C   0  0  0  0  0  3  0  0  0  0  0  0
  190.8370  176.5910  139.6390 C   0  0  0  0  0  3  0  0  0  0  0  0
  189.1520  177.5040  141.1250 C   0  0  0  0  0  0  0  0  0  0  0  0
  188.8440  177.6240  138.7140 C   0  0  0  0  0  0  0  0  0  0  0  0
  190.3780  176.8610  140.9310 C   0  0  0  0  0  3  0  0  0  0  0  0
  188.3870  177.8850  140.0100 C   0  0  0  0  0  3  0  0  0  0  0  0
  190.0740  176.9750  138.5330 C   0  0  0  0  0  3  0  0  0  0  0  0
  188.0650  178.0180  137.6240 O   0  0  0  0  0  0  0  0  0  0  0  0
  186.7760  178.4750  137.7880 N   0  0  0  0  0  2  0  0  0  0  0  0
  185.9090  177.5380  137.0980 C   0  0  0  0  0  1  0  0  0  0  0  0
  182.3910  179.3950  144.0570 C   0  0  0  0  0  2  0  0  0  0  0  0
  181.4680  178.2750  144.1130 N   0  0  0  0  0  2  0  0  0  0  0  0
  180.2320  178.7240  143.4980 C   0  0  0  0  0  2  0  0  0  0  0  0
  180.0800  178.0880  142.1630 C   0  0  0  0  0  0  0  0  0  0  0  0
  179.3010  177.1060  142.0300 O   0  0  0  0  0  0  0  0  0  0  0  0
  180.8230  178.5750  141.0780 O   0  0  0  0  0  0  0  0  0  0  0  0
  179.6910  178.2310  138.9500 C   0  0  0  0  0  1  0  0  0  0  0  0
  180.2570  179.2380  139.9410 C   0  0  0  0  0  0  0  0  0  0  0  0
  181.3090  180.0880  139.2480 C   0  0  0  0  0  1  0  0  0  0  0  0
  179.6700  181.3300  140.9720 O   0  0  0  0  0  1  0  0  0  0  0  0
  179.1430  180.1650  140.4080 C   0  0  0  0  0  2  0  0  0  0  0  0
  1 11  2  0  0  0  0
  2  4  1  0  0  0  0
  3  5  2  0  0  0  0
  3 12  1  0  0  0  0
  5  7  1  0  0  0  0
  7  6  1  0  0  0  0
  7  4  2  0  0  0  0
  8 10  1  0  0  0  0
  8  5  1  0  0  0  0
  9 11  1  0  0  0  0
 10  6  2  0  0  0  0
 11  8  1  0  0  0  0
 12  2  2  0  0  0  0
 13  3  1  0  0  0  0
 14 13  2  0  0  0  0
 15 18  1  0  0  0  0
 16 14  1  0  0  0  0
 17 19  2  0  0  0  0
 18 16  2  0  0  0  0
 19 16  1  0  0  0  0
 20 17  1  0  0  0  0
 20 15  2  0  0  0  0
 21 22  1  0  0  0  0
 21 17  1  0  0  0  0
 23 22  1  0  0  0  0
 24 25  1  0  0  0  0
 24 10  1  0  0  0  0
 26 25  1  0  0  0  0
 27 26  1  0  0  0  0
 28 27  2  0  0  0  0
 29 27  1  0  0  0  0
 30 31  1  0  0  0  0
 31 34  1  0  0  0  0
 31 29  1  0  0  0  0
 32 31  1  0  0  0  0
 34 33  1  0  0  0  0
M  END
>  <MODEL>
7

>  <REMARK>
 VINA RESULT:      -7.7      2.677      7.280
  Name = 
  11 active torsions:
  status: ('A' for Active; 'I' for Inactive)
    1  A    between atoms: O_1  and  C_9
    2  A    between atoms: O_1  and  N_22
    3  A    between atoms: C_4  and  C_6
    4  A    between atoms: C_4  and  O_24
    5  A    between atoms: C_6  and  N_18
    6  A    between atoms: C_7  and  C_28
    7  A    between atoms: C_8  and  C_29
    8  A    between atoms: C_11  and  N_18
    9  A    between atoms: C_11  and  C_30
   10  A    between atoms: C_14  and  C_17
   11  A    between atoms: O_24  and  C_28
                            x       y       z     vdW  Elec       q    Type
                         _______ _______ _______ _____ _____    ______ ____

>  <TORSDO>
F 11

$$$$
=
 OpenBabel10222418203D

 34 36  0  0  0  0  0  0  0  0999 V2000
  189.5570  177.0180  141.0720 O   0  0  0  0  0  0  0  0  0  0  0  0
  183.6210  178.7830  141.5940 C   0  0  0  0  0  3  0  0  0  0  0  0
  185.8490  178.2900  142.4990 C   0  0  0  0  0  0  0  0  0  0  0  0
  184.1370  178.8410  140.2890 C   0  0  0  0  0  3  0  0  0  0  0  0
  186.3400  178.3850  141.1820 C   0  0  0  0  0  0  0  0  0  0  0  0
  186.1800  178.6220  138.9640 N   0  0  0  0  0  0  0  0  0  0  0  0
  185.5030  178.6330  140.1250 C   0  0  0  0  0  0  0  0  0  0  0  0
  187.5900  178.2140  140.6970 N   0  0  0  0  0  0  0  0  0  0  0  0
  189.2970  178.9470  142.4310 C   0  0  0  0  0  1  0  0  0  0  0  0
  187.4520  178.3620  139.3540 C   0  0  0  0  0  0  0  0  0  0  0  0
  188.8210  177.9850  141.3970 C   0  0  0  0  0  0  0  0  0  0  0  0
  184.4660  178.5070  142.6870 C   0  0  0  0  0  3  0  0  0  0  0  0
  186.7200  177.9650  143.6400 C   0  0  0  0  0  3  0  0  0  0  0  0
  186.4010  178.2490  144.9020 C   0  0  0  0  0  3  0  0  0  0  0  0
  187.6610  177.9140  148.4260 C   0  0  0  0  0  3  0  0  0  0  0  0
  187.2910  177.9430  146.0300 C   0  0  0  0  0  0  0  0  0  0  0  0
  189.4290  177.2000  146.9230 C   0  0  0  0  0  0  0  0  0  0  0  0
  186.8340  178.1730  147.3310 C   0  0  0  0  0  3  0  0  0  0  0  0
  188.5930  177.4550  145.8310 C   0  0  0  0  0  3  0  0  0  0  0  0
  188.9570  177.4320  148.2230 C   0  0  0  0  0  3  0  0  0  0  0  0
  190.7210  176.7200  146.6960 O   0  0  0  0  0  0  0  0  0  0  0  0
  191.7260  176.8920  147.6220 N   0  0  0  0  0  2  0  0  0  0  0  0
  192.4350  175.6290  147.7090 C   0  0  0  0  0  1  0  0  0  0  0  0
  188.5820  178.2520  138.3850 C   0  0  0  0  0  2  0  0  0  0  0  0
  188.0890  177.7610  137.1100 N   0  0  0  0  0  2  0  0  0  0  0  0
  188.3730  176.3370  137.0760 C   0  0  0  0  0  2  0  0  0  0  0  0
  189.3780  176.0550  136.0160 C   0  0  0  0  0  0  0  0  0  0  0  0
  189.0070  175.5070  134.9430 O   0  0  0  0  0  0  0  0  0  0  0  0
  190.7240  176.3810  136.2370 O   0  0  0  0  0  0  0  0  0  0  0  0
  192.9740  175.4500  136.2370 C   0  0  0  0  0  1  0  0  0  0  0  0
  191.6450  175.5640  136.9700 C   0  0  0  0  0  0  0  0  0  0  0  0
  191.0660  174.1740  137.1800 C   0  0  0  0  0  1  0  0  0  0  0  0
  193.1470  176.7650  138.4140 O   0  0  0  0  0  1  0  0  0  0  0  0
  191.8780  176.1830  138.3410 C   0  0  0  0  0  2  0  0  0  0  0  0
  1 11  2  0  0  0  0
  2 12  1  0  0  0  0
  3 12  2  0  0  0  0
  3 13  1  0  0  0  0
  4  2  2  0  0  0  0
  5  3  1  0  0  0  0
  6 10  2  0  0  0  0
  6  7  1  0  0  0  0
  7  4  1  0  0  0  0
  7  5  2  0  0  0  0
  8  5  1  0  0  0  0
  8 11  1  0  0  0  0
 10  8  1  0  0  0  0
 11  9  1  0  0  0  0
 13 14  2  0  0  0  0
 14 16  1  0  0  0  0
 16 18  1  0  0  0  0
 17 20  2  0  0  0  0
 18 15  2  0  0  0  0
 19 16  2  0  0  0  0
 19 17  1  0  0  0  0
 20 15  1  0  0  0  0
 21 17  1  0  0  0  0
 21 22  1  0  0  0  0
 22 23  1  0  0  0  0
 24 10  1  0  0  0  0
 25 24  1  0  0  0  0
 26 25  1  0  0  0  0
 27 29  1  0  0  0  0
 27 26  1  0  0  0  0
 28 27  2  0  0  0  0
 29 31  1  0  0  0  0
 30 31  1  0  0  0  0
 31 32  1  0  0  0  0
 31 34  1  0  0  0  0
 34 33  1  0  0  0  0
M  END
>  <MODEL>
8

>  <REMARK>
 VINA RESULT:      -7.6      2.350      6.151
  Name = 
  11 active torsions:
  status: ('A' for Active; 'I' for Inactive)
    1  A    between atoms: O_1  and  C_9
    2  A    between atoms: O_1  and  N_22
    3  A    between atoms: C_4  and  C_6
    4  A    between atoms: C_4  and  O_24
    5  A    between atoms: C_6  and  N_18
    6  A    between atoms: C_7  and  C_28
    7  A    between atoms: C_8  and  C_29
    8  A    between atoms: C_11  and  N_18
    9  A    between atoms: C_11  and  C_30
   10  A    between atoms: C_14  and  C_17
   11  A    between atoms: O_24  and  C_28
                            x       y       z     vdW  Elec       q    Type
                         _______ _______ _______ _____ _____    ______ ____

>  <TORSDO>
F 11

$$$$
=
 OpenBabel10222418203D

 34 36  0  0  0  0  0  0  0  0999 V2000
  188.7050  178.8870  142.0780 O   0  0  0  0  0  0  0  0  0  0  0  0
  188.5450  177.4560  148.1240 C   0  0  0  0  0  3  0  0  0  0  0  0
  187.5580  177.6130  145.8820 C   0  0  0  0  0  0  0  0  0  0  0  0
  189.8350  177.6180  147.5940 C   0  0  0  0  0  3  0  0  0  0  0  0
  188.8680  177.7440  145.3790 C   0  0  0  0  0  0  0  0  0  0  0  0
  191.0900  177.9540  145.5220 N   0  0  0  0  0  0  0  0  0  0  0  0
  189.9540  177.7620  146.2150 C   0  0  0  0  0  0  0  0  0  0  0  0
  189.3080  177.9210  144.1140 N   0  0  0  0  0  0  0  0  0  0  0  0
  187.7480  176.7520  142.4830 C   0  0  0  0  0  1  0  0  0  0  0  0
  190.6550  178.0470  144.2420 C   0  0  0  0  0  0  0  0  0  0  0  0
  188.5750  177.9260  142.8810 C   0  0  0  0  0  0  0  0  0  0  0  0
  187.4180  177.4570  147.2780 C   0  0  0  0  0  3  0  0  0  0  0  0
  186.3750  177.6510  145.0080 C   0  0  0  0  0  3  0  0  0  0  0  0
  185.6720  178.7600  144.7840 C   0  0  0  0  0  3  0  0  0  0  0  0
  183.5250  178.7890  141.7000 C   0  0  0  0  0  3  0  0  0  0  0  0
  184.4770  178.7800  143.9300 C   0  0  0  0  0  0  0  0  0  0  0  0
  182.0640  178.9050  143.6360 C   0  0  0  0  0  0  0  0  0  0  0  0
  184.6390  178.7490  142.5420 C   0  0  0  0  0  3  0  0  0  0  0  0
  183.1840  178.8580  144.4730 C   0  0  0  0  0  3  0  0  0  0  0  0
  182.2410  178.8700  142.2450 C   0  0  0  0  0  3  0  0  0  0  0  0
  180.7910  178.9880  144.2030 O   0  0  0  0  0  0  0  0  0  0  0  0
  179.7630  179.6540  143.5720 N   0  0  0  0  0  2  0  0  0  0  0  0
  179.1090  178.6900  142.7070 C   0  0  0  0  0  1  0  0  0  0  0  0
  191.5820  178.2670  143.0930 C   0  0  0  0  0  2  0  0  0  0  0  0
  191.5320  177.1260  142.1960 N   0  0  0  0  0  2  0  0  0  0  0  0
  191.7730  177.6370  140.8590 C   0  0  0  0  0  2  0  0  0  0  0  0
  190.6790  177.1960  139.9530 C   0  0  0  0  0  0  0  0  0  0  0  0
  190.4720  175.9640  139.7860 O   0  0  0  0  0  0  0  0  0  0  0  0
  189.9110  178.1580  139.2810 O   0  0  0  0  0  0  0  0  0  0  0  0
  189.7600  176.7430  137.3050 C   0  0  0  0  0  1  0  0  0  0  0  0
  189.1610  177.9050  138.0860 C   0  0  0  0  0  0  0  0  0  0  0  0
  189.1380  179.1440  137.2060 C   0  0  0  0  0  1  0  0  0  0  0  0
  187.2040  178.5290  139.3370 O   0  0  0  0  0  1  0  0  0  0  0  0
  187.7230  177.5720  138.4610 C   0  0  0  0  0  2  0  0  0  0  0  0
  1 11  2  0  0  0  0
  3 12  1  0  0  0  0
  4  2  1  0  0  0  0
  5  3  2  0  0  0  0
  5  7  1  0  0  0  0
  6  7  1  0  0  0  0
  7  4  2  0  0  0  0
  8 10  1  0  0  0  0
  8  5  1  0  0  0  0
  9 11  1  0  0  0  0
 10  6  2  0  0  0  0
 11  8  1  0  0  0  0
 12  2  2  0  0  0  0
 13  3  1  0  0  0  0
 14 13  2  0  0  0  0
 15 20  2  0  0  0  0
 15 18  1  0  0  0  0
 16 19  1  0  0  0  0
 16 14  1  0  0  0  0
 17 21  1  0  0  0  0
 17 19  2  0  0  0  0
 18 16  2  0  0  0  0
 20 17  1  0  0  0  0
 22 21  1  0  0  0  0
 23 22  1  0  0  0  0
 24 10  1  0  0  0  0
 25 24  1  0  0  0  0
 26 25  1  0  0  0  0
 27 26  1  0  0  0  0
 28 27  2  0  0  0  0
 29 27  1  0  0  0  0
 30 31  1  0  0  0  0
 31 34  1  0  0  0  0
 31 29  1  0  0  0  0
 32 31  1  0  0  0  0
 34 33  1  0  0  0  0
M  END
>  <MODEL>
9

>  <REMARK>
 VINA RESULT:      -7.6      1.491      2.106
  Name = 
  11 active torsions:
  status: ('A' for Active; 'I' for Inactive)
    1  A    between atoms: O_1  and  C_9
    2  A    between atoms: O_1  and  N_22
    3  A    between atoms: C_4  and  C_6
    4  A    between atoms: C_4  and  O_24
    5  A    between atoms: C_6  and  N_18
    6  A    between atoms: C_7  and  C_28
    7  A    between atoms: C_8  and  C_29
    8  A    between atoms: C_11  and  N_18
    9  A    between atoms: C_11  and  C_30
   10  A    between atoms: C_14  and  C_17
   11  A    between atoms: O_24  and  C_28
                            x       y       z     vdW  Elec       q    Type
                         _______ _______ _______ _____ _____    ______ ____

>  <TORSDO>
F 11

$$$$
