=
 OpenBabel10222418383D

 66 70  0  0  1  0  0  0  0  0999 V2000
  188.5100  176.9150  141.5890 C   0  0  0  0  0  2  0  0  0  0  0  0
  189.9950  177.1860  141.5650 C   0  0  2  0  0  3  0  0  0  0  0  0
  189.0940  177.9460  143.6990 C   0  0  2  0  0  3  0  0  0  0  0  0
  188.1320  176.9560  143.0490 C   0  0  0  0  0  2  0  0  0  0  0  0
  190.2410  178.1380  142.7140 C   0  0  0  0  0  2  0  0  0  0  0  0
  189.0410  177.7230  146.2140 C   0  0  0  0  0  0  0  0  0  0  0  0
  189.6270  177.4050  144.9380 N   0  0  0  0  0  2  0  0  0  0  0  0
  189.7430  177.6150  147.3200 N   0  0  0  0  0  0  0  0  0  0  0  0
  191.1070  177.1660  147.4120 C   0  0  0  0  0  0  0  0  0  0  0  0
  191.7120  177.1270  148.5230 O   0  0  0  0  0  0  0  0  0  0  0  0
  191.7860  176.6370  146.1910 C   0  0  0  0  0  2  0  0  0  0  0  0
  192.3010  175.2190  146.4150 C   0  0  0  0  0  2  0  0  0  0  0  0
  192.3170  174.4950  145.1830 O   0  0  0  0  0  0  0  0  0  0  0  0
  191.8480  175.0470  143.9830 C   0  0  0  0  0  0  0  0  0  0  0  0
  192.4810  175.9690  143.4080 O   0  0  0  0  0  0  0  0  0  0  0  0
  190.6430  174.6090  143.4520 O   0  0  0  0  0  1  0  0  0  0  0  0
  186.6630  177.5030  146.3840 C   0  0  0  0  0  3  0  0  0  0  0  0
  187.7100  178.2460  146.2500 N   0  0  0  0  0  0  0  0  0  0  0  0
  185.3210  178.1610  146.4430 C   0  0  0  0  0  2  0  0  0  0  0  0
  184.8750  178.6830  145.1170 C   0  0  0  0  0  0  0  0  0  0  0  0
  185.3850  178.1700  143.8590 C   0  0  0  0  0  3  0  0  0  0  0  0
  183.8210  179.4160  144.9610 N   0  0  0  0  0  0  0  0  0  0  0  0
  184.5810  178.6600  142.9250 C   0  0  0  0  0  0  0  0  0  0  0  0
  183.5510  179.5610  143.5320 C   0  0  1  0  0  3  0  0  0  0  0  0
  179.0340  178.4520  143.2860 C   0  0  0  0  0  2  0  0  0  0  0  0
  180.0790  178.1220  144.3260 C   0  0  0  0  0  2  0  0  0  0  0  0
  180.5230  178.9100  141.3500 C   0  0  0  0  0  0  0  0  0  0  0  0
  180.2390  179.5290  140.2880 O   0  0  0  0  0  0  0  0  0  0  0  0
  179.5110  177.9730  141.9410 C   0  0  0  0  0  2  0  0  0  0  0  0
  181.8150  179.1160  141.9330 N   0  0  0  0  0  0  0  0  0  0  0  0
  182.1580  179.1150  143.1930 C   0  0  0  0  0  0  0  0  0  0  0  0
  181.1890  179.0530  144.2550 N   0  0  0  0  0  2  0  0  0  0  0  0
  184.7440  178.3980  141.4580 C   0  0  0  0  0  2  0  0  0  0  0  0
  184.5520  179.5800  140.7520 O   0  0  0  0  0  0  0  0  0  0  0  0
  184.1790  179.1590  139.1500 P   0  0  0  0  0  0  0  0  0  0  0  0
  185.4160  178.9770  138.2940 O   0  0  0  0  0  0  0  0  0  0  0  0
  183.1860  180.3470  138.4640 O   0  0  0  0  0  1  0  0  0  0  0  0
  183.3330  177.6870  139.1560 O   0  0  0  0  0  1  0  0  0  0  0  0
  190.3940  177.7540  140.3180 O   0  0  0  0  0  0  0  0  0  0  0  0
  188.7580  179.0900  139.3730 O   0  0  0  0  0  0  0  0  0  0  0  0
  189.4640  178.0370  139.3200 C   0  0  0  0  0  0  0  0  0  0  0  0
  190.3090  175.8290  138.0350 S   0  0  0  0  0  0  0  0  0  0  0  0
  189.3680  177.1550  138.1340 C   0  0  1  0  0  3  0  0  0  0  0  0
  187.4200  175.2970  137.4800 O   0  0  0  0  0  1  0  0  0  0  0  0
  188.6640  175.9480  134.6720 C   0  0  0  0  0  2  0  0  0  0  0  0
  187.2660  176.4660  136.7150 C   0  0  1  0  0  3  0  0  0  0  0  0
  189.5910  177.0970  135.1020 C   0  0  0  0  0  2  0  0  0  0  0  0
  188.3740  177.5110  137.0460 C   0  0  2  0  0  3  0  0  0  0  0  0
  188.9510  178.0810  135.8830 O   0  0  0  0  0  0  0  0  0  0  0  0
  186.4730  175.0130  134.9420 O   0  0  0  0  0  1  0  0  0  0  0  0
  187.2530  176.1400  135.2120 C   0  0  2  0  0  3  0  0  0  0  0  0
  191.9830  176.4780  138.1420 C   0  0  0  0  0  2  0  0  0  0  0  0
  192.6850  176.2290  136.8170 C   0  0  0  0  0  2  0  0  0  0  0  0
  192.0880  175.0590  136.0460 C   0  0  0  0  0  2  0  0  0  0  0  0
  193.0870  173.9410  135.7180 C   0  0  2  0  0  3  0  0  0  0  0  0
  192.4010  172.7800  135.0270 C   0  0  0  0  0  2  0  0  0  0  0  0
  190.9280  172.7590  135.3840 C   0  0  0  0  0  1  0  0  0  0  0  0
  193.7540  173.4410  136.9970 C   0  0  0  0  0  2  0  0  0  0  0  0
  195.0850  172.7460  136.7450 C   0  0  0  0  0  2  0  0  0  0  0  0
  196.1890  173.6580  137.1540 C   0  0  0  0  0  0  0  0  0  0  0  0
  196.8160  173.6000  138.3350 N   0  0  0  0  0  0  0  0  0  0  0  0
  196.6500  174.7240  136.4130 C   0  0  0  0  0  3  0  0  0  0  0  0
  197.6610  174.6440  138.2870 C   0  0  0  0  0  0  0  0  0  0  0  0
  197.5770  175.3550  137.1550 N   0  0  0  0  0  2  0  0  0  0  0  0
  198.4880  175.0580  139.4490 C   0  0  0  0  0  2  0  0  0  0  0  0
  197.6130  175.3760  140.6470 C   0  0  0  0  0  1  0  0  0  0  0  0
  1  4  1  0  0  0  0
  2 39  1  6  0  0  0
  2  1  1  0  0  0  0
  2  5  1  0  0  0  0
  3  7  1  1  0  0  0
  4  3  1  0  0  0  0
  5  3  1  0  0  0  0
  6 18  1  0  0  0  0
  6  8  2  0  0  0  0
  7  6  1  0  0  0  0
  8  9  1  0  0  0  0
  9 10  2  0  0  0  0
 11 12  1  0  0  0  0
 11  9  1  0  0  0  0
 13 12  1  0  0  0  0
 14 13  1  0  0  0  0
 15 14  2  0  0  0  0
 16 14  1  0  0  0  0
 17 19  1  0  0  0  0
 18 17  2  0  0  0  0
 20 19  1  0  0  0  0
 21 20  1  0  0  0  0
 22 20  2  0  0  0  0
 23 24  1  0  0  0  0
 23 21  2  0  0  0  0
 24 31  1  1  0  0  0
 24 22  1  0  0  0  0
 25 26  1  0  0  0  0
 27 30  1  0  0  0  0
 27 29  1  0  0  0  0
 28 27  2  0  0  0  0
 29 25  1  0  0  0  0
 30 31  2  0  0  0  0
 31 32  1  0  0  0  0
 32 26  1  0  0  0  0
 33 23  1  0  0  0  0
 34 33  1  0  0  0  0
 35 38  1  0  0  0  0
 35 34  1  0  0  0  0
 36 35  2  0  0  0  0
 37 35  1  0  0  0  0
 41 40  2  0  0  0  0
 41 39  1  0  0  0  0
 42 52  1  0  0  0  0
 43 42  1  1  0  0  0
 43 41  1  0  0  0  0
 45 47  1  0  0  0  0
 45 51  1  0  0  0  0
 46 48  1  0  0  0  0
 46 44  1  1  0  0  0
 47 49  1  0  0  0  0
 48 43  1  6  0  0  0
 49 48  1  0  0  0  0
 51 50  1  1  0  0  0
 51 46  1  0  0  0  0
 53 52  1  0  0  0  0
 54 53  1  0  0  0  0
 55 56  1  1  0  0  0
 55 54  1  0  0  0  0
 55 58  1  0  0  0  0
 56 57  1  0  0  0  0
 59 58  1  0  0  0  0
 59 60  1  0  0  0  0
 60 61  1  0  0  0  0
 62 60  2  0  0  0  0
 62 64  1  0  0  0  0
 63 61  2  0  0  0  0
 63 65  1  0  0  0  0
 64 63  1  0  0  0  0
 65 66  1  0  0  0  0
M  END
>  <MODEL>
1

>  <REMARK>
 VINA RESULT:      -7.1      0.000      0.000
  Name = 
  26 active torsions:
  status: ('A' for Active; 'I' for Inactive)
    1  A    between atoms: C_2  and  O_50
    2  A    between atoms: C_3  and  O_65
    3  A    between atoms: C_4  and  C_36
    4  A    between atoms: C_4  and  C_48
    5  A    between atoms: C_5  and  C_7
    6  A    between atoms: C_5  and  C_21
    7  A    between atoms: P_10  and  O_55
    8  A    between atoms: C_11  and  N_44
    9  A    between atoms: C_12  and  C_54
   10  A    between atoms: C_18  and  C_53
   11  A    between atoms: C_21  and  C_53
   12  A    between atoms: C_28  and  C_49
   13  A    between atoms: C_30  and  C_47
   14  A    between atoms: C_30  and  O_55
   15  A    between atoms: C_31  and  C_60
   16  A    between atoms: C_32  and  N_43
   17  A    between atoms: C_33  and  C_54
   18  A    between atoms: C_36  and  C_53
   19  A    between atoms: C_37  and  C_42
   20  A    between atoms: C_37  and  O_50
   21  A    between atoms: S_38  and  C_48
   22  A    between atoms: C_40  and  C_57
   23  A    between atoms: C_40  and  C_59
   24  A    between atoms: C_42  and  C_45
   25  A    between atoms: C_57  and  O_65
   26  A    between atoms: N_58  and  C_59
                            x       y       z     vdW  Elec       q    Type
                         _______ _______ _______ _____ _____    ______ ____

>  <TORSDO>
F 26

$$$$
=
 OpenBabel10222418383D

 66 70  0  0  1  0  0  0  0  0999 V2000
  188.3830  177.1100  141.7510 C   0  0  0  0  0  2  0  0  0  0  0  0
  189.8670  177.3870  141.7970 C   0  0  2  0  0  3  0  0  0  0  0  0
  188.8870  178.0060  143.9420 C   0  0  2  0  0  3  0  0  0  0  0  0
  187.9540  177.0560  143.1960 C   0  0  0  0  0  2  0  0  0  0  0  0
  190.0670  178.2650  143.0120 C   0  0  0  0  0  2  0  0  0  0  0  0
  188.7410  177.6140  146.4330 C   0  0  0  0  0  0  0  0  0  0  0  0
  189.3790  177.3880  145.1620 N   0  0  0  0  0  2  0  0  0  0  0  0
  189.4010  177.4390  147.5550 N   0  0  0  0  0  0  0  0  0  0  0  0
  190.7660  176.9980  147.6700 C   0  0  0  0  0  0  0  0  0  0  0  0
  191.7160  177.8270  147.7810 O   0  0  0  0  0  0  0  0  0  0  0  0
  191.0570  175.5360  147.7670 C   0  0  0  0  0  2  0  0  0  0  0  0
  192.2980  175.1650  146.9620 C   0  0  0  0  0  2  0  0  0  0  0  0
  192.1960  175.6690  145.6300 O   0  0  0  0  0  0  0  0  0  0  0  0
  192.1070  174.8260  144.5140 C   0  0  0  0  0  0  0  0  0  0  0  0
  191.4880  175.1900  143.4800 O   0  0  0  0  0  0  0  0  0  0  0  0
  192.6590  173.5550  144.5680 O   0  0  0  0  0  1  0  0  0  0  0  0
  186.3600  177.3610  146.3930 C   0  0  0  0  0  3  0  0  0  0  0  0
  187.4020  178.1190  146.4510 N   0  0  0  0  0  0  0  0  0  0  0  0
  185.0080  177.9960  146.4540 C   0  0  0  0  0  2  0  0  0  0  0  0
  184.6470  178.7110  145.1940 C   0  0  0  0  0  0  0  0  0  0  0  0
  185.2660  178.4100  143.9160 C   0  0  0  0  0  3  0  0  0  0  0  0
  183.5870  179.4400  145.0700 N   0  0  0  0  0  0  0  0  0  0  0  0
  184.5210  179.0250  143.0080 C   0  0  0  0  0  0  0  0  0  0  0  0
  183.4210  179.8020  143.6640 C   0  0  1  0  0  3  0  0  0  0  0  0
  179.0140  178.4920  142.9160 C   0  0  0  0  0  2  0  0  0  0  0  0
  180.0810  177.9120  143.8160 C   0  0  0  0  0  2  0  0  0  0  0  0
  180.4660  179.6940  141.2960 C   0  0  0  0  0  0  0  0  0  0  0  0
  180.1330  180.6120  140.4970 O   0  0  0  0  0  0  0  0  0  0  0  0
  179.5340  178.5360  141.5030 C   0  0  0  0  0  2  0  0  0  0  0  0
  181.7330  179.7910  141.9550 N   0  0  0  0  0  0  0  0  0  0  0  0
  182.0710  179.3900  143.1500 C   0  0  0  0  0  0  0  0  0  0  0  0
  181.1080  178.8960  144.0980 N   0  0  0  0  0  2  0  0  0  0  0  0
  184.8010  178.9990  141.5360 C   0  0  0  0  0  2  0  0  0  0  0  0
  183.9590  178.0810  140.9190 O   0  0  0  0  0  0  0  0  0  0  0  0
  183.8020  178.5480  139.2950 P   0  0  0  0  0  0  0  0  0  0  0  0
  182.4110  178.2920  138.7490 O   0  0  0  0  0  1  0  0  0  0  0  0
  184.9400  177.7240  138.3510 O   0  0  0  0  0  0  0  0  0  0  0  0
  184.1050  180.2140  139.1740 O   0  0  0  0  0  1  0  0  0  0  0  0
  190.3060  178.0360  140.6040 O   0  0  0  0  0  0  0  0  0  0  0  0
  188.5360  178.5880  139.2200 O   0  0  0  0  0  0  0  0  0  0  0  0
  189.5960  177.9180  139.4110 C   0  0  0  0  0  0  0  0  0  0  0  0
  189.8610  177.5030  136.7660 S   0  0  0  0  0  0  0  0  0  0  0  0
  190.1350  177.0790  138.3150 C   0  0  1  0  0  3  0  0  0  0  0  0
  192.8970  177.2880  138.3340 O   0  0  0  0  0  1  0  0  0  0  0  0
  192.4480  174.7870  136.4900 C   0  0  0  0  0  2  0  0  0  0  0  0
  192.4950  175.9960  138.7110 C   0  0  1  0  0  3  0  0  0  0  0  0
  190.9290  174.6400  136.6820 C   0  0  0  0  0  2  0  0  0  0  0  0
  190.9430  175.8500  138.6750 C   0  0  2  0  0  3  0  0  0  0  0  0
  190.5230  174.6570  138.0330 O   0  0  0  0  0  0  0  0  0  0  0  0
  194.5170  175.2190  137.6200 O   0  0  0  0  0  1  0  0  0  0  0  0
  193.1650  174.9310  137.8260 C   0  0  2  0  0  3  0  0  0  0  0  0
  188.0670  177.5460  136.6390 C   0  0  0  0  0  2  0  0  0  0  0  0
  187.5420  176.1220  136.7310 C   0  0  0  0  0  2  0  0  0  0  0  0
  186.3090  175.8930  135.8680 C   0  0  0  0  0  2  0  0  0  0  0  0
  185.5000  174.6420  136.2390 C   0  0  2  0  0  3  0  0  0  0  0  0
  185.7840  173.5030  135.2810 C   0  0  0  0  0  2  0  0  0  0  0  0
  186.2390  172.2780  136.0510 C   0  0  0  0  0  1  0  0  0  0  0  0
  184.0060  174.9570  136.2150 C   0  0  0  0  0  2  0  0  0  0  0  0
  183.1320  173.7230  136.3890 C   0  0  0  0  0  2  0  0  0  0  0  0
  181.8660  174.1210  137.0650 C   0  0  0  0  0  0  0  0  0  0  0  0
  181.8100  174.8220  138.2040 N   0  0  0  0  0  0  0  0  0  0  0  0
  180.6020  173.7540  136.6590 C   0  0  0  0  0  3  0  0  0  0  0  0
  180.4930  174.8720  138.4700 C   0  0  0  0  0  0  0  0  0  0  0  0
  179.7360  174.2250  137.5740 N   0  0  0  0  0  2  0  0  0  0  0  0
  179.9520  175.4510  139.7260 C   0  0  0  0  0  2  0  0  0  0  0  0
  179.6090  174.3570  140.7190 C   0  0  0  0  0  1  0  0  0  0  0  0
  1  2  1  0  0  0  0
  1  4  1  0  0  0  0
  2 39  1  6  0  0  0
  2  5  1  0  0  0  0
  3  7  1  1  0  0  0
  4  3  1  0  0  0  0
  5  3  1  0  0  0  0
  6 18  1  0  0  0  0
  6  8  2  0  0  0  0
  7  6  1  0  0  0  0
  8  9  1  0  0  0  0
  9 11  1  0  0  0  0
  9 10  2  0  0  0  0
 12 11  1  0  0  0  0
 13 12  1  0  0  0  0
 14 16  1  0  0  0  0
 14 13  1  0  0  0  0
 15 14  2  0  0  0  0
 17 18  2  0  0  0  0
 17 19  1  0  0  0  0
 20 19  1  0  0  0  0
 21 20  1  0  0  0  0
 22 20  2  0  0  0  0
 23 24  1  0  0  0  0
 23 21  2  0  0  0  0
 24 31  1  6  0  0  0
 24 22  1  0  0  0  0
 25 26  1  0  0  0  0
 26 32  1  0  0  0  0
 27 29  1  0  0  0  0
 27 30  1  0  0  0  0
 28 27  2  0  0  0  0
 29 25  1  0  0  0  0
 30 31  2  0  0  0  0
 31 32  1  0  0  0  0
 33 23  1  0  0  0  0
 34 33  1  0  0  0  0
 35 34  1  0  0  0  0
 36 35  1  0  0  0  0
 37 35  2  0  0  0  0
 38 35  1  0  0  0  0
 40 41  2  0  0  0  0
 41 39  1  0  0  0  0
 43 42  1  6  0  0  0
 43 41  1  0  0  0  0
 45 47  1  0  0  0  0
 45 51  1  0  0  0  0
 46 44  1  6  0  0  0
 47 49  1  0  0  0  0
 48 43  1  6  0  0  0
 48 46  1  0  0  0  0
 49 48  1  0  0  0  0
 51 50  1  6  0  0  0
 51 46  1  0  0  0  0
 52 53  1  0  0  0  0
 52 42  1  0  0  0  0
 54 55  1  0  0  0  0
 54 53  1  0  0  0  0
 55 56  1  6  0  0  0
 56 57  1  0  0  0  0
 58 55  1  0  0  0  0
 58 59  1  0  0  0  0
 59 60  1  0  0  0  0
 60 61  1  0  0  0  0
 61 63  2  0  0  0  0
 62 60  2  0  0  0  0
 62 64  1  0  0  0  0
 63 65  1  0  0  0  0
 64 63  1  0  0  0  0
 65 66  1  0  0  0  0
M  END
>  <MODEL>
2

>  <REMARK>
 VINA RESULT:      -6.9      2.667      6.419
  Name = 
  26 active torsions:
  status: ('A' for Active; 'I' for Inactive)
    1  A    between atoms: C_2  and  O_50
    2  A    between atoms: C_3  and  O_65
    3  A    between atoms: C_4  and  C_36
    4  A    between atoms: C_4  and  C_48
    5  A    between atoms: C_5  and  C_7
    6  A    between atoms: C_5  and  C_21
    7  A    between atoms: P_10  and  O_55
    8  A    between atoms: C_11  and  N_44
    9  A    between atoms: C_12  and  C_54
   10  A    between atoms: C_18  and  C_53
   11  A    between atoms: C_21  and  C_53
   12  A    between atoms: C_28  and  C_49
   13  A    between atoms: C_30  and  C_47
   14  A    between atoms: C_30  and  O_55
   15  A    between atoms: C_31  and  C_60
   16  A    between atoms: C_32  and  N_43
   17  A    between atoms: C_33  and  C_54
   18  A    between atoms: C_36  and  C_53
   19  A    between atoms: C_37  and  C_42
   20  A    between atoms: C_37  and  O_50
   21  A    between atoms: S_38  and  C_48
   22  A    between atoms: C_40  and  C_57
   23  A    between atoms: C_40  and  C_59
   24  A    between atoms: C_42  and  C_45
   25  A    between atoms: C_57  and  O_65
   26  A    between atoms: N_58  and  C_59
                            x       y       z     vdW  Elec       q    Type
                         _______ _______ _______ _____ _____    ______ ____

>  <TORSDO>
F 26

$$$$
=
 OpenBabel10222418383D

 66 70  0  0  1  0  0  0  0  0999 V2000
  188.1570  178.1700  136.8770 C   0  0  0  0  0  2  0  0  0  0  0  0
  187.7370  176.7480  137.1670 C   0  0  2  0  0  3  0  0  0  0  0  0
  189.8360  176.7070  135.9270 C   0  0  2  0  0  3  0  0  0  0  0  0
  189.6290  178.0810  136.5590 C   0  0  0  0  0  2  0  0  0  0  0  0
  188.5930  175.8910  136.2620 C   0  0  0  0  0  2  0  0  0  0  0  0
  191.3050  176.1500  137.9040 C   0  0  0  0  0  0  0  0  0  0  0  0
  190.9980  176.0490  136.5020 N   0  0  0  0  0  2  0  0  0  0  0  0
  192.5300  175.9500  138.3380 N   0  0  0  0  0  0  0  0  0  0  0  0
  193.6650  175.5990  137.5260 C   0  0  0  0  0  0  0  0  0  0  0  0
  194.2360  176.4570  136.7910 O   0  0  0  0  0  0  0  0  0  0  0  0
  194.2440  174.2270  137.6350 C   0  0  0  0  0  2  0  0  0  0  0  0
  194.0050  173.4240  136.3610 C   0  0  0  0  0  2  0  0  0  0  0  0
  194.9290  172.3370  136.2770 O   0  0  0  0  0  0  0  0  0  0  0  0
  194.6410  171.0670  136.7950 C   0  0  0  0  0  0  0  0  0  0  0  0
  193.7900  170.3240  136.2410 O   0  0  0  0  0  0  0  0  0  0  0  0
  195.2600  170.6460  137.9630 O   0  0  0  0  0  1  0  0  0  0  0  0
  190.4810  177.3610  139.7980 C   0  0  0  0  0  3  0  0  0  0  0  0
  190.2750  176.5590  138.8080 N   0  0  0  0  0  0  0  0  0  0  0  0
  189.3220  177.7490  140.6600 C   0  0  0  0  0  2  0  0  0  0  0  0
  189.4900  177.3210  142.0810 C   0  0  0  0  0  0  0  0  0  0  0  0
  190.5860  177.7790  142.9140 C   0  0  0  0  0  3  0  0  0  0  0  0
  188.5530  176.7510  142.7660 N   0  0  0  0  0  0  0  0  0  0  0  0
  190.2610  177.4270  144.1510 C   0  0  0  0  0  0  0  0  0  0  0  0
  188.9680  176.6730  144.1640 C   0  0  1  0  0  3  0  0  0  0  0  0
  185.2570  178.4180  146.3730 C   0  0  0  0  0  2  0  0  0  0  0  0
  185.7190  178.5700  144.9430 C   0  0  0  0  0  2  0  0  0  0  0  0
  187.4200  177.8040  147.4320 C   0  0  0  0  0  0  0  0  0  0  0  0
  187.6000  177.2590  148.5560 O   0  0  0  0  0  0  0  0  0  0  0  0
  186.3620  178.8590  147.2960 C   0  0  0  0  0  2  0  0  0  0  0  0
  188.2520  177.4010  146.3390 N   0  0  0  0  0  0  0  0  0  0  0  0
  187.9590  177.3200  145.0690 C   0  0  0  0  0  0  0  0  0  0  0  0
  186.6180  177.4920  144.5750 N   0  0  0  0  0  2  0  0  0  0  0  0
  191.1200  177.6910  145.3500 C   0  0  0  0  0  2  0  0  0  0  0  0
  191.8780  176.5620  145.6350 O   0  0  0  0  0  0  0  0  0  0  0  0
  191.7570  176.2760  147.3040 P   0  0  0  0  0  0  0  0  0  0  0  0
  191.5040  177.5450  148.0940 O   0  0  0  0  0  1  0  0  0  0  0  0
  193.1740  175.5360  147.8620 O   0  0  0  0  0  1  0  0  0  0  0  0
  190.4530  175.2250  147.5850 O   0  0  0  0  0  0  0  0  0  0  0  0
  186.3470  176.5600  136.9070 O   0  0  0  0  0  0  0  0  0  0  0  0
  186.3700  176.5450  134.5940 O   0  0  0  0  0  0  0  0  0  0  0  0
  185.8970  176.0850  135.6770 C   0  0  0  0  0  0  0  0  0  0  0  0
  183.6390  175.0510  134.6420 S   0  0  0  0  0  0  0  0  0  0  0  0
  184.9310  174.9630  135.6310 C   0  0  1  0  0  3  0  0  0  0  0  0
  187.0310  173.2860  134.9590 O   0  0  0  0  0  1  0  0  0  0  0  0
  184.6400  171.2660  135.2020 C   0  0  0  0  0  2  0  0  0  0  0  0
  186.3930  172.8370  136.1280 C   0  0  1  0  0  3  0  0  0  0  0  0
  183.5810  172.2400  135.7450 C   0  0  0  0  0  2  0  0  0  0  0  0
  185.1870  173.7510  136.5040 C   0  0  2  0  0  3  0  0  0  0  0  0
  184.0260  173.0090  136.8410 O   0  0  0  0  0  0  0  0  0  0  0  0
  186.9360  170.5970  135.3750 O   0  0  0  0  0  1  0  0  0  0  0  0
  185.9450  171.3730  135.9810 C   0  0  2  0  0  3  0  0  0  0  0  0
  182.7800  176.5360  135.1820 C   0  0  0  0  0  2  0  0  0  0  0  0
  182.3780  176.3600  136.6370 C   0  0  0  0  0  2  0  0  0  0  0  0
  182.2930  177.6810  137.3890 C   0  0  0  0  0  2  0  0  0  0  0  0
  181.0940  177.7930  138.3410 C   0  0  2  0  0  3  0  0  0  0  0  0
  180.2130  176.5630  138.2580 C   0  0  0  0  0  2  0  0  0  0  0  0
  178.9500  176.7720  139.0710 C   0  0  0  0  0  1  0  0  0  0  0  0
  180.2650  179.0290  137.9980 C   0  0  0  0  0  2  0  0  0  0  0  0
  180.6710  179.6760  136.6820 C   0  0  0  0  0  2  0  0  0  0  0  0
  180.6770  181.1550  136.8540 C   0  0  0  0  0  0  0  0  0  0  0  0
  180.6590  182.0310  135.8410 N   0  0  0  0  0  0  0  0  0  0  0  0
  180.7850  181.8110  138.0600 C   0  0  0  0  0  3  0  0  0  0  0  0
  180.7530  183.2190  136.4620 C   0  0  0  0  0  0  0  0  0  0  0  0
  180.8500  183.1270  137.7950 N   0  0  0  0  0  2  0  0  0  0  0  0
  180.9000  184.4980  135.7210 C   0  0  0  0  0  2  0  0  0  0  0  0
  179.6540  184.7970  134.9090 C   0  0  0  0  0  1  0  0  0  0  0  0
  1  2  1  0  0  0  0
  2 39  1  6  0  0  0
  3  5  1  0  0  0  0
  3  7  1  1  0  0  0
  3  4  1  0  0  0  0
  4  1  1  0  0  0  0
  5  2  1  0  0  0  0
  6  8  2  0  0  0  0
  6 18  1  0  0  0  0
  7  6  1  0  0  0  0
  9 11  1  0  0  0  0
  9  8  1  0  0  0  0
 10  9  2  0  0  0  0
 12 11  1  0  0  0  0
 13 12  1  0  0  0  0
 13 14  1  0  0  0  0
 14 16  1  0  0  0  0
 15 14  2  0  0  0  0
 17 19  1  0  0  0  0
 18 17  2  0  0  0  0
 19 20  1  0  0  0  0
 20 22  2  0  0  0  0
 20 21  1  0  0  0  0
 21 23  2  0  0  0  0
 22 24  1  0  0  0  0
 23 24  1  0  0  0  0
 23 33  1  0  0  0  0
 24 31  1  1  0  0  0
 25 29  1  0  0  0  0
 26 25  1  0  0  0  0
 27 28  2  0  0  0  0
 29 27  1  0  0  0  0
 30 27  1  0  0  0  0
 31 30  2  0  0  0  0
 32 26  1  0  0  0  0
 32 31  1  0  0  0  0
 33 34  1  0  0  0  0
 34 35  1  0  0  0  0
 35 38  2  0  0  0  0
 35 37  1  0  0  0  0
 35 36  1  0  0  0  0
 40 41  2  0  0  0  0
 41 39  1  0  0  0  0
 42 52  1  0  0  0  0
 43 42  1  6  0  0  0
 43 41  1  0  0  0  0
 45 47  1  0  0  0  0
 45 51  1  0  0  0  0
 46 44  1  6  0  0  0
 46 48  1  0  0  0  0
 47 49  1  0  0  0  0
 48 43  1  6  0  0  0
 48 49  1  0  0  0  0
 51 50  1  6  0  0  0
 51 46  1  0  0  0  0
 52 53  1  0  0  0  0
 53 54  1  0  0  0  0
 55 54  1  6  0  0  0
 56 55  1  0  0  0  0
 56 57  1  0  0  0  0
 58 55  1  0  0  0  0
 59 60  1  0  0  0  0
 59 58  1  0  0  0  0
 60 62  2  0  0  0  0
 61 63  2  0  0  0  0
 61 60  1  0  0  0  0
 63 64  1  0  0  0  0
 64 62  1  0  0  0  0
 65 63  1  0  0  0  0
 66 65  1  0  0  0  0
M  END
>  <MODEL>
3

>  <REMARK>
 VINA RESULT:      -6.6      4.265     10.312
  Name = 
  26 active torsions:
  status: ('A' for Active; 'I' for Inactive)
    1  A    between atoms: C_2  and  O_50
    2  A    between atoms: C_3  and  O_65
    3  A    between atoms: C_4  and  C_36
    4  A    between atoms: C_4  and  C_48
    5  A    between atoms: C_5  and  C_7
    6  A    between atoms: C_5  and  C_21
    7  A    between atoms: P_10  and  O_55
    8  A    between atoms: C_11  and  N_44
    9  A    between atoms: C_12  and  C_54
   10  A    between atoms: C_18  and  C_53
   11  A    between atoms: C_21  and  C_53
   12  A    between atoms: C_28  and  C_49
   13  A    between atoms: C_30  and  C_47
   14  A    between atoms: C_30  and  O_55
   15  A    between atoms: C_31  and  C_60
   16  A    between atoms: C_32  and  N_43
   17  A    between atoms: C_33  and  C_54
   18  A    between atoms: C_36  and  C_53
   19  A    between atoms: C_37  and  C_42
   20  A    between atoms: C_37  and  O_50
   21  A    between atoms: S_38  and  C_48
   22  A    between atoms: C_40  and  C_57
   23  A    between atoms: C_40  and  C_59
   24  A    between atoms: C_42  and  C_45
   25  A    between atoms: C_57  and  O_65
   26  A    between atoms: N_58  and  C_59
                            x       y       z     vdW  Elec       q    Type
                         _______ _______ _______ _____ _____    ______ ____

>  <TORSDO>
F 26

$$$$
=
 OpenBabel10222418383D

 66 70  0  0  1  0  0  0  0  0999 V2000
  187.9200  178.4320  137.0600 C   0  0  0  0  0  2  0  0  0  0  0  0
  187.2180  177.1070  137.2370 C   0  0  2  0  0  3  0  0  0  0  0  0
  189.2940  176.7350  136.0150 C   0  0  2  0  0  3  0  0  0  0  0  0
  189.3520  178.0720  136.7480 C   0  0  0  0  0  2  0  0  0  0  0  0
  187.9050  176.1630  136.2760 C   0  0  0  0  0  2  0  0  0  0  0  0
  190.6500  175.8210  137.9390 C   0  0  0  0  0  0  0  0  0  0  0  0
  190.2870  175.8150  136.5460 N   0  0  0  0  0  2  0  0  0  0  0  0
  191.8060  175.3360  138.3320 N   0  0  0  0  0  0  0  0  0  0  0  0
  192.8040  174.7430  137.4820 C   0  0  0  0  0  0  0  0  0  0  0  0
  192.6890  173.5530  137.0660 O   0  0  0  0  0  0  0  0  0  0  0  0
  193.9420  175.5800  136.9970 C   0  0  0  0  0  2  0  0  0  0  0  0
  195.0040  174.7270  136.3110 C   0  0  0  0  0  2  0  0  0  0  0  0
  196.3090  175.2350  136.5930 O   0  0  0  0  0  0  0  0  0  0  0  0
  197.2090  174.5660  137.4340 C   0  0  0  0  0  0  0  0  0  0  0  0
  197.2380  173.3090  137.4760 O   0  0  0  0  0  0  0  0  0  0  0  0
  198.0390  175.2970  138.2700 O   0  0  0  0  0  1  0  0  0  0  0  0
  190.1850  177.1880  139.8490 C   0  0  0  0  0  3  0  0  0  0  0  0
  189.7700  176.4450  138.8790 N   0  0  0  0  0  0  0  0  0  0  0  0
  189.1730  177.8180  140.7520 C   0  0  0  0  0  2  0  0  0  0  0  0
  189.3570  177.4340  142.1830 C   0  0  0  0  0  0  0  0  0  0  0  0
  190.4490  177.9340  142.9960 C   0  0  0  0  0  3  0  0  0  0  0  0
  188.4340  176.8670  142.8900 N   0  0  0  0  0  0  0  0  0  0  0  0
  190.1380  177.6120  144.2450 C   0  0  0  0  0  0  0  0  0  0  0  0
  188.8590  176.8370  144.2880 C   0  0  1  0  0  3  0  0  0  0  0  0
  185.1280  178.5420  146.4960 C   0  0  0  0  0  2  0  0  0  0  0  0
  185.5430  178.6220  145.0450 C   0  0  0  0  0  2  0  0  0  0  0  0
  187.3470  178.1010  147.5240 C   0  0  0  0  0  0  0  0  0  0  0  0
  187.5860  177.6400  148.6740 O   0  0  0  0  0  0  0  0  0  0  0  0
  186.2350  179.0940  147.3540 C   0  0  0  0  0  2  0  0  0  0  0  0
  188.1680  177.6690  146.4330 N   0  0  0  0  0  0  0  0  0  0  0  0
  187.8440  177.4920  145.1800 C   0  0  0  0  0  0  0  0  0  0  0  0
  186.4840  177.5670  144.7180 N   0  0  0  0  0  2  0  0  0  0  0  0
  191.0000  177.9240  145.4300 C   0  0  0  0  0  2  0  0  0  0  0  0
  191.9430  176.9170  145.5960 O   0  0  0  0  0  0  0  0  0  0  0  0
  191.7450  176.2880  147.1600 P   0  0  0  0  0  0  0  0  0  0  0  0
  190.5010  175.4300  147.2880 O   0  0  0  0  0  0  0  0  0  0  0  0
  191.6760  177.5540  148.2820 O   0  0  0  0  0  1  0  0  0  0  0  0
  193.0840  175.3120  147.5300 O   0  0  0  0  0  1  0  0  0  0  0  0
  185.8240  177.2210  136.9530 O   0  0  0  0  0  0  0  0  0  0  0  0
  185.7760  177.1940  134.6390 O   0  0  0  0  0  0  0  0  0  0  0  0
  185.2940  176.7870  135.7400 C   0  0  0  0  0  0  0  0  0  0  0  0
  182.9170  175.9700  134.7790 S   0  0  0  0  0  0  0  0  0  0  0  0
  184.2230  175.7630  135.7300 C   0  0  1  0  0  3  0  0  0  0  0  0
  183.7800  173.2760  134.5940 O   0  0  0  0  0  1  0  0  0  0  0  0
  181.9330  173.1680  137.1310 C   0  0  0  0  0  2  0  0  0  0  0  0
  184.1640  173.1450  135.9390 C   0  0  1  0  0  3  0  0  0  0  0  0
  182.3750  174.4900  137.7820 C   0  0  0  0  0  2  0  0  0  0  0  0
  184.3870  174.5370  136.6050 C   0  0  2  0  0  3  0  0  0  0  0  0
  183.7740  174.6350  137.8810 O   0  0  0  0  0  0  0  0  0  0  0  0
  182.7120  171.2030  136.0010 O   0  0  0  0  0  1  0  0  0  0  0  0
  183.1320  172.3200  136.7280 C   0  0  2  0  0  3  0  0  0  0  0  0
  182.2220  177.5340  135.3310 C   0  0  0  0  0  2  0  0  0  0  0  0
  182.5940  177.7400  136.7910 C   0  0  0  0  0  2  0  0  0  0  0  0
  182.3020  179.1520  137.2800 C   0  0  0  0  0  2  0  0  0  0  0  0
  182.7540  179.4300  138.7200 C   0  0  2  0  0  3  0  0  0  0  0  0
  183.2220  178.1600  139.4010 C   0  0  0  0  0  2  0  0  0  0  0  0
  184.3920  178.4630  140.3170 C   0  0  0  0  0  1  0  0  0  0  0  0
  181.6050  180.0360  139.5230 C   0  0  0  0  0  2  0  0  0  0  0  0
  180.2870  180.0540  138.7620 C   0  0  0  0  0  2  0  0  0  0  0  0
  180.1530  181.3620  138.0620 C   0  0  0  0  0  0  0  0  0  0  0  0
  180.4830  182.5420  138.6010 N   0  0  0  0  0  0  0  0  0  0  0  0
  179.6010  181.5380  136.8120 C   0  0  0  0  0  3  0  0  0  0  0  0
  180.1240  183.4250  137.6540 C   0  0  0  0  0  0  0  0  0  0  0  0
  179.5720  182.8610  136.5710 N   0  0  0  0  0  2  0  0  0  0  0  0
  180.1860  184.8930  137.8640 C   0  0  0  0  0  2  0  0  0  0  0  0
  178.9610  185.3830  138.6120 C   0  0  0  0  0  1  0  0  0  0  0  0
  1  2  1  0  0  0  0
  2 39  1  6  0  0  0
  3  5  1  0  0  0  0
  3  7  1  1  0  0  0
  3  4  1  0  0  0  0
  4  1  1  0  0  0  0
  5  2  1  0  0  0  0
  6  8  2  0  0  0  0
  6 18  1  0  0  0  0
  7  6  1  0  0  0  0
  9  8  1  0  0  0  0
 10  9  2  0  0  0  0
 11  9  1  0  0  0  0
 12 13  1  0  0  0  0
 12 11  1  0  0  0  0
 13 14  1  0  0  0  0
 14 15  2  0  0  0  0
 14 16  1  0  0  0  0
 17 19  1  0  0  0  0
 18 17  2  0  0  0  0
 19 20  1  0  0  0  0
 20 22  2  0  0  0  0
 20 21  1  0  0  0  0
 21 23  2  0  0  0  0
 22 24  1  0  0  0  0
 23 24  1  0  0  0  0
 23 33  1  0  0  0  0
 24 31  1  1  0  0  0
 25 29  1  0  0  0  0
 26 25  1  0  0  0  0
 27 28  2  0  0  0  0
 29 27  1  0  0  0  0
 30 27  1  0  0  0  0
 31 30  2  0  0  0  0
 32 26  1  0  0  0  0
 32 31  1  0  0  0  0
 33 34  1  0  0  0  0
 34 35  1  0  0  0  0
 35 36  2  0  0  0  0
 35 38  1  0  0  0  0
 35 37  1  0  0  0  0
 40 41  2  0  0  0  0
 41 39  1  0  0  0  0
 42 52  1  0  0  0  0
 43 42  1  6  0  0  0
 43 41  1  0  0  0  0
 45 47  1  0  0  0  0
 46 44  1  6  0  0  0
 46 48  1  0  0  0  0
 46 51  1  0  0  0  0
 47 49  1  0  0  0  0
 48 43  1  6  0  0  0
 48 49  1  0  0  0  0
 51 50  1  6  0  0  0
 51 45  1  0  0  0  0
 52 53  1  0  0  0  0
 53 54  1  0  0  0  0
 55 54  1  6  0  0  0
 55 56  1  0  0  0  0
 55 58  1  0  0  0  0
 56 57  1  0  0  0  0
 59 58  1  0  0  0  0
 60 61  1  0  0  0  0
 60 59  1  0  0  0  0
 62 60  2  0  0  0  0
 63 65  1  0  0  0  0
 63 61  2  0  0  0  0
 64 62  1  0  0  0  0
 64 63  1  0  0  0  0
 65 66  1  0  0  0  0
M  END
>  <MODEL>
4

>  <REMARK>
 VINA RESULT:      -6.6      4.203     10.366
  Name = 
  26 active torsions:
  status: ('A' for Active; 'I' for Inactive)
    1  A    between atoms: C_2  and  O_50
    2  A    between atoms: C_3  and  O_65
    3  A    between atoms: C_4  and  C_36
    4  A    between atoms: C_4  and  C_48
    5  A    between atoms: C_5  and  C_7
    6  A    between atoms: C_5  and  C_21
    7  A    between atoms: P_10  and  O_55
    8  A    between atoms: C_11  and  N_44
    9  A    between atoms: C_12  and  C_54
   10  A    between atoms: C_18  and  C_53
   11  A    between atoms: C_21  and  C_53
   12  A    between atoms: C_28  and  C_49
   13  A    between atoms: C_30  and  C_47
   14  A    between atoms: C_30  and  O_55
   15  A    between atoms: C_31  and  C_60
   16  A    between atoms: C_32  and  N_43
   17  A    between atoms: C_33  and  C_54
   18  A    between atoms: C_36  and  C_53
   19  A    between atoms: C_37  and  C_42
   20  A    between atoms: C_37  and  O_50
   21  A    between atoms: S_38  and  C_48
   22  A    between atoms: C_40  and  C_57
   23  A    between atoms: C_40  and  C_59
   24  A    between atoms: C_42  and  C_45
   25  A    between atoms: C_57  and  O_65
   26  A    between atoms: N_58  and  C_59
                            x       y       z     vdW  Elec       q    Type
                         _______ _______ _______ _____ _____    ______ ____

>  <TORSDO>
F 26

$$$$
=
 OpenBabel10222418383D

 66 70  0  0  1  0  0  0  0  0999 V2000
  186.8260  177.7160  138.4840 C   0  0  0  0  0  2  0  0  0  0  0  0
  186.2620  176.9300  137.3250 C   0  0  2  0  0  3  0  0  0  0  0  0
  188.6860  177.0410  137.0910 C   0  0  2  0  0  3  0  0  0  0  0  0
  188.2860  177.3410  138.5330 C   0  0  0  0  0  2  0  0  0  0  0  0
  187.3870  176.8510  136.3170 C   0  0  0  0  0  2  0  0  0  0  0  0
  190.7870  175.7220  137.5670 C   0  0  0  0  0  0  0  0  0  0  0  0
  189.4590  175.8120  137.0190 N   0  0  0  0  0  2  0  0  0  0  0  0
  191.6300  174.8100  137.1370 N   0  0  0  0  0  0  0  0  0  0  0  0
  191.3560  173.8150  136.1340 C   0  0  0  0  0  0  0  0  0  0  0  0
  190.2680  173.1680  136.1320 O   0  0  0  0  0  0  0  0  0  0  0  0
  192.3260  173.6190  135.0150 C   0  0  0  0  0  2  0  0  0  0  0  0
  193.7550  173.8980  135.4680 C   0  0  0  0  0  2  0  0  0  0  0  0
  194.0850  173.0920  136.6000 O   0  0  0  0  0  0  0  0  0  0  0  0
  195.0700  172.0970  136.5500 C   0  0  0  0  0  0  0  0  0  0  0  0
  196.2140  172.3450  136.0890 O   0  0  0  0  0  0  0  0  0  0  0  0
  194.7650  170.8080  136.9630 O   0  0  0  0  0  1  0  0  0  0  0  0
  191.4970  176.4080  139.7490 C   0  0  0  0  0  3  0  0  0  0  0  0
  191.2040  176.6990  138.5260 N   0  0  0  0  0  0  0  0  0  0  0  0
  191.9540  177.5050  140.6560 C   0  0  0  0  0  2  0  0  0  0  0  0
  190.9140  177.9040  141.6510 C   0  0  0  0  0  0  0  0  0  0  0  0
  189.5400  177.4430  141.5780 C   0  0  0  0  0  3  0  0  0  0  0  0
  191.1940  178.4460  142.7910 N   0  0  0  0  0  0  0  0  0  0  0  0
  188.9980  177.7630  142.7450 C   0  0  0  0  0  0  0  0  0  0  0  0
  189.9800  178.4990  143.6020 C   0  0  1  0  0  3  0  0  0  0  0  0
  191.4450  176.4260  147.5070 C   0  0  0  0  0  2  0  0  0  0  0  0
  191.7560  176.1380  146.0560 C   0  0  0  0  0  2  0  0  0  0  0  0
  189.2910  177.6310  147.2250 C   0  0  0  0  0  0  0  0  0  0  0  0
  188.7110  178.3790  148.0600 O   0  0  0  0  0  0  0  0  0  0  0  0
  189.9540  176.3760  147.7090 C   0  0  0  0  0  2  0  0  0  0  0  0
  189.2700  178.0090  145.8440 N   0  0  0  0  0  0  0  0  0  0  0  0
  190.1790  177.8180  144.9260 C   0  0  0  0  0  0  0  0  0  0  0  0
  191.4860  177.3000  145.2310 N   0  0  0  0  0  2  0  0  0  0  0  0
  187.5710  177.4860  143.1100 C   0  0  0  0  0  2  0  0  0  0  0  0
  186.9620  178.6620  143.5320 O   0  0  0  0  0  0  0  0  0  0  0  0
  185.5150  178.8260  142.6600 P   0  0  0  0  0  0  0  0  0  0  0  0
  184.8610  177.4910  142.3620 O   0  0  0  0  0  1  0  0  0  0  0  0
  185.8120  179.6470  141.2090 O   0  0  0  0  0  0  0  0  0  0  0  0
  184.4230  179.7420  143.5840 O   0  0  0  0  0  1  0  0  0  0  0  0
  185.1120  177.5740  136.7770 O   0  0  0  0  0  0  0  0  0  0  0  0
  184.3440  177.5030  134.5960 O   0  0  0  0  0  0  0  0  0  0  0  0
  184.3710  176.9870  135.7540 C   0  0  0  0  0  0  0  0  0  0  0  0
  182.2280  175.4190  135.3190 S   0  0  0  0  0  0  0  0  0  0  0  0
  183.6860  175.6940  135.9910 C   0  0  1  0  0  3  0  0  0  0  0  0
  185.4340  173.9350  134.7570 O   0  0  0  0  0  1  0  0  0  0  0  0
  183.5330  171.9780  136.3120 C   0  0  0  0  0  2  0  0  0  0  0  0
  185.3830  173.6940  136.1410 C   0  0  1  0  0  3  0  0  0  0  0  0
  182.7280  173.0290  137.0960 C   0  0  0  0  0  2  0  0  0  0  0  0
  184.3790  174.6550  136.8480 C   0  0  2  0  0  3  0  0  0  0  0  0
  183.5290  173.9790  137.7610 O   0  0  0  0  0  0  0  0  0  0  0  0
  185.7330  171.3590  135.5890 O   0  0  0  0  0  1  0  0  0  0  0  0
  185.0310  172.2250  136.4310 C   0  0  2  0  0  3  0  0  0  0  0  0
  181.1980  176.7480  135.9570 C   0  0  0  0  0  2  0  0  0  0  0  0
  181.5690  176.9910  137.4110 C   0  0  0  0  0  2  0  0  0  0  0  0
  181.6110  178.4700  137.7690 C   0  0  0  0  0  2  0  0  0  0  0  0
  182.0710  178.7630  139.2040 C   0  0  2  0  0  3  0  0  0  0  0  0
  181.8900  177.5500  140.0940 C   0  0  0  0  0  2  0  0  0  0  0  0
  180.4500  177.4560  140.5600 C   0  0  0  0  0  1  0  0  0  0  0  0
  181.2770  179.9320  139.7820 C   0  0  0  0  0  2  0  0  0  0  0  0
  180.0630  180.3050  138.9430 C   0  0  0  0  0  2  0  0  0  0  0  0
  180.2490  181.6850  138.4150 C   0  0  0  0  0  0  0  0  0  0  0  0
  179.2490  182.4760  138.0080 N   0  0  0  0  0  0  0  0  0  0  0  0
  181.4660  182.2930  138.1980 C   0  0  0  0  0  3  0  0  0  0  0  0
  179.8860  183.5670  137.5500 C   0  0  0  0  0  0  0  0  0  0  0  0
  181.2210  183.4870  137.6300 N   0  0  0  0  0  2  0  0  0  0  0  0
  179.1770  184.6820  136.8710 C   0  0  0  0  0  2  0  0  0  0  0  0
  179.3950  185.9880  137.6110 C   0  0  0  0  0  1  0  0  0  0  0  0
  1  4  1  0  0  0  0
  2 39  1  6  0  0  0
  2  1  1  0  0  0  0
  3  7  1  1  0  0  0
  3  4  1  0  0  0  0
  5  3  1  0  0  0  0
  5  2  1  0  0  0  0
  6 18  1  0  0  0  0
  7  6  1  0  0  0  0
  8  6  2  0  0  0  0
  9  8  1  0  0  0  0
 10  9  2  0  0  0  0
 11 12  1  0  0  0  0
 11  9  1  0  0  0  0
 12 13  1  0  0  0  0
 14 13  1  0  0  0  0
 14 16  1  0  0  0  0
 15 14  2  0  0  0  0
 17 19  1  0  0  0  0
 18 17  2  0  0  0  0
 19 20  1  0  0  0  0
 20 22  2  0  0  0  0
 21 20  1  0  0  0  0
 21 23  2  0  0  0  0
 22 24  1  0  0  0  0
 23 33  1  0  0  0  0
 23 24  1  0  0  0  0
 24 31  1  1  0  0  0
 25 29  1  0  0  0  0
 26 25  1  0  0  0  0
 27 29  1  0  0  0  0
 27 28  2  0  0  0  0
 30 27  1  0  0  0  0
 31 32  1  0  0  0  0
 31 30  2  0  0  0  0
 32 26  1  0  0  0  0
 33 34  1  0  0  0  0
 35 34  1  0  0  0  0
 35 38  1  0  0  0  0
 36 35  1  0  0  0  0
 37 35  2  0  0  0  0
 40 41  2  0  0  0  0
 41 43  1  0  0  0  0
 41 39  1  0  0  0  0
 42 52  1  0  0  0  0
 43 42  1  6  0  0  0
 45 51  1  0  0  0  0
 45 47  1  0  0  0  0
 46 44  1  6  0  0  0
 46 51  1  0  0  0  0
 46 48  1  0  0  0  0
 47 49  1  0  0  0  0
 48 43  1  6  0  0  0
 48 49  1  0  0  0  0
 51 50  1  6  0  0  0
 52 53  1  0  0  0  0
 53 54  1  0  0  0  0
 55 54  1  6  0  0  0
 55 58  1  0  0  0  0
 55 56  1  0  0  0  0
 56 57  1  0  0  0  0
 59 58  1  0  0  0  0
 60 59  1  0  0  0  0
 61 60  1  0  0  0  0
 62 60  2  0  0  0  0
 63 64  1  0  0  0  0
 63 61  2  0  0  0  0
 64 62  1  0  0  0  0
 65 63  1  0  0  0  0
 65 66  1  0  0  0  0
M  END
>  <MODEL>
5

>  <REMARK>
 VINA RESULT:      -6.0      4.019     10.482
  Name = 
  26 active torsions:
  status: ('A' for Active; 'I' for Inactive)
    1  A    between atoms: C_2  and  O_50
    2  A    between atoms: C_3  and  O_65
    3  A    between atoms: C_4  and  C_36
    4  A    between atoms: C_4  and  C_48
    5  A    between atoms: C_5  and  C_7
    6  A    between atoms: C_5  and  C_21
    7  A    between atoms: P_10  and  O_55
    8  A    between atoms: C_11  and  N_44
    9  A    between atoms: C_12  and  C_54
   10  A    between atoms: C_18  and  C_53
   11  A    between atoms: C_21  and  C_53
   12  A    between atoms: C_28  and  C_49
   13  A    between atoms: C_30  and  C_47
   14  A    between atoms: C_30  and  O_55
   15  A    between atoms: C_31  and  C_60
   16  A    between atoms: C_32  and  N_43
   17  A    between atoms: C_33  and  C_54
   18  A    between atoms: C_36  and  C_53
   19  A    between atoms: C_37  and  C_42
   20  A    between atoms: C_37  and  O_50
   21  A    between atoms: S_38  and  C_48
   22  A    between atoms: C_40  and  C_57
   23  A    between atoms: C_40  and  C_59
   24  A    between atoms: C_42  and  C_45
   25  A    between atoms: C_57  and  O_65
   26  A    between atoms: N_58  and  C_59
                            x       y       z     vdW  Elec       q    Type
                         _______ _______ _______ _____ _____    ______ ____

>  <TORSDO>
F 26

$$$$
=
 OpenBabel10222418383D

 66 70  0  0  1  0  0  0  0  0999 V2000
  187.9460  178.8530  137.2780 C   0  0  0  0  0  2  0  0  0  0  0  0
  187.4190  177.4410  137.3660 C   0  0  2  0  0  3  0  0  0  0  0  0
  189.5230  177.4160  136.1340 C   0  0  2  0  0  3  0  0  0  0  0  0
  189.4120  178.7000  136.9520 C   0  0  0  0  0  2  0  0  0  0  0  0
  188.2190  176.6560  136.3510 C   0  0  0  0  0  2  0  0  0  0  0  0
  190.8450  176.3730  138.0160 C   0  0  0  0  0  0  0  0  0  0  0  0
  190.6260  176.5990  136.6120 N   0  0  0  0  0  2  0  0  0  0  0  0
  192.0330  176.0320  138.4640 N   0  0  0  0  0  0  0  0  0  0  0  0
  193.2080  175.8230  137.6600 C   0  0  0  0  0  0  0  0  0  0  0  0
  194.3280  176.3070  137.9960 O   0  0  0  0  0  0  0  0  0  0  0  0
  193.1270  174.9300  136.4650 C   0  0  0  0  0  2  0  0  0  0  0  0
  194.4000  174.1080  136.3010 C   0  0  0  0  0  2  0  0  0  0  0  0
  195.4680  174.9330  135.8320 O   0  0  0  0  0  0  0  0  0  0  0  0
  196.7930  174.7580  136.2550 C   0  0  0  0  0  0  0  0  0  0  0  0
  197.7530  174.9730  135.4720 O   0  0  0  0  0  0  0  0  0  0  0  0
  197.0470  174.2880  137.5360 O   0  0  0  0  0  1  0  0  0  0  0  0
  189.8420  177.4680  139.8950 C   0  0  0  0  0  3  0  0  0  0  0  0
  189.7700  176.6150  138.9290 N   0  0  0  0  0  0  0  0  0  0  0  0
  188.6440  177.6630  140.7680 C   0  0  0  0  0  2  0  0  0  0  0  0
  188.9220  177.3690  142.2060 C   0  0  0  0  0  0  0  0  0  0  0  0
  190.0270  177.9680  142.9300 C   0  0  0  0  0  3  0  0  0  0  0  0
  188.0690  176.7970  142.9910 N   0  0  0  0  0  0  0  0  0  0  0  0
  189.7990  177.7010  144.2090 C   0  0  0  0  0  0  0  0  0  0  0  0
  188.5670  176.8650  144.3630 C   0  0  1  0  0  3  0  0  0  0  0  0
  184.8730  178.5820  146.6220 C   0  0  0  0  0  2  0  0  0  0  0  0
  185.2840  178.6890  145.1720 C   0  0  0  0  0  2  0  0  0  0  0  0
  187.0870  178.0800  147.6320 C   0  0  0  0  0  0  0  0  0  0  0  0
  187.3220  177.5890  148.7700 O   0  0  0  0  0  0  0  0  0  0  0  0
  185.9910  179.0960  147.4900 C   0  0  0  0  0  2  0  0  0  0  0  0
  187.8970  177.6600  146.5290 N   0  0  0  0  0  0  0  0  0  0  0  0
  187.5660  177.5170  145.2740 C   0  0  0  0  0  0  0  0  0  0  0  0
  186.2060  177.6260  144.8180 N   0  0  0  0  0  2  0  0  0  0  0  0
  190.7030  178.1210  145.3270 C   0  0  0  0  0  2  0  0  0  0  0  0
  191.7510  177.2160  145.4430 O   0  0  0  0  0  0  0  0  0  0  0  0
  191.5360  176.3730  146.9010 P   0  0  0  0  0  0  0  0  0  0  0  0
  190.0730  176.1450  147.2300 O   0  0  0  0  0  1  0  0  0  0  0  0
  192.2740  177.2220  148.1660 O   0  0  0  0  0  1  0  0  0  0  0  0
  192.2780  174.8520  146.7670 O   0  0  0  0  0  0  0  0  0  0  0  0
  186.0220  177.3950  137.0820 O   0  0  0  0  0  0  0  0  0  0  0  0
  185.8530  177.9100  134.8320 O   0  0  0  0  0  0  0  0  0  0  0  0
  185.5520  177.1410  135.7950 C   0  0  0  0  0  0  0  0  0  0  0  0
  183.3520  176.0040  134.7410 S   0  0  0  0  0  0  0  0  0  0  0  0
  184.7770  175.9070  135.5250 C   0  0  1  0  0  3  0  0  0  0  0  0
  183.5920  173.5830  134.5950 O   0  0  0  0  0  1  0  0  0  0  0  0
  183.6020  173.1080  137.6990 C   0  0  0  0  0  2  0  0  0  0  0  0
  184.6880  173.2830  135.4210 C   0  0  1  0  0  3  0  0  0  0  0  0
  184.4260  174.3410  138.1080 C   0  0  0  0  0  2  0  0  0  0  0  0
  185.3490  174.5800  135.9800 C   0  0  2  0  0  3  0  0  0  0  0  0
  185.6180  174.4980  137.3710 O   0  0  0  0  0  0  0  0  0  0  0  0
  183.4350  171.3230  136.1070 O   0  0  0  0  0  1  0  0  0  0  0  0
  184.2730  172.3430  136.5650 C   0  0  2  0  0  3  0  0  0  0  0  0
  182.3650  177.0990  135.7710 C   0  0  0  0  0  2  0  0  0  0  0  0
  183.1690  177.4510  137.0120 C   0  0  0  0  0  2  0  0  0  0  0  0
  182.4080  178.3580  137.9690 C   0  0  0  0  0  2  0  0  0  0  0  0
  182.0490  177.7060  139.3110 C   0  0  2  0  0  3  0  0  0  0  0  0
  183.2770  177.5360  140.1830 C   0  0  0  0  0  2  0  0  0  0  0  0
  183.1660  178.4140  141.4140 C   0  0  0  0  0  1  0  0  0  0  0  0
  181.4070  176.3400  139.0770 C   0  0  0  0  0  2  0  0  0  0  0  0
  180.0980  176.4190  138.3040 C   0  0  0  0  0  2  0  0  0  0  0  0
  179.7680  175.0650  137.7780 C   0  0  0  0  0  0  0  0  0  0  0  0
  180.3130  173.9290  138.2290 N   0  0  0  0  0  0  0  0  0  0  0  0
  178.9310  174.8120  136.7130 C   0  0  0  0  0  3  0  0  0  0  0  0
  179.7850  172.9930  137.4210 C   0  0  0  0  0  0  0  0  0  0  0  0
  178.9650  173.4880  136.4840 N   0  0  0  0  0  2  0  0  0  0  0  0
  180.2050  171.5690  137.4650 C   0  0  0  0  0  2  0  0  0  0  0  0
  179.6710  170.8120  136.2640 C   0  0  0  0  0  1  0  0  0  0  0  0
  1  2  1  0  0  0  0
  2 39  1  6  0  0  0
  3  5  1  0  0  0  0
  3  7  1  1  0  0  0
  3  4  1  0  0  0  0
  4  1  1  0  0  0  0
  5  2  1  0  0  0  0
  6  8  2  0  0  0  0
  6 18  1  0  0  0  0
  7  6  1  0  0  0  0
  9 10  2  0  0  0  0
  9  8  1  0  0  0  0
 11  9  1  0  0  0  0
 12 11  1  0  0  0  0
 13 14  1  0  0  0  0
 13 12  1  0  0  0  0
 14 16  1  0  0  0  0
 15 14  2  0  0  0  0
 17 19  1  0  0  0  0
 18 17  2  0  0  0  0
 19 20  1  0  0  0  0
 20 21  1  0  0  0  0
 20 22  2  0  0  0  0
 21 23  2  0  0  0  0
 22 24  1  0  0  0  0
 23 24  1  0  0  0  0
 23 33  1  0  0  0  0
 24 31  1  1  0  0  0
 25 29  1  0  0  0  0
 26 25  1  0  0  0  0
 27 28  2  0  0  0  0
 29 27  1  0  0  0  0
 30 27  1  0  0  0  0
 31 30  2  0  0  0  0
 32 26  1  0  0  0  0
 32 31  1  0  0  0  0
 33 34  1  0  0  0  0
 34 35  1  0  0  0  0
 35 36  1  0  0  0  0
 35 37  1  0  0  0  0
 38 35  2  0  0  0  0
 40 41  2  0  0  0  0
 41 39  1  0  0  0  0
 42 52  1  0  0  0  0
 43 42  1  6  0  0  0
 43 41  1  0  0  0  0
 45 47  1  0  0  0  0
 46 44  1  1  0  0  0
 46 48  1  0  0  0  0
 46 51  1  0  0  0  0
 48 43  1  1  0  0  0
 48 49  1  0  0  0  0
 49 47  1  0  0  0  0
 51 50  1  6  0  0  0
 51 45  1  0  0  0  0
 52 53  1  0  0  0  0
 53 54  1  0  0  0  0
 55 54  1  6  0  0  0
 55 56  1  0  0  0  0
 56 57  1  0  0  0  0
 58 55  1  0  0  0  0
 59 58  1  0  0  0  0
 60 61  1  0  0  0  0
 60 59  1  0  0  0  0
 62 60  2  0  0  0  0
 63 65  1  0  0  0  0
 63 61  2  0  0  0  0
 64 62  1  0  0  0  0
 64 63  1  0  0  0  0
 66 65  1  0  0  0  0
M  END
>  <MODEL>
6

>  <REMARK>
 VINA RESULT:      -5.2      4.278      9.872
  Name = 
  26 active torsions:
  status: ('A' for Active; 'I' for Inactive)
    1  A    between atoms: C_2  and  O_50
    2  A    between atoms: C_3  and  O_65
    3  A    between atoms: C_4  and  C_36
    4  A    between atoms: C_4  and  C_48
    5  A    between atoms: C_5  and  C_7
    6  A    between atoms: C_5  and  C_21
    7  A    between atoms: P_10  and  O_55
    8  A    between atoms: C_11  and  N_44
    9  A    between atoms: C_12  and  C_54
   10  A    between atoms: C_18  and  C_53
   11  A    between atoms: C_21  and  C_53
   12  A    between atoms: C_28  and  C_49
   13  A    between atoms: C_30  and  C_47
   14  A    between atoms: C_30  and  O_55
   15  A    between atoms: C_31  and  C_60
   16  A    between atoms: C_32  and  N_43
   17  A    between atoms: C_33  and  C_54
   18  A    between atoms: C_36  and  C_53
   19  A    between atoms: C_37  and  C_42
   20  A    between atoms: C_37  and  O_50
   21  A    between atoms: S_38  and  C_48
   22  A    between atoms: C_40  and  C_57
   23  A    between atoms: C_40  and  C_59
   24  A    between atoms: C_42  and  C_45
   25  A    between atoms: C_57  and  O_65
   26  A    between atoms: N_58  and  C_59
                            x       y       z     vdW  Elec       q    Type
                         _______ _______ _______ _____ _____    ______ ____

>  <TORSDO>
F 26

$$$$
=
 OpenBabel10222418383D

 66 70  0  0  1  0  0  0  0  0999 V2000
  187.9800  178.3350  142.1800 C   0  0  0  0  0  2  0  0  0  0  0  0
  189.1640  177.5200  141.7170 C   0  0  2  0  0  3  0  0  0  0  0  0
  189.5230  178.1730  144.0380 C   0  0  2  0  0  3  0  0  0  0  0  0
  188.0420  178.2850  143.6870 C   0  0  0  0  0  2  0  0  0  0  0  0
  190.2360  177.7530  142.7580 C   0  0  0  0  0  2  0  0  0  0  0  0
  188.9770  177.1310  146.2730 C   0  0  0  0  0  0  0  0  0  0  0  0
  189.7340  177.1490  145.0490 N   0  0  0  0  0  2  0  0  0  0  0  0
  189.4400  176.5170  147.3380 N   0  0  0  0  0  0  0  0  0  0  0  0
  190.6830  175.7960  147.4220 C   0  0  0  0  0  0  0  0  0  0  0  0
  190.7260  174.5410  147.2640 O   0  0  0  0  0  0  0  0  0  0  0  0
  191.9580  176.5550  147.5940 C   0  0  0  0  0  2  0  0  0  0  0  0
  193.1680  175.6790  147.2910 C   0  0  0  0  0  2  0  0  0  0  0  0
  194.0470  175.6390  148.4170 O   0  0  0  0  0  0  0  0  0  0  0  0
  193.7090  176.2080  149.6530 C   0  0  0  0  0  0  0  0  0  0  0  0
  194.0640  177.3800  149.9400 O   0  0  0  0  0  0  0  0  0  0  0  0
  193.0240  175.4510  150.5920 O   0  0  0  0  0  1  0  0  0  0  0  0
  186.5940  177.3320  146.1600 C   0  0  0  0  0  3  0  0  0  0  0  0
  187.7540  177.8700  146.3380 N   0  0  0  0  0  0  0  0  0  0  0  0
  185.3780  178.1940  146.2840 C   0  0  0  0  0  2  0  0  0  0  0  0
  184.8780  178.6810  144.9640 C   0  0  0  0  0  0  0  0  0  0  0  0
  185.1880  178.0160  143.7120 C   0  0  0  0  0  3  0  0  0  0  0  0
  183.9210  179.5430  144.8420 N   0  0  0  0  0  0  0  0  0  0  0  0
  184.3690  178.5490  142.8160 C   0  0  0  0  0  0  0  0  0  0  0  0
  183.5340  179.6260  143.4350 C   0  0  1  0  0  3  0  0  0  0  0  0
  178.9930  178.6350  143.7410 C   0  0  0  0  0  2  0  0  0  0  0  0
  180.2080  177.8700  144.2150 C   0  0  0  0  0  2  0  0  0  0  0  0
  180.0590  180.0320  141.9840 C   0  0  0  0  0  0  0  0  0  0  0  0
  179.6040  181.0830  141.4540 O   0  0  0  0  0  0  0  0  0  0  0  0
  179.1220  178.8940  142.2630 C   0  0  0  0  0  2  0  0  0  0  0  0
  181.4590  179.9670  142.2750 N   0  0  0  0  0  0  0  0  0  0  0  0
  182.0670  179.3590  143.2570 C   0  0  0  0  0  0  0  0  0  0  0  0
  181.3520  178.7520  144.3490 N   0  0  0  0  0  2  0  0  0  0  0  0
  184.3500  178.1670  141.3670 C   0  0  0  0  0  2  0  0  0  0  0  0
  183.2280  177.3900  141.1070 O   0  0  0  0  0  0  0  0  0  0  0  0
  182.7150  177.7500  139.5290 P   0  0  0  0  0  0  0  0  0  0  0  0
  181.2970  178.2870  139.4880 O   0  0  0  0  0  1  0  0  0  0  0  0
  182.8230  176.3650  138.5620 O   0  0  0  0  0  0  0  0  0  0  0  0
  183.7370  178.9410  138.8820 O   0  0  0  0  0  1  0  0  0  0  0  0
  189.5950  177.9300  140.4200 O   0  0  0  0  0  0  0  0  0  0  0  0
  187.7470  178.9620  139.4840 O   0  0  0  0  0  0  0  0  0  0  0  0
  188.6870  178.1160  139.3800 C   0  0  0  0  0  0  0  0  0  0  0  0
  189.4770  175.8790  138.1100 S   0  0  0  0  0  0  0  0  0  0  0  0
  188.8760  177.3930  138.1000 C   0  0  1  0  0  3  0  0  0  0  0  0
  186.2540  177.1740  137.2350 O   0  0  0  0  0  1  0  0  0  0  0  0
  187.8560  176.2900  134.6830 C   0  0  0  0  0  2  0  0  0  0  0  0
  186.9990  177.9810  136.3580 C   0  0  1  0  0  3  0  0  0  0  0  0
  189.2720  176.6110  135.1890 C   0  0  0  0  0  2  0  0  0  0  0  0
  188.4870  178.0890  136.8120 C   0  0  2  0  0  3  0  0  0  0  0  0
  189.3980  177.9030  135.7410 O   0  0  0  0  0  0  0  0  0  0  0  0
  185.5970  177.0860  134.5940 O   0  0  0  0  0  1  0  0  0  0  0  0
  186.9050  177.4570  134.9150 C   0  0  2  0  0  3  0  0  0  0  0  0
  191.0720  176.0510  138.9230 C   0  0  0  0  0  2  0  0  0  0  0  0
  192.0920  176.5080  137.8940 C   0  0  0  0  0  2  0  0  0  0  0  0
  193.4730  175.9110  138.1280 C   0  0  0  0  0  2  0  0  0  0  0  0
  193.9930  175.0430  136.9740 C   0  0  2  0  0  3  0  0  0  0  0  0
  192.8840  174.7120  135.9960 C   0  0  0  0  0  2  0  0  0  0  0  0
  192.3850  173.3010  136.2330 C   0  0  0  0  0  1  0  0  0  0  0  0
  194.5860  173.7450  137.5190 C   0  0  0  0  0  2  0  0  0  0  0  0
  196.0770  173.6090  137.2480 C   0  0  0  0  0  2  0  0  0  0  0  0
  196.8280  174.3230  138.3170 C   0  0  0  0  0  0  0  0  0  0  0  0
  196.3100  174.6580  139.5050 N   0  0  0  0  0  0  0  0  0  0  0  0
  198.1140  174.8040  138.1960 C   0  0  0  0  0  3  0  0  0  0  0  0
  197.3070  175.3410  140.0930 C   0  0  0  0  0  0  0  0  0  0  0  0
  198.4010  175.4660  139.3300 N   0  0  0  0  0  2  0  0  0  0  0  0
  197.1440  176.0290  141.4000 C   0  0  0  0  0  2  0  0  0  0  0  0
  198.1440  175.5050  142.4130 C   0  0  0  0  0  1  0  0  0  0  0  0
  1  4  1  0  0  0  0
  2 39  1  6  0  0  0
  2  1  1  0  0  0  0
  2  5  1  0  0  0  0
  3  7  1  1  0  0  0
  4  3  1  0  0  0  0
  5  3  1  0  0  0  0
  6 18  1  0  0  0  0
  6  8  2  0  0  0  0
  7  6  1  0  0  0  0
  8  9  1  0  0  0  0
  9 11  1  0  0  0  0
 10  9  2  0  0  0  0
 12 11  1  0  0  0  0
 12 13  1  0  0  0  0
 13 14  1  0  0  0  0
 14 15  2  0  0  0  0
 14 16  1  0  0  0  0
 17 19  1  0  0  0  0
 17 18  2  0  0  0  0
 20 19  1  0  0  0  0
 21 20  1  0  0  0  0
 22 20  2  0  0  0  0
 23 24  1  0  0  0  0
 23 21  2  0  0  0  0
 24 31  1  1  0  0  0
 24 22  1  0  0  0  0
 25 26  1  0  0  0  0
 26 32  1  0  0  0  0
 27 29  1  0  0  0  0
 27 30  1  0  0  0  0
 28 27  2  0  0  0  0
 29 25  1  0  0  0  0
 30 31  2  0  0  0  0
 31 32  1  0  0  0  0
 33 23  1  0  0  0  0
 34 33  1  0  0  0  0
 35 34  1  0  0  0  0
 36 35  1  0  0  0  0
 37 35  2  0  0  0  0
 38 35  1  0  0  0  0
 41 40  2  0  0  0  0
 41 39  1  0  0  0  0
 42 52  1  0  0  0  0
 43 42  1  1  0  0  0
 43 41  1  0  0  0  0
 45 51  1  0  0  0  0
 45 47  1  0  0  0  0
 46 48  1  0  0  0  0
 46 44  1  1  0  0  0
 47 49  1  0  0  0  0
 48 43  1  1  0  0  0
 49 48  1  0  0  0  0
 51 50  1  1  0  0  0
 51 46  1  0  0  0  0
 53 54  1  0  0  0  0
 53 52  1  0  0  0  0
 55 56  1  6  0  0  0
 55 58  1  0  0  0  0
 55 54  1  0  0  0  0
 56 57  1  0  0  0  0
 59 58  1  0  0  0  0
 59 60  1  0  0  0  0
 60 61  1  0  0  0  0
 61 63  2  0  0  0  0
 62 60  2  0  0  0  0
 62 64  1  0  0  0  0
 63 65  1  0  0  0  0
 64 63  1  0  0  0  0
 65 66  1  0  0  0  0
M  END
>  <MODEL>
7

>  <REMARK>
 VINA RESULT:      -4.9      1.448      2.168
  Name = 
  26 active torsions:
  status: ('A' for Active; 'I' for Inactive)
    1  A    between atoms: C_2  and  O_50
    2  A    between atoms: C_3  and  O_65
    3  A    between atoms: C_4  and  C_36
    4  A    between atoms: C_4  and  C_48
    5  A    between atoms: C_5  and  C_7
    6  A    between atoms: C_5  and  C_21
    7  A    between atoms: P_10  and  O_55
    8  A    between atoms: C_11  and  N_44
    9  A    between atoms: C_12  and  C_54
   10  A    between atoms: C_18  and  C_53
   11  A    between atoms: C_21  and  C_53
   12  A    between atoms: C_28  and  C_49
   13  A    between atoms: C_30  and  C_47
   14  A    between atoms: C_30  and  O_55
   15  A    between atoms: C_31  and  C_60
   16  A    between atoms: C_32  and  N_43
   17  A    between atoms: C_33  and  C_54
   18  A    between atoms: C_36  and  C_53
   19  A    between atoms: C_37  and  C_42
   20  A    between atoms: C_37  and  O_50
   21  A    between atoms: S_38  and  C_48
   22  A    between atoms: C_40  and  C_57
   23  A    between atoms: C_40  and  C_59
   24  A    between atoms: C_42  and  C_45
   25  A    between atoms: C_57  and  O_65
   26  A    between atoms: N_58  and  C_59
                            x       y       z     vdW  Elec       q    Type
                         _______ _______ _______ _____ _____    ______ ____

>  <TORSDO>
F 26

$$$$
=
 OpenBabel10222418383D

 66 70  0  0  1  0  0  0  0  0999 V2000
  185.5400  177.5780  137.8330 C   0  0  0  0  0  2  0  0  0  0  0  0
  185.2580  176.0970  137.9280 C   0  0  2  0  0  3  0  0  0  0  0  0
  187.3340  176.4210  136.6910 C   0  0  2  0  0  3  0  0  0  0  0  0
  187.0090  177.6720  137.5040 C   0  0  0  0  0  2  0  0  0  0  0  0
  186.1770  175.4540  136.9140 C   0  0  0  0  0  2  0  0  0  0  0  0
  189.3630  176.4160  138.1940 C   0  0  0  0  0  0  0  0  0  0  0  0
  188.5600  175.8040  137.1690 N   0  0  0  0  0  2  0  0  0  0  0  0
  190.6380  176.1200  138.3140 N   0  0  0  0  0  0  0  0  0  0  0  0
  191.3640  175.1800  137.5030 C   0  0  0  0  0  0  0  0  0  0  0  0
  190.9770  173.9810  137.3820 O   0  0  0  0  0  0  0  0  0  0  0  0
  192.5350  175.6540  136.7050 C   0  0  0  0  0  2  0  0  0  0  0  0
  193.6570  176.1500  137.6110 C   0  0  0  0  0  2  0  0  0  0  0  0
  194.8920  175.5220  137.2630 O   0  0  0  0  0  0  0  0  0  0  0  0
  195.3410  174.3530  137.8920 C   0  0  0  0  0  0  0  0  0  0  0  0
  195.5850  173.3160  137.2230 O   0  0  0  0  0  0  0  0  0  0  0  0
  195.4670  174.3220  139.2730 O   0  0  0  0  0  1  0  0  0  0  0  0
  189.1870  177.6850  140.2180 C   0  0  0  0  0  3  0  0  0  0  0  0
  188.7720  177.4210  139.0240 N   0  0  0  0  0  0  0  0  0  0  0  0
  188.5160  178.7790  140.9840 C   0  0  0  0  0  2  0  0  0  0  0  0
  188.7720  178.6980  142.4530 C   0  0  0  0  0  0  0  0  0  0  0  0
  187.7510  178.3080  143.4070 C   0  0  0  0  0  3  0  0  0  0  0  0
  189.9580  178.6890  142.9670 N   0  0  0  0  0  0  0  0  0  0  0  0
  188.3960  178.0840  144.5440 C   0  0  0  0  0  0  0  0  0  0  0  0
  189.8560  178.3760  144.3910 C   0  0  1  0  0  3  0  0  0  0  0  0
  192.7300  174.7210  144.6700 C   0  0  0  0  0  2  0  0  0  0  0  0
  191.6280  175.0410  143.6870 C   0  0  0  0  0  2  0  0  0  0  0  0
  191.9940  176.1370  146.5750 C   0  0  0  0  0  0  0  0  0  0  0  0
  192.6800  176.5160  147.5630 O   0  0  0  0  0  0  0  0  0  0  0  0
  192.1640  174.7360  146.0650 C   0  0  0  0  0  2  0  0  0  0  0  0
  191.0650  177.0600  145.9960 N   0  0  0  0  0  0  0  0  0  0  0  0
  190.6990  177.1860  144.7490 C   0  0  0  0  0  0  0  0  0  0  0  0
  191.3380  176.4630  143.6820 N   0  0  0  0  0  2  0  0  0  0  0  0
  187.7270  177.6680  145.8190 C   0  0  0  0  0  2  0  0  0  0  0  0
  186.4340  177.2390  145.5460 O   0  0  0  0  0  0  0  0  0  0  0  0
  185.3950  178.5560  145.8080 P   0  0  0  0  0  0  0  0  0  0  0  0
  184.2640  178.2230  146.7610 O   0  0  0  0  0  1  0  0  0  0  0  0
  184.7560  179.0820  144.3320 O   0  0  0  0  0  0  0  0  0  0  0  0
  186.2890  179.8270  146.4930 O   0  0  0  0  0  1  0  0  0  0  0  0
  183.8880  175.8150  137.6470 O   0  0  0  0  0  0  0  0  0  0  0  0
  183.9910  173.5120  137.8470 O   0  0  0  0  0  0  0  0  0  0  0  0
  183.4670  174.5320  137.3030 C   0  0  0  0  0  0  0  0  0  0  0  0
  180.9590  175.2050  136.5980 S   0  0  0  0  0  0  0  0  0  0  0  0
  182.3310  174.3560  136.3690 C   0  0  1  0  0  3  0  0  0  0  0  0
  181.1770  171.8470  136.5860 O   0  0  0  0  0  1  0  0  0  0  0  0
  184.1360  171.1360  135.8140 C   0  0  0  0  0  2  0  0  0  0  0  0
  181.8060  171.9970  135.3390 C   0  0  1  0  0  3  0  0  0  0  0  0
  184.6420  172.5630  135.5420 C   0  0  0  0  0  2  0  0  0  0  0  0
  182.4890  173.3920  135.2110 C   0  0  2  0  0  3  0  0  0  0  0  0
  183.8050  173.3090  134.6880 O   0  0  0  0  0  0  0  0  0  0  0  0
  182.3030  169.6280  135.4810 O   0  0  0  0  0  1  0  0  0  0  0  0
  182.8210  170.8670  135.0950 C   0  0  2  0  0  3  0  0  0  0  0  0
  180.4310  174.7370  138.2520 C   0  0  0  0  0  2  0  0  0  0  0  0
  180.2110  176.0020  139.0660 C   0  0  0  0  0  2  0  0  0  0  0  0
  179.9990  177.2330  138.1950 C   0  0  0  0  0  2  0  0  0  0  0  0
  180.5530  178.5340  138.7900 C   0  0  2  0  0  3  0  0  0  0  0  0
  180.1160  178.7060  140.2310 C   0  0  0  0  0  2  0  0  0  0  0  0
  179.8540  180.1700  140.5240 C   0  0  0  0  0  1  0  0  0  0  0  0
  180.0730  179.7320  137.9740 C   0  0  0  0  0  2  0  0  0  0  0  0
  180.9530  180.0240  136.7660 C   0  0  0  0  0  2  0  0  0  0  0  0
  180.9630  181.4940  136.5230 C   0  0  0  0  0  0  0  0  0  0  0  0
  180.9190  182.4170  137.4920 N   0  0  0  0  0  0  0  0  0  0  0  0
  180.9360  182.0910  135.2820 C   0  0  0  0  0  3  0  0  0  0  0  0
  180.8690  183.5750  136.8100 C   0  0  0  0  0  0  0  0  0  0  0  0
  180.8590  183.4190  135.4800 N   0  0  0  0  0  2  0  0  0  0  0  0
  180.6790  184.8880  137.4780 C   0  0  0  0  0  2  0  0  0  0  0  0
  179.4890  185.6220  136.8920 C   0  0  0  0  0  1  0  0  0  0  0  0
  1  2  1  0  0  0  0
  2 39  1  6  0  0  0
  3  5  1  0  0  0  0
  3  7  1  1  0  0  0
  3  4  1  0  0  0  0
  4  1  1  0  0  0  0
  5  2  1  0  0  0  0
  6  8  2  0  0  0  0
  6 18  1  0  0  0  0
  7  6  1  0  0  0  0
  9  8  1  0  0  0  0
 10  9  2  0  0  0  0
 11  9  1  0  0  0  0
 11 12  1  0  0  0  0
 13 12  1  0  0  0  0
 13 14  1  0  0  0  0
 14 16  1  0  0  0  0
 15 14  2  0  0  0  0
 17 19  1  0  0  0  0
 18 17  2  0  0  0  0
 19 20  1  0  0  0  0
 20 22  2  0  0  0  0
 20 21  1  0  0  0  0
 21 23  2  0  0  0  0
 22 24  1  0  0  0  0
 23 33  1  0  0  0  0
 24 23  1  0  0  0  0
 24 31  1  6  0  0  0
 25 29  1  0  0  0  0
 26 25  1  0  0  0  0
 27 28  2  0  0  0  0
 29 27  1  0  0  0  0
 30 27  1  0  0  0  0
 31 30  2  0  0  0  0
 32 26  1  0  0  0  0
 32 31  1  0  0  0  0
 34 35  1  0  0  0  0
 34 33  1  0  0  0  0
 35 38  1  0  0  0  0
 35 36  1  0  0  0  0
 37 35  2  0  0  0  0
 41 39  1  0  0  0  0
 41 40  2  0  0  0  0
 42 52  1  0  0  0  0
 43 42  1  6  0  0  0
 43 41  1  0  0  0  0
 46 44  1  1  0  0  0
 47 45  1  0  0  0  0
 48 46  1  0  0  0  0
 48 43  1  1  0  0  0
 49 48  1  0  0  0  0
 49 47  1  0  0  0  0
 51 46  1  0  0  0  0
 51 50  1  1  0  0  0
 51 45  1  0  0  0  0
 52 53  1  0  0  0  0
 54 55  1  0  0  0  0
 54 53  1  0  0  0  0
 55 58  1  6  0  0  0
 55 56  1  0  0  0  0
 56 57  1  0  0  0  0
 59 58  1  0  0  0  0
 60 59  1  0  0  0  0
 60 61  1  0  0  0  0
 62 64  1  0  0  0  0
 62 60  2  0  0  0  0
 63 65  1  0  0  0  0
 63 61  2  0  0  0  0
 64 63  1  0  0  0  0
 66 65  1  0  0  0  0
M  END
>  <MODEL>
8

>  <REMARK>
 VINA RESULT:      -4.8      4.535     10.701
  Name = 
  26 active torsions:
  status: ('A' for Active; 'I' for Inactive)
    1  A    between atoms: C_2  and  O_50
    2  A    between atoms: C_3  and  O_65
    3  A    between atoms: C_4  and  C_36
    4  A    between atoms: C_4  and  C_48
    5  A    between atoms: C_5  and  C_7
    6  A    between atoms: C_5  and  C_21
    7  A    between atoms: P_10  and  O_55
    8  A    between atoms: C_11  and  N_44
    9  A    between atoms: C_12  and  C_54
   10  A    between atoms: C_18  and  C_53
   11  A    between atoms: C_21  and  C_53
   12  A    between atoms: C_28  and  C_49
   13  A    between atoms: C_30  and  C_47
   14  A    between atoms: C_30  and  O_55
   15  A    between atoms: C_31  and  C_60
   16  A    between atoms: C_32  and  N_43
   17  A    between atoms: C_33  and  C_54
   18  A    between atoms: C_36  and  C_53
   19  A    between atoms: C_37  and  C_42
   20  A    between atoms: C_37  and  O_50
   21  A    between atoms: S_38  and  C_48
   22  A    between atoms: C_40  and  C_57
   23  A    between atoms: C_40  and  C_59
   24  A    between atoms: C_42  and  C_45
   25  A    between atoms: C_57  and  O_65
   26  A    between atoms: N_58  and  C_59
                            x       y       z     vdW  Elec       q    Type
                         _______ _______ _______ _____ _____    ______ ____

>  <TORSDO>
F 26

$$$$
=
 OpenBabel10222418383D

 66 70  0  0  1  0  0  0  0  0999 V2000
  189.1840  177.0780  135.1350 C   0  0  0  0  0  2  0  0  0  0  0  0
  188.6160  176.1790  136.2070 C   0  0  2  0  0  3  0  0  0  0  0  0
  190.6110  175.1280  135.2810 C   0  0  2  0  0  3  0  0  0  0  0  0
  190.6120  176.6210  134.9640 C   0  0  0  0  0  2  0  0  0  0  0  0
  189.3030  174.8460  136.0100 C   0  0  0  0  0  2  0  0  0  0  0  0
  191.8330  175.3510  137.4800 C   0  0  0  0  0  0  0  0  0  0  0  0
  191.7190  174.7910  136.1590 N   0  0  0  0  0  2  0  0  0  0  0  0
  192.9980  175.4100  138.0850 N   0  0  0  0  0  0  0  0  0  0  0  0
  194.2470  174.9290  137.5570 C   0  0  0  0  0  0  0  0  0  0  0  0
  194.8200  175.5130  136.5920 O   0  0  0  0  0  0  0  0  0  0  0  0
  194.9320  173.7840  138.2290 C   0  0  0  0  0  2  0  0  0  0  0  0
  196.4140  174.0740  138.4430 C   0  0  0  0  0  2  0  0  0  0  0  0
  196.8300  175.1690  137.6250 O   0  0  0  0  0  0  0  0  0  0  0  0
  198.1210  175.2540  137.0870 C   0  0  0  0  0  0  0  0  0  0  0  0
  199.1340  175.1010  137.8170 O   0  0  0  0  0  1  0  0  0  0  0  0
  198.2860  175.5660  135.7450 O   0  0  0  0  0  0  0  0  0  0  0  0
  190.7200  176.9400  138.8840 C   0  0  0  0  0  3  0  0  0  0  0  0
  190.6720  175.9250  138.0870 N   0  0  0  0  0  0  0  0  0  0  0  0
  189.4400  177.4790  139.4350 C   0  0  0  0  0  2  0  0  0  0  0  0
  189.3480  177.3460  140.9190 C   0  0  0  0  0  0  0  0  0  0  0  0
  190.2170  178.0710  141.8280 C   0  0  0  0  0  3  0  0  0  0  0  0
  188.3360  176.8140  141.5230 N   0  0  0  0  0  0  0  0  0  0  0  0
  189.6750  177.9230  143.0290 C   0  0  0  0  0  0  0  0  0  0  0  0
  188.4650  177.0450  142.9600 C   0  0  1  0  0  3  0  0  0  0  0  0
  185.2060  179.3500  145.3600 C   0  0  0  0  0  2  0  0  0  0  0  0
  186.1080  178.2070  145.7620 C   0  0  0  0  0  2  0  0  0  0  0  0
  185.2510  179.0500  142.8940 C   0  0  0  0  0  0  0  0  0  0  0  0
  184.9290  179.8900  142.0090 O   0  0  0  0  0  0  0  0  0  0  0  0
  184.4200  178.9510  144.1400 C   0  0  0  0  0  2  0  0  0  0  0  0
  186.3870  178.2120  142.6560 N   0  0  0  0  0  0  0  0  0  0  0  0
  187.2500  177.7340  143.5120 C   0  0  0  0  0  0  0  0  0  0  0  0
  187.2680  178.1360  144.8930 N   0  0  0  0  0  2  0  0  0  0  0  0
  190.2540  178.4990  144.2860 C   0  0  0  0  0  2  0  0  0  0  0  0
  191.4910  177.9180  144.5370 O   0  0  0  0  0  0  0  0  0  0  0  0
  191.2460  176.6670  145.6580 P   0  0  0  0  0  0  0  0  0  0  0  0
  191.9560  175.3870  145.2630 O   0  0  0  0  0  0  0  0  0  0  0  0
  189.5890  176.3660  145.8270 O   0  0  0  0  0  1  0  0  0  0  0  0
  191.8620  177.1560  147.1630 O   0  0  0  0  0  1  0  0  0  0  0  0
  187.1990  176.0610  136.0820 O   0  0  0  0  0  0  0  0  0  0  0  0
  187.3440  174.2950  134.5940 O   0  0  0  0  0  0  0  0  0  0  0  0
  186.6210  175.0780  135.2820 C   0  0  0  0  0  0  0  0  0  0  0  0
  184.1860  176.0660  135.8610 S   0  0  0  0  0  0  0  0  0  0  0  0
  185.1530  174.8770  135.3090 C   0  0  1  0  0  3  0  0  0  0  0  0
  182.4120  174.4920  135.4170 O   0  0  0  0  0  1  0  0  0  0  0  0
  183.4860  171.9200  136.8630 C   0  0  0  0  0  2  0  0  0  0  0  0
  183.0460  173.3780  134.8430 C   0  0  1  0  0  3  0  0  0  0  0  0
  184.9870  172.1290  136.5980 C   0  0  0  0  0  2  0  0  0  0  0  0
  184.5940  173.5630  134.8030 C   0  0  2  0  0  3  0  0  0  0  0  0
  185.2920  172.4120  135.2510 O   0  0  0  0  0  0  0  0  0  0  0  0
  181.3040  172.0480  135.8810 O   0  0  0  0  0  1  0  0  0  0  0  0
  182.6690  172.0860  135.5880 C   0  0  2  0  0  3  0  0  0  0  0  0
  184.7650  176.3520  137.5390 C   0  0  0  0  0  2  0  0  0  0  0  0
  183.5930  176.1770  138.4920 C   0  0  0  0  0  2  0  0  0  0  0  0
  182.2550  176.5100  137.8460 C   0  0  0  0  0  2  0  0  0  0  0  0
  181.3350  177.3850  138.7090 C   0  0  2  0  0  3  0  0  0  0  0  0
  179.8830  176.9860  138.5390 C   0  0  0  0  0  2  0  0  0  0  0  0
  179.4150  176.2000  139.7490 C   0  0  0  0  0  1  0  0  0  0  0  0
  181.4990  178.8550  138.3290 C   0  0  0  0  0  2  0  0  0  0  0  0
  180.7640  179.8010  139.2680 C   0  0  0  0  0  2  0  0  0  0  0  0
  180.6260  181.1270  138.6040 C   0  0  0  0  0  0  0  0  0  0  0  0
  181.6570  181.9110  138.2660 N   0  0  0  0  0  0  0  0  0  0  0  0
  179.4300  181.7530  138.3270 C   0  0  0  0  0  3  0  0  0  0  0  0
  181.0600  183.0120  137.7790 C   0  0  0  0  0  0  0  0  0  0  0  0
  179.7210  182.9620  137.8170 N   0  0  0  0  0  2  0  0  0  0  0  0
  181.8180  184.2280  137.3910 C   0  0  0  0  0  2  0  0  0  0  0  0
  181.0910  184.9920  136.3010 C   0  0  0  0  0  1  0  0  0  0  0  0
  1  2  1  0  0  0  0
  2 39  1  6  0  0  0
  3  5  1  0  0  0  0
  3  7  1  1  0  0  0
  4  1  1  0  0  0  0
  4  3  1  0  0  0  0
  5  2  1  0  0  0  0
  6  8  2  0  0  0  0
  6 18  1  0  0  0  0
  7  6  1  0  0  0  0
  9  8  1  0  0  0  0
  9 11  1  0  0  0  0
 10  9  2  0  0  0  0
 11 12  1  0  0  0  0
 13 12  1  0  0  0  0
 14 13  1  0  0  0  0
 14 15  1  0  0  0  0
 16 14  2  0  0  0  0
 17 19  1  0  0  0  0
 18 17  2  0  0  0  0
 19 20  1  0  0  0  0
 20 22  2  0  0  0  0
 20 21  1  0  0  0  0
 21 23  2  0  0  0  0
 22 24  1  0  0  0  0
 23 33  1  0  0  0  0
 24 23  1  0  0  0  0
 24 31  1  6  0  0  0
 25 26  1  0  0  0  0
 27 29  1  0  0  0  0
 28 27  2  0  0  0  0
 29 25  1  0  0  0  0
 30 27  1  0  0  0  0
 30 31  2  0  0  0  0
 31 32  1  0  0  0  0
 32 26  1  0  0  0  0
 33 34  1  0  0  0  0
 34 35  1  0  0  0  0
 35 37  1  0  0  0  0
 35 38  1  0  0  0  0
 36 35  2  0  0  0  0
 40 41  2  0  0  0  0
 41 39  1  0  0  0  0
 42 52  1  0  0  0  0
 43 41  1  6  0  0  0
 43 42  1  0  0  0  0
 46 44  1  1  0  0  0
 46 51  1  0  0  0  0
 47 45  1  0  0  0  0
 48 46  1  0  0  0  0
 48 49  1  0  0  0  0
 48 43  1  1  0  0  0
 49 47  1  0  0  0  0
 51 50  1  1  0  0  0
 51 45  1  0  0  0  0
 52 53  1  0  0  0  0
 54 53  1  0  0  0  0
 55 54  1  6  0  0  0
 56 55  1  0  0  0  0
 56 57  1  0  0  0  0
 58 55  1  0  0  0  0
 58 59  1  0  0  0  0
 60 59  1  0  0  0  0
 61 60  1  0  0  0  0
 62 60  2  0  0  0  0
 63 64  1  0  0  0  0
 63 61  2  0  0  0  0
 64 62  1  0  0  0  0
 65 63  1  0  0  0  0
 66 65  1  0  0  0  0
M  END
>  <MODEL>
9

>  <REMARK>
 VINA RESULT:      -4.7      4.074     10.038
  Name = 
  26 active torsions:
  status: ('A' for Active; 'I' for Inactive)
    1  A    between atoms: C_2  and  O_50
    2  A    between atoms: C_3  and  O_65
    3  A    between atoms: C_4  and  C_36
    4  A    between atoms: C_4  and  C_48
    5  A    between atoms: C_5  and  C_7
    6  A    between atoms: C_5  and  C_21
    7  A    between atoms: P_10  and  O_55
    8  A    between atoms: C_11  and  N_44
    9  A    between atoms: C_12  and  C_54
   10  A    between atoms: C_18  and  C_53
   11  A    between atoms: C_21  and  C_53
   12  A    between atoms: C_28  and  C_49
   13  A    between atoms: C_30  and  C_47
   14  A    between atoms: C_30  and  O_55
   15  A    between atoms: C_31  and  C_60
   16  A    between atoms: C_32  and  N_43
   17  A    between atoms: C_33  and  C_54
   18  A    between atoms: C_36  and  C_53
   19  A    between atoms: C_37  and  C_42
   20  A    between atoms: C_37  and  O_50
   21  A    between atoms: S_38  and  C_48
   22  A    between atoms: C_40  and  C_57
   23  A    between atoms: C_40  and  C_59
   24  A    between atoms: C_42  and  C_45
   25  A    between atoms: C_57  and  O_65
   26  A    between atoms: N_58  and  C_59
                            x       y       z     vdW  Elec       q    Type
                         _______ _______ _______ _____ _____    ______ ____

>  <TORSDO>
F 26

$$$$
