=
 OpenBabel10222417523D

 53 56  0  0  1  0  0  0  0  0999 V2000
  181.8930  176.7180  139.6370 C   0  0  0  0  0  2  0  0  0  0  0  0
  184.4420  177.8050  140.8410 C   0  0  0  0  0  2  0  0  0  0  0  0
  182.0170  174.0200  138.8140 O   0  0  0  0  0  0  0  0  0  0  0  0
  181.6220  177.9900  139.9760 C   0  0  1  0  0  3  0  0  0  0  0  0
  182.1290  176.3000  138.2280 C   0  0  2  0  0  3  0  0  0  0  0  0
  185.1770  178.6680  138.6970 O   0  0  0  0  0  0  0  0  0  0  0  0
  182.0270  178.4180  141.3450 C   0  0  0  0  0  2  0  0  0  0  0  0
  183.4670  176.2470  135.4830 C   0  0  0  0  0  2  0  0  0  0  0  0
  182.5860  173.9930  135.8580 N   0  0  0  0  0  0  0  0  0  0  0  0
  183.5280  174.7430  135.3640 C   0  0  0  0  0  0  0  0  0  0  0  0
  184.1470  176.7130  136.7350 C   0  0  0  0  0  0  0  0  0  0  0  0
  186.0330  177.9230  137.8630 C   0  0  1  0  0  3  0  0  0  0  0  0
  181.7900  174.8710  137.9720 C   0  0  0  0  0  0  0  0  0  0  0  0
  181.4120  174.4830  136.5720 C   0  0  2  0  0  3  0  0  0  0  0  0
  183.4870  178.8700  141.4010 C   0  0  1  0  0  3  0  0  0  0  0  0
  183.5510  176.4950  138.0050 N   0  0  0  0  0  2  0  0  0  0  0  0
  185.5770  178.4040  140.0160 C   0  0  0  0  0  2  0  0  0  0  0  0
  180.3390  173.4120  136.5850 C   0  0  0  0  0  1  0  0  0  0  0  0
  185.2910  177.3930  136.6590 C   0  0  0  0  0  3  0  0  0  0  0  0
  184.6640  174.0880  134.7750 N   0  0  0  0  0  0  0  0  0  0  0  0
  185.9130  173.7810  136.7700 N   0  0  0  0  0  1  0  0  0  0  0  0
  186.7320  172.9880  134.6010 N   0  0  0  0  0  1  0  0  0  0  0  0
  185.7110  173.6070  135.3780 C   0  0  0  0  0  0  0  0  0  0  0  0
  182.9380  180.0350  143.4100 F   0  0  0  0  0  0  0  0  0  0  0  0
  185.1170  179.7860  142.9090 F   0  0  0  0  0  0  0  0  0  0  0  0
  183.8680  179.1800  142.8540 C   0  0  0  0  0  0  0  0  0  0  0  0
  183.9080  177.9980  143.5980 F   0  0  0  0  0  0  0  0  0  0  0  0
  187.1650  178.8080  137.3560 C   0  0  0  0  0  2  0  0  0  0  0  0
  188.3400  178.0010  136.8380 C   0  0  0  0  0  2  0  0  0  0  0  0
  189.0570  177.1690  138.9980 C   0  0  1  0  0  3  0  0  0  0  0  0
  189.4650  177.9830  137.8580 C   0  0  1  0  0  3  0  0  0  0  0  0
  189.9770  176.6100  137.9960 N   0  0  0  0  0  2  0  0  0  0  0  0
  189.8480  177.5840  140.2280 C   0  0  0  0  0  2  0  0  0  0  0  0
  189.2080  177.0220  141.4920 C   0  0  0  0  0  2  0  0  0  0  0  0
  188.8890  178.1260  142.4960 C   0  0  0  0  0  2  0  0  0  0  0  0
  188.6720  177.1310  146.0090 O   0  0  0  0  0  0  0  0  0  0  0  0
  188.2910  177.4900  144.8680 C   0  0  0  0  0  0  0  0  0  0  0  0
  189.2570  177.7040  143.8420 N   0  0  0  0  0  2  0  0  0  0  0  0
  186.8390  177.7200  144.6250 C   0  0  0  0  0  2  0  0  0  0  0  0
  186.2130  178.3870  145.8420 C   0  0  0  0  0  1  0  0  0  0  0  0
  181.1400  179.0420  139.0070 C   0  0  1  0  0  3  0  0  0  0  0  0
  179.6590  179.2560  139.0480 C   0  0  0  0  0  0  0  0  0  0  0  0
  178.9340  178.8100  138.1130 O   0  0  0  0  0  0  0  0  0  0  0  0
  179.0860  179.9960  140.0780 O   0  0  0  0  0  1  0  0  0  0  0  0
  181.8300  180.2490  139.1920 O   0  0  0  0  0  0  0  0  0  0  0  0
  180.4560  182.2780  136.5810 C   0  0  1  0  0  3  0  0  0  0  0  0
  178.9670  182.1890  136.8540 C   0  0  0  0  0  1  0  0  0  0  0  0
  181.2170  182.2520  137.8980 C   0  0  1  0  0  3  0  0  0  0  0  0
  181.5440  180.0920  136.7530 C   0  0  0  0  0  2  0  0  0  0  0  0
  181.9610  180.9200  137.9550 C   0  0  2  0  0  3  0  0  0  0  0  0
  180.9120  181.0740  135.7800 C   0  0  0  0  0  2  0  0  0  0  0  0
  181.8570  184.4430  137.1060 O   0  0  0  0  0  1  0  0  0  0  0  0
  182.1950  183.4220  138.0010 C   0  0  0  0  0  2  0  0  0  0  0  0
  1  4  1  0  0  0  0
  2 15  1  0  0  0  0
  4 41  1  6  0  0  0
  4  7  1  0  0  0  0
  5  1  1  1  0  0  0
  6 17  1  0  0  0  0
  7 15  1  0  0  0  0
  8 11  1  0  0  0  0
  9 14  1  0  0  0  0
 10  8  1  0  0  0  0
 10  9  2  0  0  0  0
 11 16  1  0  0  0  0
 12 28  1  6  0  0  0
 12  6  1  0  0  0  0
 13  5  1  0  0  0  0
 13  3  2  0  0  0  0
 14 18  1  1  0  0  0
 14 13  1  0  0  0  0
 15 26  1  1  0  0  0
 16  5  1  0  0  0  0
 17  2  1  0  0  0  0
 19 11  2  0  0  0  0
 19 12  1  0  0  0  0
 20 10  1  0  0  0  0
 20 23  2  0  0  0  0
 22 23  1  0  0  0  0
 23 21  1  0  0  0  0
 26 25  1  0  0  0  0
 26 24  1  0  0  0  0
 26 27  1  0  0  0  0
 29 28  1  0  0  0  0
 30 33  1  1  0  0  0
 31 29  1  6  0  0  0
 31 32  1  0  0  0  0
 31 30  1  0  0  0  0
 32 30  1  0  0  0  0
 33 34  1  0  0  0  0
 34 35  1  0  0  0  0
 35 38  1  0  0  0  0
 37 36  2  0  0  0  0
 38 37  1  0  0  0  0
 39 37  1  0  0  0  0
 39 40  1  0  0  0  0
 41 42  1  1  0  0  0
 41 45  1  0  0  0  0
 42 44  1  0  0  0  0
 43 42  2  0  0  0  0
 46 47  1  1  0  0  0
 46 48  1  0  0  0  0
 48 50  1  0  0  0  0
 48 53  1  6  0  0  0
 49 50  1  0  0  0  0
 50 45  1  1  0  0  0
 51 46  1  0  0  0  0
 51 49  1  0  0  0  0
 52 53  1  0  0  0  0
M  END
>  <MODEL>
1

>  <REMARK>
 VINA RESULT:      -5.8      0.000      0.000
  Name = 
  15 active torsions:
  status: ('A' for Active; 'I' for Inactive)
    1  A    between atoms: C_1  and  C_15
    2  A    between atoms: C_1  and  C_37
    3  A    between atoms: N_2  and  C_35
    4  A    between atoms: C_5  and  C_12
    5  A    between atoms: C_5  and  C_32
    6  A    between atoms: C_10  and  C_13
    7  A    between atoms: C_10  and  C_17
    8  A    between atoms: C_10  and  O_52
    9  A    between atoms: C_15  and  C_23
   10  A    between atoms: C_18  and  C_33
   11  A    between atoms: C_26  and  C_28
   12  A    between atoms: C_31  and  C_40
   13  A    between atoms: C_32  and  C_43
   14  A    between atoms: C_42  and  O_52
   15  A    between atoms: C_43  and  N_48
                            x       y       z     vdW  Elec       q    Type
                         _______ _______ _______ _____ _____    ______ ____

>  <TORSDO>
F 15

$$$$
=
 OpenBabel10222417523D

 53 56  0  0  1  0  0  0  0  0999 V2000
  182.0330  177.0660  139.8630 C   0  0  0  0  0  2  0  0  0  0  0  0
  184.4950  177.8440  141.4320 C   0  0  0  0  0  2  0  0  0  0  0  0
  181.9870  174.3900  138.9650 O   0  0  0  0  0  0  0  0  0  0  0  0
  181.8520  178.3520  140.2100 C   0  0  1  0  0  3  0  0  0  0  0  0
  182.4130  176.6570  138.4830 C   0  0  2  0  0  3  0  0  0  0  0  0
  185.5990  178.6710  139.4370 O   0  0  0  0  0  0  0  0  0  0  0  0
  182.1110  178.7030  141.6350 C   0  0  0  0  0  2  0  0  0  0  0  0
  184.0970  176.5220  135.9390 C   0  0  0  0  0  2  0  0  0  0  0  0
  182.9440  174.3680  136.1110 N   0  0  0  0  0  0  0  0  0  0  0  0
  184.0170  175.0230  135.7730 C   0  0  0  0  0  0  0  0  0  0  0  0
  184.6470  176.8830  137.2850 C   0  0  0  0  0  0  0  0  0  0  0  0
  186.4780  177.8570  138.6970 C   0  0  1  0  0  3  0  0  0  0  0  0
  181.9650  175.2790  138.1320 C   0  0  0  0  0  0  0  0  0  0  0  0
  181.7420  174.9650  136.6810 C   0  0  2  0  0  3  0  0  0  0  0  0
  183.5890  178.9930  141.9000 C   0  0  1  0  0  3  0  0  0  0  0  0
  183.8640  176.7030  138.4570 N   0  0  0  0  0  2  0  0  0  0  0  0
  185.7870  178.3360  140.7870 C   0  0  0  0  0  2  0  0  0  0  0  0
  180.5720  174.0160  136.5120 C   0  0  0  0  0  1  0  0  0  0  0  0
  185.8540  177.4380  137.3870 C   0  0  0  0  0  3  0  0  0  0  0  0
  185.1490  174.2630  135.3160 N   0  0  0  0  0  0  0  0  0  0  0  0
  185.8950  173.5100  137.4400 N   0  0  0  0  0  1  0  0  0  0  0  0
  187.0320  172.8600  135.3690 N   0  0  0  0  0  1  0  0  0  0  0  0
  185.9670  173.5430  136.0250 C   0  0  0  0  0  0  0  0  0  0  0  0
  185.0110  179.8520  143.6130 F   0  0  0  0  0  0  0  0  0  0  0  0
  183.7950  178.0190  144.0860 F   0  0  0  0  0  0  0  0  0  0  0  0
  183.7990  179.2280  143.4010 C   0  0  0  0  0  0  0  0  0  0  0  0
  182.7730  180.0330  143.9040 F   0  0  0  0  0  0  0  0  0  0  0  0
  187.7540  178.6260  138.3770 C   0  0  0  0  0  2  0  0  0  0  0  0
  188.9410  177.7080  138.1600 C   0  0  0  0  0  2  0  0  0  0  0  0
  189.6460  176.8890  140.3280 C   0  0  1  0  0  3  0  0  0  0  0  0
  189.9480  177.8630  139.2860 C   0  0  1  0  0  3  0  0  0  0  0  0
  190.7530  176.6360  139.3930 N   0  0  0  0  0  2  0  0  0  0  0  0
  190.2100  177.3710  141.6540 C   0  0  0  0  0  2  0  0  0  0  0  0
  190.1630  176.2570  142.6940 C   0  0  0  0  0  2  0  0  0  0  0  0
  188.9110  176.3530  143.5610 C   0  0  0  0  0  2  0  0  0  0  0  0
  188.7220  177.8910  146.8750 O   0  0  0  0  0  0  0  0  0  0  0  0
  188.3570  177.5300  145.7290 C   0  0  0  0  0  0  0  0  0  0  0  0
  189.2620  176.8000  144.9040 N   0  0  0  0  0  2  0  0  0  0  0  0
  187.0000  177.9080  145.2430 C   0  0  0  0  0  2  0  0  0  0  0  0
  186.0480  178.0300  146.4250 C   0  0  0  0  0  1  0  0  0  0  0  0
  181.6170  179.4710  139.2250 C   0  0  1  0  0  3  0  0  0  0  0  0
  182.8540  179.8910  138.4950 C   0  0  0  0  0  0  0  0  0  0  0  0
  183.6820  180.6650  139.0550 O   0  0  0  0  0  1  0  0  0  0  0  0
  183.0650  179.4830  137.1810 O   0  0  0  0  0  0  0  0  0  0  0  0
  180.5880  179.1460  138.3290 O   0  0  0  0  0  0  0  0  0  0  0  0
  179.8490  182.5830  137.6480 C   0  0  1  0  0  3  0  0  0  0  0  0
  181.2270  183.2150  137.6530 C   0  0  0  0  0  1  0  0  0  0  0  0
  179.9390  181.1700  137.0880 C   0  0  1  0  0  3  0  0  0  0  0  0
  179.5540  181.0350  139.5210 C   0  0  0  0  0  2  0  0  0  0  0  0
  179.6680  180.2160  138.2470 C   0  0  2  0  0  3  0  0  0  0  0  0
  179.3250  182.4670  139.0660 C   0  0  0  0  0  2  0  0  0  0  0  0
  179.2000  179.7670  135.2650 O   0  0  0  0  0  1  0  0  0  0  0  0
  178.9320  180.9520  135.9600 C   0  0  0  0  0  2  0  0  0  0  0  0
  1  4  1  0  0  0  0
  2 15  1  0  0  0  0
  4 41  1  6  0  0  0
  4  7  1  0  0  0  0
  5  1  1  1  0  0  0
  6 17  1  0  0  0  0
  7 15  1  0  0  0  0
  8 11  1  0  0  0  0
  9 14  1  0  0  0  0
 10  8  1  0  0  0  0
 10  9  2  0  0  0  0
 11 19  2  0  0  0  0
 11 16  1  0  0  0  0
 12 28  1  6  0  0  0
 12  6  1  0  0  0  0
 13  5  1  0  0  0  0
 13  3  2  0  0  0  0
 14 18  1  1  0  0  0
 14 13  1  0  0  0  0
 15 26  1  1  0  0  0
 16  5  1  0  0  0  0
 17  2  1  0  0  0  0
 19 12  1  0  0  0  0
 20 10  1  0  0  0  0
 20 23  2  0  0  0  0
 22 23  1  0  0  0  0
 23 21  1  0  0  0  0
 26 24  1  0  0  0  0
 26 27  1  0  0  0  0
 26 25  1  0  0  0  0
 29 28  1  0  0  0  0
 30 33  1  1  0  0  0
 31 29  1  6  0  0  0
 31 32  1  0  0  0  0
 31 30  1  0  0  0  0
 32 30  1  0  0  0  0
 33 34  1  0  0  0  0
 34 35  1  0  0  0  0
 35 38  1  0  0  0  0
 37 36  2  0  0  0  0
 38 37  1  0  0  0  0
 39 37  1  0  0  0  0
 39 40  1  0  0  0  0
 41 45  1  6  0  0  0
 42 43  1  0  0  0  0
 42 41  1  0  0  0  0
 44 42  2  0  0  0  0
 46 47  1  1  0  0  0
 46 51  1  0  0  0  0
 48 53  1  6  0  0  0
 48 46  1  0  0  0  0
 48 50  1  0  0  0  0
 50 45  1  1  0  0  0
 50 49  1  0  0  0  0
 51 49  1  0  0  0  0
 52 53  1  0  0  0  0
M  END
>  <MODEL>
2

>  <REMARK>
 VINA RESULT:      -5.7      1.217      2.023
  Name = 
  15 active torsions:
  status: ('A' for Active; 'I' for Inactive)
    1  A    between atoms: C_1  and  C_15
    2  A    between atoms: C_1  and  C_37
    3  A    between atoms: N_2  and  C_35
    4  A    between atoms: C_5  and  C_12
    5  A    between atoms: C_5  and  C_32
    6  A    between atoms: C_10  and  C_13
    7  A    between atoms: C_10  and  C_17
    8  A    between atoms: C_10  and  O_52
    9  A    between atoms: C_15  and  C_23
   10  A    between atoms: C_18  and  C_33
   11  A    between atoms: C_26  and  C_28
   12  A    between atoms: C_31  and  C_40
   13  A    between atoms: C_32  and  C_43
   14  A    between atoms: C_42  and  O_52
   15  A    between atoms: C_43  and  N_48
                            x       y       z     vdW  Elec       q    Type
                         _______ _______ _______ _____ _____    ______ ____

>  <TORSDO>
F 15

$$$$
=
 OpenBabel10222417523D

 53 56  0  0  1  0  0  0  0  0999 V2000
  181.2640  175.7990  138.0730 C   0  0  0  0  0  2  0  0  0  0  0  0
  182.9570  177.4040  139.9920 C   0  0  0  0  0  2  0  0  0  0  0  0
  182.0640  173.1130  137.7340 O   0  0  0  0  0  0  0  0  0  0  0  0
  180.7120  177.0240  138.1070 C   0  0  1  0  0  3  0  0  0  0  0  0
  182.0920  175.3270  136.9300 C   0  0  2  0  0  3  0  0  0  0  0  0
  184.3580  178.2240  138.1910 O   0  0  0  0  0  0  0  0  0  0  0  0
  180.4810  177.6160  139.4550 C   0  0  0  0  0  2  0  0  0  0  0  0
  184.4020  175.3110  134.9310 C   0  0  0  0  0  2  0  0  0  0  0  0
  183.7550  172.9710  135.2470 N   0  0  0  0  0  0  0  0  0  0  0  0
  184.7060  173.8370  135.0500 C   0  0  0  0  0  0  0  0  0  0  0  0
  184.4610  175.9800  136.2710 C   0  0  0  0  0  0  0  0  0  0  0  0
  185.5650  177.5830  137.8530 C   0  0  1  0  0  3  0  0  0  0  0  0
  182.0770  173.8460  136.7610 C   0  0  0  0  0  0  0  0  0  0  0  0
  182.3400  173.2960  135.3900 C   0  0  2  0  0  3  0  0  0  0  0  0
  181.7250  178.3210  139.9990 C   0  0  1  0  0  3  0  0  0  0  0  0
  183.4460  175.7540  137.2370 N   0  0  0  0  0  2  0  0  0  0  0  0
  184.2340  178.1320  139.5860 C   0  0  0  0  0  2  0  0  0  0  0  0
  181.5040  172.0560  135.1400 C   0  0  0  0  0  1  0  0  0  0  0  0
  185.4390  176.8440  136.5430 C   0  0  0  0  0  3  0  0  0  0  0  0
  186.0590  173.3520  135.0300 N   0  0  0  0  0  0  0  0  0  0  0  0
  186.2600  172.9020  137.3530 N   0  0  0  0  0  1  0  0  0  0  0  0
  188.0910  172.4500  135.7890 N   0  0  0  0  0  1  0  0  0  0  0  0
  186.7550  172.8850  136.0250 C   0  0  0  0  0  0  0  0  0  0  0  0
  182.6330  179.2020  142.0220 F   0  0  0  0  0  0  0  0  0  0  0  0
  180.9040  177.7720  142.1880 F   0  0  0  0  0  0  0  0  0  0  0  0
  181.4530  178.7990  141.4300 C   0  0  0  0  0  0  0  0  0  0  0  0
  180.5590  179.8720  141.4110 F   0  0  0  0  0  0  0  0  0  0  0  0
  186.6760  178.6150  137.6980 C   0  0  0  0  0  2  0  0  0  0  0  0
  187.6520  178.2500  136.5960 C   0  0  0  0  0  2  0  0  0  0  0  0
  188.6680  176.8360  138.2820 C   0  0  1  0  0  3  0  0  0  0  0  0
  188.9600  177.7530  137.1860 C   0  0  1  0  0  3  0  0  0  0  0  0
  189.0730  176.3010  136.9730 N   0  0  0  0  0  2  0  0  0  0  0  0
  189.8520  176.7840  139.2320 C   0  0  0  0  0  2  0  0  0  0  0  0
  189.6810  177.7960  140.3590 C   0  0  0  0  0  2  0  0  0  0  0  0
  188.3100  177.6730  141.0190 C   0  0  0  0  0  2  0  0  0  0  0  0
  187.5580  177.4140  144.5890 O   0  0  0  0  0  0  0  0  0  0  0  0
  187.3630  177.5880  143.3610 C   0  0  0  0  0  0  0  0  0  0  0  0
  188.4590  177.4790  142.4560 N   0  0  0  0  0  2  0  0  0  0  0  0
  185.9970  177.9430  142.8830 C   0  0  0  0  0  2  0  0  0  0  0  0
  185.1520  178.4260  144.0540 C   0  0  0  0  0  1  0  0  0  0  0  0
  180.5170  177.9010  136.8940 C   0  0  1  0  0  3  0  0  0  0  0  0
  179.7620  177.2300  135.7890 C   0  0  0  0  0  0  0  0  0  0  0  0
  179.8390  177.6840  134.6110 O   0  0  0  0  0  0  0  0  0  0  0  0
  178.9310  176.1490  136.0640 O   0  0  0  0  0  1  0  0  0  0  0  0
  179.9200  179.1200  137.2460 O   0  0  0  0  0  0  0  0  0  0  0  0
  180.7370  182.6070  137.2870 C   0  0  1  0  0  3  0  0  0  0  0  0
  179.4330  183.2370  137.7340 C   0  0  0  0  0  1  0  0  0  0  0  0
  180.9080  181.2560  137.9680 C   0  0  1  0  0  3  0  0  0  0  0  0
  180.3760  180.8810  135.5890 C   0  0  0  0  0  2  0  0  0  0  0  0
  180.7680  180.1920  136.8840 C   0  0  2  0  0  3  0  0  0  0  0  0
  180.7070  182.3500  135.7930 C   0  0  0  0  0  2  0  0  0  0  0  0
  182.9900  182.3400  138.5410 O   0  0  0  0  0  1  0  0  0  0  0  0
  182.2680  181.1480  138.6590 C   0  0  0  0  0  2  0  0  0  0  0  0
  1  4  1  0  0  0  0
  2 15  1  0  0  0  0
  4 41  1  6  0  0  0
  4  7  1  0  0  0  0
  5 16  1  0  0  0  0
  5  1  1  1  0  0  0
  6 17  1  0  0  0  0
  7 15  1  0  0  0  0
  8 10  1  0  0  0  0
  8 11  1  0  0  0  0
  9 14  1  0  0  0  0
 10  9  2  0  0  0  0
 11 19  2  0  0  0  0
 11 16  1  0  0  0  0
 12 28  1  6  0  0  0
 12  6  1  0  0  0  0
 13  5  1  0  0  0  0
 13  3  2  0  0  0  0
 14 18  1  1  0  0  0
 14 13  1  0  0  0  0
 15 26  1  1  0  0  0
 17  2  1  0  0  0  0
 19 12  1  0  0  0  0
 20 10  1  0  0  0  0
 20 23  2  0  0  0  0
 22 23  1  0  0  0  0
 23 21  1  0  0  0  0
 26 24  1  0  0  0  0
 26 25  1  0  0  0  0
 27 26  1  0  0  0  0
 29 28  1  0  0  0  0
 30 33  1  1  0  0  0
 31 29  1  6  0  0  0
 31 30  1  0  0  0  0
 32 31  1  0  0  0  0
 32 30  1  0  0  0  0
 33 34  1  0  0  0  0
 34 35  1  0  0  0  0
 35 38  1  0  0  0  0
 37 36  2  0  0  0  0
 38 37  1  0  0  0  0
 39 37  1  0  0  0  0
 39 40  1  0  0  0  0
 41 42  1  6  0  0  0
 41 45  1  0  0  0  0
 42 44  1  0  0  0  0
 43 42  2  0  0  0  0
 46 47  1  1  0  0  0
 46 48  1  0  0  0  0
 48 53  1  6  0  0  0
 49 51  1  0  0  0  0
 49 50  1  0  0  0  0
 50 45  1  1  0  0  0
 50 48  1  0  0  0  0
 51 46  1  0  0  0  0
 52 53  1  0  0  0  0
M  END
>  <MODEL>
3

>  <REMARK>
 VINA RESULT:      -5.6      1.626      2.143
  Name = 
  15 active torsions:
  status: ('A' for Active; 'I' for Inactive)
    1  A    between atoms: C_1  and  C_15
    2  A    between atoms: C_1  and  C_37
    3  A    between atoms: N_2  and  C_35
    4  A    between atoms: C_5  and  C_12
    5  A    between atoms: C_5  and  C_32
    6  A    between atoms: C_10  and  C_13
    7  A    between atoms: C_10  and  C_17
    8  A    between atoms: C_10  and  O_52
    9  A    between atoms: C_15  and  C_23
   10  A    between atoms: C_18  and  C_33
   11  A    between atoms: C_26  and  C_28
   12  A    between atoms: C_31  and  C_40
   13  A    between atoms: C_32  and  C_43
   14  A    between atoms: C_42  and  O_52
   15  A    between atoms: C_43  and  N_48
                            x       y       z     vdW  Elec       q    Type
                         _______ _______ _______ _____ _____    ______ ____

>  <TORSDO>
F 15

$$$$
=
 OpenBabel10222417523D

 53 56  0  0  1  0  0  0  0  0999 V2000
  183.2120  176.0480  137.1460 C   0  0  0  0  0  2  0  0  0  0  0  0
  182.1880  175.8220  139.9800 C   0  0  0  0  0  2  0  0  0  0  0  0
  185.7990  174.9990  136.7240 O   0  0  0  0  0  0  0  0  0  0  0  0
  181.9770  176.5780  137.1300 C   0  0  1  0  0  3  0  0  0  0  0  0
  184.4410  176.8860  137.1110 C   0  0  2  0  0  3  0  0  0  0  0  0
  182.9960  178.0420  140.5300 O   0  0  0  0  0  0  0  0  0  0  0  0
  180.9000  175.7850  137.7890 C   0  0  0  0  0  2  0  0  0  0  0  0
  186.4430  179.0060  138.0200 C   0  0  0  0  0  2  0  0  0  0  0  0
  187.7460  177.2910  136.8560 N   0  0  0  0  0  0  0  0  0  0  0  0
  187.6760  178.1570  137.8250 C   0  0  0  0  0  0  0  0  0  0  0  0
  185.4670  178.3320  138.9360 C   0  0  0  0  0  0  0  0  0  0  0  0
  184.2550  178.2340  141.1300 C   0  0  1  0  0  3  0  0  0  0  0  0
  185.6160  176.1860  136.5170 C   0  0  0  0  0  0  0  0  0  0  0  0
  186.6870  177.0280  135.8880 C   0  0  2  0  0  3  0  0  0  0  0  0
  180.8310  176.0420  139.2950 C   0  0  1  0  0  3  0  0  0  0  0  0
  184.7310  177.1990  138.4990 N   0  0  0  0  0  2  0  0  0  0  0  0
  182.4760  176.8530  141.0670 C   0  0  0  0  0  2  0  0  0  0  0  0
  187.2690  176.3340  134.6720 C   0  0  0  0  0  1  0  0  0  0  0  0
  185.2370  178.8310  140.1510 C   0  0  0  0  0  3  0  0  0  0  0  0
  188.7760  178.2180  138.7480 N   0  0  0  0  0  0  0  0  0  0  0  0
  189.7160  176.0960  138.2510 N   0  0  0  0  0  1  0  0  0  0  0  0
  190.7300  177.6010  139.8970 N   0  0  0  0  0  1  0  0  0  0  0  0
  189.7230  177.3440  138.9230 C   0  0  0  0  0  0  0  0  0  0  0  0
  180.4170  174.1360  140.6710 F   0  0  0  0  0  0  0  0  0  0  0  0
  179.0340  174.4910  138.9320 F   0  0  0  0  0  0  0  0  0  0  0  0
  179.7880  175.1100  139.9220 C   0  0  0  0  0  0  0  0  0  0  0  0
  178.9310  175.8420  140.7470 F   0  0  0  0  0  0  0  0  0  0  0  0
  184.1300  179.1970  142.3050 C   0  0  0  0  0  2  0  0  0  0  0  0
  185.3720  179.2110  143.1740 C   0  0  0  0  0  2  0  0  0  0  0  0
  185.9440  178.7680  145.4870 C   0  0  1  0  0  3  0  0  0  0  0  0
  185.2230  178.2410  144.3330 C   0  0  1  0  0  3  0  0  0  0  0  0
  184.4790  178.8940  145.4230 N   0  0  0  0  0  2  0  0  0  0  0  0
  186.3080  177.6280  146.4230 C   0  0  0  0  0  2  0  0  0  0  0  0
  187.3260  178.0900  147.4600 C   0  0  0  0  0  2  0  0  0  0  0  0
  188.7530  177.7630  147.0280 C   0  0  0  0  0  2  0  0  0  0  0  0
  189.6370  176.4430  143.7330 O   0  0  0  0  0  0  0  0  0  0  0  0
  189.7060  177.1500  144.7680 C   0  0  0  0  0  0  0  0  0  0  0  0
  188.7390  176.9750  145.8020 N   0  0  0  0  0  2  0  0  0  0  0  0
  190.7750  178.1820  144.8760 C   0  0  0  0  0  2  0  0  0  0  0  0
  191.3840  178.4360  143.5040 C   0  0  0  0  0  1  0  0  0  0  0  0
  181.6640  177.9870  136.6880 C   0  0  1  0  0  3  0  0  0  0  0  0
  181.2640  178.0850  135.2490 C   0  0  0  0  0  0  0  0  0  0  0  0
  181.5280  179.1330  134.5940 O   0  0  0  0  0  0  0  0  0  0  0  0
  180.5480  177.0530  134.6500 O   0  0  0  0  0  1  0  0  0  0  0  0
  180.7000  178.5730  137.5220 O   0  0  0  0  0  0  0  0  0  0  0  0
  180.2470  181.8230  138.9560 C   0  0  1  0  0  3  0  0  0  0  0  0
  179.3440  181.5300  140.1380 C   0  0  0  0  0  1  0  0  0  0  0  0
  181.1970  180.6540  138.7400 C   0  0  1  0  0  3  0  0  0  0  0  0
  179.5110  180.6480  136.9390 C   0  0  0  0  0  2  0  0  0  0  0  0
  180.7830  179.9820  137.4340 C   0  0  2  0  0  3  0  0  0  0  0  0
  179.4210  181.9640  137.6930 C   0  0  0  0  0  2  0  0  0  0  0  0
  182.7330  182.5190  138.6950 O   0  0  0  0  0  1  0  0  0  0  0  0
  182.6510  181.1230  138.6700 C   0  0  0  0  0  2  0  0  0  0  0  0
  2 17  1  0  0  0  0
  4 41  1  1  0  0  0
  4  1  1  0  0  0  0
  4  7  1  0  0  0  0
  5  1  1  1  0  0  0
  5 16  1  0  0  0  0
  6 17  1  0  0  0  0
  6 12  1  0  0  0  0
  7 15  1  0  0  0  0
  8 11  1  0  0  0  0
  9 10  2  0  0  0  0
 10  8  1  0  0  0  0
 10 20  1  0  0  0  0
 11 19  2  0  0  0  0
 12 28  1  1  0  0  0
 13  3  2  0  0  0  0
 13  5  1  0  0  0  0
 14 18  1  6  0  0  0
 14 13  1  0  0  0  0
 14  9  1  0  0  0  0
 15 26  1  1  0  0  0
 15  2  1  0  0  0  0
 16 11  1  0  0  0  0
 19 12  1  0  0  0  0
 20 23  2  0  0  0  0
 21 23  1  0  0  0  0
 23 22  1  0  0  0  0
 25 26  1  0  0  0  0
 26 24  1  0  0  0  0
 26 27  1  0  0  0  0
 28 29  1  0  0  0  0
 30 33  1  1  0  0  0
 31 29  1  6  0  0  0
 31 32  1  0  0  0  0
 31 30  1  0  0  0  0
 32 30  1  0  0  0  0
 33 34  1  0  0  0  0
 35 34  1  0  0  0  0
 36 37  2  0  0  0  0
 37 39  1  0  0  0  0
 37 38  1  0  0  0  0
 38 35  1  0  0  0  0
 40 39  1  0  0  0  0
 41 42  1  6  0  0  0
 41 45  1  0  0  0  0
 43 42  2  0  0  0  0
 44 42  1  0  0  0  0
 46 47  1  1  0  0  0
 48 53  1  6  0  0  0
 48 46  1  0  0  0  0
 49 50  1  0  0  0  0
 49 51  1  0  0  0  0
 50 45  1  1  0  0  0
 50 48  1  0  0  0  0
 51 46  1  0  0  0  0
 53 52  1  0  0  0  0
M  END
>  <MODEL>
4

>  <REMARK>
 VINA RESULT:      -5.4      2.681      5.058
  Name = 
  15 active torsions:
  status: ('A' for Active; 'I' for Inactive)
    1  A    between atoms: C_1  and  C_15
    2  A    between atoms: C_1  and  C_37
    3  A    between atoms: N_2  and  C_35
    4  A    between atoms: C_5  and  C_12
    5  A    between atoms: C_5  and  C_32
    6  A    between atoms: C_10  and  C_13
    7  A    between atoms: C_10  and  C_17
    8  A    between atoms: C_10  and  O_52
    9  A    between atoms: C_15  and  C_23
   10  A    between atoms: C_18  and  C_33
   11  A    between atoms: C_26  and  C_28
   12  A    between atoms: C_31  and  C_40
   13  A    between atoms: C_32  and  C_43
   14  A    between atoms: C_42  and  O_52
   15  A    between atoms: C_43  and  N_48
                            x       y       z     vdW  Elec       q    Type
                         _______ _______ _______ _____ _____    ______ ____

>  <TORSDO>
F 15

$$$$
=
 OpenBabel10222417523D

 53 56  0  0  1  0  0  0  0  0999 V2000
  181.2030  174.9640  138.1250 C   0  0  0  0  0  2  0  0  0  0  0  0
  182.6710  176.8860  139.9360 C   0  0  0  0  0  2  0  0  0  0  0  0
  182.4160  172.4310  137.8390 O   0  0  0  0  0  0  0  0  0  0  0  0
  180.4630  176.0850  138.1420 C   0  0  1  0  0  3  0  0  0  0  0  0
  182.0630  174.5910  136.9680 C   0  0  2  0  0  3  0  0  0  0  0  0
  183.8680  177.8560  138.0640 O   0  0  0  0  0  0  0  0  0  0  0  0
  180.1790  176.6790  139.4790 C   0  0  0  0  0  2  0  0  0  0  0  0
  184.2850  174.8760  134.8930 C   0  0  0  0  0  2  0  0  0  0  0  0
  184.0340  172.4740  135.3010 N   0  0  0  0  0  0  0  0  0  0  0  0
  184.8270  173.4740  135.0450 C   0  0  0  0  0  0  0  0  0  0  0  0
  184.2760  175.5920  136.2090 C   0  0  0  0  0  0  0  0  0  0  0  0
  185.1530  177.4060  137.7030 C   0  0  1  0  0  3  0  0  0  0  0  0
  182.2820  173.1220  136.8450 C   0  0  0  0  0  0  0  0  0  0  0  0
  182.5910  172.5730  135.4830 C   0  0  2  0  0  3  0  0  0  0  0  0
  181.3080  177.5930  139.9570 C   0  0  1  0  0  3  0  0  0  0  0  0
  183.3390  175.2400  137.2160 N   0  0  0  0  0  2  0  0  0  0  0  0
  183.8020  177.7950  139.4640 C   0  0  0  0  0  2  0  0  0  0  0  0
  181.9580  171.2080  135.2990 C   0  0  0  0  0  1  0  0  0  0  0  0
  185.1090  176.6110  136.4210 C   0  0  0  0  0  3  0  0  0  0  0  0
  186.2400  173.2120  134.9930 N   0  0  0  0  0  0  0  0  0  0  0  0
  186.6340  173.1790  137.3340 N   0  0  0  0  0  1  0  0  0  0  0  0
  188.4310  172.7750  135.7180 N   0  0  0  0  0  1  0  0  0  0  0  0
  187.0550  173.0270  135.9890 C   0  0  0  0  0  0  0  0  0  0  0  0
  182.1130  177.8890  142.1850 F   0  0  0  0  0  0  0  0  0  0  0  0
  179.9440  177.3530  141.9190 F   0  0  0  0  0  0  0  0  0  0  0  0
  181.0050  178.0710  141.3820 C   0  0  0  0  0  0  0  0  0  0  0  0
  180.6680  179.4280  141.3670 F   0  0  0  0  0  0  0  0  0  0  0  0
  186.0770  178.5960  137.4790 C   0  0  0  0  0  2  0  0  0  0  0  0
  187.1900  178.2850  136.4970 C   0  0  0  0  0  2  0  0  0  0  0  0
  188.8810  177.3280  137.9440 C   0  0  1  0  0  3  0  0  0  0  0  0
  188.5470  178.5000  137.1420 C   0  0  1  0  0  3  0  0  0  0  0  0
  189.4990  177.5060  136.6210 N   0  0  0  0  0  2  0  0  0  0  0  0
  189.8820  177.7150  139.0200 C   0  0  0  0  0  2  0  0  0  0  0  0
  189.7680  176.7810  140.2200 C   0  0  0  0  0  2  0  0  0  0  0  0
  190.4450  177.3700  141.4540 C   0  0  0  0  0  2  0  0  0  0  0  0
  191.9060  175.5910  144.2970 O   0  0  0  0  0  0  0  0  0  0  0  0
  191.5070  176.5560  143.5990 C   0  0  0  0  0  0  0  0  0  0  0  0
  190.9260  176.3020  142.3220 N   0  0  0  0  0  2  0  0  0  0  0  0
  191.6860  177.9450  144.1050 C   0  0  0  0  0  2  0  0  0  0  0  0
  190.3520  178.4860  144.6020 C   0  0  0  0  0  1  0  0  0  0  0  0
  180.0930  176.8760  136.9100 C   0  0  1  0  0  3  0  0  0  0  0  0
  179.5610  176.0310  135.7960 C   0  0  0  0  0  0  0  0  0  0  0  0
  179.6040  176.4590  134.6070 O   0  0  0  0  0  0  0  0  0  0  0  0
  178.9660  174.8040  136.0710 O   0  0  0  0  0  1  0  0  0  0  0  0
  179.2030  177.9130  137.2280 O   0  0  0  0  0  0  0  0  0  0  0  0
  181.3460  180.7730  137.0050 C   0  0  1  0  0  3  0  0  0  0  0  0
  181.9760  180.8110  138.3830 C   0  0  0  0  0  1  0  0  0  0  0  0
  181.1150  179.3270  136.5910 C   0  0  1  0  0  3  0  0  0  0  0  0
  178.9360  180.3570  137.1190 C   0  0  0  0  0  2  0  0  0  0  0  0
  179.6050  179.1040  136.5820 C   0  0  2  0  0  3  0  0  0  0  0  0
  179.9890  181.4500  137.0340 C   0  0  0  0  0  2  0  0  0  0  0  0
  182.4600  177.8560  135.2250 O   0  0  0  0  0  1  0  0  0  0  0  0
  181.7120  179.0390  135.2140 C   0  0  0  0  0  2  0  0  0  0  0  0
  1  4  1  0  0  0  0
  2 15  1  0  0  0  0
  4 41  1  6  0  0  0
  4  7  1  0  0  0  0
  5 16  1  0  0  0  0
  5  1  1  1  0  0  0
  6 17  1  0  0  0  0
  7 15  1  0  0  0  0
  8 10  1  0  0  0  0
  8 11  1  0  0  0  0
  9 14  1  0  0  0  0
 10  9  2  0  0  0  0
 11 19  2  0  0  0  0
 11 16  1  0  0  0  0
 12 28  1  6  0  0  0
 12  6  1  0  0  0  0
 13  5  1  0  0  0  0
 13  3  2  0  0  0  0
 14 18  1  1  0  0  0
 14 13  1  0  0  0  0
 15 26  1  1  0  0  0
 17  2  1  0  0  0  0
 19 12  1  0  0  0  0
 20 10  1  0  0  0  0
 20 23  2  0  0  0  0
 22 23  1  0  0  0  0
 23 21  1  0  0  0  0
 26 25  1  0  0  0  0
 26 24  1  0  0  0  0
 27 26  1  0  0  0  0
 29 28  1  0  0  0  0
 30 33  1  1  0  0  0
 31 29  1  6  0  0  0
 31 30  1  0  0  0  0
 32 31  1  0  0  0  0
 32 30  1  0  0  0  0
 33 34  1  0  0  0  0
 34 35  1  0  0  0  0
 35 38  1  0  0  0  0
 37 39  1  0  0  0  0
 37 36  2  0  0  0  0
 38 37  1  0  0  0  0
 39 40  1  0  0  0  0
 41 42  1  6  0  0  0
 41 45  1  0  0  0  0
 42 44  1  0  0  0  0
 43 42  2  0  0  0  0
 46 51  1  0  0  0  0
 46 47  1  1  0  0  0
 48 53  1  6  0  0  0
 48 46  1  0  0  0  0
 50 48  1  0  0  0  0
 50 49  1  0  0  0  0
 50 45  1  1  0  0  0
 51 49  1  0  0  0  0
 53 52  1  0  0  0  0
M  END
>  <MODEL>
5

>  <REMARK>
 VINA RESULT:      -4.5      2.169      3.052
  Name = 
  15 active torsions:
  status: ('A' for Active; 'I' for Inactive)
    1  A    between atoms: C_1  and  C_15
    2  A    between atoms: C_1  and  C_37
    3  A    between atoms: N_2  and  C_35
    4  A    between atoms: C_5  and  C_12
    5  A    between atoms: C_5  and  C_32
    6  A    between atoms: C_10  and  C_13
    7  A    between atoms: C_10  and  C_17
    8  A    between atoms: C_10  and  O_52
    9  A    between atoms: C_15  and  C_23
   10  A    between atoms: C_18  and  C_33
   11  A    between atoms: C_26  and  C_28
   12  A    between atoms: C_31  and  C_40
   13  A    between atoms: C_32  and  C_43
   14  A    between atoms: C_42  and  O_52
   15  A    between atoms: C_43  and  N_48
                            x       y       z     vdW  Elec       q    Type
                         _______ _______ _______ _____ _____    ______ ____

>  <TORSDO>
F 15

$$$$
=
 OpenBabel10222417523D

 53 56  0  0  1  0  0  0  0  0999 V2000
  182.8880  177.0950  139.6000 C   0  0  0  0  0  2  0  0  0  0  0  0
  185.0970  177.8320  141.5250 C   0  0  0  0  0  2  0  0  0  0  0  0
  182.9920  174.4490  138.6200 O   0  0  0  0  0  0  0  0  0  0  0  0
  182.6480  178.3680  139.9580 C   0  0  1  0  0  3  0  0  0  0  0  0
  183.4620  176.7320  138.2760 C   0  0  2  0  0  3  0  0  0  0  0  0
  186.4640  178.7270  139.7340 O   0  0  0  0  0  0  0  0  0  0  0  0
  182.7000  178.6730  141.4160 C   0  0  0  0  0  2  0  0  0  0  0  0
  185.4900  176.6860  135.9920 C   0  0  0  0  0  2  0  0  0  0  0  0
  184.3420  174.5240  135.9310 N   0  0  0  0  0  0  0  0  0  0  0  0
  185.4470  175.1940  135.7700 C   0  0  0  0  0  0  0  0  0  0  0  0
  185.8400  177.0060  137.4140 C   0  0  0  0  0  0  0  0  0  0  0  0
  187.4450  177.9420  139.0990 C   0  0  1  0  0  3  0  0  0  0  0  0
  183.0800  175.3640  137.8210 C   0  0  0  0  0  0  0  0  0  0  0  0
  183.0670  175.0970  136.3450 C   0  0  2  0  0  3  0  0  0  0  0  0
  184.1230  178.9610  141.8970 C   0  0  1  0  0  3  0  0  0  0  0  0
  184.9020  176.7850  138.4560 N   0  0  0  0  0  2  0  0  0  0  0  0
  186.4630  178.3500  141.0860 C   0  0  0  0  0  2  0  0  0  0  0  0
  181.9400  174.1500  135.9820 C   0  0  0  0  0  1  0  0  0  0  0  0
  187.0170  177.5620  137.7030 C   0  0  0  0  0  3  0  0  0  0  0  0
  186.6380  174.4530  135.4530 N   0  0  0  0  0  0  0  0  0  0  0  0
  186.2310  172.5930  136.8700 N   0  0  0  0  0  1  0  0  0  0  0  0
  188.2190  172.7160  135.4430 N   0  0  0  0  0  1  0  0  0  0  0  0
  186.9870  173.2780  135.8860 C   0  0  0  0  0  0  0  0  0  0  0  0
  183.1180  180.0280  143.7800 F   0  0  0  0  0  0  0  0  0  0  0  0
  185.3360  179.6580  143.8490 F   0  0  0  0  0  0  0  0  0  0  0  0
  184.1180  179.1480  143.4190 C   0  0  0  0  0  0  0  0  0  0  0  0
  183.8980  177.9190  144.0480 F   0  0  0  0  0  0  0  0  0  0  0  0
  188.7470  178.7260  138.9880 C   0  0  0  0  0  2  0  0  0  0  0  0
  189.9680  177.8380  139.1280 C   0  0  0  0  0  2  0  0  0  0  0  0
  190.3900  176.5530  141.1380 C   0  0  1  0  0  3  0  0  0  0  0  0
  190.4990  177.8830  140.5500 C   0  0  1  0  0  3  0  0  0  0  0  0
  191.6940  177.0300  140.6530 N   0  0  0  0  0  2  0  0  0  0  0  0
  190.3470  176.6680  142.6530 C   0  0  0  0  0  2  0  0  0  0  0  0
  189.5350  177.8860  143.0760 C   0  0  0  0  0  2  0  0  0  0  0  0
  188.3720  177.4960  143.9850 C   0  0  0  0  0  2  0  0  0  0  0  0
  188.1630  177.8450  147.6200 O   0  0  0  0  0  0  0  0  0  0  0  0
  187.7810  177.6770  146.4360 C   0  0  0  0  0  0  0  0  0  0  0  0
  188.7420  177.6790  145.3820 N   0  0  0  0  0  2  0  0  0  0  0  0
  186.3260  177.5170  146.1560 C   0  0  0  0  0  2  0  0  0  0  0  0
  185.5390  178.5870  146.8990 C   0  0  0  0  0  1  0  0  0  0  0  0
  182.5450  179.5180  138.9860 C   0  0  1  0  0  3  0  0  0  0  0  0
  183.7470  180.4100  138.9900 C   0  0  0  0  0  0  0  0  0  0  0  0
  184.8840  179.9310  139.2630 O   0  0  0  0  0  1  0  0  0  0  0  0
  183.6060  181.7750  138.7560 O   0  0  0  0  0  0  0  0  0  0  0  0
  182.2620  179.0580  137.6920 O   0  0  0  0  0  0  0  0  0  0  0  0
  178.9360  177.9280  136.9940 C   0  0  1  0  0  3  0  0  0  0  0  0
  179.1500  176.4560  136.7060 C   0  0  0  0  0  1  0  0  0  0  0  0
  179.9220  178.3870  138.0590 C   0  0  1  0  0  3  0  0  0  0  0  0
  180.6130  179.3250  135.8850 C   0  0  0  0  0  2  0  0  0  0  0  0
  180.9110  179.3250  137.3730 C   0  0  2  0  0  3  0  0  0  0  0  0
  179.2120  178.7490  135.7490 C   0  0  0  0  0  2  0  0  0  0  0  0
  178.9310  178.2120  140.2560 O   0  0  0  0  0  1  0  0  0  0  0  0
  179.2100  179.0980  139.2100 C   0  0  0  0  0  2  0  0  0  0  0  0
  1  4  1  0  0  0  0
  2 15  1  0  0  0  0
  4 41  1  6  0  0  0
  4  7  1  0  0  0  0
  5 16  1  0  0  0  0
  5  1  1  1  0  0  0
  6 17  1  0  0  0  0
  7 15  1  0  0  0  0
  8 11  1  0  0  0  0
  9 14  1  0  0  0  0
 10  9  2  0  0  0  0
 10  8  1  0  0  0  0
 11 19  2  0  0  0  0
 11 16  1  0  0  0  0
 12 28  1  6  0  0  0
 12  6  1  0  0  0  0
 13  5  1  0  0  0  0
 13  3  2  0  0  0  0
 14 18  1  1  0  0  0
 14 13  1  0  0  0  0
 15 26  1  1  0  0  0
 17  2  1  0  0  0  0
 19 12  1  0  0  0  0
 20 10  1  0  0  0  0
 20 23  2  0  0  0  0
 22 23  1  0  0  0  0
 23 21  1  0  0  0  0
 26 24  1  0  0  0  0
 26 25  1  0  0  0  0
 26 27  1  0  0  0  0
 28 29  1  0  0  0  0
 30 33  1  1  0  0  0
 31 29  1  6  0  0  0
 31 32  1  0  0  0  0
 31 30  1  0  0  0  0
 32 30  1  0  0  0  0
 33 34  1  0  0  0  0
 34 35  1  0  0  0  0
 35 38  1  0  0  0  0
 37 36  2  0  0  0  0
 38 37  1  0  0  0  0
 39 37  1  0  0  0  0
 39 40  1  0  0  0  0
 41 45  1  6  0  0  0
 41 42  1  0  0  0  0
 42 43  1  0  0  0  0
 44 42  2  0  0  0  0
 46 47  1  6  0  0  0
 46 48  1  0  0  0  0
 48 53  1  1  0  0  0
 49 50  1  0  0  0  0
 50 45  1  6  0  0  0
 50 48  1  0  0  0  0
 51 49  1  0  0  0  0
 51 46  1  0  0  0  0
 53 52  1  0  0  0  0
M  END
>  <MODEL>
6

>  <REMARK>
 VINA RESULT:      -4.3      1.681      2.686
  Name = 
  15 active torsions:
  status: ('A' for Active; 'I' for Inactive)
    1  A    between atoms: C_1  and  C_15
    2  A    between atoms: C_1  and  C_37
    3  A    between atoms: N_2  and  C_35
    4  A    between atoms: C_5  and  C_12
    5  A    between atoms: C_5  and  C_32
    6  A    between atoms: C_10  and  C_13
    7  A    between atoms: C_10  and  C_17
    8  A    between atoms: C_10  and  O_52
    9  A    between atoms: C_15  and  C_23
   10  A    between atoms: C_18  and  C_33
   11  A    between atoms: C_26  and  C_28
   12  A    between atoms: C_31  and  C_40
   13  A    between atoms: C_32  and  C_43
   14  A    between atoms: C_42  and  O_52
   15  A    between atoms: C_43  and  N_48
                            x       y       z     vdW  Elec       q    Type
                         _______ _______ _______ _____ _____    ______ ____

>  <TORSDO>
F 15

$$$$
=
 OpenBabel10222417523D

 53 56  0  0  1  0  0  0  0  0999 V2000
  181.8390  179.7290  142.1180 C   0  0  0  0  0  2  0  0  0  0  0  0
  182.2580  180.9530  139.3870 C   0  0  0  0  0  2  0  0  0  0  0  0
  183.6770  180.5580  144.0930 O   0  0  0  0  0  0  0  0  0  0  0  0
  180.8630  179.2280  141.3410 C   0  0  1  0  0  3  0  0  0  0  0  0
  183.0330  178.9340  142.5120 C   0  0  2  0  0  3  0  0  0  0  0  0
  183.6170  179.0770  138.6710 O   0  0  0  0  0  0  0  0  0  0  0  0
  180.1030  180.2040  140.5090 C   0  0  0  0  0  2  0  0  0  0  0  0
  185.5730  177.2790  142.1420 C   0  0  0  0  0  2  0  0  0  0  0  0
  185.8330  178.4650  144.2690 N   0  0  0  0  0  0  0  0  0  0  0  0
  186.3890  178.0020  143.1870 C   0  0  0  0  0  0  0  0  0  0  0  0
  185.0440  178.2360  141.1180 C   0  0  0  0  0  0  0  0  0  0  0  0
  185.0220  179.1110  138.7670 C   0  0  1  0  0  3  0  0  0  0  0  0
  183.6370  179.3750  143.8020 C   0  0  0  0  0  0  0  0  0  0  0  0
  184.4150  178.3640  144.5920 C   0  0  2  0  0  3  0  0  0  0  0  0
  180.8040  180.5030  139.1830 C   0  0  1  0  0  3  0  0  0  0  0  0
  183.9970  179.1380  141.4450 N   0  0  0  0  0  2  0  0  0  0  0  0
  183.2080  180.3780  138.3410 C   0  0  0  0  0  2  0  0  0  0  0  0
  184.2130  178.5770  146.0790 C   0  0  0  0  0  1  0  0  0  0  0  0
  185.5120  178.2040  139.8700 C   0  0  0  0  0  3  0  0  0  0  0  0
  187.7860  178.2750  142.9830 N   0  0  0  0  0  0  0  0  0  0  0  0
  188.5760  176.0500  143.2390 N   0  0  0  0  0  1  0  0  0  0  0  0
  190.0920  177.9070  142.7320 N   0  0  0  0  0  1  0  0  0  0  0  0
  188.7700  177.4250  142.9520 C   0  0  0  0  0  0  0  0  0  0  0  0
  179.1470  182.2160  139.2940 F   0  0  0  0  0  0  0  0  0  0  0  0
  179.3170  181.0500  137.3780 F   0  0  0  0  0  0  0  0  0  0  0  0
  180.0330  181.5970  138.4360 C   0  0  0  0  0  0  0  0  0  0  0  0
  180.9250  182.5480  137.9320 F   0  0  0  0  0  0  0  0  0  0  0  0
  185.6450  178.6320  137.4620 C   0  0  0  0  0  2  0  0  0  0  0  0
  186.6230  177.4920  137.6750 C   0  0  0  0  0  2  0  0  0  0  0  0
  187.2740  175.2830  136.9220 C   0  0  1  0  0  3  0  0  0  0  0  0
  186.4880  176.4610  136.5690 C   0  0  1  0  0  3  0  0  0  0  0  0
  185.8130  175.2640  137.0960 N   0  0  0  0  0  2  0  0  0  0  0  0
  187.6380  174.5170  135.6610 C   0  0  0  0  0  2  0  0  0  0  0  0
  188.3660  173.2240  136.0100 C   0  0  0  0  0  2  0  0  0  0  0  0
  189.8810  173.3950  135.9260 C   0  0  0  0  0  2  0  0  0  0  0  0
  191.3300  175.2770  138.7080 O   0  0  0  0  0  0  0  0  0  0  0  0
  190.8690  175.0490  137.5620 C   0  0  0  0  0  0  0  0  0  0  0  0
  190.4220  173.7350  137.2360 N   0  0  0  0  0  2  0  0  0  0  0  0
  190.8340  176.1500  136.5590 C   0  0  0  0  0  2  0  0  0  0  0  0
  191.9780  175.9780  135.5680 C   0  0  0  0  0  1  0  0  0  0  0  0
  180.6390  177.7540  141.1040 C   0  0  1  0  0  3  0  0  0  0  0  0
  179.6950  177.1300  142.0830 C   0  0  0  0  0  0  0  0  0  0  0  0
  179.2000  175.9920  141.8400 O   0  0  0  0  0  0  0  0  0  0  0  0
  179.3130  177.8230  143.2270 O   0  0  0  0  0  1  0  0  0  0  0  0
  180.2310  177.5140  139.7840 O   0  0  0  0  0  0  0  0  0  0  0  0
  181.7640  175.3360  137.3900 C   0  0  1  0  0  3  0  0  0  0  0  0
  180.8240  174.1470  137.3890 C   0  0  0  0  0  1  0  0  0  0  0  0
  180.9680  176.6130  137.6140 C   0  0  1  0  0  3  0  0  0  0  0  0
  182.2480  176.1090  139.6620 C   0  0  0  0  0  2  0  0  0  0  0  0
  181.3430  177.1330  138.9990 C   0  0  2  0  0  3  0  0  0  0  0  0
  182.7500  175.2190  138.5370 C   0  0  0  0  0  2  0  0  0  0  0  0
  182.5620  177.4800  136.0180 O   0  0  0  0  0  1  0  0  0  0  0  0
  181.2770  177.6580  136.5430 C   0  0  0  0  0  2  0  0  0  0  0  0
  4 41  1  6  0  0  0
  4  1  1  0  0  0  0
  5  1  1  6  0  0  0
  5 13  1  0  0  0  0
  6 12  1  0  0  0  0
  7  4  1  0  0  0  0
  8 10  1  0  0  0  0
  9 14  1  0  0  0  0
 10  9  2  0  0  0  0
 11 16  1  0  0  0  0
 11  8  1  0  0  0  0
 12 28  1  6  0  0  0
 12 19  1  0  0  0  0
 13  3  2  0  0  0  0
 13 14  1  0  0  0  0
 14 18  1  1  0  0  0
 15 26  1  1  0  0  0
 15  2  1  0  0  0  0
 15  7  1  0  0  0  0
 16  5  1  0  0  0  0
 17  6  1  0  0  0  0
 17  2  1  0  0  0  0
 19 11  2  0  0  0  0
 20 10  1  0  0  0  0
 22 23  1  0  0  0  0
 23 20  2  0  0  0  0
 23 21  1  0  0  0  0
 25 26  1  0  0  0  0
 26 24  1  0  0  0  0
 27 26  1  0  0  0  0
 28 29  1  0  0  0  0
 30 33  1  6  0  0  0
 30 32  1  0  0  0  0
 31 30  1  0  0  0  0
 31 32  1  0  0  0  0
 31 29  1  1  0  0  0
 33 34  1  0  0  0  0
 35 34  1  0  0  0  0
 35 38  1  0  0  0  0
 37 36  2  0  0  0  0
 38 37  1  0  0  0  0
 39 37  1  0  0  0  0
 40 39  1  0  0  0  0
 41 45  1  6  0  0  0
 41 42  1  0  0  0  0
 42 44  1  0  0  0  0
 43 42  2  0  0  0  0
 46 47  1  1  0  0  0
 46 48  1  0  0  0  0
 46 51  1  0  0  0  0
 48 53  1  6  0  0  0
 48 50  1  0  0  0  0
 50 49  1  0  0  0  0
 50 45  1  1  0  0  0
 51 49  1  0  0  0  0
 52 53  1  0  0  0  0
M  END
>  <MODEL>
7

>  <REMARK>
 VINA RESULT:      -4.0      2.895      6.557
  Name = 
  15 active torsions:
  status: ('A' for Active; 'I' for Inactive)
    1  A    between atoms: C_1  and  C_15
    2  A    between atoms: C_1  and  C_37
    3  A    between atoms: N_2  and  C_35
    4  A    between atoms: C_5  and  C_12
    5  A    between atoms: C_5  and  C_32
    6  A    between atoms: C_10  and  C_13
    7  A    between atoms: C_10  and  C_17
    8  A    between atoms: C_10  and  O_52
    9  A    between atoms: C_15  and  C_23
   10  A    between atoms: C_18  and  C_33
   11  A    between atoms: C_26  and  C_28
   12  A    between atoms: C_31  and  C_40
   13  A    between atoms: C_32  and  C_43
   14  A    between atoms: C_42  and  O_52
   15  A    between atoms: C_43  and  N_48
                            x       y       z     vdW  Elec       q    Type
                         _______ _______ _______ _____ _____    ______ ____

>  <TORSDO>
F 15

$$$$
=
 OpenBabel10222417523D

 53 56  0  0  1  0  0  0  0  0999 V2000
  183.0210  176.6390  139.2880 C   0  0  0  0  0  2  0  0  0  0  0  0
  185.1790  177.7510  141.0880 C   0  0  0  0  0  2  0  0  0  0  0  0
  183.4300  173.9790  138.4370 O   0  0  0  0  0  0  0  0  0  0  0  0
  182.6330  177.8900  139.5920 C   0  0  1  0  0  3  0  0  0  0  0  0
  183.5940  176.2810  137.9620 C   0  0  2  0  0  3  0  0  0  0  0  0
  186.3630  178.7130  139.2030 O   0  0  0  0  0  0  0  0  0  0  0  0
  182.6930  178.2770  141.0300 C   0  0  0  0  0  2  0  0  0  0  0  0
  185.5370  176.3670  135.6070 C   0  0  0  0  0  2  0  0  0  0  0  0
  184.6730  174.0770  135.6980 N   0  0  0  0  0  0  0  0  0  0  0  0
  185.6780  174.8710  135.4610 C   0  0  0  0  0  0  0  0  0  0  0  0
  185.8890  176.8050  136.9960 C   0  0  0  0  0  0  0  0  0  0  0  0
  187.4150  178.0240  138.5700 C   0  0  1  0  0  3  0  0  0  0  0  0
  183.3750  174.8530  137.5910 C   0  0  0  0  0  0  0  0  0  0  0  0
  183.3490  174.5070  136.1310 C   0  0  2  0  0  3  0  0  0  0  0  0
  184.0820  178.7670  141.4400 C   0  0  1  0  0  3  0  0  0  0  0  0
  185.0210  176.5230  138.0840 N   0  0  0  0  0  2  0  0  0  0  0  0
  186.4530  178.4120  140.5700 C   0  0  0  0  0  2  0  0  0  0  0  0
  182.3410  173.4080  135.8590 C   0  0  0  0  0  1  0  0  0  0  0  0
  186.9940  177.5190  137.2120 C   0  0  0  0  0  3  0  0  0  0  0  0
  186.9420  174.2700  135.1350 N   0  0  0  0  0  0  0  0  0  0  0  0
  187.4760  173.4750  137.3070 N   0  0  0  0  0  1  0  0  0  0  0  0
  188.9530  173.0830  135.3920 N   0  0  0  0  0  1  0  0  0  0  0  0
  187.7360  173.6030  135.9200 C   0  0  0  0  0  0  0  0  0  0  0  0
  184.5970  180.2980  143.1970 F   0  0  0  0  0  0  0  0  0  0  0  0
  184.9100  178.1060  143.5960 F   0  0  0  0  0  0  0  0  0  0  0  0
  184.1020  179.0330  142.9500 C   0  0  0  0  0  0  0  0  0  0  0  0
  182.8070  178.9380  143.4660 F   0  0  0  0  0  0  0  0  0  0  0  0
  188.6020  178.9580  138.3700 C   0  0  0  0  0  2  0  0  0  0  0  0
  189.9260  178.2180  138.3790 C   0  0  0  0  0  2  0  0  0  0  0  0
  189.7330  176.6540  140.2190 C   0  0  1  0  0  3  0  0  0  0  0  0
  190.3530  177.9060  139.8020 C   0  0  1  0  0  3  0  0  0  0  0  0
  191.1470  176.6670  139.8140 N   0  0  0  0  0  2  0  0  0  0  0  0
  189.6470  176.6080  141.7350 C   0  0  0  0  0  2  0  0  0  0  0  0
  190.4020  177.7800  142.3510 C   0  0  0  0  0  2  0  0  0  0  0  0
  190.0340  177.9730  143.8200 C   0  0  0  0  0  2  0  0  0  0  0  0
  191.8120  176.4320  146.6210 O   0  0  0  0  0  0  0  0  0  0  0  0
  190.8470  176.8380  145.9270 C   0  0  0  0  0  0  0  0  0  0  0  0
  191.1020  177.4720  144.6760 N   0  0  0  0  0  2  0  0  0  0  0  0
  189.4600  176.6820  146.4470 C   0  0  0  0  0  2  0  0  0  0  0  0
  189.2270  177.6580  147.5920 C   0  0  0  0  0  1  0  0  0  0  0  0
  182.3530  178.9640  138.5690 C   0  0  1  0  0  3  0  0  0  0  0  0
  181.4250  178.5220  137.4810 C   0  0  0  0  0  0  0  0  0  0  0  0
  180.8800  177.3840  137.5440 O   0  0  0  0  0  1  0  0  0  0  0  0
  181.2100  179.3340  136.3720 O   0  0  0  0  0  0  0  0  0  0  0  0
  181.8900  180.1360  139.1840 O   0  0  0  0  0  0  0  0  0  0  0  0
  179.0680  180.5000  141.3600 C   0  0  1  0  0  3  0  0  0  0  0  0
  179.7260  180.6350  142.7190 C   0  0  0  0  0  1  0  0  0  0  0  0
  179.9470  181.1540  140.3030 C   0  0  1  0  0  3  0  0  0  0  0  0
  180.0780  178.7050  140.0370 C   0  0  0  0  0  2  0  0  0  0  0  0
  180.5020  180.0310  139.4310 C   0  0  2  0  0  3  0  0  0  0  0  0
  178.9390  179.0360  140.9870 C   0  0  0  0  0  2  0  0  0  0  0  0
  179.1800  181.8010  138.1050 O   0  0  0  0  0  1  0  0  0  0  0  0
  179.1560  182.1530  139.4590 C   0  0  0  0  0  2  0  0  0  0  0  0
  1  4  1  0  0  0  0
  2 15  1  0  0  0  0
  4 41  1  6  0  0  0
  4  7  1  0  0  0  0
  5 16  1  0  0  0  0
  5  1  1  1  0  0  0
  6 17  1  0  0  0  0
  7 15  1  0  0  0  0
  8 11  1  0  0  0  0
  9 14  1  0  0  0  0
 10  8  1  0  0  0  0
 10  9  2  0  0  0  0
 11 19  2  0  0  0  0
 11 16  1  0  0  0  0
 12 28  1  6  0  0  0
 12  6  1  0  0  0  0
 13  5  1  0  0  0  0
 13  3  2  0  0  0  0
 14 18  1  1  0  0  0
 14 13  1  0  0  0  0
 15 26  1  1  0  0  0
 17  2  1  0  0  0  0
 19 12  1  0  0  0  0
 20 10  1  0  0  0  0
 20 23  2  0  0  0  0
 22 23  1  0  0  0  0
 23 21  1  0  0  0  0
 26 24  1  0  0  0  0
 26 27  1  0  0  0  0
 26 25  1  0  0  0  0
 28 29  1  0  0  0  0
 30 33  1  1  0  0  0
 31 29  1  6  0  0  0
 31 32  1  0  0  0  0
 31 30  1  0  0  0  0
 32 30  1  0  0  0  0
 33 34  1  0  0  0  0
 34 35  1  0  0  0  0
 35 38  1  0  0  0  0
 37 39  1  0  0  0  0
 37 36  2  0  0  0  0
 38 37  1  0  0  0  0
 39 40  1  0  0  0  0
 41 42  1  6  0  0  0
 41 45  1  0  0  0  0
 42 43  1  0  0  0  0
 44 42  2  0  0  0  0
 46 47  1  1  0  0  0
 48 53  1  6  0  0  0
 48 46  1  0  0  0  0
 49 51  1  0  0  0  0
 50 45  1  1  0  0  0
 50 49  1  0  0  0  0
 50 48  1  0  0  0  0
 51 46  1  0  0  0  0
 52 53  1  0  0  0  0
M  END
>  <MODEL>
8

>  <REMARK>
 VINA RESULT:      -3.6      1.886      2.527
  Name = 
  15 active torsions:
  status: ('A' for Active; 'I' for Inactive)
    1  A    between atoms: C_1  and  C_15
    2  A    between atoms: C_1  and  C_37
    3  A    between atoms: N_2  and  C_35
    4  A    between atoms: C_5  and  C_12
    5  A    between atoms: C_5  and  C_32
    6  A    between atoms: C_10  and  C_13
    7  A    between atoms: C_10  and  C_17
    8  A    between atoms: C_10  and  O_52
    9  A    between atoms: C_15  and  C_23
   10  A    between atoms: C_18  and  C_33
   11  A    between atoms: C_26  and  C_28
   12  A    between atoms: C_31  and  C_40
   13  A    between atoms: C_32  and  C_43
   14  A    between atoms: C_42  and  O_52
   15  A    between atoms: C_43  and  N_48
                            x       y       z     vdW  Elec       q    Type
                         _______ _______ _______ _____ _____    ______ ____

>  <TORSDO>
F 15

$$$$
=
 OpenBabel10222417523D

 53 56  0  0  1  0  0  0  0  0999 V2000
  190.1650  174.7170  137.8700 C   0  0  0  0  0  2  0  0  0  0  0  0
  187.6930  173.3190  136.8390 C   0  0  0  0  0  2  0  0  0  0  0  0
  190.0930  175.4050  140.6070 O   0  0  0  0  0  0  0  0  0  0  0  0
  190.4060  174.4630  136.5730 C   0  0  1  0  0  3  0  0  0  0  0  0
  189.8160  176.0760  138.3660 C   0  0  2  0  0  3  0  0  0  0  0  0
  186.7150  175.4170  136.1140 O   0  0  0  0  0  0  0  0  0  0  0  0
  190.1120  173.0810  136.0970 C   0  0  0  0  0  2  0  0  0  0  0  0
  188.2260  178.6730  138.6110 C   0  0  0  0  0  2  0  0  0  0  0  0
  189.2470  178.2870  140.8030 N   0  0  0  0  0  0  0  0  0  0  0  0
  188.2270  178.7190  140.1200 C   0  0  0  0  0  0  0  0  0  0  0  0
  187.6470  177.3830  138.1150 C   0  0  0  0  0  0  0  0  0  0  0  0
  185.8210  176.1300  136.9360 C   0  0  1  0  0  3  0  0  0  0  0  0
  190.1980  176.3020  139.7900 C   0  0  0  0  0  0  0  0  0  0  0  0
  190.4580  177.7130  140.2280 C   0  0  2  0  0  3  0  0  0  0  0  0
  188.6440  172.9020  135.7080 C   0  0  1  0  0  3  0  0  0  0  0  0
  188.3710  176.1680  138.2450 N   0  0  0  0  0  2  0  0  0  0  0  0
  186.4560  174.0550  136.3310 C   0  0  0  0  0  2  0  0  0  0  0  0
  191.5780  177.7580  141.2490 C   0  0  0  0  0  1  0  0  0  0  0  0
  186.4690  177.3760  137.4900 C   0  0  0  0  0  3  0  0  0  0  0  0
  187.0720  179.1650  140.8520 N   0  0  0  0  0  0  0  0  0  0  0  0
  187.1890  177.5750  142.6120 N   0  0  0  0  0  1  0  0  0  0  0  0
  185.4500  179.3000  142.5450 N   0  0  0  0  0  1  0  0  0  0  0  0
  186.6180  178.7110  141.9830 C   0  0  0  0  0  0  0  0  0  0  0  0
  187.2300  171.3290  134.6030 F   0  0  0  0  0  0  0  0  0  0  0  0
  188.2540  170.6670  136.4940 F   0  0  0  0  0  0  0  0  0  0  0  0
  188.3900  171.4350  135.3440 C   0  0  0  0  0  0  0  0  0  0  0  0
  189.4600  170.9380  134.5950 F   0  0  0  0  0  0  0  0  0  0  0  0
  184.6040  176.5630  136.1270 C   0  0  0  0  0  2  0  0  0  0  0  0
  183.3460  175.8250  136.5400 C   0  0  0  0  0  2  0  0  0  0  0  0
  182.3470  177.6540  137.7750 C   0  0  1  0  0  3  0  0  0  0  0  0
  182.8720  176.2990  137.9020 C   0  0  1  0  0  3  0  0  0  0  0  0
  181.4170  176.5170  137.8650 N   0  0  0  0  0  2  0  0  0  0  0  0
  182.4130  178.3540  139.1230 C   0  0  0  0  0  2  0  0  0  0  0  0
  181.6480  179.6720  139.0810 C   0  0  0  0  0  2  0  0  0  0  0  0
  180.2650  179.5370  139.7130 C   0  0  0  0  0  2  0  0  0  0  0  0
  180.1840  180.7560  143.1600 O   0  0  0  0  0  0  0  0  0  0  0  0
  180.2980  179.9470  142.2070 C   0  0  0  0  0  0  0  0  0  0  0  0
  180.1510  180.4170  140.8690 N   0  0  0  0  0  2  0  0  0  0  0  0
  180.5460  178.5080  142.4980 C   0  0  0  0  0  2  0  0  0  0  0  0
  179.7700  178.0930  143.7410 C   0  0  0  0  0  1  0  0  0  0  0  0
  190.7410  175.5200  135.5490 C   0  0  1  0  0  3  0  0  0  0  0  0
  189.6070  176.4540  135.2630 C   0  0  0  0  0  0  0  0  0  0  0  0
  189.6730  177.6570  135.6470 O   0  0  0  0  0  1  0  0  0  0  0  0
  188.4580  175.9880  134.6330 O   0  0  0  0  0  0  0  0  0  0  0  0
  191.8970  176.2250  135.9150 O   0  0  0  0  0  0  0  0  0  0  0  0
  195.4250  175.6330  135.7410 C   0  0  1  0  0  3  0  0  0  0  0  0
  195.9370  176.9210  135.1270 C   0  0  0  0  0  1  0  0  0  0  0  0
  194.2330  175.9360  136.6380 C   0  0  1  0  0  3  0  0  0  0  0  0
  193.4230  174.8140  134.5950 C   0  0  0  0  0  2  0  0  0  0  0  0
  193.0030  175.3450  135.9550 C   0  0  2  0  0  3  0  0  0  0  0  0
  194.9370  174.6960  134.6540 C   0  0  0  0  0  2  0  0  0  0  0  0
  194.5430  173.9460  137.9720 O   0  0  0  0  0  1  0  0  0  0  0  0
  194.4170  175.3380  138.0320 C   0  0  0  0  0  2  0  0  0  0  0  0
  4 41  1  6  0  0  0
  4  1  1  0  0  0  0
  5  1  1  1  0  0  0
  5 13  1  0  0  0  0
  6 17  1  0  0  0  0
  6 12  1  0  0  0  0
  7  4  1  0  0  0  0
  8 10  1  0  0  0  0
 10  9  2  0  0  0  0
 10 20  1  0  0  0  0
 11 16  1  0  0  0  0
 11  8  1  0  0  0  0
 12 28  1  6  0  0  0
 12 19  1  0  0  0  0
 13 14  1  0  0  0  0
 13  3  2  0  0  0  0
 14  9  1  0  0  0  0
 14 18  1  1  0  0  0
 15 26  1  1  0  0  0
 15  7  1  0  0  0  0
 15  2  1  0  0  0  0
 16  5  1  0  0  0  0
 17  2  1  0  0  0  0
 19 11  2  0  0  0  0
 20 23  2  0  0  0  0
 23 22  1  0  0  0  0
 23 21  1  0  0  0  0
 24 26  1  0  0  0  0
 26 25  1  0  0  0  0
 27 26  1  0  0  0  0
 28 29  1  0  0  0  0
 30 32  1  0  0  0  0
 30 31  1  0  0  0  0
 30 33  1  1  0  0  0
 31 29  1  6  0  0  0
 32 31  1  0  0  0  0
 34 33  1  0  0  0  0
 34 35  1  0  0  0  0
 35 38  1  0  0  0  0
 37 39  1  0  0  0  0
 37 36  2  0  0  0  0
 38 37  1  0  0  0  0
 39 40  1  0  0  0  0
 41 42  1  1  0  0  0
 41 45  1  0  0  0  0
 42 43  1  0  0  0  0
 44 42  2  0  0  0  0
 46 47  1  6  0  0  0
 46 48  1  0  0  0  0
 48 53  1  1  0  0  0
 49 51  1  0  0  0  0
 49 50  1  0  0  0  0
 50 45  1  6  0  0  0
 50 48  1  0  0  0  0
 51 46  1  0  0  0  0
 52 53  1  0  0  0  0
M  END
>  <MODEL>
9

>  <REMARK>
 VINA RESULT:      -2.9      4.804     10.053
  Name = 
  15 active torsions:
  status: ('A' for Active; 'I' for Inactive)
    1  A    between atoms: C_1  and  C_15
    2  A    between atoms: C_1  and  C_37
    3  A    between atoms: N_2  and  C_35
    4  A    between atoms: C_5  and  C_12
    5  A    between atoms: C_5  and  C_32
    6  A    between atoms: C_10  and  C_13
    7  A    between atoms: C_10  and  C_17
    8  A    between atoms: C_10  and  O_52
    9  A    between atoms: C_15  and  C_23
   10  A    between atoms: C_18  and  C_33
   11  A    between atoms: C_26  and  C_28
   12  A    between atoms: C_31  and  C_40
   13  A    between atoms: C_32  and  C_43
   14  A    between atoms: C_42  and  O_52
   15  A    between atoms: C_43  and  N_48
                            x       y       z     vdW  Elec       q    Type
                         _______ _______ _______ _____ _____    ______ ____

>  <TORSDO>
F 15

$$$$
