=
 OpenBabel10222417163D

 56 64  0  0  1  0  0  0  0  0999 V2000
  184.0470  179.4790  142.3340 C   0  0  1  0  0  3  0  0  0  0  0  0
  187.5060  178.0790  137.9670 C   0  0  2  0  0  3  0  0  0  0  0  0
  187.6650  178.0890  143.2440 C   0  0  1  0  0  3  0  0  0  0  0  0
  188.2520  177.4560  141.0880 C   0  0  2  0  0  3  0  0  0  0  0  0
  188.6170  178.2580  142.1960 O   0  0  0  0  0  0  0  0  0  0  0  0
  189.1860  175.8060  139.0270 S   0  0  0  0  0  0  0  0  0  0  0  0
  189.4870  177.1480  140.2360 C   0  0  0  0  0  2  0  0  0  0  0  0
  185.0710  179.0490  143.7980 S   0  0  0  0  0  0  0  0  0  0  0  0
  186.9850  178.0350  140.3690 C   0  0  1  0  0  3  0  0  0  0  0  0
  186.1520  178.8040  141.3910 C   0  0  2  0  0  3  0  0  0  0  0  0
  186.2080  178.1270  142.7330 C   0  0  1  0  0  3  0  0  0  0  0  0
  189.5190  176.8040  137.4960 C   0  0  1  0  0  3  0  0  0  0  0  0
  188.9900  178.2240  137.6970 C   0  0  1  0  0  3  0  0  0  0  0  0
  187.9780  178.7610  136.7060 C   0  0  0  0  0  2  0  0  0  0  0  0
  184.6880  178.9280  141.0650 C   0  0  0  0  0  2  0  0  0  0  0  0
  187.2620  178.9510  139.1730 C   0  0  0  0  0  2  0  0  0  0  0  0
  186.2390  176.0630  145.4970 O   0  0  0  0  0  0  0  0  0  0  0  0
  189.9560  177.3250  145.5920 N   0  0  0  0  0  0  0  0  0  0  0  0
  187.5690  177.7530  146.4530 C   0  0  0  0  0  2  0  0  0  0  0  0
  189.0610  177.8420  146.6050 C   0  0  0  0  0  0  0  0  0  0  0  0
  190.2080  176.0580  143.5430 C   0  0  0  0  0  2  0  0  0  0  0  0
  187.9580  176.8200  144.0700 C   0  0  2  0  0  3  0  0  0  0  0  0
  189.5300  178.4890  147.6650 C   0  0  0  0  0  2  0  0  0  0  0  0
  187.1890  176.8140  145.3560 C   0  0  0  0  0  0  0  0  0  0  0  0
  189.4200  176.7100  144.3950 C   0  0  0  0  0  0  0  0  0  0  0  0
  191.4030  177.3440  145.8190 C   0  0  0  0  0  2  0  0  0  0  0  0
  191.7910  176.2530  146.8040 C   0  0  0  0  0  1  0  0  0  0  0  0
  191.0320  176.8570  137.1890 C   0  0  1  0  0  3  0  0  0  0  0  0
  193.1830  175.7000  137.1860 C   0  0  2  0  0  3  0  0  0  0  0  0
  191.9410  175.9550  138.0580 C   0  0  2  0  0  3  0  0  0  0  0  0
  192.6560  175.9060  135.8190 C   0  0  0  0  0  0  0  0  0  0  0  0
  191.2940  174.7420  138.3340 O   0  0  0  0  0  1  0  0  0  0  0  0
  191.3890  176.5400  135.8080 N   0  0  0  0  0  0  0  0  0  0  0  0
  193.2660  175.5610  134.7730 O   0  0  0  0  0  0  0  0  0  0  0  0
  189.8610  175.0690  134.6020 C   0  0  0  0  0  1  0  0  0  0  0  0
  190.4720  176.4570  134.6730 C   0  0  0  0  0  2  0  0  0  0  0  0
  193.6680  174.3970  137.3450 O   0  0  0  0  0  0  0  0  0  0  0  0
  196.1780  175.1090  137.1920 O   0  0  0  0  0  0  0  0  0  0  0  0
  195.6760  173.0530  138.7200 O   0  0  0  0  0  1  0  0  0  0  0  0
  194.9770  175.6250  139.4550 O   0  0  0  0  0  1  0  0  0  0  0  0
  195.1510  174.5590  138.1520 P   0  0  0  0  0  0  0  0  0  0  0  0
  182.5990  179.0250  142.4890 C   0  0  0  0  0  2  0  0  0  0  0  0
  182.1000  178.2600  141.2710 C   0  0  0  0  0  2  0  0  0  0  0  0
  180.9340  178.8920  140.7610 O   0  0  0  0  0  0  0  0  0  0  0  0
  180.0040  179.2070  137.1130 N   0  0  1  0  0  0  0  0  0  0  0  0
  183.0830  178.2430  137.8590 C   0  0  0  0  0  1  0  0  0  0  0  0
  180.8820  179.4330  139.4760 C   0  0  0  0  0  0  0  0  0  0  0  0
  180.0300  180.6810  137.1360 C   0  0  0  0  0  2  0  0  0  0  0  0
  181.2090  178.7030  136.4480 C   0  0  2  0  0  3  0  0  0  0  0  0
  181.1980  180.6770  139.2700 N   0  0  0  0  0  0  0  0  0  0  0  0
  180.4600  178.5310  138.3320 C   0  0  2  0  0  3  0  0  0  0  0  0
  181.2260  177.1790  136.3030 C   0  0  0  0  0  0  0  0  0  0  0  0
  181.2020  181.2470  137.9340 C   0  0  2  0  0  3  0  0  0  0  0  0
  181.6230  177.9150  137.5830 C   0  0  2  0  0  0  0  0  0  0  0  0
  181.0980  182.6220  138.0170 F   0  0  0  0  0  0  0  0  0  0  0  0
  181.0420  176.1550  135.6620 O   0  0  0  0  0  0  0  0  0  0  0  0
  1 42  1  1  0  0  0
  1  8  1  0  0  0  0
  2 14  1  6  0  0  0
  2 16  1  0  0  0  0
  3  5  1  6  0  0  0
  3 22  1  0  0  0  0
  4  7  1  6  0  0  0
  4  5  1  0  0  0  0
  6  7  1  0  0  0  0
  9 16  1  6  0  0  0
  9  4  1  0  0  0  0
  9 10  1  0  0  0  0
 10 15  1  6  0  0  0
 10 11  1  0  0  0  0
 11  3  1  0  0  0  0
 11  8  1  1  0  0  0
 12 13  1  0  0  0  0
 12  6  1  1  0  0  0
 13 14  1  6  0  0  0
 13  2  1  0  0  0  0
 15  1  1  0  0  0  0
 18 26  1  0  0  0  0
 18 20  1  0  0  0  0
 19 20  1  0  0  0  0
 20 23  2  0  0  0  0
 21 25  2  0  0  0  0
 22 25  1  1  0  0  0
 22 24  1  0  0  0  0
 24 17  2  0  0  0  0
 24 19  1  0  0  0  0
 25 18  1  0  0  0  0
 26 27  1  0  0  0  0
 28 33  1  6  0  0  0
 28 12  1  0  0  0  0
 28 30  1  0  0  0  0
 29 37  1  6  0  0  0
 29 30  1  0  0  0  0
 30 32  1  6  0  0  0
 31 29  1  0  0  0  0
 33 31  1  0  0  0  0
 34 31  2  0  0  0  0
 35 36  1  0  0  0  0
 36 33  1  0  0  0  0
 37 41  1  0  0  0  0
 38 41  2  0  0  0  0
 41 39  1  0  0  0  0
 41 40  1  0  0  0  0
 43 42  1  0  0  0  0
 44 43  1  0  0  0  0
 45 48  1  1  0  0  0
 45 51  1  0  0  0  0
 47 44  1  0  0  0  0
 48 53  1  0  0  0  0
 49 52  1  6  0  0  0
 49 45  1  0  0  0  0
 49 54  1  0  0  0  0
 50 47  2  0  0  0  0
 51 47  1  1  0  0  0
 52 54  1  0  0  0  0
 53 55  1  1  0  0  0
 53 50  1  0  0  0  0
 54 46  1  1  0  0  0
 54 51  1  0  0  0  0
 56 52  2  0  0  0  0
M  END
>  <MODEL>
1

>  <REMARK>
 VINA RESULT:      -6.0      0.000      0.000
  Name = 
  10 active torsions:
  status: ('A' for Active; 'I' for Inactive)
    1  A    between atoms: C_1  and  C_54
    2  A    between atoms: C_4  and  C_44
    3  A    between atoms: C_5  and  C_34
    4  A    between atoms: N_11  and  C_19
    5  A    between atoms: C_13  and  O_23
    6  A    between atoms: C_17  and  N_55
    7  A    between atoms: C_18  and  O_25
    8  A    between atoms: O_23  and  C_40
    9  A    between atoms: O_25  and  P_41
   10  A    between atoms: C_40  and  C_54
                            x       y       z     vdW  Elec       q    Type
                         _______ _______ _______ _____ _____    ______ ____

>  <TORSDO>
F 10

$$$$
=
 OpenBabel10222417163D

 56 64  0  0  1  0  0  0  0  0999 V2000
  192.3860  175.1610  135.8930 C   0  0  1  0  0  3  0  0  0  0  0  0
  186.7310  176.0870  135.4910 C   0  0  2  0  0  3  0  0  0  0  0  0
  190.4920  176.3490  139.1870 C   0  0  1  0  0  3  0  0  0  0  0  0
  188.4620  176.8240  138.1640 C   0  0  2  0  0  3  0  0  0  0  0  0
  189.0950  176.0610  139.1730 O   0  0  0  0  0  0  0  0  0  0  0  0
  186.1790  178.2930  137.4740 S   0  0  0  0  0  0  0  0  0  0  0  0
  186.9770  177.0020  138.4970 C   0  0  0  0  0  2  0  0  0  0  0  0
  192.7310  175.5990  137.6440 S   0  0  0  0  0  0  0  0  0  0  0  0
  188.8390  176.2950  136.7380 C   0  0  1  0  0  3  0  0  0  0  0  0
  190.2170  175.6400  136.8090 C   0  0  2  0  0  3  0  0  0  0  0  0
  191.1040  176.3830  137.7700 C   0  0  1  0  0  3  0  0  0  0  0  0
  184.9180  177.1940  136.6660 C   0  0  1  0  0  3  0  0  0  0  0  0
  185.5440  175.8270  136.3950 C   0  0  1  0  0  3  0  0  0  0  0  0
  185.5470  175.3070  134.9720 C   0  0  0  0  0  2  0  0  0  0  0  0
  190.9770  175.5990  135.5110 C   0  0  0  0  0  2  0  0  0  0  0  0
  187.8550  175.2990  136.1180 C   0  0  0  0  0  2  0  0  0  0  0  0
  193.0540  178.2810  140.1470 O   0  0  0  0  0  0  0  0  0  0  0  0
  189.9890  177.2760  142.3860 N   0  0  0  0  0  0  0  0  0  0  0  0
  192.4150  176.6880  141.7580 C   0  0  0  0  0  2  0  0  0  0  0  0
  191.2720  176.7020  142.7330 C   0  0  0  0  0  0  0  0  0  0  0  0
  188.6850  178.5510  140.7910 C   0  0  0  0  0  2  0  0  0  0  0  0
  190.7900  177.6380  139.9790 C   0  0  2  0  0  3  0  0  0  0  0  0
  191.4550  176.0930  143.8970 C   0  0  0  0  0  2  0  0  0  0  0  0
  192.1530  177.5960  140.6000 C   0  0  0  0  0  0  0  0  0  0  0  0
  189.7810  177.8490  141.0720 C   0  0  0  0  0  0  0  0  0  0  0  0
  188.9300  177.3570  143.3950 C   0  0  0  0  0  2  0  0  0  0  0  0
  188.0120  176.1510  143.2840 C   0  0  0  0  0  1  0  0  0  0  0  0
  183.6760  177.0220  137.5690 C   0  0  1  0  0  3  0  0  0  0  0  0
  182.0500  178.0580  139.0690 C   0  0  2  0  0  3  0  0  0  0  0  0
  183.5580  177.9950  138.7670 C   0  0  2  0  0  3  0  0  0  0  0  0
  181.4530  177.6830  137.7680 C   0  0  0  0  0  0  0  0  0  0  0  0
  184.0270  179.2660  138.4040 O   0  0  0  0  0  1  0  0  0  0  0  0
  182.3950  177.1180  136.8740 N   0  0  0  0  0  0  0  0  0  0  0  0
  180.2360  177.8410  137.4830 O   0  0  0  0  0  0  0  0  0  0  0  0
  181.8490  175.6680  134.9880 C   0  0  0  0  0  1  0  0  0  0  0  0
  182.1890  177.0810  135.4270 C   0  0  0  0  0  2  0  0  0  0  0  0
  181.6530  179.3450  139.4490 O   0  0  0  0  0  0  0  0  0  0  0  0
  179.9660  178.0220  140.9440 O   0  0  0  0  0  0  0  0  0  0  0  0
  180.1300  180.5840  141.4170 O   0  0  0  0  0  1  0  0  0  0  0  0
  182.1500  178.8350  142.1270 O   0  0  0  0  0  1  0  0  0  0  0  0
  180.9480  179.1680  140.9810 P   0  0  0  0  0  0  0  0  0  0  0  0
  193.4390  175.7210  134.9410 C   0  0  0  0  0  2  0  0  0  0  0  0
  194.6910  174.8570  134.8910 C   0  0  0  0  0  2  0  0  0  0  0  0
  195.7190  175.4680  135.6570 O   0  0  0  0  0  0  0  0  0  0  0  0
  198.1580  172.7300  136.5650 N   0  0  1  0  0  0  0  0  0  0  0  0
  195.0930  172.5600  137.8050 C   0  0  0  0  0  1  0  0  0  0  0  0
  196.6100  174.7270  136.4350 C   0  0  0  0  0  0  0  0  0  0  0  0
  198.9190  173.5850  137.4940 C   0  0  0  0  0  2  0  0  0  0  0  0
  197.3100  171.8070  137.3250 C   0  0  2  0  0  3  0  0  0  0  0  0
  197.1380  175.2420  137.5050 N   0  0  0  0  0  0  0  0  0  0  0  0
  196.9330  173.3090  136.0060 C   0  0  2  0  0  3  0  0  0  0  0  0
  196.5460  170.8200  136.4390 C   0  0  0  0  0  0  0  0  0  0  0  0
  198.0260  174.4730  138.3580 C   0  0  2  0  0  3  0  0  0  0  0  0
  196.0920  172.2570  136.6990 C   0  0  2  0  0  0  0  0  0  0  0  0
  198.8010  175.3310  139.1150 F   0  0  0  0  0  0  0  0  0  0  0  0
  196.4120  169.7270  135.9110 O   0  0  0  0  0  0  0  0  0  0  0  0
  1 42  1  6  0  0  0
  1  8  1  0  0  0  0
  2 14  1  6  0  0  0
  2 16  1  0  0  0  0
  2 13  1  0  0  0  0
  3  5  1  6  0  0  0
  3 22  1  0  0  0  0
  4  7  1  1  0  0  0
  4  5  1  0  0  0  0
  6  7  1  0  0  0  0
  9 16  1  1  0  0  0
  9 10  1  0  0  0  0
  9  4  1  0  0  0  0
 10 15  1  6  0  0  0
 10 11  1  0  0  0  0
 11  8  1  1  0  0  0
 11  3  1  0  0  0  0
 12  6  1  1  0  0  0
 12 28  1  0  0  0  0
 13 14  1  6  0  0  0
 13 12  1  0  0  0  0
 15  1  1  0  0  0  0
 17 24  2  0  0  0  0
 18 20  1  0  0  0  0
 18 26  1  0  0  0  0
 19 20  1  0  0  0  0
 20 23  2  0  0  0  0
 21 25  2  0  0  0  0
 22 24  1  1  0  0  0
 22 25  1  0  0  0  0
 24 19  1  0  0  0  0
 25 18  1  0  0  0  0
 27 26  1  0  0  0  0
 28 33  1  6  0  0  0
 28 30  1  0  0  0  0
 29 37  1  6  0  0  0
 30 32  1  6  0  0  0
 30 29  1  0  0  0  0
 31 29  1  0  0  0  0
 33 31  1  0  0  0  0
 34 31  2  0  0  0  0
 35 36  1  0  0  0  0
 36 33  1  0  0  0  0
 37 41  1  0  0  0  0
 38 41  2  0  0  0  0
 41 39  1  0  0  0  0
 41 40  1  0  0  0  0
 43 42  1  0  0  0  0
 43 44  1  0  0  0  0
 44 47  1  0  0  0  0
 45 49  1  0  0  0  0
 45 48  1  1  0  0  0
 47 50  2  0  0  0  0
 48 53  1  0  0  0  0
 49 52  1  6  0  0  0
 50 53  1  0  0  0  0
 51 47  1  1  0  0  0
 51 45  1  0  0  0  0
 51 54  1  0  0  0  0
 52 54  1  0  0  0  0
 53 55  1  6  0  0  0
 54 49  1  0  0  0  0
 54 46  1  1  0  0  0
 56 52  2  0  0  0  0
M  END
>  <MODEL>
2

>  <REMARK>
 VINA RESULT:      -5.6      4.504     11.383
  Name = 
  10 active torsions:
  status: ('A' for Active; 'I' for Inactive)
    1  A    between atoms: C_1  and  C_54
    2  A    between atoms: C_4  and  C_44
    3  A    between atoms: C_5  and  C_34
    4  A    between atoms: N_11  and  C_19
    5  A    between atoms: C_13  and  O_23
    6  A    between atoms: C_17  and  N_55
    7  A    between atoms: C_18  and  O_25
    8  A    between atoms: O_23  and  C_40
    9  A    between atoms: O_25  and  P_41
   10  A    between atoms: C_40  and  C_54
                            x       y       z     vdW  Elec       q    Type
                         _______ _______ _______ _____ _____    ______ ____

>  <TORSDO>
F 10

$$$$
=
 OpenBabel10222417163D

 56 64  0  0  1  0  0  0  0  0999 V2000
  185.8780  179.0600  141.0840 C   0  0  1  0  0  3  0  0  0  0  0  0
  189.0210  176.8200  136.8290 C   0  0  2  0  0  3  0  0  0  0  0  0
  189.6810  178.1970  141.8830 C   0  0  1  0  0  3  0  0  0  0  0  0
  190.1170  177.0720  139.8990 C   0  0  2  0  0  3  0  0  0  0  0  0
  190.5080  178.1540  140.7220 O   0  0  0  0  0  0  0  0  0  0  0  0
  191.0010  175.0150  138.2170 S   0  0  0  0  0  0  0  0  0  0  0  0
  191.2880  176.6390  139.0120 C   0  0  0  0  0  2  0  0  0  0  0  0
  187.0730  179.0900  142.4800 S   0  0  0  0  0  0  0  0  0  0  0  0
  188.7380  177.3600  139.2110 C   0  0  1  0  0  3  0  0  0  0  0  0
  187.9370  178.3090  140.1000 C   0  0  2  0  0  3  0  0  0  0  0  0
  188.1860  178.0040  141.5520 C   0  0  1  0  0  3  0  0  0  0  0  0
  191.0910  175.6060  136.4580 C   0  0  1  0  0  3  0  0  0  0  0  0
  190.4510  176.9900  136.3610 C   0  0  1  0  0  3  0  0  0  0  0  0
  189.3030  177.1860  135.3920 C   0  0  0  0  0  2  0  0  0  0  0  0
  186.4440  178.2460  139.9260 C   0  0  0  0  0  2  0  0  0  0  0  0
  188.8120  177.9550  137.8010 C   0  0  0  0  0  2  0  0  0  0  0  0
  189.6330  174.9330  142.6280 O   0  0  0  0  0  0  0  0  0  0  0  0
  189.0790  177.8640  145.1800 N   0  0  0  0  0  0  0  0  0  0  0  0
  187.9050  176.1610  143.6490 C   0  0  0  0  0  2  0  0  0  0  0  0
  187.9310  177.0410  144.8670 C   0  0  0  0  0  0  0  0  0  0  0  0
  191.3730  178.4510  144.6680 C   0  0  0  0  0  2  0  0  0  0  0  0
  190.1710  177.2060  142.9580 C   0  0  2  0  0  3  0  0  0  0  0  0
  186.8270  177.0990  145.6020 C   0  0  0  0  0  2  0  0  0  0  0  0
  189.2670  176.0140  143.0550 C   0  0  0  0  0  0  0  0  0  0  0  0
  190.2360  177.8580  144.3090 C   0  0  0  0  0  0  0  0  0  0  0  0
  189.1050  178.6350  146.4260 C   0  0  0  0  0  2  0  0  0  0  0  0
  189.4070  177.7180  147.6000 C   0  0  0  0  0  1  0  0  0  0  0  0
  192.5560  175.6790  135.9740 C   0  0  1  0  0  3  0  0  0  0  0  0
  194.9160  175.2790  136.4570 C   0  0  2  0  0  3  0  0  0  0  0  0
  193.6320  175.8670  137.0690 C   0  0  2  0  0  3  0  0  0  0  0  0
  194.3810  174.3320  135.4540 C   0  0  0  0  0  0  0  0  0  0  0  0
  193.2800  175.1490  138.2200 O   0  0  0  0  0  1  0  0  0  0  0  0
  193.0020  174.5270  135.1940 N   0  0  0  0  0  0  0  0  0  0  0  0
  195.0740  173.4470  134.8840 O   0  0  0  0  0  0  0  0  0  0  0  0
  192.0640  172.3050  135.5620 C   0  0  0  0  0  1  0  0  0  0  0  0
  192.1510  173.4890  134.6170 C   0  0  0  0  0  2  0  0  0  0  0  0
  195.6870  174.6100  137.4150 O   0  0  0  0  0  0  0  0  0  0  0  0
  198.0580  175.2610  138.2990 O   0  0  0  0  0  1  0  0  0  0  0  0
  197.3740  176.3170  136.0130 O   0  0  0  0  0  0  0  0  0  0  0  0
  198.0060  173.6370  136.2520 O   0  0  0  0  0  1  0  0  0  0  0  0
  197.3000  174.9650  137.0280 P   0  0  0  0  0  0  0  0  0  0  0  0
  184.5010  178.5640  141.5150 C   0  0  0  0  0  2  0  0  0  0  0  0
  183.4800  178.6420  140.3890 C   0  0  0  0  0  2  0  0  0  0  0  0
  183.1240  177.3290  139.9810 O   0  0  0  0  0  0  0  0  0  0  0  0
  181.9980  175.2560  137.0300 N   0  0  1  0  0  0  0  0  0  0  0  0
  185.1970  176.0860  137.2210 C   0  0  0  0  0  1  0  0  0  0  0  0
  182.7680  177.0270  138.6660 C   0  0  0  0  0  0  0  0  0  0  0  0
  181.3300  176.3910  136.3670 C   0  0  0  0  0  2  0  0  0  0  0  0
  183.2680  174.9700  136.3570 C   0  0  2  0  0  3  0  0  0  0  0  0
  182.4540  177.9740  137.8330 N   0  0  0  0  0  0  0  0  0  0  0  0
  182.7700  175.5730  138.2360 C   0  0  2  0  0  3  0  0  0  0  0  0
  183.9920  173.7480  136.9280 C   0  0  0  0  0  0  0  0  0  0  0  0
  182.1320  177.6880  136.4460 C   0  0  2  0  0  3  0  0  0  0  0  0
  184.0520  175.1420  137.5550 C   0  0  2  0  0  0  0  0  0  0  0  0
  181.3980  178.7310  135.9150 F   0  0  0  0  0  0  0  0  0  0  0  0
  184.2830  172.5620  136.9090 O   0  0  0  0  0  0  0  0  0  0  0  0
  1 42  1  1  0  0  0
  1  8  1  0  0  0  0
  2 14  1  6  0  0  0
  2 16  1  0  0  0  0
  3  5  1  6  0  0  0
  3 22  1  0  0  0  0
  4  7  1  6  0  0  0
  4  5  1  0  0  0  0
  6  7  1  0  0  0  0
  9 16  1  6  0  0  0
  9  4  1  0  0  0  0
  9 10  1  0  0  0  0
 10 15  1  6  0  0  0
 10 11  1  0  0  0  0
 11  3  1  0  0  0  0
 11  8  1  1  0  0  0
 12  6  1  1  0  0  0
 13 14  1  6  0  0  0
 13 12  1  0  0  0  0
 13  2  1  0  0  0  0
 15  1  1  0  0  0  0
 17 24  2  0  0  0  0
 18 26  1  0  0  0  0
 19 20  1  0  0  0  0
 20 18  1  0  0  0  0
 20 23  2  0  0  0  0
 22 24  1  1  0  0  0
 22 25  1  0  0  0  0
 24 19  1  0  0  0  0
 25 21  2  0  0  0  0
 25 18  1  0  0  0  0
 26 27  1  0  0  0  0
 28 33  1  1  0  0  0
 28 12  1  0  0  0  0
 28 30  1  0  0  0  0
 29 30  1  0  0  0  0
 29 37  1  1  0  0  0
 30 32  1  1  0  0  0
 31 29  1  0  0  0  0
 33 31  1  0  0  0  0
 34 31  2  0  0  0  0
 36 33  1  0  0  0  0
 36 35  1  0  0  0  0
 39 41  2  0  0  0  0
 40 41  1  0  0  0  0
 41 37  1  0  0  0  0
 41 38  1  0  0  0  0
 43 42  1  0  0  0  0
 44 43  1  0  0  0  0
 45 48  1  6  0  0  0
 45 51  1  0  0  0  0
 47 44  1  0  0  0  0
 48 53  1  0  0  0  0
 49 52  1  1  0  0  0
 49 45  1  0  0  0  0
 49 54  1  0  0  0  0
 50 47  2  0  0  0  0
 51 47  1  6  0  0  0
 52 54  1  0  0  0  0
 53 55  1  1  0  0  0
 53 50  1  0  0  0  0
 54 46  1  1  0  0  0
 54 51  1  0  0  0  0
 56 52  2  0  0  0  0
M  END
>  <MODEL>
3

>  <REMARK>
 VINA RESULT:      -5.6      2.185      3.023
  Name = 
  10 active torsions:
  status: ('A' for Active; 'I' for Inactive)
    1  A    between atoms: C_1  and  C_54
    2  A    between atoms: C_4  and  C_44
    3  A    between atoms: C_5  and  C_34
    4  A    between atoms: N_11  and  C_19
    5  A    between atoms: C_13  and  O_23
    6  A    between atoms: C_17  and  N_55
    7  A    between atoms: C_18  and  O_25
    8  A    between atoms: O_23  and  C_40
    9  A    between atoms: O_25  and  P_41
   10  A    between atoms: C_40  and  C_54
                            x       y       z     vdW  Elec       q    Type
                         _______ _______ _______ _____ _____    ______ ____

>  <TORSDO>
F 10

$$$$
=
 OpenBabel10222417163D

 56 64  0  0  1  0  0  0  0  0999 V2000
  184.0530  179.4620  142.7640 C   0  0  1  0  0  3  0  0  0  0  0  0
  187.2990  178.1510  138.2100 C   0  0  2  0  0  3  0  0  0  0  0  0
  187.7180  178.0770  143.4730 C   0  0  1  0  0  3  0  0  0  0  0  0
  188.2010  177.4820  141.2800 C   0  0  2  0  0  3  0  0  0  0  0  0
  188.6160  178.2670  142.3810 O   0  0  0  0  0  0  0  0  0  0  0  0
  189.0390  175.8710  139.1480 S   0  0  0  0  0  0  0  0  0  0  0  0
  189.3930  177.1940  140.3630 C   0  0  0  0  0  2  0  0  0  0  0  0
  185.1500  179.0130  144.1690 S   0  0  0  0  0  0  0  0  0  0  0  0
  186.8970  178.0650  140.6340 C   0  0  1  0  0  3  0  0  0  0  0  0
  186.1120  178.8140  141.7080 C   0  0  2  0  0  3  0  0  0  0  0  0
  186.2380  178.1150  143.0350 C   0  0  1  0  0  3  0  0  0  0  0  0
  189.2920  176.8950  137.6190 C   0  0  1  0  0  3  0  0  0  0  0  0
  188.7670  178.3080  137.8700 C   0  0  1  0  0  3  0  0  0  0  0  0
  187.7050  178.8570  136.9390 C   0  0  0  0  0  2  0  0  0  0  0  0
  184.6340  178.9350  141.4570 C   0  0  0  0  0  2  0  0  0  0  0  0
  187.1110  179.0030  139.4410 C   0  0  0  0  0  2  0  0  0  0  0  0
  186.4120  176.0030  145.7560 O   0  0  0  0  0  0  0  0  0  0  0  0
  190.1220  177.2880  145.6950 N   0  0  0  0  0  0  0  0  0  0  0  0
  187.7760  177.6860  146.6760 C   0  0  0  0  0  2  0  0  0  0  0  0
  189.2730  177.7820  146.7590 C   0  0  0  0  0  0  0  0  0  0  0  0
  190.2840  176.0570  143.6150 C   0  0  0  0  0  2  0  0  0  0  0  0
  188.0570  176.7960  144.2610 C   0  0  2  0  0  3  0  0  0  0  0  0
  189.7880  178.4130  147.8060 C   0  0  0  0  0  2  0  0  0  0  0  0
  187.3500  176.7630  145.5820 C   0  0  0  0  0  0  0  0  0  0  0  0
  189.5330  176.6890  144.5150 C   0  0  0  0  0  0  0  0  0  0  0  0
  191.5780  177.3120  145.8540 C   0  0  0  0  0  2  0  0  0  0  0  0
  192.0400  176.0820  146.6180 C   0  0  0  0  0  1  0  0  0  0  0  0
  190.7880  176.9610  137.2390 C   0  0  1  0  0  3  0  0  0  0  0  0
  192.9360  175.8090  137.0920 C   0  0  2  0  0  3  0  0  0  0  0  0
  191.7390  176.0330  138.0320 C   0  0  2  0  0  3  0  0  0  0  0  0
  192.3420  176.0580  135.7600 C   0  0  0  0  0  0  0  0  0  0  0  0
  191.1070  174.8100  138.3010 O   0  0  0  0  0  1  0  0  0  0  0  0
  191.0760  176.6890  135.8330 N   0  0  0  0  0  0  0  0  0  0  0  0
  192.8990  175.7480  134.6730 O   0  0  0  0  0  0  0  0  0  0  0  0
  189.5620  175.2310  134.5940 C   0  0  0  0  0  1  0  0  0  0  0  0
  190.1030  176.6410  134.7430 C   0  0  0  0  0  2  0  0  0  0  0  0
  193.4290  174.5020  137.1830 O   0  0  0  0  0  0  0  0  0  0  0  0
  195.7380  173.3100  137.4550 O   0  0  0  0  0  1  0  0  0  0  0  0
  195.2630  175.2530  139.1320 O   0  0  0  0  0  1  0  0  0  0  0  0
  195.8080  175.7270  136.4630 O   0  0  0  0  0  0  0  0  0  0  0  0
  195.0750  174.6630  137.5570 P   0  0  0  0  0  0  0  0  0  0  0  0
  182.6170  178.9970  142.9840 C   0  0  0  0  0  2  0  0  0  0  0  0
  181.7160  179.3260  141.8010 C   0  0  0  0  0  2  0  0  0  0  0  0
  181.2310  178.1200  141.2280 O   0  0  0  0  0  0  0  0  0  0  0  0
  182.3610  178.5170  137.6440 N   0  0  1  0  0  0  0  0  0  0  0  0
  179.1160  178.6680  138.2800 C   0  0  0  0  0  1  0  0  0  0  0  0
  181.4600  177.7830  139.8930 C   0  0  0  0  0  0  0  0  0  0  0  0
  182.6710  177.0850  137.4850 C   0  0  0  0  0  2  0  0  0  0  0  0
  181.1030  178.8290  136.9620 C   0  0  2  0  0  3  0  0  0  0  0  0
  181.4440  176.5410  139.5130 N   0  0  0  0  0  0  0  0  0  0  0  0
  181.7120  178.9030  138.9010 C   0  0  2  0  0  3  0  0  0  0  0  0
  180.7450  180.3170  137.0040 C   0  0  0  0  0  0  0  0  0  0  0  0
  181.6270  176.1700  138.1210 C   0  0  2  0  0  3  0  0  0  0  0  0
  180.4720  179.3430  138.1520 C   0  0  2  0  0  0  0  0  0  0  0  0
  182.0380  174.8540  138.0410 F   0  0  0  0  0  0  0  0  0  0  0  0
  180.7180  181.4330  136.5090 O   0  0  0  0  0  0  0  0  0  0  0  0
  1 42  1  1  0  0  0
  1  8  1  0  0  0  0
  2 14  1  6  0  0  0
  2 16  1  0  0  0  0
  3  5  1  6  0  0  0
  3 22  1  0  0  0  0
  4  7  1  6  0  0  0
  4  5  1  0  0  0  0
  6  7  1  0  0  0  0
  9 16  1  6  0  0  0
  9  4  1  0  0  0  0
  9 10  1  0  0  0  0
 10 15  1  6  0  0  0
 10 11  1  0  0  0  0
 11  3  1  0  0  0  0
 11  8  1  1  0  0  0
 12 13  1  0  0  0  0
 12  6  1  1  0  0  0
 13 14  1  6  0  0  0
 13  2  1  0  0  0  0
 15  1  1  0  0  0  0
 18 26  1  0  0  0  0
 18 20  1  0  0  0  0
 19 20  1  0  0  0  0
 20 23  2  0  0  0  0
 21 25  2  0  0  0  0
 22 25  1  1  0  0  0
 22 24  1  0  0  0  0
 24 17  2  0  0  0  0
 24 19  1  0  0  0  0
 25 18  1  0  0  0  0
 26 27  1  0  0  0  0
 28 33  1  6  0  0  0
 28 12  1  0  0  0  0
 28 30  1  0  0  0  0
 29 37  1  6  0  0  0
 29 30  1  0  0  0  0
 30 32  1  6  0  0  0
 31 33  1  0  0  0  0
 31 29  1  0  0  0  0
 34 31  2  0  0  0  0
 35 36  1  0  0  0  0
 36 33  1  0  0  0  0
 37 41  1  0  0  0  0
 38 41  1  0  0  0  0
 40 41  2  0  0  0  0
 41 39  1  0  0  0  0
 43 42  1  0  0  0  0
 44 43  1  0  0  0  0
 45 48  1  1  0  0  0
 45 51  1  0  0  0  0
 47 44  1  0  0  0  0
 48 53  1  0  0  0  0
 49 52  1  6  0  0  0
 49 45  1  0  0  0  0
 49 54  1  0  0  0  0
 50 47  2  0  0  0  0
 51 47  1  1  0  0  0
 52 54  1  0  0  0  0
 53 55  1  1  0  0  0
 53 50  1  0  0  0  0
 54 46  1  1  0  0  0
 54 51  1  0  0  0  0
 56 52  2  0  0  0  0
M  END
>  <MODEL>
4

>  <REMARK>
 VINA RESULT:      -5.5      1.515      1.982
  Name = 
  10 active torsions:
  status: ('A' for Active; 'I' for Inactive)
    1  A    between atoms: C_1  and  C_54
    2  A    between atoms: C_4  and  C_44
    3  A    between atoms: C_5  and  C_34
    4  A    between atoms: N_11  and  C_19
    5  A    between atoms: C_13  and  O_23
    6  A    between atoms: C_17  and  N_55
    7  A    between atoms: C_18  and  O_25
    8  A    between atoms: O_23  and  C_40
    9  A    between atoms: O_25  and  P_41
   10  A    between atoms: C_40  and  C_54
                            x       y       z     vdW  Elec       q    Type
                         _______ _______ _______ _____ _____    ______ ____

>  <TORSDO>
F 10

$$$$
=
 OpenBabel10222417163D

 56 64  0  0  1  0  0  0  0  0999 V2000
  191.9260  176.8850  139.9640 C   0  0  1  0  0  3  0  0  0  0  0  0
  186.5080  177.7700  138.2730 C   0  0  2  0  0  3  0  0  0  0  0  0
  189.1630  177.2520  142.8070 C   0  0  1  0  0  3  0  0  0  0  0  0
  187.4320  177.9090  141.4060 C   0  0  2  0  0  3  0  0  0  0  0  0
  187.8440  176.9470  142.3580 O   0  0  0  0  0  0  0  0  0  0  0  0
  185.2940  179.4530  140.4630 S   0  0  0  0  0  0  0  0  0  0  0  0
  185.9020  177.9770  141.3590 C   0  0  0  0  0  2  0  0  0  0  0  0
  191.7750  176.9170  141.7950 S   0  0  0  0  0  0  0  0  0  0  0  0
  188.2030  177.7270  140.0530 C   0  0  1  0  0  3  0  0  0  0  0  0
  189.5630  177.1000  140.3470 C   0  0  2  0  0  3  0  0  0  0  0  0
  190.1130  177.6200  141.6470 C   0  0  1  0  0  3  0  0  0  0  0  0
  184.3720  178.5440  139.1310 C   0  0  1  0  0  3  0  0  0  0  0  0
  185.1530  177.2870  138.7490 C   0  0  1  0  0  3  0  0  0  0  0  0
  185.5620  177.1060  137.3020 C   0  0  0  0  0  2  0  0  0  0  0  0
  190.6310  177.3710  139.3220 C   0  0  0  0  0  2  0  0  0  0  0  0
  187.4920  176.8810  138.9930 C   0  0  0  0  0  2  0  0  0  0  0  0
  190.9790  179.8140  143.9700 O   0  0  0  0  0  0  0  0  0  0  0  0
  189.1430  177.1320  146.1730 N   0  0  0  0  0  0  0  0  0  0  0  0
  191.3840  177.7830  145.0890 C   0  0  0  0  0  2  0  0  0  0  0  0
  190.5890  177.0920  146.1600 C   0  0  0  0  0  0  0  0  0  0  0  0
  187.1160  178.0590  145.2240 C   0  0  0  0  0  2  0  0  0  0  0  0
  189.1450  178.3310  143.9080 C   0  0  2  0  0  3  0  0  0  0  0  0
  191.2610  176.3730  147.0510 C   0  0  0  0  0  2  0  0  0  0  0  0
  190.5340  178.7290  144.3060 C   0  0  0  0  0  0  0  0  0  0  0  0
  188.4270  177.8430  145.1340 C   0  0  0  0  0  0  0  0  0  0  0  0
  188.4060  176.5280  147.2860 C   0  0  0  0  0  2  0  0  0  0  0  0
  188.2190  177.5450  148.4000 C   0  0  0  0  0  1  0  0  0  0  0  0
  182.9580  178.1470  139.6090 C   0  0  1  0  0  3  0  0  0  0  0  0
  181.0690  178.6100  141.0860 C   0  0  2  0  0  3  0  0  0  0  0  0
  182.6040  178.5020  141.0730 C   0  0  2  0  0  3  0  0  0  0  0  0
  180.7630  178.9190  139.6720 C   0  0  0  0  0  0  0  0  0  0  0  0
  183.1730  179.7350  141.4220 O   0  0  0  0  0  1  0  0  0  0  0  0
  181.8640  178.6930  138.8100 N   0  0  0  0  0  0  0  0  0  0  0  0
  179.6440  179.3340  139.2700 O   0  0  0  0  0  0  0  0  0  0  0  0
  181.7070  178.2980  136.4070 C   0  0  0  0  0  1  0  0  0  0  0  0
  181.9810  179.3200  137.4950 C   0  0  0  0  0  2  0  0  0  0  0  0
  180.6300  179.6370  141.9290 O   0  0  0  0  0  0  0  0  0  0  0  0
  179.5110  177.5320  142.9990 O   0  0  0  0  0  0  0  0  0  0  0  0
  178.9530  179.8130  144.1390 O   0  0  0  0  0  1  0  0  0  0  0  0
  181.4400  178.6290  144.3800 O   0  0  0  0  0  1  0  0  0  0  0  0
  180.1170  178.8690  143.3520 P   0  0  0  0  0  0  0  0  0  0  0  0
  193.1400  177.6670  139.4720 C   0  0  0  0  0  2  0  0  0  0  0  0
  193.5950  177.2190  138.0900 C   0  0  0  0  0  2  0  0  0  0  0  0
  193.7770  175.8110  138.0860 O   0  0  0  0  0  0  0  0  0  0  0  0
  194.5680  173.4990  135.2040 N   0  0  1  0  0  0  0  0  0  0  0  0
  195.5060  172.5780  138.2430 C   0  0  0  0  0  1  0  0  0  0  0  0
  194.5380  175.1600  137.1140 C   0  0  0  0  0  0  0  0  0  0  0  0
  195.6530  174.3550  134.6920 C   0  0  0  0  0  2  0  0  0  0  0  0
  195.1370  172.3380  135.8940 C   0  0  2  0  0  3  0  0  0  0  0  0
  195.7030  175.6210  136.7690 N   0  0  0  0  0  0  0  0  0  0  0  0
  193.9750  173.9000  136.4840 C   0  0  2  0  0  3  0  0  0  0  0  0
  194.0780  171.3480  136.3860 C   0  0  0  0  0  0  0  0  0  0  0  0
  196.5340  174.9310  135.7980 C   0  0  2  0  0  3  0  0  0  0  0  0
  194.4640  172.6240  137.1360 C   0  0  2  0  0  0  0  0  0  0  0  0
  197.4510  175.8150  135.2620 F   0  0  0  0  0  0  0  0  0  0  0  0
  193.4160  170.3290  136.2630 O   0  0  0  0  0  0  0  0  0  0  0  0
  1 42  1  1  0  0  0
  1  8  1  0  0  0  0
  2 14  1  6  0  0  0
  2 13  1  0  0  0  0
  2 16  1  0  0  0  0
  3  5  1  6  0  0  0
  3 22  1  0  0  0  0
  4  7  1  6  0  0  0
  4  5  1  0  0  0  0
  6  7  1  0  0  0  0
  9 16  1  6  0  0  0
  9 10  1  0  0  0  0
  9  4  1  0  0  0  0
 10 15  1  6  0  0  0
 10 11  1  0  0  0  0
 11  8  1  1  0  0  0
 11  3  1  0  0  0  0
 12 28  1  0  0  0  0
 12  6  1  1  0  0  0
 13 14  1  6  0  0  0
 13 12  1  0  0  0  0
 15  1  1  0  0  0  0
 17 24  2  0  0  0  0
 18 26  1  0  0  0  0
 19 20  1  0  0  0  0
 20 18  1  0  0  0  0
 20 23  2  0  0  0  0
 22 24  1  1  0  0  0
 22 25  1  0  0  0  0
 24 19  1  0  0  0  0
 25 21  2  0  0  0  0
 25 18  1  0  0  0  0
 26 27  1  0  0  0  0
 28 33  1  6  0  0  0
 28 30  1  0  0  0  0
 29 37  1  1  0  0  0
 30 29  1  0  0  0  0
 30 32  1  6  0  0  0
 31 29  1  0  0  0  0
 33 31  1  0  0  0  0
 34 31  2  0  0  0  0
 35 36  1  0  0  0  0
 36 33  1  0  0  0  0
 37 41  1  0  0  0  0
 38 41  2  0  0  0  0
 41 39  1  0  0  0  0
 41 40  1  0  0  0  0
 43 42  1  0  0  0  0
 44 43  1  0  0  0  0
 45 48  1  1  0  0  0
 45 49  1  0  0  0  0
 45 51  1  0  0  0  0
 47 44  1  0  0  0  0
 48 53  1  0  0  0  0
 49 52  1  6  0  0  0
 49 54  1  0  0  0  0
 50 47  2  0  0  0  0
 51 47  1  1  0  0  0
 51 54  1  0  0  0  0
 52 54  1  0  0  0  0
 53 55  1  6  0  0  0
 53 50  1  0  0  0  0
 54 46  1  1  0  0  0
 56 52  2  0  0  0  0
M  END
>  <MODEL>
5

>  <REMARK>
 VINA RESULT:      -5.5      4.047     10.508
  Name = 
  10 active torsions:
  status: ('A' for Active; 'I' for Inactive)
    1  A    between atoms: C_1  and  C_54
    2  A    between atoms: C_4  and  C_44
    3  A    between atoms: C_5  and  C_34
    4  A    between atoms: N_11  and  C_19
    5  A    between atoms: C_13  and  O_23
    6  A    between atoms: C_17  and  N_55
    7  A    between atoms: C_18  and  O_25
    8  A    between atoms: O_23  and  C_40
    9  A    between atoms: O_25  and  P_41
   10  A    between atoms: C_40  and  C_54
                            x       y       z     vdW  Elec       q    Type
                         _______ _______ _______ _____ _____    ______ ____

>  <TORSDO>
F 10

$$$$
=
 OpenBabel10222417163D

 56 64  0  0  1  0  0  0  0  0999 V2000
  189.9420  177.8750  140.6420 C   0  0  1  0  0  3  0  0  0  0  0  0
  184.2580  178.2270  141.3950 C   0  0  2  0  0  3  0  0  0  0  0  0
  187.6910  178.2870  137.3840 C   0  0  1  0  0  3  0  0  0  0  0  0
  185.6440  178.0010  138.4430 C   0  0  2  0  0  3  0  0  0  0  0  0
  186.4180  178.8760  137.6460 O   0  0  0  0  0  0  0  0  0  0  0  0
  183.0840  176.9680  138.9170 S   0  0  0  0  0  0  0  0  0  0  0  0
  184.1530  178.2940  138.2450 C   0  0  0  0  0  2  0  0  0  0  0  0
  190.1000  177.9540  138.8130 S   0  0  0  0  0  0  0  0  0  0  0  0
  186.1950  177.9400  139.9090 C   0  0  1  0  0  3  0  0  0  0  0  0
  187.6920  178.2400  139.8810 C   0  0  2  0  0  3  0  0  0  0  0  0
  188.3220  177.6570  138.6450 C   0  0  1  0  0  3  0  0  0  0  0  0
  182.1790  178.0140  140.1570 C   0  0  1  0  0  3  0  0  0  0  0  0
  183.1480  179.0350  140.7540 C   0  0  1  0  0  3  0  0  0  0  0  0
  183.3360  179.0550  142.2570 C   0  0  0  0  0  2  0  0  0  0  0  0
  188.4810  177.6830  141.0350 C   0  0  0  0  0  2  0  0  0  0  0  0
  185.5250  178.8870  140.9100 C   0  0  0  0  0  2  0  0  0  0  0  0
  185.9590  175.6150  136.3460 O   0  0  0  0  0  0  0  0  0  0  0  0
  189.8540  176.0450  136.1050 N   0  0  0  0  0  0  0  0  0  0  0  0
  187.9320  175.0700  137.5100 C   0  0  0  0  0  2  0  0  0  0  0  0
  189.3600  175.0610  137.0440 C   0  0  0  0  0  0  0  0  0  0  0  0
  189.3400  177.8670  134.5940 C   0  0  0  0  0  2  0  0  0  0  0  0
  187.6170  177.2880  136.2120 C   0  0  2  0  0  3  0  0  0  0  0  0
  190.1750  174.1680  137.5890 C   0  0  0  0  0  2  0  0  0  0  0  0
  187.0870  175.9590  136.6570 C   0  0  0  0  0  0  0  0  0  0  0  0
  188.9700  177.0730  135.5960 C   0  0  0  0  0  0  0  0  0  0  0  0
  191.2270  175.9470  135.6010 C   0  0  0  0  0  2  0  0  0  0  0  0
  192.2070  176.4180  136.6620 C   0  0  0  0  0  1  0  0  0  0  0  0
  180.9940  178.7530  139.4970 C   0  0  1  0  0  3  0  0  0  0  0  0
  180.2410  180.4870  137.9510 C   0  0  2  0  0  3  0  0  0  0  0  0
  181.2440  180.2240  139.0880 C   0  0  2  0  0  3  0  0  0  0  0  0
  179.9920  179.1250  137.4300 C   0  0  0  0  0  0  0  0  0  0  0  0
  182.5550  180.3770  138.6130 O   0  0  0  0  0  1  0  0  0  0  0  0
  180.4610  178.1100  138.2990 N   0  0  0  0  0  0  0  0  0  0  0  0
  179.4200  178.8870  136.3330 O   0  0  0  0  0  0  0  0  0  0  0  0
  179.5400  175.8610  138.0840 C   0  0  0  0  0  1  0  0  0  0  0  0
  180.7470  176.7490  137.8460 C   0  0  0  0  0  2  0  0  0  0  0  0
  180.7860  181.3100  136.9600 O   0  0  0  0  0  0  0  0  0  0  0  0
  179.2940  183.2080  135.9570 O   0  0  0  0  0  0  0  0  0  0  0  0
  181.2720  184.0000  137.4660 O   0  0  0  0  0  1  0  0  0  0  0  0
  179.0290  182.7760  138.5220 O   0  0  0  0  0  1  0  0  0  0  0  0
  180.0770  182.8330  137.1930 P   0  0  0  0  0  0  0  0  0  0  0  0
  190.8450  176.8090  141.2540 C   0  0  0  0  0  2  0  0  0  0  0  0
  191.8440  177.3950  142.2420 C   0  0  0  0  0  2  0  0  0  0  0  0
  191.1630  178.2400  143.1580 O   0  0  0  0  0  0  0  0  0  0  0  0
  190.2110  177.5340  146.7450 N   0  0  1  0  0  0  0  0  0  0  0  0
  191.5380  175.0730  144.9720 C   0  0  0  0  0  1  0  0  0  0  0  0
  190.4270  177.7360  144.2320 C   0  0  0  0  0  0  0  0  0  0  0  0
  188.7660  177.5010  146.4550 C   0  0  0  0  0  2  0  0  0  0  0  0
  190.7080  176.1670  146.9280 C   0  0  2  0  0  3  0  0  0  0  0  0
  189.1990  177.3470  144.0660 N   0  0  0  0  0  0  0  0  0  0  0  0
  191.1030  177.6460  145.5870 C   0  0  2  0  0  3  0  0  0  0  0  0
  192.1870  176.1100  147.3180 C   0  0  0  0  0  0  0  0  0  0  0  0
  188.4320  176.7710  145.1560 C   0  0  2  0  0  3  0  0  0  0  0  0
  191.6930  176.2830  145.8810 C   0  0  2  0  0  0  0  0  0  0  0  0
  187.0820  176.8820  144.8840 F   0  0  0  0  0  0  0  0  0  0  0  0
  193.0800  176.0190  148.1470 O   0  0  0  0  0  0  0  0  0  0  0  0
  1 15  1  0  0  0  0
  1 42  1  6  0  0  0
  2 16  1  6  0  0  0
  2 14  1  0  0  0  0
  3  5  1  1  0  0  0
  3 11  1  0  0  0  0
  4  7  1  1  0  0  0
  4  9  1  0  0  0  0
  5  4  1  0  0  0  0
  7  6  1  0  0  0  0
  8  1  1  0  0  0  0
  9 16  1  1  0  0  0
 10  9  1  0  0  0  0
 10 15  1  1  0  0  0
 11  8  1  1  0  0  0
 11 10  1  0  0  0  0
 12  6  1  6  0  0  0
 12 13  1  0  0  0  0
 13  2  1  0  0  0  0
 13 14  1  1  0  0  0
 17 24  2  0  0  0  0
 18 20  1  0  0  0  0
 20 19  1  0  0  0  0
 20 23  2  0  0  0  0
 21 25  2  0  0  0  0
 22 25  1  1  0  0  0
 22 24  1  0  0  0  0
 22  3  1  0  0  0  0
 24 19  1  0  0  0  0
 25 18  1  0  0  0  0
 26 18  1  0  0  0  0
 26 27  1  0  0  0  0
 28 33  1  6  0  0  0
 28 12  1  0  0  0  0
 29 37  1  6  0  0  0
 29 30  1  0  0  0  0
 30 32  1  6  0  0  0
 30 28  1  0  0  0  0
 31 29  1  0  0  0  0
 31 33  1  0  0  0  0
 34 31  2  0  0  0  0
 36 35  1  0  0  0  0
 36 33  1  0  0  0  0
 37 41  1  0  0  0  0
 38 41  2  0  0  0  0
 41 39  1  0  0  0  0
 41 40  1  0  0  0  0
 42 43  1  0  0  0  0
 43 44  1  0  0  0  0
 44 47  1  0  0  0  0
 45 48  1  6  0  0  0
 45 49  1  0  0  0  0
 49 52  1  1  0  0  0
 50 47  2  0  0  0  0
 50 53  1  0  0  0  0
 51 47  1  6  0  0  0
 51 54  1  0  0  0  0
 51 45  1  0  0  0  0
 52 56  2  0  0  0  0
 53 55  1  6  0  0  0
 53 48  1  0  0  0  0
 54 46  1  6  0  0  0
 54 49  1  0  0  0  0
 54 52  1  0  0  0  0
M  END
>  <MODEL>
6

>  <REMARK>
 VINA RESULT:      -5.3      4.021     10.827
  Name = 
  10 active torsions:
  status: ('A' for Active; 'I' for Inactive)
    1  A    between atoms: C_1  and  C_54
    2  A    between atoms: C_4  and  C_44
    3  A    between atoms: C_5  and  C_34
    4  A    between atoms: N_11  and  C_19
    5  A    between atoms: C_13  and  O_23
    6  A    between atoms: C_17  and  N_55
    7  A    between atoms: C_18  and  O_25
    8  A    between atoms: O_23  and  C_40
    9  A    between atoms: O_25  and  P_41
   10  A    between atoms: C_40  and  C_54
                            x       y       z     vdW  Elec       q    Type
                         _______ _______ _______ _____ _____    ______ ____

>  <TORSDO>
F 10

$$$$
=
 OpenBabel10222417163D

 56 64  0  0  1  0  0  0  0  0999 V2000
  190.1130  177.8080  140.6420 C   0  0  1  0  0  3  0  0  0  0  0  0
  184.4820  178.2590  141.6850 C   0  0  2  0  0  3  0  0  0  0  0  0
  187.7070  178.2740  137.5050 C   0  0  1  0  0  3  0  0  0  0  0  0
  185.7110  178.0200  138.6650 C   0  0  2  0  0  3  0  0  0  0  0  0
  186.4600  178.8850  137.8320 O   0  0  0  0  0  0  0  0  0  0  0  0
  183.1600  177.0320  139.2650 S   0  0  0  0  0  0  0  0  0  0  0  0
  184.2190  178.3410  138.5450 C   0  0  0  0  0  2  0  0  0  0  0  0
  190.1790  177.8910  138.8080 S   0  0  0  0  0  0  0  0  0  0  0  0
  186.3350  177.9430  140.1010 C   0  0  1  0  0  3  0  0  0  0  0  0
  187.8340  178.2160  139.9980 C   0  0  2  0  0  3  0  0  0  0  0  0
  188.3900  177.6280  138.7290 C   0  0  1  0  0  3  0  0  0  0  0  0
  182.3400  178.0890  140.5540 C   0  0  1  0  0  3  0  0  0  0  0  0
  183.3560  179.0890  141.1030 C   0  0  1  0  0  3  0  0  0  0  0  0
  183.6200  179.1000  142.5950 C   0  0  0  0  0  2  0  0  0  0  0  0
  188.6700  177.6400  141.1080 C   0  0  0  0  0  2  0  0  0  0  0  0
  185.7340  178.8980  141.1380 C   0  0  0  0  0  2  0  0  0  0  0  0
  185.9300  175.5900  136.5810 O   0  0  0  0  0  0  0  0  0  0  0  0
  189.7910  176.0640  136.0500 N   0  0  0  0  0  0  0  0  0  0  0  0
  187.9900  175.0600  137.5890 C   0  0  0  0  0  2  0  0  0  0  0  0
  189.3790  175.0690  137.0170 C   0  0  0  0  0  0  0  0  0  0  0  0
  189.1450  177.8900  134.5950 C   0  0  0  0  0  2  0  0  0  0  0  0
  187.5550  177.2820  136.3340 C   0  0  2  0  0  3  0  0  0  0  0  0
  190.2420  174.1810  137.4930 C   0  0  0  0  0  2  0  0  0  0  0  0
  187.0740  175.9450  136.8090 C   0  0  0  0  0  0  0  0  0  0  0  0
  188.8600  177.0850  135.6170 C   0  0  0  0  0  0  0  0  0  0  0  0
  191.1220  175.9840  135.4430 C   0  0  0  0  0  2  0  0  0  0  0  0
  191.2350  174.7260  134.5970 C   0  0  0  0  0  1  0  0  0  0  0  0
  181.1360  178.8520  139.9570 C   0  0  1  0  0  3  0  0  0  0  0  0
  180.3180  180.4720  138.3220 C   0  0  2  0  0  3  0  0  0  0  0  0
  181.4360  180.2460  139.3560 C   0  0  2  0  0  3  0  0  0  0  0  0
  179.9100  179.0890  137.9930 C   0  0  0  0  0  0  0  0  0  0  0  0
  182.6840  180.2370  138.7160 O   0  0  0  0  0  1  0  0  0  0  0  0
  180.4120  178.1340  138.9110 N   0  0  0  0  0  0  0  0  0  0  0  0
  179.1890  178.7860  137.0060 O   0  0  0  0  0  0  0  0  0  0  0  0
  179.2830  175.9730  139.0010 C   0  0  0  0  0  1  0  0  0  0  0  0
  180.5400  176.7150  138.5870 C   0  0  0  0  0  2  0  0  0  0  0  0
  180.7920  181.1380  137.1860 O   0  0  0  0  0  0  0  0  0  0  0  0
  179.4200  183.0760  136.0950 O   0  0  0  0  0  0  0  0  0  0  0  0
  181.5260  183.8050  137.4530 O   0  0  0  0  0  1  0  0  0  0  0  0
  179.2400  182.8690  138.6940 O   0  0  0  0  0  1  0  0  0  0  0  0
  180.2250  182.7300  137.3240 P   0  0  0  0  0  0  0  0  0  0  0  0
  191.0270  176.7220  141.2030 C   0  0  0  0  0  2  0  0  0  0  0  0
  190.3540  175.9120  142.3030 C   0  0  0  0  0  2  0  0  0  0  0  0
  191.2670  175.7210  143.3750 O   0  0  0  0  0  0  0  0  0  0  0  0
  189.2260  176.4460  146.4700 N   0  0  1  0  0  0  0  0  0  0  0  0
  190.1940  179.0060  144.6070 C   0  0  0  0  0  1  0  0  0  0  0  0
  190.9850  176.1350  144.6770 C   0  0  0  0  0  0  0  0  0  0  0  0
  190.3470  176.1730  147.3880 C   0  0  0  0  0  2  0  0  0  0  0  0
  189.0170  177.8930  146.3640 C   0  0  2  0  0  3  0  0  0  0  0  0
  191.9390  176.2620  145.5510 N   0  0  0  0  0  0  0  0  0  0  0  0
  189.5450  176.4420  145.0390 C   0  0  2  0  0  3  0  0  0  0  0  0
  187.8140  178.2670  145.4940 C   0  0  0  0  0  0  0  0  0  0  0  0
  191.6770  176.7410  146.8960 C   0  0  2  0  0  3  0  0  0  0  0  0
  189.1910  177.9110  144.9320 C   0  0  2  0  0  0  0  0  0  0  0  0
  192.7000  176.3470  147.7370 F   0  0  0  0  0  0  0  0  0  0  0  0
  186.6430  178.5850  145.3540 O   0  0  0  0  0  0  0  0  0  0  0  0
  1 15  1  0  0  0  0
  1 42  1  6  0  0  0
  2 16  1  6  0  0  0
  2 14  1  0  0  0  0
  3  5  1  1  0  0  0
  3 11  1  0  0  0  0
  4  7  1  1  0  0  0
  4  9  1  0  0  0  0
  5  4  1  0  0  0  0
  7  6  1  0  0  0  0
  8  1  1  0  0  0  0
  9 16  1  1  0  0  0
 10  9  1  0  0  0  0
 10 15  1  1  0  0  0
 11  8  1  6  0  0  0
 11 10  1  0  0  0  0
 12  6  1  6  0  0  0
 12 13  1  0  0  0  0
 13  2  1  0  0  0  0
 13 14  1  1  0  0  0
 17 24  2  0  0  0  0
 18 20  1  0  0  0  0
 20 23  2  0  0  0  0
 20 19  1  0  0  0  0
 21 25  2  0  0  0  0
 22 25  1  1  0  0  0
 22 24  1  0  0  0  0
 22  3  1  0  0  0  0
 24 19  1  0  0  0  0
 25 18  1  0  0  0  0
 26 18  1  0  0  0  0
 27 26  1  0  0  0  0
 28 33  1  6  0  0  0
 28 12  1  0  0  0  0
 29 37  1  6  0  0  0
 29 30  1  0  0  0  0
 30 32  1  6  0  0  0
 30 28  1  0  0  0  0
 31 29  1  0  0  0  0
 31 33  1  0  0  0  0
 34 31  2  0  0  0  0
 36 33  1  0  0  0  0
 36 35  1  0  0  0  0
 37 41  1  0  0  0  0
 38 41  2  0  0  0  0
 41 39  1  0  0  0  0
 41 40  1  0  0  0  0
 42 43  1  0  0  0  0
 43 44  1  0  0  0  0
 44 47  1  0  0  0  0
 45 48  1  1  0  0  0
 47 50  2  0  0  0  0
 49 52  1  6  0  0  0
 49 45  1  0  0  0  0
 50 53  1  0  0  0  0
 51 47  1  1  0  0  0
 51 45  1  0  0  0  0
 53 48  1  0  0  0  0
 53 55  1  1  0  0  0
 54 46  1  6  0  0  0
 54 51  1  0  0  0  0
 54 52  1  0  0  0  0
 54 49  1  0  0  0  0
 56 52  2  0  0  0  0
M  END
>  <MODEL>
7

>  <REMARK>
 VINA RESULT:      -5.3      4.217     10.788
  Name = 
  10 active torsions:
  status: ('A' for Active; 'I' for Inactive)
    1  A    between atoms: C_1  and  C_54
    2  A    between atoms: C_4  and  C_44
    3  A    between atoms: C_5  and  C_34
    4  A    between atoms: N_11  and  C_19
    5  A    between atoms: C_13  and  O_23
    6  A    between atoms: C_17  and  N_55
    7  A    between atoms: C_18  and  O_25
    8  A    between atoms: O_23  and  C_40
    9  A    between atoms: O_25  and  P_41
   10  A    between atoms: C_40  and  C_54
                            x       y       z     vdW  Elec       q    Type
                         _______ _______ _______ _____ _____    ______ ____

>  <TORSDO>
F 10

$$$$
=
 OpenBabel10222417163D

 56 64  0  0  1  0  0  0  0  0999 V2000
  190.0190  176.6330  135.4760 C   0  0  1  0  0  3  0  0  0  0  0  0
  191.2250  177.1850  141.0650 C   0  0  2  0  0  3  0  0  0  0  0  0
  186.9960  177.4970  137.9190 C   0  0  1  0  0  3  0  0  0  0  0  0
  188.1700  177.2020  139.9010 C   0  0  2  0  0  3  0  0  0  0  0  0
  187.4100  178.1170  139.1350 O   0  0  0  0  0  0  0  0  0  0  0  0
  188.7270  176.2540  142.4770 S   0  0  0  0  0  0  0  0  0  0  0  0
  188.1150  177.5880  141.3820 C   0  0  0  0  0  2  0  0  0  0  0  0
  188.2000  176.8960  135.4400 S   0  0  0  0  0  0  0  0  0  0  0  0
  189.5780  176.9600  139.2540 C   0  0  1  0  0  3  0  0  0  0  0  0
  189.4680  177.1870  137.7480 C   0  0  2  0  0  3  0  0  0  0  0  0
  188.1360  176.7070  137.2390 C   0  0  1  0  0  3  0  0  0  0  0  0
  190.1310  177.2080  143.2320 C   0  0  1  0  0  3  0  0  0  0  0  0
  190.7540  178.1100  142.1680 C   0  0  1  0  0  3  0  0  0  0  0  0
  192.2330  177.9630  141.8760 C   0  0  0  0  0  2  0  0  0  0  0  0
  190.4970  176.4730  136.9150 C   0  0  0  0  0  2  0  0  0  0  0  0
  190.7160  177.8290  139.7990 C   0  0  0  0  0  2  0  0  0  0  0  0
  185.7890  174.4470  137.2420 O   0  0  0  0  0  0  0  0  0  0  0  0
  183.7800  177.8100  136.9720 N   0  0  0  0  0  0  0  0  0  0  0  0
  185.1690  176.0820  135.6660 C   0  0  0  0  0  2  0  0  0  0  0  0
  184.0990  177.1350  135.7320 C   0  0  0  0  0  0  0  0  0  0  0  0
  184.1010  177.9400  139.3700 C   0  0  0  0  0  2  0  0  0  0  0  0
  185.7370  176.6320  138.1310 C   0  0  2  0  0  3  0  0  0  0  0  0
  183.5150  177.4850  134.5940 C   0  0  0  0  0  2  0  0  0  0  0  0
  185.5710  175.6280  137.0310 C   0  0  0  0  0  0  0  0  0  0  0  0
  184.4990  177.4800  138.1850 C   0  0  0  0  0  0  0  0  0  0  0  0
  182.6670  178.7620  137.0180 C   0  0  0  0  0  2  0  0  0  0  0  0
  181.4290  178.0900  137.5910 C   0  0  0  0  0  1  0  0  0  0  0  0
  189.6400  178.0700  144.4160 C   0  0  1  0  0  3  0  0  0  0  0  0
  188.0180  178.3800  146.2160 C   0  0  2  0  0  3  0  0  0  0  0  0
  188.1240  178.0130  144.7250 C   0  0  2  0  0  3  0  0  0  0  0  0
  189.3580  178.0170  146.7260 C   0  0  0  0  0  0  0  0  0  0  0  0
  187.6380  176.7140  144.5170 O   0  0  0  0  0  1  0  0  0  0  0  0
  190.2990  177.7940  145.6910 N   0  0  0  0  0  0  0  0  0  0  0  0
  189.6410  177.9190  147.9500 O   0  0  0  0  0  0  0  0  0  0  0  0
  191.1970  175.5310  145.8450 C   0  0  0  0  0  1  0  0  0  0  0  0
  191.5190  177.0130  145.8840 C   0  0  0  0  0  2  0  0  0  0  0  0
  187.0200  177.6410  146.8610 O   0  0  0  0  0  0  0  0  0  0  0  0
  184.5120  177.9120  147.5430 O   0  0  0  0  0  1  0  0  0  0  0  0
  185.1620  178.8880  145.2110 O   0  0  0  0  0  0  0  0  0  0  0  0
  185.9480  180.0950  147.5710 O   0  0  0  0  0  1  0  0  0  0  0  0
  185.6320  178.6140  146.8140 P   0  0  0  0  0  0  0  0  0  0  0  0
  190.4500  175.4640  134.5940 C   0  0  0  0  0  2  0  0  0  0  0  0
  190.5010  174.1500  135.3610 C   0  0  0  0  0  2  0  0  0  0  0  0
  191.5120  173.3200  134.8080 O   0  0  0  0  0  0  0  0  0  0  0  0
  194.1060  173.2520  137.5540 N   0  0  1  0  0  0  0  0  0  0  0  0
  194.1450  175.7960  135.4360 C   0  0  0  0  0  1  0  0  0  0  0  0
  192.7590  173.1590  135.4130 C   0  0  0  0  0  0  0  0  0  0  0  0
  194.8950  172.1850  136.9120 C   0  0  0  0  0  2  0  0  0  0  0  0
  194.7780  174.5410  137.3690 C   0  0  2  0  0  3  0  0  0  0  0  0
  193.7030  172.4970  134.8140 N   0  0  0  0  0  0  0  0  0  0  0  0
  192.9840  173.7860  136.7760 C   0  0  2  0  0  3  0  0  0  0  0  0
  194.0700  175.6980  138.0790 C   0  0  0  0  0  0  0  0  0  0  0  0
  195.0250  172.3620  135.4010 C   0  0  2  0  0  3  0  0  0  0  0  0
  193.6440  175.1480  136.7170 C   0  0  2  0  0  0  0  0  0  0  0  0
  195.6680  171.2710  134.8490 F   0  0  0  0  0  0  0  0  0  0  0  0
  193.9340  176.4620  139.0220 O   0  0  0  0  0  0  0  0  0  0  0  0
  1 42  1  6  0  0  0
  1 15  1  0  0  0  0
  2 16  1  6  0  0  0
  2 14  1  0  0  0  0
  2 13  1  0  0  0  0
  3 22  1  0  0  0  0
  3  5  1  1  0  0  0
  4  7  1  1  0  0  0
  5  4  1  0  0  0  0
  7  6  1  0  0  0  0
  8  1  1  0  0  0  0
  9 16  1  1  0  0  0
  9  4  1  0  0  0  0
 10 15  1  6  0  0  0
 10  9  1  0  0  0  0
 11  8  1  6  0  0  0
 11 10  1  0  0  0  0
 11  3  1  0  0  0  0
 12  6  1  6  0  0  0
 12 28  1  0  0  0  0
 13 14  1  1  0  0  0
 13 12  1  0  0  0  0
 18 26  1  0  0  0  0
 18 25  1  0  0  0  0
 19 20  1  0  0  0  0
 19 24  1  0  0  0  0
 20 18  1  0  0  0  0
 22 24  1  6  0  0  0
 22 25  1  0  0  0  0
 23 20  2  0  0  0  0
 24 17  2  0  0  0  0
 25 21  2  0  0  0  0
 26 27  1  0  0  0  0
 28 30  1  0  0  0  0
 28 33  1  1  0  0  0
 29 31  1  0  0  0  0
 29 37  1  1  0  0  0
 30 32  1  1  0  0  0
 30 29  1  0  0  0  0
 31 34  2  0  0  0  0
 33 36  1  0  0  0  0
 33 31  1  0  0  0  0
 35 36  1  0  0  0  0
 39 41  2  0  0  0  0
 41 37  1  0  0  0  0
 41 38  1  0  0  0  0
 41 40  1  0  0  0  0
 42 43  1  0  0  0  0
 44 43  1  0  0  0  0
 44 47  1  0  0  0  0
 45 48  1  6  0  0  0
 49 45  1  0  0  0  0
 49 52  1  1  0  0  0
 50 53  1  0  0  0  0
 50 47  2  0  0  0  0
 51 47  1  6  0  0  0
 51 45  1  0  0  0  0
 52 56  2  0  0  0  0
 53 55  1  6  0  0  0
 53 48  1  0  0  0  0
 54 46  1  6  0  0  0
 54 51  1  0  0  0  0
 54 49  1  0  0  0  0
 54 52  1  0  0  0  0
M  END
>  <MODEL>
8

>  <REMARK>
 VINA RESULT:      -5.1      3.975     10.942
  Name = 
  10 active torsions:
  status: ('A' for Active; 'I' for Inactive)
    1  A    between atoms: C_1  and  C_54
    2  A    between atoms: C_4  and  C_44
    3  A    between atoms: C_5  and  C_34
    4  A    between atoms: N_11  and  C_19
    5  A    between atoms: C_13  and  O_23
    6  A    between atoms: C_17  and  N_55
    7  A    between atoms: C_18  and  O_25
    8  A    between atoms: O_23  and  C_40
    9  A    between atoms: O_25  and  P_41
   10  A    between atoms: C_40  and  C_54
                            x       y       z     vdW  Elec       q    Type
                         _______ _______ _______ _____ _____    ______ ____

>  <TORSDO>
F 10

$$$$
=
 OpenBabel10222417163D

 56 64  0  0  1  0  0  0  0  0999 V2000
  185.7920  179.0550  141.1950 C   0  0  1  0  0  3  0  0  0  0  0  0
  188.9620  176.9130  136.9100 C   0  0  2  0  0  3  0  0  0  0  0  0
  189.5890  178.1700  141.9990 C   0  0  1  0  0  3  0  0  0  0  0  0
  190.0380  177.0920  139.9920 C   0  0  2  0  0  3  0  0  0  0  0  0
  190.4240  178.1540  140.8430 O   0  0  0  0  0  0  0  0  0  0  0  0
  190.9320  175.0740  138.2680 S   0  0  0  0  0  0  0  0  0  0  0  0
  191.2140  176.6790  139.1030 C   0  0  0  0  0  2  0  0  0  0  0  0
  186.9770  179.0510  142.5990 S   0  0  0  0  0  0  0  0  0  0  0  0
  188.6630  177.3970  139.3020 C   0  0  1  0  0  3  0  0  0  0  0  0
  187.8570  178.3250  140.2070 C   0  0  2  0  0  3  0  0  0  0  0  0
  188.0960  177.9870  141.6540 C   0  0  1  0  0  3  0  0  0  0  0  0
  191.0340  175.7060  136.5240 C   0  0  1  0  0  3  0  0  0  0  0  0
  190.3960  177.0930  136.4560 C   0  0  1  0  0  3  0  0  0  0  0  0
  189.2550  177.3120  135.4840 C   0  0  0  0  0  2  0  0  0  0  0  0
  186.3650  178.2670  140.0220 C   0  0  0  0  0  2  0  0  0  0  0  0
  188.7470  178.0250  137.9070 C   0  0  0  0  0  2  0  0  0  0  0  0
  189.4070  174.9110  142.7450 O   0  0  0  0  0  0  0  0  0  0  0  0
  189.1020  177.8610  145.3180 N   0  0  0  0  0  0  0  0  0  0  0  0
  187.7840  176.2220  143.8350 C   0  0  0  0  0  2  0  0  0  0  0  0
  187.9030  177.0970  145.0500 C   0  0  0  0  0  0  0  0  0  0  0  0
  191.4010  178.3340  144.7150 C   0  0  0  0  0  2  0  0  0  0  0  0
  190.0700  177.1530  143.0540 C   0  0  2  0  0  3  0  0  0  0  0  0
  186.8340  177.2090  145.8290 C   0  0  0  0  0  2  0  0  0  0  0  0
  189.1130  176.0090  143.1870 C   0  0  0  0  0  0  0  0  0  0  0  0
  190.2220  177.7990  144.4010 C   0  0  0  0  0  0  0  0  0  0  0  0
  189.2170  178.6270  146.5610 C   0  0  0  0  0  2  0  0  0  0  0  0
  189.5370  177.6960  147.7190 C   0  0  0  0  0  1  0  0  0  0  0  0
  192.5020  175.7900  136.0520 C   0  0  1  0  0  3  0  0  0  0  0  0
  194.8570  175.3510  136.5300 C   0  0  2  0  0  3  0  0  0  0  0  0
  193.5740  175.9210  137.1610 C   0  0  2  0  0  3  0  0  0  0  0  0
  194.3210  174.4530  135.4840 C   0  0  0  0  0  0  0  0  0  0  0  0
  193.2090  175.1560  138.2770 O   0  0  0  0  0  1  0  0  0  0  0  0
  192.9450  174.6690  135.2250 N   0  0  0  0  0  0  0  0  0  0  0  0
  195.0110  173.5890  134.8790 O   0  0  0  0  0  0  0  0  0  0  0  0
  192.1080  172.3860  135.4150 C   0  0  0  0  0  1  0  0  0  0  0  0
  192.0890  173.6640  134.5980 C   0  0  0  0  0  2  0  0  0  0  0  0
  195.6170  174.6350  137.4620 O   0  0  0  0  0  0  0  0  0  0  0  0
  197.9200  173.8690  136.4930 O   0  0  0  0  0  1  0  0  0  0  0  0
  198.0340  175.4300  138.5810 O   0  0  0  0  0  1  0  0  0  0  0  0
  197.2850  176.3720  136.0920 O   0  0  0  0  0  0  0  0  0  0  0  0
  197.2310  175.0450  137.1420 P   0  0  0  0  0  0  0  0  0  0  0  0
  184.4120  178.5500  141.6050 C   0  0  0  0  0  2  0  0  0  0  0  0
  183.4510  178.4750  140.4260 C   0  0  0  0  0  2  0  0  0  0  0  0
  183.0940  177.1200  140.1930 O   0  0  0  0  0  0  0  0  0  0  0  0
  180.4490  177.1400  137.4960 N   0  0  1  0  0  0  0  0  0  0  0  0
  179.7270  178.5620  140.3970 C   0  0  0  0  0  1  0  0  0  0  0  0
  181.9290  176.7610  139.5130 C   0  0  0  0  0  0  0  0  0  0  0  0
  180.1340  175.7100  137.6620 C   0  0  0  0  0  2  0  0  0  0  0  0
  179.3950  177.9530  138.1100 C   0  0  2  0  0  3  0  0  0  0  0  0
  181.3260  175.6420  139.7810 N   0  0  0  0  0  0  0  0  0  0  0  0
  181.3840  177.7150  138.4680 C   0  0  2  0  0  3  0  0  0  0  0  0
  179.5980  179.4570  137.9110 C   0  0  0  0  0  0  0  0  0  0  0  0
  180.0850  175.2730  139.1240 C   0  0  2  0  0  3  0  0  0  0  0  0
  180.3050  178.6400  138.9930 C   0  0  2  0  0  0  0  0  0  0  0  0
  179.9060  173.9050  139.2040 F   0  0  0  0  0  0  0  0  0  0  0  0
  179.3790  180.5040  137.3230 O   0  0  0  0  0  0  0  0  0  0  0  0
  1 42  1  1  0  0  0
  1  8  1  0  0  0  0
  2 14  1  6  0  0  0
  2 16  1  0  0  0  0
  3  5  1  6  0  0  0
  3 22  1  0  0  0  0
  4  7  1  6  0  0  0
  4  5  1  0  0  0  0
  6  7  1  0  0  0  0
  9 16  1  6  0  0  0
  9  4  1  0  0  0  0
  9 10  1  0  0  0  0
 10 15  1  6  0  0  0
 10 11  1  0  0  0  0
 11  3  1  0  0  0  0
 11  8  1  1  0  0  0
 12  6  1  1  0  0  0
 13 14  1  6  0  0  0
 13 12  1  0  0  0  0
 13  2  1  0  0  0  0
 15  1  1  0  0  0  0
 17 24  2  0  0  0  0
 18 26  1  0  0  0  0
 19 20  1  0  0  0  0
 20 18  1  0  0  0  0
 20 23  2  0  0  0  0
 22 24  1  1  0  0  0
 22 25  1  0  0  0  0
 24 19  1  0  0  0  0
 25 21  2  0  0  0  0
 25 18  1  0  0  0  0
 26 27  1  0  0  0  0
 28 33  1  1  0  0  0
 28 12  1  0  0  0  0
 28 30  1  0  0  0  0
 29 30  1  0  0  0  0
 29 37  1  1  0  0  0
 30 32  1  1  0  0  0
 31 29  1  0  0  0  0
 33 31  1  0  0  0  0
 34 31  2  0  0  0  0
 36 33  1  0  0  0  0
 36 35  1  0  0  0  0
 38 41  1  0  0  0  0
 40 41  2  0  0  0  0
 41 37  1  0  0  0  0
 41 39  1  0  0  0  0
 43 42  1  0  0  0  0
 44 43  1  0  0  0  0
 45 48  1  1  0  0  0
 45 49  1  0  0  0  0
 45 51  1  0  0  0  0
 47 50  2  0  0  0  0
 47 44  1  0  0  0  0
 48 53  1  0  0  0  0
 49 52  1  6  0  0  0
 49 54  1  0  0  0  0
 51 54  1  0  0  0  0
 51 47  1  1  0  0  0
 52 54  1  0  0  0  0
 53 55  1  6  0  0  0
 53 50  1  0  0  0  0
 54 46  1  1  0  0  0
 56 52  2  0  0  0  0
M  END
>  <MODEL>
9

>  <REMARK>
 VINA RESULT:      -5.0      2.233      3.049
  Name = 
  10 active torsions:
  status: ('A' for Active; 'I' for Inactive)
    1  A    between atoms: C_1  and  C_54
    2  A    between atoms: C_4  and  C_44
    3  A    between atoms: C_5  and  C_34
    4  A    between atoms: N_11  and  C_19
    5  A    between atoms: C_13  and  O_23
    6  A    between atoms: C_17  and  N_55
    7  A    between atoms: C_18  and  O_25
    8  A    between atoms: O_23  and  C_40
    9  A    between atoms: O_25  and  P_41
   10  A    between atoms: C_40  and  C_54
                            x       y       z     vdW  Elec       q    Type
                         _______ _______ _______ _____ _____    ______ ____

>  <TORSDO>
F 10

$$$$
