=
 OpenBabel10222415493D

 31 31  0  0  1  0  0  0  0  0999 V2000
  188.7950  177.4480  145.3030 C   0  0  0  0  0  0  0  0  0  0  0  0
  189.6690  176.9760  144.3850 C   0  0  0  0  0  0  0  0  0  0  0  0
  189.2490  178.1500  146.4160 O   0  0  0  0  0  1  0  0  0  0  0  0
  191.1730  177.2090  144.5720 C   0  0  2  0  0  0  0  0  0  0  0  0
  191.8650  176.5540  143.5500 O   0  0  0  0  0  1  0  0  0  0  0  0
  191.7120  176.6730  145.8910 C   0  0  0  0  0  1  0  0  0  0  0  0
  190.9210  179.2870  143.3650 O   0  0  0  0  0  1  0  0  0  0  0  0
  191.5000  178.7010  144.4950 C   0  0  0  0  0  2  0  0  0  0  0  0
  187.8110  175.4750  143.4960 C   0  0  0  0  0  1  0  0  0  0  0  0
  189.1120  176.2090  143.2010 C   0  0  1  0  0  3  0  0  0  0  0  0
  190.0750  176.7400  140.9140 C   0  0  0  0  0  3  0  0  0  0  0  0
  188.9980  179.1580  138.2890 N   0  0  0  0  0  1  0  0  0  0  0  0
  190.9950  177.2050  138.7370 O   0  0  0  0  0  1  0  0  0  0  0  0
  189.1210  176.9830  141.9150 C   0  0  0  0  0  0  0  0  0  0  0  0
  190.0400  177.4570  139.7150 C   0  0  0  0  0  0  0  0  0  0  0  0
  188.1270  177.9430  141.6970 C   0  0  0  0  0  3  0  0  0  0  0  0
  188.0900  178.6620  140.4980 C   0  0  0  0  0  3  0  0  0  0  0  0
  189.0450  178.4210  139.5070 C   0  0  0  0  0  0  0  0  0  0  0  0
  187.3140  177.2560  145.1630 C   0  0  0  0  0  2  0  0  0  0  0  0
  186.6020  178.5920  145.0090 C   0  0  0  0  0  2  0  0  0  0  0  0
  185.2010  178.4240  144.4330 C   0  0  1  0  0  3  0  0  0  0  0  0
  184.1860  178.8100  145.4530 C   0  0  0  0  0  0  0  0  0  0  0  0
  182.9520  179.3210  145.0660 O   0  0  0  0  0  0  0  0  0  0  0  0
  184.4470  178.6700  146.6760 O   0  0  0  0  0  1  0  0  0  0  0  0
  185.0200  179.2710  143.1800 C   0  0  0  0  0  2  0  0  0  0  0  0
  184.6800  178.4540  142.0660 O   0  0  0  0  0  0  0  0  0  0  0  0
  183.5370  178.6720  141.2890 C   0  0  0  0  0  0  0  0  0  0  0  0
  182.4020  178.5560  141.8240 O   0  0  0  0  0  0  0  0  0  0  0  0
  184.7680  179.8220  139.6220 O   0  0  0  0  0  1  0  0  0  0  0  0
  183.6390  179.0320  139.8390 C   0  0  1  0  0  3  0  0  0  0  0  0
  183.7230  177.8280  139.0310 N   0  0  0  0  0  1  0  0  0  0  0  0
  1  3  1  0  0  0  0
  2  4  1  0  0  0  0
  2  1  2  0  0  0  0
  4  6  1  1  0  0  0
  5  4  1  0  0  0  0
  7  8  1  0  0  0  0
  8  4  1  0  0  0  0
 10  9  1  1  0  0  0
 10  2  1  0  0  0  0
 11 14  1  0  0  0  0
 12 18  1  0  0  0  0
 13 15  1  0  0  0  0
 14 10  1  0  0  0  0
 15 11  2  0  0  0  0
 16 14  2  0  0  0  0
 17 16  1  0  0  0  0
 18 15  1  0  0  0  0
 18 17  2  0  0  0  0
 19  1  1  0  0  0  0
 20 19  1  0  0  0  0
 21 25  1  6  0  0  0
 21 20  1  0  0  0  0
 21 22  1  0  0  0  0
 22 24  1  0  0  0  0
 23 22  2  0  0  0  0
 26 25  1  0  0  0  0
 27 28  2  0  0  0  0
 27 26  1  0  0  0  0
 29 30  1  0  0  0  0
 30 31  1  6  0  0  0
 30 27  1  0  0  0  0
M  END
>  <MODEL>
1

>  <REMARK>
 VINA RESULT:      -7.0      0.000      0.000
  Name = 
  12 active torsions:
  status: ('A' for Active; 'I' for Inactive)
    1  A    between atoms: O_1  and  C_2
    2  A    between atoms: O_1  and  C_26
    3  A    between atoms: C_2  and  C_19
    4  A    between atoms: C_3  and  C_23
    5  A    between atoms: C_5  and  C_9
    6  A    between atoms: C_5  and  C_18
    7  A    between atoms: C_6  and  C_31
    8  A    between atoms: C_9  and  C_16
    9  A    between atoms: C_13  and  C_18
   10  A    between atoms: C_20  and  C_23
   11  A    between atoms: C_20  and  C_31
   12  A    between atoms: C_26  and  C_31
                            x       y       z     vdW  Elec       q    Type
                         _______ _______ _______ _____ _____    ______ ____

>  <TORSDO>
F 12

$$$$
=
 OpenBabel10222415493D

 31 31  0  0  1  0  0  0  0  0999 V2000
  188.6200  177.5770  145.3890 C   0  0  0  0  0  0  0  0  0  0  0  0
  189.8890  177.7450  144.9510 C   0  0  0  0  0  0  0  0  0  0  0  0
  188.3360  176.6670  146.4030 O   0  0  0  0  0  1  0  0  0  0  0  0
  191.0250  176.9230  145.5710 C   0  0  2  0  0  0  0  0  0  0  0  0
  192.2170  177.6430  145.4650 O   0  0  0  0  0  1  0  0  0  0  0  0
  191.2490  175.5830  144.8860 C   0  0  0  0  0  1  0  0  0  0  0  0
  191.8720  176.9660  147.8340 O   0  0  0  0  0  1  0  0  0  0  0  0
  190.7530  176.6610  147.0540 C   0  0  0  0  0  2  0  0  0  0  0  0
  191.1890  179.7900  144.1610 C   0  0  0  0  0  1  0  0  0  0  0  0
  190.1300  178.7440  143.8360 C   0  0  1  0  0  3  0  0  0  0  0  0
  189.1480  177.9760  141.6260 C   0  0  0  0  0  3  0  0  0  0  0  0
  190.7410  176.4360  138.6270 N   0  0  0  0  0  1  0  0  0  0  0  0
  188.1940  177.2780  139.5270 O   0  0  0  0  0  1  0  0  0  0  0  0
  190.2560  178.1210  142.4760 C   0  0  0  0  0  0  0  0  0  0  0  0
  189.3020  177.4180  140.3540 C   0  0  0  0  0  0  0  0  0  0  0  0
  191.5190  177.7120  142.0350 C   0  0  0  0  0  3  0  0  0  0  0  0
  191.6750  177.1530  140.7630 C   0  0  0  0  0  3  0  0  0  0  0  0
  190.5700  177.0050  139.9210 C   0  0  0  0  0  0  0  0  0  0  0  0
  187.4740  178.3620  144.8230 C   0  0  0  0  0  2  0  0  0  0  0  0
  186.1650  177.5970  144.9620 C   0  0  0  0  0  2  0  0  0  0  0  0
  185.0890  178.1420  144.0310 C   0  0  1  0  0  3  0  0  0  0  0  0
  184.0890  178.9200  144.8150 C   0  0  0  0  0  0  0  0  0  0  0  0
  183.1030  179.6590  144.1700 O   0  0  0  0  0  0  0  0  0  0  0  0
  184.1380  178.9070  146.0720 O   0  0  0  0  0  1  0  0  0  0  0  0
  185.6980  179.0260  142.9500 C   0  0  0  0  0  2  0  0  0  0  0  0
  185.6200  178.3920  141.6790 O   0  0  0  0  0  0  0  0  0  0  0  0
  184.6430  178.7140  140.7310 C   0  0  0  0  0  0  0  0  0  0  0  0
  184.8340  179.6960  139.9660 O   0  0  0  0  0  0  0  0  0  0  0  0
  182.3100  178.6460  141.1430 O   0  0  0  0  0  1  0  0  0  0  0  0
  183.3780  177.9200  140.6170 C   0  0  1  0  0  3  0  0  0  0  0  0
  183.1130  177.6030  139.2240 N   0  0  0  0  0  1  0  0  0  0  0  0
  1  3  1  0  0  0  0
  2  1  2  0  0  0  0
  2  4  1  0  0  0  0
  4  6  1  6  0  0  0
  4  8  1  0  0  0  0
  5  4  1  0  0  0  0
  8  7  1  0  0  0  0
 10  9  1  1  0  0  0
 10  2  1  0  0  0  0
 11 14  1  0  0  0  0
 12 18  1  0  0  0  0
 13 15  1  0  0  0  0
 14 10  1  0  0  0  0
 15 11  2  0  0  0  0
 16 14  2  0  0  0  0
 17 16  1  0  0  0  0
 18 15  1  0  0  0  0
 18 17  2  0  0  0  0
 19 20  1  0  0  0  0
 19  1  1  0  0  0  0
 21 25  1  6  0  0  0
 21 22  1  0  0  0  0
 21 20  1  0  0  0  0
 22 24  1  0  0  0  0
 23 22  2  0  0  0  0
 26 25  1  0  0  0  0
 27 26  1  0  0  0  0
 28 27  2  0  0  0  0
 30 31  1  6  0  0  0
 30 27  1  0  0  0  0
 30 29  1  0  0  0  0
M  END
>  <MODEL>
2

>  <REMARK>
 VINA RESULT:      -7.0      1.532      2.384
  Name = 
  12 active torsions:
  status: ('A' for Active; 'I' for Inactive)
    1  A    between atoms: O_1  and  C_2
    2  A    between atoms: O_1  and  C_26
    3  A    between atoms: C_2  and  C_19
    4  A    between atoms: C_3  and  C_23
    5  A    between atoms: C_5  and  C_9
    6  A    between atoms: C_5  and  C_18
    7  A    between atoms: C_6  and  C_31
    8  A    between atoms: C_9  and  C_16
    9  A    between atoms: C_13  and  C_18
   10  A    between atoms: C_20  and  C_23
   11  A    between atoms: C_20  and  C_31
   12  A    between atoms: C_26  and  C_31
                            x       y       z     vdW  Elec       q    Type
                         _______ _______ _______ _____ _____    ______ ____

>  <TORSDO>
F 12

$$$$
=
 OpenBabel10222415493D

 31 31  0  0  1  0  0  0  0  0999 V2000
  184.5200  178.8370  141.2950 C   0  0  0  0  0  0  0  0  0  0  0  0
  183.5500  178.7090  140.3610 C   0  0  0  0  0  0  0  0  0  0  0  0
  185.7260  179.4580  140.9830 O   0  0  0  0  0  1  0  0  0  0  0  0
  183.7810  179.2460  138.9420 C   0  0  2  0  0  0  0  0  0  0  0  0
  184.3860  180.5010  139.0240 O   0  0  0  0  0  1  0  0  0  0  0  0
  182.4980  179.4190  138.1420 C   0  0  0  0  0  1  0  0  0  0  0  0
  185.9350  178.9300  137.8950 O   0  0  0  0  0  1  0  0  0  0  0  0
  184.7080  178.3150  138.1600 C   0  0  0  0  0  2  0  0  0  0  0  0
  181.1430  178.9660  141.1590 C   0  0  0  0  0  1  0  0  0  0  0  0
  182.2630  178.0140  140.7610 C   0  0  1  0  0  3  0  0  0  0  0  0
  182.7930  176.0480  139.2470 C   0  0  0  0  0  3  0  0  0  0  0  0
  180.5750  173.7750  137.2930 N   0  0  0  0  0  1  0  0  0  0  0  0
  183.3230  174.1690  137.8350 O   0  0  0  0  0  1  0  0  0  0  0  0
  181.8520  176.9100  139.8300 C   0  0  0  0  0  0  0  0  0  0  0  0
  182.3770  175.0110  138.4060 C   0  0  0  0  0  0  0  0  0  0  0  0
  180.4900  176.7170  139.5710 C   0  0  0  0  0  3  0  0  0  0  0  0
  180.0720  175.6810  138.7310 C   0  0  0  0  0  3  0  0  0  0  0  0
  181.0130  174.8280  138.1470 C   0  0  0  0  0  0  0  0  0  0  0  0
  184.3410  178.3390  142.6980 C   0  0  0  0  0  2  0  0  0  0  0  0
  184.6510  179.4330  143.7100 C   0  0  0  0  0  2  0  0  0  0  0  0
  185.6810  178.9790  144.7380 C   0  0  1  0  0  3  0  0  0  0  0  0
  185.0770  178.9950  146.1000 C   0  0  0  0  0  0  0  0  0  0  0  0
  185.8220  179.4070  147.1990 O   0  0  0  0  0  1  0  0  0  0  0  0
  183.8820  178.6340  146.2550 O   0  0  0  0  0  0  0  0  0  0  0  0
  186.1930  177.5810  144.4170 C   0  0  0  0  0  2  0  0  0  0  0  0
  187.4090  177.3210  145.1080 O   0  0  0  0  0  0  0  0  0  0  0  0
  188.5730  176.8990  144.4580 C   0  0  0  0  0  0  0  0  0  0  0  0
  188.4730  176.1730  143.4330 O   0  0  0  0  0  0  0  0  0  0  0  0
  190.1960  178.6180  144.6300 O   0  0  0  0  0  1  0  0  0  0  0  0
  189.9300  177.2890  144.9600 C   0  0  1  0  0  3  0  0  0  0  0  0
  189.9950  177.1210  146.4010 N   0  0  0  0  0  1  0  0  0  0  0  0
  1 19  1  0  0  0  0
  2 10  1  0  0  0  0
  2  1  2  0  0  0  0
  3  1  1  0  0  0  0
  4  6  1  6  0  0  0
  4  5  1  0  0  0  0
  4  2  1  0  0  0  0
  7  8  1  0  0  0  0
  8  4  1  0  0  0  0
 10  9  1  6  0  0  0
 11 14  1  0  0  0  0
 12 18  1  0  0  0  0
 13 15  1  0  0  0  0
 14 10  1  0  0  0  0
 15 11  2  0  0  0  0
 16 14  2  0  0  0  0
 17 16  1  0  0  0  0
 18 15  1  0  0  0  0
 18 17  2  0  0  0  0
 19 20  1  0  0  0  0
 21 20  1  6  0  0  0
 21 22  1  0  0  0  0
 22 24  2  0  0  0  0
 22 23  1  0  0  0  0
 25 21  1  0  0  0  0
 25 26  1  0  0  0  0
 27 30  1  0  0  0  0
 27 26  1  0  0  0  0
 28 27  2  0  0  0  0
 30 29  1  1  0  0  0
 30 31  1  0  0  0  0
M  END
>  <MODEL>
3

>  <REMARK>
 VINA RESULT:      -6.6      3.112      7.328
  Name = 
  12 active torsions:
  status: ('A' for Active; 'I' for Inactive)
    1  A    between atoms: O_1  and  C_2
    2  A    between atoms: O_1  and  C_26
    3  A    between atoms: C_2  and  C_19
    4  A    between atoms: C_3  and  C_23
    5  A    between atoms: C_5  and  C_9
    6  A    between atoms: C_5  and  C_18
    7  A    between atoms: C_6  and  C_31
    8  A    between atoms: C_9  and  C_16
    9  A    between atoms: C_13  and  C_18
   10  A    between atoms: C_20  and  C_23
   11  A    between atoms: C_20  and  C_31
   12  A    between atoms: C_26  and  C_31
                            x       y       z     vdW  Elec       q    Type
                         _______ _______ _______ _____ _____    ______ ____

>  <TORSDO>
F 12

$$$$
=
 OpenBabel10222415493D

 31 31  0  0  1  0  0  0  0  0999 V2000
  187.9740  178.3710  141.8610 C   0  0  0  0  0  0  0  0  0  0  0  0
  186.8800  178.0200  142.5740 C   0  0  0  0  0  0  0  0  0  0  0  0
  187.9010  179.3760  140.9000 O   0  0  0  0  0  1  0  0  0  0  0  0
  185.5430  178.7290  142.3190 C   0  0  2  0  0  0  0  0  0  0  0  0
  185.7050  180.0970  142.5430 O   0  0  0  0  0  1  0  0  0  0  0  0
  184.4210  178.2550  143.2310 C   0  0  0  0  0  1  0  0  0  0  0  0
  184.9170  179.7550  140.2220 O   0  0  0  0  0  1  0  0  0  0  0  0
  185.0960  178.5280  140.8700 C   0  0  0  0  0  2  0  0  0  0  0  0
  187.9230  175.7670  143.1490 C   0  0  0  0  0  1  0  0  0  0  0  0
  187.0220  176.9110  143.5980 C   0  0  1  0  0  3  0  0  0  0  0  0
  186.3500  178.2180  145.6660 C   0  0  0  0  0  3  0  0  0  0  0  0
  188.0340  178.6430  148.9660 N   0  0  0  0  0  1  0  0  0  0  0  0
  185.6760  179.4470  147.6250 O   0  0  0  0  0  1  0  0  0  0  0  0
  187.2730  177.4000  144.9950 C   0  0  0  0  0  0  0  0  0  0  0  0
  186.5980  178.6330  146.9780 C   0  0  0  0  0  0  0  0  0  0  0  0
  188.4380  176.9930  145.6550 C   0  0  0  0  0  3  0  0  0  0  0  0
  188.6870  177.4080  146.9660 C   0  0  0  0  0  3  0  0  0  0  0  0
  187.7700  178.2280  147.6290 C   0  0  0  0  0  0  0  0  0  0  0  0
  189.3060  177.7160  142.0770 C   0  0  0  0  0  2  0  0  0  0  0  0
  190.2170  178.5970  142.9220 C   0  0  0  0  0  2  0  0  0  0  0  0
  191.6000  177.9790  143.0960 C   0  0  1  0  0  3  0  0  0  0  0  0
  191.6840  177.2940  144.4160 C   0  0  0  0  0  0  0  0  0  0  0  0
  191.6730  175.9050  144.4950 O   0  0  0  0  0  0  0  0  0  0  0  0
  191.7670  177.9780  145.4690 O   0  0  0  0  0  1  0  0  0  0  0  0
  191.8990  176.9860  141.9790 C   0  0  0  0  0  2  0  0  0  0  0  0
  192.2600  177.6680  140.7840 O   0  0  0  0  0  0  0  0  0  0  0  0
  193.1390  177.1270  139.8410 C   0  0  0  0  0  0  0  0  0  0  0  0
  194.3200  176.8590  140.1880 O   0  0  0  0  0  0  0  0  0  0  0  0
  193.8200  176.6550  137.6200 O   0  0  0  0  0  1  0  0  0  0  0  0
  192.7050  176.8680  138.4310 C   0  0  1  0  0  3  0  0  0  0  0  0
  191.8370  175.7040  138.3830 N   0  0  0  0  0  1  0  0  0  0  0  0
  1 19  1  0  0  0  0
  1  2  2  0  0  0  0
  2 10  1  0  0  0  0
  3  1  1  0  0  0  0
  4  5  1  0  0  0  0
  4  2  1  0  0  0  0
  4  6  1  1  0  0  0
  7  8  1  0  0  0  0
  8  4  1  0  0  0  0
 10  9  1  6  0  0  0
 10 14  1  0  0  0  0
 11 15  1  0  0  0  0
 14 16  1  0  0  0  0
 14 11  2  0  0  0  0
 15 13  1  0  0  0  0
 15 18  2  0  0  0  0
 16 17  2  0  0  0  0
 17 18  1  0  0  0  0
 18 12  1  0  0  0  0
 19 20  1  0  0  0  0
 20 21  1  0  0  0  0
 21 25  1  6  0  0  0
 21 22  1  0  0  0  0
 22 23  2  0  0  0  0
 22 24  1  0  0  0  0
 26 25  1  0  0  0  0
 27 28  2  0  0  0  0
 27 26  1  0  0  0  0
 30 29  1  6  0  0  0
 30 27  1  0  0  0  0
 31 30  1  0  0  0  0
M  END
>  <MODEL>
4

>  <REMARK>
 VINA RESULT:      -6.5      2.820      7.367
  Name = 
  12 active torsions:
  status: ('A' for Active; 'I' for Inactive)
    1  A    between atoms: O_1  and  C_2
    2  A    between atoms: O_1  and  C_26
    3  A    between atoms: C_2  and  C_19
    4  A    between atoms: C_3  and  C_23
    5  A    between atoms: C_5  and  C_9
    6  A    between atoms: C_5  and  C_18
    7  A    between atoms: C_6  and  C_31
    8  A    between atoms: C_9  and  C_16
    9  A    between atoms: C_13  and  C_18
   10  A    between atoms: C_20  and  C_23
   11  A    between atoms: C_20  and  C_31
   12  A    between atoms: C_26  and  C_31
                            x       y       z     vdW  Elec       q    Type
                         _______ _______ _______ _____ _____    ______ ____

>  <TORSDO>
F 12

$$$$
=
 OpenBabel10222415493D

 31 31  0  0  1  0  0  0  0  0999 V2000
  190.7510  177.3620  141.6530 C   0  0  0  0  0  0  0  0  0  0  0  0
  190.0270  177.2960  142.7930 C   0  0  0  0  0  0  0  0  0  0  0  0
  191.9600  178.0500  141.6200 O   0  0  0  0  0  1  0  0  0  0  0  0
  190.5380  177.9900  144.0620 C   0  0  2  0  0  0  0  0  0  0  0  0
  189.5310  177.9660  145.0300 O   0  0  0  0  0  1  0  0  0  0  0  0
  190.9160  179.4480  143.8470 C   0  0  0  0  0  1  0  0  0  0  0  0
  191.7230  177.2090  146.0180 O   0  0  0  0  0  1  0  0  0  0  0  0
  191.7590  177.2590  144.6210 C   0  0  0  0  0  2  0  0  0  0  0  0
  188.7210  175.2500  143.5690 C   0  0  0  0  0  1  0  0  0  0  0  0
  188.7130  176.5400  142.7600 C   0  0  1  0  0  3  0  0  0  0  0  0
  186.9920  178.2160  141.9420 C   0  0  0  0  0  3  0  0  0  0  0  0
  184.0420  179.7420  143.6360 N   0  0  0  0  0  1  0  0  0  0  0  0
  185.3570  179.7880  141.1320 O   0  0  0  0  0  1  0  0  0  0  0  0
  187.5060  177.4080  142.9690 C   0  0  0  0  0  0  0  0  0  0  0  0
  185.8490  178.9910  142.1580 C   0  0  0  0  0  0  0  0  0  0  0  0
  186.8560  177.3750  144.2080 C   0  0  0  0  0  3  0  0  0  0  0  0
  185.7130  178.1500  144.4250 C   0  0  0  0  0  3  0  0  0  0  0  0
  185.2080  178.9580  143.4030 C   0  0  0  0  0  0  0  0  0  0  0  0
  190.3020  176.6930  140.3880 C   0  0  0  0  0  2  0  0  0  0  0  0
  190.4500  177.6260  139.1930 C   0  0  0  0  0  2  0  0  0  0  0  0
  190.7850  176.8620  137.9170 C   0  0  1  0  0  3  0  0  0  0  0  0
  192.0330  176.0720  138.1130 C   0  0  0  0  0  0  0  0  0  0  0  0
  193.2390  176.7100  138.3810 O   0  0  0  0  0  1  0  0  0  0  0  0
  191.9940  174.8170  138.0370 O   0  0  0  0  0  0  0  0  0  0  0  0
  189.6440  175.9340  137.5200 C   0  0  0  0  0  2  0  0  0  0  0  0
  188.7470  176.5910  136.6330 O   0  0  0  0  0  0  0  0  0  0  0  0
  187.4280  176.8990  136.9820 C   0  0  0  0  0  0  0  0  0  0  0  0
  186.6060  175.9600  137.1560 O   0  0  0  0  0  0  0  0  0  0  0  0
  186.4220  178.4990  138.4120 O   0  0  0  0  0  1  0  0  0  0  0  0
  186.9780  178.3180  137.1450 C   0  0  1  0  0  3  0  0  0  0  0  0
  188.1020  179.2210  136.9720 N   0  0  0  0  0  1  0  0  0  0  0  0
  1  2  2  0  0  0  0
  2  4  1  0  0  0  0
  3  1  1  0  0  0  0
  4  6  1  6  0  0  0
  4  8  1  0  0  0  0
  4  5  1  0  0  0  0
  8  7  1  0  0  0  0
 10  2  1  0  0  0  0
 10 14  1  0  0  0  0
 10  9  1  1  0  0  0
 11 15  2  0  0  0  0
 11 14  1  0  0  0  0
 13 15  1  0  0  0  0
 14 16  2  0  0  0  0
 15 18  1  0  0  0  0
 16 17  1  0  0  0  0
 18 12  1  0  0  0  0
 18 17  2  0  0  0  0
 19  1  1  0  0  0  0
 20 19  1  0  0  0  0
 21 25  1  1  0  0  0
 21 22  1  0  0  0  0
 21 20  1  0  0  0  0
 22 23  1  0  0  0  0
 24 22  2  0  0  0  0
 26 27  1  0  0  0  0
 26 25  1  0  0  0  0
 27 30  1  0  0  0  0
 27 28  2  0  0  0  0
 30 31  1  1  0  0  0
 30 29  1  0  0  0  0
M  END
>  <MODEL>
5

>  <REMARK>
 VINA RESULT:      -6.5      2.258      6.013
  Name = 
  12 active torsions:
  status: ('A' for Active; 'I' for Inactive)
    1  A    between atoms: O_1  and  C_2
    2  A    between atoms: O_1  and  C_26
    3  A    between atoms: C_2  and  C_19
    4  A    between atoms: C_3  and  C_23
    5  A    between atoms: C_5  and  C_9
    6  A    between atoms: C_5  and  C_18
    7  A    between atoms: C_6  and  C_31
    8  A    between atoms: C_9  and  C_16
    9  A    between atoms: C_13  and  C_18
   10  A    between atoms: C_20  and  C_23
   11  A    between atoms: C_20  and  C_31
   12  A    between atoms: C_26  and  C_31
                            x       y       z     vdW  Elec       q    Type
                         _______ _______ _______ _____ _____    ______ ____

>  <TORSDO>
F 12

$$$$
=
 OpenBabel10222415493D

 31 31  0  0  1  0  0  0  0  0999 V2000
  190.7990  177.4400  141.7220 C   0  0  0  0  0  0  0  0  0  0  0  0
  190.0430  177.3450  142.8390 C   0  0  0  0  0  0  0  0  0  0  0  0
  191.9970  178.1490  141.7350 O   0  0  0  0  0  1  0  0  0  0  0  0
  190.5040  178.0290  144.1330 C   0  0  2  0  0  0  0  0  0  0  0  0
  189.4340  178.0740  145.0290 O   0  0  0  0  0  1  0  0  0  0  0  0
  190.9760  179.4610  143.9280 C   0  0  0  0  0  1  0  0  0  0  0  0
  191.3280  176.8920  146.0990 O   0  0  0  0  0  1  0  0  0  0  0  0
  191.6420  177.2400  144.7820 C   0  0  0  0  0  2  0  0  0  0  0  0
  188.7390  175.2810  143.5680 C   0  0  0  0  0  1  0  0  0  0  0  0
  188.7430  176.5690  142.7560 C   0  0  1  0  0  3  0  0  0  0  0  0
  187.0260  178.2090  141.8610 C   0  0  0  0  0  3  0  0  0  0  0  0
  183.9910  179.6980  143.4330 N   0  0  0  0  0  1  0  0  0  0  0  0
  185.3960  179.7470  140.9780 O   0  0  0  0  0  1  0  0  0  0  0  0
  187.5150  177.4170  142.9130 C   0  0  0  0  0  0  0  0  0  0  0  0
  185.8630  178.9660  142.0280 C   0  0  0  0  0  0  0  0  0  0  0  0
  186.8210  177.3840  144.1270 C   0  0  0  0  0  3  0  0  0  0  0  0
  185.6580  178.1410  144.2960 C   0  0  0  0  0  3  0  0  0  0  0  0
  185.1780  178.9320  143.2500 C   0  0  0  0  0  0  0  0  0  0  0  0
  190.3990  176.7830  140.4340 C   0  0  0  0  0  2  0  0  0  0  0  0
  189.8970  177.8100  139.4290 C   0  0  0  0  0  2  0  0  0  0  0  0
  188.7260  177.2770  138.6110 C   0  0  1  0  0  3  0  0  0  0  0  0
  187.9960  178.4100  137.9770 C   0  0  0  0  0  0  0  0  0  0  0  0
  186.6110  178.5000  138.0710 O   0  0  0  0  0  1  0  0  0  0  0  0
  188.6380  179.2930  137.3520 O   0  0  0  0  0  0  0  0  0  0  0  0
  189.2040  176.3060  137.5390 C   0  0  0  0  0  2  0  0  0  0  0  0
  190.5360  176.6110  137.1430 O   0  0  0  0  0  0  0  0  0  0  0  0
  191.6010  175.7230  137.3230 C   0  0  0  0  0  0  0  0  0  0  0  0
  191.3710  174.5840  137.8110 O   0  0  0  0  0  0  0  0  0  0  0  0
  193.7060  176.4930  138.0950 O   0  0  0  0  0  1  0  0  0  0  0  0
  193.0020  176.1030  136.9550 C   0  0  1  0  0  3  0  0  0  0  0  0
  193.6750  174.9780  136.3280 N   0  0  0  0  0  1  0  0  0  0  0  0
  1  3  1  0  0  0  0
  1  2  2  0  0  0  0
  2  4  1  0  0  0  0
  4  6  1  6  0  0  0
  4  8  1  0  0  0  0
  4  5  1  0  0  0  0
  8  7  1  0  0  0  0
 10  2  1  0  0  0  0
 10 14  1  0  0  0  0
 10  9  1  1  0  0  0
 11 15  2  0  0  0  0
 11 14  1  0  0  0  0
 13 15  1  0  0  0  0
 14 16  2  0  0  0  0
 15 18  1  0  0  0  0
 16 17  1  0  0  0  0
 18 12  1  0  0  0  0
 18 17  2  0  0  0  0
 19  1  1  0  0  0  0
 20 19  1  0  0  0  0
 21 25  1  6  0  0  0
 21 20  1  0  0  0  0
 22 23  1  0  0  0  0
 22 21  1  0  0  0  0
 24 22  2  0  0  0  0
 26 27  1  0  0  0  0
 26 25  1  0  0  0  0
 27 28  2  0  0  0  0
 30 31  1  1  0  0  0
 30 27  1  0  0  0  0
 30 29  1  0  0  0  0
M  END
>  <MODEL>
6

>  <REMARK>
 VINA RESULT:      -6.5      2.481      6.422
  Name = 
  12 active torsions:
  status: ('A' for Active; 'I' for Inactive)
    1  A    between atoms: O_1  and  C_2
    2  A    between atoms: O_1  and  C_26
    3  A    between atoms: C_2  and  C_19
    4  A    between atoms: C_3  and  C_23
    5  A    between atoms: C_5  and  C_9
    6  A    between atoms: C_5  and  C_18
    7  A    between atoms: C_6  and  C_31
    8  A    between atoms: C_9  and  C_16
    9  A    between atoms: C_13  and  C_18
   10  A    between atoms: C_20  and  C_23
   11  A    between atoms: C_20  and  C_31
   12  A    between atoms: C_26  and  C_31
                            x       y       z     vdW  Elec       q    Type
                         _______ _______ _______ _____ _____    ______ ____

>  <TORSDO>
F 12

$$$$
=
 OpenBabel10222415493D

 31 31  0  0  1  0  0  0  0  0999 V2000
  188.7640  177.6640  143.0830 C   0  0  0  0  0  0  0  0  0  0  0  0
  190.0440  177.7390  142.6540 C   0  0  0  0  0  0  0  0  0  0  0  0
  187.7680  177.1520  142.2550 O   0  0  0  0  0  1  0  0  0  0  0  0
  190.4050  177.2650  141.2410 C   0  0  2  0  0  0  0  0  0  0  0  0
  190.1770  175.8900  141.1510 O   0  0  0  0  0  1  0  0  0  0  0  0
  191.8620  177.5020  140.8740 C   0  0  0  0  0  1  0  0  0  0  0  0
  189.1650  177.0880  139.1740 O   0  0  0  0  0  1  0  0  0  0  0  0
  189.5310  177.9660  140.1990 C   0  0  0  0  0  2  0  0  0  0  0  0
  190.8530  179.7820  143.9450 C   0  0  0  0  0  1  0  0  0  0  0  0
  191.0790  178.3160  143.6010 C   0  0  1  0  0  3  0  0  0  0  0  0
  191.2590  177.8880  146.0950 C   0  0  0  0  0  3  0  0  0  0  0  0
  192.2060  174.8310  148.0080 N   0  0  0  0  0  1  0  0  0  0  0  0
  191.3980  177.5030  148.4690 O   0  0  0  0  0  1  0  0  0  0  0  0
  191.3910  177.4330  144.7740 C   0  0  0  0  0  0  0  0  0  0  0  0
  191.5290  177.0340  147.1680 C   0  0  0  0  0  0  0  0  0  0  0  0
  191.7840  176.1110  144.5390 C   0  0  0  0  0  3  0  0  0  0  0  0
  192.0550  175.2540  145.6100 C   0  0  0  0  0  3  0  0  0  0  0  0
  191.9290  175.7130  146.9240 C   0  0  0  0  0  0  0  0  0  0  0  0
  188.3600  178.1050  144.4590 C   0  0  0  0  0  2  0  0  0  0  0  0
  187.3880  177.1150  145.0870 C   0  0  0  0  0  2  0  0  0  0  0  0
  186.1800  177.8180  145.6960 C   0  0  1  0  0  3  0  0  0  0  0  0
  186.5710  178.4770  146.9740 C   0  0  0  0  0  0  0  0  0  0  0  0
  187.5730  177.9360  147.7720 O   0  0  0  0  0  1  0  0  0  0  0  0
  185.9890  179.5330  147.3330 O   0  0  0  0  0  0  0  0  0  0  0  0
  185.6060  178.8520  144.7360 C   0  0  0  0  0  2  0  0  0  0  0  0
  185.2330  178.2440  143.5060 O   0  0  0  0  0  0  0  0  0  0  0  0
  184.0570  178.5740  142.8250 C   0  0  0  0  0  0  0  0  0  0  0  0
  183.0360  178.8980  143.4890 O   0  0  0  0  0  0  0  0  0  0  0  0
  182.7440  179.0030  140.8990 O   0  0  0  0  0  1  0  0  0  0  0  0
  183.9900  178.5440  141.3290 C   0  0  1  0  0  3  0  0  0  0  0  0
  185.0380  179.3770  140.7660 N   0  0  0  0  0  1  0  0  0  0  0  0
  1 19  1  0  0  0  0
  2  1  2  0  0  0  0
  2 10  1  0  0  0  0
  3  1  1  0  0  0  0
  4  6  1  6  0  0  0
  4  2  1  0  0  0  0
  5  4  1  0  0  0  0
  7  8  1  0  0  0  0
  8  4  1  0  0  0  0
 10  9  1  1  0  0  0
 10 14  1  0  0  0  0
 11 15  1  0  0  0  0
 14 11  2  0  0  0  0
 15 13  1  0  0  0  0
 16 14  1  0  0  0  0
 16 17  2  0  0  0  0
 17 18  1  0  0  0  0
 18 15  2  0  0  0  0
 18 12  1  0  0  0  0
 19 20  1  0  0  0  0
 20 21  1  0  0  0  0
 21 25  1  6  0  0  0
 21 22  1  0  0  0  0
 22 24  2  0  0  0  0
 22 23  1  0  0  0  0
 26 25  1  0  0  0  0
 27 28  2  0  0  0  0
 27 26  1  0  0  0  0
 29 30  1  0  0  0  0
 30 31  1  6  0  0  0
 30 27  1  0  0  0  0
M  END
>  <MODEL>
7

>  <REMARK>
 VINA RESULT:      -6.4      2.588      4.775
  Name = 
  12 active torsions:
  status: ('A' for Active; 'I' for Inactive)
    1  A    between atoms: O_1  and  C_2
    2  A    between atoms: O_1  and  C_26
    3  A    between atoms: C_2  and  C_19
    4  A    between atoms: C_3  and  C_23
    5  A    between atoms: C_5  and  C_9
    6  A    between atoms: C_5  and  C_18
    7  A    between atoms: C_6  and  C_31
    8  A    between atoms: C_9  and  C_16
    9  A    between atoms: C_13  and  C_18
   10  A    between atoms: C_20  and  C_23
   11  A    between atoms: C_20  and  C_31
   12  A    between atoms: C_26  and  C_31
                            x       y       z     vdW  Elec       q    Type
                         _______ _______ _______ _____ _____    ______ ____

>  <TORSDO>
F 12

$$$$
=
 OpenBabel10222415493D

 31 31  0  0  1  0  0  0  0  0999 V2000
  188.6590  177.8080  139.6240 C   0  0  0  0  0  0  0  0  0  0  0  0
  188.8400  177.3260  138.3730 C   0  0  0  0  0  0  0  0  0  0  0  0
  188.2270  179.1160  139.8230 O   0  0  0  0  0  1  0  0  0  0  0  0
  188.5740  178.2290  137.1620 C   0  0  2  0  0  0  0  0  0  0  0  0
  189.0580  179.5090  137.4350 O   0  0  0  0  0  1  0  0  0  0  0  0
  187.0980  178.3710  136.8220 C   0  0  0  0  0  1  0  0  0  0  0  0
  188.4390  177.6360  134.8230 O   0  0  0  0  0  1  0  0  0  0  0  0
  189.2980  177.6950  135.9240 C   0  0  0  0  0  2  0  0  0  0  0  0
  188.5150  175.0720  137.2290 C   0  0  0  0  0  1  0  0  0  0  0  0
  189.3220  175.8960  138.2240 C   0  0  1  0  0  3  0  0  0  0  0  0
  191.6920  176.5590  138.8420 C   0  0  0  0  0  3  0  0  0  0  0  0
  194.9920  175.2530  137.6990 N   0  0  0  0  0  1  0  0  0  0  0  0
  193.9310  177.1910  139.4660 O   0  0  0  0  0  1  0  0  0  0  0  0
  190.8120  175.7660  138.0890 C   0  0  0  0  0  0  0  0  0  0  0  0
  193.0750  176.3950  138.7160 C   0  0  0  0  0  0  0  0  0  0  0  0
  191.3300  174.8010  137.2180 C   0  0  0  0  0  3  0  0  0  0  0  0
  192.7120  174.6360  137.0900 C   0  0  0  0  0  3  0  0  0  0  0  0
  193.5860  175.4310  137.8370 C   0  0  0  0  0  0  0  0  0  0  0  0
  188.8950  176.9640  140.8410 C   0  0  0  0  0  2  0  0  0  0  0  0
  189.4720  177.7960  141.9790 C   0  0  0  0  0  2  0  0  0  0  0  0
  189.7930  176.9400  143.1990 C   0  0  1  0  0  3  0  0  0  0  0  0
  191.2290  176.5450  143.1750 C   0  0  0  0  0  0  0  0  0  0  0  0
  191.6990  175.5350  144.0080 O   0  0  0  0  0  1  0  0  0  0  0  0
  192.0230  177.1280  142.3930 O   0  0  0  0  0  0  0  0  0  0  0  0
  189.4860  177.6910  144.4890 C   0  0  0  0  0  2  0  0  0  0  0  0
  188.4250  177.0610  145.1970 O   0  0  0  0  0  0  0  0  0  0  0  0
  187.1520  177.6290  145.3140 C   0  0  0  0  0  0  0  0  0  0  0  0
  186.3370  177.5040  144.3620 O   0  0  0  0  0  0  0  0  0  0  0  0
  185.3740  178.2580  146.7490 O   0  0  0  0  0  1  0  0  0  0  0  0
  186.7480  178.3850  146.5420 C   0  0  1  0  0  3  0  0  0  0  0  0
  187.4650  177.8780  147.6990 N   0  0  0  0  0  1  0  0  0  0  0  0
  1  3  1  0  0  0  0
  1 19  1  0  0  0  0
  2  1  2  0  0  0  0
  4  6  1  6  0  0  0
  4  5  1  0  0  0  0
  4  2  1  0  0  0  0
  7  8  1  0  0  0  0
  8  4  1  0  0  0  0
 10  9  1  6  0  0  0
 10  2  1  0  0  0  0
 12 18  1  0  0  0  0
 14 10  1  0  0  0  0
 14 11  2  0  0  0  0
 15 11  1  0  0  0  0
 15 13  1  0  0  0  0
 16 14  1  0  0  0  0
 17 16  2  0  0  0  0
 17 18  1  0  0  0  0
 18 15  2  0  0  0  0
 19 20  1  0  0  0  0
 21 20  1  6  0  0  0
 21 25  1  0  0  0  0
 22 21  1  0  0  0  0
 22 23  1  0  0  0  0
 24 22  2  0  0  0  0
 25 26  1  0  0  0  0
 26 27  1  0  0  0  0
 27 30  1  0  0  0  0
 28 27  2  0  0  0  0
 30 29  1  1  0  0  0
 30 31  1  0  0  0  0
M  END
>  <MODEL>
8

>  <REMARK>
 VINA RESULT:      -6.4      3.367      6.669
  Name = 
  12 active torsions:
  status: ('A' for Active; 'I' for Inactive)
    1  A    between atoms: O_1  and  C_2
    2  A    between atoms: O_1  and  C_26
    3  A    between atoms: C_2  and  C_19
    4  A    between atoms: C_3  and  C_23
    5  A    between atoms: C_5  and  C_9
    6  A    between atoms: C_5  and  C_18
    7  A    between atoms: C_6  and  C_31
    8  A    between atoms: C_9  and  C_16
    9  A    between atoms: C_13  and  C_18
   10  A    between atoms: C_20  and  C_23
   11  A    between atoms: C_20  and  C_31
   12  A    between atoms: C_26  and  C_31
                            x       y       z     vdW  Elec       q    Type
                         _______ _______ _______ _____ _____    ______ ____

>  <TORSDO>
F 12

$$$$
=
 OpenBabel10222415493D

 31 31  0  0  1  0  0  0  0  0999 V2000
  188.0910  178.2960  141.6220 C   0  0  0  0  0  0  0  0  0  0  0  0
  188.8650  177.5750  142.4660 C   0  0  0  0  0  0  0  0  0  0  0  0
  188.6640  179.2060  140.7380 O   0  0  0  0  0  1  0  0  0  0  0  0
  190.3870  177.7660  142.4560 C   0  0  2  0  0  0  0  0  0  0  0  0
  190.9850  176.6740  143.0880 O   0  0  0  0  0  1  0  0  0  0  0  0
  190.8480  179.0160  143.1910 C   0  0  0  0  0  1  0  0  0  0  0  0
  190.8550  176.5850  140.4000 O   0  0  0  0  0  1  0  0  0  0  0  0
  190.9110  177.8360  141.0200 C   0  0  0  0  0  2  0  0  0  0  0  0
  188.6990  175.1800  143.3210 C   0  0  0  0  0  1  0  0  0  0  0  0
  188.1790  176.6090  143.4110 C   0  0  1  0  0  3  0  0  0  0  0  0
  186.8180  177.7230  145.2400 C   0  0  0  0  0  3  0  0  0  0  0  0
  187.6370  178.4950  148.7950 N   0  0  0  0  0  1  0  0  0  0  0  0
  185.4950  178.7610  146.9650 O   0  0  0  0  0  1  0  0  0  0  0  0
  188.0170  177.1340  144.8080 C   0  0  0  0  0  0  0  0  0  0  0  0
  186.6870  178.1760  146.5560 C   0  0  0  0  0  0  0  0  0  0  0  0
  189.0770  176.9930  145.7100 C   0  0  0  0  0  3  0  0  0  0  0  0
  188.9490  177.4460  147.0260 C   0  0  0  0  0  3  0  0  0  0  0  0
  187.7570  178.0380  147.4510 C   0  0  0  0  0  0  0  0  0  0  0  0
  186.6000  178.1410  141.5850 C   0  0  0  0  0  2  0  0  0  0  0  0
  185.9080  179.3840  142.1260 C   0  0  0  0  0  2  0  0  0  0  0  0
  184.4020  179.3420  141.8890 C   0  0  1  0  0  3  0  0  0  0  0  0
  184.1240  179.0020  140.4650 C   0  0  0  0  0  0  0  0  0  0  0  0
  184.5630  179.8330  139.4410 O   0  0  0  0  0  0  0  0  0  0  0  0
  183.4860  177.9530  140.1890 O   0  0  0  0  0  1  0  0  0  0  0  0
  183.7330  178.3230  142.8030 C   0  0  0  0  0  2  0  0  0  0  0  0
  182.7810  178.9560  143.6490 O   0  0  0  0  0  0  0  0  0  0  0  0
  181.4070  178.9370  143.3870 C   0  0  0  0  0  0  0  0  0  0  0  0
  180.6380  178.3540  144.1960 O   0  0  0  0  0  0  0  0  0  0  0  0
  180.1980  178.6380  141.3700 O   0  0  0  0  0  1  0  0  0  0  0  0
  180.8390  179.5890  142.1640 C   0  0  1  0  0  3  0  0  0  0  0  0
  179.8930  180.6240  142.5440 N   0  0  0  0  0  1  0  0  0  0  0  0
  1  2  2  0  0  0  0
  2 10  1  0  0  0  0
  3  1  1  0  0  0  0
  4  2  1  0  0  0  0
  4  5  1  0  0  0  0
  4  6  1  1  0  0  0
  7  8  1  0  0  0  0
  8  4  1  0  0  0  0
 10  9  1  1  0  0  0
 10 14  1  0  0  0  0
 11 15  1  0  0  0  0
 14 11  2  0  0  0  0
 14 16  1  0  0  0  0
 15 13  1  0  0  0  0
 15 18  2  0  0  0  0
 16 17  2  0  0  0  0
 17 18  1  0  0  0  0
 18 12  1  0  0  0  0
 19  1  1  0  0  0  0
 19 20  1  0  0  0  0
 21 20  1  6  0  0  0
 21 25  1  0  0  0  0
 22 21  1  0  0  0  0
 23 22  2  0  0  0  0
 24 22  1  0  0  0  0
 25 26  1  0  0  0  0
 27 26  1  0  0  0  0
 27 28  2  0  0  0  0
 30 29  1  6  0  0  0
 30 31  1  0  0  0  0
 30 27  1  0  0  0  0
M  END
>  <MODEL>
9

>  <REMARK>
 VINA RESULT:      -6.3      2.732      5.011
  Name = 
  12 active torsions:
  status: ('A' for Active; 'I' for Inactive)
    1  A    between atoms: O_1  and  C_2
    2  A    between atoms: O_1  and  C_26
    3  A    between atoms: C_2  and  C_19
    4  A    between atoms: C_3  and  C_23
    5  A    between atoms: C_5  and  C_9
    6  A    between atoms: C_5  and  C_18
    7  A    between atoms: C_6  and  C_31
    8  A    between atoms: C_9  and  C_16
    9  A    between atoms: C_13  and  C_18
   10  A    between atoms: C_20  and  C_23
   11  A    between atoms: C_20  and  C_31
   12  A    between atoms: C_26  and  C_31
                            x       y       z     vdW  Elec       q    Type
                         _______ _______ _______ _____ _____    ______ ____

>  <TORSDO>
F 12

$$$$
