=
 OpenBabel10222417143D

 51 54  0  0  1  0  0  0  0  0999 V2000
  186.5260  177.8070  142.9210 C   0  0  0  0  0  0  0  0  0  0  0  0
  182.5050  179.0730  143.4160 C   0  0  0  0  0  0  0  0  0  0  0  0
  187.7030  177.3680  142.5150 C   0  0  0  0  0  3  0  0  0  0  0  0
  184.6640  178.3070  144.5030 C   0  0  0  0  0  3  0  0  0  0  0  0
  185.2620  178.1830  143.1460 C   0  0  0  0  0  0  0  0  0  0  0  0
  185.0960  178.6680  140.8310 N   0  0  0  0  0  0  0  0  0  0  0  0
  182.9910  178.9330  142.1470 C   0  0  0  0  0  3  0  0  0  0  0  0
  183.3920  178.7600  144.6300 C   0  0  0  0  0  3  0  0  0  0  0  0
  184.4470  178.5760  141.9440 C   0  0  0  0  0  0  0  0  0  0  0  0
  184.5180  180.1730  139.1420 O   0  0  0  0  0  0  0  0  0  0  0  0
  184.7950  179.0020  139.4350 C   0  0  0  0  0  0  0  0  0  0  0  0
  184.7620  177.9240  138.4070 C   0  0  0  0  0  0  0  0  0  0  0  0
  183.9090  175.9910  137.3160 C   0  0  0  0  0  0  0  0  0  0  0  0
  185.9160  176.9470  136.4810 C   0  0  0  0  0  3  0  0  0  0  0  0
  183.7510  176.9470  138.3050 C   0  0  0  0  0  3  0  0  0  0  0  0
  185.8370  177.8550  137.4770 C   0  0  0  0  0  3  0  0  0  0  0  0
  184.9170  176.0030  136.3480 C   0  0  0  0  0  0  0  0  0  0  0  0
  181.7780  174.8040  136.7350 C   0  0  0  0  0  1  0  0  0  0  0  0
  182.9520  174.9610  137.5170 O   0  0  0  0  0  0  0  0  0  0  0  0
  185.3230  175.0510  135.2220 C   0  0  0  0  0  2  0  0  0  0  0  0
  185.5780  173.7230  135.6240 O   0  0  0  0  0  0  0  0  0  0  0  0
  186.8310  173.3900  135.0900 C   0  0  0  0  0  2  0  0  0  0  0  0
  187.9130  173.3220  136.1940 C   0  0  0  0  0  2  0  0  0  0  0  0
  189.2110  173.1950  135.5710 N   0  0  0  0  0  2  0  0  0  0  0  0
  191.4840  173.5030  136.5510 C   0  0  2  0  0  3  0  0  0  0  0  0
  190.1630  174.1110  136.1600 C   0  0  2  0  0  3  0  0  0  0  0  0
  190.5670  173.6870  137.4920 O   0  0  0  0  0  0  0  0  0  0  0  0
  192.5960  174.5270  136.6580 C   0  0  0  0  0  2  0  0  0  0  0  0
  194.0090  173.8640  136.6490 C   0  0  0  0  0  2  0  0  0  0  0  0
  195.2230  174.5690  137.3270 C   0  0  0  0  0  2  0  0  0  0  0  0
  195.5310  174.0420  138.7330 C   0  0  0  0  0  0  0  0  0  0  0  0
  195.8030  175.0110  139.7040 O   0  0  0  0  0  1  0  0  0  0  0  0
  195.2570  172.9120  139.1380 O   0  0  0  0  0  0  0  0  0  0  0  0
  189.0990  178.0490  142.4050 C   0  0  1  0  0  3  0  0  0  0  0  0
  190.7450  176.2910  144.5570 C   0  0  0  0  0  2  0  0  0  0  0  0
  189.2050  177.5420  146.5120 C   0  0  0  0  0  2  0  0  0  0  0  0
  190.2160  177.9310  143.9740 P   0  0  2  0  0  0  0  0  0  0  0  0
  191.4160  176.4410  145.9630 C   0  0  1  0  0  3  0  0  0  0  0  0
  189.6480  178.6550  145.5650 C   0  0  0  0  0  2  0  0  0  0  0  0
  191.5150  178.6110  143.6810 O   0  0  0  0  0  0  0  0  0  0  0  0
  190.4160  176.7940  147.0450 C   0  0  0  0  0  2  0  0  0  0  0  0
  192.7300  174.4280  145.7440 O   0  0  0  0  0  0  0  0  0  0  0  0
  192.9520  175.5670  147.7250 O   0  0  0  0  0  1  0  0  0  0  0  0
  192.3530  175.4080  146.4620 C   0  0  0  0  0  0  0  0  0  0  0  0
  189.8470  177.5540  141.1090 C   0  0  0  0  0  2  0  0  0  0  0  0
  188.9510  179.2090  138.8540 O   0  0  0  0  0  1  0  0  0  0  0  0
  189.0930  176.5000  138.5100 O   0  0  0  0  0  0  0  0  0  0  0  0
  189.0920  177.6510  139.4650 P   0  0  1  0  0  4  0  0  0  0  0  0
  181.0190  179.1840  143.6790 C   0  0  0  0  0  2  0  0  0  0  0  0
  179.5120  180.3000  141.9210 C   0  0  0  0  0  1  0  0  0  0  0  0
  180.0200  178.9870  142.4770 C   0  0  0  0  0  2  0  0  0  0  0  0
  1  5  2  0  0  0  0
  2 49  1  0  0  0  0
  2  8  1  0  0  0  0
  3  1  2  0  0  0  0
  4  8  2  0  0  0  0
  5  4  1  0  0  0  0
  6  9  2  0  0  0  0
  7  2  2  0  0  0  0
  9  7  1  0  0  0  0
  9  5  1  0  0  0  0
 10 11  2  0  0  0  0
 11  6  1  0  0  0  0
 12 11  1  0  0  0  0
 13 19  1  0  0  0  0
 13 15  2  0  0  0  0
 14 16  1  0  0  0  0
 15 12  1  0  0  0  0
 16 12  2  0  0  0  0
 17 14  2  0  0  0  0
 17 13  1  0  0  0  0
 18 19  1  0  0  0  0
 20 21  1  0  0  0  0
 20 17  1  0  0  0  0
 22 21  1  0  0  0  0
 22 23  1  0  0  0  0
 24 23  1  0  0  0  0
 25 28  1  1  0  0  0
 25 27  1  0  0  0  0
 26 24  1  6  0  0  0
 26 25  1  0  0  0  0
 26 27  1  0  0  0  0
 29 28  1  0  0  0  0
 29 30  1  0  0  0  0
 30 31  1  0  0  0  0
 31 33  2  0  0  0  0
 31 32  1  0  0  0  0
 34 45  1  6  0  0  0
 34  3  1  0  0  0  0
 34 37  1  0  0  0  0
 35 38  1  0  0  0  0
 36 41  1  0  0  0  0
 37 40  2  6  0  0  0
 37 35  1  0  0  0  0
 37 39  1  0  0  0  0
 38 44  1  1  0  0  0
 38 41  1  0  0  0  0
 39 36  1  0  0  0  0
 42 44  2  0  0  0  0
 44 43  1  0  0  0  0
 46 48  1  0  0  0  0
 48 47  2  6  0  0  0
 48 45  1  0  0  0  0
 50 51  1  0  0  0  0
 51 49  1  0  0  0  0
M  END
>  <MODEL>
1

>  <REMARK>
 VINA RESULT:      -7.8      0.000      0.000
  Name = 
  20 active torsions:
  status: ('A' for Active; 'I' for Inactive)
    1  A    between atoms: C_1  and  C_9
    2  A    between atoms: C_1  and  C_10
    3  A    between atoms: C_1  and  P_34
    4  A    between atoms: C_4  and  C_28
    5  A    between atoms: C_6  and  N_38
    6  A    between atoms: C_6  and  C_39
    7  A    between atoms: C_7  and  C_17
    8  A    between atoms: C_7  and  C_18
    9  A    between atoms: C_8  and  C_32
   10  A    between atoms: C_10  and  P_49
   11  A    between atoms: C_15  and  C_32
   12  A    between atoms: C_16  and  O_27
   13  A    between atoms: C_17  and  C_36
   14  A    between atoms: N_23  and  C_28
   15  A    between atoms: C_26  and  O_29
   16  A    between atoms: C_26  and  C_50
   17  A    between atoms: O_29  and  C_39
   18  A    between atoms: C_31  and  N_38
   19  A    between atoms: C_33  and  C_42
   20  A    between atoms: C_36  and  C_37
                            x       y       z     vdW  Elec       q    Type
                         _______ _______ _______ _____ _____    ______ ____

>  <TORSDO>
F 20

$$$$
=
 OpenBabel10222417143D

 51 54  0  0  1  0  0  0  0  0999 V2000
  182.7890  176.3440  137.1760 C   0  0  0  0  0  0  0  0  0  0  0  0
  180.1420  177.2680  140.3630 C   0  0  0  0  0  0  0  0  0  0  0  0
  183.7140  176.2970  136.2360 C   0  0  0  0  0  3  0  0  0  0  0  0
  180.6390  175.8320  138.3320 C   0  0  0  0  0  3  0  0  0  0  0  0
  181.9030  176.5950  138.1470 C   0  0  0  0  0  0  0  0  0  0  0  0
  183.4800  178.1130  139.0590 N   0  0  0  0  0  0  0  0  0  0  0  0
  181.2670  178.0270  140.2110 C   0  0  0  0  0  3  0  0  0  0  0  0
  179.8380  176.1200  139.3880 C   0  0  0  0  0  3  0  0  0  0  0  0
  182.2740  177.6600  139.1430 C   0  0  0  0  0  0  0  0  0  0  0  0
  184.7120  180.0950  139.1340 O   0  0  0  0  0  0  0  0  0  0  0  0
  184.3090  179.1030  139.7550 C   0  0  0  0  0  0  0  0  0  0  0  0
  184.7060  178.8700  141.1720 C   0  0  0  0  0  0  0  0  0  0  0  0
  186.1970  178.3520  142.9510 C   0  0  0  0  0  0  0  0  0  0  0  0
  183.9160  178.7370  143.4850 C   0  0  0  0  0  3  0  0  0  0  0  0
  186.0210  178.5900  141.5980 C   0  0  0  0  0  3  0  0  0  0  0  0
  183.6880  178.9050  142.1650 C   0  0  0  0  0  3  0  0  0  0  0  0
  185.2030  178.4940  143.9230 C   0  0  0  0  0  0  0  0  0  0  0  0
  187.7870  176.5510  143.6660 C   0  0  0  0  0  1  0  0  0  0  0  0
  187.5070  177.8470  143.1600 O   0  0  0  0  0  0  0  0  0  0  0  0
  185.1420  178.2380  145.4290 C   0  0  0  0  0  2  0  0  0  0  0  0
  186.1590  178.8610  146.1830 O   0  0  0  0  0  0  0  0  0  0  0  0
  186.6400  177.8860  147.0670 C   0  0  0  0  0  2  0  0  0  0  0  0
  187.8420  178.4130  147.8860 C   0  0  0  0  0  2  0  0  0  0  0  0
  188.7160  177.3060  148.2030 N   0  0  0  0  0  2  0  0  0  0  0  0
  190.2750  176.7130  146.3490 C   0  0  2  0  0  3  0  0  0  0  0  0
  190.0240  177.4900  147.6140 C   0  0  2  0  0  3  0  0  0  0  0  0
  190.7430  176.2320  147.4930 O   0  0  0  0  0  0  0  0  0  0  0  0
  191.3860  177.3040  145.5050 C   0  0  0  0  0  2  0  0  0  0  0  0
  191.4190  176.6990  144.0670 C   0  0  0  0  0  2  0  0  0  0  0  0
  191.7970  177.5820  142.8390 C   0  0  0  0  0  2  0  0  0  0  0  0
  191.1440  177.1240  141.5300 C   0  0  0  0  0  0  0  0  0  0  0  0
  191.7050  177.6330  140.3550 O   0  0  0  0  0  0  0  0  0  0  0  0
  190.4080  176.1430  141.4140 O   0  0  0  0  0  1  0  0  0  0  0  0
  184.9500  175.3740  136.0220 C   0  0  1  0  0  3  0  0  0  0  0  0
  188.0070  175.3830  137.0650 C   0  0  0  0  0  2  0  0  0  0  0  0
  187.3970  177.7920  138.3230 C   0  0  0  0  0  2  0  0  0  0  0  0
  186.6720  176.2320  136.1660 P   0  0  2  0  0  0  0  0  0  0  0  0
  189.2020  176.3740  137.2590 C   0  0  1  0  0  3  0  0  0  0  0  0
  186.8080  177.9030  136.9190 C   0  0  0  0  0  2  0  0  0  0  0  0
  187.2430  176.3790  134.7910 O   0  0  0  0  0  0  0  0  0  0  0  0
  188.8820  177.4790  138.2450 C   0  0  0  0  0  2  0  0  0  0  0  0
  190.8050  174.9130  138.3200 O   0  0  0  0  0  1  0  0  0  0  0  0
  191.6400  176.3420  136.7290 O   0  0  0  0  0  0  0  0  0  0  0  0
  190.5690  175.8610  137.5040 C   0  0  0  0  0  0  0  0  0  0  0  0
  184.8460  174.1000  136.9450 C   0  0  0  0  0  2  0  0  0  0  0  0
  185.6150  171.4650  135.8990 O   0  0  0  0  0  1  0  0  0  0  0  0
  183.0030  171.8830  136.5920 O   0  0  0  0  0  0  0  0  0  0  0  0
  184.3410  172.4830  136.3000 P   0  0  1  0  0  4  0  0  0  0  0  0
  178.9960  177.7280  141.2380 C   0  0  0  0  0  2  0  0  0  0  0  0
  179.7600  178.5650  143.5450 C   0  0  0  0  0  1  0  0  0  0  0  0
  179.2200  178.9640  142.1890 C   0  0  0  0  0  2  0  0  0  0  0  0
  1  5  2  0  0  0  0
  2 49  1  0  0  0  0
  3  1  2  0  0  0  0
  4  8  2  0  0  0  0
  5  4  1  0  0  0  0
  5  9  1  0  0  0  0
  6  9  2  0  0  0  0
  6 11  1  0  0  0  0
  7  2  2  0  0  0  0
  8  2  1  0  0  0  0
  9  7  1  0  0  0  0
 10 11  2  0  0  0  0
 11 12  1  0  0  0  0
 12 15  2  0  0  0  0
 12 16  1  0  0  0  0
 13 19  1  0  0  0  0
 13 17  2  0  0  0  0
 14 17  1  0  0  0  0
 15 13  1  0  0  0  0
 16 14  2  0  0  0  0
 17 20  1  0  0  0  0
 19 18  1  0  0  0  0
 20 21  1  0  0  0  0
 21 22  1  0  0  0  0
 22 23  1  0  0  0  0
 23 24  1  0  0  0  0
 25 28  1  6  0  0  0
 25 27  1  0  0  0  0
 25 26  1  0  0  0  0
 26 24  1  1  0  0  0
 27 26  1  0  0  0  0
 29 28  1  0  0  0  0
 30 29  1  0  0  0  0
 31 30  1  0  0  0  0
 32 31  2  0  0  0  0
 33 31  1  0  0  0  0
 34 37  1  0  0  0  0
 34  3  1  1  0  0  0
 34 45  1  0  0  0  0
 35 38  1  0  0  0  0
 37 40  2  6  0  0  0
 37 39  1  0  0  0  0
 37 35  1  0  0  0  0
 38 44  1  1  0  0  0
 38 41  1  0  0  0  0
 39 36  1  0  0  0  0
 41 36  1  0  0  0  0
 43 44  2  0  0  0  0
 44 42  1  0  0  0  0
 48 46  1  1  0  0  0
 48 47  2  0  0  0  0
 48 45  1  0  0  0  0
 49 51  1  0  0  0  0
 51 50  1  0  0  0  0
M  END
>  <MODEL>
2

>  <REMARK>
 VINA RESULT:      -7.6      2.919      7.979
  Name = 
  20 active torsions:
  status: ('A' for Active; 'I' for Inactive)
    1  A    between atoms: C_1  and  C_9
    2  A    between atoms: C_1  and  C_10
    3  A    between atoms: C_1  and  P_34
    4  A    between atoms: C_4  and  C_28
    5  A    between atoms: C_6  and  N_38
    6  A    between atoms: C_6  and  C_39
    7  A    between atoms: C_7  and  C_17
    8  A    between atoms: C_7  and  C_18
    9  A    between atoms: C_8  and  C_32
   10  A    between atoms: C_10  and  P_49
   11  A    between atoms: C_15  and  C_32
   12  A    between atoms: C_16  and  O_27
   13  A    between atoms: C_17  and  C_36
   14  A    between atoms: N_23  and  C_28
   15  A    between atoms: C_26  and  O_29
   16  A    between atoms: C_26  and  C_50
   17  A    between atoms: O_29  and  C_39
   18  A    between atoms: C_31  and  N_38
   19  A    between atoms: C_33  and  C_42
   20  A    between atoms: C_36  and  C_37
                            x       y       z     vdW  Elec       q    Type
                         _______ _______ _______ _____ _____    ______ ____

>  <TORSDO>
F 20

$$$$
=
 OpenBabel10222417143D

 51 54  0  0  1  0  0  0  0  0999 V2000
  185.8400  177.7380  143.1800 C   0  0  0  0  0  0  0  0  0  0  0  0
  181.9240  179.3740  143.1030 C   0  0  0  0  0  0  0  0  0  0  0  0
  187.0000  177.1500  142.9560 C   0  0  0  0  0  3  0  0  0  0  0  0
  183.9120  178.6270  144.4890 C   0  0  0  0  0  3  0  0  0  0  0  0
  184.6010  178.2420  143.2280 C   0  0  0  0  0  0  0  0  0  0  0  0
  184.6640  178.3630  140.8600 N   0  0  0  0  0  0  0  0  0  0  0  0
  182.4940  178.9960  141.9210 C   0  0  0  0  0  3  0  0  0  0  0  0
  182.6800  179.1910  144.4280 C   0  0  0  0  0  3  0  0  0  0  0  0
  183.9230  178.5000  141.9090 C   0  0  0  0  0  0  0  0  0  0  0  0
  183.3860  178.7450  138.9430 O   0  0  0  0  0  0  0  0  0  0  0  0
  184.5060  178.4920  139.4080 C   0  0  0  0  0  0  0  0  0  0  0  0
  185.6730  178.2530  138.5130 C   0  0  0  0  0  0  0  0  0  0  0  0
  186.7720  177.8080  136.4510 C   0  0  0  0  0  0  0  0  0  0  0  0
  188.1050  177.9990  138.4070 C   0  0  0  0  0  3  0  0  0  0  0  0
  185.5860  178.0660  137.1180 C   0  0  0  0  0  3  0  0  0  0  0  0
  186.9640  178.1830  139.1040 C   0  0  0  0  0  3  0  0  0  0  0  0
  188.0410  177.8460  137.0360 C   0  0  0  0  0  0  0  0  0  0  0  0
  185.2510  176.7910  134.7370 C   0  0  0  0  0  1  0  0  0  0  0  0
  186.4730  177.4010  135.1240 O   0  0  0  0  0  0  0  0  0  0  0  0
  189.4540  177.5460  136.5340 C   0  0  0  0  0  2  0  0  0  0  0  0
  190.0240  176.3540  137.0290 O   0  0  0  0  0  0  0  0  0  0  0  0
  189.3720  175.3070  136.3630 C   0  0  0  0  0  2  0  0  0  0  0  0
  190.1690  173.9860  136.4770 C   0  0  0  0  0  2  0  0  0  0  0  0
  191.1300  174.1090  137.5490 N   0  0  0  0  0  2  0  0  0  0  0  0
  193.3830  175.1120  137.1780 C   0  0  2  0  0  3  0  0  0  0  0  0
  192.4790  173.9130  137.0650 C   0  0  2  0  0  3  0  0  0  0  0  0
  192.8150  174.8540  136.0070 O   0  0  0  0  0  0  0  0  0  0  0  0
  194.8540  174.7440  137.1690 C   0  0  0  0  0  2  0  0  0  0  0  0
  195.2780  173.9830  138.4640 C   0  0  0  0  0  2  0  0  0  0  0  0
  196.7810  173.8620  138.8600 C   0  0  0  0  0  2  0  0  0  0  0  0
  197.3030  175.0640  139.6570 C   0  0  0  0  0  0  0  0  0  0  0  0
  198.4010  175.7330  139.1060 O   0  0  0  0  0  0  0  0  0  0  0  0
  196.6720  175.6590  140.5310 O   0  0  0  0  0  1  0  0  0  0  0  0
  188.4560  177.6940  142.8730 C   0  0  1  0  0  3  0  0  0  0  0  0
  190.3560  176.5350  145.2140 C   0  0  0  0  0  2  0  0  0  0  0  0
  188.2770  177.1300  146.9690 C   0  0  0  0  0  2  0  0  0  0  0  0
  189.3670  177.9150  144.5600 P   0  0  2  0  0  0  0  0  0  0  0  0
  190.7770  176.8620  146.6850 C   0  0  1  0  0  3  0  0  0  0  0  0
  188.4150  178.3550  146.0690 C   0  0  0  0  0  2  0  0  0  0  0  0
  190.3810  179.0050  144.4100 O   0  0  0  0  0  0  0  0  0  0  0  0
  189.6030  176.8220  147.6430 C   0  0  0  0  0  2  0  0  0  0  0  0
  192.5200  175.1940  146.7560 O   0  0  0  0  0  0  0  0  0  0  0  0
  192.5370  176.7440  148.4500 O   0  0  0  0  0  1  0  0  0  0  0  0
  191.9480  176.1940  147.2970 C   0  0  0  0  0  0  0  0  0  0  0  0
  189.3020  176.8400  141.8530 C   0  0  0  0  0  2  0  0  0  0  0  0
  192.1740  177.1760  142.3620 O   0  0  0  0  0  1  0  0  0  0  0  0
  191.2600  177.4770  139.8040 O   0  0  0  0  0  0  0  0  0  0  0  0
  190.9260  177.3800  141.2590 P   0  0  1  0  0  4  0  0  0  0  0  0
  180.4380  179.6400  143.2090 C   0  0  0  0  0  2  0  0  0  0  0  0
  179.8310  177.3360  144.1740 C   0  0  0  0  0  1  0  0  0  0  0  0
  179.5970  178.8290  144.2650 C   0  0  0  0  0  2  0  0  0  0  0  0
  1  5  2  0  0  0  0
  2 49  1  0  0  0  0
  2  8  1  0  0  0  0
  3  1  2  0  0  0  0
  5  4  1  0  0  0  0
  6  9  2  0  0  0  0
  7  2  2  0  0  0  0
  8  4  2  0  0  0  0
  9  7  1  0  0  0  0
  9  5  1  0  0  0  0
 10 11  2  0  0  0  0
 11  6  1  0  0  0  0
 12 16  1  0  0  0  0
 12 11  1  0  0  0  0
 13 17  2  0  0  0  0
 13 15  1  0  0  0  0
 14 16  2  0  0  0  0
 15 12  2  0  0  0  0
 17 14  1  0  0  0  0
 18 19  1  0  0  0  0
 19 13  1  0  0  0  0
 20 21  1  0  0  0  0
 20 17  1  0  0  0  0
 22 23  1  0  0  0  0
 22 21  1  0  0  0  0
 23 24  1  0  0  0  0
 25 28  1  6  0  0  0
 26 25  1  0  0  0  0
 26 24  1  1  0  0  0
 27 26  1  0  0  0  0
 27 25  1  0  0  0  0
 28 29  1  0  0  0  0
 29 30  1  0  0  0  0
 30 31  1  0  0  0  0
 31 33  1  0  0  0  0
 32 31  2  0  0  0  0
 34 45  1  6  0  0  0
 34  3  1  0  0  0  0
 34 37  1  0  0  0  0
 35 38  1  0  0  0  0
 36 41  1  0  0  0  0
 37 40  2  6  0  0  0
 37 35  1  0  0  0  0
 37 39  1  0  0  0  0
 38 44  1  1  0  0  0
 38 41  1  0  0  0  0
 39 36  1  0  0  0  0
 42 44  2  0  0  0  0
 44 43  1  0  0  0  0
 48 47  2  6  0  0  0
 48 45  1  0  0  0  0
 48 46  1  0  0  0  0
 49 51  1  0  0  0  0
 50 51  1  0  0  0  0
M  END
>  <MODEL>
3

>  <REMARK>
 VINA RESULT:      -7.2      1.820      2.484
  Name = 
  20 active torsions:
  status: ('A' for Active; 'I' for Inactive)
    1  A    between atoms: C_1  and  C_9
    2  A    between atoms: C_1  and  C_10
    3  A    between atoms: C_1  and  P_34
    4  A    between atoms: C_4  and  C_28
    5  A    between atoms: C_6  and  N_38
    6  A    between atoms: C_6  and  C_39
    7  A    between atoms: C_7  and  C_17
    8  A    between atoms: C_7  and  C_18
    9  A    between atoms: C_8  and  C_32
   10  A    between atoms: C_10  and  P_49
   11  A    between atoms: C_15  and  C_32
   12  A    between atoms: C_16  and  O_27
   13  A    between atoms: C_17  and  C_36
   14  A    between atoms: N_23  and  C_28
   15  A    between atoms: C_26  and  O_29
   16  A    between atoms: C_26  and  C_50
   17  A    between atoms: O_29  and  C_39
   18  A    between atoms: C_31  and  N_38
   19  A    between atoms: C_33  and  C_42
   20  A    between atoms: C_36  and  C_37
                            x       y       z     vdW  Elec       q    Type
                         _______ _______ _______ _____ _____    ______ ____

>  <TORSDO>
F 20

$$$$
=
 OpenBabel10222417143D

 51 54  0  0  1  0  0  0  0  0999 V2000
  186.9020  173.9570  136.8220 C   0  0  0  0  0  0  0  0  0  0  0  0
  190.6300  175.2200  135.2330 C   0  0  0  0  0  0  0  0  0  0  0  0
  185.8100  173.7170  137.5230 C   0  0  0  0  0  3  0  0  0  0  0  0
  188.7150  173.5590  135.1560 C   0  0  0  0  0  3  0  0  0  0  0  0
  188.0820  174.2910  136.2860 C   0  0  0  0  0  0  0  0  0  0  0  0
  188.0320  176.2410  137.6340 N   0  0  0  0  0  0  0  0  0  0  0  0
  190.1150  175.8990  136.3000 C   0  0  0  0  0  3  0  0  0  0  0  0
  189.8830  174.0150  134.6390 C   0  0  0  0  0  3  0  0  0  0  0  0
  188.7440  175.5310  136.8240 C   0  0  0  0  0  0  0  0  0  0  0  0
  187.6120  178.5060  138.0150 O   0  0  0  0  0  0  0  0  0  0  0  0
  188.1910  177.4820  138.4000 C   0  0  0  0  0  0  0  0  0  0  0  0
  189.0940  177.5090  139.5850 C   0  0  0  0  0  0  0  0  0  0  0  0
  191.1820  177.5490  140.7220 C   0  0  0  0  0  0  0  0  0  0  0  0
  189.2020  177.4700  142.0300 C   0  0  0  0  0  3  0  0  0  0  0  0
  190.5000  177.5830  139.5170 C   0  0  0  0  0  3  0  0  0  0  0  0
  188.5030  177.4290  140.8760 C   0  0  0  0  0  3  0  0  0  0  0  0
  190.5790  177.5740  141.9820 C   0  0  0  0  0  0  0  0  0  0  0  0
  193.0890  176.9050  139.2280 C   0  0  0  0  0  1  0  0  0  0  0  0
  192.5670  177.3780  140.4590 O   0  0  0  0  0  0  0  0  0  0  0  0
  191.1030  177.4870  143.4160 C   0  0  0  0  0  2  0  0  0  0  0  0
  190.7140  176.3300  144.1250 O   0  0  0  0  0  0  0  0  0  0  0  0
  191.5610  176.2560  145.2390 C   0  0  0  0  0  2  0  0  0  0  0  0
  191.0370  177.1320  146.4020 C   0  0  0  0  0  2  0  0  0  0  0  0
  189.7040  176.6980  146.7520 N   0  0  0  0  0  2  0  0  0  0  0  0
  187.3830  177.5350  146.3830 C   0  0  2  0  0  3  0  0  0  0  0  0
  188.7940  177.8200  146.8270 C   0  0  2  0  0  3  0  0  0  0  0  0
  188.2100  178.1280  145.5310 O   0  0  0  0  0  0  0  0  0  0  0  0
  186.3770  178.5170  146.9490 C   0  0  0  0  0  2  0  0  0  0  0  0
  185.0610  178.5610  146.1110 C   0  0  0  0  0  2  0  0  0  0  0  0
  184.9450  179.4820  144.8580 C   0  0  0  0  0  2  0  0  0  0  0  0
  184.0810  178.8890  143.7390 C   0  0  0  0  0  0  0  0  0  0  0  0
  182.6970  178.9750  143.9250 O   0  0  0  0  0  1  0  0  0  0  0  0
  184.4740  178.6440  142.5990 O   0  0  0  0  0  0  0  0  0  0  0  0
  184.3070  174.0340  137.2710 C   0  0  1  0  0  3  0  0  0  0  0  0
  183.8660  176.9900  138.4960 C   0  0  0  0  0  2  0  0  0  0  0  0
  181.3190  176.8960  137.3730 C   0  0  0  0  0  2  0  0  0  0  0  0
  183.8700  175.8990  137.0400 P   0  0  2  0  0  0  0  0  0  0  0  0
  183.2440  178.3700  138.0980 C   0  0  1  0  0  3  0  0  0  0  0  0
  182.2630  176.3810  136.2890 C   0  0  0  0  0  2  0  0  0  0  0  0
  184.9090  176.5230  136.1630 O   0  0  0  0  0  0  0  0  0  0  0  0
  181.7550  178.2760  137.8350 C   0  0  0  0  0  2  0  0  0  0  0  0
  184.7140  179.8660  139.2920 O   0  0  0  0  0  1  0  0  0  0  0  0
  182.5230  180.5310  139.1160 O   0  0  0  0  0  0  0  0  0  0  0  0
  183.5390  179.5830  138.8920 C   0  0  0  0  0  0  0  0  0  0  0  0
  183.7520  173.1470  136.0920 C   0  0  0  0  0  2  0  0  0  0  0  0
  183.2630  170.2510  136.0900 O   0  0  0  0  0  1  0  0  0  0  0  0
  181.4220  171.8840  137.2800 O   0  0  0  0  0  0  0  0  0  0  0  0
  182.6090  171.7700  136.3780 P   0  0  1  0  0  4  0  0  0  0  0  0
  192.0800  175.3770  134.8290 C   0  0  0  0  0  2  0  0  0  0  0  0
  194.3570  176.4180  135.4100 C   0  0  0  0  0  1  0  0  0  0  0  0
  193.1480  175.6830  135.9460 C   0  0  0  0  0  2  0  0  0  0  0  0
  1  3  2  0  0  0  0
  2  7  2  0  0  0  0
  4  5  1  0  0  0  0
  5  1  2  0  0  0  0
  5  9  1  0  0  0  0
  6 11  1  0  0  0  0
  7  9  1  0  0  0  0
  8  4  2  0  0  0  0
  8  2  1  0  0  0  0
  9  6  2  0  0  0  0
 10 11  2  0  0  0  0
 11 12  1  0  0  0  0
 12 16  1  0  0  0  0
 13 17  2  0  0  0  0
 15 12  2  0  0  0  0
 15 13  1  0  0  0  0
 16 14  2  0  0  0  0
 17 14  1  0  0  0  0
 17 20  1  0  0  0  0
 18 19  1  0  0  0  0
 19 13  1  0  0  0  0
 20 21  1  0  0  0  0
 21 22  1  0  0  0  0
 22 23  1  0  0  0  0
 23 24  1  0  0  0  0
 25 26  1  0  0  0  0
 25 28  1  1  0  0  0
 26 24  1  6  0  0  0
 27 25  1  0  0  0  0
 27 26  1  0  0  0  0
 29 28  1  0  0  0  0
 30 29  1  0  0  0  0
 31 32  1  0  0  0  0
 31 30  1  0  0  0  0
 33 31  2  0  0  0  0
 34 45  1  6  0  0  0
 34  3  1  0  0  0  0
 36 41  1  0  0  0  0
 37 40  2  6  0  0  0
 37 34  1  0  0  0  0
 37 35  1  0  0  0  0
 38 35  1  0  0  0  0
 38 44  1  1  0  0  0
 39 37  1  0  0  0  0
 39 36  1  0  0  0  0
 41 38  1  0  0  0  0
 44 43  2  0  0  0  0
 44 42  1  0  0  0  0
 45 48  1  0  0  0  0
 48 46  1  1  0  0  0
 48 47  2  0  0  0  0
 49  2  1  0  0  0  0
 49 51  1  0  0  0  0
 50 51  1  0  0  0  0
M  END
>  <MODEL>
4

>  <REMARK>
 VINA RESULT:      -7.0      3.021     10.732
  Name = 
  20 active torsions:
  status: ('A' for Active; 'I' for Inactive)
    1  A    between atoms: C_1  and  C_9
    2  A    between atoms: C_1  and  C_10
    3  A    between atoms: C_1  and  P_34
    4  A    between atoms: C_4  and  C_28
    5  A    between atoms: C_6  and  N_38
    6  A    between atoms: C_6  and  C_39
    7  A    between atoms: C_7  and  C_17
    8  A    between atoms: C_7  and  C_18
    9  A    between atoms: C_8  and  C_32
   10  A    between atoms: C_10  and  P_49
   11  A    between atoms: C_15  and  C_32
   12  A    between atoms: C_16  and  O_27
   13  A    between atoms: C_17  and  C_36
   14  A    between atoms: N_23  and  C_28
   15  A    between atoms: C_26  and  O_29
   16  A    between atoms: C_26  and  C_50
   17  A    between atoms: O_29  and  C_39
   18  A    between atoms: C_31  and  N_38
   19  A    between atoms: C_33  and  C_42
   20  A    between atoms: C_36  and  C_37
                            x       y       z     vdW  Elec       q    Type
                         _______ _______ _______ _____ _____    ______ ____

>  <TORSDO>
F 20

$$$$
=
 OpenBabel10222417143D

 51 54  0  0  1  0  0  0  0  0999 V2000
  189.6260  177.6510  139.3560 C   0  0  0  0  0  0  0  0  0  0  0  0
  191.4410  175.9940  135.8950 C   0  0  0  0  0  0  0  0  0  0  0  0
  188.8960  178.2810  140.2570 C   0  0  0  0  0  3  0  0  0  0  0  0
  191.6320  176.5540  138.3610 C   0  0  0  0  0  3  0  0  0  0  0  0
  190.2620  177.1300  138.3010 C   0  0  0  0  0  0  0  0  0  0  0  0
  188.2370  177.3610  137.0890 N   0  0  0  0  0  0  0  0  0  0  0  0
  190.2000  176.5500  135.7750 C   0  0  0  0  0  3  0  0  0  0  0  0
  192.1670  175.9890  137.2500 C   0  0  0  0  0  3  0  0  0  0  0  0
  189.4910  177.0610  137.0100 C   0  0  0  0  0  0  0  0  0  0  0  0
  187.0280  178.3890  135.3760 O   0  0  0  0  0  0  0  0  0  0  0  0
  187.0920  177.4460  136.1750 C   0  0  0  0  0  0  0  0  0  0  0  0
  185.9970  176.4400  136.2680 C   0  0  0  0  0  0  0  0  0  0  0  0
  185.0230  174.3330  136.7830 C   0  0  0  0  0  0  0  0  0  0  0  0
  183.6420  175.9830  135.7790 C   0  0  0  0  0  3  0  0  0  0  0  0
  186.1380  175.1530  136.8250 C   0  0  0  0  0  3  0  0  0  0  0  0
  184.7250  176.7890  135.7360 C   0  0  0  0  0  3  0  0  0  0  0  0
  183.7560  174.7300  136.3500 C   0  0  0  0  0  0  0  0  0  0  0  0
  186.4920  172.3140  136.5560 C   0  0  0  0  0  1  0  0  0  0  0  0
  185.4100  173.0160  137.1470 O   0  0  0  0  0  0  0  0  0  0  0  0
  182.4200  174.0090  136.1600 C   0  0  0  0  0  2  0  0  0  0  0  0
  182.0980  173.0740  137.1650 O   0  0  0  0  0  0  0  0  0  0  0  0
  180.8660  172.5170  136.7960 C   0  0  0  0  0  2  0  0  0  0  0  0
  179.6840  173.3390  137.3640 C   0  0  0  0  0  2  0  0  0  0  0  0
  179.8960  173.5480  138.7780 N   0  0  0  0  0  2  0  0  0  0  0  0
  180.7320  175.6690  139.7890 C   0  0  2  0  0  3  0  0  0  0  0  0
  179.5960  174.9120  139.1540 C   0  0  2  0  0  3  0  0  0  0  0  0
  179.8050  175.1380  140.5760 O   0  0  0  0  0  0  0  0  0  0  0  0
  180.5690  177.1730  139.6840 C   0  0  0  0  0  2  0  0  0  0  0  0
  181.9150  177.8880  139.3480 C   0  0  0  0  0  2  0  0  0  0  0  0
  182.1600  178.5010  137.9360 C   0  0  0  0  0  2  0  0  0  0  0  0
  181.5650  179.9030  137.7640 C   0  0  0  0  0  0  0  0  0  0  0  0
  182.0080  180.8710  138.6710 O   0  0  0  0  0  1  0  0  0  0  0  0
  181.0030  180.3110  136.7470 O   0  0  0  0  0  0  0  0  0  0  0  0
  187.9760  177.7730  141.4060 C   0  0  1  0  0  3  0  0  0  0  0  0
  188.8300  177.7540  144.5220 C   0  0  0  0  0  2  0  0  0  0  0  0
  191.4610  177.5640  143.6300 C   0  0  0  0  0  2  0  0  0  0  0  0
  188.8760  176.9390  142.8960 P   0  0  2  0  0  0  0  0  0  0  0  0
  189.8260  177.0280  145.4850 C   0  0  1  0  0  3  0  0  0  0  0  0
  190.6710  176.5610  142.7920 C   0  0  0  0  0  2  0  0  0  0  0  0
  188.2190  175.6230  143.1680 O   0  0  0  0  0  0  0  0  0  0  0  0
  191.2730  177.2730  145.1090 C   0  0  0  0  0  2  0  0  0  0  0  0
  190.6550  177.1430  147.7490 O   0  0  0  0  0  1  0  0  0  0  0  0
  188.3840  177.3560  147.4940 O   0  0  0  0  0  0  0  0  0  0  0  0
  189.6630  177.1330  146.9530 C   0  0  0  0  0  0  0  0  0  0  0  0
  187.0010  178.9210  141.8740 C   0  0  0  0  0  2  0  0  0  0  0  0
  184.8940  179.6730  139.9720 O   0  0  0  0  0  1  0  0  0  0  0  0
  184.2720  177.9350  141.9880 O   0  0  0  0  0  0  0  0  0  0  0  0
  185.2430  178.9290  141.4350 P   0  0  1  0  0  4  0  0  0  0  0  0
  192.2890  175.6970  134.6780 C   0  0  0  0  0  2  0  0  0  0  0  0
  192.7640  173.1760  134.8550 C   0  0  0  0  0  1  0  0  0  0  0  0
  193.3750  174.5580  134.7710 C   0  0  0  0  0  2  0  0  0  0  0  0
  1  3  2  0  0  0  0
  2  8  1  0  0  0  0
  5  4  1  0  0  0  0
  5  1  2  0  0  0  0
  7  2  2  0  0  0  0
  7  9  1  0  0  0  0
  8  4  2  0  0  0  0
  9  6  2  0  0  0  0
  9  5  1  0  0  0  0
 10 11  2  0  0  0  0
 11 12  1  0  0  0  0
 11  6  1  0  0  0  0
 12 15  1  0  0  0  0
 13 15  2  0  0  0  0
 13 19  1  0  0  0  0
 14 17  2  0  0  0  0
 16 14  1  0  0  0  0
 16 12  2  0  0  0  0
 17 13  1  0  0  0  0
 18 19  1  0  0  0  0
 20 17  1  0  0  0  0
 20 21  1  0  0  0  0
 22 21  1  0  0  0  0
 22 23  1  0  0  0  0
 23 24  1  0  0  0  0
 25 28  1  6  0  0  0
 25 27  1  0  0  0  0
 26 24  1  1  0  0  0
 26 25  1  0  0  0  0
 26 27  1  0  0  0  0
 29 28  1  0  0  0  0
 30 29  1  0  0  0  0
 31 30  1  0  0  0  0
 31 32  1  0  0  0  0
 33 31  2  0  0  0  0
 34  3  1  6  0  0  0
 34 45  1  0  0  0  0
 34 37  1  0  0  0  0
 35 38  1  0  0  0  0
 36 41  1  0  0  0  0
 37 40  2  1  0  0  0
 37 35  1  0  0  0  0
 38 44  1  1  0  0  0
 39 37  1  0  0  0  0
 39 36  1  0  0  0  0
 41 38  1  0  0  0  0
 44 43  2  0  0  0  0
 44 42  1  0  0  0  0
 48 46  1  6  0  0  0
 48 45  1  0  0  0  0
 48 47  2  0  0  0  0
 49 51  1  0  0  0  0
 49  2  1  0  0  0  0
 51 50  1  0  0  0  0
M  END
>  <MODEL>
5

>  <REMARK>
 VINA RESULT:      -6.7      3.270      8.346
  Name = 
  20 active torsions:
  status: ('A' for Active; 'I' for Inactive)
    1  A    between atoms: C_1  and  C_9
    2  A    between atoms: C_1  and  C_10
    3  A    between atoms: C_1  and  P_34
    4  A    between atoms: C_4  and  C_28
    5  A    between atoms: C_6  and  N_38
    6  A    between atoms: C_6  and  C_39
    7  A    between atoms: C_7  and  C_17
    8  A    between atoms: C_7  and  C_18
    9  A    between atoms: C_8  and  C_32
   10  A    between atoms: C_10  and  P_49
   11  A    between atoms: C_15  and  C_32
   12  A    between atoms: C_16  and  O_27
   13  A    between atoms: C_17  and  C_36
   14  A    between atoms: N_23  and  C_28
   15  A    between atoms: C_26  and  O_29
   16  A    between atoms: C_26  and  C_50
   17  A    between atoms: O_29  and  C_39
   18  A    between atoms: C_31  and  N_38
   19  A    between atoms: C_33  and  C_42
   20  A    between atoms: C_36  and  C_37
                            x       y       z     vdW  Elec       q    Type
                         _______ _______ _______ _____ _____    ______ ____

>  <TORSDO>
F 20

$$$$
=
 OpenBabel10222417143D

 51 54  0  0  1  0  0  0  0  0999 V2000
  190.3430  176.9060  139.0870 C   0  0  0  0  0  0  0  0  0  0  0  0
  192.9740  174.5360  136.7460 C   0  0  0  0  0  0  0  0  0  0  0  0
  189.3390  177.5530  139.6480 C   0  0  0  0  0  3  0  0  0  0  0  0
  192.6970  176.4190  138.4220 C   0  0  0  0  0  3  0  0  0  0  0  0
  191.2250  176.2070  138.3640 C   0  0  0  0  0  0  0  0  0  0  0  0
  189.4260  174.8180  137.6900 N   0  0  0  0  0  0  0  0  0  0  0  0
  191.6290  174.3310  136.6210 C   0  0  0  0  0  3  0  0  0  0  0  0
  193.5140  175.6140  137.6980 C   0  0  0  0  0  3  0  0  0  0  0  0
  190.6750  175.0950  137.5140 C   0  0  0  0  0  0  0  0  0  0  0  0
  188.8450  172.7990  136.6700 O   0  0  0  0  0  0  0  0  0  0  0  0
  188.4460  173.8700  137.1480 C   0  0  0  0  0  0  0  0  0  0  0  0
  187.0020  174.2340  137.1190 C   0  0  0  0  0  0  0  0  0  0  0  0
  185.1300  175.6600  136.7740 C   0  0  0  0  0  0  0  0  0  0  0  0
  184.7250  173.4640  137.5830 C   0  0  0  0  0  3  0  0  0  0  0  0
  186.5000  175.4790  136.6870 C   0  0  0  0  0  3  0  0  0  0  0  0
  186.0610  173.2730  137.5810 C   0  0  0  0  0  3  0  0  0  0  0  0
  184.2150  174.6670  137.1340 C   0  0  0  0  0  0  0  0  0  0  0  0
  184.4440  177.9390  137.5610 C   0  0  0  0  0  1  0  0  0  0  0  0
  184.8330  177.0290  136.5440 O   0  0  0  0  0  0  0  0  0  0  0  0
  182.7020  174.6410  137.3530 C   0  0  0  0  0  2  0  0  0  0  0  0
  182.1740  175.7750  138.0080 O   0  0  0  0  0  0  0  0  0  0  0  0
  181.2870  175.2840  138.9770 C   0  0  0  0  0  2  0  0  0  0  0  0
  180.2620  176.3640  139.3980 C   0  0  0  0  0  2  0  0  0  0  0  0
  180.9610  177.4410  140.0620 N   0  0  0  0  0  2  0  0  0  0  0  0
  180.9790  179.8440  139.3930 C   0  0  2  0  0  3  0  0  0  0  0  0
  180.2190  178.6790  139.9690 C   0  0  2  0  0  3  0  0  0  0  0  0
  180.8630  179.7510  140.7110 O   0  0  0  0  0  0  0  0  0  0  0  0
  180.0720  180.9220  138.8340 C   0  0  0  0  0  2  0  0  0  0  0  0
  180.8720  182.1690  138.3450 C   0  0  0  0  0  2  0  0  0  0  0  0
  180.5150  182.8660  136.9960 C   0  0  0  0  0  2  0  0  0  0  0  0
  181.1940  184.2280  136.8120 C   0  0  0  0  0  0  0  0  0  0  0  0
  182.3350  184.4530  137.5880 O   0  0  0  0  0  1  0  0  0  0  0  0
  181.0180  184.9800  135.8530 O   0  0  0  0  0  0  0  0  0  0  0  0
  188.6850  177.4620  141.0580 C   0  0  1  0  0  3  0  0  0  0  0  0
  189.3440  177.2630  144.2140 C   0  0  0  0  0  2  0  0  0  0  0  0
  191.6640  178.6990  143.6530 C   0  0  0  0  0  2  0  0  0  0  0  0
  189.8640  176.9540  142.4980 P   0  0  2  0  0  0  0  0  0  0  0  0
  190.5560  177.0030  145.1690 C   0  0  1  0  0  3  0  0  0  0  0  0
  191.5730  177.6260  142.5690 C   0  0  0  0  0  2  0  0  0  0  0  0
  190.0340  175.4680  142.4680 O   0  0  0  0  0  0  0  0  0  0  0  0
  191.6360  178.0550  145.0290 C   0  0  0  0  0  2  0  0  0  0  0  0
  189.2100  176.8980  147.1710 O   0  0  0  0  0  0  0  0  0  0  0  0
  191.3400  176.0570  147.3410 O   0  0  0  0  0  1  0  0  0  0  0  0
  190.3310  176.7010  146.6010 C   0  0  0  0  0  0  0  0  0  0  0  0
  187.8960  178.7880  141.3810 C   0  0  0  0  0  2  0  0  0  0  0  0
  185.2330  179.3780  140.2930 O   0  0  0  0  0  1  0  0  0  0  0  0
  185.4060  177.9270  142.6030 O   0  0  0  0  0  0  0  0  0  0  0  0
  186.0990  178.8080  141.6130 P   0  0  1  0  0  4  0  0  0  0  0  0
  193.9480  173.9910  135.7250 C   0  0  0  0  0  2  0  0  0  0  0  0
  193.8880  171.5300  136.4650 C   0  0  0  0  0  1  0  0  0  0  0  0
  193.8250  172.4820  135.2900 C   0  0  0  0  0  2  0  0  0  0  0  0
  1  3  2  0  0  0  0
  2  8  1  0  0  0  0
  5  4  1  0  0  0  0
  5  1  2  0  0  0  0
  7  2  2  0  0  0  0
  7  9  1  0  0  0  0
  8  4  2  0  0  0  0
  9  6  2  0  0  0  0
  9  5  1  0  0  0  0
 10 11  2  0  0  0  0
 11  6  1  0  0  0  0
 12 11  1  0  0  0  0
 12 16  1  0  0  0  0
 13 17  2  0  0  0  0
 15 13  1  0  0  0  0
 15 12  2  0  0  0  0
 16 14  2  0  0  0  0
 17 20  1  0  0  0  0
 17 14  1  0  0  0  0
 19 13  1  0  0  0  0
 19 18  1  0  0  0  0
 20 21  1  0  0  0  0
 21 22  1  0  0  0  0
 22 23  1  0  0  0  0
 23 24  1  0  0  0  0
 25 28  1  6  0  0  0
 25 26  1  0  0  0  0
 25 27  1  0  0  0  0
 26 24  1  1  0  0  0
 26 27  1  0  0  0  0
 29 28  1  0  0  0  0
 30 29  1  0  0  0  0
 31 30  1  0  0  0  0
 31 32  1  0  0  0  0
 33 31  2  0  0  0  0
 34  3  1  6  0  0  0
 34 45  1  0  0  0  0
 34 37  1  0  0  0  0
 35 38  1  0  0  0  0
 36 41  1  0  0  0  0
 37 40  2  6  0  0  0
 37 39  1  0  0  0  0
 37 35  1  0  0  0  0
 38 44  1  1  0  0  0
 39 36  1  0  0  0  0
 41 38  1  0  0  0  0
 44 42  2  0  0  0  0
 44 43  1  0  0  0  0
 45 48  1  0  0  0  0
 48 46  1  6  0  0  0
 48 47  2  0  0  0  0
 49  2  1  0  0  0  0
 51 49  1  0  0  0  0
 51 50  1  0  0  0  0
M  END
>  <MODEL>
6

>  <REMARK>
 VINA RESULT:      -6.6      2.882      9.290
  Name = 
  20 active torsions:
  status: ('A' for Active; 'I' for Inactive)
    1  A    between atoms: C_1  and  C_9
    2  A    between atoms: C_1  and  C_10
    3  A    between atoms: C_1  and  P_34
    4  A    between atoms: C_4  and  C_28
    5  A    between atoms: C_6  and  N_38
    6  A    between atoms: C_6  and  C_39
    7  A    between atoms: C_7  and  C_17
    8  A    between atoms: C_7  and  C_18
    9  A    between atoms: C_8  and  C_32
   10  A    between atoms: C_10  and  P_49
   11  A    between atoms: C_15  and  C_32
   12  A    between atoms: C_16  and  O_27
   13  A    between atoms: C_17  and  C_36
   14  A    between atoms: N_23  and  C_28
   15  A    between atoms: C_26  and  O_29
   16  A    between atoms: C_26  and  C_50
   17  A    between atoms: O_29  and  C_39
   18  A    between atoms: C_31  and  N_38
   19  A    between atoms: C_33  and  C_42
   20  A    between atoms: C_36  and  C_37
                            x       y       z     vdW  Elec       q    Type
                         _______ _______ _______ _____ _____    ______ ____

>  <TORSDO>
F 20

$$$$
=
 OpenBabel10222417143D

 51 54  0  0  1  0  0  0  0  0999 V2000
  189.5490  177.6420  139.2960 C   0  0  0  0  0  0  0  0  0  0  0  0
  191.3210  175.9720  135.8200 C   0  0  0  0  0  0  0  0  0  0  0  0
  188.8310  178.2760  140.2040 C   0  0  0  0  0  3  0  0  0  0  0  0
  191.5410  176.5370  138.2820 C   0  0  0  0  0  3  0  0  0  0  0  0
  190.1720  177.1170  138.2350 C   0  0  0  0  0  0  0  0  0  0  0  0
  188.1340  177.3500  137.0450 N   0  0  0  0  0  0  0  0  0  0  0  0
  190.0800  176.5310  135.7120 C   0  0  0  0  0  3  0  0  0  0  0  0
  192.0620  175.9680  137.1660 C   0  0  0  0  0  3  0  0  0  0  0  0
  189.3860  177.0470  136.9540 C   0  0  0  0  0  0  0  0  0  0  0  0
  187.0710  178.1070  135.1090 O   0  0  0  0  0  0  0  0  0  0  0  0
  186.9790  177.4350  136.1450 C   0  0  0  0  0  0  0  0  0  0  0  0
  185.6990  176.7720  136.5190 C   0  0  0  0  0  0  0  0  0  0  0  0
  184.3310  175.0600  137.4430 C   0  0  0  0  0  0  0  0  0  0  0  0
  183.2570  176.9130  136.4160 C   0  0  0  0  0  3  0  0  0  0  0  0
  185.6060  175.5540  137.2230 C   0  0  0  0  0  3  0  0  0  0  0  0
  184.4840  177.3930  136.1190 C   0  0  0  0  0  3  0  0  0  0  0  0
  183.1480  175.7370  137.1330 C   0  0  0  0  0  0  0  0  0  0  0  0
  184.2530  172.5750  137.1240 C   0  0  0  0  0  1  0  0  0  0  0  0
  184.4320  173.7300  137.9290 O   0  0  0  0  0  0  0  0  0  0  0  0
  181.6630  175.3820  137.2230 C   0  0  0  0  0  2  0  0  0  0  0  0
  181.1710  175.1980  138.5320 O   0  0  0  0  0  0  0  0  0  0  0  0
  179.7790  175.0890  138.4110 C   0  0  0  0  0  2  0  0  0  0  0  0
  179.2170  176.1400  137.4240 C   0  0  0  0  0  2  0  0  0  0  0  0
  179.0690  177.4000  138.1170 N   0  0  0  0  0  2  0  0  0  0  0  0
  180.3090  179.5430  137.8130 C   0  0  2  0  0  3  0  0  0  0  0  0
  179.3700  178.5130  137.2430 C   0  0  2  0  0  3  0  0  0  0  0  0
  179.0050  179.7860  137.8450 O   0  0  0  0  0  0  0  0  0  0  0  0
  180.9970  180.3690  136.7440 C   0  0  0  0  0  2  0  0  0  0  0  0
  180.4810  181.8410  136.7150 C   0  0  0  0  0  2  0  0  0  0  0  0
  180.7630  182.8080  137.9050 C   0  0  0  0  0  2  0  0  0  0  0  0
  181.1310  184.2300  137.4660 C   0  0  0  0  0  0  0  0  0  0  0  0
  180.1670  185.2130  137.7080 O   0  0  0  0  0  1  0  0  0  0  0  0
  182.2730  184.6200  137.2230 O   0  0  0  0  0  0  0  0  0  0  0  0
  187.9220  177.7730  141.3650 C   0  0  1  0  0  3  0  0  0  0  0  0
  188.8070  177.8390  144.4710 C   0  0  0  0  0  2  0  0  0  0  0  0
  191.4300  177.6340  143.5570 C   0  0  0  0  0  2  0  0  0  0  0  0
  188.8400  176.9820  142.8660 P   0  0  2  0  0  0  0  0  0  0  0  0
  189.8160  177.1420  145.4430 C   0  0  1  0  0  3  0  0  0  0  0  0
  190.6350  176.6070  142.7540 C   0  0  0  0  0  2  0  0  0  0  0  0
  188.1900  175.6710  143.1800 O   0  0  0  0  0  0  0  0  0  0  0  0
  191.2580  177.3820  145.0460 C   0  0  0  0  0  2  0  0  0  0  0  0
  190.6080  177.0110  147.7190 O   0  0  0  0  0  1  0  0  0  0  0  0
  188.4960  177.8630  147.4340 O   0  0  0  0  0  0  0  0  0  0  0  0
  189.6670  177.2860  146.9090 C   0  0  0  0  0  0  0  0  0  0  0  0
  186.9290  178.9120  141.8140 C   0  0  0  0  0  2  0  0  0  0  0  0
  184.9310  179.7350  139.8250 O   0  0  0  0  0  1  0  0  0  0  0  0
  184.1920  177.9410  141.7510 O   0  0  0  0  0  0  0  0  0  0  0  0
  185.1970  178.9450  141.2820 P   0  0  1  0  0  4  0  0  0  0  0  0
  192.1550  175.6690  134.5940 C   0  0  0  0  0  2  0  0  0  0  0  0
  194.5650  174.8060  134.8250 C   0  0  0  0  0  1  0  0  0  0  0  0
  193.6900  176.0230  134.6160 C   0  0  0  0  0  2  0  0  0  0  0  0
  1  3  2  0  0  0  0
  2  8  1  0  0  0  0
  5  4  1  0  0  0  0
  5  1  2  0  0  0  0
  7  2  2  0  0  0  0
  7  9  1  0  0  0  0
  8  4  2  0  0  0  0
  9  6  2  0  0  0  0
  9  5  1  0  0  0  0
 10 11  2  0  0  0  0
 11 12  1  0  0  0  0
 11  6  1  0  0  0  0
 12 15  1  0  0  0  0
 13 19  1  0  0  0  0
 14 17  2  0  0  0  0
 15 13  2  0  0  0  0
 16 14  1  0  0  0  0
 16 12  2  0  0  0  0
 17 20  1  0  0  0  0
 17 13  1  0  0  0  0
 18 19  1  0  0  0  0
 20 21  1  0  0  0  0
 22 21  1  0  0  0  0
 23 24  1  0  0  0  0
 23 22  1  0  0  0  0
 25 28  1  6  0  0  0
 25 27  1  0  0  0  0
 26 25  1  0  0  0  0
 26 27  1  0  0  0  0
 26 24  1  1  0  0  0
 29 28  1  0  0  0  0
 29 30  1  0  0  0  0
 31 32  1  0  0  0  0
 31 30  1  0  0  0  0
 33 31  2  0  0  0  0
 34  3  1  6  0  0  0
 34 45  1  0  0  0  0
 34 37  1  0  0  0  0
 35 38  1  0  0  0  0
 36 41  1  0  0  0  0
 37 40  2  1  0  0  0
 37 35  1  0  0  0  0
 38 44  1  1  0  0  0
 39 37  1  0  0  0  0
 39 36  1  0  0  0  0
 41 38  1  0  0  0  0
 44 43  2  0  0  0  0
 44 42  1  0  0  0  0
 48 46  1  6  0  0  0
 48 47  2  0  0  0  0
 48 45  1  0  0  0  0
 49 51  1  0  0  0  0
 49  2  1  0  0  0  0
 51 50  1  0  0  0  0
M  END
>  <MODEL>
7

>  <REMARK>
 VINA RESULT:      -6.6      3.448      9.036
  Name = 
  20 active torsions:
  status: ('A' for Active; 'I' for Inactive)
    1  A    between atoms: C_1  and  C_9
    2  A    between atoms: C_1  and  C_10
    3  A    between atoms: C_1  and  P_34
    4  A    between atoms: C_4  and  C_28
    5  A    between atoms: C_6  and  N_38
    6  A    between atoms: C_6  and  C_39
    7  A    between atoms: C_7  and  C_17
    8  A    between atoms: C_7  and  C_18
    9  A    between atoms: C_8  and  C_32
   10  A    between atoms: C_10  and  P_49
   11  A    between atoms: C_15  and  C_32
   12  A    between atoms: C_16  and  O_27
   13  A    between atoms: C_17  and  C_36
   14  A    between atoms: N_23  and  C_28
   15  A    between atoms: C_26  and  O_29
   16  A    between atoms: C_26  and  C_50
   17  A    between atoms: O_29  and  C_39
   18  A    between atoms: C_31  and  N_38
   19  A    between atoms: C_33  and  C_42
   20  A    between atoms: C_36  and  C_37
                            x       y       z     vdW  Elec       q    Type
                         _______ _______ _______ _____ _____    ______ ____

>  <TORSDO>
F 20

$$$$
=
 OpenBabel10222417143D

 51 54  0  0  1  0  0  0  0  0999 V2000
  188.6240  175.2280  135.6970 C   0  0  0  0  0  0  0  0  0  0  0  0
  184.7880  174.0740  137.1010 C   0  0  0  0  0  0  0  0  0  0  0  0
  189.7120  175.8310  135.2560 C   0  0  0  0  0  3  0  0  0  0  0  0
  186.9960  173.3750  136.0690 C   0  0  0  0  0  3  0  0  0  0  0  0
  187.4240  174.7990  136.1070 C   0  0  0  0  0  0  0  0  0  0  0  0
  187.0310  176.9890  136.9270 N   0  0  0  0  0  0  0  0  0  0  0  0
  185.1140  175.4010  137.1170 C   0  0  0  0  0  3  0  0  0  0  0  0
  185.7830  173.0320  136.5680 C   0  0  0  0  0  3  0  0  0  0  0  0
  186.5080  175.8280  136.7120 C   0  0  0  0  0  0  0  0  0  0  0  0
  187.2350  179.3010  137.1850 O   0  0  0  0  0  0  0  0  0  0  0  0
  186.5980  178.2800  137.4740 C   0  0  0  0  0  0  0  0  0  0  0  0
  185.4450  178.3340  138.4160 C   0  0  0  0  0  0  0  0  0  0  0  0
  183.1490  178.3830  139.0360 C   0  0  0  0  0  0  0  0  0  0  0  0
  184.7740  178.5230  140.7630 C   0  0  0  0  0  3  0  0  0  0  0  0
  184.0910  178.2690  138.0270 C   0  0  0  0  0  3  0  0  0  0  0  0
  185.7220  178.4870  139.8020 C   0  0  0  0  0  3  0  0  0  0  0  0
  183.4440  178.4290  140.4010 C   0  0  0  0  0  0  0  0  0  0  0  0
  180.9490  177.4900  138.2330 C   0  0  0  0  0  1  0  0  0  0  0  0
  181.8670  178.5500  138.4500 O   0  0  0  0  0  0  0  0  0  0  0  0
  182.6040  178.6080  141.6670 C   0  0  0  0  0  2  0  0  0  0  0  0
  183.2470  179.2990  142.7170 O   0  0  0  0  0  0  0  0  0  0  0  0
  182.8590  178.6530  143.8990 C   0  0  0  0  0  2  0  0  0  0  0  0
  183.7950  179.0240  145.0750 C   0  0  0  0  0  2  0  0  0  0  0  0
  185.1450  178.6280  144.7430 N   0  0  0  0  0  2  0  0  0  0  0  0
  187.2610  177.8720  145.8230 C   0  0  2  0  0  3  0  0  0  0  0  0
  185.7560  177.8990  145.8320 C   0  0  2  0  0  3  0  0  0  0  0  0
  186.6050  176.8210  145.3500 O   0  0  0  0  0  0  0  0  0  0  0  0
  187.8540  177.5830  147.1880 C   0  0  0  0  0  2  0  0  0  0  0  0
  189.4070  177.4350  147.1360 C   0  0  0  0  0  2  0  0  0  0  0  0
  190.1640  177.4610  145.7730 C   0  0  0  0  0  2  0  0  0  0  0  0
  191.5050  176.7180  145.8030 C   0  0  0  0  0  0  0  0  0  0  0  0
  192.0560  176.5010  147.0710 O   0  0  0  0  0  1  0  0  0  0  0  0
  191.9600  176.0460  144.8780 O   0  0  0  0  0  0  0  0  0  0  0  0
  191.1320  176.0180  135.8670 C   0  0  1  0  0  3  0  0  0  0  0  0
  190.1430  176.9070  138.8110 C   0  0  0  0  0  2  0  0  0  0  0  0
  192.8010  177.5600  139.3270 C   0  0  0  0  0  2  0  0  0  0  0  0
  191.2430  175.8800  137.7890 P   0  0  2  0  0  0  0  0  0  0  0  0
  190.5930  176.8050  140.3060 C   0  0  1  0  0  3  0  0  0  0  0  0
  192.8390  176.1950  138.6430 C   0  0  0  0  0  2  0  0  0  0  0  0
  190.8590  174.4900  138.1860 O   0  0  0  0  0  0  0  0  0  0  0  0
  191.9140  177.5030  140.5600 C   0  0  0  0  0  2  0  0  0  0  0  0
  189.5030  176.3610  142.4140 O   0  0  0  0  0  1  0  0  0  0  0  0
  188.9550  178.3430  141.3930 O   0  0  0  0  0  0  0  0  0  0  0  0
  189.6430  177.1150  141.3990 C   0  0  0  0  0  0  0  0  0  0  0  0
  192.1660  175.0710  135.1470 C   0  0  0  0  0  2  0  0  0  0  0  0
  194.3380  176.9990  135.5820 O   0  0  0  0  0  1  0  0  0  0  0  0
  194.9860  174.3750  135.1700 O   0  0  0  0  0  0  0  0  0  0  0  0
  193.9390  175.4410  135.1000 P   0  0  1  0  0  4  0  0  0  0  0  0
  183.3540  173.6170  137.2550 C   0  0  0  0  0  2  0  0  0  0  0  0
  180.8370  173.9870  136.8820 C   0  0  0  0  0  1  0  0  0  0  0  0
  182.2330  174.3460  136.4210 C   0  0  0  0  0  2  0  0  0  0  0  0
  1  5  2  0  0  0  0
  2  7  2  0  0  0  0
  2 49  1  0  0  0  0
  3  1  2  0  0  0  0
  3 34  1  0  0  0  0
  4  5  1  0  0  0  0
  4  8  2  0  0  0  0
  5  9  1  0  0  0  0
  6 11  1  0  0  0  0
  8  2  1  0  0  0  0
  9  6  2  0  0  0  0
  9  7  1  0  0  0  0
 10 11  2  0  0  0  0
 11 12  1  0  0  0  0
 12 16  1  0  0  0  0
 13 17  2  0  0  0  0
 15 12  2  0  0  0  0
 15 13  1  0  0  0  0
 16 14  2  0  0  0  0
 17 14  1  0  0  0  0
 17 20  1  0  0  0  0
 18 19  1  0  0  0  0
 19 13  1  0  0  0  0
 20 21  1  0  0  0  0
 21 22  1  0  0  0  0
 22 23  1  0  0  0  0
 24 23  1  0  0  0  0
 25 26  1  0  0  0  0
 25 28  1  1  0  0  0
 26 24  1  6  0  0  0
 27 25  1  0  0  0  0
 27 26  1  0  0  0  0
 29 28  1  0  0  0  0
 30 31  1  0  0  0  0
 30 29  1  0  0  0  0
 31 32  1  0  0  0  0
 33 31  2  0  0  0  0
 34 45  1  6  0  0  0
 34 37  1  0  0  0  0
 35 38  1  0  0  0  0
 36 41  1  0  0  0  0
 37 40  2  1  0  0  0
 37 39  1  0  0  0  0
 37 35  1  0  0  0  0
 38 41  1  0  0  0  0
 38 44  1  1  0  0  0
 39 36  1  0  0  0  0
 43 44  2  0  0  0  0
 44 42  1  0  0  0  0
 48 45  1  0  0  0  0
 48 47  2  1  0  0  0
 48 46  1  0  0  0  0
 51 50  1  0  0  0  0
 51 49  1  0  0  0  0
M  END
>  <MODEL>
8

>  <REMARK>
 VINA RESULT:      -6.5      2.556      7.713
  Name = 
  20 active torsions:
  status: ('A' for Active; 'I' for Inactive)
    1  A    between atoms: C_1  and  C_9
    2  A    between atoms: C_1  and  C_10
    3  A    between atoms: C_1  and  P_34
    4  A    between atoms: C_4  and  C_28
    5  A    between atoms: C_6  and  N_38
    6  A    between atoms: C_6  and  C_39
    7  A    between atoms: C_7  and  C_17
    8  A    between atoms: C_7  and  C_18
    9  A    between atoms: C_8  and  C_32
   10  A    between atoms: C_10  and  P_49
   11  A    between atoms: C_15  and  C_32
   12  A    between atoms: C_16  and  O_27
   13  A    between atoms: C_17  and  C_36
   14  A    between atoms: N_23  and  C_28
   15  A    between atoms: C_26  and  O_29
   16  A    between atoms: C_26  and  C_50
   17  A    between atoms: O_29  and  C_39
   18  A    between atoms: C_31  and  N_38
   19  A    between atoms: C_33  and  C_42
   20  A    between atoms: C_36  and  C_37
                            x       y       z     vdW  Elec       q    Type
                         _______ _______ _______ _____ _____    ______ ____

>  <TORSDO>
F 20

$$$$
=
 OpenBabel10222417143D

 51 54  0  0  1  0  0  0  0  0999 V2000
  185.2290  174.5690  137.1700 C   0  0  0  0  0  0  0  0  0  0  0  0
  188.9520  174.7050  135.1350 C   0  0  0  0  0  0  0  0  0  0  0  0
  184.1920  174.6850  137.9780 C   0  0  0  0  0  3  0  0  0  0  0  0
  186.7210  173.5410  135.4560 C   0  0  0  0  0  3  0  0  0  0  0  0
  186.3890  174.5440  136.5040 C   0  0  0  0  0  0  0  0  0  0  0  0
  186.9130  176.6140  137.5340 N   0  0  0  0  0  0  0  0  0  0  0  0
  188.7150  175.6220  136.1200 C   0  0  0  0  0  3  0  0  0  0  0  0
  187.8990  173.6390  134.7910 C   0  0  0  0  0  3  0  0  0  0  0  0
  187.3600  175.6560  136.7930 C   0  0  0  0  0  0  0  0  0  0  0  0
  187.1790  178.9340  137.4910 O   0  0  0  0  0  0  0  0  0  0  0  0
  187.4210  177.8750  138.0860 C   0  0  0  0  0  0  0  0  0  0  0  0
  188.2710  177.8570  139.3100 C   0  0  0  0  0  0  0  0  0  0  0  0
  190.2440  177.4580  140.5750 C   0  0  0  0  0  0  0  0  0  0  0  0
  188.3400  178.3010  141.7160 C   0  0  0  0  0  3  0  0  0  0  0  0
  189.6230  177.4570  139.3380 C   0  0  0  0  0  3  0  0  0  0  0  0
  187.6760  178.2460  140.5410 C   0  0  0  0  0  3  0  0  0  0  0  0
  189.6730  177.9420  141.7550 C   0  0  0  0  0  0  0  0  0  0  0  0
  192.4820  177.1290  139.4950 C   0  0  0  0  0  1  0  0  0  0  0  0
  191.4960  176.7980  140.4600 O   0  0  0  0  0  0  0  0  0  0  0  0
  190.1260  177.9930  143.2150 C   0  0  0  0  0  2  0  0  0  0  0  0
  189.8550  176.8300  143.9660 O   0  0  0  0  0  0  0  0  0  0  0  0
  190.7770  176.8280  145.0230 C   0  0  0  0  0  2  0  0  0  0  0  0
  190.1430  177.3800  146.3220 C   0  0  0  0  0  2  0  0  0  0  0  0
  188.8560  176.7530  146.5190 N   0  0  0  0  0  2  0  0  0  0  0  0
  186.5740  177.5590  145.9140 C   0  0  2  0  0  3  0  0  0  0  0  0
  187.8230  177.7420  146.7360 C   0  0  2  0  0  3  0  0  0  0  0  0
  187.4780  178.4410  145.5080 O   0  0  0  0  0  0  0  0  0  0  0  0
  185.3650  178.2470  146.5170 C   0  0  0  0  0  2  0  0  0  0  0  0
  184.3070  178.6310  145.4360 C   0  0  0  0  0  2  0  0  0  0  0  0
  184.6290  179.7050  144.3520 C   0  0  0  0  0  2  0  0  0  0  0  0
  184.8130  179.1200  142.9470 C   0  0  0  0  0  0  0  0  0  0  0  0
  184.2090  177.8800  142.7170 O   0  0  0  0  0  1  0  0  0  0  0  0
  185.1560  179.7630  141.9550 O   0  0  0  0  0  0  0  0  0  0  0  0
  182.7770  175.3060  137.7910 C   0  0  1  0  0  3  0  0  0  0  0  0
  181.2730  178.1440  138.1430 C   0  0  0  0  0  2  0  0  0  0  0  0
  183.8060  179.2590  138.4610 C   0  0  0  0  0  2  0  0  0  0  0  0
  182.4190  176.9010  138.8170 P   0  0  2  0  0  0  0  0  0  0  0  0
  181.3450  179.4350  139.0240 C   0  0  1  0  0  3  0  0  0  0  0  0
  183.8020  178.0000  139.3240 C   0  0  0  0  0  2  0  0  0  0  0  0
  181.7540  176.5010  140.0960 O   0  0  0  0  0  0  0  0  0  0  0  0
  182.6590  180.1720  138.8620 C   0  0  0  0  0  2  0  0  0  0  0  0
  179.5540  180.6580  140.0830 O   0  0  0  0  0  1  0  0  0  0  0  0
  179.9550  181.1620  137.8790 O   0  0  0  0  0  0  0  0  0  0  0  0
  180.2240  180.4010  139.0320 C   0  0  0  0  0  0  0  0  0  0  0  0
  182.4670  175.5090  136.2590 C   0  0  0  0  0  2  0  0  0  0  0  0
  181.9030  178.0130  134.8320 O   0  0  0  0  0  1  0  0  0  0  0  0
  184.4990  177.4200  135.4510 O   0  0  0  0  0  0  0  0  0  0  0  0
  183.0900  176.9350  135.3310 P   0  0  1  0  0  4  0  0  0  0  0  0
  190.3490  174.4650  134.6070 C   0  0  0  0  0  2  0  0  0  0  0  0
  192.5170  173.8720  135.8540 C   0  0  0  0  0  1  0  0  0  0  0  0
  191.5760  174.9850  135.4470 C   0  0  0  0  0  2  0  0  0  0  0  0
  1  3  2  0  0  0  0
  2  7  2  0  0  0  0
  4  5  1  0  0  0  0
  5  9  1  0  0  0  0
  5  1  2  0  0  0  0
  6 11  1  0  0  0  0
  7  9  1  0  0  0  0
  8  2  1  0  0  0  0
  8  4  2  0  0  0  0
  9  6  2  0  0  0  0
 10 11  2  0  0  0  0
 11 12  1  0  0  0  0
 12 15  2  0  0  0  0
 12 16  1  0  0  0  0
 13 17  2  0  0  0  0
 14 17  1  0  0  0  0
 15 13  1  0  0  0  0
 16 14  2  0  0  0  0
 17 20  1  0  0  0  0
 18 19  1  0  0  0  0
 19 13  1  0  0  0  0
 20 21  1  0  0  0  0
 21 22  1  0  0  0  0
 22 23  1  0  0  0  0
 23 24  1  0  0  0  0
 25 28  1  1  0  0  0
 25 26  1  0  0  0  0
 26 24  1  6  0  0  0
 27 25  1  0  0  0  0
 27 26  1  0  0  0  0
 29 28  1  0  0  0  0
 30 29  1  0  0  0  0
 31 30  1  0  0  0  0
 32 31  1  0  0  0  0
 33 31  2  0  0  0  0
 34 45  1  6  0  0  0
 34  3  1  0  0  0  0
 34 37  1  0  0  0  0
 35 37  1  0  0  0  0
 35 38  1  0  0  0  0
 36 41  1  0  0  0  0
 36 39  1  0  0  0  0
 37 39  1  0  0  0  0
 37 40  2  1  0  0  0
 38 44  1  6  0  0  0
 41 38  1  0  0  0  0
 43 44  2  0  0  0  0
 44 42  1  0  0  0  0
 48 46  1  1  0  0  0
 48 47  2  0  0  0  0
 48 45  1  0  0  0  0
 49  2  1  0  0  0  0
 49 51  1  0  0  0  0
 51 50  1  0  0  0  0
M  END
>  <MODEL>
9

>  <REMARK>
 VINA RESULT:      -6.5      3.049     10.444
  Name = 
  20 active torsions:
  status: ('A' for Active; 'I' for Inactive)
    1  A    between atoms: C_1  and  C_9
    2  A    between atoms: C_1  and  C_10
    3  A    between atoms: C_1  and  P_34
    4  A    between atoms: C_4  and  C_28
    5  A    between atoms: C_6  and  N_38
    6  A    between atoms: C_6  and  C_39
    7  A    between atoms: C_7  and  C_17
    8  A    between atoms: C_7  and  C_18
    9  A    between atoms: C_8  and  C_32
   10  A    between atoms: C_10  and  P_49
   11  A    between atoms: C_15  and  C_32
   12  A    between atoms: C_16  and  O_27
   13  A    between atoms: C_17  and  C_36
   14  A    between atoms: N_23  and  C_28
   15  A    between atoms: C_26  and  O_29
   16  A    between atoms: C_26  and  C_50
   17  A    between atoms: O_29  and  C_39
   18  A    between atoms: C_31  and  N_38
   19  A    between atoms: C_33  and  C_42
   20  A    between atoms: C_36  and  C_37
                            x       y       z     vdW  Elec       q    Type
                         _______ _______ _______ _____ _____    ______ ____

>  <TORSDO>
F 20

$$$$
