=
 OpenBabel10222416303D

 32 34  0  0  1  0  0  0  0  0999 V2000
  188.9180  176.8950  141.5870 C   0  0  1  0  0  3  0  0  0  0  0  0
  191.7780  178.6070  143.6970 C   0  0  0  0  0  2  0  0  0  0  0  0
  191.2750  178.1050  145.0590 C   0  0  2  0  0  3  0  0  0  0  0  0
  189.9770  177.0360  142.6830 C   0  0  1  0  0  3  0  0  0  0  0  0
  189.3550  177.3110  147.4920 C   0  0  1  0  0  0  0  0  0  0  0  0
  189.0070  177.8590  148.7250 O   0  0  0  0  0  1  0  0  0  0  0  0
  188.5080  176.2470  147.2360 F   0  0  0  0  0  0  0  0  0  0  0  0
  190.7260  175.7140  142.8960 C   0  0  0  0  0  2  0  0  0  0  0  0
  189.1340  178.3650  146.4300 C   0  0  0  0  0  3  0  0  0  0  0  0
  191.7710  175.7470  144.0160 C   0  0  0  0  0  2  0  0  0  0  0  0
  191.1750  176.0070  146.3690 C   0  0  0  0  0  3  0  0  0  0  0  0
  191.3560  176.5960  145.1850 C   0  0  0  0  0  0  0  0  0  0  0  0
  189.9190  178.6840  145.3850 C   0  0  0  0  0  3  0  0  0  0  0  0
  190.7930  176.7970  147.5860 C   0  0  0  0  0  2  0  0  0  0  0  0
  190.8860  178.2620  142.4900 C   0  0  0  0  0  2  0  0  0  0  0  0
  185.9180  178.2510  142.9120 C   0  0  0  0  0  0  0  0  0  0  0  0
  186.8880  177.3230  142.9800 N   0  0  0  0  0  0  0  0  0  0  0  0
  186.1190  179.0980  141.8380 C   0  0  0  0  0  3  0  0  0  0  0  0
  187.6630  177.6370  141.9250 C   0  0  0  0  0  0  0  0  0  0  0  0
  187.2180  178.6790  141.2560 O   0  0  0  0  0  0  0  0  0  0  0  0
  184.9180  178.8540  145.1750 C   0  0  0  0  0  0  0  0  0  0  0  0
  183.7570  178.8610  145.9980 N   0  0  0  0  0  1  0  0  0  0  0  0
  184.8390  178.3160  143.8520 N   0  0  0  0  0  2  0  0  0  0  0  0
  185.9990  179.3210  145.6240 O   0  0  0  0  0  0  0  0  0  0  0  0
  189.1570  178.3180  139.6660 O   0  0  0  0  0  0  0  0  0  0  0  0
  190.1940  176.2320  139.5130 N   0  0  0  0  0  2  0  0  0  0  0  0
  189.4170  177.2060  140.2070 C   0  0  0  0  0  0  0  0  0  0  0  0
  190.7140  176.4720  138.1770 C   0  0  0  0  0  2  0  0  0  0  0  0
  191.8530  175.5100  137.8820 C   0  0  1  0  0  3  0  0  0  0  0  0
  191.3330  174.1820  137.5960 N   0  0  0  0  0  1  0  0  0  0  0  0
  192.6990  176.0090  136.7180 C   0  0  0  0  0  2  0  0  0  0  0  0
  193.9210  176.6420  137.1920 N   0  0  0  0  0  1  0  0  0  0  0  0
  1 27  1  6  0  0  0
  1 19  1  0  0  0  0
  3  2  1  6  0  0  0
  3 12  1  0  0  0  0
  3 13  1  0  0  0  0
  4  1  1  6  0  0  0
  4  8  1  0  0  0  0
  5  7  1  6  0  0  0
  5 14  1  0  0  0  0
  5  6  1  0  0  0  0
  8 10  1  0  0  0  0
  9  5  1  0  0  0  0
 10 12  1  0  0  0  0
 11 14  1  0  0  0  0
 12 11  2  0  0  0  0
 13  9  2  0  0  0  0
 15  4  1  0  0  0  0
 15  2  1  0  0  0  0
 16 17  1  0  0  0  0
 16 23  1  0  0  0  0
 18 16  2  0  0  0  0
 19 17  2  0  0  0  0
 20 18  1  0  0  0  0
 20 19  1  0  0  0  0
 21 24  2  0  0  0  0
 21 22  1  0  0  0  0
 23 21  1  0  0  0  0
 25 27  2  0  0  0  0
 26 27  1  0  0  0  0
 28 26  1  0  0  0  0
 29 30  1  6  0  0  0
 29 28  1  0  0  0  0
 31 32  1  0  0  0  0
 31 29  1  0  0  0  0
M  END
>  <MODEL>
1

>  <REMARK>
 VINA RESULT:      -8.4      0.000      0.000
  Name = 
  7 active torsions:
  status: ('A' for Active; 'I' for Inactive)
    1  A    between atoms: N_5  and  C_11
    2  A    between atoms: C_6  and  C_26
    3  A    between atoms: C_10  and  N_16
    4  A    between atoms: C_11  and  C_12
    5  A    between atoms: C_12  and  C_17
    6  A    between atoms: C_20  and  C_26
    7  A    between atoms: C_21  and  C_26
                            x       y       z     vdW  Elec       q    Type
                         _______ _______ _______ _____ _____    ______ ____

>  <TORSDO>
F 7

$$$$
=
 OpenBabel10222416303D

 32 34  0  0  1  0  0  0  0  0999 V2000
  188.6620  178.2970  140.4280 C   0  0  1  0  0  3  0  0  0  0  0  0
  189.6970  175.9140  137.4590 C   0  0  0  0  0  2  0  0  0  0  0  0
  188.3960  176.1010  136.6620 C   0  0  2  0  0  3  0  0  0  0  0  0
  188.7950  177.8130  138.9810 C   0  0  1  0  0  3  0  0  0  0  0  0
  185.3020  176.4100  135.9140 C   0  0  1  0  0  0  0  0  0  0  0  0
  184.3100  175.6030  135.3590 O   0  0  0  0  0  1  0  0  0  0  0  0
  184.7040  177.5640  136.3920 F   0  0  0  0  0  0  0  0  0  0  0  0
  189.0990  178.9840  138.0370 C   0  0  0  0  0  2  0  0  0  0  0  0
  185.9130  175.6690  137.0820 C   0  0  0  0  0  3  0  0  0  0  0  0
  189.1950  178.6000  136.5570 C   0  0  0  0  0  2  0  0  0  0  0  0
  187.2740  177.8130  135.2720 C   0  0  0  0  0  3  0  0  0  0  0  0
  188.2240  177.5220  136.1640 C   0  0  0  0  0  0  0  0  0  0  0  0
  187.2100  175.5610  137.4230 C   0  0  0  0  0  3  0  0  0  0  0  0
  186.2920  176.7780  134.8070 C   0  0  0  0  0  2  0  0  0  0  0  0
  189.7410  176.6090  138.8320 C   0  0  0  0  0  2  0  0  0  0  0  0
  185.5220  179.0230  141.9130 C   0  0  0  0  0  0  0  0  0  0  0  0
  186.8410  178.8070  142.0600 N   0  0  0  0  0  0  0  0  0  0  0  0
  185.1500  178.9170  140.5860 C   0  0  0  0  0  3  0  0  0  0  0  0
  187.2370  178.5680  140.7970 C   0  0  0  0  0  0  0  0  0  0  0  0
  186.2500  178.6360  139.9300 O   0  0  0  0  0  0  0  0  0  0  0  0
  184.7120  178.7140  144.3080 C   0  0  0  0  0  0  0  0  0  0  0  0
  183.7910  179.1220  145.3120 N   0  0  0  0  0  1  0  0  0  0  0  0
  184.6570  179.3250  143.0150 N   0  0  0  0  0  2  0  0  0  0  0  0
  185.5610  177.8220  144.5710 O   0  0  0  0  0  0  0  0  0  0  0  0
  188.7870  176.4110  141.9110 O   0  0  0  0  0  0  0  0  0  0  0  0
  190.6880  177.7640  141.8370 N   0  0  0  0  0  2  0  0  0  0  0  0
  189.3610  177.4280  141.4330 C   0  0  0  0  0  0  0  0  0  0  0  0
  191.4240  176.9630  142.8010 C   0  0  0  0  0  2  0  0  0  0  0  0
  191.6620  177.7650  144.0690 C   0  0  1  0  0  3  0  0  0  0  0  0
  191.2750  179.1520  143.8710 N   0  0  0  0  0  1  0  0  0  0  0  0
  190.9000  177.1640  145.2430 C   0  0  0  0  0  2  0  0  0  0  0  0
  191.7960  176.4550  146.1430 N   0  0  0  0  0  1  0  0  0  0  0  0
  1 19  1  0  0  0  0
  1 27  1  1  0  0  0
  2 15  1  0  0  0  0
  3 13  1  1  0  0  0
  3  2  1  0  0  0  0
  4  1  1  1  0  0  0
  5  6  1  6  0  0  0
  5  7  1  0  0  0  0
  5  9  1  0  0  0  0
  8  4  1  0  0  0  0
  9 13  2  0  0  0  0
 10  8  1  0  0  0  0
 11 12  2  0  0  0  0
 12 10  1  0  0  0  0
 12  3  1  0  0  0  0
 14 11  1  0  0  0  0
 14  5  1  0  0  0  0
 15  4  1  0  0  0  0
 16 17  1  0  0  0  0
 16 23  1  0  0  0  0
 18 16  2  0  0  0  0
 19 17  2  0  0  0  0
 20 18  1  0  0  0  0
 20 19  1  0  0  0  0
 21 24  2  0  0  0  0
 21 22  1  0  0  0  0
 23 21  1  0  0  0  0
 26 28  1  0  0  0  0
 27 26  1  0  0  0  0
 27 25  2  0  0  0  0
 28 29  1  0  0  0  0
 29 30  1  6  0  0  0
 29 31  1  0  0  0  0
 31 32  1  0  0  0  0
M  END
>  <MODEL>
2

>  <REMARK>
 VINA RESULT:      -7.5      3.744      7.288
  Name = 
  7 active torsions:
  status: ('A' for Active; 'I' for Inactive)
    1  A    between atoms: N_5  and  C_11
    2  A    between atoms: C_6  and  C_26
    3  A    between atoms: C_10  and  N_16
    4  A    between atoms: C_11  and  C_12
    5  A    between atoms: C_12  and  C_17
    6  A    between atoms: C_20  and  C_26
    7  A    between atoms: C_21  and  C_26
                            x       y       z     vdW  Elec       q    Type
                         _______ _______ _______ _____ _____    ______ ____

>  <TORSDO>
F 7

$$$$
=
 OpenBabel10222416303D

 32 34  0  0  1  0  0  0  0  0999 V2000
  188.5960  178.3350  140.5510 C   0  0  1  0  0  3  0  0  0  0  0  0
  189.7440  175.9600  137.6170 C   0  0  0  0  0  2  0  0  0  0  0  0
  188.4790  176.1560  136.7670 C   0  0  2  0  0  3  0  0  0  0  0  0
  188.7880  177.8570  139.1090 C   0  0  1  0  0  3  0  0  0  0  0  0
  185.4200  176.4810  135.8920 C   0  0  1  0  0  0  0  0  0  0  0  0
  184.4490  175.6810  135.2930 O   0  0  0  0  0  1  0  0  0  0  0  0
  184.8070  177.6350  136.3500 F   0  0  0  0  0  0  0  0  0  0  0  0
  189.1350  179.0300  138.1840 C   0  0  0  0  0  2  0  0  0  0  0  0
  185.9780  175.7330  137.0810 C   0  0  0  0  0  3  0  0  0  0  0  0
  189.2910  178.6520  136.7080 C   0  0  0  0  0  2  0  0  0  0  0  0
  187.4220  177.8790  135.3390 C   0  0  0  0  0  3  0  0  0  0  0  0
  188.3330  177.5800  136.2680 C   0  0  0  0  0  0  0  0  0  0  0  0
  187.2600  175.6170  137.4760 C   0  0  0  0  0  3  0  0  0  0  0  0
  186.4570  176.8500  134.8300 C   0  0  0  0  0  2  0  0  0  0  0  0
  189.7340  176.6490  138.9940 C   0  0  0  0  0  2  0  0  0  0  0  0
  185.0760  178.7650  140.6770 C   0  0  0  0  0  0  0  0  0  0  0  0
  186.1820  178.5500  139.9440 N   0  0  0  0  0  0  0  0  0  0  0  0
  185.3900  178.9020  142.0160 C   0  0  0  0  0  3  0  0  0  0  0  0
  187.1530  178.5650  140.8750 C   0  0  0  0  0  0  0  0  0  0  0  0
  186.6920  178.7670  142.0910 O   0  0  0  0  0  0  0  0  0  0  0  0
  183.3040  179.8370  139.1930 C   0  0  0  0  0  0  0  0  0  0  0  0
  181.9740  179.7710  138.6950 N   0  0  0  0  0  1  0  0  0  0  0  0
  183.7650  178.8330  140.1020 N   0  0  0  0  0  2  0  0  0  0  0  0
  184.0570  180.7780  138.8280 O   0  0  0  0  0  0  0  0  0  0  0  0
  188.6940  176.5020  142.1020 O   0  0  0  0  0  0  0  0  0  0  0  0
  190.6290  177.7980  141.9470 N   0  0  0  0  0  2  0  0  0  0  0  0
  189.2880  177.4850  141.5760 C   0  0  0  0  0  0  0  0  0  0  0  0
  191.3600  177.0130  142.9290 C   0  0  0  0  0  2  0  0  0  0  0  0
  191.6440  177.8560  144.1600 C   0  0  1  0  0  3  0  0  0  0  0  0
  191.2570  179.2390  143.9290 N   0  0  0  0  0  1  0  0  0  0  0  0
  190.9180  177.3000  145.3790 C   0  0  0  0  0  2  0  0  0  0  0  0
  191.8580  176.7500  146.3430 N   0  0  0  0  0  1  0  0  0  0  0  0
  1 19  1  0  0  0  0
  1 27  1  1  0  0  0
  2 15  1  0  0  0  0
  3 13  1  1  0  0  0
  3  2  1  0  0  0  0
  4  1  1  1  0  0  0
  5  6  1  6  0  0  0
  5  7  1  0  0  0  0
  5  9  1  0  0  0  0
  8  4  1  0  0  0  0
  9 13  2  0  0  0  0
 10  8  1  0  0  0  0
 11 12  2  0  0  0  0
 12 10  1  0  0  0  0
 12  3  1  0  0  0  0
 14 11  1  0  0  0  0
 14  5  1  0  0  0  0
 15  4  1  0  0  0  0
 16 18  2  0  0  0  0
 17 16  1  0  0  0  0
 17 19  2  0  0  0  0
 18 20  1  0  0  0  0
 19 20  1  0  0  0  0
 21 23  1  0  0  0  0
 22 21  1  0  0  0  0
 23 16  1  0  0  0  0
 24 21  2  0  0  0  0
 26 28  1  0  0  0  0
 27 26  1  0  0  0  0
 27 25  2  0  0  0  0
 28 29  1  0  0  0  0
 29 30  1  6  0  0  0
 29 31  1  0  0  0  0
 31 32  1  0  0  0  0
M  END
>  <MODEL>
3

>  <REMARK>
 VINA RESULT:      -7.5      4.070      7.620
  Name = 
  7 active torsions:
  status: ('A' for Active; 'I' for Inactive)
    1  A    between atoms: N_5  and  C_11
    2  A    between atoms: C_6  and  C_26
    3  A    between atoms: C_10  and  N_16
    4  A    between atoms: C_11  and  C_12
    5  A    between atoms: C_12  and  C_17
    6  A    between atoms: C_20  and  C_26
    7  A    between atoms: C_21  and  C_26
                            x       y       z     vdW  Elec       q    Type
                         _______ _______ _______ _____ _____    ______ ____

>  <TORSDO>
F 7

$$$$
=
 OpenBabel10222416303D

 32 34  0  0  1  0  0  0  0  0999 V2000
  188.4050  177.1590  141.7870 C   0  0  1  0  0  3  0  0  0  0  0  0
  190.5980  176.5520  138.5640 C   0  0  0  0  0  2  0  0  0  0  0  0
  189.4300  176.6540  137.5720 C   0  0  2  0  0  3  0  0  0  0  0  0
  188.8850  177.3470  140.3460 C   0  0  1  0  0  3  0  0  0  0  0  0
  186.5540  176.3260  136.2100 C   0  0  1  0  0  0  0  0  0  0  0  0
  186.0010  175.5550  135.1890 O   0  0  0  0  0  1  0  0  0  0  0  0
  185.5240  176.9710  136.8720 F   0  0  0  0  0  0  0  0  0  0  0  0
  188.8600  178.8280  139.9470 C   0  0  0  0  0  2  0  0  0  0  0  0
  187.2400  175.3950  137.1840 C   0  0  0  0  0  3  0  0  0  0  0  0
  189.2740  179.1060  138.4990 C   0  0  0  0  0  2  0  0  0  0  0  0
  187.9470  178.3720  136.5840 C   0  0  0  0  0  3  0  0  0  0  0  0
  188.8180  178.0400  137.5410 C   0  0  0  0  0  0  0  0  0  0  0  0
  188.4340  175.5400  137.7870 C   0  0  0  0  0  3  0  0  0  0  0  0
  187.4740  177.3700  135.5740 C   0  0  0  0  0  2  0  0  0  0  0  0
  190.2140  176.6290  140.0530 C   0  0  0  0  0  2  0  0  0  0  0  0
  190.9590  177.1090  144.2500 C   0  0  0  0  0  0  0  0  0  0  0  0
  190.0060  176.4500  143.5700 N   0  0  0  0  0  0  0  0  0  0  0  0
  191.0140  178.4350  143.8630 C   0  0  0  0  0  3  0  0  0  0  0  0
  189.4990  177.4120  142.7770 C   0  0  0  0  0  0  0  0  0  0  0  0
  190.0900  178.5750  142.9430 O   0  0  0  0  0  0  0  0  0  0  0  0
  191.5240  176.4340  146.6410 C   0  0  0  0  0  0  0  0  0  0  0  0
  192.4340  175.7600  147.5010 N   0  0  0  0  0  1  0  0  0  0  0  0
  191.7870  176.4780  145.2350 N   0  0  0  0  0  2  0  0  0  0  0  0
  190.5000  176.9820  147.1280 O   0  0  0  0  0  0  0  0  0  0  0  0
  186.5680  178.6080  141.2410 O   0  0  0  0  0  0  0  0  0  0  0  0
  186.6050  177.8070  143.4330 N   0  0  0  0  0  2  0  0  0  0  0  0
  187.1460  177.9060  142.1170 C   0  0  0  0  0  0  0  0  0  0  0  0
  185.3850  178.4990  143.8180 C   0  0  0  0  0  2  0  0  0  0  0  0
  185.4370  178.8620  145.2930 C   0  0  1  0  0  3  0  0  0  0  0  0
  184.0960  178.8990  145.8530 N   0  0  0  0  0  1  0  0  0  0  0  0
  186.3060  177.8760  146.0640 C   0  0  0  0  0  2  0  0  0  0  0  0
  186.6710  178.4080  147.3680 N   0  0  0  0  0  1  0  0  0  0  0  0
  1 27  1  1  0  0  0
  1 19  1  0  0  0  0
  2 15  1  0  0  0  0
  3 13  1  1  0  0  0
  3  2  1  0  0  0  0
  4  1  1  1  0  0  0
  5  6  1  6  0  0  0
  5  7  1  0  0  0  0
  5  9  1  0  0  0  0
  8  4  1  0  0  0  0
  9 13  2  0  0  0  0
 10  8  1  0  0  0  0
 11 12  2  0  0  0  0
 12  3  1  0  0  0  0
 12 10  1  0  0  0  0
 14  5  1  0  0  0  0
 14 11  1  0  0  0  0
 15  4  1  0  0  0  0
 16 23  1  0  0  0  0
 17 16  1  0  0  0  0
 18 16  2  0  0  0  0
 19 20  1  0  0  0  0
 19 17  2  0  0  0  0
 20 18  1  0  0  0  0
 21 24  2  0  0  0  0
 21 22  1  0  0  0  0
 23 21  1  0  0  0  0
 25 27  2  0  0  0  0
 26 28  1  0  0  0  0
 27 26  1  0  0  0  0
 28 29  1  0  0  0  0
 29 30  1  1  0  0  0
 29 31  1  0  0  0  0
 31 32  1  0  0  0  0
M  END
>  <MODEL>
4

>  <REMARK>
 VINA RESULT:      -7.4      3.440      8.082
  Name = 
  7 active torsions:
  status: ('A' for Active; 'I' for Inactive)
    1  A    between atoms: N_5  and  C_11
    2  A    between atoms: C_6  and  C_26
    3  A    between atoms: C_10  and  N_16
    4  A    between atoms: C_11  and  C_12
    5  A    between atoms: C_12  and  C_17
    6  A    between atoms: C_20  and  C_26
    7  A    between atoms: C_21  and  C_26
                            x       y       z     vdW  Elec       q    Type
                         _______ _______ _______ _____ _____    ______ ____

>  <TORSDO>
F 7

$$$$
=
 OpenBabel10222416303D

 32 34  0  0  1  0  0  0  0  0999 V2000
  185.1830  179.2730  143.3030 C   0  0  1  0  0  3  0  0  0  0  0  0
  187.2740  175.9760  143.8720 C   0  0  0  0  0  2  0  0  0  0  0  0
  188.6060  176.6930  144.1420 C   0  0  2  0  0  3  0  0  0  0  0  0
  186.2190  178.3470  143.9460 C   0  0  1  0  0  3  0  0  0  0  0  0
  191.0600  178.7350  143.9400 C   0  0  1  0  0  0  0  0  0  0  0  0
  192.3630  178.7050  143.4460 O   0  0  0  0  0  1  0  0  0  0  0  0
  190.7490  180.0460  144.2610 F   0  0  0  0  0  0  0  0  0  0  0  0
  186.2460  178.5280  145.4690 C   0  0  0  0  0  2  0  0  0  0  0  0
  190.1280  178.2790  142.8390 C   0  0  0  0  0  3  0  0  0  0  0  0
  187.2950  177.6780  146.1930 C   0  0  0  0  0  2  0  0  0  0  0  0
  189.6960  178.0290  145.9170 C   0  0  0  0  0  3  0  0  0  0  0  0
  188.5700  177.5220  145.4100 C   0  0  0  0  0  0  0  0  0  0  0  0
  189.0750  177.4460  142.9200 C   0  0  0  0  0  3  0  0  0  0  0  0
  191.0100  177.8820  145.2080 C   0  0  0  0  0  2  0  0  0  0  0  0
  186.0970  176.8860  143.4770 C   0  0  0  0  0  2  0  0  0  0  0  0
  185.6450  178.8200  139.8130 C   0  0  0  0  0  0  0  0  0  0  0  0
  186.1830  179.0530  141.0230 N   0  0  0  0  0  0  0  0  0  0  0  0
  184.2710  178.7030  139.8980 C   0  0  0  0  0  3  0  0  0  0  0  0
  185.1000  179.0730  141.8210 C   0  0  0  0  0  0  0  0  0  0  0  0
  183.9780  178.8640  141.1670 O   0  0  0  0  0  0  0  0  0  0  0  0
  187.6850  178.0280  138.5090 C   0  0  0  0  0  0  0  0  0  0  0  0
  188.3540  177.9960  137.2540 N   0  0  0  0  0  1  0  0  0  0  0  0
  186.4340  178.7130  138.6220 N   0  0  0  0  0  2  0  0  0  0  0  0
  188.2030  177.4530  139.5030 O   0  0  0  0  0  0  0  0  0  0  0  0
  183.7280  179.4360  145.2070 O   0  0  0  0  0  0  0  0  0  0  0  0
  182.6780  178.9960  143.1700 N   0  0  0  0  0  2  0  0  0  0  0  0
  183.8370  179.2420  143.9650 C   0  0  0  0  0  0  0  0  0  0  0  0
  181.3440  178.9590  143.7460 C   0  0  0  0  0  2  0  0  0  0  0  0
  180.3290  178.5790  142.6810 C   0  0  1  0  0  3  0  0  0  0  0  0
  179.0300  178.3270  143.2850 N   0  0  0  0  0  1  0  0  0  0  0  0
  180.2180  179.6690  141.6220 C   0  0  0  0  0  2  0  0  0  0  0  0
  179.6550  180.8880  142.1820 N   0  0  0  0  0  1  0  0  0  0  0  0
  1 27  1  1  0  0  0
  2  3  1  0  0  0  0
  3 13  1  6  0  0  0
  3 12  1  0  0  0  0
  4  1  1  1  0  0  0
  4  8  1  0  0  0  0
  5  6  1  6  0  0  0
  5  7  1  0  0  0  0
  5 14  1  0  0  0  0
  8 10  1  0  0  0  0
  9 13  2  0  0  0  0
  9  5  1  0  0  0  0
 12 11  2  0  0  0  0
 12 10  1  0  0  0  0
 14 11  1  0  0  0  0
 15  2  1  0  0  0  0
 15  4  1  0  0  0  0
 16 18  2  0  0  0  0
 16 17  1  0  0  0  0
 17 19  2  0  0  0  0
 18 20  1  0  0  0  0
 19  1  1  0  0  0  0
 20 19  1  0  0  0  0
 21 23  1  0  0  0  0
 21 24  2  0  0  0  0
 22 21  1  0  0  0  0
 23 16  1  0  0  0  0
 26 28  1  0  0  0  0
 26 27  1  0  0  0  0
 27 25  2  0  0  0  0
 29 30  1  1  0  0  0
 29 28  1  0  0  0  0
 31 32  1  0  0  0  0
 31 29  1  0  0  0  0
M  END
>  <MODEL>
5

>  <REMARK>
 VINA RESULT:      -7.0      3.104      7.258
  Name = 
  7 active torsions:
  status: ('A' for Active; 'I' for Inactive)
    1  A    between atoms: N_5  and  C_11
    2  A    between atoms: C_6  and  C_26
    3  A    between atoms: C_10  and  N_16
    4  A    between atoms: C_11  and  C_12
    5  A    between atoms: C_12  and  C_17
    6  A    between atoms: C_20  and  C_26
    7  A    between atoms: C_21  and  C_26
                            x       y       z     vdW  Elec       q    Type
                         _______ _______ _______ _____ _____    ______ ____

>  <TORSDO>
F 7

$$$$
=
 OpenBabel10222416303D

 32 34  0  0  1  0  0  0  0  0999 V2000
  189.2660  176.5130  138.7330 C   0  0  1  0  0  3  0  0  0  0  0  0
  190.8330  176.3460  135.1160 C   0  0  0  0  0  2  0  0  0  0  0  0
  192.0130  175.4440  135.5100 C   0  0  2  0  0  3  0  0  0  0  0  0
  189.9480  175.8880  137.5130 C   0  0  1  0  0  3  0  0  0  0  0  0
  194.4760  174.1790  137.1110 C   0  0  1  0  0  0  0  0  0  0  0  0
  195.8660  174.2000  137.0090 O   0  0  0  0  0  1  0  0  0  0  0  0
  194.1400  173.5860  138.3160 F   0  0  0  0  0  0  0  0  0  0  0  0
  189.4320  174.4650  137.2650 C   0  0  0  0  0  2  0  0  0  0  0  0
  193.9840  175.6090  137.1270 C   0  0  0  0  0  3  0  0  0  0  0  0
  190.1020  173.7400  136.0930 C   0  0  0  0  0  2  0  0  0  0  0  0
  192.4540  173.0860  136.1180 C   0  0  0  0  0  3  0  0  0  0  0  0
  191.5630  174.0660  135.9550 C   0  0  0  0  0  0  0  0  0  0  0  0
  192.9300  176.1430  136.4830 C   0  0  0  0  0  3  0  0  0  0  0  0
  193.9260  173.3310  135.9620 C   0  0  0  0  0  2  0  0  0  0  0  0
  189.9280  176.8010  136.2750 C   0  0  0  0  0  2  0  0  0  0  0  0
  191.1070  177.4120  141.6300 C   0  0  0  0  0  0  0  0  0  0  0  0
  189.9280  177.0840  141.0730 N   0  0  0  0  0  0  0  0  0  0  0  0
  192.1110  177.4390  140.6810 C   0  0  0  0  0  3  0  0  0  0  0  0
  190.2560  176.9220  139.7780 C   0  0  0  0  0  0  0  0  0  0  0  0
  191.5350  177.1240  139.5450 O   0  0  0  0  0  0  0  0  0  0  0  0
  191.5300  176.7140  144.0430 C   0  0  0  0  0  0  0  0  0  0  0  0
  191.6600  177.1350  145.3960 N   0  0  0  0  0  1  0  0  0  0  0  0
  191.2550  177.6850  143.0290 N   0  0  0  0  0  2  0  0  0  0  0  0
  191.6580  175.4940  143.7580 O   0  0  0  0  0  0  0  0  0  0  0  0
  188.6510  178.8180  138.4530 O   0  0  0  0  0  0  0  0  0  0  0  0
  186.9660  177.2640  138.0140 N   0  0  0  0  0  2  0  0  0  0  0  0
  188.2950  177.6080  138.3990 C   0  0  0  0  0  0  0  0  0  0  0  0
  185.9780  178.2750  137.6710 C   0  0  0  0  0  2  0  0  0  0  0  0
  184.9720  178.4210  138.8000 C   0  0  1  0  0  3  0  0  0  0  0  0
  184.7170  179.8260  139.0730 N   0  0  0  0  0  1  0  0  0  0  0  0
  183.6710  177.7010  138.4650 C   0  0  0  0  0  2  0  0  0  0  0  0
  183.0920  177.0870  139.6500 N   0  0  0  0  0  1  0  0  0  0  0  0
  1 27  1  6  0  0  0
  1 19  1  0  0  0  0
  2 15  1  0  0  0  0
  3  2  1  1  0  0  0
  3 12  1  0  0  0  0
  3 13  1  0  0  0  0
  4  1  1  1  0  0  0
  5  6  1  6  0  0  0
  5  9  1  0  0  0  0
  5  7  1  0  0  0  0
  8  4  1  0  0  0  0
 10  8  1  0  0  0  0
 12 10  1  0  0  0  0
 12 11  2  0  0  0  0
 13  9  2  0  0  0  0
 14 11  1  0  0  0  0
 14  5  1  0  0  0  0
 15  4  1  0  0  0  0
 16 23  1  0  0  0  0
 17 16  1  0  0  0  0
 18 16  2  0  0  0  0
 19 17  2  0  0  0  0
 20 19  1  0  0  0  0
 20 18  1  0  0  0  0
 21 22  1  0  0  0  0
 23 21  1  0  0  0  0
 24 21  2  0  0  0  0
 26 27  1  0  0  0  0
 27 25  2  0  0  0  0
 28 26  1  0  0  0  0
 28 29  1  0  0  0  0
 29 30  1  6  0  0  0
 31 29  1  0  0  0  0
 31 32  1  0  0  0  0
M  END
>  <MODEL>
6

>  <REMARK>
 VINA RESULT:      -7.0      4.035      8.129
  Name = 
  7 active torsions:
  status: ('A' for Active; 'I' for Inactive)
    1  A    between atoms: N_5  and  C_11
    2  A    between atoms: C_6  and  C_26
    3  A    between atoms: C_10  and  N_16
    4  A    between atoms: C_11  and  C_12
    5  A    between atoms: C_12  and  C_17
    6  A    between atoms: C_20  and  C_26
    7  A    between atoms: C_21  and  C_26
                            x       y       z     vdW  Elec       q    Type
                         _______ _______ _______ _____ _____    ______ ____

>  <TORSDO>
F 7

$$$$
=
 OpenBabel10222416303D

 32 34  0  0  1  0  0  0  0  0999 V2000
  188.6380  177.1210  141.7430 C   0  0  1  0  0  3  0  0  0  0  0  0
  190.9440  176.6140  138.5820 C   0  0  0  0  0  2  0  0  0  0  0  0
  189.7920  176.5740  137.5660 C   0  0  2  0  0  3  0  0  0  0  0  0
  189.1290  177.3050  140.3040 C   0  0  1  0  0  3  0  0  0  0  0  0
  186.9880  175.9350  136.1660 C   0  0  1  0  0  0  0  0  0  0  0  0
  186.5290  175.0830  135.1630 O   0  0  0  0  0  1  0  0  0  0  0  0
  185.8890  176.5030  136.7870 F   0  0  0  0  0  0  0  0  0  0  0  0
  188.9750  178.7630  139.8540 C   0  0  0  0  0  2  0  0  0  0  0  0
  187.7360  175.1050  137.1840 C   0  0  0  0  0  3  0  0  0  0  0  0
  189.3910  179.0300  138.4040 C   0  0  0  0  0  2  0  0  0  0  0  0
  188.1780  178.1140  136.4940 C   0  0  0  0  0  3  0  0  0  0  0  0
  189.0550  177.8960  137.4760 C   0  0  0  0  0  0  0  0  0  0  0  0
  188.8990  175.3800  137.8020 C   0  0  0  0  0  3  0  0  0  0  0  0
  187.8210  177.0390  135.5100 C   0  0  0  0  0  2  0  0  0  0  0  0
  190.5240  176.7040  140.0600 C   0  0  0  0  0  2  0  0  0  0  0  0
  191.1390  176.9230  144.2530 C   0  0  0  0  0  0  0  0  0  0  0  0
  190.1220  176.3400  143.5950 N   0  0  0  0  0  0  0  0  0  0  0  0
  191.3550  178.2060  143.7880 C   0  0  0  0  0  3  0  0  0  0  0  0
  189.7420  177.3040  142.7370 C   0  0  0  0  0  0  0  0  0  0  0  0
  190.4650  178.3980  142.8440 O   0  0  0  0  0  0  0  0  0  0  0  0
  191.6230  176.3760  146.6930 C   0  0  0  0  0  0  0  0  0  0  0  0
  192.4320  175.6490  147.6100 N   0  0  0  0  0  1  0  0  0  0  0  0
  191.8740  176.2610  145.2890 N   0  0  0  0  0  2  0  0  0  0  0  0
  190.6980  177.1110  147.1300 O   0  0  0  0  0  0  0  0  0  0  0  0
  187.1790  178.2550  143.2780 O   0  0  0  0  0  0  0  0  0  0  0  0
  186.5320  178.3190  141.0370 N   0  0  0  0  0  2  0  0  0  0  0  0
  187.4180  177.9250  142.0830 C   0  0  0  0  0  0  0  0  0  0  0  0
  185.3360  179.1040  141.2960 C   0  0  0  0  0  2  0  0  0  0  0  0
  184.1090  178.3610  140.7950 C   0  0  1  0  0  3  0  0  0  0  0  0
  182.9830  178.5810  141.6880 N   0  0  0  0  0  1  0  0  0  0  0  0
  183.7530  178.7940  139.3780 C   0  0  0  0  0  2  0  0  0  0  0  0
  184.2570  180.1290  139.0950 N   0  0  0  0  0  1  0  0  0  0  0  0
  1 27  1  1  0  0  0
  1 19  1  0  0  0  0
  2 15  1  0  0  0  0
  3 13  1  1  0  0  0
  3  2  1  0  0  0  0
  4  1  1  1  0  0  0
  5  6  1  6  0  0  0
  5  7  1  0  0  0  0
  5  9  1  0  0  0  0
  8  4  1  0  0  0  0
  9 13  2  0  0  0  0
 10  8  1  0  0  0  0
 11 12  2  0  0  0  0
 12  3  1  0  0  0  0
 12 10  1  0  0  0  0
 14  5  1  0  0  0  0
 14 11  1  0  0  0  0
 15  4  1  0  0  0  0
 16 23  1  0  0  0  0
 17 16  1  0  0  0  0
 18 16  2  0  0  0  0
 19 20  1  0  0  0  0
 19 17  2  0  0  0  0
 20 18  1  0  0  0  0
 21 24  2  0  0  0  0
 21 22  1  0  0  0  0
 23 21  1  0  0  0  0
 26 28  1  0  0  0  0
 26 27  1  0  0  0  0
 27 25  2  0  0  0  0
 29 28  1  0  0  0  0
 29 30  1  1  0  0  0
 31 29  1  0  0  0  0
 32 31  1  0  0  0  0
M  END
>  <MODEL>
7

>  <REMARK>
 VINA RESULT:      -7.0      3.596      7.750
  Name = 
  7 active torsions:
  status: ('A' for Active; 'I' for Inactive)
    1  A    between atoms: N_5  and  C_11
    2  A    between atoms: C_6  and  C_26
    3  A    between atoms: C_10  and  N_16
    4  A    between atoms: C_11  and  C_12
    5  A    between atoms: C_12  and  C_17
    6  A    between atoms: C_20  and  C_26
    7  A    between atoms: C_21  and  C_26
                            x       y       z     vdW  Elec       q    Type
                         _______ _______ _______ _____ _____    ______ ____

>  <TORSDO>
F 7

$$$$
=
 OpenBabel10222416303D

 32 34  0  0  1  0  0  0  0  0999 V2000
  188.8370  178.3000  140.2690 C   0  0  1  0  0  3  0  0  0  0  0  0
  189.0690  178.5110  136.3360 C   0  0  0  0  0  2  0  0  0  0  0  0
  189.1790  176.9940  136.1150 C   0  0  2  0  0  3  0  0  0  0  0  0
  188.5760  177.9070  138.8120 C   0  0  1  0  0  3  0  0  0  0  0  0
  190.0140  173.9230  136.4360 C   0  0  1  0  0  0  0  0  0  0  0  0
  190.8760  173.0370  135.7930 O   0  0  0  0  0  1  0  0  0  0  0  0
  189.5560  173.3180  137.5940 F   0  0  0  0  0  0  0  0  0  0  0  0
  187.1240  177.4490  138.6190 C   0  0  0  0  0  2  0  0  0  0  0  0
  190.8050  175.1540  136.8210 C   0  0  0  0  0  3  0  0  0  0  0  0
  186.7870  176.9840  137.1990 C   0  0  0  0  0  2  0  0  0  0  0  0
  187.7530  174.9730  136.2060 C   0  0  0  0  0  3  0  0  0  0  0  0
  187.9210  176.2570  136.5320 C   0  0  0  0  0  0  0  0  0  0  0  0
  190.4490  176.4470  136.7200 C   0  0  0  0  0  3  0  0  0  0  0  0
  188.8290  174.1950  135.5080 C   0  0  0  0  0  2  0  0  0  0  0  0
  189.0520  178.9690  137.8060 C   0  0  0  0  0  2  0  0  0  0  0  0
  186.1710  178.3690  142.6100 C   0  0  0  0  0  0  0  0  0  0  0  0
  187.4360  178.0200  142.3190 N   0  0  0  0  0  0  0  0  0  0  0  0
  185.5680  178.9850  141.5290 C   0  0  0  0  0  3  0  0  0  0  0  0
  187.5650  178.4380  141.0460 C   0  0  0  0  0  0  0  0  0  0  0  0
  186.4740  179.0080  140.5820 O   0  0  0  0  0  0  0  0  0  0  0  0
  184.7100  179.0170  144.5940 C   0  0  0  0  0  0  0  0  0  0  0  0
  184.1780  178.6270  145.8540 N   0  0  0  0  0  1  0  0  0  0  0  0
  185.5710  178.1190  143.8870 N   0  0  0  0  0  2  0  0  0  0  0  0
  184.4160  180.1450  144.1180 O   0  0  0  0  0  0  0  0  0  0  0  0
  190.2060  176.3350  140.4640 O   0  0  0  0  0  0  0  0  0  0  0  0
  190.4020  177.8780  142.2040 N   0  0  0  0  0  2  0  0  0  0  0  0
  189.8470  177.4360  140.9660 C   0  0  0  0  0  0  0  0  0  0  0  0
  191.3880  177.0930  142.9280 C   0  0  0  0  0  2  0  0  0  0  0  0
  191.6060  177.6830  144.3120 C   0  0  1  0  0  3  0  0  0  0  0  0
  190.5440  178.6210  144.6360 N   0  0  0  0  0  1  0  0  0  0  0  0
  191.6830  176.5840  145.3640 C   0  0  0  0  0  2  0  0  0  0  0  0
  191.4780  177.1220  146.7000 N   0  0  0  0  0  1  0  0  0  0  0  0
  1 27  1  1  0  0  0
  1 19  1  0  0  0  0
  2 15  1  0  0  0  0
  3  2  1  1  0  0  0
  3 12  1  0  0  0  0
  3 13  1  0  0  0  0
  4  1  1  1  0  0  0
  5  6  1  6  0  0  0
  5  9  1  0  0  0  0
  5  7  1  0  0  0  0
  8  4  1  0  0  0  0
 10  8  1  0  0  0  0
 11 12  2  0  0  0  0
 12 10  1  0  0  0  0
 13  9  2  0  0  0  0
 14 11  1  0  0  0  0
 14  5  1  0  0  0  0
 15  4  1  0  0  0  0
 16 23  1  0  0  0  0
 17 16  1  0  0  0  0
 18 16  2  0  0  0  0
 19 17  2  0  0  0  0
 20 19  1  0  0  0  0
 20 18  1  0  0  0  0
 21 22  1  0  0  0  0
 23 21  1  0  0  0  0
 24 21  2  0  0  0  0
 25 27  2  0  0  0  0
 26 28  1  0  0  0  0
 27 26  1  0  0  0  0
 28 29  1  0  0  0  0
 29 30  1  1  0  0  0
 29 31  1  0  0  0  0
 31 32  1  0  0  0  0
M  END
>  <MODEL>
8

>  <REMARK>
 VINA RESULT:      -6.9      3.260      7.109
  Name = 
  7 active torsions:
  status: ('A' for Active; 'I' for Inactive)
    1  A    between atoms: N_5  and  C_11
    2  A    between atoms: C_6  and  C_26
    3  A    between atoms: C_10  and  N_16
    4  A    between atoms: C_11  and  C_12
    5  A    between atoms: C_12  and  C_17
    6  A    between atoms: C_20  and  C_26
    7  A    between atoms: C_21  and  C_26
                            x       y       z     vdW  Elec       q    Type
                         _______ _______ _______ _____ _____    ______ ____

>  <TORSDO>
F 7

$$$$
=
 OpenBabel10222416303D

 32 34  0  0  1  0  0  0  0  0999 V2000
  184.5000  179.0190  138.8410 C   0  0  1  0  0  3  0  0  0  0  0  0
  180.7190  178.4120  137.8880 C   0  0  0  0  0  2  0  0  0  0  0  0
  180.1600  178.7730  139.2730 C   0  0  2  0  0  3  0  0  0  0  0  0
  182.9900  179.2720  138.8070 C   0  0  1  0  0  3  0  0  0  0  0  0
  179.7810  178.9900  142.4420 C   0  0  1  0  0  0  0  0  0  0  0  0
  178.9600  178.4060  143.4040 O   0  0  0  0  0  1  0  0  0  0  0  0
  180.7680  179.7100  143.0940 F   0  0  0  0  0  0  0  0  0  0  0  0
  182.6870  180.7720  138.7090 C   0  0  0  0  0  2  0  0  0  0  0  0
  180.4420  177.8820  141.6510 C   0  0  0  0  0  3  0  0  0  0  0  0
  181.1960  181.1230  138.7250 C   0  0  0  0  0  2  0  0  0  0  0  0
  179.7790  180.7710  140.6820 C   0  0  0  0  0  3  0  0  0  0  0  0
  180.3890  180.2300  139.6260 C   0  0  0  0  0  0  0  0  0  0  0  0
  180.6350  177.7970  140.3220 C   0  0  0  0  0  3  0  0  0  0  0  0
  178.9310  179.9470  141.6050 C   0  0  0  0  0  2  0  0  0  0  0  0
  182.2550  178.4020  137.7730 C   0  0  0  0  0  2  0  0  0  0  0  0
  185.0880  178.5380  142.3070 C   0  0  0  0  0  0  0  0  0  0  0  0
  184.2150  178.5940  141.2860 N   0  0  0  0  0  0  0  0  0  0  0  0
  186.3750  178.7860  141.8700 C   0  0  0  0  0  3  0  0  0  0  0  0
  185.0110  178.8810  140.2410 C   0  0  0  0  0  0  0  0  0  0  0  0
  186.2790  178.9910  140.5770 O   0  0  0  0  0  0  0  0  0  0  0  0
  184.3240  179.2250  144.6380 C   0  0  0  0  0  0  0  0  0  0  0  0
  183.9400  178.7920  145.9370 N   0  0  0  0  0  1  0  0  0  0  0  0
  184.6900  178.2530  143.6540 N   0  0  0  0  0  2  0  0  0  0  0  0
  184.3360  180.4560  144.3730 O   0  0  0  0  0  0  0  0  0  0  0  0
  184.4400  176.7520  138.0460 O   0  0  0  0  0  0  0  0  0  0  0  0
  185.9750  178.1540  136.9840 N   0  0  0  0  0  2  0  0  0  0  0  0
  184.9550  177.9010  137.9490 C   0  0  0  0  0  0  0  0  0  0  0  0
  186.4580  177.1180  136.0850 C   0  0  0  0  0  2  0  0  0  0  0  0
  187.9590  176.9500  136.2460 C   0  0  1  0  0  3  0  0  0  0  0  0
  188.5950  178.2410  136.4510 N   0  0  0  0  0  1  0  0  0  0  0  0
  188.2800  176.0110  137.4030 C   0  0  0  0  0  2  0  0  0  0  0  0
  188.7510  176.7510  138.5630 N   0  0  0  0  0  1  0  0  0  0  0  0
  1 27  1  6  0  0  0
  1 19  1  0  0  0  0
  3  2  1  6  0  0  0
  3 12  1  0  0  0  0
  3 13  1  0  0  0  0
  4  1  1  6  0  0  0
  5  7  1  1  0  0  0
  5  6  1  0  0  0  0
  8 10  1  0  0  0  0
  8  4  1  0  0  0  0
  9  5  1  0  0  0  0
 10 12  1  0  0  0  0
 11 14  1  0  0  0  0
 12 11  2  0  0  0  0
 13  9  2  0  0  0  0
 14  5  1  0  0  0  0
 15  2  1  0  0  0  0
 15  4  1  0  0  0  0
 16 23  1  0  0  0  0
 17 16  1  0  0  0  0
 18 16  2  0  0  0  0
 19 20  1  0  0  0  0
 19 17  2  0  0  0  0
 20 18  1  0  0  0  0
 21 22  1  0  0  0  0
 23 21  1  0  0  0  0
 24 21  2  0  0  0  0
 26 27  1  0  0  0  0
 27 25  2  0  0  0  0
 28 29  1  0  0  0  0
 28 26  1  0  0  0  0
 29 30  1  1  0  0  0
 29 31  1  0  0  0  0
 31 32  1  0  0  0  0
M  END
>  <MODEL>
9

>  <REMARK>
 VINA RESULT:      -6.5      4.801      8.106
  Name = 
  7 active torsions:
  status: ('A' for Active; 'I' for Inactive)
    1  A    between atoms: N_5  and  C_11
    2  A    between atoms: C_6  and  C_26
    3  A    between atoms: C_10  and  N_16
    4  A    between atoms: C_11  and  C_12
    5  A    between atoms: C_12  and  C_17
    6  A    between atoms: C_20  and  C_26
    7  A    between atoms: C_21  and  C_26
                            x       y       z     vdW  Elec       q    Type
                         _______ _______ _______ _____ _____    ______ ____

>  <TORSDO>
F 7

$$$$
