=
 OpenBabel10222416543D

 28 29  0  0  1  0  0  0  0  0999 V2000
  190.6890  177.8980  144.9020 C   0  0  1  0  0  3  0  0  0  0  0  0
  190.4330  177.4090  143.5090 C   0  0  0  0  0  0  0  0  0  0  0  0
  189.7310  177.6920  140.2030 C   0  0  0  0  0  0  0  0  0  0  0  0
  190.1560  178.1940  142.5150 N   0  0  0  0  0  0  0  0  0  0  0  0
  190.4900  176.0260  143.1570 N   0  0  0  0  0  0  0  0  0  0  0  0
  189.4530  178.0760  138.9900 C   0  0  0  0  0  3  0  0  0  0  0  0
  190.2130  175.9560  141.7900 N   0  0  0  0  0  0  0  0  0  0  0  0
  190.0090  177.3070  141.4160 C   0  0  0  0  0  0  0  0  0  0  0  0
  187.2080  177.6130  138.0040 C   0  0  0  0  0  0  0  0  0  0  0  0
  188.5880  177.2900  138.1730 N   0  0  0  0  0  2  0  0  0  0  0  0
  186.7030  178.6060  138.5920 O   0  0  0  0  0  0  0  0  0  0  0  0
  186.3500  176.7470  137.1520 C   0  0  0  0  0  2  0  0  0  0  0  0
  185.9770  177.4630  135.9460 N   0  0  0  0  0  1  0  0  0  0  0  0
  189.4130  178.0160  145.6630 C   0  0  0  0  0  3  0  0  0  0  0  0
  188.2770  177.8260  145.0720 N   0  0  0  0  0  0  0  0  0  0  0  0
  186.9820  177.7590  147.0120 O   0  0  0  0  0  0  0  0  0  0  0  0
  187.0250  177.9250  145.7610 C   0  0  0  0  0  0  0  0  0  0  0  0
  185.7900  178.2210  144.9950 C   0  0  0  0  0  0  0  0  0  0  0  0
  182.2300  179.0980  142.9260 N   0  0  0  0  0  1  0  0  0  0  0  0
  184.6660  178.6920  145.6880 C   0  0  0  0  0  3  0  0  0  0  0  0
  185.6860  178.0520  143.5950 C   0  0  0  0  0  0  0  0  0  0  0  0
  183.4840  178.9860  145.0120 C   0  0  0  0  0  3  0  0  0  0  0  0
  184.5180  178.3470  142.9620 N   0  0  0  0  0  0  0  0  0  0  0  0
  186.7830  177.5780  142.8200 N   0  0  0  0  0  1  0  0  0  0  0  0
  183.4280  178.8050  143.6320 C   0  0  0  0  0  0  0  0  0  0  0  0
  191.6390  176.9660  145.6420 C   0  0  0  0  0  2  0  0  0  0  0  0
  192.5070  175.6500  147.7500 C   0  0  0  0  0  1  0  0  0  0  0  0
  191.0820  176.7030  147.3550 S   0  0  0  0  0  0  0  0  0  0  0  0
  1 26  1  1  0  0  0
  1 14  1  0  0  0  0
  2  1  1  0  0  0  0
  3  8  2  0  0  0  0
  4  2  2  0  0  0  0
  5  2  1  0  0  0  0
  6  3  2  0  0  0  0
  7  5  2  0  0  0  0
  8  7  1  0  0  0  0
  8  4  1  0  0  0  0
  9 10  1  0  0  0  0
  9 11  2  0  0  0  0
 10  6  1  0  0  0  0
 12  9  1  0  0  0  0
 13 12  1  0  0  0  0
 15 14  2  0  0  0  0
 15 17  1  0  0  0  0
 17 16  2  0  0  0  0
 18 20  1  0  0  0  0
 18 17  1  0  0  0  0
 19 25  1  0  0  0  0
 21 18  2  0  0  0  0
 22 20  2  0  0  0  0
 23 21  1  0  0  0  0
 23 25  2  0  0  0  0
 24 21  1  0  0  0  0
 25 22  1  0  0  0  0
 26 28  1  0  0  0  0
 28 27  1  0  0  0  0
M  END
>  <MODEL>
1

>  <REMARK>
 VINA RESULT:      -8.2      0.000      0.000
  Name = 
  8 active torsions:
  status: ('A' for Active; 'I' for Inactive)
    1  A    between atoms: C_1  and  C_5
    2  A    between atoms: C_2  and  C_9
    3  A    between atoms: C_3  and  C_25
    4  A    between atoms: C_7  and  C_9
    5  A    between atoms: C_7  and  S_27
    6  A    between atoms: C_8  and  C_9
    7  A    between atoms: C_19  and  N_21
    8  A    between atoms: N_20  and  C_25
                            x       y       z     vdW  Elec       q    Type
                         _______ _______ _______ _____ _____    ______ ____

>  <TORSDO>
F 8

$$$$
=
 OpenBabel10222416543D

 28 29  0  0  1  0  0  0  0  0999 V2000
  188.0270  178.3900  140.5900 C   0  0  1  0  0  3  0  0  0  0  0  0
  186.5850  178.6210  140.9250 C   0  0  0  0  0  0  0  0  0  0  0  0
  183.8840  178.9320  142.9530 C   0  0  0  0  0  0  0  0  0  0  0  0
  186.1170  178.5810  142.1340 N   0  0  0  0  0  0  0  0  0  0  0  0
  185.6040  178.9250  139.9330 N   0  0  0  0  0  0  0  0  0  0  0  0
  183.0320  178.9980  143.9360 C   0  0  0  0  0  3  0  0  0  0  0  0
  184.3940  179.0850  140.6120 N   0  0  0  0  0  0  0  0  0  0  0  0
  184.7360  178.8660  141.9690 C   0  0  0  0  0  0  0  0  0  0  0  0
  180.6700  179.3140  143.2000 C   0  0  0  0  0  0  0  0  0  0  0  0
  181.7050  178.5080  143.7640 N   0  0  0  0  0  2  0  0  0  0  0  0
  180.8970  180.5020  142.8480 O   0  0  0  0  0  0  0  0  0  0  0  0
  179.2980  178.7540  143.0590 C   0  0  0  0  0  2  0  0  0  0  0  0
  179.3350  177.5770  142.2090 N   0  0  0  0  0  1  0  0  0  0  0  0
  188.6840  177.5540  141.6350 C   0  0  0  0  0  3  0  0  0  0  0  0
  189.4210  178.1030  142.5470 N   0  0  0  0  0  0  0  0  0  0  0  0
  191.0820  176.6430  143.2910 O   0  0  0  0  0  0  0  0  0  0  0  0
  190.0690  177.3430  143.5730 C   0  0  0  0  0  0  0  0  0  0  0  0
  189.5420  177.3850  144.9580 C   0  0  0  0  0  0  0  0  0  0  0  0
  187.9300  177.5240  148.8460 N   0  0  0  0  0  1  0  0  0  0  0  0
  188.1720  177.6150  145.1490 C   0  0  0  0  0  3  0  0  0  0  0  0
  190.3510  177.2050  146.1040 C   0  0  0  0  0  0  0  0  0  0  0  0
  187.6290  177.6630  146.4320 C   0  0  0  0  0  3  0  0  0  0  0  0
  189.7930  177.2560  147.3440 N   0  0  0  0  0  0  0  0  0  0  0  0
  191.7510  176.9660  145.9940 N   0  0  0  0  0  1  0  0  0  0  0  0
  188.4650  177.4790  147.5300 C   0  0  0  0  0  0  0  0  0  0  0  0
  188.1710  177.7150  139.2330 C   0  0  0  0  0  2  0  0  0  0  0  0
  187.7460  178.6540  136.8110 C   0  0  0  0  0  1  0  0  0  0  0  0
  189.0530  178.7960  138.0640 S   0  0  0  0  0  0  0  0  0  0  0  0
  1 26  1  6  0  0  0
  1  2  1  0  0  0  0
  1 14  1  0  0  0  0
  2  4  2  0  0  0  0
  3  6  2  0  0  0  0
  5  7  2  0  0  0  0
  5  2  1  0  0  0  0
  7  8  1  0  0  0  0
  8  4  1  0  0  0  0
  8  3  2  0  0  0  0
  9 10  1  0  0  0  0
 10  6  1  0  0  0  0
 11  9  2  0  0  0  0
 12  9  1  0  0  0  0
 13 12  1  0  0  0  0
 14 15  2  0  0  0  0
 15 17  1  0  0  0  0
 16 17  2  0  0  0  0
 17 18  1  0  0  0  0
 18 20  2  0  0  0  0
 18 21  1  0  0  0  0
 20 22  1  0  0  0  0
 21 23  2  0  0  0  0
 22 25  2  0  0  0  0
 23 25  1  0  0  0  0
 24 21  1  0  0  0  0
 25 19  1  0  0  0  0
 27 28  1  0  0  0  0
 28 26  1  0  0  0  0
M  END
>  <MODEL>
2

>  <REMARK>
 VINA RESULT:      -7.9      3.304      6.862
  Name = 
  8 active torsions:
  status: ('A' for Active; 'I' for Inactive)
    1  A    between atoms: C_1  and  C_5
    2  A    between atoms: C_2  and  C_9
    3  A    between atoms: C_3  and  C_25
    4  A    between atoms: C_7  and  C_9
    5  A    between atoms: C_7  and  S_27
    6  A    between atoms: C_8  and  C_9
    7  A    between atoms: C_19  and  N_21
    8  A    between atoms: N_20  and  C_25
                            x       y       z     vdW  Elec       q    Type
                         _______ _______ _______ _____ _____    ______ ____

>  <TORSDO>
F 8

$$$$
=
 OpenBabel10222416543D

 28 29  0  0  1  0  0  0  0  0999 V2000
  189.6910  177.2670  140.3840 C   0  0  1  0  0  3  0  0  0  0  0  0
  191.0610  177.1160  139.7970 C   0  0  0  0  0  0  0  0  0  0  0  0
  193.3470  176.2950  137.4290 C   0  0  0  0  0  0  0  0  0  0  0  0
  191.2830  176.6260  138.6170 N   0  0  0  0  0  0  0  0  0  0  0  0
  192.2430  177.5190  140.4900 N   0  0  0  0  0  0  0  0  0  0  0  0
  193.9990  175.9030  136.3720 C   0  0  0  0  0  3  0  0  0  0  0  0
  193.3140  177.2400  139.6360 N   0  0  0  0  0  0  0  0  0  0  0  0
  192.6960  176.6880  138.4880 C   0  0  0  0  0  0  0  0  0  0  0  0
  196.4620  175.8140  135.9880 C   0  0  0  0  0  0  0  0  0  0  0  0
  195.2590  175.2520  136.5130 N   0  0  0  0  0  2  0  0  0  0  0  0
  196.4430  176.9070  135.3630 O   0  0  0  0  0  0  0  0  0  0  0  0
  197.7470  175.0810  136.1500 C   0  0  0  0  0  2  0  0  0  0  0  0
  198.1900  175.1700  137.5300 N   0  0  0  0  0  1  0  0  0  0  0  0
  189.7700  177.5440  141.8470 C   0  0  0  0  0  3  0  0  0  0  0  0
  189.4750  176.6210  142.7060 N   0  0  0  0  0  0  0  0  0  0  0  0
  190.6230  176.6340  144.7370 O   0  0  0  0  0  0  0  0  0  0  0  0
  189.5400  176.8370  144.1200 C   0  0  0  0  0  0  0  0  0  0  0  0
  188.3320  177.2990  144.8450 C   0  0  0  0  0  0  0  0  0  0  0  0
  184.8360  178.6010  146.7980 N   0  0  0  0  0  1  0  0  0  0  0  0
  187.1410  177.4730  144.1250 C   0  0  0  0  0  3  0  0  0  0  0  0
  188.3160  177.5730  146.2320 C   0  0  0  0  0  0  0  0  0  0  0  0
  185.9790  177.9030  144.7620 C   0  0  0  0  0  3  0  0  0  0  0  0
  187.1660  177.9920  146.8270 N   0  0  0  0  0  0  0  0  0  0  0  0
  189.4830  177.4200  147.0330 N   0  0  0  0  0  1  0  0  0  0  0  0
  186.0110  178.1610  146.1300 C   0  0  0  0  0  0  0  0  0  0  0  0
  188.9220  178.3870  139.6960 C   0  0  0  0  0  2  0  0  0  0  0  0
  188.7140  178.7560  137.0980 C   0  0  0  0  0  1  0  0  0  0  0  0
  187.8900  177.7310  138.3490 S   0  0  0  0  0  0  0  0  0  0  0  0
  1 26  1  6  0  0  0
  1 14  1  0  0  0  0
  2  1  1  0  0  0  0
  2  5  1  0  0  0  0
  3  8  2  0  0  0  0
  4  2  2  0  0  0  0
  6 10  1  0  0  0  0
  6  3  2  0  0  0  0
  7  5  2  0  0  0  0
  8  4  1  0  0  0  0
  8  7  1  0  0  0  0
  9 12  1  0  0  0  0
  9 10  1  0  0  0  0
 11  9  2  0  0  0  0
 12 13  1  0  0  0  0
 14 15  2  0  0  0  0
 15 17  1  0  0  0  0
 17 16  2  0  0  0  0
 17 18  1  0  0  0  0
 18 21  1  0  0  0  0
 20 22  1  0  0  0  0
 20 18  2  0  0  0  0
 21 23  2  0  0  0  0
 21 24  1  0  0  0  0
 22 25  2  0  0  0  0
 25 19  1  0  0  0  0
 25 23  1  0  0  0  0
 27 28  1  0  0  0  0
 28 26  1  0  0  0  0
M  END
>  <MODEL>
3

>  <REMARK>
 VINA RESULT:      -7.8      4.799      6.400
  Name = 
  8 active torsions:
  status: ('A' for Active; 'I' for Inactive)
    1  A    between atoms: C_1  and  C_5
    2  A    between atoms: C_2  and  C_9
    3  A    between atoms: C_3  and  C_25
    4  A    between atoms: C_7  and  C_9
    5  A    between atoms: C_7  and  S_27
    6  A    between atoms: C_8  and  C_9
    7  A    between atoms: C_19  and  N_21
    8  A    between atoms: N_20  and  C_25
                            x       y       z     vdW  Elec       q    Type
                         _______ _______ _______ _____ _____    ______ ____

>  <TORSDO>
F 8

$$$$
=
 OpenBabel10222416543D

 28 29  0  0  1  0  0  0  0  0999 V2000
  188.4810  178.2880  140.5280 C   0  0  1  0  0  3  0  0  0  0  0  0
  187.0260  178.6390  140.5740 C   0  0  0  0  0  0  0  0  0  0  0  0
  183.8980  179.0680  139.3320 C   0  0  0  0  0  0  0  0  0  0  0  0
  186.2460  178.5910  139.5390 N   0  0  0  0  0  0  0  0  0  0  0  0
  186.3690  179.0440  141.7760 N   0  0  0  0  0  0  0  0  0  0  0  0
  182.8150  179.1490  138.6150 C   0  0  0  0  0  3  0  0  0  0  0  0
  185.0340  179.2730  141.4380 N   0  0  0  0  0  0  0  0  0  0  0  0
  184.9820  178.9880  140.0510 C   0  0  0  0  0  0  0  0  0  0  0  0
  180.8570  180.0860  139.8450 C   0  0  0  0  0  0  0  0  0  0  0  0
  181.8770  180.1960  138.8530 N   0  0  0  0  0  2  0  0  0  0  0  0
  180.7430  179.0390  140.5380 O   0  0  0  0  0  0  0  0  0  0  0  0
  179.8960  181.2050  140.0380 C   0  0  0  0  0  2  0  0  0  0  0  0
  179.4440  181.2290  141.4180 N   0  0  0  0  0  1  0  0  0  0  0  0
  188.8280  177.3300  141.6170 C   0  0  0  0  0  3  0  0  0  0  0  0
  189.6000  177.6950  142.5900 N   0  0  0  0  0  0  0  0  0  0  0  0
  190.6610  175.7910  143.4220 O   0  0  0  0  0  0  0  0  0  0  0  0
  189.9580  176.8140  143.6600 C   0  0  0  0  0  0  0  0  0  0  0  0
  189.4990  177.1120  145.0380 C   0  0  0  0  0  0  0  0  0  0  0  0
  188.0770  177.9650  148.9090 N   0  0  0  0  0  1  0  0  0  0  0  0
  188.1340  177.3490  145.2550 C   0  0  0  0  0  3  0  0  0  0  0  0
  190.3690  177.1690  146.1520 C   0  0  0  0  0  0  0  0  0  0  0  0
  187.6540  177.6320  146.5320 C   0  0  0  0  0  3  0  0  0  0  0  0
  189.8710  177.4470  147.3870 N   0  0  0  0  0  0  0  0  0  0  0  0
  191.7680  176.9380  146.0140 N   0  0  0  0  0  1  0  0  0  0  0  0
  188.5490  177.6770  147.5990 C   0  0  0  0  0  0  0  0  0  0  0  0
  188.8550  177.6840  139.1810 C   0  0  0  0  0  2  0  0  0  0  0  0
  190.1130  175.8660  137.7520 C   0  0  0  0  0  1  0  0  0  0  0  0
  190.4250  176.7720  139.2950 S   0  0  0  0  0  0  0  0  0  0  0  0
  1 26  1  6  0  0  0
  1  2  1  0  0  0  0
  1 14  1  0  0  0  0
  2  5  1  0  0  0  0
  3  8  2  0  0  0  0
  4  8  1  0  0  0  0
  4  2  2  0  0  0  0
  6 10  1  0  0  0  0
  6  3  2  0  0  0  0
  7  5  2  0  0  0  0
  8  7  1  0  0  0  0
  9 12  1  0  0  0  0
  9 11  2  0  0  0  0
 10  9  1  0  0  0  0
 12 13  1  0  0  0  0
 14 15  2  0  0  0  0
 15 17  1  0  0  0  0
 16 17  2  0  0  0  0
 17 18  1  0  0  0  0
 18 20  2  0  0  0  0
 18 21  1  0  0  0  0
 20 22  1  0  0  0  0
 21 23  2  0  0  0  0
 22 25  2  0  0  0  0
 23 25  1  0  0  0  0
 24 21  1  0  0  0  0
 25 19  1  0  0  0  0
 26 28  1  0  0  0  0
 27 28  1  0  0  0  0
M  END
>  <MODEL>
4

>  <REMARK>
 VINA RESULT:      -7.7      3.522      6.318
  Name = 
  8 active torsions:
  status: ('A' for Active; 'I' for Inactive)
    1  A    between atoms: C_1  and  C_5
    2  A    between atoms: C_2  and  C_9
    3  A    between atoms: C_3  and  C_25
    4  A    between atoms: C_7  and  C_9
    5  A    between atoms: C_7  and  S_27
    6  A    between atoms: C_8  and  C_9
    7  A    between atoms: C_19  and  N_21
    8  A    between atoms: N_20  and  C_25
                            x       y       z     vdW  Elec       q    Type
                         _______ _______ _______ _____ _____    ______ ____

>  <TORSDO>
F 8

$$$$
=
 OpenBabel10222416543D

 28 29  0  0  1  0  0  0  0  0999 V2000
  189.0800  178.2050  140.0560 C   0  0  1  0  0  3  0  0  0  0  0  0
  187.6070  178.3900  139.8520 C   0  0  0  0  0  0  0  0  0  0  0  0
  184.3690  178.7680  140.7910 C   0  0  0  0  0  0  0  0  0  0  0  0
  186.7530  178.4550  140.8260 N   0  0  0  0  0  0  0  0  0  0  0  0
  187.0210  178.5280  138.5570 N   0  0  0  0  0  0  0  0  0  0  0  0
  183.2310  178.8930  141.4120 C   0  0  0  0  0  3  0  0  0  0  0  0
  185.6490  178.6930  138.7610 N   0  0  0  0  0  0  0  0  0  0  0  0
  185.5080  178.6430  140.1700 C   0  0  0  0  0  0  0  0  0  0  0  0
  180.8190  178.2780  141.5810 C   0  0  0  0  0  0  0  0  0  0  0  0
  182.0510  178.3140  140.8600 N   0  0  0  0  0  2  0  0  0  0  0  0
  180.7410  178.7490  142.7470 O   0  0  0  0  0  0  0  0  0  0  0  0
  179.6240  177.6460  140.9610 C   0  0  0  0  0  2  0  0  0  0  0  0
  179.3060  176.4130  141.6590 N   0  0  0  0  0  1  0  0  0  0  0  0
  189.3420  177.2170  141.1420 C   0  0  0  0  0  3  0  0  0  0  0  0
  189.6500  177.6180  142.3330 N   0  0  0  0  0  0  0  0  0  0  0  0
  190.5400  175.6380  143.1880 O   0  0  0  0  0  0  0  0  0  0  0  0
  189.9070  176.7080  143.4090 C   0  0  0  0  0  0  0  0  0  0  0  0
  189.4260  177.0340  144.7730 C   0  0  0  0  0  0  0  0  0  0  0  0
  187.9420  177.9600  148.6040 N   0  0  0  0  0  1  0  0  0  0  0  0
  188.0500  177.2160  144.9750 C   0  0  0  0  0  3  0  0  0  0  0  0
  190.2850  177.1720  145.8880 C   0  0  0  0  0  0  0  0  0  0  0  0
  187.5490  177.5220  146.2390 C   0  0  0  0  0  3  0  0  0  0  0  0
  189.7670  177.4710  147.1100 N   0  0  0  0  0  0  0  0  0  0  0  0
  191.6940  177.0020  145.7650 N   0  0  0  0  0  1  0  0  0  0  0  0
  188.4340  177.6470  147.3070 C   0  0  0  0  0  0  0  0  0  0  0  0
  189.7550  177.7420  138.7730 C   0  0  0  0  0  2  0  0  0  0  0  0
  191.5810  176.4140  137.4190 C   0  0  0  0  0  1  0  0  0  0  0  0
  190.9140  176.3790  139.1070 S   0  0  0  0  0  0  0  0  0  0  0  0
  1 26  1  6  0  0  0
  1 14  1  0  0  0  0
  2  1  1  0  0  0  0
  2  4  2  0  0  0  0
  3  6  2  0  0  0  0
  5  7  2  0  0  0  0
  5  2  1  0  0  0  0
  7  8  1  0  0  0  0
  8  3  2  0  0  0  0
  8  4  1  0  0  0  0
  9 11  2  0  0  0  0
 10  6  1  0  0  0  0
 10  9  1  0  0  0  0
 12  9  1  0  0  0  0
 12 13  1  0  0  0  0
 14 15  2  0  0  0  0
 15 17  1  0  0  0  0
 16 17  2  0  0  0  0
 17 18  1  0  0  0  0
 18 20  2  0  0  0  0
 18 21  1  0  0  0  0
 20 22  1  0  0  0  0
 21 23  2  0  0  0  0
 22 25  2  0  0  0  0
 23 25  1  0  0  0  0
 24 21  1  0  0  0  0
 25 19  1  0  0  0  0
 26 28  1  0  0  0  0
 27 28  1  0  0  0  0
M  END
>  <MODEL>
5

>  <REMARK>
 VINA RESULT:      -7.5      3.302      6.273
  Name = 
  8 active torsions:
  status: ('A' for Active; 'I' for Inactive)
    1  A    between atoms: C_1  and  C_5
    2  A    between atoms: C_2  and  C_9
    3  A    between atoms: C_3  and  C_25
    4  A    between atoms: C_7  and  C_9
    5  A    between atoms: C_7  and  S_27
    6  A    between atoms: C_8  and  C_9
    7  A    between atoms: C_19  and  N_21
    8  A    between atoms: N_20  and  C_25
                            x       y       z     vdW  Elec       q    Type
                         _______ _______ _______ _____ _____    ______ ____

>  <TORSDO>
F 8

$$$$
=
 OpenBabel10222416543D

 28 29  0  0  1  0  0  0  0  0999 V2000
  188.9060  177.8980  145.4960 C   0  0  1  0  0  3  0  0  0  0  0  0
  189.0690  177.3460  144.1130 C   0  0  0  0  0  0  0  0  0  0  0  0
  190.2200  177.2620  140.9230 C   0  0  0  0  0  0  0  0  0  0  0  0
  189.7710  177.9270  143.1900 N   0  0  0  0  0  0  0  0  0  0  0  0
  188.4740  176.1140  143.7010 N   0  0  0  0  0  0  0  0  0  0  0  0
  190.7890  177.4700  139.7710 C   0  0  0  0  0  3  0  0  0  0  0  0
  188.8520  175.9210  142.3700 N   0  0  0  0  0  0  0  0  0  0  0  0
  189.6510  177.0530  142.0770 C   0  0  0  0  0  0  0  0  0  0  0  0
  190.2780  175.8560  137.9390 C   0  0  0  0  0  0  0  0  0  0  0  0
  190.1070  177.1260  138.5670 N   0  0  0  0  0  2  0  0  0  0  0  0
  191.0580  174.9950  138.4260 O   0  0  0  0  0  0  0  0  0  0  0  0
  189.5520  175.5590  136.6740 C   0  0  0  0  0  2  0  0  0  0  0  0
  189.2010  174.1500  136.6310 N   0  0  0  0  0  1  0  0  0  0  0  0
  187.4650  177.9470  145.8780 C   0  0  0  0  0  3  0  0  0  0  0  0
  186.6120  178.5790  145.1380 N   0  0  0  0  0  0  0  0  0  0  0  0
  184.8550  178.6900  146.6690 O   0  0  0  0  0  0  0  0  0  0  0  0
  185.2180  178.6510  145.4600 C   0  0  0  0  0  0  0  0  0  0  0  0
  184.2150  178.6780  144.3690 C   0  0  0  0  0  0  0  0  0  0  0  0
  181.2790  178.7830  141.3520 N   0  0  0  0  0  1  0  0  0  0  0  0
  182.8760  178.9400  144.6920 C   0  0  0  0  0  3  0  0  0  0  0  0
  184.5390  178.4520  143.0110 C   0  0  0  0  0  0  0  0  0  0  0  0
  181.8980  178.9770  143.7010 C   0  0  0  0  0  3  0  0  0  0  0  0
  183.5620  178.4950  142.0650 N   0  0  0  0  0  0  0  0  0  0  0  0
  185.8760  178.1800  142.6010 N   0  0  0  0  0  1  0  0  0  0  0  0
  182.2640  178.7500  142.3770 C   0  0  0  0  0  0  0  0  0  0  0  0
  189.6730  177.0630  146.5120 C   0  0  0  0  0  2  0  0  0  0  0  0
  191.8310  175.9270  147.5030 C   0  0  0  0  0  1  0  0  0  0  0  0
  191.4090  176.8610  146.0040 S   0  0  0  0  0  0  0  0  0  0  0  0
  1 14  1  1  0  0  0
  1 26  1  0  0  0  0
  2  1  1  0  0  0  0
  3  8  2  0  0  0  0
  4  2  2  0  0  0  0
  5  2  1  0  0  0  0
  6  3  2  0  0  0  0
  7  5  2  0  0  0  0
  8  7  1  0  0  0  0
  8  4  1  0  0  0  0
  9 11  2  0  0  0  0
  9 10  1  0  0  0  0
 10  6  1  0  0  0  0
 12  9  1  0  0  0  0
 13 12  1  0  0  0  0
 15 17  1  0  0  0  0
 15 14  2  0  0  0  0
 17 16  2  0  0  0  0
 18 20  1  0  0  0  0
 18 17  1  0  0  0  0
 19 25  1  0  0  0  0
 21 18  2  0  0  0  0
 22 20  2  0  0  0  0
 23 25  2  0  0  0  0
 23 21  1  0  0  0  0
 24 21  1  0  0  0  0
 25 22  1  0  0  0  0
 28 26  1  0  0  0  0
 28 27  1  0  0  0  0
M  END
>  <MODEL>
6

>  <REMARK>
 VINA RESULT:      -7.5      2.092      2.273
  Name = 
  8 active torsions:
  status: ('A' for Active; 'I' for Inactive)
    1  A    between atoms: C_1  and  C_5
    2  A    between atoms: C_2  and  C_9
    3  A    between atoms: C_3  and  C_25
    4  A    between atoms: C_7  and  C_9
    5  A    between atoms: C_7  and  S_27
    6  A    between atoms: C_8  and  C_9
    7  A    between atoms: C_19  and  N_21
    8  A    between atoms: N_20  and  C_25
                            x       y       z     vdW  Elec       q    Type
                         _______ _______ _______ _____ _____    ______ ____

>  <TORSDO>
F 8

$$$$
=
 OpenBabel10222416543D

 28 29  0  0  1  0  0  0  0  0999 V2000
  183.5500  178.6250  143.8580 C   0  0  1  0  0  3  0  0  0  0  0  0
  184.2120  178.7670  142.5220 C   0  0  0  0  0  0  0  0  0  0  0  0
  184.6220  178.2580  139.1930 C   0  0  0  0  0  0  0  0  0  0  0  0
  183.7820  178.1860  141.4450 N   0  0  0  0  0  0  0  0  0  0  0  0
  185.3730  179.5750  142.3210 N   0  0  0  0  0  0  0  0  0  0  0  0
  184.5470  177.9050  137.9420 C   0  0  0  0  0  3  0  0  0  0  0  0
  185.6930  179.4740  140.9650 N   0  0  0  0  0  0  0  0  0  0  0  0
  184.6970  178.6110  140.4450 C   0  0  0  0  0  0  0  0  0  0  0  0
  186.1310  176.3280  136.8320 C   0  0  0  0  0  0  0  0  0  0  0  0
  185.7380  177.6510  137.2010 N   0  0  0  0  0  2  0  0  0  0  0  0
  185.4370  175.3330  137.1700 O   0  0  0  0  0  0  0  0  0  0  0  0
  187.3930  176.1220  136.0720 C   0  0  0  0  0  2  0  0  0  0  0  0
  188.3120  175.3190  136.8590 N   0  0  0  0  0  1  0  0  0  0  0  0
  184.4840  179.0100  144.9540 C   0  0  0  0  0  3  0  0  0  0  0  0
  185.3920  178.1830  145.3630 N   0  0  0  0  0  0  0  0  0  0  0  0
  185.9340  179.2180  147.3820 O   0  0  0  0  0  0  0  0  0  0  0  0
  186.3130  178.5080  146.4100 C   0  0  0  0  0  0  0  0  0  0  0  0
  187.7070  178.0060  146.3390 C   0  0  0  0  0  0  0  0  0  0  0  0
  191.6610  176.5940  146.0130 N   0  0  0  0  0  1  0  0  0  0  0  0
  188.3070  177.8630  145.0790 C   0  0  0  0  0  3  0  0  0  0  0  0
  188.4680  177.6630  147.4800 C   0  0  0  0  0  0  0  0  0  0  0  0
  189.6140  177.3970  144.9610 C   0  0  0  0  0  3  0  0  0  0  0  0
  189.7430  177.2100  147.3340 N   0  0  0  0  0  0  0  0  0  0  0  0
  187.9310  177.7820  148.7940 N   0  0  0  0  0  1  0  0  0  0  0  0
  190.3250  177.0710  146.1140 C   0  0  0  0  0  0  0  0  0  0  0  0
  182.2920  179.4790  143.9370 C   0  0  0  0  0  2  0  0  0  0  0  0
  180.3300  179.5200  142.1820 C   0  0  0  0  0  1  0  0  0  0  0  0
  180.8090  178.4810  143.5920 S   0  0  0  0  0  0  0  0  0  0  0  0
  1 26  1  6  0  0  0
  1 14  1  0  0  0  0
  2  1  1  0  0  0  0
  3  8  2  0  0  0  0
  4  2  2  0  0  0  0
  5  2  1  0  0  0  0
  6  3  2  0  0  0  0
  7  5  2  0  0  0  0
  8  7  1  0  0  0  0
  8  4  1  0  0  0  0
  9 11  2  0  0  0  0
  9 10  1  0  0  0  0
 10  6  1  0  0  0  0
 12  9  1  0  0  0  0
 12 13  1  0  0  0  0
 14 15  2  0  0  0  0
 15 17  1  0  0  0  0
 17 16  2  0  0  0  0
 18 17  1  0  0  0  0
 18 21  1  0  0  0  0
 19 25  1  0  0  0  0
 20 18  2  0  0  0  0
 21 24  1  0  0  0  0
 22 20  1  0  0  0  0
 22 25  2  0  0  0  0
 23 21  2  0  0  0  0
 25 23  1  0  0  0  0
 27 28  1  0  0  0  0
 28 26  1  0  0  0  0
M  END
>  <MODEL>
7

>  <REMARK>
 VINA RESULT:      -7.3      3.267      6.312
  Name = 
  8 active torsions:
  status: ('A' for Active; 'I' for Inactive)
    1  A    between atoms: C_1  and  C_5
    2  A    between atoms: C_2  and  C_9
    3  A    between atoms: C_3  and  C_25
    4  A    between atoms: C_7  and  C_9
    5  A    between atoms: C_7  and  S_27
    6  A    between atoms: C_8  and  C_9
    7  A    between atoms: C_19  and  N_21
    8  A    between atoms: N_20  and  C_25
                            x       y       z     vdW  Elec       q    Type
                         _______ _______ _______ _____ _____    ______ ____

>  <TORSDO>
F 8

$$$$
=
 OpenBabel10222416543D

 28 29  0  0  1  0  0  0  0  0999 V2000
  188.8740  177.3870  140.5940 C   0  0  1  0  0  3  0  0  0  0  0  0
  189.8070  177.1090  139.4550 C   0  0  0  0  0  0  0  0  0  0  0  0
  192.5420  175.7970  137.9350 C   0  0  0  0  0  0  0  0  0  0  0  0
  190.8950  176.4130  139.5760 N   0  0  0  0  0  0  0  0  0  0  0  0
  189.5630  177.5790  138.1290 N   0  0  0  0  0  0  0  0  0  0  0  0
  193.6460  175.1910  137.6080 C   0  0  0  0  0  3  0  0  0  0  0  0
  190.6260  177.1210  137.3470 N   0  0  0  0  0  0  0  0  0  0  0  0
  191.4360  176.4040  138.2630 C   0  0  0  0  0  0  0  0  0  0  0  0
  195.8190  175.2370  136.3830 C   0  0  0  0  0  0  0  0  0  0  0  0
  194.5280  175.7810  136.6550 N   0  0  0  0  0  2  0  0  0  0  0  0
  196.2300  174.2150  136.9960 O   0  0  0  0  0  0  0  0  0  0  0  0
  196.7030  175.9050  135.3900 C   0  0  0  0  0  2  0  0  0  0  0  0
  198.0930  175.6270  135.7070 N   0  0  0  0  0  1  0  0  0  0  0  0
  189.6280  177.8640  141.7890 C   0  0  0  0  0  3  0  0  0  0  0  0
  189.9080  177.0500  142.7560 N   0  0  0  0  0  0  0  0  0  0  0  0
  191.8410  177.8110  143.8190 O   0  0  0  0  0  0  0  0  0  0  0  0
  190.6320  177.4600  143.9210 C   0  0  0  0  0  0  0  0  0  0  0  0
  189.9530  177.4680  145.2390 C   0  0  0  0  0  0  0  0  0  0  0  0
  187.9170  177.5260  148.9250 N   0  0  0  0  0  1  0  0  0  0  0  0
  188.6060  177.8550  145.2990 C   0  0  0  0  0  3  0  0  0  0  0  0
  190.5930  177.1040  146.4460 C   0  0  0  0  0  0  0  0  0  0  0  0
  187.9240  177.8770  146.5130 C   0  0  0  0  0  3  0  0  0  0  0  0
  189.9010  177.1350  147.6170 N   0  0  0  0  0  0  0  0  0  0  0  0
  191.9590  176.6980  146.4690 N   0  0  0  0  0  1  0  0  0  0  0  0
  188.5960  177.5100  147.6760 C   0  0  0  0  0  0  0  0  0  0  0  0
  187.8300  178.4230  140.2050 C   0  0  0  0  0  2  0  0  0  0  0  0
  185.2420  178.8840  140.3460 C   0  0  0  0  0  1  0  0  0  0  0  0
  186.5970  178.6280  141.5270 S   0  0  0  0  0  0  0  0  0  0  0  0
  1 26  1  6  0  0  0
  1 14  1  0  0  0  0
  2  4  2  0  0  0  0
  2  1  1  0  0  0  0
  3  8  2  0  0  0  0
  5  2  1  0  0  0  0
  6  3  2  0  0  0  0
  7  5  2  0  0  0  0
  7  8  1  0  0  0  0
  8  4  1  0  0  0  0
  9 10  1  0  0  0  0
  9 11  2  0  0  0  0
 10  6  1  0  0  0  0
 12 13  1  0  0  0  0
 12  9  1  0  0  0  0
 14 15  2  0  0  0  0
 15 17  1  0  0  0  0
 16 17  2  0  0  0  0
 17 18  1  0  0  0  0
 18 20  2  0  0  0  0
 18 21  1  0  0  0  0
 20 22  1  0  0  0  0
 21 24  1  0  0  0  0
 21 23  2  0  0  0  0
 22 25  2  0  0  0  0
 23 25  1  0  0  0  0
 25 19  1  0  0  0  0
 26 28  1  0  0  0  0
 27 28  1  0  0  0  0
M  END
>  <MODEL>
8

>  <REMARK>
 VINA RESULT:      -7.3      4.623      6.681
  Name = 
  8 active torsions:
  status: ('A' for Active; 'I' for Inactive)
    1  A    between atoms: C_1  and  C_5
    2  A    between atoms: C_2  and  C_9
    3  A    between atoms: C_3  and  C_25
    4  A    between atoms: C_7  and  C_9
    5  A    between atoms: C_7  and  S_27
    6  A    between atoms: C_8  and  C_9
    7  A    between atoms: C_19  and  N_21
    8  A    between atoms: N_20  and  C_25
                            x       y       z     vdW  Elec       q    Type
                         _______ _______ _______ _____ _____    ______ ____

>  <TORSDO>
F 8

$$$$
=
 OpenBabel10222416543D

 28 29  0  0  1  0  0  0  0  0999 V2000
  188.0620  177.0630  143.1730 C   0  0  1  0  0  3  0  0  0  0  0  0
  186.7980  177.8400  142.9640 C   0  0  0  0  0  0  0  0  0  0  0  0
  183.6100  178.8070  143.6050 C   0  0  0  0  0  0  0  0  0  0  0  0
  185.7390  177.6920  143.6980 N   0  0  0  0  0  0  0  0  0  0  0  0
  186.6610  178.8260  141.9400 N   0  0  0  0  0  0  0  0  0  0  0  0
  182.4040  178.9910  144.0600 C   0  0  0  0  0  3  0  0  0  0  0  0
  185.3680  179.3400  142.0590 N   0  0  0  0  0  0  0  0  0  0  0  0
  184.8180  178.6240  143.1500 C   0  0  0  0  0  0  0  0  0  0  0  0
  180.0320  178.6940  143.3500 C   0  0  0  0  0  0  0  0  0  0  0  0
  181.3330  179.2480  143.1560 N   0  0  0  0  0  2  0  0  0  0  0  0
  179.7920  177.9380  144.3290 O   0  0  0  0  0  0  0  0  0  0  0  0
  178.9560  178.9840  142.3640 C   0  0  0  0  0  2  0  0  0  0  0  0
  179.4760  179.8330  141.3070 N   0  0  0  0  0  1  0  0  0  0  0  0
  189.1170  177.5040  142.2160 C   0  0  0  0  0  3  0  0  0  0  0  0
  189.4690  176.7430  141.2300 N   0  0  0  0  0  0  0  0  0  0  0  0
  191.6440  177.3850  140.6820 O   0  0  0  0  0  0  0  0  0  0  0  0
  190.4740  177.1240  140.2840 C   0  0  0  0  0  0  0  0  0  0  0  0
  190.1290  177.2090  138.8450 C   0  0  0  0  0  0  0  0  0  0  0  0
  189.0960  177.5610  134.7780 N   0  0  0  0  0  1  0  0  0  0  0  0
  189.4210  178.3300  138.3880 C   0  0  0  0  0  3  0  0  0  0  0  0
  190.4780  176.2140  137.9020 C   0  0  0  0  0  0  0  0  0  0  0  0
  189.0750  178.4560  137.0450 C   0  0  0  0  0  3  0  0  0  0  0  0
  190.1260  176.3640  136.5960 N   0  0  0  0  0  0  0  0  0  0  0  0
  191.1970  175.0460  138.2870 N   0  0  0  0  0  1  0  0  0  0  0  0
  189.4410  177.4500  136.1520 C   0  0  0  0  0  0  0  0  0  0  0  0
  188.5700  177.2200  144.5990 C   0  0  0  0  0  2  0  0  0  0  0  0
  191.0610  177.0440  145.4300 C   0  0  0  0  0  1  0  0  0  0  0  0
  190.0230  178.3140  144.6520 S   0  0  0  0  0  0  0  0  0  0  0  0
  1 14  1  6  0  0  0
  1 26  1  0  0  0  0
  2  1  1  0  0  0  0
  2  4  2  0  0  0  0
  3  6  2  0  0  0  0
  5  7  2  0  0  0  0
  5  2  1  0  0  0  0
  7  8  1  0  0  0  0
  8  3  2  0  0  0  0
  8  4  1  0  0  0  0
  9 11  2  0  0  0  0
 10  9  1  0  0  0  0
 10  6  1  0  0  0  0
 12  9  1  0  0  0  0
 13 12  1  0  0  0  0
 15 14  2  0  0  0  0
 17 16  2  0  0  0  0
 17 15  1  0  0  0  0
 18 17  1  0  0  0  0
 19 25  1  0  0  0  0
 20 18  1  0  0  0  0
 21 24  1  0  0  0  0
 21 18  2  0  0  0  0
 22 20  2  0  0  0  0
 23 21  1  0  0  0  0
 25 23  2  0  0  0  0
 25 22  1  0  0  0  0
 26 28  1  0  0  0  0
 28 27  1  0  0  0  0
M  END
>  <MODEL>
9

>  <REMARK>
 VINA RESULT:      -7.3      2.785      7.207
  Name = 
  8 active torsions:
  status: ('A' for Active; 'I' for Inactive)
    1  A    between atoms: C_1  and  C_5
    2  A    between atoms: C_2  and  C_9
    3  A    between atoms: C_3  and  C_25
    4  A    between atoms: C_7  and  C_9
    5  A    between atoms: C_7  and  S_27
    6  A    between atoms: C_8  and  C_9
    7  A    between atoms: C_19  and  N_21
    8  A    between atoms: N_20  and  C_25
                            x       y       z     vdW  Elec       q    Type
                         _______ _______ _______ _____ _____    ______ ____

>  <TORSDO>
F 8

$$$$
