=
 OpenBabel10222416493D

 45 49  0  0  1  0  0  0  0  0999 V2000
  188.3150  177.9480  139.7830 C   0  0  0  0  0  2  0  0  0  0  0  0
  190.2980  176.1620  141.4280 C   0  0  0  0  0  2  0  0  0  0  0  0
  188.7830  178.6150  138.5010 C   0  0  0  0  0  2  0  0  0  0  0  0
  189.3060  177.5590  137.5290 C   0  0  0  0  0  2  0  0  0  0  0  0
  189.3190  178.0350  140.8490 N   0  0  2  0  0  0  0  0  0  0  0  0
  191.1440  177.1270  139.1630 C   0  0  2  0  0  3  0  0  0  0  0  0
  190.6280  177.3860  140.6010 C   0  0  2  0  0  3  0  0  0  0  0  0
  189.0000  176.9010  141.7180 C   0  0  2  0  0  3  0  0  0  0  0  0
  190.1360  176.4810  138.2260 C   0  0  0  0  0  2  0  0  0  0  0  0
  188.8590  177.3180  143.1620 C   0  0  0  0  0  0  0  0  0  0  0  0
  189.3350  177.8790  145.3980 C   0  0  2  0  0  3  0  0  0  0  0  0
  189.4680  176.4640  147.3110 O   0  0  0  0  0  0  0  0  0  0  0  0
  189.8390  177.5620  144.0370 C   0  0  0  0  0  0  0  0  0  0  0  0
  192.0620  177.0090  144.8490 C   0  0  0  0  0  3  0  0  0  0  0  0
  190.0550  176.9890  146.3790 C   0  0  0  0  0  0  0  0  0  0  0  0
  187.5190  177.3740  143.8060 C   0  0  0  0  0  2  0  0  0  0  0  0
  186.9770  177.7820  146.2210 C   0  0  0  0  0  3  0  0  0  0  0  0
  187.8690  177.6340  145.2350 C   0  0  0  0  0  0  0  0  0  0  0  0
  191.5550  176.8610  146.2690 C   0  0  0  0  0  2  0  0  0  0  0  0
  191.2710  177.3170  143.8160 C   0  0  0  0  0  3  0  0  0  0  0  0
  185.2120  177.5920  145.9470 S   0  0  0  0  0  0  0  0  0  0  0  0
  185.0700  179.2680  145.2730 C   0  0  0  0  0  2  0  0  0  0  0  0
  183.4960  179.4270  144.3900 S   0  0  0  0  0  0  0  0  0  0  0  0
  184.1730  178.6520  142.8900 C   0  0  0  0  0  2  0  0  0  0  0  0
  185.4000  179.4100  142.4070 C   0  0  0  0  0  2  0  0  0  0  0  0
  185.4560  179.3980  140.9570 N   0  0  0  0  0  2  0  0  0  0  0  0
  184.2310  178.7600  140.4880 C   0  0  0  0  0  2  0  0  0  0  0  0
  182.4730  178.9300  138.7510 C   0  0  0  0  0  1  0  0  0  0  0  0
  183.9470  179.1350  139.0370 C   0  0  0  0  0  0  0  0  0  0  0  0
  184.2690  180.4770  138.8180 O   0  0  0  0  0  1  0  0  0  0  0  0
  184.7560  178.2520  138.0990 C   0  0  0  0  0  1  0  0  0  0  0  0
  192.6480  176.2450  136.9030 O   0  0  0  0  0  0  0  0  0  0  0  0
  192.3530  176.3170  139.2130 N   0  0  0  0  0  2  0  0  0  0  0  0
  194.4160  175.4380  138.1840 N   0  0  0  0  0  2  0  0  0  0  0  0
  193.1140  176.0000  138.0470 C   0  0  0  0  0  0  0  0  0  0  0  0
  197.3710  173.0690  137.6890 O   0  0  0  0  0  0  0  0  0  0  0  0
  196.7290  175.3980  137.2900 C   0  0  1  0  0  3  0  0  0  0  0  0
  195.0300  172.6890  139.1480 O   0  0  0  0  0  1  0  0  0  0  0  0
  195.5820  171.2660  137.0210 O   0  0  0  0  0  0  0  0  0  0  0  0
  195.7240  172.6550  137.6020 P   0  0  2  0  0  0  0  0  0  0  0  0
  195.2350  175.0990  137.0240 C   0  0  1  0  0  3  0  0  0  0  0  0
  194.9600  173.7840  136.5730 O   0  0  0  0  0  0  0  0  0  0  0  0
  197.4130  174.3710  138.2120 C   0  0  0  0  0  2  0  0  0  0  0  0
  197.4830  175.7560  136.1490 O   0  0  0  0  0  0  0  0  0  0  0  0
  196.6490  176.4140  135.2270 C   0  0  0  0  0  1  0  0  0  0  0  0
  2  8  1  0  0  0  0
  3  1  1  0  0  0  0
  4  9  1  0  0  0  0
  4  3  1  0  0  0  0
  5  1  1  6  0  0  0
  5  8  1  0  0  0  0
  6 33  1  1  0  0  0
  6  7  1  0  0  0  0
  7  5  1  0  0  0  0
  7  2  1  1  0  0  0
  8 10  1  1  0  0  0
  9  6  1  0  0  0  0
 10 16  1  0  0  0  0
 10 13  2  0  0  0  0
 11 13  1  6  0  0  0
 11 15  1  0  0  0  0
 14 19  1  0  0  0  0
 15 12  2  0  0  0  0
 16 18  1  0  0  0  0
 18 11  1  0  0  0  0
 18 17  2  0  0  0  0
 19 15  1  0  0  0  0
 20 13  1  0  0  0  0
 20 14  2  0  0  0  0
 21 17  1  0  0  0  0
 22 21  1  0  0  0  0
 23 22  1  0  0  0  0
 24 23  1  0  0  0  0
 25 24  1  0  0  0  0
 26 25  1  0  0  0  0
 27 26  1  0  0  0  0
 28 29  1  0  0  0  0
 29 27  1  0  0  0  0
 30 29  1  0  0  0  0
 31 29  1  0  0  0  0
 32 35  2  0  0  0  0
 35 34  1  0  0  0  0
 35 33  1  0  0  0  0
 36 43  1  0  0  0  0
 37 44  1  6  0  0  0
 37 43  1  0  0  0  0
 40 39  2  6  0  0  0
 40 36  1  0  0  0  0
 40 38  1  0  0  0  0
 41 37  1  0  0  0  0
 41 34  1  1  0  0  0
 42 41  1  0  0  0  0
 42 40  1  0  0  0  0
 45 44  1  0  0  0  0
M  END
>  <MODEL>
1

>  <REMARK>
 VINA RESULT:      -8.4      0.000      0.000
  Name = 
  12 active torsions:
  status: ('A' for Active; 'I' for Inactive)
    1  A    between atoms: C_1  and  C_41
    2  A    between atoms: N_7  and  C_14
    3  A    between atoms: N_7  and  C_21
    4  A    between atoms: S_8  and  C_9
    5  A    between atoms: S_8  and  C_36
    6  A    between atoms: C_9  and  S_28
    7  A    between atoms: C_12  and  C_21
    8  A    between atoms: N_13  and  C_33
    9  A    between atoms: C_14  and  C_15
   10  A    between atoms: C_15  and  S_28
   11  A    between atoms: C_16  and  O_43
   12  A    between atoms: N_18  and  C_32
                            x       y       z     vdW  Elec       q    Type
                         _______ _______ _______ _____ _____    ______ ____

>  <TORSDO>
F 12

$$$$
=
 OpenBabel10222416493D

 45 49  0  0  1  0  0  0  0  0999 V2000
  186.7250  176.1390  134.7380 C   0  0  0  0  0  2  0  0  0  0  0  0
  187.0940  174.6160  137.4530 C   0  0  0  0  0  2  0  0  0  0  0  0
  187.2340  177.5620  134.5940 C   0  0  0  0  0  2  0  0  0  0  0  0
  188.7290  177.6110  134.9060 C   0  0  0  0  0  2  0  0  0  0  0  0
  186.0590  175.9190  136.0270 N   0  0  2  0  0  0  0  0  0  0  0  0
  188.1450  176.9890  137.2520 C   0  0  2  0  0  3  0  0  0  0  0  0
  186.8760  176.1000  137.2510 C   0  0  2  0  0  3  0  0  0  0  0  0
  186.1860  174.4760  136.2410 C   0  0  2  0  0  3  0  0  0  0  0  0
  189.1060  176.7380  136.1030 C   0  0  0  0  0  2  0  0  0  0  0  0
  184.8580  173.8330  136.5570 C   0  0  0  0  0  0  0  0  0  0  0  0
  183.1140  172.2670  136.7810 C   0  0  2  0  0  3  0  0  0  0  0  0
  181.4060  171.6810  135.2260 O   0  0  0  0  0  0  0  0  0  0  0  0
  184.5390  172.5390  136.4580 C   0  0  0  0  0  0  0  0  0  0  0  0
  184.8020  170.4350  135.2690 C   0  0  0  0  0  3  0  0  0  0  0  0
  182.5270  171.4580  135.6530 C   0  0  0  0  0  0  0  0  0  0  0  0
  183.6780  174.6660  136.9130 C   0  0  0  0  0  2  0  0  0  0  0  0
  181.3040  173.9270  137.2450 C   0  0  0  0  0  3  0  0  0  0  0  0
  182.5800  173.6530  136.9490 C   0  0  0  0  0  0  0  0  0  0  0  0
  183.3020  170.2680  135.1410 C   0  0  0  0  0  2  0  0  0  0  0  0
  185.3760  171.4880  135.8610 C   0  0  0  0  0  3  0  0  0  0  0  0
  180.7350  175.6020  137.5540 S   0  0  0  0  0  0  0  0  0  0  0  0
  179.4240  175.0220  138.6630 C   0  0  0  0  0  2  0  0  0  0  0  0
  179.8020  175.5360  140.3590 S   0  0  0  0  0  0  0  0  0  0  0  0
  180.8590  176.9020  139.7880 C   0  0  0  0  0  2  0  0  0  0  0  0
  180.5070  178.1880  140.5180 C   0  0  0  0  0  2  0  0  0  0  0  0
  181.6500  179.0830  140.5330 N   0  0  0  0  0  2  0  0  0  0  0  0
  182.2710  179.0030  139.2160 C   0  0  0  0  0  2  0  0  0  0  0  0
  184.4420  178.2320  138.3070 C   0  0  0  0  0  1  0  0  0  0  0  0
  183.7860  179.1450  139.3240 C   0  0  0  0  0  0  0  0  0  0  0  0
  184.1630  180.4640  139.0610 O   0  0  0  0  0  1  0  0  0  0  0  0
  184.2530  178.7440  140.7150 C   0  0  0  0  0  1  0  0  0  0  0  0
  187.8720  178.7010  139.5200 O   0  0  0  0  0  0  0  0  0  0  0  0
  188.8490  176.8390  138.5190 N   0  0  0  0  0  2  0  0  0  0  0  0
  189.1010  177.3130  140.9260 N   0  0  0  0  0  2  0  0  0  0  0  0
  188.5850  177.6720  139.6480 C   0  0  0  0  0  0  0  0  0  0  0  0
  188.8450  176.4850  144.6470 O   0  0  0  0  0  0  0  0  0  0  0  0
  187.6060  177.6400  142.8780 C   0  0  1  0  0  3  0  0  0  0  0  0
  190.6330  175.5190  142.7430 O   0  0  0  0  0  0  0  0  0  0  0  0
  191.4190  176.9990  144.7540 O   0  0  0  0  0  1  0  0  0  0  0  0
  190.2750  176.8080  143.7840 P   0  0  2  0  0  0  0  0  0  0  0  0
  188.8580  178.1290  142.1120 C   0  0  1  0  0  3  0  0  0  0  0  0
  190.0320  178.2480  142.8990 O   0  0  0  0  0  0  0  0  0  0  0  0
  187.8370  176.3450  143.6810 C   0  0  0  0  0  2  0  0  0  0  0  0
  186.8980  178.6450  143.5760 O   0  0  0  0  0  0  0  0  0  0  0  0
  185.7000  178.1070  144.0780 C   0  0  0  0  0  1  0  0  0  0  0  0
  3  1  1  0  0  0  0
  3  4  1  0  0  0  0
  4  9  1  0  0  0  0
  5  1  1  6  0  0  0
  5  8  1  0  0  0  0
  5  7  1  0  0  0  0
  6 33  1  1  0  0  0
  7  6  1  0  0  0  0
  7  2  1  6  0  0  0
  8 10  1  1  0  0  0
  8  2  1  0  0  0  0
  9  6  1  0  0  0  0
 10 16  1  0  0  0  0
 11 15  1  6  0  0  0
 11 18  1  0  0  0  0
 12 15  2  0  0  0  0
 13 10  2  0  0  0  0
 13 11  1  0  0  0  0
 14 20  2  0  0  0  0
 16 18  1  0  0  0  0
 17 21  1  0  0  0  0
 18 17  2  0  0  0  0
 19 14  1  0  0  0  0
 19 15  1  0  0  0  0
 20 13  1  0  0  0  0
 21 22  1  0  0  0  0
 22 23  1  0  0  0  0
 24 23  1  0  0  0  0
 24 25  1  0  0  0  0
 25 26  1  0  0  0  0
 27 29  1  0  0  0  0
 27 26  1  0  0  0  0
 28 29  1  0  0  0  0
 29 31  1  0  0  0  0
 30 29  1  0  0  0  0
 32 35  2  0  0  0  0
 33 35  1  0  0  0  0
 35 34  1  0  0  0  0
 37 44  1  1  0  0  0
 37 43  1  0  0  0  0
 40 38  2  6  0  0  0
 40 36  1  0  0  0  0
 40 39  1  0  0  0  0
 41 34  1  6  0  0  0
 41 37  1  0  0  0  0
 41 42  1  0  0  0  0
 42 40  1  0  0  0  0
 43 36  1  0  0  0  0
 44 45  1  0  0  0  0
M  END
>  <MODEL>
2

>  <REMARK>
 VINA RESULT:      -7.8      4.788      8.721
  Name = 
  12 active torsions:
  status: ('A' for Active; 'I' for Inactive)
    1  A    between atoms: C_1  and  C_41
    2  A    between atoms: N_7  and  C_14
    3  A    between atoms: N_7  and  C_21
    4  A    between atoms: S_8  and  C_9
    5  A    between atoms: S_8  and  C_36
    6  A    between atoms: C_9  and  S_28
    7  A    between atoms: C_12  and  C_21
    8  A    between atoms: N_13  and  C_33
    9  A    between atoms: C_14  and  C_15
   10  A    between atoms: C_15  and  S_28
   11  A    between atoms: C_16  and  O_43
   12  A    between atoms: N_18  and  C_32
                            x       y       z     vdW  Elec       q    Type
                         _______ _______ _______ _____ _____    ______ ____

>  <TORSDO>
F 12

$$$$
=
 OpenBabel10222416493D

 45 49  0  0  1  0  0  0  0  0999 V2000
  182.0090  178.7030  142.3230 C   0  0  0  0  0  2  0  0  0  0  0  0
  184.6990  179.2340  140.8030 C   0  0  0  0  0  2  0  0  0  0  0  0
  182.0370  178.2250  143.7640 C   0  0  0  0  0  2  0  0  0  0  0  0
  182.8190  179.2160  144.6240 C   0  0  0  0  0  2  0  0  0  0  0  0
  183.0110  178.0200  141.4970 N   0  0  2  0  0  0  0  0  0  0  0  0
  184.8480  178.5750  143.3170 C   0  0  2  0  0  3  0  0  0  0  0  0
  184.4340  178.1960  141.8720 C   0  0  2  0  0  3  0  0  0  0  0  0
  183.2570  178.9620  140.4030 C   0  0  2  0  0  3  0  0  0  0  0  0
  184.0750  179.7350  143.9230 C   0  0  0  0  0  2  0  0  0  0  0  0
  183.1240  178.3050  139.0500 C   0  0  0  0  0  0  0  0  0  0  0  0
  182.5130  177.8450  136.8240 C   0  0  2  0  0  3  0  0  0  0  0  0
  180.6210  176.6560  135.9950 O   0  0  0  0  0  0  0  0  0  0  0  0
  182.5190  178.7970  137.9650 C   0  0  0  0  0  0  0  0  0  0  0  0
  180.7040  180.1190  137.0360 C   0  0  0  0  0  3  0  0  0  0  0  0
  181.0970  177.7320  136.3200 C   0  0  0  0  0  0  0  0  0  0  0  0
  183.5810  176.9050  138.8400 C   0  0  0  0  0  2  0  0  0  0  0  0
  183.2770  175.4650  136.8090 C   0  0  0  0  0  3  0  0  0  0  0  0
  183.0900  176.6200  137.4580 C   0  0  0  0  0  0  0  0  0  0  0  0
  180.3080  178.9990  136.0960 C   0  0  0  0  0  2  0  0  0  0  0  0
  181.7120  180.0240  137.9090 C   0  0  0  0  0  3  0  0  0  0  0  0
  184.0820  174.0570  137.5790 S   0  0  0  0  0  0  0  0  0  0  0  0
  185.3040  173.9440  136.2460 C   0  0  0  0  0  2  0  0  0  0  0  0
  186.4950  172.6340  136.6350 S   0  0  0  0  0  0  0  0  0  0  0  0
  187.9140  173.7300  136.3260 C   0  0  0  0  0  2  0  0  0  0  0  0
  187.4750  175.1850  136.3340 C   0  0  0  0  0  2  0  0  0  0  0  0
  187.9190  175.8340  137.5540 N   0  0  0  0  0  2  0  0  0  0  0  0
  188.6850  177.0100  137.1560 C   0  0  0  0  0  2  0  0  0  0  0  0
  188.4380  178.1340  139.3500 C   0  0  0  0  0  1  0  0  0  0  0  0
  188.1670  178.2580  137.8630 C   0  0  0  0  0  0  0  0  0  0  0  0
  188.8210  179.3910  137.3750 O   0  0  0  0  0  1  0  0  0  0  0  0
  186.6670  178.3980  137.6500 C   0  0  0  0  0  1  0  0  0  0  0  0
  186.9330  176.6360  143.5030 O   0  0  0  0  0  0  0  0  0  0  0  0
  186.2750  178.8650  143.3590 N   0  0  0  0  0  2  0  0  0  0  0  0
  188.6320  178.1790  143.1200 N   0  0  0  0  0  2  0  0  0  0  0  0
  187.2670  177.8390  143.3460 C   0  0  0  0  0  0  0  0  0  0  0  0
  191.8780  177.7520  145.0890 O   0  0  0  0  0  0  0  0  0  0  0  0
  191.0600  177.8030  142.7810 C   0  0  1  0  0  3  0  0  0  0  0  0
  189.3660  178.5580  145.9810 O   0  0  0  0  0  0  0  0  0  0  0  0
  190.4600  176.3120  146.7670 O   0  0  0  0  0  1  0  0  0  0  0  0
  190.3330  177.2280  145.5700 P   0  0  2  0  0  0  0  0  0  0  0  0
  189.6850  177.1680  143.0950 C   0  0  1  0  0  3  0  0  0  0  0  0
  189.6490  176.3660  144.2640 O   0  0  0  0  0  0  0  0  0  0  0  0
  191.6740  178.5710  143.9680 C   0  0  0  0  0  2  0  0  0  0  0  0
  191.9660  176.9640  142.0940 O   0  0  0  0  0  0  0  0  0  0  0  0
  192.0700  177.3870  140.7570 C   0  0  0  0  0  1  0  0  0  0  0  0
  1  3  1  0  0  0  0
  3  4  1  0  0  0  0
  5  7  1  0  0  0  0
  5  1  1  1  0  0  0
  6 33  1  6  0  0  0
  6  9  1  0  0  0  0
  7  2  1  6  0  0  0
  7  6  1  0  0  0  0
  8 10  1  6  0  0  0
  8  2  1  0  0  0  0
  8  5  1  0  0  0  0
  9  4  1  0  0  0  0
 11 15  1  1  0  0  0
 11 18  1  0  0  0  0
 11 13  1  0  0  0  0
 12 15  2  0  0  0  0
 13 10  2  0  0  0  0
 14 20  2  0  0  0  0
 16 10  1  0  0  0  0
 17 18  2  0  0  0  0
 17 21  1  0  0  0  0
 18 16  1  0  0  0  0
 19 15  1  0  0  0  0
 19 14  1  0  0  0  0
 20 13  1  0  0  0  0
 22 23  1  0  0  0  0
 22 21  1  0  0  0  0
 24 25  1  0  0  0  0
 24 23  1  0  0  0  0
 25 26  1  0  0  0  0
 27 26  1  0  0  0  0
 27 29  1  0  0  0  0
 29 28  1  0  0  0  0
 30 29  1  0  0  0  0
 31 29  1  0  0  0  0
 34 35  1  0  0  0  0
 35 33  1  0  0  0  0
 35 32  2  0  0  0  0
 36 40  1  0  0  0  0
 37 44  1  1  0  0  0
 37 41  1  0  0  0  0
 37 43  1  0  0  0  0
 40 38  2  1  0  0  0
 40 39  1  0  0  0  0
 41 34  1  1  0  0  0
 41 42  1  0  0  0  0
 42 40  1  0  0  0  0
 43 36  1  0  0  0  0
 45 44  1  0  0  0  0
M  END
>  <MODEL>
3

>  <REMARK>
 VINA RESULT:      -7.6      4.562      9.129
  Name = 
  12 active torsions:
  status: ('A' for Active; 'I' for Inactive)
    1  A    between atoms: C_1  and  C_41
    2  A    between atoms: N_7  and  C_14
    3  A    between atoms: N_7  and  C_21
    4  A    between atoms: S_8  and  C_9
    5  A    between atoms: S_8  and  C_36
    6  A    between atoms: C_9  and  S_28
    7  A    between atoms: C_12  and  C_21
    8  A    between atoms: N_13  and  C_33
    9  A    between atoms: C_14  and  C_15
   10  A    between atoms: C_15  and  S_28
   11  A    between atoms: C_16  and  O_43
   12  A    between atoms: N_18  and  C_32
                            x       y       z     vdW  Elec       q    Type
                         _______ _______ _______ _____ _____    ______ ____

>  <TORSDO>
F 12

$$$$
=
 OpenBabel10222416493D

 45 49  0  0  1  0  0  0  0  0999 V2000
  191.2110  176.5870  137.2850 C   0  0  0  0  0  2  0  0  0  0  0  0
  188.1700  177.3460  137.2200 C   0  0  0  0  0  2  0  0  0  0  0  0
  191.7050  175.3760  136.5140 C   0  0  0  0  0  2  0  0  0  0  0  0
  191.3360  175.5170  135.0380 C   0  0  0  0  0  2  0  0  0  0  0  0
  189.9500  176.3200  137.9840 N   0  0  2  0  0  0  0  0  0  0  0  0
  188.9450  175.3530  135.7360 C   0  0  2  0  0  3  0  0  0  0  0  0
  188.7760  175.9610  137.1510 C   0  0  2  0  0  3  0  0  0  0  0  0
  189.3480  177.6460  138.1340 C   0  0  2  0  0  3  0  0  0  0  0  0
  189.9290  176.0810  134.8370 C   0  0  0  0  0  2  0  0  0  0  0  0
  188.9440  177.9250  139.5610 C   0  0  0  0  0  0  0  0  0  0  0  0
  188.9580  178.1090  141.9080 C   0  0  2  0  0  3  0  0  0  0  0  0
  188.3170  176.5040  143.5500 O   0  0  0  0  0  0  0  0  0  0  0  0
  189.7060  177.8300  140.6550 C   0  0  0  0  0  0  0  0  0  0  0  0
  191.4940  176.6750  141.8280 C   0  0  0  0  0  3  0  0  0  0  0  0
  189.2120  176.9710  142.8640 C   0  0  0  0  0  0  0  0  0  0  0  0
  187.5280  178.2310  139.9010 C   0  0  0  0  0  2  0  0  0  0  0  0
  186.5030  178.4930  142.1750 C   0  0  0  0  0  3  0  0  0  0  0  0
  187.5610  178.2430  141.3950 C   0  0  0  0  0  0  0  0  0  0  0  0
  190.6320  176.4990  143.0620 C   0  0  0  0  0  2  0  0  0  0  0  0
  191.0650  177.2740  140.7120 C   0  0  0  0  0  3  0  0  0  0  0  0
  184.8610  178.7630  141.5000 S   0  0  0  0  0  0  0  0  0  0  0  0
  184.0750  178.4080  143.0930 C   0  0  0  0  0  2  0  0  0  0  0  0
  184.3940  179.7770  144.2370 S   0  0  0  0  0  0  0  0  0  0  0  0
  184.5810  178.6490  145.6520 C   0  0  0  0  0  2  0  0  0  0  0  0
  185.8140  179.0130  146.4630 C   0  0  0  0  0  2  0  0  0  0  0  0
  186.5570  177.8150  146.8090 N   0  0  0  0  0  2  0  0  0  0  0  0
  187.9320  178.0240  146.3720 C   0  0  0  0  0  2  0  0  0  0  0  0
  189.2010  178.3930  148.4670 C   0  0  0  0  0  1  0  0  0  0  0  0
  188.9140  177.4010  147.3580 C   0  0  0  0  0  0  0  0  0  0  0  0
  188.3630  176.2440  147.9150 O   0  0  0  0  0  1  0  0  0  0  0  0
  190.2200  177.0610  146.6540 C   0  0  0  0  0  1  0  0  0  0  0  0
  186.9650  173.3490  136.1940 O   0  0  0  0  0  0  0  0  0  0  0  0
  187.6480  175.2750  135.0770 N   0  0  0  0  0  2  0  0  0  0  0  0
  185.3300  174.4410  134.9490 N   0  0  0  0  0  2  0  0  0  0  0  0
  186.6630  174.3040  135.4320 C   0  0  0  0  0  0  0  0  0  0  0  0
  182.1690  174.6660  137.0830 O   0  0  0  0  0  0  0  0  0  0  0  0
  184.1740  173.2870  136.8150 C   0  0  1  0  0  3  0  0  0  0  0  0
  183.2200  176.5150  135.2850 O   0  0  0  0  0  1  0  0  0  0  0  0
  180.9310  175.3170  134.8590 O   0  0  0  0  0  0  0  0  0  0  0  0
  182.3090  175.0950  135.4430 P   0  0  2  0  0  0  0  0  0  0  0  0
  184.2860  173.4780  135.2840 C   0  0  1  0  0  3  0  0  0  0  0  0
  183.0680  173.7980  134.6320 O   0  0  0  0  0  0  0  0  0  0  0  0
  183.4800  174.4570  137.5380 C   0  0  0  0  0  2  0  0  0  0  0  0
  183.7480  172.0040  137.2310 O   0  0  0  0  0  0  0  0  0  0  0  0
  184.0440  171.0660  136.2260 C   0  0  0  0  0  1  0  0  0  0  0  0
  2  8  1  0  0  0  0
  3  1  1  0  0  0  0
  4  3  1  0  0  0  0
  5  1  1  6  0  0  0
  5  8  1  0  0  0  0
  6 33  1  6  0  0  0
  6  7  1  0  0  0  0
  7  2  1  6  0  0  0
  7  5  1  0  0  0  0
  8 10  1  1  0  0  0
  9  4  1  0  0  0  0
  9  6  1  0  0  0  0
 10 16  1  0  0  0  0
 10 13  2  0  0  0  0
 11 13  1  6  0  0  0
 11 15  1  0  0  0  0
 13 20  1  0  0  0  0
 14 19  1  0  0  0  0
 15 19  1  0  0  0  0
 15 12  2  0  0  0  0
 16 18  1  0  0  0  0
 18 11  1  0  0  0  0
 18 17  2  0  0  0  0
 20 14  2  0  0  0  0
 21 17  1  0  0  0  0
 21 22  1  0  0  0  0
 22 23  1  0  0  0  0
 23 24  1  0  0  0  0
 24 25  1  0  0  0  0
 25 26  1  0  0  0  0
 27 26  1  0  0  0  0
 27 29  1  0  0  0  0
 29 30  1  0  0  0  0
 29 28  1  0  0  0  0
 31 29  1  0  0  0  0
 33 35  1  0  0  0  0
 34 35  1  0  0  0  0
 35 32  2  0  0  0  0
 36 43  1  0  0  0  0
 37 44  1  6  0  0  0
 37 43  1  0  0  0  0
 38 40  1  0  0  0  0
 40 39  2  6  0  0  0
 40 36  1  0  0  0  0
 41 34  1  1  0  0  0
 41 37  1  0  0  0  0
 42 41  1  0  0  0  0
 42 40  1  0  0  0  0
 45 44  1  0  0  0  0
M  END
>  <MODEL>
4

>  <REMARK>
 VINA RESULT:      -7.5      4.688      8.126
  Name = 
  12 active torsions:
  status: ('A' for Active; 'I' for Inactive)
    1  A    between atoms: C_1  and  C_41
    2  A    between atoms: N_7  and  C_14
    3  A    between atoms: N_7  and  C_21
    4  A    between atoms: S_8  and  C_9
    5  A    between atoms: S_8  and  C_36
    6  A    between atoms: C_9  and  S_28
    7  A    between atoms: C_12  and  C_21
    8  A    between atoms: N_13  and  C_33
    9  A    between atoms: C_14  and  C_15
   10  A    between atoms: C_15  and  S_28
   11  A    between atoms: C_16  and  O_43
   12  A    between atoms: N_18  and  C_32
                            x       y       z     vdW  Elec       q    Type
                         _______ _______ _______ _____ _____    ______ ____

>  <TORSDO>
F 12

$$$$
=
 OpenBabel10222416493D

 45 49  0  0  1  0  0  0  0  0999 V2000
  188.4320  178.6500  139.4370 C   0  0  0  0  0  2  0  0  0  0  0  0
  185.3100  178.5760  139.1730 C   0  0  0  0  0  2  0  0  0  0  0  0
  189.2970  177.9780  138.3840 C   0  0  0  0  0  2  0  0  0  0  0  0
  188.9750  178.5550  137.0060 C   0  0  0  0  0  2  0  0  0  0  0  0
  187.2720  177.8310  139.8030 N   0  0  2  0  0  0  0  0  0  0  0  0
  186.7050  177.5400  137.2350 C   0  0  2  0  0  3  0  0  0  0  0  0
  186.2970  177.5180  138.7300 C   0  0  2  0  0  3  0  0  0  0  0  0
  186.3030  178.8070  140.3020 C   0  0  2  0  0  3  0  0  0  0  0  0
  187.4760  178.7740  136.7980 C   0  0  0  0  0  2  0  0  0  0  0  0
  185.7650  178.4260  141.6600 C   0  0  0  0  0  0  0  0  0  0  0  0
  184.3140  177.9490  143.4520 C   0  0  2  0  0  3  0  0  0  0  0  0
  183.4130  179.4220  145.0950 O   0  0  0  0  0  0  0  0  0  0  0  0
  184.4860  178.2480  142.0070 C   0  0  0  0  0  0  0  0  0  0  0  0
  182.1650  178.9140  141.7370 C   0  0  0  0  0  3  0  0  0  0  0  0
  183.2780  178.8950  144.0020 C   0  0  0  0  0  0  0  0  0  0  0  0
  186.6730  178.3330  142.8360 C   0  0  0  0  0  2  0  0  0  0  0  0
  186.0600  177.9720  145.2410 C   0  0  0  0  0  3  0  0  0  0  0  0
  185.7090  178.1280  143.9590 C   0  0  0  0  0  0  0  0  0  0  0  0
  181.9920  179.0820  143.2330 C   0  0  0  0  0  2  0  0  0  0  0  0
  183.3170  178.5450  141.1680 C   0  0  0  0  0  3  0  0  0  0  0  0
  187.7680  178.0810  145.7830 S   0  0  0  0  0  0  0  0  0  0  0  0
  187.2800  178.1530  147.5260 C   0  0  0  0  0  2  0  0  0  0  0  0
  188.7340  177.8670  148.5680 S   0  0  0  0  0  0  0  0  0  0  0  0
  189.8210  177.6620  147.1240 C   0  0  0  0  0  2  0  0  0  0  0  0
  190.9160  176.6500  147.4210 C   0  0  0  0  0  2  0  0  0  0  0  0
  191.7650  176.4760  146.2570 N   0  0  0  0  0  2  0  0  0  0  0  0
  191.2460  177.3550  145.2160 C   0  0  0  0  0  2  0  0  0  0  0  0
  191.9470  175.3390  143.9600 C   0  0  0  0  0  1  0  0  0  0  0  0
  191.1280  176.6120  143.8890 C   0  0  0  0  0  0  0  0  0  0  0  0
  189.7940  176.2810  143.6440 O   0  0  0  0  0  1  0  0  0  0  0  0
  191.6610  177.4750  142.7550 C   0  0  0  0  0  1  0  0  0  0  0  0
  185.4030  175.0700  136.6450 O   0  0  0  0  0  0  0  0  0  0  0  0
  185.5220  177.3830  136.4010 N   0  0  0  0  0  2  0  0  0  0  0  0
  183.5700  176.0850  135.6320 N   0  0  0  0  0  2  0  0  0  0  0  0
  184.8610  176.1290  136.2340 C   0  0  0  0  0  0  0  0  0  0  0  0
  180.2040  174.7940  136.8950 O   0  0  0  0  0  0  0  0  0  0  0  0
  182.5610  174.1400  136.7940 C   0  0  1  0  0  3  0  0  0  0  0  0
  180.8810  177.3240  135.9460 O   0  0  0  0  0  1  0  0  0  0  0  0
  179.1990  175.7720  134.6730 O   0  0  0  0  0  0  0  0  0  0  0  0
  180.4620  175.7410  135.5050 P   0  0  2  0  0  0  0  0  0  0  0  0
  182.8510  174.8290  135.4400 C   0  0  1  0  0  3  0  0  0  0  0  0
  181.7180  175.0120  134.6080 O   0  0  0  0  0  0  0  0  0  0  0  0
  181.4210  174.7990  137.5940 C   0  0  0  0  0  2  0  0  0  0  0  0
  182.5080  172.7280  136.7510 O   0  0  0  0  0  0  0  0  0  0  0  0
  183.7990  172.2070  136.9500 C   0  0  0  0  0  1  0  0  0  0  0  0
  2  8  1  0  0  0  0
  3  1  1  0  0  0  0
  4  3  1  0  0  0  0
  5  1  1  6  0  0  0
  5  8  1  0  0  0  0
  6 33  1  6  0  0  0
  6  7  1  0  0  0  0
  7  2  1  6  0  0  0
  7  5  1  0  0  0  0
  8 10  1  1  0  0  0
  9  4  1  0  0  0  0
  9  6  1  0  0  0  0
 10 13  2  0  0  0  0
 10 16  1  0  0  0  0
 11 13  1  6  0  0  0
 11 18  1  0  0  0  0
 11 15  1  0  0  0  0
 14 19  1  0  0  0  0
 15 12  2  0  0  0  0
 16 18  1  0  0  0  0
 17 21  1  0  0  0  0
 18 17  2  0  0  0  0
 19 15  1  0  0  0  0
 20 14  2  0  0  0  0
 20 13  1  0  0  0  0
 21 22  1  0  0  0  0
 22 23  1  0  0  0  0
 24 25  1  0  0  0  0
 24 23  1  0  0  0  0
 26 25  1  0  0  0  0
 27 26  1  0  0  0  0
 29 28  1  0  0  0  0
 29 27  1  0  0  0  0
 30 29  1  0  0  0  0
 31 29  1  0  0  0  0
 34 35  1  0  0  0  0
 35 33  1  0  0  0  0
 35 32  2  0  0  0  0
 36 43  1  0  0  0  0
 37 44  1  6  0  0  0
 37 43  1  0  0  0  0
 40 39  2  6  0  0  0
 40 38  1  0  0  0  0
 40 36  1  0  0  0  0
 41 34  1  1  0  0  0
 41 37  1  0  0  0  0
 42 41  1  0  0  0  0
 42 40  1  0  0  0  0
 44 45  1  0  0  0  0
M  END
>  <MODEL>
5

>  <REMARK>
 VINA RESULT:      -7.4      5.294      9.275
  Name = 
  12 active torsions:
  status: ('A' for Active; 'I' for Inactive)
    1  A    between atoms: C_1  and  C_41
    2  A    between atoms: N_7  and  C_14
    3  A    between atoms: N_7  and  C_21
    4  A    between atoms: S_8  and  C_9
    5  A    between atoms: S_8  and  C_36
    6  A    between atoms: C_9  and  S_28
    7  A    between atoms: C_12  and  C_21
    8  A    between atoms: N_13  and  C_33
    9  A    between atoms: C_14  and  C_15
   10  A    between atoms: C_15  and  S_28
   11  A    between atoms: C_16  and  O_43
   12  A    between atoms: N_18  and  C_32
                            x       y       z     vdW  Elec       q    Type
                         _______ _______ _______ _____ _____    ______ ____

>  <TORSDO>
F 12

$$$$
=
 OpenBabel10222416493D

 45 49  0  0  1  0  0  0  0  0999 V2000
  182.3140  178.9850  142.9890 C   0  0  0  0  0  2  0  0  0  0  0  0
  184.2840  179.0540  140.5520 C   0  0  0  0  0  2  0  0  0  0  0  0
  182.8330  178.6310  144.3710 C   0  0  0  0  0  2  0  0  0  0  0  0
  183.9560  179.5900  144.7630 C   0  0  0  0  0  2  0  0  0  0  0  0
  182.8790  178.1180  141.9490 N   0  0  2  0  0  0  0  0  0  0  0  0
  185.2980  178.5980  142.9060 C   0  0  2  0  0  3  0  0  0  0  0  0
  184.3500  178.1510  141.7650 C   0  0  2  0  0  3  0  0  0  0  0  0
  182.7790  178.9260  140.7320 C   0  0  2  0  0  3  0  0  0  0  0  0
  184.9020  179.8910  143.6000 C   0  0  0  0  0  2  0  0  0  0  0  0
  182.1020  178.1780  139.6100 C   0  0  0  0  0  0  0  0  0  0  0  0
  180.5900  176.8640  138.3740 C   0  0  2  0  0  3  0  0  0  0  0  0
  180.5620  174.5040  138.0450 O   0  0  0  0  0  0  0  0  0  0  0  0
  180.9130  177.5690  139.6410 C   0  0  0  0  0  0  0  0  0  0  0  0
  179.2810  176.2960  140.9150 C   0  0  0  0  0  3  0  0  0  0  0  0
  180.1890  175.4520  138.7160 C   0  0  0  0  0  0  0  0  0  0  0  0
  182.8120  177.9360  138.3250 C   0  0  0  0  0  2  0  0  0  0  0  0
  182.0660  176.5320  136.3840 C   0  0  0  0  0  3  0  0  0  0  0  0
  181.8660  177.0240  137.6130 C   0  0  0  0  0  0  0  0  0  0  0  0
  179.1990  175.2360  139.8360 C   0  0  0  0  0  2  0  0  0  0  0  0
  180.0810  177.3650  140.8350 C   0  0  0  0  0  3  0  0  0  0  0  0
  183.5740  176.8500  135.4630 S   0  0  0  0  0  0  0  0  0  0  0  0
  184.1560  175.1510  135.7010 C   0  0  0  0  0  2  0  0  0  0  0  0
  185.7400  174.9350  134.8470 S   0  0  0  0  0  0  0  0  0  0  0  0
  186.3910  173.8670  136.1670 C   0  0  0  0  0  2  0  0  0  0  0  0
  187.6110  174.5040  136.8140 C   0  0  0  0  0  2  0  0  0  0  0  0
  187.6470  175.9250  136.5210 N   0  0  0  0  0  2  0  0  0  0  0  0
  187.9480  176.6100  137.7720 C   0  0  0  0  0  2  0  0  0  0  0  0
  186.7950  178.3690  136.4640 C   0  0  0  0  0  1  0  0  0  0  0  0
  187.7240  178.1120  137.6340 C   0  0  0  0  0  0  0  0  0  0  0  0
  187.1390  178.6170  138.7970 O   0  0  0  0  0  1  0  0  0  0  0  0
  189.0460  178.8190  137.3740 C   0  0  0  0  0  1  0  0  0  0  0  0
  187.1960  176.4740  142.7330 O   0  0  0  0  0  0  0  0  0  0  0  0
  186.6580  178.7150  142.3970 N   0  0  0  0  0  2  0  0  0  0  0  0
  188.7270  177.7180  141.4980 N   0  0  0  0  0  2  0  0  0  0  0  0
  187.5190  177.5870  142.2420 C   0  0  0  0  0  0  0  0  0  0  0  0
  192.4760  177.2830  142.0900 O   0  0  0  0  0  0  0  0  0  0  0  0
  190.7900  176.9690  140.3430 C   0  0  1  0  0  3  0  0  0  0  0  0
  190.5780  178.5710  143.6690 O   0  0  0  0  0  0  0  0  0  0  0  0
  191.8150  176.4100  144.4780 O   0  0  0  0  0  1  0  0  0  0  0  0
  191.2440  177.0710  143.2440 P   0  0  2  0  0  0  0  0  0  0  0  0
  189.6400  176.5950  141.3080 C   0  0  1  0  0  3  0  0  0  0  0  0
  190.0560  176.0580  142.5530 O   0  0  0  0  0  0  0  0  0  0  0  0
  191.8620  177.8760  140.9770 C   0  0  0  0  0  2  0  0  0  0  0  0
  191.3060  175.8970  139.5780 O   0  0  0  0  0  0  0  0  0  0  0  0
  191.7320  176.3800  138.3280 C   0  0  0  0  0  1  0  0  0  0  0  0
  1  3  1  0  0  0  0
  2  8  1  0  0  0  0
  3  4  1  0  0  0  0
  5  1  1  1  0  0  0
  6 33  1  6  0  0  0
  6  9  1  0  0  0  0
  7  2  1  6  0  0  0
  7  5  1  0  0  0  0
  7  6  1  0  0  0  0
  8 10  1  6  0  0  0
  8  5  1  0  0  0  0
  9  4  1  0  0  0  0
 10 13  2  0  0  0  0
 11 18  1  6  0  0  0
 11 15  1  0  0  0  0
 11 13  1  0  0  0  0
 12 15  2  0  0  0  0
 13 20  1  0  0  0  0
 15 19  1  0  0  0  0
 16 10  1  0  0  0  0
 17 18  2  0  0  0  0
 18 16  1  0  0  0  0
 19 14  1  0  0  0  0
 20 14  2  0  0  0  0
 21 22  1  0  0  0  0
 21 17  1  0  0  0  0
 23 22  1  0  0  0  0
 23 24  1  0  0  0  0
 24 25  1  0  0  0  0
 26 25  1  0  0  0  0
 26 27  1  0  0  0  0
 28 29  1  0  0  0  0
 29 27  1  0  0  0  0
 29 30  1  0  0  0  0
 31 29  1  0  0  0  0
 34 35  1  0  0  0  0
 35 33  1  0  0  0  0
 35 32  2  0  0  0  0
 36 40  1  0  0  0  0
 37 44  1  1  0  0  0
 37 43  1  0  0  0  0
 37 41  1  0  0  0  0
 40 38  2  1  0  0  0
 40 39  1  0  0  0  0
 41 34  1  1  0  0  0
 41 42  1  0  0  0  0
 42 40  1  0  0  0  0
 43 36  1  0  0  0  0
 45 44  1  0  0  0  0
M  END
>  <MODEL>
6

>  <REMARK>
 VINA RESULT:      -7.2      4.326      8.572
  Name = 
  12 active torsions:
  status: ('A' for Active; 'I' for Inactive)
    1  A    between atoms: C_1  and  C_41
    2  A    between atoms: N_7  and  C_14
    3  A    between atoms: N_7  and  C_21
    4  A    between atoms: S_8  and  C_9
    5  A    between atoms: S_8  and  C_36
    6  A    between atoms: C_9  and  S_28
    7  A    between atoms: C_12  and  C_21
    8  A    between atoms: N_13  and  C_33
    9  A    between atoms: C_14  and  C_15
   10  A    between atoms: C_15  and  S_28
   11  A    between atoms: C_16  and  O_43
   12  A    between atoms: N_18  and  C_32
                            x       y       z     vdW  Elec       q    Type
                         _______ _______ _______ _____ _____    ______ ____

>  <TORSDO>
F 12

$$$$
=
 OpenBabel10222416493D

 45 49  0  0  1  0  0  0  0  0999 V2000
  186.0750  173.3570  136.5840 C   0  0  0  0  0  2  0  0  0  0  0  0
  185.3810  176.3890  136.1970 C   0  0  0  0  0  2  0  0  0  0  0  0
  185.0170  172.3980  137.1000 C   0  0  0  0  0  2  0  0  0  0  0  0
  183.7930  172.4380  136.1850 C   0  0  0  0  0  2  0  0  0  0  0  0
  186.0670  174.6300  137.3110 N   0  0  2  0  0  0  0  0  0  0  0  0
  183.4550  174.7970  136.9280 C   0  0  2  0  0  3  0  0  0  0  0  0
  184.8280  175.4430  137.2410 C   0  0  2  0  0  3  0  0  0  0  0  0
  186.6560  175.5760  136.3610 C   0  0  2  0  0  3  0  0  0  0  0  0
  183.4450  173.8570  135.7350 C   0  0  0  0  0  2  0  0  0  0  0  0
  187.7920  176.3590  136.9730 C   0  0  0  0  0  0  0  0  0  0  0  0
  189.9090  177.3030  137.3820 C   0  0  2  0  0  3  0  0  0  0  0  0
  191.7330  176.4260  138.6400 O   0  0  0  0  0  0  0  0  0  0  0  0
  189.0190  176.5330  136.4740 C   0  0  0  0  0  0  0  0  0  0  0  0
  190.8850  175.6120  135.2180 C   0  0  0  0  0  3  0  0  0  0  0  0
  191.1870  176.5220  137.5530 C   0  0  0  0  0  0  0  0  0  0  0  0
  187.6640  176.9390  138.3370 C   0  0  0  0  0  2  0  0  0  0  0  0
  189.4330  178.0640  139.7140 C   0  0  0  0  0  3  0  0  0  0  0  0
  189.0480  177.4380  138.5960 C   0  0  0  0  0  0  0  0  0  0  0  0
  191.8610  175.9640  136.3220 C   0  0  0  0  0  2  0  0  0  0  0  0
  189.5720  175.8590  135.2920 C   0  0  0  0  0  3  0  0  0  0  0  0
  188.3210  178.3040  141.1040 S   0  0  0  0  0  0  0  0  0  0  0  0
  189.5050  177.5690  142.2620 C   0  0  0  0  0  2  0  0  0  0  0  0
  188.6780  176.2730  143.2220 S   0  0  0  0  0  0  0  0  0  0  0  0
  188.8830  177.1920  144.7790 C   0  0  0  0  0  2  0  0  0  0  0  0
  187.5330  177.4520  145.4260 C   0  0  0  0  0  2  0  0  0  0  0  0
  186.4940  177.5010  144.4140 N   0  0  0  0  0  2  0  0  0  0  0  0
  185.6540  178.6530  144.7210 C   0  0  0  0  0  2  0  0  0  0  0  0
  183.3690  179.2730  143.9930 C   0  0  0  0  0  1  0  0  0  0  0  0
  184.7890  179.0260  143.5220 C   0  0  0  0  0  0  0  0  0  0  0  0
  185.2780  180.1880  142.9220 O   0  0  0  0  0  1  0  0  0  0  0  0
  184.7770  177.8900  142.5090 C   0  0  0  0  0  1  0  0  0  0  0  0
  182.1030  176.2070  139.0090 O   0  0  0  0  0  0  0  0  0  0  0  0
  182.4550  175.8390  136.7360 N   0  0  0  0  0  2  0  0  0  0  0  0
  181.1320  177.7500  137.5630 N   0  0  0  0  0  2  0  0  0  0  0  0
  181.8960  176.5760  137.8240 C   0  0  0  0  0  0  0  0  0  0  0  0
  181.2480  181.4690  138.4250 O   0  0  0  0  0  0  0  0  0  0  0  0
  181.6310  179.2790  139.4510 C   0  0  1  0  0  3  0  0  0  0  0  0
  180.9740  180.2420  135.9400 O   0  0  0  0  0  0  0  0  0  0  0  0
  179.0590  181.6870  136.9900 O   0  0  0  0  0  1  0  0  0  0  0  0
  180.1630  180.7190  137.3510 P   0  0  2  0  0  0  0  0  0  0  0  0
  180.5410  178.5400  138.6380 C   0  0  1  0  0  3  0  0  0  0  0  0
  179.4960  179.3650  138.1510 O   0  0  0  0  0  0  0  0  0  0  0  0
  182.2210  180.5040  138.7260 C   0  0  0  0  0  2  0  0  0  0  0  0
  181.3210  179.4960  140.8130 O   0  0  0  0  0  0  0  0  0  0  0  0
  180.9380  178.2790  141.4030 C   0  0  0  0  0  1  0  0  0  0  0  0
  1  3  1  0  0  0  0
  2  8  1  0  0  0  0
  4  3  1  0  0  0  0
  5  1  1  6  0  0  0
  6 33  1  6  0  0  0
  6  7  1  0  0  0  0
  7  2  1  6  0  0  0
  7  5  1  0  0  0  0
  8 10  1  1  0  0  0
  8  5  1  0  0  0  0
  9  4  1  0  0  0  0
  9  6  1  0  0  0  0
 10 16  1  0  0  0  0
 11 13  1  6  0  0  0
 11 15  1  0  0  0  0
 11 18  1  0  0  0  0
 13 10  2  0  0  0  0
 14 20  2  0  0  0  0
 14 19  1  0  0  0  0
 15 12  2  0  0  0  0
 16 18  1  0  0  0  0
 17 21  1  0  0  0  0
 18 17  2  0  0  0  0
 19 15  1  0  0  0  0
 20 13  1  0  0  0  0
 21 22  1  0  0  0  0
 22 23  1  0  0  0  0
 23 24  1  0  0  0  0
 24 25  1  0  0  0  0
 26 27  1  0  0  0  0
 26 25  1  0  0  0  0
 29 28  1  0  0  0  0
 29 27  1  0  0  0  0
 30 29  1  0  0  0  0
 31 29  1  0  0  0  0
 33 35  1  0  0  0  0
 34 35  1  0  0  0  0
 35 32  2  0  0  0  0
 36 43  1  0  0  0  0
 37 44  1  1  0  0  0
 39 40  1  0  0  0  0
 40 38  2  6  0  0  0
 40 42  1  0  0  0  0
 40 36  1  0  0  0  0
 41 34  1  6  0  0  0
 41 37  1  0  0  0  0
 42 41  1  0  0  0  0
 43 37  1  0  0  0  0
 44 45  1  0  0  0  0
M  END
>  <MODEL>
7

>  <REMARK>
 VINA RESULT:      -7.2      4.558     10.392
  Name = 
  12 active torsions:
  status: ('A' for Active; 'I' for Inactive)
    1  A    between atoms: C_1  and  C_41
    2  A    between atoms: N_7  and  C_14
    3  A    between atoms: N_7  and  C_21
    4  A    between atoms: S_8  and  C_9
    5  A    between atoms: S_8  and  C_36
    6  A    between atoms: C_9  and  S_28
    7  A    between atoms: C_12  and  C_21
    8  A    between atoms: N_13  and  C_33
    9  A    between atoms: C_14  and  C_15
   10  A    between atoms: C_15  and  S_28
   11  A    between atoms: C_16  and  O_43
   12  A    between atoms: N_18  and  C_32
                            x       y       z     vdW  Elec       q    Type
                         _______ _______ _______ _____ _____    ______ ____

>  <TORSDO>
F 12

$$$$
=
 OpenBabel10222416493D

 45 49  0  0  1  0  0  0  0  0999 V2000
  187.8270  177.9710  140.1950 C   0  0  0  0  0  2  0  0  0  0  0  0
  189.8990  176.1900  141.7310 C   0  0  0  0  0  2  0  0  0  0  0  0
  188.2120  178.6090  138.8720 C   0  0  0  0  0  2  0  0  0  0  0  0
  188.6530  177.5300  137.8860 C   0  0  0  0  0  2  0  0  0  0  0  0
  188.9030  178.0650  141.1870 N   0  0  2  0  0  0  0  0  0  0  0  0
  190.5960  177.1040  139.3960 C   0  0  2  0  0  3  0  0  0  0  0  0
  190.1850  177.3950  140.8610 C   0  0  2  0  0  3  0  0  0  0  0  0
  188.6340  176.9510  142.0970 C   0  0  2  0  0  3  0  0  0  0  0  0
  189.5180  176.4540  138.5440 C   0  0  0  0  0  2  0  0  0  0  0  0
  188.5980  177.3950  143.5390 C   0  0  0  0  0  0  0  0  0  0  0  0
  189.2160  177.8930  145.7560 C   0  0  2  0  0  3  0  0  0  0  0  0
  189.1850  176.4890  147.6810 O   0  0  0  0  0  0  0  0  0  0  0  0
  189.6280  177.4920  144.3850 C   0  0  0  0  0  0  0  0  0  0  0  0
  191.7620  176.6120  145.1450 C   0  0  0  0  0  3  0  0  0  0  0  0
  189.8190  176.9110  146.7280 C   0  0  0  0  0  0  0  0  0  0  0  0
  187.3000  177.6610  144.2180 C   0  0  0  0  0  2  0  0  0  0  0  0
  186.8950  178.1650  146.6420 C   0  0  0  0  0  3  0  0  0  0  0  0
  187.7270  177.8750  145.6340 C   0  0  0  0  0  0  0  0  0  0  0  0
  191.2780  176.5530  146.5800 C   0  0  0  0  0  2  0  0  0  0  0  0
  190.9990  177.0300  144.1290 C   0  0  0  0  0  3  0  0  0  0  0  0
  185.1160  178.2460  146.4170 S   0  0  0  0  0  0  0  0  0  0  0  0
  185.2730  179.4540  145.0770 C   0  0  0  0  0  2  0  0  0  0  0  0
  183.8960  179.2470  143.9180 S   0  0  0  0  0  0  0  0  0  0  0  0
  185.0190  179.0880  142.4950 C   0  0  0  0  0  2  0  0  0  0  0  0
  184.2280  179.0010  141.2000 C   0  0  0  0  0  2  0  0  0  0  0  0
  183.2110  177.9710  141.3030 N   0  0  0  0  0  2  0  0  0  0  0  0
  182.0750  178.4120  140.5020 C   0  0  0  0  0  2  0  0  0  0  0  0
  180.3600  176.6520  140.1930 C   0  0  0  0  0  1  0  0  0  0  0  0
  181.5920  177.2920  139.5860 C   0  0  0  0  0  0  0  0  0  0  0  0
  181.2640  177.8090  138.3310 O   0  0  0  0  0  1  0  0  0  0  0  0
  182.6730  176.2310  139.4390 C   0  0  0  0  0  1  0  0  0  0  0  0
  192.3360  176.7530  137.1610 O   0  0  0  0  0  0  0  0  0  0  0  0
  191.7960  176.2790  139.3760 N   0  0  0  0  0  2  0  0  0  0  0  0
  193.9610  175.6270  138.3890 N   0  0  0  0  0  2  0  0  0  0  0  0
  192.6780  176.2330  138.2550 C   0  0  0  0  0  0  0  0  0  0  0  0
  195.5940  172.7080  136.5430 O   0  0  0  0  0  0  0  0  0  0  0  0
  196.1870  174.7960  137.6760 C   0  0  1  0  0  3  0  0  0  0  0  0
  192.9710  172.9850  137.4370 O   0  0  0  0  0  1  0  0  0  0  0  0
  193.5580  172.8500  134.8890 O   0  0  0  0  0  0  0  0  0  0  0  0
  194.0690  173.3840  136.2090 P   0  0  2  0  0  0  0  0  0  0  0  0
  194.9000  175.5560  137.2740 C   0  0  1  0  0  3  0  0  0  0  0  0
  194.2650  175.0770  136.1010 O   0  0  0  0  0  0  0  0  0  0  0  0
  196.0040  173.2690  137.7630 C   0  0  0  0  0  2  0  0  0  0  0  0
  197.3620  175.2100  137.0090 O   0  0  0  0  0  0  0  0  0  0  0  0
  198.4680  174.5270  137.5460 C   0  0  0  0  0  1  0  0  0  0  0  0
  2  8  1  0  0  0  0
  3  1  1  0  0  0  0
  4  9  1  0  0  0  0
  4  3  1  0  0  0  0
  5  1  1  6  0  0  0
  5  8  1  0  0  0  0
  6 33  1  1  0  0  0
  6  7  1  0  0  0  0
  7  5  1  0  0  0  0
  7  2  1  1  0  0  0
  8 10  1  1  0  0  0
  9  6  1  0  0  0  0
 10 16  1  0  0  0  0
 10 13  2  0  0  0  0
 11 13  1  6  0  0  0
 11 15  1  0  0  0  0
 14 19  1  0  0  0  0
 15 12  2  0  0  0  0
 16 18  1  0  0  0  0
 18 11  1  0  0  0  0
 18 17  2  0  0  0  0
 19 15  1  0  0  0  0
 20 13  1  0  0  0  0
 20 14  2  0  0  0  0
 21 17  1  0  0  0  0
 22 21  1  0  0  0  0
 23 22  1  0  0  0  0
 24 23  1  0  0  0  0
 25 26  1  0  0  0  0
 25 24  1  0  0  0  0
 27 26  1  0  0  0  0
 29 28  1  0  0  0  0
 29 27  1  0  0  0  0
 30 29  1  0  0  0  0
 31 29  1  0  0  0  0
 32 35  2  0  0  0  0
 35 34  1  0  0  0  0
 35 33  1  0  0  0  0
 36 43  1  0  0  0  0
 37 44  1  6  0  0  0
 37 43  1  0  0  0  0
 40 39  2  6  0  0  0
 40 36  1  0  0  0  0
 40 38  1  0  0  0  0
 41 37  1  0  0  0  0
 41 34  1  1  0  0  0
 42 40  1  0  0  0  0
 42 41  1  0  0  0  0
 44 45  1  0  0  0  0
M  END
>  <MODEL>
8

>  <REMARK>
 VINA RESULT:      -7.0      1.394      1.637
  Name = 
  12 active torsions:
  status: ('A' for Active; 'I' for Inactive)
    1  A    between atoms: C_1  and  C_41
    2  A    between atoms: N_7  and  C_14
    3  A    between atoms: N_7  and  C_21
    4  A    between atoms: S_8  and  C_9
    5  A    between atoms: S_8  and  C_36
    6  A    between atoms: C_9  and  S_28
    7  A    between atoms: C_12  and  C_21
    8  A    between atoms: N_13  and  C_33
    9  A    between atoms: C_14  and  C_15
   10  A    between atoms: C_15  and  S_28
   11  A    between atoms: C_16  and  O_43
   12  A    between atoms: N_18  and  C_32
                            x       y       z     vdW  Elec       q    Type
                         _______ _______ _______ _____ _____    ______ ____

>  <TORSDO>
F 12

$$$$
=
 OpenBabel10222416493D

 45 49  0  0  1  0  0  0  0  0999 V2000
  182.1630  178.8200  142.2630 C   0  0  0  0  0  2  0  0  0  0  0  0
  185.0450  179.3700  141.1590 C   0  0  0  0  0  2  0  0  0  0  0  0
  181.9830  178.2510  143.6600 C   0  0  0  0  0  2  0  0  0  0  0  0
  182.6610  179.1630  144.6820 C   0  0  0  0  0  2  0  0  0  0  0  0
  183.2540  178.1640  141.5360 N   0  0  2  0  0  0  0  0  0  0  0  0
  184.8360  178.5480  143.6200 C   0  0  2  0  0  3  0  0  0  0  0  0
  184.6160  178.2750  142.1110 C   0  0  2  0  0  3  0  0  0  0  0  0
  183.6660  179.1660  140.5510 C   0  0  2  0  0  3  0  0  0  0  0  0
  184.0110  179.6890  144.1930 C   0  0  0  0  0  2  0  0  0  0  0  0
  183.7060  178.6010  139.1520 C   0  0  0  0  0  0  0  0  0  0  0  0
  183.0850  177.8850  136.9960 C   0  0  2  0  0  3  0  0  0  0  0  0
  182.2650  175.7610  136.2910 O   0  0  0  0  0  0  0  0  0  0  0  0
  182.7190  178.5940  138.2500 C   0  0  0  0  0  0  0  0  0  0  0  0
  180.3370  178.4240  137.8020 C   0  0  0  0  0  3  0  0  0  0  0  0
  182.0010  176.8820  136.6960 C   0  0  0  0  0  0  0  0  0  0  0  0
  184.8930  177.8410  138.6750 C   0  0  0  0  0  2  0  0  0  0  0  0
  185.1650  176.5810  136.5230 C   0  0  0  0  0  3  0  0  0  0  0  0
  184.4240  177.3250  137.3540 C   0  0  0  0  0  0  0  0  0  0  0  0
  180.5620  177.3300  136.7770 C   0  0  0  0  0  2  0  0  0  0  0  0
  181.3270  178.9970  138.4930 C   0  0  0  0  0  3  0  0  0  0  0  0
  186.8180  176.0310  136.9530 S   0  0  0  0  0  0  0  0  0  0  0  0
  187.5840  177.3310  135.9500 C   0  0  0  0  0  2  0  0  0  0  0  0
  189.3840  177.1280  135.9780 S   0  0  0  0  0  0  0  0  0  0  0  0
  189.2890  175.7930  137.2100 C   0  0  0  0  0  2  0  0  0  0  0  0
  190.5200  175.8040  138.1020 C   0  0  0  0  0  2  0  0  0  0  0  0
  191.7210  175.9230  137.2960 N   0  0  0  0  0  2  0  0  0  0  0  0
  192.5510  174.7620  137.5930 C   0  0  0  0  0  2  0  0  0  0  0  0
  194.1090  176.0410  136.1530 C   0  0  0  0  0  1  0  0  0  0  0  0
  194.0190  175.0590  137.3040 C   0  0  0  0  0  0  0  0  0  0  0  0
  194.6240  175.6220  138.4300 O   0  0  0  0  0  1  0  0  0  0  0  0
  194.7470  173.7800  136.9140 C   0  0  0  0  0  1  0  0  0  0  0  0
  186.9140  176.5980  143.4730 O   0  0  0  0  0  0  0  0  0  0  0  0
  186.2490  178.7940  143.8740 N   0  0  0  0  0  2  0  0  0  0  0  0
  188.6260  178.1610  143.6840 N   0  0  0  0  0  2  0  0  0  0  0  0
  187.2490  177.7940  143.6790 C   0  0  0  0  0  0  0  0  0  0  0  0
  192.0110  177.6110  145.3670 O   0  0  0  0  0  0  0  0  0  0  0  0
  191.0270  177.8660  143.1390 C   0  0  1  0  0  3  0  0  0  0  0  0
  189.5600  178.2780  146.5090 O   0  0  0  0  0  0  0  0  0  0  0  0
  190.7360  175.9900  146.9940 O   0  0  0  0  0  1  0  0  0  0  0  0
  190.5110  177.0130  145.9030 P   0  0  2  0  0  0  0  0  0  0  0  0
  189.6860  177.1780  143.4860 C   0  0  1  0  0  3  0  0  0  0  0  0
  189.7460  176.2670  144.5710 O   0  0  0  0  0  0  0  0  0  0  0  0
  191.7160  178.5300  144.3480 C   0  0  0  0  0  2  0  0  0  0  0  0
  191.8920  177.1150  142.3110 O   0  0  0  0  0  0  0  0  0  0  0  0
  191.7060  177.5010  140.9710 C   0  0  0  0  0  1  0  0  0  0  0  0
  1  3  1  0  0  0  0
  3  4  1  0  0  0  0
  5  7  1  0  0  0  0
  5  1  1  1  0  0  0
  6 33  1  6  0  0  0
  6  9  1  0  0  0  0
  7  2  1  6  0  0  0
  7  6  1  0  0  0  0
  8 10  1  6  0  0  0
  8  2  1  0  0  0  0
  8  5  1  0  0  0  0
  9  4  1  0  0  0  0
 11 15  1  1  0  0  0
 11 18  1  0  0  0  0
 11 13  1  0  0  0  0
 12 15  2  0  0  0  0
 13 20  1  0  0  0  0
 13 10  2  0  0  0  0
 14 20  2  0  0  0  0
 15 19  1  0  0  0  0
 16 10  1  0  0  0  0
 17 21  1  0  0  0  0
 17 18  2  0  0  0  0
 18 16  1  0  0  0  0
 19 14  1  0  0  0  0
 22 23  1  0  0  0  0
 22 21  1  0  0  0  0
 23 24  1  0  0  0  0
 24 25  1  0  0  0  0
 26 27  1  0  0  0  0
 26 25  1  0  0  0  0
 28 29  1  0  0  0  0
 29 27  1  0  0  0  0
 29 30  1  0  0  0  0
 31 29  1  0  0  0  0
 32 35  2  0  0  0  0
 35 34  1  0  0  0  0
 35 33  1  0  0  0  0
 36 40  1  0  0  0  0
 37 44  1  1  0  0  0
 37 41  1  0  0  0  0
 37 43  1  0  0  0  0
 40 38  2  1  0  0  0
 40 39  1  0  0  0  0
 41 34  1  1  0  0  0
 41 42  1  0  0  0  0
 42 40  1  0  0  0  0
 43 36  1  0  0  0  0
 45 44  1  0  0  0  0
M  END
>  <MODEL>
9

>  <REMARK>
 VINA RESULT:      -7.0      3.435      9.601
  Name = 
  12 active torsions:
  status: ('A' for Active; 'I' for Inactive)
    1  A    between atoms: C_1  and  C_41
    2  A    between atoms: N_7  and  C_14
    3  A    between atoms: N_7  and  C_21
    4  A    between atoms: S_8  and  C_9
    5  A    between atoms: S_8  and  C_36
    6  A    between atoms: C_9  and  S_28
    7  A    between atoms: C_12  and  C_21
    8  A    between atoms: N_13  and  C_33
    9  A    between atoms: C_14  and  C_15
   10  A    between atoms: C_15  and  S_28
   11  A    between atoms: C_16  and  O_43
   12  A    between atoms: N_18  and  C_32
                            x       y       z     vdW  Elec       q    Type
                         _______ _______ _______ _____ _____    ______ ____

>  <TORSDO>
F 12

$$$$
