=
 OpenBabel10222420263D

 47 52  0  0  1  0  0  0  0  0999 V2000
  187.5130  177.2240  142.5220 C   0  0  0  0  0  2  0  0  0  0  0  0
  186.0530  177.5890  144.5740 C   0  0  0  0  0  0  0  0  0  0  0  0
  184.4460  178.7490  143.0980 C   0  0  0  0  0  3  0  0  0  0  0  0
  185.0950  178.5090  144.4010 C   0  0  0  0  0  3  0  0  0  0  0  0
  186.4290  176.6720  143.4510 C   0  0  0  0  0  2  0  0  0  0  0  0
  185.0940  179.1250  141.9890 C   0  0  0  0  0  0  0  0  0  0  0  0
  187.5520  178.7160  142.3130 C   0  0  0  0  0  3  0  0  0  0  0  0
  186.5190  179.5190  142.0340 C   0  0  0  0  0  3  0  0  0  0  0  0
  187.5580  178.6000  147.7980 C   0  0  0  0  0  2  0  0  0  0  0  0
  188.7530  178.1960  146.9520 C   0  0  2  0  0  3  0  0  0  0  0  0
  186.7050  177.3890  145.9100 C   0  0  2  0  0  3  0  0  0  0  0  0
  186.3530  178.4890  146.8920 C   0  0  0  0  0  2  0  0  0  0  0  0
  188.2200  177.3680  145.7970 C   0  0  0  0  0  2  0  0  0  0  0  0
  189.7230  177.3630  147.7730 C   0  0  0  0  0  2  0  0  0  0  0  0
  190.5800  176.4740  146.8730 C   0  0  1  0  0  3  0  0  0  0  0  0
  191.2820  176.0370  144.4810 C   0  0  0  0  0  2  0  0  0  0  0  0
  191.4010  176.6070  143.0550 C   0  0  0  0  0  2  0  0  0  0  0  0
  191.4490  178.3630  145.4230 C   0  0  0  0  0  2  0  0  0  0  0  0
  191.9530  178.7160  144.0160 C   0  0  0  0  0  2  0  0  0  0  0  0
  190.6580  177.0460  145.4510 C   0  0  0  0  0  3  0  0  0  0  0  0
  191.1470  178.0500  142.9960 N   0  0  0  0  0  2  0  0  0  0  0  0
  191.9430  176.3160  147.4790 C   0  0  0  0  0  0  0  0  0  0  0  0
  192.7600  175.2700  147.0690 O   0  0  0  0  0  0  0  0  0  0  0  0
  192.3530  177.1210  148.3580 O   0  0  0  0  0  1  0  0  0  0  0  0
  184.3100  179.3220  140.8060 N   0  0  0  0  0  2  0  0  0  0  0  0
  185.8520  178.5810  139.1530 N   0  0  0  0  0  0  0  0  0  0  0  0
  184.6600  179.0070  139.4500 C   0  0  0  0  0  0  0  0  0  0  0  0
  183.6140  179.1740  138.3920 C   0  0  0  0  0  2  0  0  0  0  0  0
  182.3090  179.6510  139.0140 C   0  0  0  0  0  2  0  0  0  0  0  0
  181.2360  178.9570  138.4520 O   0  0  0  0  0  0  0  0  0  0  0  0
  180.9620  177.9300  139.3590 C   0  0  0  0  0  2  0  0  0  0  0  0
  179.9150  175.5450  139.0300 C   0  0  2  0  0  3  0  0  0  0  0  0
  180.1670  174.4320  138.1120 N   0  0  0  0  0  0  0  0  0  0  0  0
  179.3790  174.6440  136.9060 C   0  0  0  0  0  1  0  0  0  0  0  0
  180.9330  176.5950  138.6390 C   0  0  2  0  0  0  0  0  0  0  0  0
  181.6030  174.5660  137.7520 C   0  0  0  0  0  2  0  0  0  0  0  0
  181.2260  175.6730  139.7610 C   0  0  2  0  0  3  0  0  0  0  0  0
  182.1580  175.7230  138.5810 C   0  0  2  0  0  3  0  0  0  0  0  0
  186.2720  178.2520  137.7990 C   0  0  0  0  0  2  0  0  0  0  0  0
  187.4480  177.3000  137.8470 C   0  0  0  0  0  2  0  0  0  0  0  0
  188.6830  179.6630  137.3250 O   0  0  0  0  0  1  0  0  0  0  0  0
  189.4280  177.6560  135.8160 O   0  0  0  0  0  0  0  0  0  0  0  0
  188.9570  178.1760  137.3550 P   0  0  2  0  0  0  0  0  0  0  0  0
  190.2050  177.8390  138.4920 O   0  0  0  0  0  0  0  0  0  0  0  0
  190.9380  176.6480  138.4940 C   0  0  0  0  0  0  0  0  0  0  0  0
  192.1610  176.4670  137.6560 C   0  0  0  0  0  1  0  0  0  0  0  0
  190.5580  175.6960  139.2230 O   0  0  0  0  0  0  0  0  0  0  0  0
  1  5  1  0  0  0  0
  3  4  1  0  0  0  0
  4  2  2  0  0  0  0
  5  2  1  0  0  0  0
  6  8  1  0  0  0  0
  6  3  2  0  0  0  0
  7  1  1  0  0  0  0
  8  7  2  0  0  0  0
 10 14  1  1  0  0  0
 10  9  1  0  0  0  0
 11  2  1  6  0  0  0
 11 12  1  0  0  0  0
 12  9  1  0  0  0  0
 13 11  1  0  0  0  0
 13 10  1  0  0  0  0
 15 22  1  0  0  0  0
 15 14  1  1  0  0  0
 16 20  1  0  0  0  0
 17 16  1  0  0  0  0
 18 20  1  0  0  0  0
 19 18  1  0  0  0  0
 20 15  1  0  0  0  0
 21 17  1  0  0  0  0
 21 19  1  0  0  0  0
 22 24  1  0  0  0  0
 23 22  2  0  0  0  0
 25  6  1  0  0  0  0
 26 27  2  0  0  0  0
 27 25  1  0  0  0  0
 28 29  1  0  0  0  0
 28 27  1  0  0  0  0
 30 29  1  0  0  0  0
 30 31  1  0  0  0  0
 32 33  1  6  0  0  0
 32 37  1  0  0  0  0
 34 33  1  0  0  0  0
 35 32  1  0  0  0  0
 35 31  1  6  0  0  0
 35 37  1  0  0  0  0
 36 33  1  0  0  0  0
 36 38  1  0  0  0  0
 38 35  1  0  0  0  0
 38 37  1  0  0  0  0
 39 40  1  0  0  0  0
 39 26  1  0  0  0  0
 41 43  1  0  0  0  0
 42 43  2  0  0  0  0
 43 40  1  0  0  0  0
 43 44  1  0  0  0  0
 44 45  1  0  0  0  0
 45 47  2  0  0  0  0
 46 45  1  0  0  0  0
M  END
>  <MODEL>
1

>  <REMARK>
 VINA RESULT:      -7.8      0.000      0.000
  Name = 
  16 active torsions:
  status: ('A' for Active; 'I' for Inactive)
    1  A    between atoms: C_4  and  C_33
    2  A    between atoms: C_5  and  O_21
    3  A    between atoms: C_6  and  C_23
    4  A    between atoms: C_9  and  C_22
    5  A    between atoms: C_9  and  C_33
    6  A    between atoms: N_12  and  C_18
    7  A    between atoms: C_13  and  C_36
    8  A    between atoms: C_13  and  C_40
    9  A    between atoms: O_21  and  P_42
   10  A    between atoms: C_28  and  C_33
   11  A    between atoms: C_32  and  C_35
   12  A    between atoms: C_32  and  O_46
   13  A    between atoms: C_36  and  O_46
   14  A    between atoms: N_39  and  C_41
   15  A    between atoms: C_41  and  C_45
   16  A    between atoms: P_42  and  C_45
                            x       y       z     vdW  Elec       q    Type
                         _______ _______ _______ _____ _____    ______ ____

>  <TORSDO>
F 16

$$$$
=
 OpenBabel10222420263D

 47 52  0  0  1  0  0  0  0  0999 V2000
  188.0200  177.0370  144.5280 C   0  0  0  0  0  2  0  0  0  0  0  0
  186.4230  178.1470  142.8870 C   0  0  0  0  0  0  0  0  0  0  0  0
  188.1320  177.7860  141.1380 C   0  0  0  0  0  3  0  0  0  0  0  0
  187.0000  178.5200  141.7370 C   0  0  0  0  0  3  0  0  0  0  0  0
  186.8420  176.8780  143.5640 C   0  0  0  0  0  2  0  0  0  0  0  0
  189.3120  177.5940  141.7410 C   0  0  0  0  0  0  0  0  0  0  0  0
  189.0540  178.0800  144.1920 C   0  0  0  0  0  3  0  0  0  0  0  0
  189.6420  178.2820  143.0080 C   0  0  0  0  0  3  0  0  0  0  0  0
  183.3890  178.7090  144.9240 C   0  0  0  0  0  2  0  0  0  0  0  0
  182.8650  178.6790  143.4990 C   0  0  2  0  0  3  0  0  0  0  0  0
  185.2880  178.9320  143.4750 C   0  0  2  0  0  3  0  0  0  0  0  0
  184.8650  178.4010  144.8310 C   0  0  0  0  0  2  0  0  0  0  0  0
  184.0580  178.8930  142.5840 C   0  0  0  0  0  2  0  0  0  0  0  0
  181.8520  179.7910  143.2860 C   0  0  0  0  0  2  0  0  0  0  0  0
  180.5100  179.2270  142.8200 C   0  0  1  0  0  3  0  0  0  0  0  0
  181.0670  178.9590  140.3650 C   0  0  0  0  0  2  0  0  0  0  0  0
  181.2310  177.9810  139.1860 C   0  0  0  0  0  2  0  0  0  0  0  0
  179.4480  177.3730  141.4540 C   0  0  0  0  0  2  0  0  0  0  0  0
  179.4060  176.7240  140.0630 C   0  0  0  0  0  2  0  0  0  0  0  0
  180.7040  178.2340  141.6640 C   0  0  0  0  0  3  0  0  0  0  0  0
  180.7490  176.6310  139.4960 N   0  0  0  0  0  2  0  0  0  0  0  0
  179.8060  178.5900  143.9810 C   0  0  0  0  0  0  0  0  0  0  0  0
  178.9310  179.3450  144.7510 O   0  0  0  0  0  1  0  0  0  0  0  0
  180.0030  177.3770  144.2660 O   0  0  0  0  0  0  0  0  0  0  0  0
  190.3080  176.8630  141.0150 N   0  0  0  0  0  2  0  0  0  0  0  0
  189.7360  177.4760  138.7880 N   0  0  0  0  0  0  0  0  0  0  0  0
  190.5400  176.8540  139.5980 C   0  0  0  0  0  0  0  0  0  0  0  0
  191.7380  176.1180  139.0830 C   0  0  0  0  0  2  0  0  0  0  0  0
  192.9630  177.0200  139.1130 C   0  0  0  0  0  2  0  0  0  0  0  0
  193.9690  176.4780  138.3110 O   0  0  0  0  0  0  0  0  0  0  0  0
  193.4460  175.2650  137.8550 C   0  0  0  0  0  2  0  0  0  0  0  0
  194.6630  174.0760  135.8560 C   0  0  2  0  0  3  0  0  0  0  0  0
  195.8600  173.2410  135.7340 N   0  0  0  0  0  0  0  0  0  0  0  0
  197.0130  174.1120  135.5600 C   0  0  0  0  0  1  0  0  0  0  0  0
  194.5640  174.3800  137.3350 C   0  0  2  0  0  0  0  0  0  0  0  0
  195.9830  172.5750  137.0570 C   0  0  0  0  0  2  0  0  0  0  0  0
  193.7810  173.2600  136.7630 C   0  0  2  0  0  3  0  0  0  0  0  0
  194.7600  172.9890  137.8730 C   0  0  2  0  0  3  0  0  0  0  0  0
  189.9120  177.4980  137.3440 C   0  0  0  0  0  2  0  0  0  0  0  0
  188.9530  178.4960  136.7290 C   0  0  0  0  0  2  0  0  0  0  0  0
  187.2690  176.4180  137.2070 O   0  0  0  0  0  1  0  0  0  0  0  0
  186.3800  178.2080  135.5160 O   0  0  0  0  0  0  0  0  0  0  0  0
  187.2510  177.9040  136.9340 P   0  0  2  0  0  0  0  0  0  0  0  0
  186.5200  178.7300  138.2560 O   0  0  0  0  0  0  0  0  0  0  0  0
  185.1450  178.7000  138.5110 C   0  0  0  0  0  0  0  0  0  0  0  0
  184.2990  177.5180  138.1690 C   0  0  0  0  0  1  0  0  0  0  0  0
  184.6000  179.7000  139.0470 O   0  0  0  0  0  0  0  0  0  0  0  0
  2  5  1  0  0  0  0
  3  4  1  0  0  0  0
  3  6  2  0  0  0  0
  4  2  2  0  0  0  0
  5  1  1  0  0  0  0
  6  8  1  0  0  0  0
  7  1  1  0  0  0  0
  8  7  2  0  0  0  0
 10 14  1  1  0  0  0
 10  9  1  0  0  0  0
 11  2  1  6  0  0  0
 11 12  1  0  0  0  0
 12  9  1  0  0  0  0
 13 11  1  0  0  0  0
 13 10  1  0  0  0  0
 15 14  1  1  0  0  0
 15 22  1  0  0  0  0
 16 20  1  0  0  0  0
 17 21  1  0  0  0  0
 17 16  1  0  0  0  0
 18 20  1  0  0  0  0
 19 18  1  0  0  0  0
 20 15  1  0  0  0  0
 21 19  1  0  0  0  0
 22 24  2  0  0  0  0
 22 23  1  0  0  0  0
 25  6  1  0  0  0  0
 26 27  2  0  0  0  0
 27 25  1  0  0  0  0
 28 29  1  0  0  0  0
 28 27  1  0  0  0  0
 30 29  1  0  0  0  0
 31 30  1  0  0  0  0
 32 33  1  1  0  0  0
 32 37  1  0  0  0  0
 32 35  1  0  0  0  0
 33 36  1  0  0  0  0
 34 33  1  0  0  0  0
 35 31  1  1  0  0  0
 35 38  1  0  0  0  0
 36 38  1  0  0  0  0
 37 35  1  0  0  0  0
 37 38  1  0  0  0  0
 39 26  1  0  0  0  0
 40 43  1  0  0  0  0
 40 39  1  0  0  0  0
 42 43  2  0  0  0  0
 43 41  1  0  0  0  0
 43 44  1  0  0  0  0
 44 45  1  0  0  0  0
 45 47  2  0  0  0  0
 46 45  1  0  0  0  0
M  END
>  <MODEL>
2

>  <REMARK>
 VINA RESULT:      -7.8      3.246      9.406
  Name = 
  16 active torsions:
  status: ('A' for Active; 'I' for Inactive)
    1  A    between atoms: C_4  and  C_33
    2  A    between atoms: C_5  and  O_21
    3  A    between atoms: C_6  and  C_23
    4  A    between atoms: C_9  and  C_22
    5  A    between atoms: C_9  and  C_33
    6  A    between atoms: N_12  and  C_18
    7  A    between atoms: C_13  and  C_36
    8  A    between atoms: C_13  and  C_40
    9  A    between atoms: O_21  and  P_42
   10  A    between atoms: C_28  and  C_33
   11  A    between atoms: C_32  and  C_35
   12  A    between atoms: C_32  and  O_46
   13  A    between atoms: C_36  and  O_46
   14  A    between atoms: N_39  and  C_41
   15  A    between atoms: C_41  and  C_45
   16  A    between atoms: P_42  and  C_45
                            x       y       z     vdW  Elec       q    Type
                         _______ _______ _______ _____ _____    ______ ____

>  <TORSDO>
F 16

$$$$
=
 OpenBabel10222420263D

 47 52  0  0  1  0  0  0  0  0999 V2000
  187.5040  177.3640  142.5950 C   0  0  0  0  0  2  0  0  0  0  0  0
  185.9790  177.5020  144.6280 C   0  0  0  0  0  0  0  0  0  0  0  0
  184.2450  178.4400  143.1370 C   0  0  0  0  0  3  0  0  0  0  0  0
  184.9040  178.2800  144.4480 C   0  0  0  0  0  3  0  0  0  0  0  0
  186.4950  176.6570  143.5030 C   0  0  0  0  0  2  0  0  0  0  0  0
  184.8500  178.9130  142.0410 C   0  0  0  0  0  0  0  0  0  0  0  0
  187.3360  178.8490  142.3980 C   0  0  0  0  0  3  0  0  0  0  0  0
  186.2050  179.5020  142.1100 C   0  0  0  0  0  3  0  0  0  0  0  0
  187.5420  178.7020  147.7570 C   0  0  0  0  0  2  0  0  0  0  0  0
  188.7170  178.1950  146.9380 C   0  0  2  0  0  3  0  0  0  0  0  0
  186.6340  177.3810  145.9720 C   0  0  2  0  0  3  0  0  0  0  0  0
  186.3280  178.5640  146.8690 C   0  0  0  0  0  2  0  0  0  0  0  0
  188.1470  177.3000  145.8530 C   0  0  0  0  0  2  0  0  0  0  0  0
  189.6640  177.3940  147.8160 C   0  0  0  0  0  2  0  0  0  0  0  0
  190.5660  176.4950  146.9700 C   0  0  1  0  0  3  0  0  0  0  0  0
  191.2320  175.9350  144.5930 C   0  0  0  0  0  2  0  0  0  0  0  0
  191.3490  176.4360  143.1420 C   0  0  0  0  0  2  0  0  0  0  0  0
  191.4650  178.2960  145.4270 C   0  0  0  0  0  2  0  0  0  0  0  0
  191.9610  178.5730  144.0010 C   0  0  0  0  0  2  0  0  0  0  0  0
  190.6420  177.0000  145.5220 C   0  0  0  0  0  3  0  0  0  0  0  0
  191.1290  177.8810  143.0200 N   0  0  0  0  0  2  0  0  0  0  0  0
  191.9260  176.4190  147.5990 C   0  0  0  0  0  0  0  0  0  0  0  0
  192.7990  175.4050  147.2250 O   0  0  0  0  0  0  0  0  0  0  0  0
  192.2820  177.2630  148.4650 O   0  0  0  0  0  1  0  0  0  0  0  0
  184.0620  179.0110  140.8480 N   0  0  0  0  0  2  0  0  0  0  0  0
  185.7270  178.5620  139.2090 N   0  0  0  0  0  0  0  0  0  0  0  0
  184.4780  178.7870  139.4930 C   0  0  0  0  0  0  0  0  0  0  0  0
  183.4340  178.8100  138.4190 C   0  0  0  0  0  2  0  0  0  0  0  0
  182.7650  177.4480  138.3070 C   0  0  0  0  0  2  0  0  0  0  0  0
  183.4350  176.6680  137.3630 O   0  0  0  0  0  0  0  0  0  0  0  0
  183.5020  175.3950  137.9350 C   0  0  0  0  0  2  0  0  0  0  0  0
  183.6250  172.9060  137.1100 C   0  0  2  0  0  3  0  0  0  0  0  0
  184.1180  172.2510  135.8970 N   0  0  0  0  0  0  0  0  0  0  0  0
  183.0450  172.2360  134.9130 C   0  0  0  0  0  1  0  0  0  0  0  0
  183.9090  174.3760  136.8870 C   0  0  2  0  0  0  0  0  0  0  0  0
  185.1870  173.1530  135.3970 C   0  0  0  0  0  2  0  0  0  0  0  0
  184.8660  173.5540  137.6640 C   0  0  2  0  0  3  0  0  0  0  0  0
  185.3380  174.2700  136.4280 C   0  0  2  0  0  3  0  0  0  0  0  0
  186.2140  178.3360  137.8560 C   0  0  0  0  0  2  0  0  0  0  0  0
  187.3160  177.2980  137.8790 C   0  0  0  0  0  2  0  0  0  0  0  0
  189.1780  178.3070  139.5790 O   0  0  0  0  0  1  0  0  0  0  0  0
  188.8830  179.6270  137.3370 O   0  0  0  0  0  0  0  0  0  0  0  0
  188.9170  178.1190  138.1030 P   0  0  2  0  0  0  0  0  0  0  0  0
  190.1550  177.1420  137.4130 O   0  0  0  0  0  0  0  0  0  0  0  0
  190.4550  175.8530  137.8660 C   0  0  0  0  0  0  0  0  0  0  0  0
  190.3530  174.6560  136.9800 C   0  0  0  0  0  1  0  0  0  0  0  0
  190.8230  175.6940  139.0590 O   0  0  0  0  0  0  0  0  0  0  0  0
  1  5  1  0  0  0  0
  3  4  1  0  0  0  0
  4  2  2  0  0  0  0
  5  2  1  0  0  0  0
  6  8  1  0  0  0  0
  6  3  2  0  0  0  0
  7  1  1  0  0  0  0
  8  7  2  0  0  0  0
 10  9  1  0  0  0  0
 10 14  1  1  0  0  0
 11  2  1  6  0  0  0
 11 12  1  0  0  0  0
 12  9  1  0  0  0  0
 13 11  1  0  0  0  0
 13 10  1  0  0  0  0
 15 22  1  0  0  0  0
 15 14  1  1  0  0  0
 16 20  1  0  0  0  0
 17 16  1  0  0  0  0
 18 20  1  0  0  0  0
 19 18  1  0  0  0  0
 20 15  1  0  0  0  0
 21 17  1  0  0  0  0
 21 19  1  0  0  0  0
 22 24  1  0  0  0  0
 23 22  2  0  0  0  0
 25  6  1  0  0  0  0
 26 27  2  0  0  0  0
 27 25  1  0  0  0  0
 28 27  1  0  0  0  0
 29 28  1  0  0  0  0
 30 31  1  0  0  0  0
 30 29  1  0  0  0  0
 32 33  1  6  0  0  0
 32 37  1  0  0  0  0
 34 33  1  0  0  0  0
 35 32  1  0  0  0  0
 35 37  1  0  0  0  0
 35 31  1  1  0  0  0
 36 33  1  0  0  0  0
 36 38  1  0  0  0  0
 38 35  1  0  0  0  0
 38 37  1  0  0  0  0
 39 40  1  0  0  0  0
 39 26  1  0  0  0  0
 40 43  1  0  0  0  0
 42 43  2  0  0  0  0
 43 41  1  0  0  0  0
 44 45  1  0  0  0  0
 44 43  1  0  0  0  0
 45 47  2  0  0  0  0
 46 45  1  0  0  0  0
M  END
>  <MODEL>
3

>  <REMARK>
 VINA RESULT:      -7.8      1.682      2.096
  Name = 
  16 active torsions:
  status: ('A' for Active; 'I' for Inactive)
    1  A    between atoms: C_4  and  C_33
    2  A    between atoms: C_5  and  O_21
    3  A    between atoms: C_6  and  C_23
    4  A    between atoms: C_9  and  C_22
    5  A    between atoms: C_9  and  C_33
    6  A    between atoms: N_12  and  C_18
    7  A    between atoms: C_13  and  C_36
    8  A    between atoms: C_13  and  C_40
    9  A    between atoms: O_21  and  P_42
   10  A    between atoms: C_28  and  C_33
   11  A    between atoms: C_32  and  C_35
   12  A    between atoms: C_32  and  O_46
   13  A    between atoms: C_36  and  O_46
   14  A    between atoms: N_39  and  C_41
   15  A    between atoms: C_41  and  C_45
   16  A    between atoms: P_42  and  C_45
                            x       y       z     vdW  Elec       q    Type
                         _______ _______ _______ _____ _____    ______ ____

>  <TORSDO>
F 16

$$$$
=
 OpenBabel10222420263D

 47 52  0  0  1  0  0  0  0  0999 V2000
  183.1170  179.7480  144.3550 C   0  0  0  0  0  2  0  0  0  0  0  0
  185.3210  178.4990  144.1120 C   0  0  0  0  0  0  0  0  0  0  0  0
  184.9020  178.4400  141.6770 C   0  0  0  0  0  3  0  0  0  0  0  0
  185.4770  177.9000  142.9240 C   0  0  0  0  0  3  0  0  0  0  0  0
  184.6380  179.8290  144.2010 C   0  0  0  0  0  2  0  0  0  0  0  0
  183.5950  178.6440  141.4740 C   0  0  0  0  0  0  0  0  0  0  0  0
  182.4150  178.5920  143.6910 C   0  0  0  0  0  3  0  0  0  0  0  0
  182.5870  178.1540  142.4390 C   0  0  0  0  0  3  0  0  0  0  0  0
  187.0760  178.5070  147.3670 C   0  0  0  0  0  2  0  0  0  0  0  0
  188.1040  177.9380  146.4050 C   0  0  2  0  0  3  0  0  0  0  0  0
  185.9020  177.9080  145.3620 C   0  0  2  0  0  3  0  0  0  0  0  0
  185.8810  178.8820  146.5230 C   0  0  0  0  0  2  0  0  0  0  0  0
  187.3510  177.4920  145.1650 C   0  0  0  0  0  2  0  0  0  0  0  0
  188.8090  176.7460  147.0300 C   0  0  0  0  0  2  0  0  0  0  0  0
  190.0200  176.3270  146.1970 C   0  0  1  0  0  3  0  0  0  0  0  0
  190.2620  176.1880  143.6810 C   0  0  0  0  0  2  0  0  0  0  0  0
  190.3630  176.9690  142.3570 C   0  0  0  0  0  2  0  0  0  0  0  0
  191.2140  178.1610  144.9160 C   0  0  0  0  0  2  0  0  0  0  0  0
  191.6200  178.6320  143.5120 C   0  0  0  0  0  2  0  0  0  0  0  0
  190.0830  177.1200  144.8840 C   0  0  0  0  0  3  0  0  0  0  0  0
  190.5350  178.4120  142.5600 N   0  0  0  0  0  2  0  0  0  0  0  0
  191.2700  176.5030  147.0080 C   0  0  0  0  0  0  0  0  0  0  0  0
  192.3280  175.6200  146.8380 O   0  0  0  0  0  0  0  0  0  0  0  0
  191.3670  177.4420  147.8440 O   0  0  0  0  0  1  0  0  0  0  0  0
  183.2030  179.1700  140.1990 N   0  0  0  0  0  2  0  0  0  0  0  0
  183.4050  177.2140  138.8600 N   0  0  0  0  0  0  0  0  0  0  0  0
  183.0620  178.4640  138.9570 C   0  0  0  0  0  0  0  0  0  0  0  0
  182.5000  179.2050  137.7840 C   0  0  0  0  0  2  0  0  0  0  0  0
  181.2310  179.9430  138.1860 C   0  0  0  0  0  2  0  0  0  0  0  0
  181.3130  181.2770  137.7860 O   0  0  0  0  0  0  0  0  0  0  0  0
  180.0240  181.7850  137.9710 C   0  0  0  0  0  2  0  0  0  0  0  0
  180.5910  183.2510  135.8680 C   0  0  2  0  0  3  0  0  0  0  0  0
  180.1560  184.5630  135.3860 N   0  0  0  0  0  0  0  0  0  0  0  0
  178.9470  184.3840  134.5940 C   0  0  0  0  0  1  0  0  0  0  0  0
  179.8510  183.0660  137.1760 C   0  0  2  0  0  0  0  0  0  0  0  0
  179.7920  185.3090  136.6180 C   0  0  0  0  0  2  0  0  0  0  0  0
  181.2400  183.5820  137.1870 C   0  0  2  0  0  3  0  0  0  0  0  0
  180.1390  184.4050  137.7980 C   0  0  2  0  0  3  0  0  0  0  0  0
  183.2940  176.4460  137.6290 C   0  0  0  0  0  2  0  0  0  0  0  0
  184.5830  175.6900  137.3820 C   0  0  0  0  0  2  0  0  0  0  0  0
  184.8370  177.4280  135.3090 O   0  0  0  0  0  0  0  0  0  0  0  0
  186.7550  175.6580  135.5240 O   0  0  0  0  0  1  0  0  0  0  0  0
  185.6720  176.6810  136.3240 P   0  0  2  0  0  0  0  0  0  0  0  0
  186.5410  177.8030  137.2990 O   0  0  0  0  0  0  0  0  0  0  0  0
  187.5660  177.4250  138.1730 C   0  0  0  0  0  0  0  0  0  0  0  0
  187.8720  178.1930  139.4160 C   0  0  0  0  0  1  0  0  0  0  0  0
  188.2540  176.4070  137.9050 O   0  0  0  0  0  0  0  0  0  0  0  0
  2  5  1  0  0  0  0
  3  4  1  0  0  0  0
  4  2  2  0  0  0  0
  5  1  1  0  0  0  0
  6  3  2  0  0  0  0
  6  8  1  0  0  0  0
  7  1  1  0  0  0  0
  8  7  2  0  0  0  0
 10 14  1  1  0  0  0
 10  9  1  0  0  0  0
 11  2  1  6  0  0  0
 11 12  1  0  0  0  0
 12  9  1  0  0  0  0
 13 11  1  0  0  0  0
 13 10  1  0  0  0  0
 15 22  1  0  0  0  0
 15 14  1  1  0  0  0
 16 20  1  0  0  0  0
 17 21  1  0  0  0  0
 17 16  1  0  0  0  0
 19 18  1  0  0  0  0
 20 18  1  0  0  0  0
 20 15  1  0  0  0  0
 21 19  1  0  0  0  0
 22 24  1  0  0  0  0
 23 22  2  0  0  0  0
 25  6  1  0  0  0  0
 26 27  2  0  0  0  0
 27 25  1  0  0  0  0
 28 29  1  0  0  0  0
 28 27  1  0  0  0  0
 30 31  1  0  0  0  0
 30 29  1  0  0  0  0
 32 33  1  6  0  0  0
 32 35  1  0  0  0  0
 32 37  1  0  0  0  0
 33 36  1  0  0  0  0
 34 33  1  0  0  0  0
 35 37  1  0  0  0  0
 35 38  1  0  0  0  0
 35 31  1  1  0  0  0
 36 38  1  0  0  0  0
 37 38  1  0  0  0  0
 39 26  1  0  0  0  0
 40 39  1  0  0  0  0
 41 43  2  0  0  0  0
 42 43  1  0  0  0  0
 43 44  1  0  0  0  0
 43 40  1  0  0  0  0
 44 45  1  0  0  0  0
 45 46  1  0  0  0  0
 47 45  2  0  0  0  0
M  END
>  <MODEL>
4

>  <REMARK>
 VINA RESULT:      -7.8      2.941      4.323
  Name = 
  16 active torsions:
  status: ('A' for Active; 'I' for Inactive)
    1  A    between atoms: C_4  and  C_33
    2  A    between atoms: C_5  and  O_21
    3  A    between atoms: C_6  and  C_23
    4  A    between atoms: C_9  and  C_22
    5  A    between atoms: C_9  and  C_33
    6  A    between atoms: N_12  and  C_18
    7  A    between atoms: C_13  and  C_36
    8  A    between atoms: C_13  and  C_40
    9  A    between atoms: O_21  and  P_42
   10  A    between atoms: C_28  and  C_33
   11  A    between atoms: C_32  and  C_35
   12  A    between atoms: C_32  and  O_46
   13  A    between atoms: C_36  and  O_46
   14  A    between atoms: N_39  and  C_41
   15  A    between atoms: C_41  and  C_45
   16  A    between atoms: P_42  and  C_45
                            x       y       z     vdW  Elec       q    Type
                         _______ _______ _______ _____ _____    ______ ____

>  <TORSDO>
F 16

$$$$
=
 OpenBabel10222420263D

 47 52  0  0  1  0  0  0  0  0999 V2000
  183.2370  179.3530  144.6830 C   0  0  0  0  0  2  0  0  0  0  0  0
  185.6110  178.4760  144.4220 C   0  0  0  0  0  0  0  0  0  0  0  0
  185.3310  178.7380  141.9810 C   0  0  0  0  0  3  0  0  0  0  0  0
  185.9150  178.0960  143.1750 C   0  0  0  0  0  3  0  0  0  0  0  0
  184.7350  179.6680  144.6550 C   0  0  0  0  0  2  0  0  0  0  0  0
  184.0200  178.7860  141.7140 C   0  0  0  0  0  0  0  0  0  0  0  0
  182.7500  178.2270  143.8080 C   0  0  0  0  0  3  0  0  0  0  0  0
  183.0480  178.0170  142.5220 C   0  0  0  0  0  3  0  0  0  0  0  0
  187.4420  178.2140  147.6250 C   0  0  0  0  0  2  0  0  0  0  0  0
  188.4350  177.6970  146.5990 C   0  0  2  0  0  3  0  0  0  0  0  0
  186.2090  177.7850  145.6120 C   0  0  2  0  0  3  0  0  0  0  0  0
  186.2350  178.6730  146.8400 C   0  0  0  0  0  2  0  0  0  0  0  0
  187.6430  177.3560  145.3490 C   0  0  0  0  0  2  0  0  0  0  0  0
  189.1300  176.4500  147.1200 C   0  0  0  0  0  2  0  0  0  0  0  0
  190.4520  176.2150  146.3910 C   0  0  1  0  0  3  0  0  0  0  0  0
  191.0990  176.1610  143.9440 C   0  0  0  0  0  2  0  0  0  0  0  0
  191.1890  176.9490  142.6230 C   0  0  0  0  0  2  0  0  0  0  0  0
  191.2980  178.3090  145.2380 C   0  0  0  0  0  2  0  0  0  0  0  0
  191.7720  178.8800  143.8930 C   0  0  0  0  0  2  0  0  0  0  0  0
  190.5010  177.0040  145.0750 C   0  0  0  0  0  3  0  0  0  0  0  0
  190.9410  178.3840  142.8000 N   0  0  0  0  0  2  0  0  0  0  0  0
  191.5930  176.5800  147.2950 C   0  0  0  0  0  0  0  0  0  0  0  0
  191.4230  177.5800  148.2440 O   0  0  0  0  0  1  0  0  0  0  0  0
  192.7030  175.9910  147.1990 O   0  0  0  0  0  0  0  0  0  0  0  0
  183.6210  179.4440  140.5050 N   0  0  0  0  0  2  0  0  0  0  0  0
  183.9710  177.6880  138.9390 N   0  0  0  0  0  0  0  0  0  0  0  0
  183.5470  178.8920  139.1820 C   0  0  0  0  0  0  0  0  0  0  0  0
  182.9620  179.7400  138.0950 C   0  0  0  0  0  2  0  0  0  0  0  0
  181.4570  179.5290  138.0160 C   0  0  0  0  0  2  0  0  0  0  0  0
  180.8220  180.2820  139.0060 O   0  0  0  0  0  0  0  0  0  0  0  0
  179.7650  179.4790  139.4410 C   0  0  0  0  0  2  0  0  0  0  0  0
  179.0900  177.0970  138.5660 C   0  0  2  0  0  3  0  0  0  0  0  0
  179.7680  175.8010  138.4950 N   0  0  0  0  0  0  0  0  0  0  0  0
  180.5200  175.7440  137.2490 C   0  0  0  0  0  1  0  0  0  0  0  0
  180.1000  178.0150  139.2210 C   0  0  2  0  0  0  0  0  0  0  0  0
  180.7400  175.8280  139.6180 C   0  0  0  0  0  2  0  0  0  0  0  0
  179.0530  177.3690  140.0480 C   0  0  2  0  0  3  0  0  0  0  0  0
  180.5030  177.1340  140.3730 C   0  0  2  0  0  3  0  0  0  0  0  0
  183.9320  177.0750  137.6200 C   0  0  0  0  0  2  0  0  0  0  0  0
  184.9240  175.9320  137.5600 C   0  0  0  0  0  2  0  0  0  0  0  0
  186.1920  177.8500  136.1120 O   0  0  0  0  0  1  0  0  0  0  0  0
  186.7930  175.3840  135.4670 O   0  0  0  0  0  0  0  0  0  0  0  0
  186.4260  176.4780  136.7030 P   0  0  2  0  0  0  0  0  0  0  0  0
  187.7270  176.5450  137.8290 O   0  0  0  0  0  0  0  0  0  0  0  0
  188.0040  177.6690  138.6130 C   0  0  0  0  0  0  0  0  0  0  0  0
  189.3740  177.9560  139.1340 C   0  0  0  0  0  1  0  0  0  0  0  0
  187.0720  178.4670  138.8910 O   0  0  0  0  0  0  0  0  0  0  0  0
  2  5  1  0  0  0  0
  3  4  1  0  0  0  0
  4  2  2  0  0  0  0
  5  1  1  0  0  0  0
  6  3  2  0  0  0  0
  6  8  1  0  0  0  0
  7  1  1  0  0  0  0
  8  7  2  0  0  0  0
 10 14  1  1  0  0  0
 10  9  1  0  0  0  0
 11  2  1  6  0  0  0
 11 12  1  0  0  0  0
 12  9  1  0  0  0  0
 13 11  1  0  0  0  0
 13 10  1  0  0  0  0
 15 14  1  1  0  0  0
 15 22  1  0  0  0  0
 16 20  1  0  0  0  0
 17 21  1  0  0  0  0
 17 16  1  0  0  0  0
 19 18  1  0  0  0  0
 20 18  1  0  0  0  0
 20 15  1  0  0  0  0
 21 19  1  0  0  0  0
 22 23  1  0  0  0  0
 24 22  2  0  0  0  0
 25  6  1  0  0  0  0
 26 27  2  0  0  0  0
 27 25  1  0  0  0  0
 28 27  1  0  0  0  0
 29 28  1  0  0  0  0
 29 30  1  0  0  0  0
 30 31  1  0  0  0  0
 32 33  1  1  0  0  0
 32 35  1  0  0  0  0
 32 37  1  0  0  0  0
 33 36  1  0  0  0  0
 34 33  1  0  0  0  0
 35 31  1  6  0  0  0
 35 37  1  0  0  0  0
 35 38  1  0  0  0  0
 36 38  1  0  0  0  0
 37 38  1  0  0  0  0
 39 26  1  0  0  0  0
 40 39  1  0  0  0  0
 41 43  1  0  0  0  0
 42 43  2  0  0  0  0
 43 40  1  0  0  0  0
 43 44  1  0  0  0  0
 44 45  1  0  0  0  0
 45 47  2  0  0  0  0
 45 46  1  0  0  0  0
M  END
>  <MODEL>
5

>  <REMARK>
 VINA RESULT:      -7.7      1.584      2.304
  Name = 
  16 active torsions:
  status: ('A' for Active; 'I' for Inactive)
    1  A    between atoms: C_4  and  C_33
    2  A    between atoms: C_5  and  O_21
    3  A    between atoms: C_6  and  C_23
    4  A    between atoms: C_9  and  C_22
    5  A    between atoms: C_9  and  C_33
    6  A    between atoms: N_12  and  C_18
    7  A    between atoms: C_13  and  C_36
    8  A    between atoms: C_13  and  C_40
    9  A    between atoms: O_21  and  P_42
   10  A    between atoms: C_28  and  C_33
   11  A    between atoms: C_32  and  C_35
   12  A    between atoms: C_32  and  O_46
   13  A    between atoms: C_36  and  O_46
   14  A    between atoms: N_39  and  C_41
   15  A    between atoms: C_41  and  C_45
   16  A    between atoms: P_42  and  C_45
                            x       y       z     vdW  Elec       q    Type
                         _______ _______ _______ _____ _____    ______ ____

>  <TORSDO>
F 16

$$$$
=
 OpenBabel10222420263D

 47 52  0  0  1  0  0  0  0  0999 V2000
  187.6630  177.1690  142.5640 C   0  0  0  0  0  2  0  0  0  0  0  0
  186.2010  177.5740  144.6080 C   0  0  0  0  0  0  0  0  0  0  0  0
  184.6380  178.7830  143.1230 C   0  0  0  0  0  3  0  0  0  0  0  0
  185.2720  178.5220  144.4300 C   0  0  0  0  0  3  0  0  0  0  0  0
  186.5570  176.6480  143.4860 C   0  0  0  0  0  2  0  0  0  0  0  0
  185.3040  179.1410  142.0180 C   0  0  0  0  0  0  0  0  0  0  0  0
  187.7460  178.6590  142.3570 C   0  0  0  0  0  3  0  0  0  0  0  0
  186.7400  179.4930  142.0730 C   0  0  0  0  0  3  0  0  0  0  0  0
  187.5440  178.5210  147.9210 C   0  0  0  0  0  2  0  0  0  0  0  0
  188.7870  178.2700  147.0860 C   0  0  2  0  0  3  0  0  0  0  0  0
  186.8390  177.3530  145.9470 C   0  0  2  0  0  3  0  0  0  0  0  0
  186.3730  178.3610  146.9790 C   0  0  0  0  0  2  0  0  0  0  0  0
  188.3520  177.4670  145.8740 C   0  0  0  0  0  2  0  0  0  0  0  0
  189.8070  177.4760  147.8860 C   0  0  0  0  0  2  0  0  0  0  0  0
  190.5880  176.5220  146.9830 C   0  0  1  0  0  3  0  0  0  0  0  0
  191.1890  175.9990  144.5800 C   0  0  0  0  0  2  0  0  0  0  0  0
  191.3090  176.5370  143.1420 C   0  0  0  0  0  2  0  0  0  0  0  0
  191.5560  178.3190  145.4780 C   0  0  0  0  0  2  0  0  0  0  0  0
  192.0440  178.6130  144.0520 C   0  0  0  0  0  2  0  0  0  0  0  0
  190.6690  177.0650  145.5490 C   0  0  0  0  0  3  0  0  0  0  0  0
  191.1620  177.9940  143.0660 N   0  0  0  0  0  2  0  0  0  0  0  0
  191.9540  176.2920  147.5620 C   0  0  0  0  0  0  0  0  0  0  0  0
  192.7030  175.2000  147.1420 O   0  0  0  0  0  0  0  0  0  0  0  0
  192.4250  177.0780  148.4280 O   0  0  0  0  0  1  0  0  0  0  0  0
  184.5330  179.3630  140.8310 N   0  0  0  0  0  2  0  0  0  0  0  0
  186.0090  178.4570  139.1990 N   0  0  0  0  0  0  0  0  0  0  0  0
  184.8540  178.9810  139.4850 C   0  0  0  0  0  0  0  0  0  0  0  0
  183.8200  179.1970  138.4240 C   0  0  0  0  0  2  0  0  0  0  0  0
  182.4290  178.9340  138.9830 C   0  0  0  0  0  2  0  0  0  0  0  0
  181.8570  180.1330  139.4100 O   0  0  0  0  0  0  0  0  0  0  0  0
  180.5150  179.8220  139.6480 C   0  0  0  0  0  2  0  0  0  0  0  0
  180.1030  178.3790  141.8020 C   0  0  2  0  0  3  0  0  0  0  0  0
  179.9090  178.6860  143.2210 N   0  0  0  0  0  0  0  0  0  0  0  0
  181.2160  178.7660  143.8570 C   0  0  0  0  0  1  0  0  0  0  0  0
  180.2600  179.7320  141.1410 C   0  0  2  0  0  0  0  0  0  0  0  0
  179.3110  180.0470  143.2270 C   0  0  0  0  0  2  0  0  0  0  0  0
  178.9340  179.0700  141.1510 C   0  0  2  0  0  3  0  0  0  0  0  0
  179.0860  180.4350  141.7670 C   0  0  2  0  0  3  0  0  0  0  0  0
  186.3980  178.0580  137.8550 C   0  0  0  0  0  2  0  0  0  0  0  0
  187.6260  177.1750  137.9220 C   0  0  0  0  0  2  0  0  0  0  0  0
  189.0710  179.4720  137.7860 O   0  0  0  0  0  1  0  0  0  0  0  0
  188.9110  178.1200  135.5490 O   0  0  0  0  0  0  0  0  0  0  0  0
  189.0490  178.0650  137.2340 P   0  0  2  0  0  0  0  0  0  0  0  0
  190.4970  177.2450  137.6750 O   0  0  0  0  0  0  0  0  0  0  0  0
  190.6550  175.8600  137.5690 C   0  0  0  0  0  0  0  0  0  0  0  0
  190.6170  175.1540  136.2540 C   0  0  0  0  0  1  0  0  0  0  0  0
  190.8360  175.1830  138.6140 O   0  0  0  0  0  0  0  0  0  0  0  0
  1  5  1  0  0  0  0
  3  4  1  0  0  0  0
  4  2  2  0  0  0  0
  5  2  1  0  0  0  0
  6  8  1  0  0  0  0
  6  3  2  0  0  0  0
  7  1  1  0  0  0  0
  8  7  2  0  0  0  0
 10 14  1  1  0  0  0
 10  9  1  0  0  0  0
 11  2  1  6  0  0  0
 11 12  1  0  0  0  0
 12  9  1  0  0  0  0
 13 11  1  0  0  0  0
 13 10  1  0  0  0  0
 15 22  1  0  0  0  0
 15 14  1  1  0  0  0
 16 20  1  0  0  0  0
 17 16  1  0  0  0  0
 18 20  1  0  0  0  0
 19 18  1  0  0  0  0
 20 15  1  0  0  0  0
 21 17  1  0  0  0  0
 21 19  1  0  0  0  0
 22 24  1  0  0  0  0
 23 22  2  0  0  0  0
 25  6  1  0  0  0  0
 26 27  2  0  0  0  0
 27 25  1  0  0  0  0
 28 29  1  0  0  0  0
 28 27  1  0  0  0  0
 29 30  1  0  0  0  0
 30 31  1  0  0  0  0
 32 33  1  1  0  0  0
 33 36  1  0  0  0  0
 33 34  1  0  0  0  0
 35 31  1  6  0  0  0
 35 37  1  0  0  0  0
 35 38  1  0  0  0  0
 35 32  1  0  0  0  0
 37 38  1  0  0  0  0
 37 32  1  0  0  0  0
 38 36  1  0  0  0  0
 39 40  1  0  0  0  0
 39 26  1  0  0  0  0
 42 43  2  0  0  0  0
 43 44  1  0  0  0  0
 43 41  1  0  0  0  0
 43 40  1  0  0  0  0
 45 44  1  0  0  0  0
 45 47  2  0  0  0  0
 46 45  1  0  0  0  0
M  END
>  <MODEL>
6

>  <REMARK>
 VINA RESULT:      -7.7      1.838      2.481
  Name = 
  16 active torsions:
  status: ('A' for Active; 'I' for Inactive)
    1  A    between atoms: C_4  and  C_33
    2  A    between atoms: C_5  and  O_21
    3  A    between atoms: C_6  and  C_23
    4  A    between atoms: C_9  and  C_22
    5  A    between atoms: C_9  and  C_33
    6  A    between atoms: N_12  and  C_18
    7  A    between atoms: C_13  and  C_36
    8  A    between atoms: C_13  and  C_40
    9  A    between atoms: O_21  and  P_42
   10  A    between atoms: C_28  and  C_33
   11  A    between atoms: C_32  and  C_35
   12  A    between atoms: C_32  and  O_46
   13  A    between atoms: C_36  and  O_46
   14  A    between atoms: N_39  and  C_41
   15  A    between atoms: C_41  and  C_45
   16  A    between atoms: P_42  and  C_45
                            x       y       z     vdW  Elec       q    Type
                         _______ _______ _______ _____ _____    ______ ____

>  <TORSDO>
F 16

$$$$
=
 OpenBabel10222420263D

 47 52  0  0  1  0  0  0  0  0999 V2000
  187.5320  177.1460  142.5580 C   0  0  0  0  0  2  0  0  0  0  0  0
  186.1270  177.5810  144.6350 C   0  0  0  0  0  0  0  0  0  0  0  0
  184.5450  178.8070  143.1840 C   0  0  0  0  0  3  0  0  0  0  0  0
  185.2070  178.5420  144.4760 C   0  0  0  0  0  3  0  0  0  0  0  0
  186.4410  176.6450  143.5080 C   0  0  0  0  0  2  0  0  0  0  0  0
  185.1890  179.1510  142.0620 C   0  0  0  0  0  0  0  0  0  0  0  0
  187.6320  178.6340  142.3430 C   0  0  0  0  0  3  0  0  0  0  0  0
  186.6310  179.4820  142.0800 C   0  0  0  0  0  3  0  0  0  0  0  0
  187.5540  178.5190  147.9150 C   0  0  0  0  0  2  0  0  0  0  0  0
  188.7760  178.2570  147.0520 C   0  0  2  0  0  3  0  0  0  0  0  0
  186.7930  177.3560  145.9590 C   0  0  2  0  0  3  0  0  0  0  0  0
  186.3600  178.3680  147.0010 C   0  0  0  0  0  2  0  0  0  0  0  0
  188.3060  177.4570  145.8500 C   0  0  0  0  0  2  0  0  0  0  0  0
  189.8070  177.4550  147.8280 C   0  0  0  0  0  2  0  0  0  0  0  0
  190.5690  176.5040  146.9060 C   0  0  1  0  0  3  0  0  0  0  0  0
  191.0950  175.9930  144.4830 C   0  0  0  0  0  2  0  0  0  0  0  0
  191.2090  176.5480  143.0500 C   0  0  0  0  0  2  0  0  0  0  0  0
  191.5840  178.2810  145.4070 C   0  0  0  0  0  2  0  0  0  0  0  0
  192.0550  178.5750  143.9750 C   0  0  0  0  0  2  0  0  0  0  0  0
  190.6440  177.0660  145.4790 C   0  0  0  0  0  3  0  0  0  0  0  0
  191.1260  178.0120  142.9990 N   0  0  0  0  0  2  0  0  0  0  0  0
  191.9370  176.2510  147.4690 C   0  0  0  0  0  0  0  0  0  0  0  0
  192.4350  177.0840  148.4620 O   0  0  0  0  0  1  0  0  0  0  0  0
  192.6380  175.2910  147.0480 O   0  0  0  0  0  0  0  0  0  0  0  0
  184.3930  179.3790  140.8930 N   0  0  0  0  0  2  0  0  0  0  0  0
  185.8620  178.5470  139.2170 N   0  0  0  0  0  0  0  0  0  0  0  0
  184.7000  179.0360  139.5330 C   0  0  0  0  0  0  0  0  0  0  0  0
  183.6430  179.2490  138.4950 C   0  0  0  0  0  2  0  0  0  0  0  0
  182.2720  179.3370  139.1500 C   0  0  0  0  0  2  0  0  0  0  0  0
  181.3420  179.8350  138.2360 O   0  0  0  0  0  0  0  0  0  0  0  0
  181.0100  181.1030  138.7220 C   0  0  0  0  0  2  0  0  0  0  0  0
  179.9220  183.2590  137.6910 C   0  0  2  0  0  3  0  0  0  0  0  0
  180.0720  183.9770  136.4240 N   0  0  0  0  0  0  0  0  0  0  0  0
  181.1670  184.9270  136.5610 C   0  0  0  0  0  1  0  0  0  0  0  0
  180.8630  182.0790  137.5700 C   0  0  2  0  0  0  0  0  0  0  0  0
  180.4890  182.9330  135.4530 C   0  0  0  0  0  2  0  0  0  0  0  0
  179.4270  181.9070  137.2480 C   0  0  2  0  0  3  0  0  0  0  0  0
  180.4630  181.6010  136.2000 C   0  0  2  0  0  3  0  0  0  0  0  0
  186.2380  178.1880  137.8580 C   0  0  0  0  0  2  0  0  0  0  0  0
  187.2430  177.0560  137.8900 C   0  0  0  0  0  2  0  0  0  0  0  0
  189.0560  178.8960  138.7330 O   0  0  0  0  0  1  0  0  0  0  0  0
  189.2010  178.2680  136.1940 O   0  0  0  0  0  0  0  0  0  0  0  0
  188.9210  177.7340  137.7750 P   0  0  2  0  0  0  0  0  0  0  0  0
  190.0570  176.5070  138.1860 O   0  0  0  0  0  0  0  0  0  0  0  0
  191.3560  176.7820  138.6240 C   0  0  0  0  0  0  0  0  0  0  0  0
  192.5600  176.3960  137.8290 C   0  0  0  0  0  1  0  0  0  0  0  0
  191.5200  177.3720  139.7220 O   0  0  0  0  0  0  0  0  0  0  0  0
  1  5  1  0  0  0  0
  3  4  1  0  0  0  0
  4  2  2  0  0  0  0
  5  2  1  0  0  0  0
  6  8  1  0  0  0  0
  6  3  2  0  0  0  0
  7  1  1  0  0  0  0
  8  7  2  0  0  0  0
 10 14  1  1  0  0  0
 10  9  1  0  0  0  0
 11  2  1  6  0  0  0
 11 12  1  0  0  0  0
 12  9  1  0  0  0  0
 13 11  1  0  0  0  0
 13 10  1  0  0  0  0
 15 22  1  0  0  0  0
 15 14  1  1  0  0  0
 16 20  1  0  0  0  0
 17 16  1  0  0  0  0
 18 20  1  0  0  0  0
 19 18  1  0  0  0  0
 20 15  1  0  0  0  0
 21 17  1  0  0  0  0
 21 19  1  0  0  0  0
 22 23  1  0  0  0  0
 24 22  2  0  0  0  0
 25  6  1  0  0  0  0
 26 27  2  0  0  0  0
 27 25  1  0  0  0  0
 28 29  1  0  0  0  0
 28 27  1  0  0  0  0
 30 31  1  0  0  0  0
 30 29  1  0  0  0  0
 32 33  1  6  0  0  0
 33 34  1  0  0  0  0
 35 32  1  0  0  0  0
 35 31  1  1  0  0  0
 36 38  1  0  0  0  0
 36 33  1  0  0  0  0
 37 35  1  0  0  0  0
 37 32  1  0  0  0  0
 38 37  1  0  0  0  0
 38 35  1  0  0  0  0
 39 40  1  0  0  0  0
 39 26  1  0  0  0  0
 42 43  2  0  0  0  0
 43 40  1  0  0  0  0
 43 44  1  0  0  0  0
 43 41  1  0  0  0  0
 44 45  1  0  0  0  0
 45 47  2  0  0  0  0
 46 45  1  0  0  0  0
M  END
>  <MODEL>
7

>  <REMARK>
 VINA RESULT:      -7.5      2.050      3.248
  Name = 
  16 active torsions:
  status: ('A' for Active; 'I' for Inactive)
    1  A    between atoms: C_4  and  C_33
    2  A    between atoms: C_5  and  O_21
    3  A    between atoms: C_6  and  C_23
    4  A    between atoms: C_9  and  C_22
    5  A    between atoms: C_9  and  C_33
    6  A    between atoms: N_12  and  C_18
    7  A    between atoms: C_13  and  C_36
    8  A    between atoms: C_13  and  C_40
    9  A    between atoms: O_21  and  P_42
   10  A    between atoms: C_28  and  C_33
   11  A    between atoms: C_32  and  C_35
   12  A    between atoms: C_32  and  O_46
   13  A    between atoms: C_36  and  O_46
   14  A    between atoms: N_39  and  C_41
   15  A    between atoms: C_41  and  C_45
   16  A    between atoms: P_42  and  C_45
                            x       y       z     vdW  Elec       q    Type
                         _______ _______ _______ _____ _____    ______ ____

>  <TORSDO>
F 16

$$$$
=
 OpenBabel10222420263D

 47 52  0  0  1  0  0  0  0  0999 V2000
  191.9980  176.4870  142.6230 C   0  0  0  0  0  2  0  0  0  0  0  0
  189.5660  176.9120  142.0050 C   0  0  0  0  0  0  0  0  0  0  0  0
  190.2250  176.6340  139.6390 C   0  0  0  0  0  3  0  0  0  0  0  0
  189.3770  177.1940  140.7090 C   0  0  0  0  0  3  0  0  0  0  0  0
  190.5980  175.9050  142.4140 C   0  0  0  0  0  2  0  0  0  0  0  0
  191.5480  176.8170  139.5500 C   0  0  0  0  0  0  0  0  0  0  0  0
  192.3970  177.6570  141.7600 C   0  0  0  0  0  3  0  0  0  0  0  0
  192.2480  177.7720  140.4360 C   0  0  0  0  0  3  0  0  0  0  0  0
  188.6860  178.1070  145.3920 C   0  0  0  0  0  2  0  0  0  0  0  0
  187.9270  176.7970  145.2630 C   0  0  2  0  0  3  0  0  0  0  0  0
  188.6960  177.5170  143.0660 C   0  0  2  0  0  3  0  0  0  0  0  0
  189.5030  178.2390  144.1280 C   0  0  0  0  0  2  0  0  0  0  0  0
  187.8710  176.4620  143.7840 C   0  0  0  0  0  2  0  0  0  0  0  0
  186.5170  176.9500  145.8070 C   0  0  0  0  0  2  0  0  0  0  0  0
  185.9710  178.3510  145.5300 C   0  0  1  0  0  3  0  0  0  0  0  0
  185.4320  179.0120  143.1470 C   0  0  0  0  0  2  0  0  0  0  0  0
  184.3760  179.0200  142.0260 C   0  0  0  0  0  2  0  0  0  0  0  0
  183.6010  178.9650  144.8700 C   0  0  0  0  0  2  0  0  0  0  0  0
  182.7090  179.3790  143.6910 C   0  0  0  0  0  2  0  0  0  0  0  0
  184.9190  178.3180  144.4130 C   0  0  0  0  0  3  0  0  0  0  0  0
  183.0470  178.6130  142.4930 N   0  0  0  0  0  2  0  0  0  0  0  0
  185.4120  178.9290  146.7970 C   0  0  0  0  0  0  0  0  0  0  0  0
  185.8900  180.1460  147.2660 O   0  0  0  0  0  0  0  0  0  0  0  0
  184.5160  178.3190  147.4410 O   0  0  0  0  0  1  0  0  0  0  0  0
  192.2210  176.2080  138.4410 N   0  0  0  0  0  2  0  0  0  0  0  0
  190.6920  176.7190  136.6920 N   0  0  0  0  0  0  0  0  0  0  0  0
  191.8310  176.2120  137.0600 C   0  0  0  0  0  0  0  0  0  0  0  0
  192.7750  175.6250  136.0570 C   0  0  0  0  0  2  0  0  0  0  0  0
  194.0950  176.3820  136.0710 C   0  0  0  0  0  2  0  0  0  0  0  0
  195.0600  175.6370  136.7520 O   0  0  0  0  0  0  0  0  0  0  0  0
  195.2970  174.5300  135.9330 C   0  0  0  0  0  2  0  0  0  0  0  0
  196.8670  172.8650  137.2190 C   0  0  2  0  0  3  0  0  0  0  0  0
  198.3010  172.5710  137.1810 N   0  0  0  0  0  0  0  0  0  0  0  0
  198.5370  171.5680  136.1530 C   0  0  0  0  0  1  0  0  0  0  0  0
  196.6820  173.9710  136.2030 C   0  0  2  0  0  0  0  0  0  0  0  0
  198.9290  173.8420  136.7360 C   0  0  0  0  0  2  0  0  0  0  0  0
  196.8380  174.3120  137.6360 C   0  0  2  0  0  3  0  0  0  0  0  0
  197.8070  174.8730  136.6320 C   0  0  2  0  0  3  0  0  0  0  0  0
  190.2350  176.7470  135.3110 C   0  0  0  0  0  2  0  0  0  0  0  0
  189.2010  175.6620  135.0940 C   0  0  0  0  0  2  0  0  0  0  0  0
  186.5380  175.1940  135.3530 O   0  0  0  0  0  1  0  0  0  0  0  0
  187.1800  177.6400  134.6720 O   0  0  0  0  0  0  0  0  0  0  0  0
  187.5680  176.2740  135.5910 P   0  0  2  0  0  0  0  0  0  0  0  0
  187.6030  176.6850  137.2630 O   0  0  0  0  0  0  0  0  0  0  0  0
  187.1370  177.9060  137.7610 C   0  0  0  0  0  0  0  0  0  0  0  0
  185.7100  178.1130  138.1480 C   0  0  0  0  0  1  0  0  0  0  0  0
  187.9430  178.8630  137.8880 O   0  0  0  0  0  0  0  0  0  0  0  0
  2  5  1  0  0  0  0
  3  4  1  0  0  0  0
  4  2  2  0  0  0  0
  5  1  1  0  0  0  0
  6  3  2  0  0  0  0
  6  8  1  0  0  0  0
  7  1  1  0  0  0  0
  8  7  2  0  0  0  0
 10  9  1  0  0  0  0
 10 14  1  6  0  0  0
 11  2  1  6  0  0  0
 11 13  1  0  0  0  0
 11 12  1  0  0  0  0
 12  9  1  0  0  0  0
 13 10  1  0  0  0  0
 15 14  1  1  0  0  0
 15 22  1  0  0  0  0
 16 20  1  0  0  0  0
 17 21  1  0  0  0  0
 17 16  1  0  0  0  0
 19 18  1  0  0  0  0
 20 18  1  0  0  0  0
 20 15  1  0  0  0  0
 21 19  1  0  0  0  0
 22 23  2  0  0  0  0
 22 24  1  0  0  0  0
 25  6  1  0  0  0  0
 26 27  2  0  0  0  0
 27 25  1  0  0  0  0
 28 29  1  0  0  0  0
 28 27  1  0  0  0  0
 29 30  1  0  0  0  0
 31 30  1  0  0  0  0
 32 33  1  6  0  0  0
 32 37  1  0  0  0  0
 34 33  1  0  0  0  0
 35 31  1  6  0  0  0
 35 38  1  0  0  0  0
 35 32  1  0  0  0  0
 35 37  1  0  0  0  0
 36 33  1  0  0  0  0
 38 36  1  0  0  0  0
 38 37  1  0  0  0  0
 39 26  1  0  0  0  0
 40 39  1  0  0  0  0
 40 43  1  0  0  0  0
 41 43  1  0  0  0  0
 42 43  2  0  0  0  0
 43 44  1  0  0  0  0
 44 45  1  0  0  0  0
 45 47  2  0  0  0  0
 45 46  1  0  0  0  0
M  END
>  <MODEL>
8

>  <REMARK>
 VINA RESULT:      -7.5      3.869      9.218
  Name = 
  16 active torsions:
  status: ('A' for Active; 'I' for Inactive)
    1  A    between atoms: C_4  and  C_33
    2  A    between atoms: C_5  and  O_21
    3  A    between atoms: C_6  and  C_23
    4  A    between atoms: C_9  and  C_22
    5  A    between atoms: C_9  and  C_33
    6  A    between atoms: N_12  and  C_18
    7  A    between atoms: C_13  and  C_36
    8  A    between atoms: C_13  and  C_40
    9  A    between atoms: O_21  and  P_42
   10  A    between atoms: C_28  and  C_33
   11  A    between atoms: C_32  and  C_35
   12  A    between atoms: C_32  and  O_46
   13  A    between atoms: C_36  and  O_46
   14  A    between atoms: N_39  and  C_41
   15  A    between atoms: C_41  and  C_45
   16  A    between atoms: P_42  and  C_45
                            x       y       z     vdW  Elec       q    Type
                         _______ _______ _______ _____ _____    ______ ____

>  <TORSDO>
F 16

$$$$
=
 OpenBabel10222420263D

 47 52  0  0  1  0  0  0  0  0999 V2000
  190.8150  176.2150  143.0630 C   0  0  0  0  0  2  0  0  0  0  0  0
  188.7980  177.3320  141.9880 C   0  0  0  0  0  0  0  0  0  0  0  0
  190.0030  177.2030  139.8340 C   0  0  0  0  0  3  0  0  0  0  0  0
  189.0370  177.8190  140.7630 C   0  0  0  0  0  3  0  0  0  0  0  0
  189.4340  176.0480  142.4250 C   0  0  0  0  0  2  0  0  0  0  0  0
  191.3070  177.0450  140.0940 C   0  0  0  0  0  0  0  0  0  0  0  0
  191.6790  177.3420  142.5600 C   0  0  0  0  0  3  0  0  0  0  0  0
  191.9270  177.6630  141.2860 C   0  0  0  0  0  3  0  0  0  0  0  0
  185.9360  177.5390  144.3200 C   0  0  0  0  0  2  0  0  0  0  0  0
  185.3940  178.1320  143.0310 C   0  0  2  0  0  3  0  0  0  0  0  0
  187.8240  177.9990  142.9120 C   0  0  2  0  0  3  0  0  0  0  0  0
  187.3350  177.0660  144.0030 C   0  0  0  0  0  2  0  0  0  0  0  0
  186.5920  178.4900  142.1700 C   0  0  0  0  0  2  0  0  0  0  0  0
  184.5840  179.3830  143.3260 C   0  0  0  0  0  2  0  0  0  0  0  0
  183.2640  179.3750  142.5550 C   0  0  1  0  0  3  0  0  0  0  0  0
  183.7330  179.0140  140.0940 C   0  0  0  0  0  2  0  0  0  0  0  0
  183.7450  178.0120  138.9240 C   0  0  0  0  0  2  0  0  0  0  0  0
  181.9430  177.6620  141.2310 C   0  0  0  0  0  2  0  0  0  0  0  0
  181.7910  177.0110  139.8490 C   0  0  0  0  0  2  0  0  0  0  0  0
  183.3040  178.3550  141.4090 C   0  0  0  0  0  3  0  0  0  0  0  0
  183.0990  176.7390  139.2590 N   0  0  0  0  0  2  0  0  0  0  0  0
  182.1340  179.0950  143.5020 C   0  0  0  0  0  0  0  0  0  0  0  0
  180.8610  179.5670  143.2110 O   0  0  0  0  0  0  0  0  0  0  0  0
  182.3310  178.4390  144.5610 O   0  0  0  0  0  1  0  0  0  0  0  0
  192.1090  176.4320  139.0770 N   0  0  0  0  0  2  0  0  0  0  0  0
  190.4800  175.0420  138.0410 N   0  0  0  0  0  0  0  0  0  0  0  0
  191.6920  175.5110  138.0580 C   0  0  0  0  0  0  0  0  0  0  0  0
  192.6890  175.1140  137.0140 C   0  0  0  0  0  2  0  0  0  0  0  0
  193.9800  174.6470  137.6700 C   0  0  0  0  0  2  0  0  0  0  0  0
  194.4960  173.5530  136.9740 O   0  0  0  0  0  0  0  0  0  0  0  0
  195.2860  174.1120  135.9660 C   0  0  0  0  0  2  0  0  0  0  0  0
  197.6060  175.2080  136.5210 C   0  0  2  0  0  3  0  0  0  0  0  0
  198.9280  174.6860  136.8760 N   0  0  0  0  0  0  0  0  0  0  0  0
  198.9770  174.5050  138.3200 C   0  0  0  0  0  1  0  0  0  0  0  0
  196.7550  173.9720  136.3190 C   0  0  2  0  0  0  0  0  0  0  0  0
  198.9790  173.3440  136.2420 C   0  0  0  0  0  2  0  0  0  0  0  0
  197.3810  174.6290  135.1480 C   0  0  2  0  0  3  0  0  0  0  0  0
  197.6890  173.1860  135.4400 C   0  0  2  0  0  3  0  0  0  0  0  0
  189.9980  174.1010  137.0410 C   0  0  0  0  0  2  0  0  0  0  0  0
  189.3940  174.8580  135.8770 C   0  0  0  0  0  2  0  0  0  0  0  0
  186.9720  173.9460  136.7040 O   0  0  0  0  0  1  0  0  0  0  0  0
  186.8980  175.7510  134.8090 O   0  0  0  0  0  0  0  0  0  0  0  0
  187.6500  175.2090  136.2240 P   0  0  2  0  0  0  0  0  0  0  0  0
  187.5470  176.4220  137.4410 O   0  0  0  0  0  0  0  0  0  0  0  0
  187.7910  177.7770  137.1950 C   0  0  0  0  0  0  0  0  0  0  0  0
  189.0090  178.2450  136.4690 C   0  0  0  0  0  1  0  0  0  0  0  0
  186.9600  178.6310  137.5970 O   0  0  0  0  0  0  0  0  0  0  0  0
  2  5  1  0  0  0  0
  3  6  2  0  0  0  0
  3  4  1  0  0  0  0
  4  2  2  0  0  0  0
  5  1  1  0  0  0  0
  6  8  1  0  0  0  0
  7  1  1  0  0  0  0
  8  7  2  0  0  0  0
 10 14  1  1  0  0  0
 10  9  1  0  0  0  0
 11  2  1  6  0  0  0
 11 12  1  0  0  0  0
 12  9  1  0  0  0  0
 13 11  1  0  0  0  0
 13 10  1  0  0  0  0
 15 14  1  1  0  0  0
 15 22  1  0  0  0  0
 16 20  1  0  0  0  0
 17 21  1  0  0  0  0
 17 16  1  0  0  0  0
 18 20  1  0  0  0  0
 19 18  1  0  0  0  0
 20 15  1  0  0  0  0
 21 19  1  0  0  0  0
 22 24  1  0  0  0  0
 23 22  2  0  0  0  0
 25  6  1  0  0  0  0
 26 27  2  0  0  0  0
 27 25  1  0  0  0  0
 28 29  1  0  0  0  0
 28 27  1  0  0  0  0
 30 29  1  0  0  0  0
 31 30  1  0  0  0  0
 32 33  1  1  0  0  0
 33 34  1  0  0  0  0
 35 31  1  1  0  0  0
 35 32  1  0  0  0  0
 36 33  1  0  0  0  0
 37 38  1  0  0  0  0
 37 35  1  0  0  0  0
 37 32  1  0  0  0  0
 38 36  1  0  0  0  0
 38 35  1  0  0  0  0
 39 26  1  0  0  0  0
 40 43  1  0  0  0  0
 40 39  1  0  0  0  0
 42 43  2  0  0  0  0
 43 41  1  0  0  0  0
 43 44  1  0  0  0  0
 45 44  1  0  0  0  0
 45 47  2  0  0  0  0
 46 45  1  0  0  0  0
M  END
>  <MODEL>
9

>  <REMARK>
 VINA RESULT:      -7.3      3.790      9.879
  Name = 
  16 active torsions:
  status: ('A' for Active; 'I' for Inactive)
    1  A    between atoms: C_4  and  C_33
    2  A    between atoms: C_5  and  O_21
    3  A    between atoms: C_6  and  C_23
    4  A    between atoms: C_9  and  C_22
    5  A    between atoms: C_9  and  C_33
    6  A    between atoms: N_12  and  C_18
    7  A    between atoms: C_13  and  C_36
    8  A    between atoms: C_13  and  C_40
    9  A    between atoms: O_21  and  P_42
   10  A    between atoms: C_28  and  C_33
   11  A    between atoms: C_32  and  C_35
   12  A    between atoms: C_32  and  O_46
   13  A    between atoms: C_36  and  O_46
   14  A    between atoms: N_39  and  C_41
   15  A    between atoms: C_41  and  C_45
   16  A    between atoms: P_42  and  C_45
                            x       y       z     vdW  Elec       q    Type
                         _______ _______ _______ _____ _____    ______ ____

>  <TORSDO>
F 16

$$$$
