=
 OpenBabel10222418233D

 34 37  0  0  1  0  0  0  0  0999 V2000
  188.7770  176.4740  142.2180 C   0  0  1  0  0  3  0  0  0  0  0  0
  187.9140  178.5050  139.4480 N   0  0  0  0  0  0  0  0  0  0  0  0
  187.1670  178.9240  140.4630 N   0  0  0  0  0  0  0  0  0  0  0  0
  187.6090  176.7660  143.1430 C   0  0  0  0  0  3  0  0  0  0  0  0
  187.0090  177.8900  142.7450 C   0  0  0  0  0  0  0  0  0  0  0  0
  187.7050  178.3770  141.5700 C   0  0  0  0  0  0  0  0  0  0  0  0
  188.8410  177.6640  139.9570 C   0  0  0  0  0  0  0  0  0  0  0  0
  188.7420  177.6030  141.2960 N   0  0  0  0  0  0  0  0  0  0  0  0
  191.2400  176.8000  139.3020 C   0  0  0  0  0  2  0  0  0  0  0  0
  193.2870  174.5600  136.8360 C   0  0  0  0  0  0  0  0  0  0  0  0
  189.7580  176.8480  139.1430 C   0  0  0  0  0  0  0  0  0  0  0  0
  190.5380  175.4420  137.5370 N   0  0  0  0  0  0  0  0  0  0  0  0
  192.9130  175.4550  137.8880 N   0  0  0  0  0  2  0  0  0  0  0  0
  194.7250  174.2650  136.6060 C   0  0  0  0  0  1  0  0  0  0  0  0
  191.5720  175.8520  138.1970 C   0  0  0  0  0  0  0  0  0  0  0  0
  189.4140  176.0660  138.1320 C   0  0  0  0  0  0  0  0  0  0  0  0
  188.1440  175.8770  137.6930 F   0  0  0  0  0  0  0  0  0  0  0  0
  192.4200  174.0300  136.0910 O   0  0  0  0  0  0  0  0  0  0  0  0
  185.8120  178.4050  143.3370 N   0  0  0  0  0  2  0  0  0  0  0  0
  183.3780  178.7030  143.5750 N   0  0  0  0  0  1  0  0  0  0  0  0
  184.4920  178.2710  142.8030 C   0  0  0  0  0  0  0  0  0  0  0  0
  184.3020  177.8070  141.6470 O   0  0  0  0  0  0  0  0  0  0  0  0
  190.1060  176.4150  142.9730 C   0  0  0  0  0  2  0  0  0  0  0  0
  190.7790  177.7730  143.0930 C   0  0  0  0  0  2  0  0  0  0  0  0
  190.7610  178.2190  144.5400 C   0  0  0  0  0  2  0  0  0  0  0  0
  190.2430  177.0860  145.4030 C   0  0  0  0  0  2  0  0  0  0  0  0
  190.2870  177.4680  146.8140 N   0  0  0  0  0  0  0  0  0  0  0  0
  188.8220  178.1470  148.7410 C   0  0  0  0  0  1  0  0  0  0  0  0
  188.9320  177.4390  147.3930 C   0  0  1  0  0  3  0  0  0  0  0  0
  186.7140  177.1100  146.4220 N   0  0  0  0  0  2  0  0  0  0  0  0
  187.9010  177.9800  146.4110 C   0  0  1  0  0  3  0  0  0  0  0  0
  186.7030  178.4000  147.1290 C   0  0  0  0  0  2  0  0  0  0  0  0
  191.2730  176.6850  147.5830 C   0  0  0  0  0  2  0  0  0  0  0  0
  192.0740  175.6920  146.7390 C   0  0  0  0  0  1  0  0  0  0  0  0
  1 23  1  1  0  0  0
  1  4  1  0  0  0  0
  2  7  2  0  0  0  0
  2  3  1  0  0  0  0
  3  6  2  0  0  0  0
  5  4  2  0  0  0  0
  5 19  1  0  0  0  0
  6  5  1  0  0  0  0
  7  8  1  0  0  0  0
  8  6  1  0  0  0  0
  8  1  1  0  0  0  0
 10 13  1  0  0  0  0
 11  9  1  0  0  0  0
 11  7  1  0  0  0  0
 12 16  1  0  0  0  0
 12 15  2  0  0  0  0
 13 15  1  0  0  0  0
 14 10  1  0  0  0  0
 15  9  1  0  0  0  0
 16 11  2  0  0  0  0
 17 16  1  0  0  0  0
 18 10  2  0  0  0  0
 21 19  1  0  0  0  0
 21 20  1  0  0  0  0
 22 21  2  0  0  0  0
 23 24  1  0  0  0  0
 24 25  1  0  0  0  0
 25 26  1  0  0  0  0
 26 27  1  0  0  0  0
 27 29  1  0  0  0  0
 27 33  1  0  0  0  0
 29 28  1  1  0  0  0
 30 32  1  0  0  0  0
 31 30  1  0  0  0  0
 31 32  1  0  0  0  0
 31 29  1  1  0  0  0
 34 33  1  0  0  0  0
M  END
>  <MODEL>
1

>  <REMARK>
 VINA RESULT:      -8.0      0.000      0.000
  Name = 
  10 active torsions:
  status: ('A' for Active; 'I' for Inactive)
    1  A    between atoms: C_1  and  C_2
    2  A    between atoms: C_1  and  C_24
    3  A    between atoms: C_6  and  C_11
    4  A    between atoms: C_6  and  N_15
    5  A    between atoms: N_8  and  C_17
    6  A    between atoms: C_9  and  C_31
    7  A    between atoms: C_11  and  C_24
    8  A    between atoms: N_15  and  C_16
    9  A    between atoms: N_15  and  C_30
   10  A    between atoms: C_27  and  C_30
                            x       y       z     vdW  Elec       q    Type
                         _______ _______ _______ _____ _____    ______ ____

>  <TORSDO>
F 10

$$$$
=
 OpenBabel10222418233D

 34 37  0  0  1  0  0  0  0  0999 V2000
  189.9280  177.0900  140.9650 C   0  0  1  0  0  3  0  0  0  0  0  0
  189.5440  177.8740  137.5330 N   0  0  0  0  0  0  0  0  0  0  0  0
  188.6210  178.5770  138.1810 N   0  0  0  0  0  0  0  0  0  0  0  0
  188.6090  177.6070  141.5110 C   0  0  0  0  0  3  0  0  0  0  0  0
  188.0730  178.4510  140.6270 C   0  0  0  0  0  0  0  0  0  0  0  0
  188.9600  178.5240  139.4830 C   0  0  0  0  0  0  0  0  0  0  0  0
  190.3770  177.3590  138.4640 C   0  0  0  0  0  0  0  0  0  0  0  0
  190.0410  177.7910  139.6920 N   0  0  0  0  0  0  0  0  0  0  0  0
  192.9020  176.6350  138.2860 C   0  0  0  0  0  2  0  0  0  0  0  0
  195.3580  173.7490  137.3190 C   0  0  0  0  0  0  0  0  0  0  0  0
  191.4370  176.3780  138.1770 C   0  0  0  0  0  0  0  0  0  0  0  0
  192.4820  174.4630  137.5400 N   0  0  0  0  0  0  0  0  0  0  0  0
  194.8120  175.0020  137.7470 N   0  0  0  0  0  2  0  0  0  0  0  0
  196.8320  173.5880  137.2320 C   0  0  0  0  0  1  0  0  0  0  0  0
  193.4160  175.3050  137.8430 C   0  0  0  0  0  0  0  0  0  0  0  0
  191.2540  175.1380  137.7500 C   0  0  0  0  0  0  0  0  0  0  0  0
  190.0460  174.5650  137.5230 F   0  0  0  0  0  0  0  0  0  0  0  0
  194.6090  172.7870  137.0010 O   0  0  0  0  0  0  0  0  0  0  0  0
  186.7820  179.0500  140.7810 N   0  0  0  0  0  2  0  0  0  0  0  0
  184.3710  179.3180  140.3520 N   0  0  0  0  0  1  0  0  0  0  0  0
  185.6270  178.7570  139.9890 C   0  0  0  0  0  0  0  0  0  0  0  0
  185.7100  178.0370  138.9590 O   0  0  0  0  0  0  0  0  0  0  0  0
  191.1010  177.4210  141.8890 C   0  0  0  0  0  2  0  0  0  0  0  0
  190.6700  178.1460  143.1540 C   0  0  0  0  0  2  0  0  0  0  0  0
  191.5420  177.7030  144.3100 C   0  0  0  0  0  2  0  0  0  0  0  0
  190.7860  176.6850  145.1410 C   0  0  0  0  0  2  0  0  0  0  0  0
  190.2980  177.3040  146.3730 N   0  0  0  0  0  0  0  0  0  0  0  0
  188.3820  177.1220  147.9900 C   0  0  0  0  0  1  0  0  0  0  0  0
  188.8580  177.0370  146.5420 C   0  0  1  0  0  3  0  0  0  0  0  0
  187.2040  177.1010  144.7460 N   0  0  0  0  0  2  0  0  0  0  0  0
  188.0210  177.9350  145.6410 C   0  0  1  0  0  3  0  0  0  0  0  0
  186.6030  177.7420  145.9260 C   0  0  0  0  0  2  0  0  0  0  0  0
  191.1080  176.9390  147.5510 C   0  0  0  0  0  2  0  0  0  0  0  0
  192.0290  175.7390  147.3250 C   0  0  0  0  0  1  0  0  0  0  0  0
  1  4  1  0  0  0  0
  1 23  1  1  0  0  0
  2  3  1  0  0  0  0
  2  7  2  0  0  0  0
  3  6  2  0  0  0  0
  5 19  1  0  0  0  0
  5  4  2  0  0  0  0
  6  8  1  0  0  0  0
  6  5  1  0  0  0  0
  7  8  1  0  0  0  0
  8  1  1  0  0  0  0
 10 13  1  0  0  0  0
 11  9  1  0  0  0  0
 11  7  1  0  0  0  0
 12 16  1  0  0  0  0
 12 15  2  0  0  0  0
 13 15  1  0  0  0  0
 14 10  1  0  0  0  0
 15  9  1  0  0  0  0
 16 11  2  0  0  0  0
 17 16  1  0  0  0  0
 18 10  2  0  0  0  0
 21 20  1  0  0  0  0
 21 19  1  0  0  0  0
 22 21  2  0  0  0  0
 23 24  1  0  0  0  0
 24 25  1  0  0  0  0
 25 26  1  0  0  0  0
 26 27  1  0  0  0  0
 27 29  1  0  0  0  0
 27 33  1  0  0  0  0
 29 28  1  1  0  0  0
 30 31  1  0  0  0  0
 30 32  1  0  0  0  0
 31 32  1  0  0  0  0
 31 29  1  1  0  0  0
 34 33  1  0  0  0  0
M  END
>  <MODEL>
2

>  <REMARK>
 VINA RESULT:      -8.0      1.677      2.046
  Name = 
  10 active torsions:
  status: ('A' for Active; 'I' for Inactive)
    1  A    between atoms: C_1  and  C_2
    2  A    between atoms: C_1  and  C_24
    3  A    between atoms: C_6  and  C_11
    4  A    between atoms: C_6  and  N_15
    5  A    between atoms: N_8  and  C_17
    6  A    between atoms: C_9  and  C_31
    7  A    between atoms: C_11  and  C_24
    8  A    between atoms: N_15  and  C_16
    9  A    between atoms: N_15  and  C_30
   10  A    between atoms: C_27  and  C_30
                            x       y       z     vdW  Elec       q    Type
                         _______ _______ _______ _____ _____    ______ ____

>  <TORSDO>
F 10

$$$$
=
 OpenBabel10222418233D

 34 37  0  0  1  0  0  0  0  0999 V2000
  188.9020  177.2540  144.2800 C   0  0  1  0  0  3  0  0  0  0  0  0
  186.6680  178.1810  146.8670 N   0  0  0  0  0  0  0  0  0  0  0  0
  187.8420  177.9610  147.4500 N   0  0  0  0  0  0  0  0  0  0  0  0
  190.0320  176.6550  145.0990 C   0  0  0  0  0  3  0  0  0  0  0  0
  189.9210  177.0690  146.3630 C   0  0  0  0  0  0  0  0  0  0  0  0
  188.7480  177.9160  146.4550 C   0  0  0  0  0  0  0  0  0  0  0  0
  186.8840  178.1950  145.5330 C   0  0  0  0  0  0  0  0  0  0  0  0
  188.1940  178.0650  145.2630 N   0  0  0  0  0  0  0  0  0  0  0  0
  186.0070  178.0400  143.0550 C   0  0  0  0  0  2  0  0  0  0  0  0
  182.8820  178.3500  140.7270 C   0  0  0  0  0  0  0  0  0  0  0  0
  185.8150  178.2390  144.5210 C   0  0  0  0  0  0  0  0  0  0  0  0
  183.7720  178.4920  143.5570 N   0  0  0  0  0  0  0  0  0  0  0  0
  184.2120  178.1620  141.2210 N   0  0  0  0  0  2  0  0  0  0  0  0
  182.6310  178.2820  139.2640 C   0  0  0  0  0  1  0  0  0  0  0  0
  184.6000  178.2350  142.5970 C   0  0  0  0  0  0  0  0  0  0  0  0
  184.5360  178.4930  144.7510 C   0  0  0  0  0  0  0  0  0  0  0  0
  184.0000  178.7380  145.9720 F   0  0  0  0  0  0  0  0  0  0  0  0
  181.9230  178.5870  141.5090 O   0  0  0  0  0  0  0  0  0  0  0  0
  190.7670  176.6180  147.4250 N   0  0  0  0  0  2  0  0  0  0  0  0
  192.8070  175.6440  148.4060 N   0  0  0  0  0  1  0  0  0  0  0  0
  191.9920  175.8950  147.2670 C   0  0  0  0  0  0  0  0  0  0  0  0
  192.3440  175.4510  146.1430 O   0  0  0  0  0  0  0  0  0  0  0  0
  189.4220  178.1090  143.1240 C   0  0  0  0  0  2  0  0  0  0  0  0
  190.9410  178.1610  143.0640 C   0  0  0  0  0  2  0  0  0  0  0  0
  191.4230  177.4100  141.8400 C   0  0  0  0  0  2  0  0  0  0  0  0
  190.2430  177.1300  140.9310 C   0  0  0  0  0  2  0  0  0  0  0  0
  190.5680  177.5040  139.5550 N   0  0  0  0  0  0  0  0  0  0  0  0
  190.0980  175.6160  137.9630 C   0  0  0  0  0  1  0  0  0  0  0  0
  191.1210  176.3470  138.8290 C   0  0  1  0  0  3  0  0  0  0  0  0
  193.5570  176.5300  138.8130 N   0  0  0  0  0  2  0  0  0  0  0  0
  192.3420  176.7420  138.0100 C   0  0  1  0  0  3  0  0  0  0  0  0
  193.1760  175.5710  137.7640 C   0  0  0  0  0  2  0  0  0  0  0  0
  189.4370  178.1510  138.8610 C   0  0  0  0  0  2  0  0  0  0  0  0
  188.1580  178.2320  139.6960 C   0  0  0  0  0  1  0  0  0  0  0  0
  1 23  1  6  0  0  0
  1  4  1  0  0  0  0
  1  8  1  0  0  0  0
  2  3  1  0  0  0  0
  4  5  2  0  0  0  0
  5  6  1  0  0  0  0
  5 19  1  0  0  0  0
  6  3  2  0  0  0  0
  7  2  2  0  0  0  0
  8  7  1  0  0  0  0
  8  6  1  0  0  0  0
  9 11  1  0  0  0  0
 10 13  1  0  0  0  0
 10 18  2  0  0  0  0
 11 16  2  0  0  0  0
 11  7  1  0  0  0  0
 12 16  1  0  0  0  0
 13 15  1  0  0  0  0
 14 10  1  0  0  0  0
 15  9  1  0  0  0  0
 15 12  2  0  0  0  0
 16 17  1  0  0  0  0
 21 19  1  0  0  0  0
 21 20  1  0  0  0  0
 22 21  2  0  0  0  0
 24 23  1  0  0  0  0
 25 24  1  0  0  0  0
 26 25  1  0  0  0  0
 27 26  1  0  0  0  0
 29 28  1  6  0  0  0
 29 27  1  0  0  0  0
 31 30  1  0  0  0  0
 31 29  1  1  0  0  0
 32 31  1  0  0  0  0
 32 30  1  0  0  0  0
 33 27  1  0  0  0  0
 33 34  1  0  0  0  0
M  END
>  <MODEL>
3

>  <REMARK>
 VINA RESULT:      -7.9      2.905      8.257
  Name = 
  10 active torsions:
  status: ('A' for Active; 'I' for Inactive)
    1  A    between atoms: C_1  and  C_2
    2  A    between atoms: C_1  and  C_24
    3  A    between atoms: C_6  and  C_11
    4  A    between atoms: C_6  and  N_15
    5  A    between atoms: N_8  and  C_17
    6  A    between atoms: C_9  and  C_31
    7  A    between atoms: C_11  and  C_24
    8  A    between atoms: N_15  and  C_16
    9  A    between atoms: N_15  and  C_30
   10  A    between atoms: C_27  and  C_30
                            x       y       z     vdW  Elec       q    Type
                         _______ _______ _______ _____ _____    ______ ____

>  <TORSDO>
F 10

$$$$
=
 OpenBabel10222418233D

 34 37  0  0  1  0  0  0  0  0999 V2000
  190.2480  176.9650  140.7220 C   0  0  1  0  0  3  0  0  0  0  0  0
  189.8890  177.4080  137.2260 N   0  0  0  0  0  0  0  0  0  0  0  0
  188.9150  178.1130  137.7930 N   0  0  0  0  0  0  0  0  0  0  0  0
  188.8910  177.4530  141.1980 C   0  0  0  0  0  3  0  0  0  0  0  0
  188.3260  178.1800  140.2320 C   0  0  0  0  0  0  0  0  0  0  0  0
  189.2300  178.1990  139.0990 C   0  0  0  0  0  0  0  0  0  0  0  0
  190.7310  177.0300  138.2130 C   0  0  0  0  0  0  0  0  0  0  0  0
  190.3470  177.5520  139.3910 N   0  0  0  0  0  0  0  0  0  0  0  0
  193.2940  176.4280  138.1910 C   0  0  0  0  0  2  0  0  0  0  0  0
  195.9300  173.6210  137.5120 C   0  0  0  0  0  0  0  0  0  0  0  0
  191.8500  176.0900  138.0340 C   0  0  0  0  0  0  0  0  0  0  0  0
  193.0160  174.1970  137.5620 N   0  0  0  0  0  0  0  0  0  0  0  0
  195.3040  174.8670  137.8380 N   0  0  0  0  0  2  0  0  0  0  0  0
  197.4130  173.5320  137.5000 C   0  0  0  0  0  1  0  0  0  0  0  0
  193.8920  175.1020  137.8540 C   0  0  0  0  0  0  0  0  0  0  0  0
  191.7480  174.8190  137.6760 C   0  0  0  0  0  0  0  0  0  0  0  0
  190.5810  174.1720  137.4330 F   0  0  0  0  0  0  0  0  0  0  0  0
  195.2460  172.6040  137.2220 O   0  0  0  0  0  0  0  0  0  0  0  0
  187.0010  178.7140  140.3100 N   0  0  0  0  0  2  0  0  0  0  0  0
  184.9260  179.4050  141.4450 N   0  0  0  0  0  1  0  0  0  0  0  0
  186.1630  178.7020  141.4690 C   0  0  0  0  0  0  0  0  0  0  0  0
  186.4860  178.0520  142.4980 O   0  0  0  0  0  0  0  0  0  0  0  0
  191.3810  177.4470  141.6280 C   0  0  0  0  0  2  0  0  0  0  0  0
  190.8800  178.1890  142.8570 C   0  0  0  0  0  2  0  0  0  0  0  0
  191.6870  177.7640  144.0660 C   0  0  0  0  0  2  0  0  0  0  0  0
  190.8860  176.7630  144.8720 C   0  0  0  0  0  2  0  0  0  0  0  0
  190.6430  177.2800  146.2180 N   0  0  0  0  0  0  0  0  0  0  0  0
  188.3320  177.2070  145.2310 C   0  0  0  0  0  1  0  0  0  0  0  0
  189.2370  177.7000  146.3570 C   0  0  1  0  0  3  0  0  0  0  0  0
  188.5670  178.5030  148.5650 N   0  0  0  0  0  2  0  0  0  0  0  0
  188.6750  177.3060  147.7170 C   0  0  1  0  0  3  0  0  0  0  0  0
  187.3740  177.9350  147.9190 C   0  0  0  0  0  2  0  0  0  0  0  0
  191.0860  176.3470  147.2730 C   0  0  0  0  0  2  0  0  0  0  0  0
  192.3530  175.5660  146.9200 C   0  0  0  0  0  1  0  0  0  0  0  0
  1  4  1  0  0  0  0
  1 23  1  1  0  0  0
  2  3  1  0  0  0  0
  2  7  2  0  0  0  0
  3  6  2  0  0  0  0
  5 19  1  0  0  0  0
  5  4  2  0  0  0  0
  6  8  1  0  0  0  0
  6  5  1  0  0  0  0
  7  8  1  0  0  0  0
  8  1  1  0  0  0  0
 10 13  1  0  0  0  0
 11  9  1  0  0  0  0
 11  7  1  0  0  0  0
 12 16  1  0  0  0  0
 12 15  2  0  0  0  0
 13 15  1  0  0  0  0
 14 10  1  0  0  0  0
 15  9  1  0  0  0  0
 16 11  2  0  0  0  0
 17 16  1  0  0  0  0
 18 10  2  0  0  0  0
 19 21  1  0  0  0  0
 20 21  1  0  0  0  0
 21 22  2  0  0  0  0
 23 24  1  0  0  0  0
 24 25  1  0  0  0  0
 25 26  1  0  0  0  0
 26 27  1  0  0  0  0
 27 29  1  0  0  0  0
 27 33  1  0  0  0  0
 29 28  1  6  0  0  0
 31 29  1  6  0  0  0
 31 32  1  0  0  0  0
 31 30  1  0  0  0  0
 32 30  1  0  0  0  0
 34 33  1  0  0  0  0
M  END
>  <MODEL>
4

>  <REMARK>
 VINA RESULT:      -7.9      1.731      2.437
  Name = 
  10 active torsions:
  status: ('A' for Active; 'I' for Inactive)
    1  A    between atoms: C_1  and  C_2
    2  A    between atoms: C_1  and  C_24
    3  A    between atoms: C_6  and  C_11
    4  A    between atoms: C_6  and  N_15
    5  A    between atoms: N_8  and  C_17
    6  A    between atoms: C_9  and  C_31
    7  A    between atoms: C_11  and  C_24
    8  A    between atoms: N_15  and  C_16
    9  A    between atoms: N_15  and  C_30
   10  A    between atoms: C_27  and  C_30
                            x       y       z     vdW  Elec       q    Type
                         _______ _______ _______ _____ _____    ______ ____

>  <TORSDO>
F 10

$$$$
=
 OpenBabel10222418233D

 34 37  0  0  1  0  0  0  0  0999 V2000
  188.0100  177.1970  143.7480 C   0  0  1  0  0  3  0  0  0  0  0  0
  185.9640  178.5300  146.3130 N   0  0  0  0  0  0  0  0  0  0  0  0
  187.1360  178.2590  146.8760 N   0  0  0  0  0  0  0  0  0  0  0  0
  189.1160  176.5730  144.5800 C   0  0  0  0  0  3  0  0  0  0  0  0
  189.0890  177.1000  145.8060 C   0  0  0  0  0  0  0  0  0  0  0  0
  187.9960  178.0510  145.8600 C   0  0  0  0  0  0  0  0  0  0  0  0
  186.1280  178.4130  144.9770 C   0  0  0  0  0  0  0  0  0  0  0  0
  187.4110  178.1470  144.6780 N   0  0  0  0  0  0  0  0  0  0  0  0
  185.1720  178.2530  142.5290 C   0  0  0  0  0  2  0  0  0  0  0  0
  181.9790  178.5900  140.2970 C   0  0  0  0  0  0  0  0  0  0  0  0
  185.0290  178.4650  143.9980 C   0  0  0  0  0  0  0  0  0  0  0  0
  182.9600  178.7410  143.0970 N   0  0  0  0  0  0  0  0  0  0  0  0
  183.3210  178.3870  140.7510 N   0  0  0  0  0  2  0  0  0  0  0  0
  181.6810  178.5150  138.8430 C   0  0  0  0  0  1  0  0  0  0  0  0
  183.7530  178.4640  142.1130 C   0  0  0  0  0  0  0  0  0  0  0  0
  183.7610  178.7400  144.2660 C   0  0  0  0  0  0  0  0  0  0  0  0
  183.2680  179.0020  145.5010 F   0  0  0  0  0  0  0  0  0  0  0  0
  181.0490  178.8470  141.1070 O   0  0  0  0  0  0  0  0  0  0  0  0
  189.9350  176.6680  146.8770 N   0  0  0  0  0  2  0  0  0  0  0  0
  192.0630  176.4250  148.0930 N   0  0  0  0  0  1  0  0  0  0  0  0
  191.3630  176.7540  146.8990 C   0  0  0  0  0  0  0  0  0  0  0  0
  192.0100  177.0850  145.8710 O   0  0  0  0  0  0  0  0  0  0  0  0
  188.5560  177.9040  142.5060 C   0  0  0  0  0  2  0  0  0  0  0  0
  190.0750  177.9090  142.4480 C   0  0  0  0  0  2  0  0  0  0  0  0
  190.5350  177.1640  141.2130 C   0  0  0  0  0  2  0  0  0  0  0  0
  189.4870  177.3030  140.1280 C   0  0  0  0  0  2  0  0  0  0  0  0
  189.9220  176.6120  138.9150 N   0  0  0  0  0  0  0  0  0  0  0  0
  188.2050  175.9070  137.2200 C   0  0  0  0  0  1  0  0  0  0  0  0
  189.0920  177.0210  137.7690 C   0  0  1  0  0  3  0  0  0  0  0  0
  188.6850  179.3690  137.2280 N   0  0  0  0  0  2  0  0  0  0  0  0
  188.2670  178.2590  138.0980 C   0  0  1  0  0  3  0  0  0  0  0  0
  187.4440  178.6280  136.9520 C   0  0  0  0  0  2  0  0  0  0  0  0
  191.3710  176.7490  138.6730 C   0  0  0  0  0  2  0  0  0  0  0  0
  191.9190  175.7900  137.6150 C   0  0  0  0  0  1  0  0  0  0  0  0
  1 23  1  6  0  0  0
  1  4  1  0  0  0  0
  1  8  1  0  0  0  0
  2  3  1  0  0  0  0
  4  5  2  0  0  0  0
  5  6  1  0  0  0  0
  5 19  1  0  0  0  0
  6  3  2  0  0  0  0
  7  2  2  0  0  0  0
  8  7  1  0  0  0  0
  8  6  1  0  0  0  0
  9 11  1  0  0  0  0
 10 13  1  0  0  0  0
 10 18  2  0  0  0  0
 11 16  2  0  0  0  0
 11  7  1  0  0  0  0
 12 16  1  0  0  0  0
 13 15  1  0  0  0  0
 14 10  1  0  0  0  0
 15  9  1  0  0  0  0
 15 12  2  0  0  0  0
 16 17  1  0  0  0  0
 19 21  1  0  0  0  0
 21 20  1  0  0  0  0
 22 21  2  0  0  0  0
 24 23  1  0  0  0  0
 25 24  1  0  0  0  0
 26 25  1  0  0  0  0
 27 26  1  0  0  0  0
 29 28  1  1  0  0  0
 29 27  1  0  0  0  0
 30 31  1  0  0  0  0
 31 29  1  6  0  0  0
 32 30  1  0  0  0  0
 32 31  1  0  0  0  0
 33 27  1  0  0  0  0
 34 33  1  0  0  0  0
M  END
>  <MODEL>
5

>  <REMARK>
 VINA RESULT:      -7.7      3.045      8.252
  Name = 
  10 active torsions:
  status: ('A' for Active; 'I' for Inactive)
    1  A    between atoms: C_1  and  C_2
    2  A    between atoms: C_1  and  C_24
    3  A    between atoms: C_6  and  C_11
    4  A    between atoms: C_6  and  N_15
    5  A    between atoms: N_8  and  C_17
    6  A    between atoms: C_9  and  C_31
    7  A    between atoms: C_11  and  C_24
    8  A    between atoms: N_15  and  C_16
    9  A    between atoms: N_15  and  C_30
   10  A    between atoms: C_27  and  C_30
                            x       y       z     vdW  Elec       q    Type
                         _______ _______ _______ _____ _____    ______ ____

>  <TORSDO>
F 10

$$$$
=
 OpenBabel10222418233D

 34 37  0  0  1  0  0  0  0  0999 V2000
  188.7660  177.4990  140.9030 C   0  0  1  0  0  3  0  0  0  0  0  0
  192.2450  177.0770  140.3870 N   0  0  0  0  0  0  0  0  0  0  0  0
  191.6970  177.1610  139.1800 N   0  0  0  0  0  0  0  0  0  0  0  0
  188.2450  177.1730  139.5150 C   0  0  0  0  0  3  0  0  0  0  0  0
  189.2470  177.2650  138.6400 C   0  0  0  0  0  0  0  0  0  0  0  0
  190.4480  177.6250  139.3700 C   0  0  0  0  0  0  0  0  0  0  0  0
  191.2930  177.4270  141.2800 C   0  0  0  0  0  0  0  0  0  0  0  0
  190.1690  177.8090  140.6500 N   0  0  0  0  0  0  0  0  0  0  0  0
  191.8080  176.0550  143.4680 C   0  0  0  0  0  2  0  0  0  0  0  0
  191.9790  176.1770  147.3720 C   0  0  0  0  0  0  0  0  0  0  0  0
  191.4390  177.3040  142.7410 C   0  0  0  0  0  0  0  0  0  0  0  0
  191.4310  177.8150  144.9550 N   0  0  0  0  0  0  0  0  0  0  0  0
  192.0240  175.7420  146.0090 N   0  0  0  0  0  2  0  0  0  0  0  0
  192.2440  175.1990  148.4590 C   0  0  0  0  0  1  0  0  0  0  0  0
  191.7560  176.5660  144.8700 C   0  0  0  0  0  0  0  0  0  0  0  0
  191.2350  178.2670  143.6260 C   0  0  0  0  0  0  0  0  0  0  0  0
  190.8720  179.5370  143.3230 F   0  0  0  0  0  0  0  0  0  0  0  0
  191.7030  177.3710  147.6670 O   0  0  0  0  0  0  0  0  0  0  0  0
  189.1280  176.9290  137.2540 N   0  0  0  0  0  2  0  0  0  0  0  0
  189.0730  175.4150  135.3120 N   0  0  0  0  0  1  0  0  0  0  0  0
  189.3790  175.6420  136.6820 C   0  0  0  0  0  0  0  0  0  0  0  0
  189.8960  174.7180  137.3640 O   0  0  0  0  0  0  0  0  0  0  0  0
  188.0370  178.6920  141.5250 C   0  0  0  0  0  2  0  0  0  0  0  0
  186.5390  178.6660  141.2690 C   0  0  0  0  0  2  0  0  0  0  0  0
  185.8390  178.0060  142.4380 C   0  0  0  0  0  2  0  0  0  0  0  0
  185.3060  179.0770  143.3690 C   0  0  0  0  0  2  0  0  0  0  0  0
  184.9530  178.4910  144.6610 N   0  0  0  0  0  0  0  0  0  0  0  0
  185.6770  179.2300  146.9520 C   0  0  0  0  0  1  0  0  0  0  0  0
  186.0750  178.6280  145.6070 C   0  0  1  0  0  3  0  0  0  0  0  0
  188.1170  177.3690  145.1450 N   0  0  0  0  0  2  0  0  0  0  0  0
  186.8000  177.3030  145.7990 C   0  0  1  0  0  3  0  0  0  0  0  0
  187.9990  177.5040  146.6050 C   0  0  0  0  0  2  0  0  0  0  0  0
  183.6730  179.0040  145.1860 C   0  0  0  0  0  2  0  0  0  0  0  0
  182.4880  178.8060  144.2400 C   0  0  0  0  0  1  0  0  0  0  0  0
  1 23  1  6  0  0  0
  2  7  2  0  0  0  0
  3  6  2  0  0  0  0
  3  2  1  0  0  0  0
  4  1  1  0  0  0  0
  5  6  1  0  0  0  0
  5  4  2  0  0  0  0
  6  8  1  0  0  0  0
  7 11  1  0  0  0  0
  8  1  1  0  0  0  0
  8  7  1  0  0  0  0
  9 15  1  0  0  0  0
 10 18  2  0  0  0  0
 10 14  1  0  0  0  0
 11  9  1  0  0  0  0
 11 16  2  0  0  0  0
 13 10  1  0  0  0  0
 15 12  2  0  0  0  0
 15 13  1  0  0  0  0
 16 12  1  0  0  0  0
 17 16  1  0  0  0  0
 19  5  1  0  0  0  0
 20 21  1  0  0  0  0
 21 19  1  0  0  0  0
 21 22  2  0  0  0  0
 24 23  1  0  0  0  0
 24 25  1  0  0  0  0
 25 26  1  0  0  0  0
 26 27  1  0  0  0  0
 27 33  1  0  0  0  0
 27 29  1  0  0  0  0
 29 28  1  1  0  0  0
 30 31  1  0  0  0  0
 30 32  1  0  0  0  0
 31 29  1  6  0  0  0
 31 32  1  0  0  0  0
 34 33  1  0  0  0  0
M  END
>  <MODEL>
6

>  <REMARK>
 VINA RESULT:      -7.7      2.720      6.522
  Name = 
  10 active torsions:
  status: ('A' for Active; 'I' for Inactive)
    1  A    between atoms: C_1  and  C_2
    2  A    between atoms: C_1  and  C_24
    3  A    between atoms: C_6  and  C_11
    4  A    between atoms: C_6  and  N_15
    5  A    between atoms: N_8  and  C_17
    6  A    between atoms: C_9  and  C_31
    7  A    between atoms: C_11  and  C_24
    8  A    between atoms: N_15  and  C_16
    9  A    between atoms: N_15  and  C_30
   10  A    between atoms: C_27  and  C_30
                            x       y       z     vdW  Elec       q    Type
                         _______ _______ _______ _____ _____    ______ ____

>  <TORSDO>
F 10

$$$$
=
 OpenBabel10222418233D

 34 37  0  0  1  0  0  0  0  0999 V2000
  191.7320  177.5060  140.4300 C   0  0  1  0  0  3  0  0  0  0  0  0
  189.7980  176.4410  137.6600 N   0  0  0  0  0  0  0  0  0  0  0  0
  191.0470  176.0610  137.4100 N   0  0  0  0  0  0  0  0  0  0  0  0
  193.1290  177.3880  139.8460 C   0  0  0  0  0  3  0  0  0  0  0  0
  193.0870  176.6010  138.7700 C   0  0  0  0  0  0  0  0  0  0  0  0
  191.7120  176.1830  138.5740 C   0  0  0  0  0  0  0  0  0  0  0  0
  189.7570  176.8450  138.9490 C   0  0  0  0  0  0  0  0  0  0  0  0
  190.9460  176.6540  139.5450 N   0  0  0  0  0  0  0  0  0  0  0  0
  188.3100  177.5330  141.0380 C   0  0  0  0  0  2  0  0  0  0  0  0
  185.0430  179.3150  142.2400 C   0  0  0  0  0  0  0  0  0  0  0  0
  188.5970  177.5020  139.5750 C   0  0  0  0  0  0  0  0  0  0  0  0
  186.6390  178.6270  139.8300 N   0  0  0  0  0  0  0  0  0  0  0  0
  186.2830  178.6000  142.2030 N   0  0  0  0  0  2  0  0  0  0  0  0
  184.3640  179.5310  143.5430 C   0  0  0  0  0  1  0  0  0  0  0  0
  187.0240  178.2920  141.0180 C   0  0  0  0  0  0  0  0  0  0  0  0
  187.6220  178.1320  138.9380 C   0  0  0  0  0  0  0  0  0  0  0  0
  187.5470  178.2880  137.5930 F   0  0  0  0  0  0  0  0  0  0  0  0
  184.5110  179.7500  141.1840 O   0  0  0  0  0  0  0  0  0  0  0  0
  194.2120  176.3520  137.9210 N   0  0  0  0  0  2  0  0  0  0  0  0
  195.6870  174.9840  136.5000 N   0  0  0  0  0  1  0  0  0  0  0  0
  194.6430  175.0670  137.4620 C   0  0  0  0  0  0  0  0  0  0  0  0
  194.1350  174.0100  137.9190 O   0  0  0  0  0  0  0  0  0  0  0  0
  191.6700  177.0120  141.8760 C   0  0  0  0  0  2  0  0  0  0  0  0
  191.0760  178.0400  142.8260 C   0  0  0  0  0  2  0  0  0  0  0  0
  191.6830  177.8640  144.2020 C   0  0  0  0  0  2  0  0  0  0  0  0
  190.9060  176.8030  144.9560 C   0  0  0  0  0  2  0  0  0  0  0  0
  190.5010  177.3120  146.2660 N   0  0  0  0  0  0  0  0  0  0  0  0
  188.5600  177.5180  147.8500 C   0  0  0  0  0  1  0  0  0  0  0  0
  189.0510  177.1300  146.4580 C   0  0  1  0  0  3  0  0  0  0  0  0
  187.3130  176.9170  144.7550 N   0  0  0  0  0  2  0  0  0  0  0  0
  188.2570  177.8570  145.3800 C   0  0  1  0  0  3  0  0  0  0  0  0
  186.8450  177.8990  145.7460 C   0  0  0  0  0  2  0  0  0  0  0  0
  191.3150  176.7590  147.3660 C   0  0  0  0  0  2  0  0  0  0  0  0
  192.1650  175.5520  146.9650 C   0  0  0  0  0  1  0  0  0  0  0  0
  1 23  1  1  0  0  0
  2  7  2  0  0  0  0
  3  2  1  0  0  0  0
  3  6  2  0  0  0  0
  4  1  1  0  0  0  0
  5  4  2  0  0  0  0
  6  5  1  0  0  0  0
  6  8  1  0  0  0  0
  7  8  1  0  0  0  0
  7 11  1  0  0  0  0
  8  1  1  0  0  0  0
 10 14  1  0  0  0  0
 11  9  1  0  0  0  0
 12 15  2  0  0  0  0
 13 10  1  0  0  0  0
 15  9  1  0  0  0  0
 15 13  1  0  0  0  0
 16 11  2  0  0  0  0
 16 12  1  0  0  0  0
 17 16  1  0  0  0  0
 18 10  2  0  0  0  0
 19  5  1  0  0  0  0
 20 21  1  0  0  0  0
 21 22  2  0  0  0  0
 21 19  1  0  0  0  0
 23 24  1  0  0  0  0
 24 25  1  0  0  0  0
 25 26  1  0  0  0  0
 26 27  1  0  0  0  0
 27 29  1  0  0  0  0
 27 33  1  0  0  0  0
 29 28  1  1  0  0  0
 30 31  1  0  0  0  0
 30 32  1  0  0  0  0
 31 32  1  0  0  0  0
 31 29  1  1  0  0  0
 34 33  1  0  0  0  0
M  END
>  <MODEL>
7

>  <REMARK>
 VINA RESULT:      -7.5      1.503      6.384
  Name = 
  10 active torsions:
  status: ('A' for Active; 'I' for Inactive)
    1  A    between atoms: C_1  and  C_2
    2  A    between atoms: C_1  and  C_24
    3  A    between atoms: C_6  and  C_11
    4  A    between atoms: C_6  and  N_15
    5  A    between atoms: N_8  and  C_17
    6  A    between atoms: C_9  and  C_31
    7  A    between atoms: C_11  and  C_24
    8  A    between atoms: N_15  and  C_16
    9  A    between atoms: N_15  and  C_30
   10  A    between atoms: C_27  and  C_30
                            x       y       z     vdW  Elec       q    Type
                         _______ _______ _______ _____ _____    ______ ____

>  <TORSDO>
F 10

$$$$
=
 OpenBabel10222418233D

 34 37  0  0  1  0  0  0  0  0999 V2000
  185.3770  177.9710  142.0380 C   0  0  1  0  0  3  0  0  0  0  0  0
  185.1660  179.0190  138.6620 N   0  0  0  0  0  0  0  0  0  0  0  0
  183.9760  179.2610  139.2020 N   0  0  0  0  0  0  0  0  0  0  0  0
  183.9030  177.9160  142.3980 C   0  0  0  0  0  3  0  0  0  0  0  0
  183.2100  178.6280  141.5070 C   0  0  0  0  0  0  0  0  0  0  0  0
  184.1450  179.1580  140.5330 C   0  0  0  0  0  0  0  0  0  0  0  0
  186.0060  178.7110  139.6740 C   0  0  0  0  0  0  0  0  0  0  0  0
  185.3840  178.8300  140.8600 N   0  0  0  0  0  0  0  0  0  0  0  0
  187.8100  177.2390  138.4440 C   0  0  0  0  0  2  0  0  0  0  0  0
  191.5550  176.1170  138.4000 C   0  0  0  0  0  0  0  0  0  0  0  0
  187.3790  178.2110  139.4900 C   0  0  0  0  0  0  0  0  0  0  0  0
  189.5980  177.8470  139.8160 N   0  0  0  0  0  0  0  0  0  0  0  0
  190.1660  176.2730  138.0950 N   0  0  0  0  0  2  0  0  0  0  0  0
  192.3750  175.1680  137.6030 C   0  0  0  0  0  1  0  0  0  0  0  0
  189.2550  177.1230  138.8010 C   0  0  0  0  0  0  0  0  0  0  0  0
  188.4260  178.5210  140.2390 C   0  0  0  0  0  0  0  0  0  0  0  0
  188.4000  179.3690  141.2960 F   0  0  0  0  0  0  0  0  0  0  0  0
  192.0910  176.7570  139.3440 O   0  0  0  0  0  0  0  0  0  0  0  0
  181.7810  178.7100  141.4920 N   0  0  0  0  0  2  0  0  0  0  0  0
  179.4990  177.9550  140.9540 N   0  0  0  0  0  1  0  0  0  0  0  0
  180.9040  177.8530  140.7560 C   0  0  0  0  0  0  0  0  0  0  0  0
  181.3530  177.0330  139.9120 O   0  0  0  0  0  0  0  0  0  0  0  0
  186.2210  178.5680  143.1650 C   0  0  0  0  0  2  0  0  0  0  0  0
  186.8320  177.5090  144.0700 C   0  0  0  0  0  2  0  0  0  0  0  0
  187.8320  176.6890  143.2830 C   0  0  0  0  0  2  0  0  0  0  0  0
  189.1320  176.6130  144.0570 C   0  0  0  0  0  2  0  0  0  0  0  0
  189.4210  177.9020  144.6840 N   0  0  0  0  0  0  0  0  0  0  0  0
  188.6740  177.7630  147.0800 C   0  0  0  0  0  1  0  0  0  0  0  0
  189.8310  177.7070  146.0860 C   0  0  1  0  0  3  0  0  0  0  0  0
  192.0540  176.7490  146.4150 N   0  0  0  0  0  2  0  0  0  0  0  0
  190.6290  176.4200  146.2540 C   0  0  1  0  0  3  0  0  0  0  0  0
  191.2350  176.3810  147.5800 C   0  0  0  0  0  2  0  0  0  0  0  0
  190.3700  178.7150  143.9000 C   0  0  0  0  0  2  0  0  0  0  0  0
  191.3060  177.8940  143.0120 C   0  0  0  0  0  1  0  0  0  0  0  0
  1  4  1  0  0  0  0
  1 23  1  1  0  0  0
  2  3  1  0  0  0  0
  2  7  2  0  0  0  0
  3  6  2  0  0  0  0
  5  4  2  0  0  0  0
  6  8  1  0  0  0  0
  6  5  1  0  0  0  0
  7  8  1  0  0  0  0
  8  1  1  0  0  0  0
  9 15  1  0  0  0  0
  9 11  1  0  0  0  0
 10 18  2  0  0  0  0
 11  7  1  0  0  0  0
 11 16  2  0  0  0  0
 12 16  1  0  0  0  0
 13 10  1  0  0  0  0
 13 15  1  0  0  0  0
 14 10  1  0  0  0  0
 15 12  2  0  0  0  0
 16 17  1  0  0  0  0
 19  5  1  0  0  0  0
 21 20  1  0  0  0  0
 21 19  1  0  0  0  0
 22 21  2  0  0  0  0
 23 24  1  0  0  0  0
 25 26  1  0  0  0  0
 25 24  1  0  0  0  0
 26 27  1  0  0  0  0
 27 29  1  0  0  0  0
 29 28  1  1  0  0  0
 30 32  1  0  0  0  0
 31 29  1  1  0  0  0
 31 30  1  0  0  0  0
 31 32  1  0  0  0  0
 33 27  1  0  0  0  0
 34 33  1  0  0  0  0
M  END
>  <MODEL>
8

>  <REMARK>
 VINA RESULT:      -7.4      2.267      3.665
  Name = 
  10 active torsions:
  status: ('A' for Active; 'I' for Inactive)
    1  A    between atoms: C_1  and  C_2
    2  A    between atoms: C_1  and  C_24
    3  A    between atoms: C_6  and  C_11
    4  A    between atoms: C_6  and  N_15
    5  A    between atoms: N_8  and  C_17
    6  A    between atoms: C_9  and  C_31
    7  A    between atoms: C_11  and  C_24
    8  A    between atoms: N_15  and  C_16
    9  A    between atoms: N_15  and  C_30
   10  A    between atoms: C_27  and  C_30
                            x       y       z     vdW  Elec       q    Type
                         _______ _______ _______ _____ _____    ______ ____

>  <TORSDO>
F 10

$$$$
=
 OpenBabel10222418233D

 34 37  0  0  1  0  0  0  0  0999 V2000
  188.8860  177.2640  140.1560 C   0  0  1  0  0  3  0  0  0  0  0  0
  192.2230  177.2230  141.3420 N   0  0  0  0  0  0  0  0  0  0  0  0
  192.3000  177.2530  140.0160 N   0  0  0  0  0  0  0  0  0  0  0  0
  189.1100  176.8890  138.7020 C   0  0  0  0  0  3  0  0  0  0  0  0
  190.3910  177.0930  138.3920 C   0  0  0  0  0  0  0  0  0  0  0  0
  191.0680  177.5770  139.5800 C   0  0  0  0  0  0  0  0  0  0  0  0
  190.9340  177.4640  141.6710 C   0  0  0  0  0  0  0  0  0  0  0  0
  190.2050  177.7240  140.5720 N   0  0  0  0  0  0  0  0  0  0  0  0
  190.3480  178.4510  144.0410 C   0  0  0  0  0  2  0  0  0  0  0  0
  188.9000  177.6550  147.5850 C   0  0  0  0  0  0  0  0  0  0  0  0
  190.3910  177.3500  143.0350 C   0  0  0  0  0  0  0  0  0  0  0  0
  189.4800  176.4700  144.9230 N   0  0  0  0  0  0  0  0  0  0  0  0
  189.4750  178.3180  146.4540 N   0  0  0  0  0  2  0  0  0  0  0  0
  188.7210  178.4020  148.8560 C   0  0  0  0  0  1  0  0  0  0  0  0
  189.7350  177.7110  145.1840 C   0  0  0  0  0  0  0  0  0  0  0  0
  189.8910  176.2530  143.5840 C   0  0  0  0  0  0  0  0  0  0  0  0
  189.7850  175.0530  142.9620 F   0  0  0  0  0  0  0  0  0  0  0  0
  188.5580  176.4430  147.5250 O   0  0  0  0  0  0  0  0  0  0  0  0
  190.9690  176.7530  137.1280 N   0  0  0  0  0  2  0  0  0  0  0  0
  192.0000  175.2550  135.4660 N   0  0  0  0  0  1  0  0  0  0  0  0
  191.6060  175.5130  136.8080 C   0  0  0  0  0  0  0  0  0  0  0  0
  191.8540  174.6600  137.7010 O   0  0  0  0  0  0  0  0  0  0  0  0
  187.8380  178.3670  140.3100 C   0  0  0  0  0  2  0  0  0  0  0  0
  187.5250  178.6860  141.7630 C   0  0  0  0  0  2  0  0  0  0  0  0
  186.7070  177.5620  142.3620 C   0  0  0  0  0  2  0  0  0  0  0  0
  186.3020  177.9370  143.7730 C   0  0  0  0  0  2  0  0  0  0  0  0
  185.2670  178.9700  143.7420 N   0  0  0  0  0  0  0  0  0  0  0  0
  182.7880  178.7040  144.0630 C   0  0  0  0  0  1  0  0  0  0  0  0
  184.0130  178.4190  143.1980 C   0  0  1  0  0  3  0  0  0  0  0  0
  183.5200  177.7090  140.9130 N   0  0  0  0  0  2  0  0  0  0  0  0
  183.7850  178.8790  141.7640 C   0  0  1  0  0  3  0  0  0  0  0  0
  182.4170  178.5770  141.3570 C   0  0  0  0  0  2  0  0  0  0  0  0
  185.0990  179.6440  145.0440 C   0  0  0  0  0  2  0  0  0  0  0  0
  185.7410  178.9010  146.2170 C   0  0  0  0  0  1  0  0  0  0  0  0
  1 23  1  6  0  0  0
  1  8  1  0  0  0  0
  2  7  2  0  0  0  0
  3  2  1  0  0  0  0
  4  1  1  0  0  0  0
  5  4  2  0  0  0  0
  5  6  1  0  0  0  0
  6  3  2  0  0  0  0
  6  8  1  0  0  0  0
  7 11  1  0  0  0  0
  8  7  1  0  0  0  0
  9 15  1  0  0  0  0
 10 14  1  0  0  0  0
 11 16  2  0  0  0  0
 11  9  1  0  0  0  0
 12 15  2  0  0  0  0
 13 10  1  0  0  0  0
 15 13  1  0  0  0  0
 16 12  1  0  0  0  0
 17 16  1  0  0  0  0
 18 10  2  0  0  0  0
 19  5  1  0  0  0  0
 20 21  1  0  0  0  0
 21 19  1  0  0  0  0
 21 22  2  0  0  0  0
 23 24  1  0  0  0  0
 24 25  1  0  0  0  0
 25 26  1  0  0  0  0
 27 26  1  0  0  0  0
 27 33  1  0  0  0  0
 29 27  1  0  0  0  0
 29 28  1  1  0  0  0
 30 32  1  0  0  0  0
 30 31  1  0  0  0  0
 31 29  1  1  0  0  0
 32 31  1  0  0  0  0
 33 34  1  0  0  0  0
M  END
>  <MODEL>
9

>  <REMARK>
 VINA RESULT:      -7.4      2.324      7.246
  Name = 
  10 active torsions:
  status: ('A' for Active; 'I' for Inactive)
    1  A    between atoms: C_1  and  C_2
    2  A    between atoms: C_1  and  C_24
    3  A    between atoms: C_6  and  C_11
    4  A    between atoms: C_6  and  N_15
    5  A    between atoms: N_8  and  C_17
    6  A    between atoms: C_9  and  C_31
    7  A    between atoms: C_11  and  C_24
    8  A    between atoms: N_15  and  C_16
    9  A    between atoms: N_15  and  C_30
   10  A    between atoms: C_27  and  C_30
                            x       y       z     vdW  Elec       q    Type
                         _______ _______ _______ _____ _____    ______ ____

>  <TORSDO>
F 10

$$$$
