=
 OpenBabel10222416373D

 32 35  0  0  1  0  0  0  0  0999 V2000
  189.7850  177.2140  146.5920 C   0  0  0  0  0  0  0  0  0  0  0  0
  192.0570  175.9610  145.4970 C   0  0  0  0  0  3  0  0  0  0  0  0
  191.2210  176.7260  144.6860 C   0  0  0  0  0  3  0  0  0  0  0  0
  191.7620  175.8100  146.8480 C   0  0  0  0  0  3  0  0  0  0  0  0
  190.0850  177.3530  145.2150 C   0  0  0  0  0  0  0  0  0  0  0  0
  190.6350  176.4310  147.3880 C   0  0  0  0  0  3  0  0  0  0  0  0
  187.3020  177.6030  146.7270 N   0  0  0  0  0  2  0  0  0  0  0  0
  188.6130  177.8430  147.2450 C   0  0  0  0  0  0  0  0  0  0  0  0
  188.7530  178.5790  148.2570 O   0  0  0  0  0  0  0  0  0  0  0  0
  186.1310  178.3480  147.1710 C   0  0  0  0  0  2  0  0  0  0  0  0
  184.9340  178.0490  146.2850 C   0  0  0  0  0  2  0  0  0  0  0  0
  182.6420  178.7010  144.3940 C   0  0  0  0  0  2  0  0  0  0  0  0
  183.0010  178.8070  142.9080 C   0  0  0  0  0  2  0  0  0  0  0  0
  184.4760  179.1690  142.7150 C   0  0  1  0  0  3  0  0  0  0  0  0
  184.7600  179.1160  145.2140 C   0  0  1  0  0  3  0  0  0  0  0  0
  185.3200  178.6300  143.8630 C   0  0  0  0  0  2  0  0  0  0  0  0
  183.4230  179.5940  145.1540 O   0  0  0  0  0  0  0  0  0  0  0  0
  184.9740  178.6230  141.3920 C   0  0  0  0  0  3  0  0  0  0  0  0
  185.8150  179.5380  140.7930 O   0  0  0  0  0  0  0  0  0  0  0  0
  184.5450  179.4380  140.3660 O   0  0  0  0  0  0  0  0  0  0  0  0
  189.0770  178.3050  144.0780 S   0  0  0  0  0  0  0  0  0  0  0  0
  189.4080  177.1960  142.6790 C   0  0  0  0  0  2  0  0  0  0  0  0
  188.7060  177.7050  141.4310 C   0  0  0  0  0  2  0  0  0  0  0  0
  189.4790  177.3130  140.1740 C   0  0  0  0  0  0  0  0  0  0  0  0
  190.9480  177.6720  140.0630 C   0  0  0  0  0  2  0  0  0  0  0  0
  190.5360  176.2690  140.4710 C   0  0  0  0  0  2  0  0  0  0  0  0
  188.7770  176.9910  138.9910 O   0  0  0  0  0  0  0  0  0  0  0  0
  188.5330  178.1320  138.1810 C   0  0  0  0  0  0  0  0  0  0  0  0
  189.0730  179.2890  138.7480 O   0  0  0  0  0  1  0  0  0  0  0  0
  187.1510  178.3060  138.0790 O   0  0  0  0  0  1  0  0  0  0  0  0
  189.9130  176.8180  136.7200 O   0  0  0  0  0  1  0  0  0  0  0  0
  189.0990  177.9510  136.7770 C   0  0  0  0  0  2  0  0  0  0  0  0
  1  8  1  0  0  0  0
  1  6  1  0  0  0  0
  2  4  1  0  0  0  0
  3  5  1  0  0  0  0
  3  2  2  0  0  0  0
  4  6  2  0  0  0  0
  5  1  2  0  0  0  0
  7 10  1  0  0  0  0
  7  8  1  0  0  0  0
  8  9  2  0  0  0  0
 11 10  1  0  0  0  0
 12 17  1  0  0  0  0
 13 12  1  0  0  0  0
 14 18  1  6  0  0  0
 14 13  1  0  0  0  0
 14 16  1  0  0  0  0
 15 11  1  1  0  0  0
 16 15  1  0  0  0  0
 17 15  1  0  0  0  0
 19 18  1  0  0  0  0
 20 19  1  0  0  0  0
 20 18  1  0  0  0  0
 21  5  1  0  0  0  0
 22 21  1  0  0  0  0
 23 22  1  0  0  0  0
 24 26  1  0  0  0  0
 24 23  1  0  0  0  0
 25 24  1  0  0  0  0
 25 26  1  0  0  0  0
 27 24  1  0  0  0  0
 28 29  1  0  0  0  0
 28 27  1  0  0  0  0
 30 28  1  0  0  0  0
 31 32  1  0  0  0  0
 32 28  1  0  0  0  0
M  END
>  <MODEL>
1

>  <REMARK>
 VINA RESULT:      -7.6      0.000      0.000
  Name = 
  12 active torsions:
  status: ('A' for Active; 'I' for Inactive)
    1  A    between atoms: C_1  and  C_15
    2  A    between atoms: C_2  and  C_10
    3  A    between atoms: C_3  and  C_9
    4  A    between atoms: C_3  and  O_11
    5  A    between atoms: C_6  and  O_11
    6  A    between atoms: C_6  and  C_21
    7  A    between atoms: C_8  and  C_18
    8  A    between atoms: C_8  and  C_24
    9  A    between atoms: C_9  and  C_30
   10  A    between atoms: S_13  and  C_26
   11  A    between atoms: S_13  and  C_30
   12  A    between atoms: N_14  and  C_24
                            x       y       z     vdW  Elec       q    Type
                         _______ _______ _______ _____ _____    ______ ____

>  <TORSDO>
F 12

$$$$
=
 OpenBabel10222416373D

 32 35  0  0  1  0  0  0  0  0999 V2000
  184.5700  178.4610  142.9130 C   0  0  0  0  0  0  0  0  0  0  0  0
  184.6020  178.8680  145.6990 C   0  0  0  0  0  3  0  0  0  0  0  0
  185.7590  178.4570  145.0380 C   0  0  0  0  0  3  0  0  0  0  0  0
  183.4290  179.0680  144.9800 C   0  0  0  0  0  3  0  0  0  0  0  0
  185.7580  178.2470  143.6530 C   0  0  0  0  0  0  0  0  0  0  0  0
  183.4150  178.8660  143.5990 C   0  0  0  0  0  3  0  0  0  0  0  0
  185.2720  179.0790  140.5760 N   0  0  0  0  0  2  0  0  0  0  0  0
  184.4720  178.2740  141.4460 C   0  0  0  0  0  0  0  0  0  0  0  0
  183.7020  177.4080  140.9530 O   0  0  0  0  0  0  0  0  0  0  0  0
  185.0790  179.1100  139.1320 C   0  0  0  0  0  2  0  0  0  0  0  0
  186.0110  178.1280  138.4430 C   0  0  0  0  0  2  0  0  0  0  0  0
  188.3020  177.7500  136.4770 C   0  0  0  0  0  2  0  0  0  0  0  0
  189.6300  177.2710  137.0720 C   0  0  0  0  0  2  0  0  0  0  0  0
  189.7490  177.6480  138.5500 C   0  0  1  0  0  3  0  0  0  0  0  0
  187.4420  178.6450  138.4240 C   0  0  1  0  0  3  0  0  0  0  0  0
  188.3740  177.7000  139.2070 C   0  0  0  0  0  2  0  0  0  0  0  0
  187.8820  178.9390  137.1050 O   0  0  0  0  0  0  0  0  0  0  0  0
  190.6390  176.6550  139.2680 C   0  0  0  0  0  3  0  0  0  0  0  0
  191.4820  177.3210  140.1340 O   0  0  0  0  0  0  0  0  0  0  0  0
  191.9570  176.9030  138.9490 O   0  0  0  0  0  0  0  0  0  0  0  0
  187.3000  177.7110  142.9100 S   0  0  0  0  0  0  0  0  0  0  0  0
  187.8950  176.9310  144.4380 C   0  0  0  0  0  2  0  0  0  0  0  0
  188.8550  177.8620  145.1600 C   0  0  0  0  0  2  0  0  0  0  0  0
  189.3210  177.2470  146.4780 C   0  0  0  0  0  0  0  0  0  0  0  0
  189.3180  178.0930  147.7350 C   0  0  0  0  0  2  0  0  0  0  0  0
  188.1830  177.1200  147.4700 C   0  0  0  0  0  2  0  0  0  0  0  0
  190.1060  176.0710  146.4640 O   0  0  0  0  0  0  0  0  0  0  0  0
  191.4750  176.3390  146.2040 C   0  0  0  0  0  0  0  0  0  0  0  0
  191.7230  177.7110  146.1160 O   0  0  0  0  0  1  0  0  0  0  0  0
  191.8080  175.7610  144.9770 O   0  0  0  0  0  1  0  0  0  0  0  0
  192.5650  176.6430  148.3230 O   0  0  0  0  0  1  0  0  0  0  0  0
  192.3760  175.7360  147.2770 C   0  0  0  0  0  2  0  0  0  0  0  0
  1  6  2  0  0  0  0
  1  5  1  0  0  0  0
  3  2  1  0  0  0  0
  4  2  2  0  0  0  0
  5  3  2  0  0  0  0
  6  4  1  0  0  0  0
  7  8  1  0  0  0  0
  8  1  1  0  0  0  0
  9  8  2  0  0  0  0
 10  7  1  0  0  0  0
 11 10  1  0  0  0  0
 12 13  1  0  0  0  0
 12 17  1  0  0  0  0
 13 14  1  0  0  0  0
 14 16  1  0  0  0  0
 14 18  1  1  0  0  0
 15 11  1  6  0  0  0
 15 16  1  0  0  0  0
 17 15  1  0  0  0  0
 18 19  1  0  0  0  0
 20 18  1  0  0  0  0
 20 19  1  0  0  0  0
 21  5  1  0  0  0  0
 21 22  1  0  0  0  0
 22 23  1  0  0  0  0
 23 24  1  0  0  0  0
 24 26  1  0  0  0  0
 24 25  1  0  0  0  0
 26 25  1  0  0  0  0
 27 24  1  0  0  0  0
 28 27  1  0  0  0  0
 28 32  1  0  0  0  0
 29 28  1  0  0  0  0
 30 28  1  0  0  0  0
 32 31  1  0  0  0  0
M  END
>  <MODEL>
2

>  <REMARK>
 VINA RESULT:      -7.5      2.376      7.664
  Name = 
  12 active torsions:
  status: ('A' for Active; 'I' for Inactive)
    1  A    between atoms: C_1  and  C_15
    2  A    between atoms: C_2  and  C_10
    3  A    between atoms: C_3  and  C_9
    4  A    between atoms: C_3  and  O_11
    5  A    between atoms: C_6  and  O_11
    6  A    between atoms: C_6  and  C_21
    7  A    between atoms: C_8  and  C_18
    8  A    between atoms: C_8  and  C_24
    9  A    between atoms: C_9  and  C_30
   10  A    between atoms: S_13  and  C_26
   11  A    between atoms: S_13  and  C_30
   12  A    between atoms: N_14  and  C_24
                            x       y       z     vdW  Elec       q    Type
                         _______ _______ _______ _____ _____    ______ ____

>  <TORSDO>
F 12

$$$$
=
 OpenBabel10222416373D

 32 35  0  0  1  0  0  0  0  0999 V2000
  184.5430  178.4840  142.5900 C   0  0  0  0  0  0  0  0  0  0  0  0
  184.6960  178.8480  145.3780 C   0  0  0  0  0  3  0  0  0  0  0  0
  185.8230  178.4480  144.6610 C   0  0  0  0  0  3  0  0  0  0  0  0
  183.4930  179.0580  144.7140 C   0  0  0  0  0  3  0  0  0  0  0  0
  185.7620  178.2600  143.2750 C   0  0  0  0  0  0  0  0  0  0  0  0
  183.4190  178.8760  143.3320 C   0  0  0  0  0  3  0  0  0  0  0  0
  185.2620  179.0120  140.2360 N   0  0  0  0  0  2  0  0  0  0  0  0
  184.3810  178.3200  141.1260 C   0  0  0  0  0  0  0  0  0  0  0  0
  183.4870  177.5710  140.6520 O   0  0  0  0  0  0  0  0  0  0  0  0
  185.0370  179.0760  138.7970 C   0  0  0  0  0  2  0  0  0  0  0  0
  185.8030  177.9760  138.0830 C   0  0  0  0  0  2  0  0  0  0  0  0
  188.4300  178.8290  136.8070 C   0  0  0  0  0  2  0  0  0  0  0  0
  189.5330  177.7680  136.7580 C   0  0  0  0  0  2  0  0  0  0  0  0
  189.3510  176.7220  137.8600 C   0  0  1  0  0  3  0  0  0  0  0  0
  187.2470  177.9080  138.5620 C   0  0  1  0  0  3  0  0  0  0  0  0
  187.8760  176.5480  138.2020 C   0  0  0  0  0  2  0  0  0  0  0  0
  188.0010  179.0330  138.1330 O   0  0  0  0  0  0  0  0  0  0  0  0
  189.9510  175.4010  137.4240 C   0  0  0  0  0  3  0  0  0  0  0  0
  190.8340  174.9480  138.3820 O   0  0  0  0  0  0  0  0  0  0  0  0
  191.3140  175.5400  137.2760 O   0  0  0  0  0  0  0  0  0  0  0  0
  187.2710  177.7370  142.4570 S   0  0  0  0  0  0  0  0  0  0  0  0
  187.8030  176.7060  143.8540 C   0  0  0  0  0  2  0  0  0  0  0  0
  189.3180  176.5980  143.8760 C   0  0  0  0  0  2  0  0  0  0  0  0
  189.9240  177.6460  144.8070 C   0  0  0  0  0  0  0  0  0  0  0  0
  191.4300  177.7970  144.8760 C   0  0  0  0  0  2  0  0  0  0  0  0
  190.6080  178.7550  144.0320 C   0  0  0  0  0  2  0  0  0  0  0  0
  189.1490  178.1780  145.8620 O   0  0  0  0  0  0  0  0  0  0  0  0
  189.2270  177.3900  147.0400 C   0  0  0  0  0  0  0  0  0  0  0  0
  190.3400  176.5460  147.0200 O   0  0  0  0  0  1  0  0  0  0  0  0
  188.0830  176.5950  147.1110 O   0  0  0  0  0  1  0  0  0  0  0  0
  188.1130  178.1160  149.0410 O   0  0  0  0  0  1  0  0  0  0  0  0
  189.2830  178.2610  148.2910 C   0  0  0  0  0  2  0  0  0  0  0  0
  1  5  2  0  0  0  0
  1  6  1  0  0  0  0
  3  2  2  0  0  0  0
  4  2  1  0  0  0  0
  5  3  1  0  0  0  0
  6  4  2  0  0  0  0
  7  8  1  0  0  0  0
  8  1  1  0  0  0  0
  9  8  2  0  0  0  0
 10  7  1  0  0  0  0
 11 10  1  0  0  0  0
 12 17  1  0  0  0  0
 13 12  1  0  0  0  0
 13 14  1  0  0  0  0
 14 18  1  6  0  0  0
 14 16  1  0  0  0  0
 15 11  1  6  0  0  0
 16 15  1  0  0  0  0
 17 15  1  0  0  0  0
 18 19  1  0  0  0  0
 20 18  1  0  0  0  0
 20 19  1  0  0  0  0
 21  5  1  0  0  0  0
 21 22  1  0  0  0  0
 22 23  1  0  0  0  0
 23 24  1  0  0  0  0
 24 25  1  0  0  0  0
 24 27  1  0  0  0  0
 26 24  1  0  0  0  0
 26 25  1  0  0  0  0
 27 28  1  0  0  0  0
 28 30  1  0  0  0  0
 28 32  1  0  0  0  0
 29 28  1  0  0  0  0
 32 31  1  0  0  0  0
M  END
>  <MODEL>
3

>  <REMARK>
 VINA RESULT:      -7.5      2.293      7.663
  Name = 
  12 active torsions:
  status: ('A' for Active; 'I' for Inactive)
    1  A    between atoms: C_1  and  C_15
    2  A    between atoms: C_2  and  C_10
    3  A    between atoms: C_3  and  C_9
    4  A    between atoms: C_3  and  O_11
    5  A    between atoms: C_6  and  O_11
    6  A    between atoms: C_6  and  C_21
    7  A    between atoms: C_8  and  C_18
    8  A    between atoms: C_8  and  C_24
    9  A    between atoms: C_9  and  C_30
   10  A    between atoms: S_13  and  C_26
   11  A    between atoms: S_13  and  C_30
   12  A    between atoms: N_14  and  C_24
                            x       y       z     vdW  Elec       q    Type
                         _______ _______ _______ _____ _____    ______ ____

>  <TORSDO>
F 12

$$$$
=
 OpenBabel10222416373D

 32 35  0  0  1  0  0  0  0  0999 V2000
  184.9680  178.6580  143.5410 C   0  0  0  0  0  0  0  0  0  0  0  0
  185.4110  178.0470  146.2550 C   0  0  0  0  0  3  0  0  0  0  0  0
  186.3880  177.7590  145.3040 C   0  0  0  0  0  3  0  0  0  0  0  0
  184.2110  178.6290  145.8590 C   0  0  0  0  0  3  0  0  0  0  0  0
  186.1820  178.0530  143.9500 C   0  0  0  0  0  0  0  0  0  0  0  0
  183.9930  178.9300  144.5140 C   0  0  0  0  0  3  0  0  0  0  0  0
  183.4200  178.5970  141.5570 N   0  0  0  0  0  2  0  0  0  0  0  0
  184.6600  179.0140  142.1370 C   0  0  0  0  0  0  0  0  0  0  0  0
  185.4690  179.6880  141.4460 O   0  0  0  0  0  0  0  0  0  0  0  0
  183.1370  178.7170  140.1330 C   0  0  0  0  0  2  0  0  0  0  0  0
  183.7370  177.5540  139.3640 C   0  0  0  0  0  2  0  0  0  0  0  0
  185.2250  176.0740  137.1620 C   0  0  0  0  0  2  0  0  0  0  0  0
  186.6670  176.5210  136.9020 C   0  0  0  0  0  2  0  0  0  0  0  0
  186.8900  177.9710  137.3390 C   0  0  1  0  0  3  0  0  0  0  0  0
  184.5060  178.0360  138.1430 C   0  0  1  0  0  3  0  0  0  0  0  0
  185.9750  178.3300  138.5040 C   0  0  0  0  0  2  0  0  0  0  0  0
  184.3410  177.1630  137.0330 O   0  0  0  0  0  0  0  0  0  0  0  0
  188.3400  178.1800  137.7230 C   0  0  0  0  0  3  0  0  0  0  0  0
  188.7590  179.4280  137.3120 O   0  0  0  0  0  0  0  0  0  0  0  0
  189.0980  178.3510  136.5840 O   0  0  0  0  0  0  0  0  0  0  0  0
  187.5050  177.6310  142.8140 S   0  0  0  0  0  0  0  0  0  0  0  0
  188.5170  176.8550  144.1060 C   0  0  0  0  0  2  0  0  0  0  0  0
  189.5070  177.8610  144.6690 C   0  0  0  0  0  2  0  0  0  0  0  0
  190.9060  177.2560  144.7570 C   0  0  0  0  0  0  0  0  0  0  0  0
  191.2510  176.0530  143.9020 C   0  0  0  0  0  2  0  0  0  0  0  0
  191.6790  177.4430  143.4670 C   0  0  0  0  0  2  0  0  0  0  0  0
  191.7240  177.5390  145.8750 O   0  0  0  0  0  0  0  0  0  0  0  0
  191.4100  176.7220  146.9930 C   0  0  0  0  0  0  0  0  0  0  0  0
  190.0390  176.4620  147.0710 O   0  0  0  0  0  1  0  0  0  0  0  0
  191.7870  177.4050  148.1510 O   0  0  0  0  0  1  0  0  0  0  0  0
  193.2780  175.4420  147.7950 O   0  0  0  0  0  1  0  0  0  0  0  0
  192.1680  175.3990  146.9480 C   0  0  0  0  0  2  0  0  0  0  0  0
  1  5  2  0  0  0  0
  1  6  1  0  0  0  0
  3  2  2  0  0  0  0
  4  2  1  0  0  0  0
  5  3  1  0  0  0  0
  6  4  2  0  0  0  0
  7  8  1  0  0  0  0
  8  1  1  0  0  0  0
  9  8  2  0  0  0  0
 10  7  1  0  0  0  0
 11 10  1  0  0  0  0
 13 12  1  0  0  0  0
 13 14  1  0  0  0  0
 14 18  1  1  0  0  0
 14 16  1  0  0  0  0
 15 16  1  0  0  0  0
 15 11  1  1  0  0  0
 17 12  1  0  0  0  0
 17 15  1  0  0  0  0
 19 18  1  0  0  0  0
 20 19  1  0  0  0  0
 20 18  1  0  0  0  0
 21  5  1  0  0  0  0
 21 22  1  0  0  0  0
 22 23  1  0  0  0  0
 23 24  1  0  0  0  0
 24 27  1  0  0  0  0
 25 24  1  0  0  0  0
 26 25  1  0  0  0  0
 26 24  1  0  0  0  0
 27 28  1  0  0  0  0
 28 29  1  0  0  0  0
 28 30  1  0  0  0  0
 32 28  1  0  0  0  0
 32 31  1  0  0  0  0
M  END
>  <MODEL>
4

>  <REMARK>
 VINA RESULT:      -7.5      2.504      6.998
  Name = 
  12 active torsions:
  status: ('A' for Active; 'I' for Inactive)
    1  A    between atoms: C_1  and  C_15
    2  A    between atoms: C_2  and  C_10
    3  A    between atoms: C_3  and  C_9
    4  A    between atoms: C_3  and  O_11
    5  A    between atoms: C_6  and  O_11
    6  A    between atoms: C_6  and  C_21
    7  A    between atoms: C_8  and  C_18
    8  A    between atoms: C_8  and  C_24
    9  A    between atoms: C_9  and  C_30
   10  A    between atoms: S_13  and  C_26
   11  A    between atoms: S_13  and  C_30
   12  A    between atoms: N_14  and  C_24
                            x       y       z     vdW  Elec       q    Type
                         _______ _______ _______ _____ _____    ______ ____

>  <TORSDO>
F 12

$$$$
=
 OpenBabel10222416373D

 32 35  0  0  1  0  0  0  0  0999 V2000
  188.8380  177.7720  138.4120 C   0  0  0  0  0  0  0  0  0  0  0  0
  191.2810  176.4610  138.9070 C   0  0  0  0  0  3  0  0  0  0  0  0
  190.5290  176.9660  139.9680 C   0  0  0  0  0  3  0  0  0  0  0  0
  190.8250  176.6140  137.6030 C   0  0  0  0  0  3  0  0  0  0  0  0
  189.3140  177.6240  139.7370 C   0  0  0  0  0  0  0  0  0  0  0  0
  189.6150  177.2650  137.3590 C   0  0  0  0  0  3  0  0  0  0  0  0
  186.3910  178.1760  138.8440 N   0  0  0  0  0  2  0  0  0  0  0  0
  187.5630  178.4440  138.0680 C   0  0  0  0  0  0  0  0  0  0  0  0
  187.4960  179.2560  137.1080 O   0  0  0  0  0  0  0  0  0  0  0  0
  185.0630  178.6230  138.4450 C   0  0  0  0  0  2  0  0  0  0  0  0
  184.3510  179.2990  139.6030 C   0  0  0  0  0  2  0  0  0  0  0  0
  182.1430  178.7240  141.6150 C   0  0  0  0  0  2  0  0  0  0  0  0
  182.5210  178.8650  143.0930 C   0  0  0  0  0  2  0  0  0  0  0  0
  184.0240  178.6670  143.3050 C   0  0  1  0  0  3  0  0  0  0  0  0
  184.2830  178.3850  140.8190 C   0  0  1  0  0  3  0  0  0  0  0  0
  184.8070  179.1090  142.0740 C   0  0  0  0  0  2  0  0  0  0  0  0
  182.9950  177.8040  140.9740 O   0  0  0  0  0  0  0  0  0  0  0  0
  184.4800  179.4400  144.5260 C   0  0  0  0  0  3  0  0  0  0  0  0
  184.9520  178.5670  145.4840 O   0  0  0  0  0  0  0  0  0  0  0  0
  183.7160  179.0750  145.6140 O   0  0  0  0  0  0  0  0  0  0  0  0
  188.4370  178.2400  141.1750 S   0  0  0  0  0  0  0  0  0  0  0  0
  189.3470  177.1730  142.3270 C   0  0  0  0  0  2  0  0  0  0  0  0
  188.7780  177.3140  143.7300 C   0  0  0  0  0  2  0  0  0  0  0  0
  189.8650  177.7360  144.7160 C   0  0  0  0  0  0  0  0  0  0  0  0
  191.2210  177.0610  144.6630 C   0  0  0  0  0  2  0  0  0  0  0  0
  191.0210  178.4200  144.0160 C   0  0  0  0  0  2  0  0  0  0  0  0
  189.5100  178.4340  145.8930 O   0  0  0  0  0  0  0  0  0  0  0  0
  189.0720  177.5630  146.9260 C   0  0  0  0  0  0  0  0  0  0  0  0
  189.8330  176.3910  146.9670 O   0  0  0  0  0  1  0  0  0  0  0  0
  187.7480  177.2080  146.6650 O   0  0  0  0  0  1  0  0  0  0  0  0
  187.9410  178.0230  148.9930 O   0  0  0  0  0  1  0  0  0  0  0  0
  189.1270  178.2420  148.2900 C   0  0  0  0  0  2  0  0  0  0  0  0
  1  5  1  0  0  0  0
  2  3  1  0  0  0  0
  4  2  2  0  0  0  0
  5  3  2  0  0  0  0
  5 21  1  0  0  0  0
  6  4  1  0  0  0  0
  6  1  2  0  0  0  0
  8  1  1  0  0  0  0
  8  7  1  0  0  0  0
  9  8  2  0  0  0  0
 10  7  1  0  0  0  0
 10 11  1  0  0  0  0
 12 13  1  0  0  0  0
 13 14  1  0  0  0  0
 14 18  1  1  0  0  0
 15 11  1  6  0  0  0
 15 17  1  0  0  0  0
 15 16  1  0  0  0  0
 16 14  1  0  0  0  0
 17 12  1  0  0  0  0
 18 19  1  0  0  0  0
 18 20  1  0  0  0  0
 19 20  1  0  0  0  0
 21 22  1  0  0  0  0
 22 23  1  0  0  0  0
 23 24  1  0  0  0  0
 24 27  1  0  0  0  0
 25 24  1  0  0  0  0
 26 25  1  0  0  0  0
 26 24  1  0  0  0  0
 27 28  1  0  0  0  0
 28 29  1  0  0  0  0
 28 32  1  0  0  0  0
 30 28  1  0  0  0  0
 32 31  1  0  0  0  0
M  END
>  <MODEL>
5

>  <REMARK>
 VINA RESULT:      -7.4      2.235      6.876
  Name = 
  12 active torsions:
  status: ('A' for Active; 'I' for Inactive)
    1  A    between atoms: C_1  and  C_15
    2  A    between atoms: C_2  and  C_10
    3  A    between atoms: C_3  and  C_9
    4  A    between atoms: C_3  and  O_11
    5  A    between atoms: C_6  and  O_11
    6  A    between atoms: C_6  and  C_21
    7  A    between atoms: C_8  and  C_18
    8  A    between atoms: C_8  and  C_24
    9  A    between atoms: C_9  and  C_30
   10  A    between atoms: S_13  and  C_26
   11  A    between atoms: S_13  and  C_30
   12  A    between atoms: N_14  and  C_24
                            x       y       z     vdW  Elec       q    Type
                         _______ _______ _______ _____ _____    ______ ____

>  <TORSDO>
F 12

$$$$
=
 OpenBabel10222416373D

 32 35  0  0  1  0  0  0  0  0999 V2000
  187.9410  176.9980  137.6320 C   0  0  0  0  0  0  0  0  0  0  0  0
  189.9490  175.0390  137.3810 C   0  0  0  0  0  3  0  0  0  0  0  0
  190.1040  176.0890  138.2840 C   0  0  0  0  0  3  0  0  0  0  0  0
  188.8020  174.9660  136.5970 C   0  0  0  0  0  3  0  0  0  0  0  0
  189.1170  177.0730  138.4190 C   0  0  0  0  0  0  0  0  0  0  0  0
  187.8090  175.9390  136.7220 C   0  0  0  0  0  3  0  0  0  0  0  0
  185.7460  177.7570  138.6040 N   0  0  0  0  0  2  0  0  0  0  0  0
  186.8390  177.9850  137.7080 C   0  0  0  0  0  0  0  0  0  0  0  0
  186.8520  179.0290  137.0040 O   0  0  0  0  0  0  0  0  0  0  0  0
  184.5300  178.5580  138.5830 C   0  0  0  0  0  2  0  0  0  0  0  0
  184.3680  179.3270  139.8830 C   0  0  0  0  0  2  0  0  0  0  0  0
  182.1670  178.8850  141.9360 C   0  0  0  0  0  2  0  0  0  0  0  0
  182.5930  178.9430  143.4060 C   0  0  0  0  0  2  0  0  0  0  0  0
  184.0770  178.6060  143.5720 C   0  0  1  0  0  3  0  0  0  0  0  0
  184.2480  178.3840  141.0710 C   0  0  1  0  0  3  0  0  0  0  0  0
  184.8660  179.0160  142.3330 C   0  0  0  0  0  2  0  0  0  0  0  0
  182.9180  177.9140  141.2440 O   0  0  0  0  0  0  0  0  0  0  0  0
  184.6310  179.2940  144.8020 C   0  0  0  0  0  3  0  0  0  0  0  0
  184.9680  178.3540  145.7540 O   0  0  0  0  0  0  0  0  0  0  0  0
  183.8150  179.0320  145.8830 O   0  0  0  0  0  0  0  0  0  0  0  0
  189.4280  178.3820  139.6060 S   0  0  0  0  0  0  0  0  0  0  0  0
  189.1840  177.2930  141.0380 C   0  0  0  0  0  2  0  0  0  0  0  0
  188.9550  178.1220  142.2910 C   0  0  0  0  0  2  0  0  0  0  0  0
  188.9320  177.2350  143.5330 C   0  0  0  0  0  0  0  0  0  0  0  0
  188.2820  177.7490  144.8020 C   0  0  0  0  0  2  0  0  0  0  0  0
  187.5230  176.8040  143.8870 C   0  0  0  0  0  2  0  0  0  0  0  0
  189.8270  176.1460  143.6340 O   0  0  0  0  0  0  0  0  0  0  0  0
  191.0620  176.5160  144.2300 C   0  0  0  0  0  0  0  0  0  0  0  0
  191.6290  177.6220  143.5930 O   0  0  0  0  0  1  0  0  0  0  0  0
  191.9460  175.4440  144.1020 O   0  0  0  0  0  1  0  0  0  0  0  0
  192.0970  176.6230  146.3940 O   0  0  0  0  0  1  0  0  0  0  0  0
  190.8940  176.8250  145.7140 C   0  0  0  0  0  2  0  0  0  0  0  0
  1  8  1  0  0  0  0
  1  5  1  0  0  0  0
  2  3  1  0  0  0  0
  3  5  2  0  0  0  0
  4  6  1  0  0  0  0
  4  2  2  0  0  0  0
  5 21  1  0  0  0  0
  6  1  2  0  0  0  0
  8  7  1  0  0  0  0
  9  8  2  0  0  0  0
 10  7  1  0  0  0  0
 10 11  1  0  0  0  0
 12 13  1  0  0  0  0
 13 14  1  0  0  0  0
 14 18  1  1  0  0  0
 15 11  1  6  0  0  0
 15 17  1  0  0  0  0
 15 16  1  0  0  0  0
 16 14  1  0  0  0  0
 17 12  1  0  0  0  0
 18 19  1  0  0  0  0
 18 20  1  0  0  0  0
 19 20  1  0  0  0  0
 21 22  1  0  0  0  0
 22 23  1  0  0  0  0
 23 24  1  0  0  0  0
 24 27  1  0  0  0  0
 24 26  1  0  0  0  0
 24 25  1  0  0  0  0
 26 25  1  0  0  0  0
 27 28  1  0  0  0  0
 28 32  1  0  0  0  0
 29 28  1  0  0  0  0
 30 28  1  0  0  0  0
 32 31  1  0  0  0  0
M  END
>  <MODEL>
6

>  <REMARK>
 VINA RESULT:      -7.2      2.929      6.728
  Name = 
  12 active torsions:
  status: ('A' for Active; 'I' for Inactive)
    1  A    between atoms: C_1  and  C_15
    2  A    between atoms: C_2  and  C_10
    3  A    between atoms: C_3  and  C_9
    4  A    between atoms: C_3  and  O_11
    5  A    between atoms: C_6  and  O_11
    6  A    between atoms: C_6  and  C_21
    7  A    between atoms: C_8  and  C_18
    8  A    between atoms: C_8  and  C_24
    9  A    between atoms: C_9  and  C_30
   10  A    between atoms: S_13  and  C_26
   11  A    between atoms: S_13  and  C_30
   12  A    between atoms: N_14  and  C_24
                            x       y       z     vdW  Elec       q    Type
                         _______ _______ _______ _____ _____    ______ ____

>  <TORSDO>
F 12

$$$$
=
 OpenBabel10222416373D

 32 35  0  0  1  0  0  0  0  0999 V2000
  186.8260  178.1400  146.3580 C   0  0  0  0  0  0  0  0  0  0  0  0
  189.2980  177.5420  147.5670 C   0  0  0  0  0  3  0  0  0  0  0  0
  189.0380  177.1260  146.2620 C   0  0  0  0  0  3  0  0  0  0  0  0
  188.3300  178.2470  148.2740 C   0  0  0  0  0  3  0  0  0  0  0  0
  187.8120  177.4120  145.6480 C   0  0  0  0  0  0  0  0  0  0  0  0
  187.1050  178.5420  147.6730 C   0  0  0  0  0  3  0  0  0  0  0  0
  185.3460  178.5990  144.3740 N   0  0  0  0  0  2  0  0  0  0  0  0
  185.5040  178.4980  145.7920 C   0  0  0  0  0  0  0  0  0  0  0  0
  184.5130  178.7050  146.5400 O   0  0  0  0  0  0  0  0  0  0  0  0
  184.1500  179.1520  143.7520 C   0  0  0  0  0  2  0  0  0  0  0  0
  183.7010  178.2880  142.5860 C   0  0  0  0  0  2  0  0  0  0  0  0
  182.9870  177.5380  139.7260 C   0  0  0  0  0  2  0  0  0  0  0  0
  184.1210  177.6320  138.6990 C   0  0  0  0  0  2  0  0  0  0  0  0
  185.1930  178.6320  139.1410 C   0  0  1  0  0  3  0  0  0  0  0  0
  183.8880  179.0100  141.2590 C   0  0  1  0  0  3  0  0  0  0  0  0
  185.2750  178.7000  140.6620 C   0  0  0  0  0  2  0  0  0  0  0  0
  182.8040  178.7770  140.3710 O   0  0  0  0  0  0  0  0  0  0  0  0
  186.5350  178.2440  138.5570 C   0  0  0  0  0  3  0  0  0  0  0  0
  186.7900  178.9930  137.4260 O   0  0  0  0  0  0  0  0  0  0  0  0
  186.3550  177.7290  137.2910 O   0  0  0  0  0  0  0  0  0  0  0  0
  187.5830  176.8190  143.9710 S   0  0  0  0  0  0  0  0  0  0  0  0
  188.8670  177.9100  143.2910 C   0  0  0  0  0  2  0  0  0  0  0  0
  189.1110  177.5790  141.8290 C   0  0  0  0  0  2  0  0  0  0  0  0
  190.4710  176.9090  141.6430 C   0  0  0  0  0  0  0  0  0  0  0  0
  191.6740  177.4510  142.3890 C   0  0  0  0  0  2  0  0  0  0  0  0
  190.9390  176.2320  142.9150 C   0  0  0  0  0  2  0  0  0  0  0  0
  190.6970  176.0790  140.5220 O   0  0  0  0  0  0  0  0  0  0  0  0
  191.2290  176.7950  139.4180 C   0  0  0  0  0  0  0  0  0  0  0  0
  192.3790  177.5050  139.7730 O   0  0  0  0  0  1  0  0  0  0  0  0
  190.2690  177.7130  138.9900 O   0  0  0  0  0  1  0  0  0  0  0  0
  190.5620  174.8920  138.1130 O   0  0  0  0  0  1  0  0  0  0  0  0
  191.5550  175.8640  138.2540 C   0  0  0  0  0  2  0  0  0  0  0  0
  1  6  1  0  0  0  0
  2  4  1  0  0  0  0
  3  2  2  0  0  0  0
  5  3  1  0  0  0  0
  5  1  2  0  0  0  0
  6  4  2  0  0  0  0
  7  8  1  0  0  0  0
  8  1  1  0  0  0  0
  8  9  2  0  0  0  0
 10  7  1  0  0  0  0
 11 10  1  0  0  0  0
 12 17  1  0  0  0  0
 13 14  1  0  0  0  0
 13 12  1  0  0  0  0
 14 18  1  6  0  0  0
 14 16  1  0  0  0  0
 15 11  1  1  0  0  0
 16 15  1  0  0  0  0
 17 15  1  0  0  0  0
 19 18  1  0  0  0  0
 20 19  1  0  0  0  0
 20 18  1  0  0  0  0
 21  5  1  0  0  0  0
 22 21  1  0  0  0  0
 23 22  1  0  0  0  0
 24 23  1  0  0  0  0
 24 25  1  0  0  0  0
 24 26  1  0  0  0  0
 25 26  1  0  0  0  0
 27 24  1  0  0  0  0
 28 29  1  0  0  0  0
 28 27  1  0  0  0  0
 30 28  1  0  0  0  0
 31 32  1  0  0  0  0
 32 28  1  0  0  0  0
M  END
>  <MODEL>
7

>  <REMARK>
 VINA RESULT:      -7.1      1.985      3.441
  Name = 
  12 active torsions:
  status: ('A' for Active; 'I' for Inactive)
    1  A    between atoms: C_1  and  C_15
    2  A    between atoms: C_2  and  C_10
    3  A    between atoms: C_3  and  C_9
    4  A    between atoms: C_3  and  O_11
    5  A    between atoms: C_6  and  O_11
    6  A    between atoms: C_6  and  C_21
    7  A    between atoms: C_8  and  C_18
    8  A    between atoms: C_8  and  C_24
    9  A    between atoms: C_9  and  C_30
   10  A    between atoms: S_13  and  C_26
   11  A    between atoms: S_13  and  C_30
   12  A    between atoms: N_14  and  C_24
                            x       y       z     vdW  Elec       q    Type
                         _______ _______ _______ _____ _____    ______ ____

>  <TORSDO>
F 12

$$$$
=
 OpenBabel10222416373D

 32 35  0  0  1  0  0  0  0  0999 V2000
  190.2590  176.8730  145.1960 C   0  0  0  0  0  0  0  0  0  0  0  0
  188.6710  177.6330  147.3940 C   0  0  0  0  0  3  0  0  0  0  0  0
  188.1640  177.7240  146.0990 C   0  0  0  0  0  3  0  0  0  0  0  0
  189.9680  177.1730  147.5970 C   0  0  0  0  0  3  0  0  0  0  0  0
  188.9420  177.3540  144.9950 C   0  0  0  0  0  0  0  0  0  0  0  0
  190.7530  176.7980  146.5070 C   0  0  0  0  0  3  0  0  0  0  0  0
  191.4390  177.3580  143.0260 N   0  0  0  0  0  2  0  0  0  0  0  0
  191.1560  176.4500  144.0940 C   0  0  0  0  0  0  0  0  0  0  0  0
  191.6820  175.3060  144.0890 O   0  0  0  0  0  0  0  0  0  0  0  0
  192.1290  176.9500  141.8080 C   0  0  0  0  0  2  0  0  0  0  0  0
  191.5590  177.6720  140.6000 C   0  0  0  0  0  2  0  0  0  0  0  0
  191.3820  176.3710  137.8550 C   0  0  0  0  0  2  0  0  0  0  0  0
  190.1330  176.7010  137.0310 C   0  0  0  0  0  2  0  0  0  0  0  0
  188.9600  177.1010  137.9290 C   0  0  1  0  0  3  0  0  0  0  0  0
  190.4740  176.8480  139.9230 C   0  0  1  0  0  3  0  0  0  0  0  0
  189.4600  177.7630  139.2080 C   0  0  0  0  0  2  0  0  0  0  0  0
  191.0180  175.8250  139.1020 O   0  0  0  0  0  0  0  0  0  0  0  0
  188.0300  178.0340  137.1820 C   0  0  0  0  0  3  0  0  0  0  0  0
  186.8260  177.4030  136.9430 O   0  0  0  0  0  0  0  0  0  0  0  0
  187.7270  177.4930  135.9500 O   0  0  0  0  0  0  0  0  0  0  0  0
  188.1900  177.5220  143.3750 S   0  0  0  0  0  0  0  0  0  0  0  0
  186.5220  177.7630  144.0510 C   0  0  0  0  0  2  0  0  0  0  0  0
  185.4850  177.5840  142.9550 C   0  0  0  0  0  2  0  0  0  0  0  0
  184.7530  178.8970  142.6810 C   0  0  0  0  0  0  0  0  0  0  0  0
  183.3680  179.1100  143.2580 C   0  0  0  0  0  2  0  0  0  0  0  0
  184.5800  179.7150  143.9440 C   0  0  0  0  0  2  0  0  0  0  0  0
  185.1640  179.7170  141.6060 O   0  0  0  0  0  0  0  0  0  0  0  0
  184.9270  179.1120  140.3440 C   0  0  0  0  0  0  0  0  0  0  0  0
  186.0980  178.5710  139.8060 O   0  0  0  0  0  1  0  0  0  0  0  0
  184.4640  180.0950  139.4680 O   0  0  0  0  0  1  0  0  0  0  0  0
  182.9500  178.1340  139.3930 O   0  0  0  0  0  1  0  0  0  0  0  0
  183.8690  178.0180  140.4390 C   0  0  0  0  0  2  0  0  0  0  0  0
  1  6  1  0  0  0  0
  2  4  1  0  0  0  0
  3  2  2  0  0  0  0
  5  1  2  0  0  0  0
  5  3  1  0  0  0  0
  6  4  2  0  0  0  0
  7  8  1  0  0  0  0
  8  1  1  0  0  0  0
  9  8  2  0  0  0  0
 10  7  1  0  0  0  0
 11 10  1  0  0  0  0
 12 17  1  0  0  0  0
 13 12  1  0  0  0  0
 13 14  1  0  0  0  0
 14 18  1  6  0  0  0
 14 16  1  0  0  0  0
 15 11  1  6  0  0  0
 16 15  1  0  0  0  0
 17 15  1  0  0  0  0
 19 18  1  0  0  0  0
 20 19  1  0  0  0  0
 20 18  1  0  0  0  0
 21 22  1  0  0  0  0
 21  5  1  0  0  0  0
 23 22  1  0  0  0  0
 24 23  1  0  0  0  0
 24 25  1  0  0  0  0
 24 26  1  0  0  0  0
 25 26  1  0  0  0  0
 27 24  1  0  0  0  0
 28 32  1  0  0  0  0
 28 27  1  0  0  0  0
 29 28  1  0  0  0  0
 30 28  1  0  0  0  0
 31 32  1  0  0  0  0
M  END
>  <MODEL>
8

>  <REMARK>
 VINA RESULT:      -7.1      2.216      6.068
  Name = 
  12 active torsions:
  status: ('A' for Active; 'I' for Inactive)
    1  A    between atoms: C_1  and  C_15
    2  A    between atoms: C_2  and  C_10
    3  A    between atoms: C_3  and  C_9
    4  A    between atoms: C_3  and  O_11
    5  A    between atoms: C_6  and  O_11
    6  A    between atoms: C_6  and  C_21
    7  A    between atoms: C_8  and  C_18
    8  A    between atoms: C_8  and  C_24
    9  A    between atoms: C_9  and  C_30
   10  A    between atoms: S_13  and  C_26
   11  A    between atoms: S_13  and  C_30
   12  A    between atoms: N_14  and  C_24
                            x       y       z     vdW  Elec       q    Type
                         _______ _______ _______ _____ _____    ______ ____

>  <TORSDO>
F 12

$$$$
=
 OpenBabel10222416373D

 32 35  0  0  1  0  0  0  0  0999 V2000
  187.3100  177.5140  144.6920 C   0  0  0  0  0  0  0  0  0  0  0  0
  185.4940  178.8890  146.3490 C   0  0  0  0  0  3  0  0  0  0  0  0
  185.3460  178.9290  144.9640 C   0  0  0  0  0  3  0  0  0  0  0  0
  186.5470  178.1750  146.9110 C   0  0  0  0  0  3  0  0  0  0  0  0
  186.2430  178.2540  144.1260 C   0  0  0  0  0  0  0  0  0  0  0  0
  187.4460  177.4950  146.0890 C   0  0  0  0  0  3  0  0  0  0  0  0
  189.6680  177.1920  143.8710 N   0  0  0  0  0  2  0  0  0  0  0  0
  188.3040  176.7620  143.8910 C   0  0  0  0  0  0  0  0  0  0  0  0
  187.9690  175.7410  143.2350 O   0  0  0  0  0  0  0  0  0  0  0  0
  190.6530  176.6440  142.9480 C   0  0  0  0  0  2  0  0  0  0  0  0
  190.7710  177.5130  141.7080 C   0  0  0  0  0  2  0  0  0  0  0  0
  191.3010  176.5910  138.8570 C   0  0  0  0  0  2  0  0  0  0  0  0
  190.4730  177.2710  137.7620 C   0  0  0  0  0  2  0  0  0  0  0  0
  189.1540  177.8150  138.3160 C   0  0  1  0  0  3  0  0  0  0  0  0
  189.8500  177.0220  140.6000 C   0  0  1  0  0  3  0  0  0  0  0  0
  189.3030  178.2080  139.7810 C   0  0  0  0  0  2  0  0  0  0  0  0
  190.4560  176.0020  139.8190 O   0  0  0  0  0  0  0  0  0  0  0  0
  188.6980  179.0030  137.4950 C   0  0  0  0  0  3  0  0  0  0  0  0
  187.3460  178.9050  137.2370 O   0  0  0  0  0  0  0  0  0  0  0  0
  188.2220  178.5660  136.2770 O   0  0  0  0  0  0  0  0  0  0  0  0
  185.9610  178.3820  142.3590 S   0  0  0  0  0  0  0  0  0  0  0  0
  184.1540  178.3420  142.5310 C   0  0  0  0  0  2  0  0  0  0  0  0
  183.5170  177.8640  141.2370 C   0  0  0  0  0  2  0  0  0  0  0  0
  182.2280  178.6310  140.9500 C   0  0  0  0  0  0  0  0  0  0  0  0
  180.9310  177.8670  140.7780 C   0  0  0  0  0  2  0  0  0  0  0  0
  181.2510  178.5350  142.1040 C   0  0  0  0  0  2  0  0  0  0  0  0
  182.2950  179.9550  140.4610 O   0  0  0  0  0  0  0  0  0  0  0  0
  182.7140  180.0100  139.1050 C   0  0  0  0  0  0  0  0  0  0  0  0
  182.5010  178.7930  138.4530 O   0  0  0  0  0  1  0  0  0  0  0  0
  184.0830  180.2790  139.0820 O   0  0  0  0  0  1  0  0  0  0  0  0
  180.6770  181.2420  138.7890 O   0  0  0  0  0  1  0  0  0  0  0  0
  181.9950  181.1180  138.3430 C   0  0  0  0  0  2  0  0  0  0  0  0
  1  6  1  0  0  0  0
  2  4  1  0  0  0  0
  3  2  2  0  0  0  0
  5  1  2  0  0  0  0
  5  3  1  0  0  0  0
  6  4  2  0  0  0  0
  7  8  1  0  0  0  0
  8  1  1  0  0  0  0
  9  8  2  0  0  0  0
 10  7  1  0  0  0  0
 11 10  1  0  0  0  0
 12 17  1  0  0  0  0
 13 14  1  0  0  0  0
 13 12  1  0  0  0  0
 14 18  1  6  0  0  0
 14 16  1  0  0  0  0
 15 11  1  1  0  0  0
 16 15  1  0  0  0  0
 17 15  1  0  0  0  0
 19 18  1  0  0  0  0
 20 19  1  0  0  0  0
 20 18  1  0  0  0  0
 21 22  1  0  0  0  0
 21  5  1  0  0  0  0
 23 22  1  0  0  0  0
 24 23  1  0  0  0  0
 24 26  1  0  0  0  0
 25 24  1  0  0  0  0
 25 26  1  0  0  0  0
 27 24  1  0  0  0  0
 28 27  1  0  0  0  0
 29 28  1  0  0  0  0
 30 28  1  0  0  0  0
 32 31  1  0  0  0  0
 32 28  1  0  0  0  0
M  END
>  <MODEL>
9

>  <REMARK>
 VINA RESULT:      -7.0      2.435      6.729
  Name = 
  12 active torsions:
  status: ('A' for Active; 'I' for Inactive)
    1  A    between atoms: C_1  and  C_15
    2  A    between atoms: C_2  and  C_10
    3  A    between atoms: C_3  and  C_9
    4  A    between atoms: C_3  and  O_11
    5  A    between atoms: C_6  and  O_11
    6  A    between atoms: C_6  and  C_21
    7  A    between atoms: C_8  and  C_18
    8  A    between atoms: C_8  and  C_24
    9  A    between atoms: C_9  and  C_30
   10  A    between atoms: S_13  and  C_26
   11  A    between atoms: S_13  and  C_30
   12  A    between atoms: N_14  and  C_24
                            x       y       z     vdW  Elec       q    Type
                         _______ _______ _______ _____ _____    ______ ____

>  <TORSDO>
F 12

$$$$
