=
 OpenBabel10222418583D

 43 48  0  0  1  0  0  0  0  0999 V2000
  188.8370  179.1490  138.3410 O   0  0  0  0  0  0  0  0  0  0  0  0
  188.3080  178.0300  138.5820 C   0  0  0  0  0  0  0  0  0  0  0  0
  188.4980  176.9390  137.6550 N   0  0  0  0  0  0  0  0  0  0  0  0
  189.6310  174.4540  136.5010 C   0  0  0  0  0  1  0  0  0  0  0  0
  189.3880  177.1220  136.4940 C   0  0  2  0  0  3  0  0  0  0  0  0
  190.0140  175.8260  135.9590 C   0  0  2  0  0  0  0  0  0  0  0  0
  190.2930  175.8770  134.5940 O   0  0  0  0  0  1  0  0  0  0  0  0
  190.8760  176.7840  136.7710 C   0  0  2  0  0  3  0  0  0  0  0  0
  190.8630  175.1790  138.6720 O   0  0  0  0  0  1  0  0  0  0  0  0
  191.2720  176.4390  138.2340 C   0  0  1  0  0  3  0  0  0  0  0  0
  192.7840  176.5660  138.4120 C   0  0  0  0  0  2  0  0  0  0  0  0
  193.5790  175.7940  137.3590 C   0  0  1  0  0  3  0  0  0  0  0  0
  194.3880  176.6580  136.6140 O   0  0  0  0  0  1  0  0  0  0  0  0
  194.4290  174.6980  137.9910 C   0  0  0  0  0  1  0  0  0  0  0  0
  187.6190  177.8190  139.9130 C   0  0  2  0  0  3  0  0  0  0  0  0
  187.9180  178.9430  140.8910 C   0  0  0  0  0  2  0  0  0  0  0  0
  188.5490  177.5880  141.1180 C   0  0  2  0  0  3  0  0  0  0  0  0
  189.9650  177.6480  140.7740 N   0  0  0  0  0  2  0  0  0  0  0  0
  192.3500  177.0870  141.7700 O   0  0  0  0  0  0  0  0  0  0  0  0
  190.8860  177.0740  142.1280 S   0  0  0  0  0  0  0  0  0  0  0  0
  190.6180  178.1400  143.5280 C   0  0  0  0  0  1  0  0  0  0  0  0
  190.4760  175.6710  142.4830 O   0  0  0  0  0  0  0  0  0  0  0  0
  187.5600  175.8170  137.6630 C   0  0  0  0  0  2  0  0  0  0  0  0
  183.9610  175.3750  136.7570 C   0  0  0  0  0  0  0  0  0  0  0  0
  184.6830  177.7150  136.6110 C   0  0  0  0  0  3  0  0  0  0  0  0
  186.4850  175.9840  136.5880 C   0  0  1  0  0  3  0  0  0  0  0  0
  185.6950  173.7530  136.9290 O   0  0  0  0  0  0  0  0  0  0  0  0
  185.3870  174.9650  136.7750 C   0  0  0  0  0  0  0  0  0  0  0  0
  185.9800  177.4040  136.5630 C   0  0  0  0  0  3  0  0  0  0  0  0
  183.6490  176.6720  136.6930 C   0  0  0  0  0  3  0  0  0  0  0  0
  181.0560  173.3830  137.3270 C   0  0  0  0  0  0  0  0  0  0  0  0
  179.6610  173.7180  139.3240 N   0  0  0  0  0  2  0  0  0  0  0  0
  180.0230  174.6950  140.0690 N   0  0  0  0  0  2  0  0  0  0  0  0
  180.6120  175.2190  138.0770 C   0  0  1  0  0  3  0  0  0  0  0  0
  179.8820  174.0170  137.9070 C   0  0  1  0  0  3  0  0  0  0  0  0
  180.5870  175.7390  139.2760 C   0  0  2  0  0  3  0  0  0  0  0  0
  181.6670  174.5670  137.3180 N   0  0  0  0  0  0  0  0  0  0  0  0
  181.8250  172.3830  136.8000 C   0  0  0  0  0  3  0  0  0  0  0  0
  182.9990  173.0430  136.4680 N   0  0  0  0  0  0  0  0  0  0  0  0
  182.8710  174.3810  136.7870 C   0  0  0  0  0  0  0  0  0  0  0  0
  181.6400  176.5810  139.7780 C   0  0  0  0  0  0  0  0  0  0  0  0
  183.5650  178.1540  140.7450 C   0  0  0  0  0  1  0  0  0  0  0  0
  182.5130  177.2890  140.2120 C   0  0  0  0  0  0  0  0  0  0  0  0
  1  2  2  0  0  0  0
  3 23  1  0  0  0  0
  3  2  1  0  0  0  0
  5  8  1  0  0  0  0
  5  3  1  1  0  0  0
  6  5  1  0  0  0  0
  6  4  1  1  0  0  0
  6  8  1  0  0  0  0
  7  6  1  0  0  0  0
  8 10  1  1  0  0  0
 10 11  1  0  0  0  0
 10  9  1  6  0  0  0
 12 14  1  1  0  0  0
 12 11  1  0  0  0  0
 13 12  1  0  0  0  0
 15  2  1  6  0  0  0
 15 16  1  0  0  0  0
 15 17  1  0  0  0  0
 16 17  1  0  0  0  0
 17 18  1  6  0  0  0
 18 20  1  0  0  0  0
 19 20  2  0  0  0  0
 20 22  2  0  0  0  0
 20 21  1  0  0  0  0
 24 28  1  0  0  0  0
 24 40  1  0  0  0  0
 25 30  1  0  0  0  0
 26 28  1  0  0  0  0
 26 23  1  1  0  0  0
 28 27  2  0  0  0  0
 29 26  1  0  0  0  0
 29 25  2  0  0  0  0
 30 24  2  0  0  0  0
 32 33  1  0  0  0  0
 34 37  1  1  0  0  0
 34 36  1  0  0  0  0
 35 31  1  1  0  0  0
 35 34  1  0  0  0  0
 35 32  1  0  0  0  0
 36 41  1  1  0  0  0
 36 33  1  0  0  0  0
 37 31  1  0  0  0  0
 38 31  2  0  0  0  0
 39 40  2  0  0  0  0
 39 38  1  0  0  0  0
 40 37  1  0  0  0  0
 41 43  3  0  0  0  0
 43 42  1  0  0  0  0
M  END
>  <MODEL>
1

>  <REMARK>
 VINA RESULT:      -6.3      0.000      0.000
  Name = 
  11 active torsions:
  status: ('A' for Active; 'I' for Inactive)
    1  A    between atoms: C_1  and  C_38
    2  A    between atoms: C_3  and  C_43
    3  A    between atoms: N_6  and  S_12
    4  A    between atoms: N_6  and  C_41
    5  A    between atoms: C_10  and  C_28
    6  A    between atoms: C_13  and  C_27
    7  A    between atoms: C_14  and  C_17
    8  A    between atoms: C_19  and  N_29
    9  A    between atoms: C_28  and  N_29
   10  A    between atoms: C_35  and  C_38
   11  A    between atoms: C_35  and  C_42
                            x       y       z     vdW  Elec       q    Type
                         _______ _______ _______ _____ _____    ______ ____

>  <TORSDO>
F 11

$$$$
=
 OpenBabel10222418583D

 43 48  0  0  1  0  0  0  0  0999 V2000
  189.0540  178.9200  141.8620 O   0  0  0  0  0  0  0  0  0  0  0  0
  188.0230  178.2480  141.5860 C   0  0  0  0  0  0  0  0  0  0  0  0
  187.5300  178.2290  140.2290 N   0  0  0  0  0  0  0  0  0  0  0  0
  186.7610  177.5510  137.4470 C   0  0  0  0  0  1  0  0  0  0  0  0
  188.2940  178.9130  139.1710 C   0  0  2  0  0  3  0  0  0  0  0  0
  187.9230  178.4930  137.7410 C   0  0  2  0  0  0  0  0  0  0  0  0
  188.1290  179.5040  136.8030 O   0  0  0  0  0  1  0  0  0  0  0  0
  189.2210  177.9800  138.3490 C   0  0  2  0  0  3  0  0  0  0  0  0
  189.4090  175.5660  137.7800 O   0  0  0  0  0  1  0  0  0  0  0  0
  189.3440  176.5020  138.8130 C   0  0  1  0  0  3  0  0  0  0  0  0
  190.5620  176.3350  139.7200 C   0  0  0  0  0  2  0  0  0  0  0  0
  191.7180  177.2660  139.3490 C   0  0  1  0  0  3  0  0  0  0  0  0
  192.3600  177.7410  140.4960 O   0  0  0  0  0  1  0  0  0  0  0  0
  192.7220  176.5740  138.4350 C   0  0  0  0  0  1  0  0  0  0  0  0
  187.4230  177.3580  142.6530 C   0  0  2  0  0  3  0  0  0  0  0  0
  187.9840  177.6680  144.0310 C   0  0  0  0  0  2  0  0  0  0  0  0
  188.4020  176.3880  143.3420 C   0  0  2  0  0  3  0  0  0  0  0  0
  189.7750  176.5190  142.8660 N   0  0  0  0  0  2  0  0  0  0  0  0
  191.8720  175.6130  144.1990 O   0  0  0  0  0  0  0  0  0  0  0  0
  190.8200  176.6920  144.2400 S   0  0  0  0  0  0  0  0  0  0  0  0
  191.6150  178.2840  144.1890 C   0  0  0  0  0  1  0  0  0  0  0  0
  190.0320  176.5670  145.5150 O   0  0  0  0  0  0  0  0  0  0  0  0
  186.1380  177.8590  139.9760 C   0  0  0  0  0  2  0  0  0  0  0  0
  182.8070  179.5480  139.8010 C   0  0  0  0  0  0  0  0  0  0  0  0
  183.0810  178.2240  141.8490 C   0  0  0  0  0  3  0  0  0  0  0  0
  185.1720  178.8480  140.6310 C   0  0  1  0  0  3  0  0  0  0  0  0
  184.7910  179.9660  138.5530 O   0  0  0  0  0  0  0  0  0  0  0  0
  184.2750  179.4790  139.5940 C   0  0  0  0  0  0  0  0  0  0  0  0
  184.4100  178.1800  141.7480 C   0  0  0  0  0  3  0  0  0  0  0  0
  182.2620  178.9400  140.8580 C   0  0  0  0  0  3  0  0  0  0  0  0
  180.6090  180.7220  137.2470 C   0  0  0  0  0  0  0  0  0  0  0  0
  180.1400  179.3610  135.2540 N   0  0  0  0  0  2  0  0  0  0  0  0
  180.6810  178.2000  135.2620 N   0  0  0  0  0  2  0  0  0  0  0  0
  180.3380  178.7080  137.3150 C   0  0  1  0  0  3  0  0  0  0  0  0
  179.7240  179.7660  136.5990 C   0  0  1  0  0  3  0  0  0  0  0  0
  180.7600  177.7010  136.5970 C   0  0  2  0  0  3  0  0  0  0  0  0
  181.0430  179.7480  138.0470 N   0  0  0  0  0  0  0  0  0  0  0  0
  181.1850  181.9310  137.5200 C   0  0  0  0  0  3  0  0  0  0  0  0
  182.0460  181.6310  138.5660 N   0  0  0  0  0  0  0  0  0  0  0  0
  181.9310  180.2900  138.8750 C   0  0  0  0  0  0  0  0  0  0  0  0
  181.8390  176.8470  137.0180 C   0  0  0  0  0  0  0  0  0  0  0  0
  183.8490  175.2940  137.8310 C   0  0  0  0  0  1  0  0  0  0  0  0
  182.7450  176.1420  137.3830 C   0  0  0  0  0  0  0  0  0  0  0  0
  2  1  2  0  0  0  0
  3  2  1  0  0  0  0
  5  3  1  1  0  0  0
  6  4  1  6  0  0  0
  6  8  1  0  0  0  0
  6  5  1  0  0  0  0
  7  6  1  0  0  0  0
  8 10  1  1  0  0  0
  8  5  1  0  0  0  0
 10  9  1  6  0  0  0
 10 11  1  0  0  0  0
 12 14  1  6  0  0  0
 12 11  1  0  0  0  0
 12 13  1  0  0  0  0
 15  2  1  6  0  0  0
 15 17  1  0  0  0  0
 15 16  1  0  0  0  0
 17 18  1  6  0  0  0
 17 16  1  0  0  0  0
 18 20  1  0  0  0  0
 19 20  2  0  0  0  0
 20 22  2  0  0  0  0
 21 20  1  0  0  0  0
 23  3  1  0  0  0  0
 24 30  2  0  0  0  0
 26 23  1  6  0  0  0
 26 29  1  0  0  0  0
 27 28  2  0  0  0  0
 28 24  1  0  0  0  0
 28 26  1  0  0  0  0
 29 25  2  0  0  0  0
 30 25  1  0  0  0  0
 31 38  2  0  0  0  0
 31 37  1  0  0  0  0
 32 33  1  0  0  0  0
 33 36  1  0  0  0  0
 34 37  1  6  0  0  0
 35 32  1  6  0  0  0
 35 31  1  0  0  0  0
 35 34  1  0  0  0  0
 36 41  1  1  0  0  0
 36 34  1  0  0  0  0
 37 40  1  0  0  0  0
 38 39  1  0  0  0  0
 39 40  2  0  0  0  0
 40 24  1  0  0  0  0
 41 43  3  0  0  0  0
 43 42  1  0  0  0  0
M  END
>  <MODEL>
2

>  <REMARK>
 VINA RESULT:      -6.2      2.906      4.584
  Name = 
  11 active torsions:
  status: ('A' for Active; 'I' for Inactive)
    1  A    between atoms: C_1  and  C_38
    2  A    between atoms: C_3  and  C_43
    3  A    between atoms: N_6  and  S_12
    4  A    between atoms: N_6  and  C_41
    5  A    between atoms: C_10  and  C_28
    6  A    between atoms: C_13  and  C_27
    7  A    between atoms: C_14  and  C_17
    8  A    between atoms: C_19  and  N_29
    9  A    between atoms: C_28  and  N_29
   10  A    between atoms: C_35  and  C_38
   11  A    between atoms: C_35  and  C_42
                            x       y       z     vdW  Elec       q    Type
                         _______ _______ _______ _____ _____    ______ ____

>  <TORSDO>
F 11

$$$$
=
 OpenBabel10222418583D

 43 48  0  0  1  0  0  0  0  0999 V2000
  189.0540  179.0410  139.3730 O   0  0  0  0  0  0  0  0  0  0  0  0
  188.2680  178.0540  139.3600 C   0  0  0  0  0  0  0  0  0  0  0  0
  188.1020  177.2930  138.1450 N   0  0  0  0  0  0  0  0  0  0  0  0
  188.4700  175.0960  136.1870 C   0  0  0  0  0  1  0  0  0  0  0  0
  188.9270  177.6180  136.9680 C   0  0  2  0  0  3  0  0  0  0  0  0
  189.1580  176.4440  136.0050 C   0  0  2  0  0  0  0  0  0  0  0  0
  189.3470  176.8490  134.6850 O   0  0  0  0  0  1  0  0  0  0  0  0
  190.2920  176.8830  136.9230 C   0  0  2  0  0  3  0  0  0  0  0  0
  190.5780  174.6440  137.9690 O   0  0  0  0  0  1  0  0  0  0  0  0
  190.6840  176.0230  138.1570 C   0  0  1  0  0  3  0  0  0  0  0  0
  192.1050  176.3620  138.6030 C   0  0  0  0  0  2  0  0  0  0  0  0
  193.1630  176.0060  137.5570 C   0  0  1  0  0  3  0  0  0  0  0  0
  193.9290  177.1280  137.2250 O   0  0  0  0  0  1  0  0  0  0  0  0
  194.0680  174.8780  138.0370 C   0  0  0  0  0  1  0  0  0  0  0  0
  187.6390  177.6050  140.6620 C   0  0  2  0  0  3  0  0  0  0  0  0
  187.8370  178.6260  141.7690 C   0  0  0  0  0  2  0  0  0  0  0  0
  188.6190  177.3330  141.8180 C   0  0  2  0  0  3  0  0  0  0  0  0
  190.0110  177.5940  141.4680 N   0  0  0  0  0  2  0  0  0  0  0  0
  192.2980  176.7380  142.4850 O   0  0  0  0  0  0  0  0  0  0  0  0
  190.9870  177.3660  142.8850 S   0  0  0  0  0  0  0  0  0  0  0  0
  191.3040  178.9410  143.6520 C   0  0  0  0  0  1  0  0  0  0  0  0
  190.2850  176.4660  143.8650 O   0  0  0  0  0  0  0  0  0  0  0  0
  186.9050  176.4710  137.9700 C   0  0  0  0  0  2  0  0  0  0  0  0
  183.2470  177.2140  138.1740 C   0  0  0  0  0  0  0  0  0  0  0  0
  184.6320  179.1890  138.6240 C   0  0  0  0  0  3  0  0  0  0  0  0
  185.7380  177.2960  137.4260 C   0  0  1  0  0  3  0  0  0  0  0  0
  184.3670  175.3500  137.2060 O   0  0  0  0  0  0  0  0  0  0  0  0
  184.4370  176.5480  137.5900 C   0  0  0  0  0  0  0  0  0  0  0  0
  185.7200  178.6650  138.0580 C   0  0  0  0  0  3  0  0  0  0  0  0
  183.3610  178.4500  138.6680 C   0  0  0  0  0  3  0  0  0  0  0  0
  179.9750  175.9640  138.8520 C   0  0  0  0  0  0  0  0  0  0  0  0
  178.9590  176.2100  141.0770 N   0  0  0  0  0  2  0  0  0  0  0  0
  179.6640  176.8770  141.9130 N   0  0  0  0  0  2  0  0  0  0  0  0
  180.1580  177.6470  139.9760 C   0  0  1  0  0  3  0  0  0  0  0  0
  179.1010  176.7390  139.7190 C   0  0  1  0  0  3  0  0  0  0  0  0
  180.4120  177.8850  141.2360 C   0  0  2  0  0  3  0  0  0  0  0  0
  180.8940  176.9230  138.9520 N   0  0  0  0  0  0  0  0  0  0  0  0
  180.3650  174.9360  138.0390 C   0  0  0  0  0  3  0  0  0  0  0  0
  181.6350  175.3270  137.6410 N   0  0  0  0  0  0  0  0  0  0  0  0
  181.9300  176.5520  138.2070 C   0  0  0  0  0  0  0  0  0  0  0  0
  181.7090  178.3000  141.7000 C   0  0  0  0  0  0  0  0  0  0  0  0
  184.1210  179.0260  142.5780 C   0  0  0  0  0  1  0  0  0  0  0  0
  182.7990  178.6320  142.0930 C   0  0  0  0  0  0  0  0  0  0  0  0
  2  1  2  0  0  0  0
  3  2  1  0  0  0  0
  5  3  1  1  0  0  0
  6  4  1  1  0  0  0
  6  8  1  0  0  0  0
  6  5  1  0  0  0  0
  7  6  1  0  0  0  0
  8  5  1  0  0  0  0
  8 10  1  1  0  0  0
 10  9  1  6  0  0  0
 10 11  1  0  0  0  0
 12 14  1  1  0  0  0
 12 11  1  0  0  0  0
 13 12  1  0  0  0  0
 15  2  1  6  0  0  0
 15 16  1  0  0  0  0
 15 17  1  0  0  0  0
 16 17  1  0  0  0  0
 17 18  1  6  0  0  0
 18 20  1  0  0  0  0
 19 20  2  0  0  0  0
 20 21  1  0  0  0  0
 20 22  2  0  0  0  0
 23  3  1  0  0  0  0
 24 40  1  0  0  0  0
 24 30  2  0  0  0  0
 25 30  1  0  0  0  0
 26 28  1  0  0  0  0
 26 23  1  1  0  0  0
 26 29  1  0  0  0  0
 27 28  2  0  0  0  0
 28 24  1  0  0  0  0
 29 25  2  0  0  0  0
 31 37  1  0  0  0  0
 32 33  1  0  0  0  0
 34 37  1  1  0  0  0
 34 36  1  0  0  0  0
 35 31  1  6  0  0  0
 35 34  1  0  0  0  0
 35 32  1  0  0  0  0
 36 41  1  6  0  0  0
 36 33  1  0  0  0  0
 38 31  2  0  0  0  0
 39 38  1  0  0  0  0
 39 40  2  0  0  0  0
 40 37  1  0  0  0  0
 41 43  3  0  0  0  0
 43 42  1  0  0  0  0
M  END
>  <MODEL>
3

>  <REMARK>
 VINA RESULT:      -6.1      1.463      1.951
  Name = 
  11 active torsions:
  status: ('A' for Active; 'I' for Inactive)
    1  A    between atoms: C_1  and  C_38
    2  A    between atoms: C_3  and  C_43
    3  A    between atoms: N_6  and  S_12
    4  A    between atoms: N_6  and  C_41
    5  A    between atoms: C_10  and  C_28
    6  A    between atoms: C_13  and  C_27
    7  A    between atoms: C_14  and  C_17
    8  A    between atoms: C_19  and  N_29
    9  A    between atoms: C_28  and  N_29
   10  A    between atoms: C_35  and  C_38
   11  A    between atoms: C_35  and  C_42
                            x       y       z     vdW  Elec       q    Type
                         _______ _______ _______ _____ _____    ______ ____

>  <TORSDO>
F 11

$$$$
=
 OpenBabel10222418583D

 43 48  0  0  1  0  0  0  0  0999 V2000
  182.4860  179.1890  138.4850 O   0  0  0  0  0  0  0  0  0  0  0  0
  182.9140  178.4020  139.3730 C   0  0  0  0  0  0  0  0  0  0  0  0
  182.4740  178.5630  140.7380 N   0  0  0  0  0  0  0  0  0  0  0  0
  181.2000  178.3160  143.4040 C   0  0  0  0  0  1  0  0  0  0  0  0
  181.4570  179.5800  141.0560 C   0  0  2  0  0  3  0  0  0  0  0  0
  180.7640  179.3900  142.4130 C   0  0  2  0  0  0  0  0  0  0  0  0
  180.3280  180.5870  142.9780 O   0  0  0  0  0  1  0  0  0  0  0  0
  180.0090  179.0300  141.1400 C   0  0  2  0  0  3  0  0  0  0  0  0
  179.0070  176.8110  141.6510 O   0  0  0  0  0  1  0  0  0  0  0  0
  179.7840  177.5420  140.7520 C   0  0  1  0  0  3  0  0  0  0  0  0
  179.1610  177.4510  139.3600 C   0  0  0  0  0  2  0  0  0  0  0  0
  179.0790  176.0180  138.8320 C   0  0  1  0  0  3  0  0  0  0  0  0
  178.9400  176.0080  137.4410 O   0  0  0  0  0  1  0  0  0  0  0  0
  180.2980  175.2000  139.2420 C   0  0  0  0  0  1  0  0  0  0  0  0
  183.7570  177.2170  138.9530 C   0  0  2  0  0  3  0  0  0  0  0  0
  184.5010  177.4810  137.6550 C   0  0  0  0  0  2  0  0  0  0  0  0
  183.3310  176.5240  137.6450 C   0  0  2  0  0  3  0  0  0  0  0  0
  182.1880  177.1620  137.0000 N   0  0  0  0  0  2  0  0  0  0  0  0
  183.1690  176.6710  134.5940 O   0  0  0  0  0  0  0  0  0  0  0  0
  181.9500  176.4260  135.4460 S   0  0  0  0  0  0  0  0  0  0  0  0
  181.7190  174.6730  135.6440 C   0  0  0  0  0  1  0  0  0  0  0  0
  180.7450  177.0170  134.7670 O   0  0  0  0  0  0  0  0  0  0  0  0
  183.2730  177.9920  141.8220 C   0  0  0  0  0  2  0  0  0  0  0  0
  186.5940  178.2350  143.5210 C   0  0  0  0  0  0  0  0  0  0  0  0
  186.7380  178.6810  141.1120 C   0  0  0  0  0  3  0  0  0  0  0  0
  184.4750  178.8770  142.1540 C   0  0  1  0  0  3  0  0  0  0  0  0
  184.4040  178.2380  144.4560 O   0  0  0  0  0  0  0  0  0  0  0  0
  185.1250  178.4290  143.4400 C   0  0  0  0  0  0  0  0  0  0  0  0
  185.4320  178.9250  140.9900 C   0  0  0  0  0  3  0  0  0  0  0  0
  187.3340  178.3430  142.4140 C   0  0  0  0  0  3  0  0  0  0  0  0
  188.7950  177.4840  146.2260 C   0  0  0  0  0  0  0  0  0  0  0  0
  191.0560  176.6090  145.8160 N   0  0  0  0  0  2  0  0  0  0  0  0
  191.3790  176.5280  144.5790 N   0  0  0  0  0  2  0  0  0  0  0  0
  189.9890  178.1520  144.7220 C   0  0  1  0  0  3  0  0  0  0  0  0
  190.2120  177.7790  146.0710 C   0  0  1  0  0  3  0  0  0  0  0  0
  190.7560  177.5740  143.8350 C   0  0  2  0  0  3  0  0  0  0  0  0
  188.5730  178.0150  145.0240 N   0  0  0  0  0  0  0  0  0  0  0  0
  187.6520  177.0530  146.8370 C   0  0  0  0  0  3  0  0  0  0  0  0
  186.6740  177.3450  145.8970 N   0  0  0  0  0  0  0  0  0  0  0  0
  187.2650  177.9430  144.8010 C   0  0  0  0  0  0  0  0  0  0  0  0
  190.3550  177.3890  142.4660 C   0  0  0  0  0  0  0  0  0  0  0  0
  189.6520  177.0270  139.9190 C   0  0  0  0  0  1  0  0  0  0  0  0
  190.0320  177.2270  141.3170 C   0  0  0  0  0  0  0  0  0  0  0  0
  1  2  2  0  0  0  0
  2  3  1  0  0  0  0
  3 23  1  0  0  0  0
  5  3  1  1  0  0  0
  5  8  1  0  0  0  0
  5  6  1  0  0  0  0
  6  7  1  0  0  0  0
  6  4  1  1  0  0  0
  8 10  1  1  0  0  0
  8  6  1  0  0  0  0
 10  9  1  1  0  0  0
 11 10  1  0  0  0  0
 12 14  1  6  0  0  0
 12 11  1  0  0  0  0
 13 12  1  0  0  0  0
 15  2  1  6  0  0  0
 16 15  1  0  0  0  0
 17 18  1  6  0  0  0
 17 16  1  0  0  0  0
 17 15  1  0  0  0  0
 19 20  2  0  0  0  0
 20 21  1  0  0  0  0
 20 18  1  0  0  0  0
 22 20  2  0  0  0  0
 24 40  1  0  0  0  0
 25 30  1  0  0  0  0
 26 23  1  6  0  0  0
 26 28  1  0  0  0  0
 28 24  1  0  0  0  0
 28 27  2  0  0  0  0
 29 25  2  0  0  0  0
 29 26  1  0  0  0  0
 30 24  2  0  0  0  0
 31 38  2  0  0  0  0
 33 32  1  0  0  0  0
 34 37  1  6  0  0  0
 34 35  1  0  0  0  0
 35 32  1  6  0  0  0
 35 31  1  0  0  0  0
 36 41  1  6  0  0  0
 36 33  1  0  0  0  0
 36 34  1  0  0  0  0
 37 31  1  0  0  0  0
 39 38  1  0  0  0  0
 40 37  1  0  0  0  0
 40 39  2  0  0  0  0
 42 43  1  0  0  0  0
 43 41  3  0  0  0  0
M  END
>  <MODEL>
4

>  <REMARK>
 VINA RESULT:      -6.1      4.564     10.420
  Name = 
  11 active torsions:
  status: ('A' for Active; 'I' for Inactive)
    1  A    between atoms: C_1  and  C_38
    2  A    between atoms: C_3  and  C_43
    3  A    between atoms: N_6  and  S_12
    4  A    between atoms: N_6  and  C_41
    5  A    between atoms: C_10  and  C_28
    6  A    between atoms: C_13  and  C_27
    7  A    between atoms: C_14  and  C_17
    8  A    between atoms: C_19  and  N_29
    9  A    between atoms: C_28  and  N_29
   10  A    between atoms: C_35  and  C_38
   11  A    between atoms: C_35  and  C_42
                            x       y       z     vdW  Elec       q    Type
                         _______ _______ _______ _____ _____    ______ ____

>  <TORSDO>
F 11

$$$$
=
 OpenBabel10222418583D

 43 48  0  0  1  0  0  0  0  0999 V2000
  187.3400  176.3950  143.8360 O   0  0  0  0  0  0  0  0  0  0  0  0
  187.2080  177.4670  143.1850 C   0  0  0  0  0  0  0  0  0  0  0  0
  185.9590  178.1880  143.2470 N   0  0  0  0  0  0  0  0  0  0  0  0
  184.1750  180.2870  144.3430 C   0  0  0  0  0  1  0  0  0  0  0  0
  184.8930  177.7140  144.1470 C   0  0  2  0  0  3  0  0  0  0  0  0
  184.0270  178.8260  144.7540 C   0  0  2  0  0  0  0  0  0  0  0  0
  182.7270  178.4120  145.0420 O   0  0  0  0  0  1  0  0  0  0  0  0
  185.0700  178.1410  145.6270 C   0  0  2  0  0  3  0  0  0  0  0  0
  186.2210  179.9680  146.8640 O   0  0  0  0  0  1  0  0  0  0  0  0
  186.3850  178.8780  146.0080 C   0  0  1  0  0  3  0  0  0  0  0  0
  187.3760  177.8950  146.6300 C   0  0  0  0  0  2  0  0  0  0  0  0
  187.6530  178.1770  148.1070 C   0  0  1  0  0  3  0  0  0  0  0  0
  187.3270  177.0690  148.8940 O   0  0  0  0  0  1  0  0  0  0  0  0
  189.1060  178.5740  148.3380 C   0  0  0  0  0  1  0  0  0  0  0  0
  188.4170  178.0460  142.4810 C   0  0  2  0  0  3  0  0  0  0  0  0
  189.3760  176.9640  142.0180 C   0  0  0  0  0  2  0  0  0  0  0  0
  189.7680  177.8360  143.1890 C   0  0  2  0  0  3  0  0  0  0  0  0
  189.6580  177.0670  144.4250 N   0  0  0  0  0  2  0  0  0  0  0  0
  192.0620  178.0630  144.8950 O   0  0  0  0  0  0  0  0  0  0  0  0
  191.2540  176.8010  145.0510 S   0  0  0  0  0  0  0  0  0  0  0  0
  191.1560  176.3810  146.7780 C   0  0  0  0  0  1  0  0  0  0  0  0
  191.9300  175.6840  144.3030 O   0  0  0  0  0  0  0  0  0  0  0  0
  185.6250  179.1390  142.1880 C   0  0  0  0  0  2  0  0  0  0  0  0
  183.1910  179.3470  139.3580 C   0  0  0  0  0  0  0  0  0  0  0  0
  185.4930  178.9840  138.5900 C   0  0  0  0  0  3  0  0  0  0  0  0
  185.0110  178.4330  140.9790 C   0  0  1  0  0  3  0  0  0  0  0  0
  182.7970  179.0010  141.6810 O   0  0  0  0  0  0  0  0  0  0  0  0
  183.6120  178.9410  140.7220 C   0  0  0  0  0  0  0  0  0  0  0  0
  185.9160  178.5540  139.7800 C   0  0  0  0  0  3  0  0  0  0  0  0
  184.0920  179.3740  138.3720 C   0  0  0  0  0  3  0  0  0  0  0  0
  179.8250  179.6450  138.2160 C   0  0  0  0  0  0  0  0  0  0  0  0
  179.0320  178.3800  136.2610 N   0  0  0  0  0  2  0  0  0  0  0  0
  179.8950  177.5760  135.7630 N   0  0  0  0  0  2  0  0  0  0  0  0
  180.3550  177.7170  137.8500 C   0  0  1  0  0  3  0  0  0  0  0  0
  179.1520  178.4540  137.7190 C   0  0  1  0  0  3  0  0  0  0  0  0
  180.7390  177.0560  136.7890 C   0  0  2  0  0  3  0  0  0  0  0  0
  180.8880  178.8980  138.5100 N   0  0  0  0  0  0  0  0  0  0  0  0
  179.9850  180.9580  138.5600 C   0  0  0  0  0  3  0  0  0  0  0  0
  181.2670  180.9800  139.0900 N   0  0  0  0  0  0  0  0  0  0  0  0
  181.7920  179.7040  139.0560 C   0  0  0  0  0  0  0  0  0  0  0  0
  182.1160  176.7280  136.5370 C   0  0  0  0  0  0  0  0  0  0  0  0
  184.6820  176.1640  136.0710 C   0  0  0  0  0  1  0  0  0  0  0  0
  183.2740  176.4680  136.3280 C   0  0  0  0  0  0  0  0  0  0  0  0
  2  3  1  0  0  0  0
  2  1  2  0  0  0  0
  5  3  1  6  0  0  0
  5  6  1  0  0  0  0
  5  8  1  0  0  0  0
  6  4  1  6  0  0  0
  6  7  1  0  0  0  0
  6  8  1  0  0  0  0
  8 10  1  6  0  0  0
 10 11  1  0  0  0  0
 10  9  1  1  0  0  0
 11 12  1  0  0  0  0
 12 14  1  6  0  0  0
 12 13  1  0  0  0  0
 15  2  1  1  0  0  0
 15 17  1  0  0  0  0
 16 15  1  0  0  0  0
 16 17  1  0  0  0  0
 17 18  1  1  0  0  0
 18 20  1  0  0  0  0
 19 20  2  0  0  0  0
 20 21  1  0  0  0  0
 22 20  2  0  0  0  0
 23  3  1  0  0  0  0
 24 28  1  0  0  0  0
 25 29  2  0  0  0  0
 26 23  1  1  0  0  0
 28 26  1  0  0  0  0
 28 27  2  0  0  0  0
 29 26  1  0  0  0  0
 30 25  1  0  0  0  0
 30 24  2  0  0  0  0
 31 37  1  0  0  0  0
 31 38  2  0  0  0  0
 33 32  1  0  0  0  0
 33 36  1  0  0  0  0
 34 37  1  6  0  0  0
 35 32  1  6  0  0  0
 35 34  1  0  0  0  0
 35 31  1  0  0  0  0
 36 41  1  6  0  0  0
 36 34  1  0  0  0  0
 37 40  1  0  0  0  0
 38 39  1  0  0  0  0
 40 39  2  0  0  0  0
 40 24  1  0  0  0  0
 42 43  1  0  0  0  0
 43 41  3  0  0  0  0
M  END
>  <MODEL>
5

>  <REMARK>
 VINA RESULT:      -5.9      4.348      7.154
  Name = 
  11 active torsions:
  status: ('A' for Active; 'I' for Inactive)
    1  A    between atoms: C_1  and  C_38
    2  A    between atoms: C_3  and  C_43
    3  A    between atoms: N_6  and  S_12
    4  A    between atoms: N_6  and  C_41
    5  A    between atoms: C_10  and  C_28
    6  A    between atoms: C_13  and  C_27
    7  A    between atoms: C_14  and  C_17
    8  A    between atoms: C_19  and  N_29
    9  A    between atoms: C_28  and  N_29
   10  A    between atoms: C_35  and  C_38
   11  A    between atoms: C_35  and  C_42
                            x       y       z     vdW  Elec       q    Type
                         _______ _______ _______ _____ _____    ______ ____

>  <TORSDO>
F 11

$$$$
=
 OpenBabel10222418583D

 43 48  0  0  1  0  0  0  0  0999 V2000
  190.5550  175.6290  142.0120 O   0  0  0  0  0  0  0  0  0  0  0  0
  190.1630  176.7350  141.5480 C   0  0  0  0  0  0  0  0  0  0  0  0
  188.8900  177.2710  141.9660 N   0  0  0  0  0  0  0  0  0  0  0  0
  187.3910  179.0060  143.8460 C   0  0  0  0  0  1  0  0  0  0  0  0
  188.1140  176.5680  143.0030 C   0  0  2  0  0  3  0  0  0  0  0  0
  187.4030  177.4900  144.0050 C   0  0  2  0  0  0  0  0  0  0  0  0
  186.2390  176.9310  144.5310 O   0  0  0  0  0  1  0  0  0  0  0  0
  188.6610  176.7510  144.4430 C   0  0  2  0  0  3  0  0  0  0  0  0
  189.9150  178.7160  145.3110 O   0  0  0  0  0  1  0  0  0  0  0  0
  190.0050  177.5140  144.6080 C   0  0  1  0  0  3  0  0  0  0  0  0
  191.0400  176.6140  145.2810 C   0  0  0  0  0  2  0  0  0  0  0  0
  191.0540  176.7520  146.8040 C   0  0  1  0  0  3  0  0  0  0  0  0
  189.8140  176.4010  147.3470 O   0  0  0  0  0  1  0  0  0  0  0  0
  192.1580  175.9090  147.4320 C   0  0  0  0  0  1  0  0  0  0  0  0
  191.1100  177.5410  140.6840 C   0  0  2  0  0  3  0  0  0  0  0  0
  190.4480  178.0050  139.3980 C   0  0  0  0  0  2  0  0  0  0  0  0
  191.4840  176.9070  139.3310 C   0  0  2  0  0  3  0  0  0  0  0  0
  190.8220  175.6290  139.0900 N   0  0  0  0  0  2  0  0  0  0  0  0
  190.6190  176.0700  136.4910 O   0  0  0  0  0  0  0  0  0  0  0  0
  191.2100  175.1020  137.4830 S   0  0  0  0  0  0  0  0  0  0  0  0
  192.9770  175.0610  137.2770 C   0  0  0  0  0  1  0  0  0  0  0  0
  190.6450  173.7300  137.2320 O   0  0  0  0  0  0  0  0  0  0  0  0
  188.2230  178.2720  141.1350 C   0  0  0  0  0  2  0  0  0  0  0  0
  185.1330  178.8280  139.1060 C   0  0  0  0  0  0  0  0  0  0  0  0
  186.9610  177.8640  137.7840 C   0  0  0  0  0  3  0  0  0  0  0  0
  187.1350  177.6380  140.2670 C   0  0  1  0  0  3  0  0  0  0  0  0
  185.4100  178.7740  141.4710 O   0  0  0  0  0  0  0  0  0  0  0  0
  185.8610  178.4440  140.3410 C   0  0  0  0  0  0  0  0  0  0  0  0
  187.6320  177.4420  138.8570 C   0  0  0  0  0  3  0  0  0  0  0  0
  185.6710  178.5590  137.9140 C   0  0  0  0  0  3  0  0  0  0  0  0
  181.6910  179.7620  139.1930 C   0  0  0  0  0  0  0  0  0  0  0  0
  179.9280  178.1700  138.5540 N   0  0  0  0  0  2  0  0  0  0  0  0
  180.3500  176.9930  138.2740 N   0  0  0  0  0  2  0  0  0  0  0  0
  181.7340  177.7940  139.7010 C   0  0  1  0  0  3  0  0  0  0  0  0
  180.7140  178.7760  139.6320 C   0  0  1  0  0  3  0  0  0  0  0  0
  181.4950  176.6770  139.0650 C   0  0  2  0  0  3  0  0  0  0  0  0
  182.6610  178.8840  139.4440 N   0  0  0  0  0  0  0  0  0  0  0  0
  182.1620  180.9630  138.7450 C   0  0  0  0  0  3  0  0  0  0  0  0
  183.5350  180.7620  138.7180 N   0  0  0  0  0  0  0  0  0  0  0  0
  183.8130  179.4840  139.1610 C   0  0  0  0  0  0  0  0  0  0  0  0
  182.5450  175.8310  138.5640 C   0  0  0  0  0  0  0  0  0  0  0  0
  184.4850  174.2780  137.5940 C   0  0  0  0  0  1  0  0  0  0  0  0
  183.4230  175.1280  138.1310 C   0  0  0  0  0  0  0  0  0  0  0  0
  2  3  1  0  0  0  0
  2  1  2  0  0  0  0
  5  3  1  6  0  0  0
  5  6  1  0  0  0  0
  5  8  1  0  0  0  0
  6  4  1  6  0  0  0
  6  8  1  0  0  0  0
  6  7  1  0  0  0  0
  8 10  1  6  0  0  0
 10 11  1  0  0  0  0
 10  9  1  1  0  0  0
 11 12  1  0  0  0  0
 12 13  1  0  0  0  0
 12 14  1  1  0  0  0
 15  2  1  1  0  0  0
 16 15  1  0  0  0  0
 17 18  1  1  0  0  0
 17 16  1  0  0  0  0
 17 15  1  0  0  0  0
 19 20  2  0  0  0  0
 20 18  1  0  0  0  0
 21 20  1  0  0  0  0
 22 20  2  0  0  0  0
 23  3  1  0  0  0  0
 24 40  1  0  0  0  0
 24 28  1  0  0  0  0
 25 30  1  0  0  0  0
 25 29  2  0  0  0  0
 26 28  1  0  0  0  0
 26 23  1  1  0  0  0
 28 27  2  0  0  0  0
 29 26  1  0  0  0  0
 30 24  2  0  0  0  0
 31 37  1  0  0  0  0
 31 35  1  0  0  0  0
 33 32  1  0  0  0  0
 33 36  1  0  0  0  0
 34 37  1  6  0  0  0
 35 32  1  6  0  0  0
 35 34  1  0  0  0  0
 36 41  1  6  0  0  0
 36 34  1  0  0  0  0
 38 31  2  0  0  0  0
 39 38  1  0  0  0  0
 39 40  2  0  0  0  0
 40 37  1  0  0  0  0
 42 43  1  0  0  0  0
 43 41  3  0  0  0  0
M  END
>  <MODEL>
6

>  <REMARK>
 VINA RESULT:      -5.7      2.920      6.106
  Name = 
  11 active torsions:
  status: ('A' for Active; 'I' for Inactive)
    1  A    between atoms: C_1  and  C_38
    2  A    between atoms: C_3  and  C_43
    3  A    between atoms: N_6  and  S_12
    4  A    between atoms: N_6  and  C_41
    5  A    between atoms: C_10  and  C_28
    6  A    between atoms: C_13  and  C_27
    7  A    between atoms: C_14  and  C_17
    8  A    between atoms: C_19  and  N_29
    9  A    between atoms: C_28  and  N_29
   10  A    between atoms: C_35  and  C_38
   11  A    between atoms: C_35  and  C_42
                            x       y       z     vdW  Elec       q    Type
                         _______ _______ _______ _____ _____    ______ ____

>  <TORSDO>
F 11

$$$$
=
 OpenBabel10222418583D

 43 48  0  0  1  0  0  0  0  0999 V2000
  180.8450  177.0630  136.9420 O   0  0  0  0  0  0  0  0  0  0  0  0
  181.7990  177.4260  137.6830 C   0  0  0  0  0  0  0  0  0  0  0  0
  181.9810  178.8290  137.9720 N   0  0  0  0  0  0  0  0  0  0  0  0
  182.4730  181.6530  138.7310 C   0  0  0  0  0  1  0  0  0  0  0  0
  180.9930  179.8040  137.4790 C   0  0  2  0  0  3  0  0  0  0  0  0
  181.2330  181.2490  137.9420 C   0  0  2  0  0  0  0  0  0  0  0  0
  180.7580  182.1990  137.0390 O   0  0  0  0  0  1  0  0  0  0  0  0
  180.1150  180.4400  138.5880 C   0  0  2  0  0  3  0  0  0  0  0  0
  180.0880  180.8320  141.0440 O   0  0  0  0  0  1  0  0  0  0  0  0
  180.2740  179.8890  140.0320 C   0  0  1  0  0  3  0  0  0  0  0  0
  179.3200  178.7170  140.2560 C   0  0  0  0  0  2  0  0  0  0  0  0
  179.9060  177.6300  141.1580 C   0  0  1  0  0  3  0  0  0  0  0  0
  179.3920  177.7300  142.4540 O   0  0  0  0  0  1  0  0  0  0  0  0
  179.6440  176.2370  140.5980 C   0  0  0  0  0  1  0  0  0  0  0  0
  182.6320  176.3670  138.3730 C   0  0  2  0  0  3  0  0  0  0  0  0
  183.5470  175.6430  137.4010 C   0  0  0  0  0  2  0  0  0  0  0  0
  182.3450  174.9130  137.9540 C   0  0  2  0  0  3  0  0  0  0  0  0
  181.3240  174.8030  136.9170 N   0  0  0  0  0  2  0  0  0  0  0  0
  181.6310  172.1860  137.1510 O   0  0  0  0  0  0  0  0  0  0  0  0
  180.5650  173.2480  137.0540 S   0  0  0  0  0  0  0  0  0  0  0  0
  179.5600  173.2010  138.5220 C   0  0  0  0  0  1  0  0  0  0  0  0
  179.7050  172.9780  135.8500 O   0  0  0  0  0  0  0  0  0  0  0  0
  183.2880  179.3060  138.4230 C   0  0  0  0  0  2  0  0  0  0  0  0
  186.2580  178.4400  140.5210 C   0  0  0  0  0  0  0  0  0  0  0  0
  184.3430  179.1740  141.8660 C   0  0  0  0  0  3  0  0  0  0  0  0
  183.8500  178.4200  139.5360 C   0  0  1  0  0  3  0  0  0  0  0  0
  185.7970  177.9100  138.2460 O   0  0  0  0  0  0  0  0  0  0  0  0
  185.3400  178.2450  139.3710 C   0  0  0  0  0  0  0  0  0  0  0  0
  183.4610  178.9610  140.8880 C   0  0  0  0  0  3  0  0  0  0  0  0
  185.7740  178.8910  141.6810 C   0  0  0  0  0  3  0  0  0  0  0  0
  189.6730  177.4990  140.9510 C   0  0  0  0  0  0  0  0  0  0  0  0
  190.6210  177.1570  143.1940 N   0  0  0  0  0  2  0  0  0  0  0  0
  189.7780  177.2700  144.1510 N   0  0  0  0  0  2  0  0  0  0  0  0
  188.6620  176.5820  142.4570 C   0  0  1  0  0  3  0  0  0  0  0  0
  190.0050  176.5560  142.0080 C   0  0  1  0  0  3  0  0  0  0  0  0
  188.4890  176.8280  143.7280 C   0  0  2  0  0  3  0  0  0  0  0  0
  188.3850  177.3660  141.2640 N   0  0  0  0  0  0  0  0  0  0  0  0
  189.8800  178.3420  139.8960 C   0  0  0  0  0  3  0  0  0  0  0  0
  188.5940  178.7510  139.5740 N   0  0  0  0  0  0  0  0  0  0  0  0
  187.6970  178.1300  140.4210 C   0  0  0  0  0  0  0  0  0  0  0  0
  187.2830  177.4190  144.2460 C   0  0  0  0  0  0  0  0  0  0  0  0
  185.0470  178.5430  145.1690 C   0  0  0  0  0  1  0  0  0  0  0  0
  186.2720  177.9230  144.6670 C   0  0  0  0  0  0  0  0  0  0  0  0
  1  2  2  0  0  0  0
  2  3  1  0  0  0  0
  3 23  1  0  0  0  0
  5  6  1  0  0  0  0
  5  3  1  1  0  0  0
  5  8  1  0  0  0  0
  6  8  1  0  0  0  0
  6  4  1  1  0  0  0
  7  6  1  0  0  0  0
  8 10  1  1  0  0  0
 10 11  1  0  0  0  0
 10  9  1  1  0  0  0
 11 12  1  0  0  0  0
 12 14  1  6  0  0  0
 12 13  1  0  0  0  0
 15  2  1  6  0  0  0
 16 17  1  0  0  0  0
 16 15  1  0  0  0  0
 17 18  1  6  0  0  0
 17 15  1  0  0  0  0
 18 20  1  0  0  0  0
 20 19  2  0  0  0  0
 20 21  1  0  0  0  0
 22 20  2  0  0  0  0
 24 30  2  0  0  0  0
 26 23  1  6  0  0  0
 26 29  1  0  0  0  0
 27 28  2  0  0  0  0
 28 26  1  0  0  0  0
 28 24  1  0  0  0  0
 29 25  2  0  0  0  0
 30 25  1  0  0  0  0
 31 37  1  0  0  0  0
 32 33  1  0  0  0  0
 34 37  1  6  0  0  0
 34 36  1  0  0  0  0
 35 31  1  6  0  0  0
 35 34  1  0  0  0  0
 35 32  1  0  0  0  0
 36 33  1  0  0  0  0
 36 41  1  6  0  0  0
 38 31  2  0  0  0  0
 39 38  1  0  0  0  0
 39 40  2  0  0  0  0
 40 24  1  0  0  0  0
 40 37  1  0  0  0  0
 41 43  3  0  0  0  0
 43 42  1  0  0  0  0
M  END
>  <MODEL>
7

>  <REMARK>
 VINA RESULT:      -5.6      4.187      9.711
  Name = 
  11 active torsions:
  status: ('A' for Active; 'I' for Inactive)
    1  A    between atoms: C_1  and  C_38
    2  A    between atoms: C_3  and  C_43
    3  A    between atoms: N_6  and  S_12
    4  A    between atoms: N_6  and  C_41
    5  A    between atoms: C_10  and  C_28
    6  A    between atoms: C_13  and  C_27
    7  A    between atoms: C_14  and  C_17
    8  A    between atoms: C_19  and  N_29
    9  A    between atoms: C_28  and  N_29
   10  A    between atoms: C_35  and  C_38
   11  A    between atoms: C_35  and  C_42
                            x       y       z     vdW  Elec       q    Type
                         _______ _______ _______ _____ _____    ______ ____

>  <TORSDO>
F 11

$$$$
=
 OpenBabel10222418583D

 43 48  0  0  1  0  0  0  0  0999 V2000
  191.8530  177.6590  140.6160 O   0  0  0  0  0  0  0  0  0  0  0  0
  190.6310  177.6390  140.3030 C   0  0  0  0  0  0  0  0  0  0  0  0
  189.6350  177.9380  141.3040 N   0  0  0  0  0  0  0  0  0  0  0  0
  191.1000  175.9000  142.8810 C   0  0  0  0  0  1  0  0  0  0  0  0
  190.0640  178.3590  142.6490 C   0  0  2  0  0  3  0  0  0  0  0  0
  190.7600  177.2640  143.4710 C   0  0  2  0  0  0  0  0  0  0  0  0
  191.6800  177.7700  144.3870 O   0  0  0  0  0  1  0  0  0  0  0  0
  189.3240  177.6430  143.8080 C   0  0  2  0  0  3  0  0  0  0  0  0
  188.5140  175.3650  143.2200 O   0  0  0  0  0  1  0  0  0  0  0  0
  188.1500  176.6950  143.4320 C   0  0  1  0  0  3  0  0  0  0  0  0
  187.0640  176.7540  144.5050 C   0  0  0  0  0  2  0  0  0  0  0  0
  187.2150  177.9490  145.4470 C   0  0  1  0  0  3  0  0  0  0  0  0
  186.0540  178.7270  145.4530 O   0  0  0  0  0  1  0  0  0  0  0  0
  187.5530  177.5030  146.8650 C   0  0  0  0  0  1  0  0  0  0  0  0
  190.2540  177.4530  138.8480 C   0  0  2  0  0  3  0  0  0  0  0  0
  190.1180  175.9850  138.4810 C   0  0  0  0  0  2  0  0  0  0  0  0
  191.3100  176.7610  137.9670 C   0  0  2  0  0  3  0  0  0  0  0  0
  192.5040  176.3610  138.7040 N   0  0  0  0  0  2  0  0  0  0  0  0
  194.7760  175.0540  138.3510 O   0  0  0  0  0  0  0  0  0  0  0  0
  193.6410  175.6810  137.5830 S   0  0  0  0  0  0  0  0  0  0  0  0
  192.8390  174.4320  136.6010 C   0  0  0  0  0  1  0  0  0  0  0  0
  194.1880  176.7530  136.6790 O   0  0  0  0  0  0  0  0  0  0  0  0
  188.2580  177.4880  141.1040 C   0  0  0  0  0  2  0  0  0  0  0  0
  184.9800  178.5220  139.6350 C   0  0  0  0  0  0  0  0  0  0  0  0
  185.2710  179.3240  141.9350 C   0  0  0  0  0  3  0  0  0  0  0  0
  187.3440  178.6510  140.7140 C   0  0  1  0  0  3  0  0  0  0  0  0
  186.9390  177.7040  138.5560 O   0  0  0  0  0  0  0  0  0  0  0  0
  186.4380  178.2530  139.5740 C   0  0  0  0  0  0  0  0  0  0  0  0
  186.5940  179.1600  141.9190 C   0  0  0  0  0  3  0  0  0  0  0  0
  184.4470  179.0120  140.7570 C   0  0  0  0  0  3  0  0  0  0  0  0
  182.3420  178.1320  137.2640 C   0  0  0  0  0  0  0  0  0  0  0  0
  179.9900  178.0890  137.9790 N   0  0  0  0  0  2  0  0  0  0  0  0
  179.8110  178.2920  139.2310 N   0  0  0  0  0  2  0  0  0  0  0  0
  181.5990  179.3520  138.7100 C   0  0  1  0  0  3  0  0  0  0  0  0
  181.1110  178.8800  137.4660 C   0  0  1  0  0  3  0  0  0  0  0  0
  180.8070  179.1810  139.7350 C   0  0  2  0  0  3  0  0  0  0  0  0
  182.8590  178.7300  138.3360 N   0  0  0  0  0  0  0  0  0  0  0  0
  183.2190  177.2760  136.6580 C   0  0  0  0  0  3  0  0  0  0  0  0
  184.3460  177.3740  137.4610 N   0  0  0  0  0  0  0  0  0  0  0  0
  184.1010  178.2790  138.4750 C   0  0  0  0  0  0  0  0  0  0  0  0
  181.2970  179.0760  141.0840 C   0  0  0  0  0  0  0  0  0  0  0  0
  182.2000  178.9250  143.5890 C   0  0  0  0  0  1  0  0  0  0  0  0
  181.7050  179.0020  142.2150 C   0  0  0  0  0  0  0  0  0  0  0  0
  2  1  2  0  0  0  0
  2  3  1  0  0  0  0
  5  3  1  6  0  0  0
  5  6  1  0  0  0  0
  5  8  1  0  0  0  0
  6  4  1  6  0  0  0
  6  8  1  0  0  0  0
  6  7  1  0  0  0  0
  8 10  1  6  0  0  0
 10  9  1  1  0  0  0
 10 11  1  0  0  0  0
 11 12  1  0  0  0  0
 12 13  1  0  0  0  0
 12 14  1  1  0  0  0
 15  2  1  1  0  0  0
 16 15  1  0  0  0  0
 17 16  1  0  0  0  0
 17 18  1  1  0  0  0
 17 15  1  0  0  0  0
 20 19  2  0  0  0  0
 20 18  1  0  0  0  0
 21 20  1  0  0  0  0
 22 20  2  0  0  0  0
 23  3  1  0  0  0  0
 24 30  2  0  0  0  0
 26 23  1  1  0  0  0
 26 29  1  0  0  0  0
 27 28  2  0  0  0  0
 28 24  1  0  0  0  0
 28 26  1  0  0  0  0
 29 25  2  0  0  0  0
 30 25  1  0  0  0  0
 31 37  1  0  0  0  0
 32 33  1  0  0  0  0
 33 36  1  0  0  0  0
 34 37  1  1  0  0  0
 34 36  1  0  0  0  0
 35 31  1  1  0  0  0
 35 32  1  0  0  0  0
 35 34  1  0  0  0  0
 36 41  1  1  0  0  0
 37 40  1  0  0  0  0
 38 31  2  0  0  0  0
 38 39  1  0  0  0  0
 39 40  2  0  0  0  0
 40 24  1  0  0  0  0
 41 43  3  0  0  0  0
 43 42  1  0  0  0  0
M  END
>  <MODEL>
8

>  <REMARK>
 VINA RESULT:      -5.2      2.969      5.918
  Name = 
  11 active torsions:
  status: ('A' for Active; 'I' for Inactive)
    1  A    between atoms: C_1  and  C_38
    2  A    between atoms: C_3  and  C_43
    3  A    between atoms: N_6  and  S_12
    4  A    between atoms: N_6  and  C_41
    5  A    between atoms: C_10  and  C_28
    6  A    between atoms: C_13  and  C_27
    7  A    between atoms: C_14  and  C_17
    8  A    between atoms: C_19  and  N_29
    9  A    between atoms: C_28  and  N_29
   10  A    between atoms: C_35  and  C_38
   11  A    between atoms: C_35  and  C_42
                            x       y       z     vdW  Elec       q    Type
                         _______ _______ _______ _____ _____    ______ ____

>  <TORSDO>
F 11

$$$$
=
 OpenBabel10222418583D

 43 48  0  0  1  0  0  0  0  0999 V2000
  183.4830  177.0260  140.4620 O   0  0  0  0  0  0  0  0  0  0  0  0
  183.7730  177.8450  139.5480 C   0  0  0  0  0  0  0  0  0  0  0  0
  183.1590  177.7090  138.2490 N   0  0  0  0  0  0  0  0  0  0  0  0
  181.1700  178.2870  136.1270 C   0  0  0  0  0  1  0  0  0  0  0  0
  182.1290  176.6760  138.0400 C   0  0  2  0  0  3  0  0  0  0  0  0
  181.0720  177.0300  136.9840 C   0  0  2  0  0  0  0  0  0  0  0  0
  180.5350  175.9100  136.3500 O   0  0  0  0  0  1  0  0  0  0  0  0
  180.6990  177.1070  138.4590 C   0  0  2  0  0  3  0  0  0  0  0  0
  179.7160  179.3920  138.4970 O   0  0  0  0  0  1  0  0  0  0  0  0
  180.5420  178.4840  139.1610 C   0  0  1  0  0  3  0  0  0  0  0  0
  180.0310  178.2910  140.5880 C   0  0  0  0  0  2  0  0  0  0  0  0
  180.7650  179.1600  141.6100 C   0  0  1  0  0  3  0  0  0  0  0  0
  180.3840  180.5000  141.4880 O   0  0  0  0  0  1  0  0  0  0  0  0
  180.5210  178.6750  143.0350 C   0  0  0  0  0  1  0  0  0  0  0  0
  184.6400  179.0400  139.8860 C   0  0  2  0  0  3  0  0  0  0  0  0
  185.9360  178.6270  140.5610 C   0  0  0  0  0  2  0  0  0  0  0  0
  184.8640  179.3000  141.3870 C   0  0  2  0  0  3  0  0  0  0  0  0
  184.2210  178.3110  142.2460 N   0  0  0  0  0  2  0  0  0  0  0  0
  183.4240  178.2520  144.7670 O   0  0  0  0  0  0  0  0  0  0  0  0
  184.5690  178.7080  143.8990 S   0  0  0  0  0  0  0  0  0  0  0  0
  186.0570  177.8780  144.4130 C   0  0  0  0  0  1  0  0  0  0  0  0
  184.7460  180.1940  144.0540 O   0  0  0  0  0  0  0  0  0  0  0  0
  183.7930  178.3260  137.0850 C   0  0  0  0  0  2  0  0  0  0  0  0
  187.0950  176.6360  137.5540 C   0  0  0  0  0  0  0  0  0  0  0  0
  185.2720  175.0410  137.1640 C   0  0  0  0  0  3  0  0  0  0  0  0
  184.8540  177.4070  136.4780 C   0  0  1  0  0  3  0  0  0  0  0  0
  186.6090  178.9170  137.0740 O   0  0  0  0  0  0  0  0  0  0  0  0
  186.2160  177.7200  137.0490 C   0  0  0  0  0  0  0  0  0  0  0  0
  184.4580  175.9610  136.6450 C   0  0  0  0  0  3  0  0  0  0  0  0
  186.6290  175.3860  137.6140 C   0  0  0  0  0  3  0  0  0  0  0  0
  190.6020  176.7010  138.2070 C   0  0  0  0  0  0  0  0  0  0  0  0
  192.0110  174.7350  137.7600 N   0  0  0  0  0  2  0  0  0  0  0  0
  191.3960  173.7520  137.2170 N   0  0  0  0  0  2  0  0  0  0  0  0
  190.3750  175.5200  136.5680 C   0  0  1  0  0  3  0  0  0  0  0  0
  191.4930  176.0190  137.2800 C   0  0  1  0  0  3  0  0  0  0  0  0
  190.3580  174.2290  136.3630 C   0  0  2  0  0  3  0  0  0  0  0  0
  189.5740  176.3830  137.4210 N   0  0  0  0  0  0  0  0  0  0  0  0
  190.2310  177.4390  139.2960 C   0  0  0  0  0  3  0  0  0  0  0  0
  188.8570  177.5480  139.1370 N   0  0  0  0  0  0  0  0  0  0  0  0
  188.4830  176.9010  137.9760 C   0  0  0  0  0  0  0  0  0  0  0  0
  189.1380  173.4900  136.1760 C   0  0  0  0  0  0  0  0  0  0  0  0
  186.8990  172.0810  135.8330 C   0  0  0  0  0  1  0  0  0  0  0  0
  188.1230  172.8580  136.0220 C   0  0  0  0  0  0  0  0  0  0  0  0
  2  1  2  0  0  0  0
  3  2  1  0  0  0  0
  5  3  1  1  0  0  0
  5  8  1  0  0  0  0
  6  4  1  6  0  0  0
  6  5  1  0  0  0  0
  6  8  1  0  0  0  0
  7  6  1  0  0  0  0
  8 10  1  1  0  0  0
 10  9  1  6  0  0  0
 10 11  1  0  0  0  0
 11 12  1  0  0  0  0
 12 14  1  1  0  0  0
 13 12  1  0  0  0  0
 15  2  1  1  0  0  0
 15 16  1  0  0  0  0
 15 17  1  0  0  0  0
 16 17  1  0  0  0  0
 17 18  1  1  0  0  0
 18 20  1  0  0  0  0
 20 22  2  0  0  0  0
 20 21  1  0  0  0  0
 20 19  2  0  0  0  0
 23  3  1  0  0  0  0
 24 30  2  0  0  0  0
 24 40  1  0  0  0  0
 25 30  1  0  0  0  0
 26 29  1  0  0  0  0
 26 28  1  0  0  0  0
 26 23  1  1  0  0  0
 28 27  2  0  0  0  0
 28 24  1  0  0  0  0
 29 25  2  0  0  0  0
 31 38  2  0  0  0  0
 33 32  1  0  0  0  0
 34 35  1  0  0  0  0
 34 37  1  1  0  0  0
 35 32  1  1  0  0  0
 35 31  1  0  0  0  0
 36 41  1  1  0  0  0
 36 34  1  0  0  0  0
 36 33  1  0  0  0  0
 37 40  1  0  0  0  0
 37 31  1  0  0  0  0
 39 38  1  0  0  0  0
 40 39  2  0  0  0  0
 42 43  1  0  0  0  0
 43 41  3  0  0  0  0
M  END
>  <MODEL>
9

>  <REMARK>
 VINA RESULT:      -5.0      3.666      8.653
  Name = 
  11 active torsions:
  status: ('A' for Active; 'I' for Inactive)
    1  A    between atoms: C_1  and  C_38
    2  A    between atoms: C_3  and  C_43
    3  A    between atoms: N_6  and  S_12
    4  A    between atoms: N_6  and  C_41
    5  A    between atoms: C_10  and  C_28
    6  A    between atoms: C_13  and  C_27
    7  A    between atoms: C_14  and  C_17
    8  A    between atoms: C_19  and  N_29
    9  A    between atoms: C_28  and  N_29
   10  A    between atoms: C_35  and  C_38
   11  A    between atoms: C_35  and  C_42
                            x       y       z     vdW  Elec       q    Type
                         _______ _______ _______ _____ _____    ______ ____

>  <TORSDO>
F 11

$$$$
