=
 OpenBabel10222420173D

 27 31  0  0  1  0  0  0  0  0999 V2000
  186.7690  178.0110  146.5320 C   0  0  0  0  0  3  0  0  0  0  0  0
  185.4240  178.3840  146.5500 C   0  0  0  0  0  3  0  0  0  0  0  0
  185.4200  178.5050  144.1260 C   0  0  0  0  0  0  0  0  0  0  0  0
  187.4570  177.8690  145.3160 C   0  0  0  0  0  0  0  0  0  0  0  0
  186.7690  178.1290  144.1190 C   0  0  0  0  0  3  0  0  0  0  0  0
  184.7500  178.6280  145.3520 C   0  0  0  0  0  3  0  0  0  0  0  0
  191.0160  177.0170  144.1570 C   0  0  0  0  0  0  0  0  0  0  0  0
  191.5900  176.7680  145.3610 N   0  0  0  0  0  0  0  0  0  0  0  0
  189.8750  177.5720  141.6620 C   0  0  0  0  0  3  0  0  0  0  0  0
  191.7830  176.9090  142.9930 C   0  0  0  0  0  3  0  0  0  0  0  0
  189.6520  177.3960  144.0800 C   0  0  0  0  0  0  0  0  0  0  0  0
  189.1020  177.6800  142.8200 C   0  0  0  0  0  3  0  0  0  0  0  0
  188.8990  177.5010  145.2780 C   0  0  0  0  0  0  0  0  0  0  0  0
  191.2140  177.1840  141.7480 C   0  0  0  0  0  3  0  0  0  0  0  0
  189.5470  177.2420  146.4950 C   0  0  0  0  0  3  0  0  0  0  0  0
  190.8940  176.8810  146.5200 C   0  0  0  0  0  0  0  0  0  0  0  0
  191.5570  176.5840  147.8180 C   0  0  0  0  0  2  0  0  0  0  0  0
  192.7600  175.8030  147.5850 N   0  0  0  0  0  1  0  0  0  0  0  0
  183.4130  178.2320  141.2440 C   0  0  1  0  0  3  0  0  0  0  0  0
  185.3600  179.3070  141.7400 C   0  0  0  0  0  2  0  0  0  0  0  0
  183.4680  178.3150  142.6530 O   0  0  0  0  0  0  0  0  0  0  0  0
  182.1380  178.8020  140.6800 C   0  0  0  0  0  3  0  0  0  0  0  0
  182.1480  179.5330  139.5540 C   0  0  0  0  0  3  0  0  0  0  0  0
  184.5760  179.0090  140.7460 C   0  0  2  0  0  3  0  0  0  0  0  0
  184.7400  178.7550  142.8890 N   0  0  0  0  0  0  0  0  0  0  0  0
  184.5690  179.6700  139.4820 N   0  0  0  0  0  0  0  0  0  0  0  0
  183.4280  179.9000  138.8970 C   0  0  0  0  0  3  0  0  0  0  0  0
  1  2  1  0  0  0  0
  3  6  1  0  0  0  0
  4  1  2  0  0  0  0
  5  3  2  0  0  0  0
  5  4  1  0  0  0  0
  6  2  2  0  0  0  0
  7  8  2  0  0  0  0
  8 16  1  0  0  0  0
  9 14  1  0  0  0  0
  9 12  2  0  0  0  0
 10  7  1  0  0  0  0
 11  7  1  0  0  0  0
 11 13  2  0  0  0  0
 12 11  1  0  0  0  0
 13  4  1  0  0  0  0
 13 15  1  0  0  0  0
 14 10  2  0  0  0  0
 15 16  2  0  0  0  0
 16 17  1  0  0  0  0
 18 17  1  0  0  0  0
 19 22  1  6  0  0  0
 19 21  1  0  0  0  0
 20 25  1  0  0  0  0
 21 25  1  0  0  0  0
 23 22  2  0  0  0  0
 24 19  1  0  0  0  0
 24 20  1  1  0  0  0
 25  3  1  0  0  0  0
 26 24  1  0  0  0  0
 27 26  2  0  0  0  0
 27 23  1  0  0  0  0
M  END
>  <MODEL>
1

>  <REMARK>
 VINA RESULT:     -10.7      0.000      0.000
  Name = 
  3 active torsions:
  status: ('A' for Active; 'I' for Inactive)
    1  A    between atoms: C_14  and  N_19
    2  A    between atoms: C_15  and  C_18
    3  A    between atoms: C_23  and  C_25
                            x       y       z     vdW  Elec       q    Type
                         _______ _______ _______ _____ _____    ______ ____

>  <TORSDO>
F 3

$$$$
=
 OpenBabel10222420173D

 27 31  0  0  1  0  0  0  0  0999 V2000
  186.5470  178.0580  146.1620 C   0  0  0  0  0  3  0  0  0  0  0  0
  185.2800  178.4730  146.5800 C   0  0  0  0  0  3  0  0  0  0  0  0
  184.5510  178.5870  144.2690 C   0  0  0  0  0  0  0  0  0  0  0  0
  186.8330  177.8920  144.7980 C   0  0  0  0  0  0  0  0  0  0  0  0
  185.8240  178.1700  143.8600 C   0  0  0  0  0  3  0  0  0  0  0  0
  184.2850  178.7350  145.6370 C   0  0  0  0  0  3  0  0  0  0  0  0
  190.5200  176.8360  144.6530 C   0  0  0  0  0  0  0  0  0  0  0  0
  190.6750  176.7470  143.3070 N   0  0  0  0  0  0  0  0  0  0  0  0
  190.2210  176.9610  147.4330 C   0  0  0  0  0  3  0  0  0  0  0  0
  191.6040  176.5530  145.4900 C   0  0  0  0  0  3  0  0  0  0  0  0
  189.2670  177.2010  145.2060 C   0  0  0  0  0  0  0  0  0  0  0  0
  189.1350  177.2480  146.6030 C   0  0  0  0  0  3  0  0  0  0  0  0
  188.1850  177.4790  144.3320 C   0  0  0  0  0  0  0  0  0  0  0  0
  191.4550  176.6170  146.8770 C   0  0  0  0  0  3  0  0  0  0  0  0
  188.3990  177.3620  142.9500 C   0  0  0  0  0  3  0  0  0  0  0  0
  189.6480  176.9910  142.4540 C   0  0  0  0  0  0  0  0  0  0  0  0
  189.8650  176.8990  140.9850 C   0  0  0  0  0  2  0  0  0  0  0  0
  188.8000  177.5990  140.2880 N   0  0  0  0  0  1  0  0  0  0  0  0
  181.5130  178.7630  142.4930 C   0  0  1  0  0  3  0  0  0  0  0  0
  183.7100  178.6670  141.8960 C   0  0  0  0  0  2  0  0  0  0  0  0
  182.2490  179.1490  143.6370 O   0  0  0  0  0  0  0  0  0  0  0  0
  180.4740  179.7810  142.1040 C   0  0  0  0  0  3  0  0  0  0  0  0
  180.2480  180.0780  140.8140 C   0  0  0  0  0  3  0  0  0  0  0  0
  182.5090  178.6160  141.4020 C   0  0  2  0  0  3  0  0  0  0  0  0
  183.5370  178.8550  143.2900 N   0  0  0  0  0  0  0  0  0  0  0  0
  182.1770  178.8320  140.0300 N   0  0  0  0  0  0  0  0  0  0  0  0
  181.0980  179.5000  139.7410 C   0  0  0  0  0  3  0  0  0  0  0  0
  1  2  1  0  0  0  0
  3  6  1  0  0  0  0
  4  1  2  0  0  0  0
  5  3  2  0  0  0  0
  5  4  1  0  0  0  0
  6  2  2  0  0  0  0
  7 11  2  0  0  0  0
  7 10  1  0  0  0  0
  8  7  1  0  0  0  0
 10 14  2  0  0  0  0
 11 12  1  0  0  0  0
 12  9  2  0  0  0  0
 13  4  1  0  0  0  0
 13 11  1  0  0  0  0
 14  9  1  0  0  0  0
 15 13  2  0  0  0  0
 16 15  1  0  0  0  0
 16  8  2  0  0  0  0
 17 16  1  0  0  0  0
 18 17  1  0  0  0  0
 19 22  1  6  0  0  0
 19 21  1  0  0  0  0
 20 25  1  0  0  0  0
 23 22  2  0  0  0  0
 24 20  1  1  0  0  0
 24 19  1  0  0  0  0
 25 21  1  0  0  0  0
 25  3  1  0  0  0  0
 26 24  1  0  0  0  0
 27 26  2  0  0  0  0
 27 23  1  0  0  0  0
M  END
>  <MODEL>
2

>  <REMARK>
 VINA RESULT:     -10.6      1.592      3.272
  Name = 
  3 active torsions:
  status: ('A' for Active; 'I' for Inactive)
    1  A    between atoms: C_14  and  N_19
    2  A    between atoms: C_15  and  C_18
    3  A    between atoms: C_23  and  C_25
                            x       y       z     vdW  Elec       q    Type
                         _______ _______ _______ _____ _____    ______ ____

>  <TORSDO>
F 3

$$$$
=
 OpenBabel10222420173D

 27 31  0  0  1  0  0  0  0  0999 V2000
  187.0970  178.2670  147.0410 C   0  0  0  0  0  3  0  0  0  0  0  0
  185.7690  178.6580  147.2210 C   0  0  0  0  0  3  0  0  0  0  0  0
  185.3280  178.2580  144.8690 C   0  0  0  0  0  0  0  0  0  0  0  0
  187.5590  177.8570  145.7800 C   0  0  0  0  0  0  0  0  0  0  0  0
  186.6620  177.8670  144.6990 C   0  0  0  0  0  3  0  0  0  0  0  0
  184.8860  178.6510  146.1400 C   0  0  0  0  0  3  0  0  0  0  0  0
  190.9400  176.9830  144.1880 C   0  0  0  0  0  0  0  0  0  0  0  0
  191.6450  176.6820  145.3080 N   0  0  0  0  0  0  0  0  0  0  0  0
  189.5310  177.6460  141.8620 C   0  0  0  0  0  3  0  0  0  0  0  0
  191.5660  176.9020  142.9400 C   0  0  0  0  0  3  0  0  0  0  0  0
  189.5850  177.3890  144.2820 C   0  0  0  0  0  0  0  0  0  0  0  0
  188.9000  177.7270  143.1050 C   0  0  0  0  0  3  0  0  0  0  0  0
  188.9790  177.4650  145.5620 C   0  0  0  0  0  0  0  0  0  0  0  0
  190.8630  177.2310  141.7790 C   0  0  0  0  0  3  0  0  0  0  0  0
  189.7570  177.1520  146.6870 C   0  0  0  0  0  3  0  0  0  0  0  0
  191.0890  176.7660  146.5440 C   0  0  0  0  0  0  0  0  0  0  0  0
  191.8910  176.4110  147.7440 C   0  0  0  0  0  2  0  0  0  0  0  0
  192.8020  175.3250  147.4220 N   0  0  0  0  0  1  0  0  0  0  0  0
  183.8950  178.5950  141.6680 C   0  0  1  0  0  3  0  0  0  0  0  0
  183.0970  178.7260  143.7980 C   0  0  0  0  0  2  0  0  0  0  0  0
  184.8460  177.9420  142.4840 O   0  0  0  0  0  0  0  0  0  0  0  0
  183.4160  177.7290  140.5320 C   0  0  0  0  0  3  0  0  0  0  0  0
  182.1250  177.7270  140.1640 C   0  0  0  0  0  3  0  0  0  0  0  0
  182.7580  178.9320  142.5600 C   0  0  2  0  0  3  0  0  0  0  0  0
  184.4310  178.2490  143.7490 N   0  0  0  0  0  0  0  0  0  0  0  0
  181.4160  179.0300  142.0840 N   0  0  0  0  0  0  0  0  0  0  0  0
  181.1120  178.4860  140.9410 C   0  0  0  0  0  3  0  0  0  0  0  0
  1  2  1  0  0  0  0
  3  6  1  0  0  0  0
  4  1  2  0  0  0  0
  5  3  2  0  0  0  0
  5  4  1  0  0  0  0
  6  2  2  0  0  0  0
  7 11  1  0  0  0  0
  7  8  2  0  0  0  0
  8 16  1  0  0  0  0
  9 12  2  0  0  0  0
 10  7  1  0  0  0  0
 11 13  2  0  0  0  0
 12 11  1  0  0  0  0
 13  4  1  0  0  0  0
 13 15  1  0  0  0  0
 14  9  1  0  0  0  0
 14 10  2  0  0  0  0
 16 15  2  0  0  0  0
 16 17  1  0  0  0  0
 18 17  1  0  0  0  0
 19 22  1  6  0  0  0
 19 21  1  0  0  0  0
 19 24  1  0  0  0  0
 21 25  1  0  0  0  0
 23 22  2  0  0  0  0
 23 27  1  0  0  0  0
 24 20  1  1  0  0  0
 25 20  1  0  0  0  0
 25  3  1  0  0  0  0
 26 24  1  0  0  0  0
 27 26  2  0  0  0  0
M  END
>  <MODEL>
3

>  <REMARK>
 VINA RESULT:     -10.6      1.236      1.481
  Name = 
  3 active torsions:
  status: ('A' for Active; 'I' for Inactive)
    1  A    between atoms: C_14  and  N_19
    2  A    between atoms: C_15  and  C_18
    3  A    between atoms: C_23  and  C_25
                            x       y       z     vdW  Elec       q    Type
                         _______ _______ _______ _____ _____    ______ ____

>  <TORSDO>
F 3

$$$$
=
 OpenBabel10222420173D

 27 31  0  0  1  0  0  0  0  0999 V2000
  184.9830  178.5230  145.4980 C   0  0  0  0  0  3  0  0  0  0  0  0
  183.6850  178.9690  145.2370 C   0  0  0  0  0  3  0  0  0  0  0  0
  183.9970  178.5020  142.8760 C   0  0  0  0  0  0  0  0  0  0  0  0
  185.8020  178.0520  144.4600 C   0  0  0  0  0  0  0  0  0  0  0  0
  185.2960  178.0560  143.1490 C   0  0  0  0  0  3  0  0  0  0  0  0
  183.1930  178.9570  143.9310 C   0  0  0  0  0  3  0  0  0  0  0  0
  189.1880  177.2800  146.0950 C   0  0  0  0  0  0  0  0  0  0  0  0
  189.8310  176.7360  145.0310 N   0  0  0  0  0  0  0  0  0  0  0  0
  187.8720  178.3510  148.3220 C   0  0  0  0  0  3  0  0  0  0  0  0
  189.8530  177.3880  147.3200 C   0  0  0  0  0  3  0  0  0  0  0  0
  187.8470  177.7250  145.9690 C   0  0  0  0  0  0  0  0  0  0  0  0
  187.2020  178.2490  147.1010 C   0  0  0  0  0  3  0  0  0  0  0  0
  187.1970  177.6000  144.7150 C   0  0  0  0  0  0  0  0  0  0  0  0
  189.1970  177.9240  148.4310 C   0  0  0  0  0  3  0  0  0  0  0  0
  187.9070  177.0210  143.6530 C   0  0  0  0  0  3  0  0  0  0  0  0
  189.2220  176.5900  143.8280 C   0  0  0  0  0  0  0  0  0  0  0  0
  189.9690  176.0040  142.6830 C   0  0  0  0  0  2  0  0  0  0  0  0
  190.2240  177.0310  141.6880 N   0  0  0  0  0  1  0  0  0  0  0  0
  183.5210  179.0670  139.4310 C   0  0  1  0  0  3  0  0  0  0  0  0
  182.1340  178.6270  141.1850 C   0  0  0  0  0  2  0  0  0  0  0  0
  184.3350  178.5150  140.4470 O   0  0  0  0  0  0  0  0  0  0  0  0
  183.6510  178.3310  138.1240 C   0  0  0  0  0  3  0  0  0  0  0  0
  182.5750  178.0970  137.3550 C   0  0  0  0  0  3  0  0  0  0  0  0
  182.1260  178.9670  139.9300 C   0  0  2  0  0  3  0  0  0  0  0  0
  183.5020  178.4870  141.5300 N   0  0  0  0  0  0  0  0  0  0  0  0
  181.0080  178.8360  139.0530 N   0  0  0  0  0  0  0  0  0  0  0  0
  181.2120  178.4490  137.8260 C   0  0  0  0  0  3  0  0  0  0  0  0
  2  1  1  0  0  0  0
  3  5  2  0  0  0  0
  3  6  1  0  0  0  0
  4 13  1  0  0  0  0
  4  1  2  0  0  0  0
  5  4  1  0  0  0  0
  6  2  2  0  0  0  0
  7 10  1  0  0  0  0
  8  7  1  0  0  0  0
  9 14  1  0  0  0  0
 10 14  2  0  0  0  0
 11  7  2  0  0  0  0
 11 12  1  0  0  0  0
 12  9  2  0  0  0  0
 13 11  1  0  0  0  0
 15 16  1  0  0  0  0
 15 13  2  0  0  0  0
 16  8  2  0  0  0  0
 17 16  1  0  0  0  0
 18 17  1  0  0  0  0
 19 22  1  6  0  0  0
 19 24  1  0  0  0  0
 19 21  1  0  0  0  0
 20 25  1  0  0  0  0
 21 25  1  0  0  0  0
 23 27  1  0  0  0  0
 23 22  2  0  0  0  0
 24 20  1  1  0  0  0
 25  3  1  0  0  0  0
 26 24  1  0  0  0  0
 27 26  2  0  0  0  0
M  END
>  <MODEL>
4

>  <REMARK>
 VINA RESULT:     -10.4      1.793      3.599
  Name = 
  3 active torsions:
  status: ('A' for Active; 'I' for Inactive)
    1  A    between atoms: C_14  and  N_19
    2  A    between atoms: C_15  and  C_18
    3  A    between atoms: C_23  and  C_25
                            x       y       z     vdW  Elec       q    Type
                         _______ _______ _______ _____ _____    ______ ____

>  <TORSDO>
F 3

$$$$
=
 OpenBabel10222420173D

 27 31  0  0  1  0  0  0  0  0999 V2000
  186.7100  178.3110  146.0800 C   0  0  0  0  0  3  0  0  0  0  0  0
  185.4290  178.7370  146.4390 C   0  0  0  0  0  3  0  0  0  0  0  0
  184.6630  178.3600  144.1680 C   0  0  0  0  0  0  0  0  0  0  0  0
  186.9850  177.8950  144.7690 C   0  0  0  0  0  0  0  0  0  0  0  0
  185.9500  177.9340  143.8190 C   0  0  0  0  0  3  0  0  0  0  0  0
  184.4080  178.7600  145.4880 C   0  0  0  0  0  3  0  0  0  0  0  0
  190.6610  176.7890  144.7790 C   0  0  0  0  0  0  0  0  0  0  0  0
  190.8730  176.7040  143.4410 N   0  0  0  0  0  0  0  0  0  0  0  0
  190.2420  176.9070  147.5440 C   0  0  0  0  0  3  0  0  0  0  0  0
  191.7030  176.4880  145.6610 C   0  0  0  0  0  3  0  0  0  0  0  0
  189.3890  177.1690  145.2790 C   0  0  0  0  0  0  0  0  0  0  0  0
  189.1970  177.2120  146.6690 C   0  0  0  0  0  3  0  0  0  0  0  0
  188.3500  177.4660  144.3600 C   0  0  0  0  0  0  0  0  0  0  0  0
  191.4950  176.5480  147.0400 C   0  0  0  0  0  3  0  0  0  0  0  0
  188.6230  177.3510  142.9880 C   0  0  0  0  0  3  0  0  0  0  0  0
  189.8870  176.9650  142.5450 C   0  0  0  0  0  0  0  0  0  0  0  0
  190.1660  176.8750  141.0870 C   0  0  0  0  0  2  0  0  0  0  0  0
  191.4920  177.4010  140.8090 N   0  0  0  0  0  1  0  0  0  0  0  0
  182.8310  178.7000  141.1780 C   0  0  1  0  0  3  0  0  0  0  0  0
  182.3430  178.9560  143.3880 C   0  0  0  0  0  2  0  0  0  0  0  0
  183.8380  178.0050  141.8850 O   0  0  0  0  0  0  0  0  0  0  0  0
  182.1440  177.8350  140.1530 C   0  0  0  0  0  3  0  0  0  0  0  0
  180.8180  177.9160  139.9630 C   0  0  0  0  0  3  0  0  0  0  0  0
  181.8520  179.1460  142.2000 C   0  0  2  0  0  3  0  0  0  0  0  0
  183.6230  178.3820  143.1810 N   0  0  0  0  0  0  0  0  0  0  0  0
  180.4670  179.3270  141.9040 N   0  0  0  0  0  0  0  0  0  0  0  0
  179.9740  178.7700  140.8360 C   0  0  0  0  0  3  0  0  0  0  0  0
  1  2  1  0  0  0  0
  3  6  1  0  0  0  0
  4  1  2  0  0  0  0
  5  3  2  0  0  0  0
  5  4  1  0  0  0  0
  6  2  2  0  0  0  0
  7 11  2  0  0  0  0
  7 10  1  0  0  0  0
  8  7  1  0  0  0  0
 10 14  2  0  0  0  0
 11 12  1  0  0  0  0
 12  9  2  0  0  0  0
 13  4  1  0  0  0  0
 13 11  1  0  0  0  0
 14  9  1  0  0  0  0
 15 13  2  0  0  0  0
 16 15  1  0  0  0  0
 16  8  2  0  0  0  0
 17 16  1  0  0  0  0
 18 17  1  0  0  0  0
 19 22  1  6  0  0  0
 19 21  1  0  0  0  0
 19 24  1  0  0  0  0
 21 25  1  0  0  0  0
 23 22  2  0  0  0  0
 23 27  1  0  0  0  0
 24 20  1  1  0  0  0
 25 20  1  0  0  0  0
 25  3  1  0  0  0  0
 26 24  1  0  0  0  0
 27 26  2  0  0  0  0
M  END
>  <MODEL>
5

>  <REMARK>
 VINA RESULT:     -10.3      1.706      3.296
  Name = 
  3 active torsions:
  status: ('A' for Active; 'I' for Inactive)
    1  A    between atoms: C_14  and  N_19
    2  A    between atoms: C_15  and  C_18
    3  A    between atoms: C_23  and  C_25
                            x       y       z     vdW  Elec       q    Type
                         _______ _______ _______ _____ _____    ______ ____

>  <TORSDO>
F 3

$$$$
=
 OpenBabel10222420173D

 27 31  0  0  1  0  0  0  0  0999 V2000
  190.2880  176.7610  144.3040 C   0  0  0  0  0  3  0  0  0  0  0  0
  191.2230  176.4280  143.3210 C   0  0  0  0  0  3  0  0  0  0  0  0
  189.6620  177.1170  141.5960 C   0  0  0  0  0  0  0  0  0  0  0  0
  189.0340  177.2850  143.9520 C   0  0  0  0  0  0  0  0  0  0  0  0
  188.7310  177.4490  142.5890 C   0  0  0  0  0  3  0  0  0  0  0  0
  190.9120  176.6070  141.9720 C   0  0  0  0  0  3  0  0  0  0  0  0
  185.7870  178.2850  145.7380 C   0  0  0  0  0  0  0  0  0  0  0  0
  186.2200  178.2510  147.0250 N   0  0  0  0  0  0  0  0  0  0  0  0
  184.8510  178.3170  143.1010 C   0  0  0  0  0  3  0  0  0  0  0  0
  184.4590  178.6280  145.4680 C   0  0  0  0  0  3  0  0  0  0  0  0
  186.6720  177.9650  144.6780 C   0  0  0  0  0  0  0  0  0  0  0  0
  186.1790  177.9760  143.3630 C   0  0  0  0  0  3  0  0  0  0  0  0
  188.0130  177.6180  144.9830 C   0  0  0  0  0  0  0  0  0  0  0  0
  183.9920  178.6450  144.1520 C   0  0  0  0  0  3  0  0  0  0  0  0
  188.4020  177.5890  146.3310 C   0  0  0  0  0  3  0  0  0  0  0  0
  187.4930  177.9030  147.3400 C   0  0  0  0  0  0  0  0  0  0  0  0
  187.9310  177.8940  148.7610 C   0  0  0  0  0  2  0  0  0  0  0  0
  189.3360  178.2530  148.8430 N   0  0  0  0  0  1  0  0  0  0  0  0
  189.8040  177.5540  138.1030 C   0  0  1  0  0  3  0  0  0  0  0  0
  188.3860  178.2520  139.7440 C   0  0  0  0  0  2  0  0  0  0  0  0
  190.0310  176.7020  139.2070 O   0  0  0  0  0  0  0  0  0  0  0  0
  189.4870  176.7950  136.8420 C   0  0  0  0  0  3  0  0  0  0  0  0
  188.5450  177.2330  135.9920 C   0  0  0  0  0  3  0  0  0  0  0  0
  188.6510  178.4090  138.4820 C   0  0  2  0  0  3  0  0  0  0  0  0
  189.3300  177.3040  140.2130 N   0  0  0  0  0  0  0  0  0  0  0  0
  187.7480  178.9450  137.5150 N   0  0  0  0  0  0  0  0  0  0  0  0
  187.7070  178.4130  136.3270 C   0  0  0  0  0  3  0  0  0  0  0  0
  2  1  2  0  0  0  0
  3  6  2  0  0  0  0
  3  5  1  0  0  0  0
  4  1  1  0  0  0  0
  4 13  1  0  0  0  0
  5  4  2  0  0  0  0
  6  2  1  0  0  0  0
  7  8  2  0  0  0  0
  8 16  1  0  0  0  0
  9 12  2  0  0  0  0
  9 14  1  0  0  0  0
 10  7  1  0  0  0  0
 11 13  2  0  0  0  0
 11  7  1  0  0  0  0
 12 11  1  0  0  0  0
 13 15  1  0  0  0  0
 14 10  2  0  0  0  0
 15 16  2  0  0  0  0
 16 17  1  0  0  0  0
 17 18  1  0  0  0  0
 19 22  1  6  0  0  0
 19 24  1  0  0  0  0
 19 21  1  0  0  0  0
 20 25  1  0  0  0  0
 21 25  1  0  0  0  0
 23 27  1  0  0  0  0
 23 22  2  0  0  0  0
 24 20  1  1  0  0  0
 25  3  1  0  0  0  0
 26 24  1  0  0  0  0
 27 26  2  0  0  0  0
M  END
>  <MODEL>
6

>  <REMARK>
 VINA RESULT:     -10.3      3.185      5.415
  Name = 
  3 active torsions:
  status: ('A' for Active; 'I' for Inactive)
    1  A    between atoms: C_14  and  N_19
    2  A    between atoms: C_15  and  C_18
    3  A    between atoms: C_23  and  C_25
                            x       y       z     vdW  Elec       q    Type
                         _______ _______ _______ _____ _____    ______ ____

>  <TORSDO>
F 3

$$$$
=
 OpenBabel10222420173D

 27 31  0  0  1  0  0  0  0  0999 V2000
  183.9800  178.9280  145.3160 C   0  0  0  0  0  3  0  0  0  0  0  0
  184.7470  178.7830  146.4740 C   0  0  0  0  0  3  0  0  0  0  0  0
  186.6030  177.9580  145.1470 C   0  0  0  0  0  0  0  0  0  0  0  0
  184.5130  178.6020  144.0590 C   0  0  0  0  0  0  0  0  0  0  0  0
  185.8270  178.1080  143.9920 C   0  0  0  0  0  3  0  0  0  0  0  0
  186.0550  178.3020  146.3910 C   0  0  0  0  0  3  0  0  0  0  0  0
  181.6100  178.8280  141.5570 C   0  0  0  0  0  0  0  0  0  0  0  0
  182.3170  178.9210  140.4020 N   0  0  0  0  0  0  0  0  0  0  0  0
  180.1240  178.6900  143.9250 C   0  0  0  0  0  3  0  0  0  0  0  0
  180.2130  178.8420  141.5120 C   0  0  0  0  0  3  0  0  0  0  0  0
  182.2830  178.7310  142.8020 C   0  0  0  0  0  0  0  0  0  0  0  0
  181.5190  178.6730  143.9780 C   0  0  0  0  0  3  0  0  0  0  0  0
  183.7020  178.7220  142.8170 C   0  0  0  0  0  0  0  0  0  0  0  0
  179.4710  178.7720  142.6930 C   0  0  0  0  0  3  0  0  0  0  0  0
  184.3800  178.8310  141.5930 C   0  0  0  0  0  3  0  0  0  0  0  0
  183.6740  178.9330  140.3960 C   0  0  0  0  0  0  0  0  0  0  0  0
  184.4100  179.0190  139.1060 C   0  0  0  0  0  2  0  0  0  0  0  0
  185.8340  178.8560  139.3420 N   0  0  0  0  0  1  0  0  0  0  0  0
  190.1100  177.6230  145.2070 C   0  0  1  0  0  3  0  0  0  0  0  0
  188.4410  176.7300  143.9390 C   0  0  0  0  0  2  0  0  0  0  0  0
  188.9180  177.8020  145.9450 O   0  0  0  0  0  0  0  0  0  0  0  0
  191.1770  176.9140  145.9980 C   0  0  0  0  0  3  0  0  0  0  0  0
  191.9620  175.9900  145.4210 C   0  0  0  0  0  3  0  0  0  0  0  0
  189.7360  176.8110  144.0220 C   0  0  2  0  0  3  0  0  0  0  0  0
  187.9450  177.4600  145.0490 N   0  0  0  0  0  0  0  0  0  0  0  0
  190.6550  175.9300  143.3790 N   0  0  0  0  0  0  0  0  0  0  0  0
  191.7230  175.5550  144.0210 C   0  0  0  0  0  3  0  0  0  0  0  0
  1  2  1  0  0  0  0
  3  6  1  0  0  0  0
  4  1  2  0  0  0  0
  5  4  1  0  0  0  0
  5  3  2  0  0  0  0
  6  2  2  0  0  0  0
  7 11  1  0  0  0  0
  8  7  1  0  0  0  0
  9 12  1  0  0  0  0
 10  7  2  0  0  0  0
 10 14  1  0  0  0  0
 11 13  1  0  0  0  0
 11 12  2  0  0  0  0
 13  4  1  0  0  0  0
 14  9  2  0  0  0  0
 15 13  2  0  0  0  0
 16  8  2  0  0  0  0
 16 15  1  0  0  0  0
 17 18  1  0  0  0  0
 17 16  1  0  0  0  0
 19 21  1  0  0  0  0
 19 22  1  1  0  0  0
 20 25  1  0  0  0  0
 23 22  2  0  0  0  0
 24 20  1  1  0  0  0
 24 19  1  0  0  0  0
 25  3  1  0  0  0  0
 25 21  1  0  0  0  0
 26 27  2  0  0  0  0
 26 24  1  0  0  0  0
 27 23  1  0  0  0  0
M  END
>  <MODEL>
7

>  <REMARK>
 VINA RESULT:     -10.3      2.238      8.165
  Name = 
  3 active torsions:
  status: ('A' for Active; 'I' for Inactive)
    1  A    between atoms: C_14  and  N_19
    2  A    between atoms: C_15  and  C_18
    3  A    between atoms: C_23  and  C_25
                            x       y       z     vdW  Elec       q    Type
                         _______ _______ _______ _____ _____    ______ ____

>  <TORSDO>
F 3

$$$$
=
 OpenBabel10222420173D

 27 31  0  0  1  0  0  0  0  0999 V2000
  189.8170  176.6570  144.0510 C   0  0  0  0  0  3  0  0  0  0  0  0
  190.7460  176.2450  143.0920 C   0  0  0  0  0  3  0  0  0  0  0  0
  189.3220  177.1150  141.3310 C   0  0  0  0  0  0  0  0  0  0  0  0
  188.6360  177.3110  143.6680 C   0  0  0  0  0  0  0  0  0  0  0  0
  188.3970  177.5250  142.2990 C   0  0  0  0  0  3  0  0  0  0  0  0
  190.5010  176.4750  141.7380 C   0  0  0  0  0  3  0  0  0  0  0  0
  186.8360  178.2270  146.9320 C   0  0  0  0  0  0  0  0  0  0  0  0
  185.6020  178.5000  146.4390 N   0  0  0  0  0  0  0  0  0  0  0  0
  189.3840  177.7220  147.9760 C   0  0  0  0  0  3  0  0  0  0  0  0
  187.0690  178.3450  148.3060 C   0  0  0  0  0  3  0  0  0  0  0  0
  187.8850  177.8390  146.0610 C   0  0  0  0  0  0  0  0  0  0  0  0
  189.1580  177.6000  146.6030 C   0  0  0  0  0  3  0  0  0  0  0  0
  187.6200  177.7310  144.6720 C   0  0  0  0  0  0  0  0  0  0  0  0
  188.3400  178.0910  148.8270 C   0  0  0  0  0  3  0  0  0  0  0  0
  186.3280  178.0340  144.2160 C   0  0  0  0  0  3  0  0  0  0  0  0
  185.3310  178.4210  145.1110 C   0  0  0  0  0  0  0  0  0  0  0  0
  183.9600  178.7120  144.6140 C   0  0  0  0  0  2  0  0  0  0  0  0
  183.9400  178.6420  143.1630 N   0  0  0  0  0  1  0  0  0  0  0  0
  189.6320  177.7830  137.8860 C   0  0  1  0  0  3  0  0  0  0  0  0
  188.0520  178.2330  139.4650 C   0  0  0  0  0  2  0  0  0  0  0  0
  189.8770  176.8890  138.9530 O   0  0  0  0  0  0  0  0  0  0  0  0
  189.4710  177.0770  136.5650 C   0  0  0  0  0  3  0  0  0  0  0  0
  188.5430  177.4740  135.6800 C   0  0  0  0  0  3  0  0  0  0  0  0
  188.3760  178.4950  138.2340 C   0  0  2  0  0  3  0  0  0  0  0  0
  189.0580  177.3550  139.9420 N   0  0  0  0  0  0  0  0  0  0  0  0
  187.4830  178.9990  137.2410 N   0  0  0  0  0  0  0  0  0  0  0  0
  187.5700  178.5420  136.0250 C   0  0  0  0  0  3  0  0  0  0  0  0
  2  1  2  0  0  0  0
  3  6  2  0  0  0  0
  3  5  1  0  0  0  0
  4  1  1  0  0  0  0
  4 13  1  0  0  0  0
  5  4  2  0  0  0  0
  6  2  1  0  0  0  0
  7 10  1  0  0  0  0
  8  7  1  0  0  0  0
  9 14  1  0  0  0  0
 10 14  2  0  0  0  0
 11 12  1  0  0  0  0
 11  7  2  0  0  0  0
 12  9  2  0  0  0  0
 13 11  1  0  0  0  0
 15 13  2  0  0  0  0
 15 16  1  0  0  0  0
 16  8  2  0  0  0  0
 17 16  1  0  0  0  0
 18 17  1  0  0  0  0
 19 22  1  6  0  0  0
 19 24  1  0  0  0  0
 19 21  1  0  0  0  0
 20 25  1  0  0  0  0
 21 25  1  0  0  0  0
 23 27  1  0  0  0  0
 23 22  2  0  0  0  0
 24 20  1  1  0  0  0
 25  3  1  0  0  0  0
 26 24  1  0  0  0  0
 27 26  2  0  0  0  0
M  END
>  <MODEL>
8

>  <REMARK>
 VINA RESULT:     -10.1      3.318      5.981
  Name = 
  3 active torsions:
  status: ('A' for Active; 'I' for Inactive)
    1  A    between atoms: C_14  and  N_19
    2  A    between atoms: C_15  and  C_18
    3  A    between atoms: C_23  and  C_25
                            x       y       z     vdW  Elec       q    Type
                         _______ _______ _______ _____ _____    ______ ____

>  <TORSDO>
F 3

$$$$
=
 OpenBabel10222420173D

 27 31  0  0  1  0  0  0  0  0999 V2000
  183.8760  178.9280  145.5140 C   0  0  0  0  0  3  0  0  0  0  0  0
  184.7190  178.7910  146.6200 C   0  0  0  0  0  3  0  0  0  0  0  0
  186.4960  177.9980  145.1710 C   0  0  0  0  0  0  0  0  0  0  0  0
  184.3300  178.6140  144.2240 C   0  0  0  0  0  0  0  0  0  0  0  0
  185.6440  178.1400  144.0690 C   0  0  0  0  0  3  0  0  0  0  0  0
  186.0250  178.3300  146.4490 C   0  0  0  0  0  3  0  0  0  0  0  0
  182.9710  178.8990  140.6450 C   0  0  0  0  0  0  0  0  0  0  0  0
  181.6430  178.9670  140.9150 N   0  0  0  0  0  0  0  0  0  0  0  0
  185.7010  178.7100  140.0530 C   0  0  0  0  0  3  0  0  0  0  0  0
  183.4070  178.9440  139.3180 C   0  0  0  0  0  3  0  0  0  0  0  0
  183.9090  178.7710  141.7010 C   0  0  0  0  0  0  0  0  0  0  0  0
  185.2730  178.6670  141.3820 C   0  0  0  0  0  3  0  0  0  0  0  0
  183.4370  178.7250  143.0380 C   0  0  0  0  0  0  0  0  0  0  0  0
  184.7690  178.8510  139.0220 C   0  0  0  0  0  3  0  0  0  0  0  0
  182.0530  178.7890  143.2570 C   0  0  0  0  0  3  0  0  0  0  0  0
  181.1690  178.9060  142.1850 C   0  0  0  0  0  0  0  0  0  0  0  0
  179.7070  179.0020  142.4370 C   0  0  0  0  0  2  0  0  0  0  0  0
  179.3690  178.2700  143.6460 N   0  0  0  0  0  1  0  0  0  0  0  0
  190.0040  177.7180  144.9990 C   0  0  1  0  0  3  0  0  0  0  0  0
  188.2690  176.7990  143.8430 C   0  0  0  0  0  2  0  0  0  0  0  0
  188.8600  177.8780  145.8140 O   0  0  0  0  0  0  0  0  0  0  0  0
  191.1320  177.0250  145.7160 C   0  0  0  0  0  3  0  0  0  0  0  0
  191.8910  176.1130  145.0870 C   0  0  0  0  0  3  0  0  0  0  0  0
  189.5650  176.9010  143.8400 C   0  0  2  0  0  3  0  0  0  0  0  0
  187.8360  177.5210  144.9840 N   0  0  0  0  0  0  0  0  0  0  0  0
  190.4530  176.0340  143.1350 N   0  0  0  0  0  0  0  0  0  0  0  0
  191.5670  175.6760  143.7050 C   0  0  0  0  0  3  0  0  0  0  0  0
  1  2  1  0  0  0  0
  3  6  1  0  0  0  0
  4  1  2  0  0  0  0
  5  4  1  0  0  0  0
  5  3  2  0  0  0  0
  6  2  2  0  0  0  0
  7  8  2  0  0  0  0
  7 11  1  0  0  0  0
  8 16  1  0  0  0  0
  9 12  2  0  0  0  0
 10  7  1  0  0  0  0
 11 13  2  0  0  0  0
 12 11  1  0  0  0  0
 13 15  1  0  0  0  0
 13  4  1  0  0  0  0
 14 10  2  0  0  0  0
 14  9  1  0  0  0  0
 16 17  1  0  0  0  0
 16 15  2  0  0  0  0
 17 18  1  0  0  0  0
 19 22  1  1  0  0  0
 19 21  1  0  0  0  0
 20 25  1  0  0  0  0
 23 22  2  0  0  0  0
 24 20  1  1  0  0  0
 24 19  1  0  0  0  0
 25  3  1  0  0  0  0
 25 21  1  0  0  0  0
 26 27  2  0  0  0  0
 26 24  1  0  0  0  0
 27 23  1  0  0  0  0
M  END
>  <MODEL>
9

>  <REMARK>
 VINA RESULT:      -9.7      2.314      7.787
  Name = 
  3 active torsions:
  status: ('A' for Active; 'I' for Inactive)
    1  A    between atoms: C_14  and  N_19
    2  A    between atoms: C_15  and  C_18
    3  A    between atoms: C_23  and  C_25
                            x       y       z     vdW  Elec       q    Type
                         _______ _______ _______ _____ _____    ______ ____

>  <TORSDO>
F 3

$$$$
