=
 OpenBabel10222416523D

 41 40  0  0  1  0  0  0  0  0999 V2000
  190.0170  176.9050  141.2310 C   0  0  0  0  0  0  0  0  0  0  0  0
  190.0710  177.0910  139.8070 N   0  0  0  0  0  0  0  0  0  0  0  0
  190.4230  175.8250  141.7380 O   0  0  0  0  0  0  0  0  0  0  0  0
  190.5820  176.0730  138.9860 N   0  0  0  0  0  2  0  0  0  0  0  0
  191.9530  176.4290  138.6370 C   0  0  0  0  0  2  0  0  0  0  0  0
  192.4390  175.6340  137.4270 C   0  0  1  0  0  3  0  0  0  0  0  0
  193.1750  176.5410  136.4590 C   0  0  0  0  0  1  0  0  0  0  0  0
  193.3350  174.4650  137.8280 C   0  0  0  0  0  2  0  0  0  0  0  0
  194.7470  174.6230  137.2780 C   0  0  0  0  0  2  0  0  0  0  0  0
  195.7610  174.2240  138.2960 C   0  0  0  0  0  0  0  0  0  0  0  0
  196.9890  174.8730  138.3420 O   0  0  0  0  0  0  0  0  0  0  0  0
  195.4950  173.3180  139.1290 O   0  0  0  0  0  1  0  0  0  0  0  0
  189.5040  177.9820  142.1370 C   0  0  0  0  0  2  0  0  0  0  0  0
  188.5820  177.4030  143.1710 C   0  0  0  0  0  3  0  0  0  0  0  0
  188.8270  177.4360  144.4860 C   0  0  0  0  0  3  0  0  0  0  0  0
  190.0740  178.0250  145.0690 C   0  0  0  0  0  2  0  0  0  0  0  0
  191.0270  176.9400  145.4420 C   0  0  0  0  0  0  0  0  0  0  0  0
  191.8160  176.5100  144.6140 O   0  0  0  0  0  0  0  0  0  0  0  0
  190.9890  176.3710  146.8280 C   0  0  2  0  0  3  0  0  0  0  0  0
  190.5850  177.3920  147.7800 N   0  0  0  0  0  1  0  0  0  0  0  0
  192.7820  176.0390  148.3240 O   0  0  0  0  0  0  0  0  0  0  0  0
  192.3180  175.8090  147.2190 C   0  0  0  0  0  3  0  0  0  0  0  0
  189.4150  178.2290  139.1760 C   0  0  0  0  0  2  0  0  0  0  0  0
  189.0980  178.6700  136.8510 O   0  0  0  0  0  1  0  0  0  0  0  0
  188.7400  177.8000  137.8840 C   0  0  2  0  0  3  0  0  0  0  0  0
  187.2210  177.7550  138.0500 C   0  0  2  0  0  3  0  0  0  0  0  0
  185.8340  177.0450  136.0440 C   0  0  0  0  0  0  0  0  0  0  0  0
  185.7780  175.8550  136.4510 O   0  0  0  0  0  1  0  0  0  0  0  0
  185.1810  177.4010  134.8720 O   0  0  0  0  0  0  0  0  0  0  0  0
  186.5660  178.0290  136.7740 N   0  0  0  0  0  2  0  0  0  0  0  0
  186.8040  178.6950  139.0030 O   0  0  0  0  0  0  0  0  0  0  0  0
  183.3330  178.7280  139.8350 O   0  0  0  0  0  0  0  0  0  0  0  0
  185.4530  178.7480  138.8890 N   0  0  0  0  0  2  0  0  0  0  0  0
  184.5760  178.7260  140.0230 C   0  0  0  0  0  0  0  0  0  0  0  0
  185.8780  179.8030  141.6910 O   0  0  0  0  0  1  0  0  0  0  0  0
  185.0900  178.6800  141.4300 C   0  0  1  0  0  3  0  0  0  0  0  0
  183.9680  178.5740  142.4230 C   0  0  0  0  0  3  0  0  0  0  0  0
  184.1580  178.4700  143.7430 C   0  0  0  0  0  3  0  0  0  0  0  0
  185.5170  178.4390  144.3650 C   0  0  0  0  0  2  0  0  0  0  0  0
  185.4790  179.1560  145.6990 C   0  0  0  0  0  2  0  0  0  0  0  0
  184.7300  178.3080  146.7050 C   0  0  0  0  0  1  0  0  0  0  0  0
  1  3  2  0  0  0  0
  1 13  1  0  0  0  0
  2  1  1  0  0  0  0
  4  2  1  0  0  0  0
  5  4  1  0  0  0  0
  6  7  1  6  0  0  0
  6  8  1  0  0  0  0
  6  5  1  0  0  0  0
  9  8  1  0  0  0  0
  9 10  1  0  0  0  0
 10 11  2  0  0  0  0
 10 12  1  0  0  0  0
 13 14  1  0  0  0  0
 14 15  2  0  0  0  0
 15 16  1  0  0  0  0
 16 17  1  0  0  0  0
 17 19  1  0  0  0  0
 18 17  2  0  0  0  0
 19 22  1  0  0  0  0
 19 20  1  1  0  0  0
 22 21  2  0  0  0  0
 23  2  1  0  0  0  0
 25 24  1  6  0  0  0
 25 26  1  0  0  0  0
 25 23  1  0  0  0  0
 26 30  1  6  0  0  0
 26 31  1  0  0  0  0
 27 28  1  0  0  0  0
 27 30  1  0  0  0  0
 29 27  2  0  0  0  0
 32 34  2  0  0  0  0
 33 31  1  0  0  0  0
 33 34  1  0  0  0  0
 34 36  1  0  0  0  0
 36 35  1  1  0  0  0
 36 37  1  0  0  0  0
 37 38  2  0  0  0  0
 38 39  1  0  0  0  0
 39 40  1  0  0  0  0
 40 41  1  0  0  0  0
M  END
>  <MODEL>
1

>  <REMARK>
 VINA RESULT:      -7.1      0.000      0.000
  Name = 
  22 active torsions:
  status: ('A' for Active; 'I' for Inactive)
    1  A    between atoms: C_3  and  N_11
    2  A    between atoms: C_3  and  C_14
    3  A    between atoms: C_4  and  C_7
    4  A    between atoms: C_4  and  C_12
    5  A    between atoms: C_8  and  C_34
    6  A    between atoms: N_10  and  O_33
    7  A    between atoms: N_11  and  N_27
    8  A    between atoms: C_13  and  C_17
    9  A    between atoms: C_13  and  C_38
   10  A    between atoms: C_14  and  C_23
   11  A    between atoms: C_15  and  C_30
   12  A    between atoms: C_15  and  C_32
   13  A    between atoms: C_16  and  C_37
   14  A    between atoms: C_16  and  C_41
   15  A    between atoms: C_17  and  N_27
   16  A    between atoms: C_19  and  C_28
   17  A    between atoms: C_19  and  C_37
   18  A    between atoms: C_21  and  C_35
   19  A    between atoms: C_22  and  C_35
   20  A    between atoms: C_23  and  N_31
   21  A    between atoms: C_23  and  O_33
   22  A    between atoms: C_34  and  C_38
                            x       y       z     vdW  Elec       q    Type
                         _______ _______ _______ _____ _____    ______ ____

>  <TORSDO>
F 22

$$$$
=
 OpenBabel10222416523D

 41 40  0  0  1  0  0  0  0  0999 V2000
  189.7350  177.1020  141.3120 C   0  0  0  0  0  0  0  0  0  0  0  0
  189.7410  177.3900  139.9040 N   0  0  0  0  0  0  0  0  0  0  0  0
  190.1680  175.9940  141.7270 O   0  0  0  0  0  0  0  0  0  0  0  0
  190.2370  176.4400  138.9960 N   0  0  0  0  0  2  0  0  0  0  0  0
  191.6620  176.6970  138.8170 C   0  0  0  0  0  2  0  0  0  0  0  0
  192.1670  176.1120  137.5000 C   0  0  1  0  0  3  0  0  0  0  0  0
  192.3660  174.6130  137.6290 C   0  0  0  0  0  1  0  0  0  0  0  0
  191.2260  176.4130  136.3370 C   0  0  0  0  0  2  0  0  0  0  0  0
  190.7090  175.1370  135.6850 C   0  0  0  0  0  2  0  0  0  0  0  0
  189.2620  175.2630  135.3450 C   0  0  0  0  0  0  0  0  0  0  0  0
  188.4510  174.1360  135.3390 O   0  0  0  0  0  1  0  0  0  0  0  0
  188.7720  176.3940  135.0890 O   0  0  0  0  0  0  0  0  0  0  0  0
  189.2390  178.1050  142.3070 C   0  0  0  0  0  2  0  0  0  0  0  0
  188.3860  177.4350  143.3460 C   0  0  0  0  0  3  0  0  0  0  0  0
  188.6710  177.4350  144.6530 C   0  0  0  0  0  3  0  0  0  0  0  0
  189.9000  178.0760  145.2200 C   0  0  0  0  0  2  0  0  0  0  0  0
  190.9220  177.0350  145.5320 C   0  0  0  0  0  0  0  0  0  0  0  0
  191.7190  176.6870  144.6730 O   0  0  0  0  0  0  0  0  0  0  0  0
  190.9450  176.4090  146.8940 C   0  0  2  0  0  3  0  0  0  0  0  0
  190.6650  177.4080  147.9100 N   0  0  0  0  0  1  0  0  0  0  0  0
  192.6870  175.6880  148.3110 O   0  0  0  0  0  0  0  0  0  0  0  0
  192.2640  175.7610  147.1680 C   0  0  0  0  0  3  0  0  0  0  0  0
  189.0540  178.5620  139.3760 C   0  0  0  0  0  2  0  0  0  0  0  0
  188.3350  179.2610  137.2100 O   0  0  0  0  0  1  0  0  0  0  0  0
  188.2840  178.2000  138.1160 C   0  0  2  0  0  3  0  0  0  0  0  0
  186.8360  177.8400  138.4460 C   0  0  2  0  0  3  0  0  0  0  0  0
  185.5740  176.7820  136.5110 C   0  0  0  0  0  0  0  0  0  0  0  0
  185.9510  175.6270  136.8430 O   0  0  0  0  0  1  0  0  0  0  0  0
  184.7320  176.9430  135.4190 O   0  0  0  0  0  0  0  0  0  0  0  0
  186.0090  177.9260  137.2450 N   0  0  0  0  0  2  0  0  0  0  0  0
  186.3280  178.7010  139.4280 O   0  0  0  0  0  0  0  0  0  0  0  0
  182.9000  178.3730  140.3720 O   0  0  0  0  0  0  0  0  0  0  0  0
  184.9790  178.5740  139.3560 N   0  0  0  0  0  2  0  0  0  0  0  0
  184.1370  178.5450  140.5170 C   0  0  0  0  0  0  0  0  0  0  0  0
  185.5340  179.7970  141.9710 O   0  0  0  0  0  1  0  0  0  0  0  0
  184.6840  178.6910  141.9040 C   0  0  1  0  0  3  0  0  0  0  0  0
  183.5840  178.8020  142.9210 C   0  0  0  0  0  3  0  0  0  0  0  0
  183.7930  178.7580  144.2420 C   0  0  0  0  0  3  0  0  0  0  0  0
  185.1510  178.5820  144.8410 C   0  0  0  0  0  2  0  0  0  0  0  0
  185.0170  178.3040  146.3240 C   0  0  0  0  0  2  0  0  0  0  0  0
  186.1720  178.9470  147.0630 C   0  0  0  0  0  1  0  0  0  0  0  0
  1  3  2  0  0  0  0
  1 13  1  0  0  0  0
  2  1  1  0  0  0  0
  4  2  1  0  0  0  0
  5  4  1  0  0  0  0
  6  7  1  1  0  0  0
  6  5  1  0  0  0  0
  8  6  1  0  0  0  0
  9  8  1  0  0  0  0
 10  9  1  0  0  0  0
 11 10  1  0  0  0  0
 12 10  2  0  0  0  0
 13 14  1  0  0  0  0
 14 15  2  0  0  0  0
 15 16  1  0  0  0  0
 16 17  1  0  0  0  0
 17 19  1  0  0  0  0
 18 17  2  0  0  0  0
 19 22  1  0  0  0  0
 19 20  1  1  0  0  0
 22 21  2  0  0  0  0
 23  2  1  0  0  0  0
 25 24  1  6  0  0  0
 25 26  1  0  0  0  0
 25 23  1  0  0  0  0
 26 30  1  6  0  0  0
 26 31  1  0  0  0  0
 27 28  1  0  0  0  0
 27 30  1  0  0  0  0
 29 27  2  0  0  0  0
 32 34  2  0  0  0  0
 33 31  1  0  0  0  0
 33 34  1  0  0  0  0
 34 36  1  0  0  0  0
 36 35  1  6  0  0  0
 36 37  1  0  0  0  0
 37 38  2  0  0  0  0
 38 39  1  0  0  0  0
 39 40  1  0  0  0  0
 40 41  1  0  0  0  0
M  END
>  <MODEL>
2

>  <REMARK>
 VINA RESULT:      -7.1      1.805      2.490
  Name = 
  22 active torsions:
  status: ('A' for Active; 'I' for Inactive)
    1  A    between atoms: C_3  and  N_11
    2  A    between atoms: C_3  and  C_14
    3  A    between atoms: C_4  and  C_7
    4  A    between atoms: C_4  and  C_12
    5  A    between atoms: C_8  and  C_34
    6  A    between atoms: N_10  and  O_33
    7  A    between atoms: N_11  and  N_27
    8  A    between atoms: C_13  and  C_17
    9  A    between atoms: C_13  and  C_38
   10  A    between atoms: C_14  and  C_23
   11  A    between atoms: C_15  and  C_30
   12  A    between atoms: C_15  and  C_32
   13  A    between atoms: C_16  and  C_37
   14  A    between atoms: C_16  and  C_41
   15  A    between atoms: C_17  and  N_27
   16  A    between atoms: C_19  and  C_28
   17  A    between atoms: C_19  and  C_37
   18  A    between atoms: C_21  and  C_35
   19  A    between atoms: C_22  and  C_35
   20  A    between atoms: C_23  and  N_31
   21  A    between atoms: C_23  and  O_33
   22  A    between atoms: C_34  and  C_38
                            x       y       z     vdW  Elec       q    Type
                         _______ _______ _______ _____ _____    ______ ____

>  <TORSDO>
F 22

$$$$
=
 OpenBabel10222416523D

 41 40  0  0  1  0  0  0  0  0999 V2000
  189.7760  177.0380  141.4460 C   0  0  0  0  0  0  0  0  0  0  0  0
  189.7810  177.2750  140.0290 N   0  0  0  0  0  0  0  0  0  0  0  0
  190.1940  175.9370  141.8990 O   0  0  0  0  0  0  0  0  0  0  0  0
  190.2550  176.2850  139.1540 N   0  0  0  0  0  2  0  0  0  0  0  0
  191.6660  176.5570  138.8980 C   0  0  0  0  0  2  0  0  0  0  0  0
  192.2100  175.6540  137.7920 C   0  0  1  0  0  3  0  0  0  0  0  0
  191.6280  176.0530  136.4490 C   0  0  0  0  0  1  0  0  0  0  0  0
  193.7350  175.6790  137.7260 C   0  0  0  0  0  2  0  0  0  0  0  0
  194.2400  175.4940  136.3010 C   0  0  0  0  0  2  0  0  0  0  0  0
  195.6640  175.0500  136.2950 C   0  0  0  0  0  0  0  0  0  0  0  0
  196.6800  175.9800  136.1210 O   0  0  0  0  0  0  0  0  0  0  0  0
  195.9450  173.8350  136.4750 O   0  0  0  0  0  1  0  0  0  0  0  0
  189.3030  178.0830  142.4080 C   0  0  0  0  0  2  0  0  0  0  0  0
  190.3070  178.2780  143.5080 C   0  0  0  0  0  3  0  0  0  0  0  0
  190.0330  178.0980  144.8040 C   0  0  0  0  0  3  0  0  0  0  0  0
  188.6750  177.7150  145.3050 C   0  0  0  0  0  2  0  0  0  0  0  0
  188.7240  177.4630  146.7750 C   0  0  0  0  0  0  0  0  0  0  0  0
  189.4340  176.5730  147.2180 O   0  0  0  0  0  0  0  0  0  0  0  0
  187.8800  178.2950  147.6930 C   0  0  2  0  0  3  0  0  0  0  0  0
  187.9400  177.7710  149.0460 N   0  0  0  0  0  1  0  0  0  0  0  0
  185.8130  179.3710  147.3260 O   0  0  0  0  0  0  0  0  0  0  0  0
  186.4600  178.3400  147.2280 C   0  0  0  0  0  3  0  0  0  0  0  0
  189.1100  178.4390  139.4630 C   0  0  0  0  0  2  0  0  0  0  0  0
  189.1090  179.5310  137.3410 O   0  0  0  0  0  1  0  0  0  0  0  0
  188.9680  178.2860  137.9580 C   0  0  2  0  0  3  0  0  0  0  0  0
  187.6230  177.6540  137.5980 C   0  0  2  0  0  3  0  0  0  0  0  0
  187.9100  175.7690  135.9190 C   0  0  0  0  0  0  0  0  0  0  0  0
  188.1830  174.9430  136.8300 O   0  0  0  0  0  1  0  0  0  0  0  0
  187.8570  175.3430  134.5990 O   0  0  0  0  0  0  0  0  0  0  0  0
  187.6580  177.1390  136.2320 N   0  0  0  0  0  2  0  0  0  0  0  0
  186.5910  178.5950  137.7190 O   0  0  0  0  0  0  0  0  0  0  0  0
  183.3360  177.3290  138.4560 O   0  0  0  0  0  0  0  0  0  0  0  0
  185.4410  177.8790  137.6460 N   0  0  0  0  0  2  0  0  0  0  0  0
  184.3490  178.0660  138.5560 C   0  0  0  0  0  0  0  0  0  0  0  0
  184.2000  180.3730  139.0990 O   0  0  0  0  0  1  0  0  0  0  0  0
  184.3820  179.0990  139.6420 C   0  0  1  0  0  3  0  0  0  0  0  0
  183.3530  178.8190  140.7000 C   0  0  0  0  0  3  0  0  0  0  0  0
  183.6580  178.4100  141.9360 C   0  0  0  0  0  3  0  0  0  0  0  0
  185.0640  178.1790  142.3890 C   0  0  0  0  0  2  0  0  0  0  0  0
  185.1870  178.5320  143.8570 C   0  0  0  0  0  2  0  0  0  0  0  0
  183.8350  178.9650  144.3840 C   0  0  0  0  0  1  0  0  0  0  0  0
  1  3  2  0  0  0  0
  1 13  1  0  0  0  0
  2  1  1  0  0  0  0
  4  2  1  0  0  0  0
  5  4  1  0  0  0  0
  6  7  1  6  0  0  0
  6  5  1  0  0  0  0
  8  6  1  0  0  0  0
  9  8  1  0  0  0  0
 10  9  1  0  0  0  0
 10 12  1  0  0  0  0
 11 10  2  0  0  0  0
 13 14  1  0  0  0  0
 14 15  2  0  0  0  0
 15 16  1  0  0  0  0
 16 17  1  0  0  0  0
 17 18  2  0  0  0  0
 17 19  1  0  0  0  0
 19 20  1  1  0  0  0
 22 21  2  0  0  0  0
 22 19  1  0  0  0  0
 23  2  1  0  0  0  0
 25 24  1  6  0  0  0
 25 23  1  0  0  0  0
 26 30  1  6  0  0  0
 26 31  1  0  0  0  0
 26 25  1  0  0  0  0
 27 30  1  0  0  0  0
 27 28  1  0  0  0  0
 29 27  2  0  0  0  0
 32 34  2  0  0  0  0
 33 31  1  0  0  0  0
 33 34  1  0  0  0  0
 34 36  1  0  0  0  0
 36 35  1  6  0  0  0
 36 37  1  0  0  0  0
 37 38  2  0  0  0  0
 38 39  1  0  0  0  0
 39 40  1  0  0  0  0
 40 41  1  0  0  0  0
M  END
>  <MODEL>
3

>  <REMARK>
 VINA RESULT:      -7.1      1.847      2.479
  Name = 
  22 active torsions:
  status: ('A' for Active; 'I' for Inactive)
    1  A    between atoms: C_3  and  N_11
    2  A    between atoms: C_3  and  C_14
    3  A    between atoms: C_4  and  C_7
    4  A    between atoms: C_4  and  C_12
    5  A    between atoms: C_8  and  C_34
    6  A    between atoms: N_10  and  O_33
    7  A    between atoms: N_11  and  N_27
    8  A    between atoms: C_13  and  C_17
    9  A    between atoms: C_13  and  C_38
   10  A    between atoms: C_14  and  C_23
   11  A    between atoms: C_15  and  C_30
   12  A    between atoms: C_15  and  C_32
   13  A    between atoms: C_16  and  C_37
   14  A    between atoms: C_16  and  C_41
   15  A    between atoms: C_17  and  N_27
   16  A    between atoms: C_19  and  C_28
   17  A    between atoms: C_19  and  C_37
   18  A    between atoms: C_21  and  C_35
   19  A    between atoms: C_22  and  C_35
   20  A    between atoms: C_23  and  N_31
   21  A    between atoms: C_23  and  O_33
   22  A    between atoms: C_34  and  C_38
                            x       y       z     vdW  Elec       q    Type
                         _______ _______ _______ _____ _____    ______ ____

>  <TORSDO>
F 22

$$$$
=
 OpenBabel10222416523D

 41 40  0  0  1  0  0  0  0  0999 V2000
  183.7590  178.8820  144.3990 C   0  0  0  0  0  0  0  0  0  0  0  0
  185.1560  178.6740  144.1310 N   0  0  0  0  0  0  0  0  0  0  0  0
  183.3960  179.3230  145.5230 O   0  0  0  0  0  0  0  0  0  0  0  0
  186.1110  178.9690  145.1170 N   0  0  0  0  0  2  0  0  0  0  0  0
  186.8160  177.7320  145.4370 C   0  0  0  0  0  2  0  0  0  0  0  0
  188.0050  177.9970  146.3580 C   0  0  1  0  0  3  0  0  0  0  0  0
  187.5900  177.8540  147.8110 C   0  0  0  0  0  1  0  0  0  0  0  0
  189.1830  177.0730  146.0600 C   0  0  0  0  0  2  0  0  0  0  0  0
  190.0010  176.7800  147.3120 C   0  0  0  0  0  2  0  0  0  0  0  0
  191.4360  176.5640  146.9700 C   0  0  0  0  0  0  0  0  0  0  0  0
  191.8210  176.4470  145.6400 O   0  0  0  0  0  0  0  0  0  0  0  0
  192.3010  176.5140  147.8830 O   0  0  0  0  0  1  0  0  0  0  0  0
  182.7180  178.6040  143.3590 C   0  0  0  0  0  2  0  0  0  0  0  0
  181.3480  178.6100  143.9740 C   0  0  0  0  0  3  0  0  0  0  0  0
  180.2160  178.6850  143.2640 C   0  0  0  0  0  3  0  0  0  0  0  0
  180.1960  178.8090  141.7720 C   0  0  0  0  0  2  0  0  0  0  0  0
  179.9400  177.4760  141.1520 C   0  0  0  0  0  0  0  0  0  0  0  0
  179.0550  176.7590  141.5920 O   0  0  0  0  0  0  0  0  0  0  0  0
  180.7910  177.0230  140.0050 C   0  0  2  0  0  3  0  0  0  0  0  0
  180.7480  175.5760  139.8870 N   0  0  0  0  0  1  0  0  0  0  0  0
  183.0920  176.9930  139.4820 O   0  0  0  0  0  0  0  0  0  0  0  0
  182.2060  177.4780  140.1690 C   0  0  0  0  0  3  0  0  0  0  0  0
  185.5900  177.9680  142.9320 C   0  0  0  0  0  2  0  0  0  0  0  0
  185.2490  179.5490  141.1770 O   0  0  0  0  0  1  0  0  0  0  0  0
  186.2350  178.9360  141.9540 C   0  0  2  0  0  3  0  0  0  0  0  0
  187.2530  178.2190  141.0670 C   0  0  2  0  0  3  0  0  0  0  0  0
  189.3710  177.5810  142.3170 C   0  0  0  0  0  0  0  0  0  0  0  0
  188.8640  176.4950  142.7050 O   0  0  0  0  0  1  0  0  0  0  0  0
  190.6800  177.8900  142.6610 O   0  0  0  0  0  0  0  0  0  0  0  0
  188.6100  178.4970  141.5310 N   0  0  0  0  0  2  0  0  0  0  0  0
  187.1190  178.6320  139.7340 O   0  0  0  0  0  0  0  0  0  0  0  0
  189.8790  177.9780  137.5660 O   0  0  0  0  0  0  0  0  0  0  0  0
  188.3750  178.6030  139.2210 N   0  0  0  0  0  2  0  0  0  0  0  0
  188.6830  178.0100  137.9520 C   0  0  0  0  0  0  0  0  0  0  0  0
  187.0070  178.4000  136.3170 O   0  0  0  0  0  1  0  0  0  0  0  0
  187.6290  177.4050  137.0760 C   0  0  1  0  0  3  0  0  0  0  0  0
  188.1980  176.3360  136.1870 C   0  0  0  0  0  3  0  0  0  0  0  0
  187.6060  175.1540  135.9830 C   0  0  0  0  0  3  0  0  0  0  0  0
  186.3130  174.7740  136.6300 C   0  0  0  0  0  2  0  0  0  0  0  0
  186.3860  173.3350  137.0980 C   0  0  0  0  0  2  0  0  0  0  0  0
  185.1020  172.9740  137.8160 C   0  0  0  0  0  1  0  0  0  0  0  0
  1  3  2  0  0  0  0
  2  1  1  0  0  0  0
  2  4  1  0  0  0  0
  4  5  1  0  0  0  0
  5  6  1  0  0  0  0
  6  7  1  1  0  0  0
  8  6  1  0  0  0  0
  8  9  1  0  0  0  0
 10  9  1  0  0  0  0
 10 12  1  0  0  0  0
 11 10  2  0  0  0  0
 13 14  1  0  0  0  0
 13  1  1  0  0  0  0
 15 14  2  0  0  0  0
 16 15  1  0  0  0  0
 17 18  2  0  0  0  0
 17 16  1  0  0  0  0
 19 20  1  1  0  0  0
 19 22  1  0  0  0  0
 19 17  1  0  0  0  0
 21 22  2  0  0  0  0
 23  2  1  0  0  0  0
 25 24  1  6  0  0  0
 25 23  1  0  0  0  0
 26 31  1  6  0  0  0
 26 30  1  0  0  0  0
 26 25  1  0  0  0  0
 27 29  2  0  0  0  0
 27 28  1  0  0  0  0
 30 27  1  0  0  0  0
 32 34  2  0  0  0  0
 33 31  1  0  0  0  0
 34 33  1  0  0  0  0
 36 35  1  6  0  0  0
 36 34  1  0  0  0  0
 37 36  1  0  0  0  0
 38 37  2  0  0  0  0
 38 39  1  0  0  0  0
 39 40  1  0  0  0  0
 40 41  1  0  0  0  0
M  END
>  <MODEL>
4

>  <REMARK>
 VINA RESULT:      -7.0      3.330      8.853
  Name = 
  22 active torsions:
  status: ('A' for Active; 'I' for Inactive)
    1  A    between atoms: C_3  and  N_11
    2  A    between atoms: C_3  and  C_14
    3  A    between atoms: C_4  and  C_7
    4  A    between atoms: C_4  and  C_12
    5  A    between atoms: C_8  and  C_34
    6  A    between atoms: N_10  and  O_33
    7  A    between atoms: N_11  and  N_27
    8  A    between atoms: C_13  and  C_17
    9  A    between atoms: C_13  and  C_38
   10  A    between atoms: C_14  and  C_23
   11  A    between atoms: C_15  and  C_30
   12  A    between atoms: C_15  and  C_32
   13  A    between atoms: C_16  and  C_37
   14  A    between atoms: C_16  and  C_41
   15  A    between atoms: C_17  and  N_27
   16  A    between atoms: C_19  and  C_28
   17  A    between atoms: C_19  and  C_37
   18  A    between atoms: C_21  and  C_35
   19  A    between atoms: C_22  and  C_35
   20  A    between atoms: C_23  and  N_31
   21  A    between atoms: C_23  and  O_33
   22  A    between atoms: C_34  and  C_38
                            x       y       z     vdW  Elec       q    Type
                         _______ _______ _______ _____ _____    ______ ____

>  <TORSDO>
F 22

$$$$
=
 OpenBabel10222416523D

 41 40  0  0  1  0  0  0  0  0999 V2000
  184.1510  178.7840  144.6390 C   0  0  0  0  0  0  0  0  0  0  0  0
  185.5510  178.5370  144.4270 N   0  0  0  0  0  0  0  0  0  0  0  0
  183.7500  179.1940  145.7620 O   0  0  0  0  0  0  0  0  0  0  0  0
  186.4670  178.7570  145.4680 N   0  0  0  0  0  2  0  0  0  0  0  0
  187.2670  177.5460  145.6210 C   0  0  0  0  0  2  0  0  0  0  0  0
  188.4190  177.7650  146.6000 C   0  0  1  0  0  3  0  0  0  0  0  0
  187.8910  177.8930  148.0170 C   0  0  0  0  0  1  0  0  0  0  0  0
  189.4550  176.6470  146.5300 C   0  0  0  0  0  2  0  0  0  0  0  0
  190.8680  177.1970  146.3810 C   0  0  0  0  0  2  0  0  0  0  0  0
  191.8640  176.2750  146.9990 C   0  0  0  0  0  0  0  0  0  0  0  0
  192.2660  175.1320  146.3200 O   0  0  0  0  0  0  0  0  0  0  0  0
  192.3610  176.5480  148.1240 O   0  0  0  0  0  1  0  0  0  0  0  0
  183.1520  178.5860  143.5410 C   0  0  0  0  0  2  0  0  0  0  0  0
  181.7540  178.7110  144.0750 C   0  0  0  0  0  3  0  0  0  0  0  0
  180.6640  178.7510  143.3000 C   0  0  0  0  0  3  0  0  0  0  0  0
  180.7250  178.7130  141.8040 C   0  0  0  0  0  2  0  0  0  0  0  0
  180.1570  179.9700  141.2370 C   0  0  0  0  0  0  0  0  0  0  0  0
  179.8080  180.8730  141.9830 O   0  0  0  0  0  0  0  0  0  0  0  0
  179.9980  180.1020  139.7520 C   0  0  2  0  0  3  0  0  0  0  0  0
  180.9780  179.2780  139.0660 N   0  0  0  0  0  1  0  0  0  0  0  0
  181.0950  181.8720  138.6420 O   0  0  0  0  0  0  0  0  0  0  0  0
  180.1380  181.5250  139.3180 C   0  0  0  0  0  3  0  0  0  0  0  0
  186.0170  177.8630  143.2220 C   0  0  0  0  0  2  0  0  0  0  0  0
  185.7250  179.4120  141.4300 O   0  0  0  0  0  1  0  0  0  0  0  0
  186.6810  178.8580  142.2840 C   0  0  2  0  0  3  0  0  0  0  0  0
  187.8000  178.1920  141.4840 C   0  0  2  0  0  3  0  0  0  0  0  0
  189.9330  177.4060  142.6160 C   0  0  0  0  0  0  0  0  0  0  0  0
  189.5560  176.2050  142.5870 O   0  0  0  0  0  0  0  0  0  0  0  0
  191.1790  177.7220  143.1420 O   0  0  0  0  0  1  0  0  0  0  0  0
  189.0910  178.4440  142.1160 N   0  0  0  0  0  2  0  0  0  0  0  0
  187.8180  178.6780  140.1690 O   0  0  0  0  0  0  0  0  0  0  0  0
  188.1620  176.3540  137.4810 O   0  0  0  0  0  0  0  0  0  0  0  0
  188.2590  177.6440  139.4090 N   0  0  0  0  0  2  0  0  0  0  0  0
  187.7380  177.3610  138.1040 C   0  0  0  0  0  0  0  0  0  0  0  0
  187.2800  179.2920  136.8010 O   0  0  0  0  0  1  0  0  0  0  0  0
  186.6860  178.2130  137.4610 C   0  0  1  0  0  3  0  0  0  0  0  0
  185.8320  177.4160  136.5160 C   0  0  0  0  0  3  0  0  0  0  0  0
  184.6000  176.9920  136.8150 C   0  0  0  0  0  3  0  0  0  0  0  0
  183.9480  177.2620  138.1320 C   0  0  0  0  0  2  0  0  0  0  0  0
  183.1710  176.0390  138.5730 C   0  0  0  0  0  2  0  0  0  0  0  0
  181.8740  175.9600  137.7950 C   0  0  0  0  0  1  0  0  0  0  0  0
  1  3  2  0  0  0  0
  2  1  1  0  0  0  0
  2  4  1  0  0  0  0
  4  5  1  0  0  0  0
  5  6  1  0  0  0  0
  6  7  1  1  0  0  0
  8  6  1  0  0  0  0
  9  8  1  0  0  0  0
  9 10  1  0  0  0  0
 10 12  1  0  0  0  0
 11 10  2  0  0  0  0
 13 14  1  0  0  0  0
 13  1  1  0  0  0  0
 15 14  2  0  0  0  0
 16 15  1  0  0  0  0
 17 16  1  0  0  0  0
 17 18  2  0  0  0  0
 19 20  1  6  0  0  0
 19 17  1  0  0  0  0
 21 22  2  0  0  0  0
 22 19  1  0  0  0  0
 23  2  1  0  0  0  0
 25 24  1  6  0  0  0
 25 23  1  0  0  0  0
 26 31  1  6  0  0  0
 26 30  1  0  0  0  0
 26 25  1  0  0  0  0
 27 29  1  0  0  0  0
 28 27  2  0  0  0  0
 30 27  1  0  0  0  0
 32 34  2  0  0  0  0
 33 31  1  0  0  0  0
 34 33  1  0  0  0  0
 36 35  1  6  0  0  0
 36 34  1  0  0  0  0
 37 38  2  0  0  0  0
 37 36  1  0  0  0  0
 38 39  1  0  0  0  0
 39 40  1  0  0  0  0
 41 40  1  0  0  0  0
M  END
>  <MODEL>
5

>  <REMARK>
 VINA RESULT:      -6.9      3.472      8.892
  Name = 
  22 active torsions:
  status: ('A' for Active; 'I' for Inactive)
    1  A    between atoms: C_3  and  N_11
    2  A    between atoms: C_3  and  C_14
    3  A    between atoms: C_4  and  C_7
    4  A    between atoms: C_4  and  C_12
    5  A    between atoms: C_8  and  C_34
    6  A    between atoms: N_10  and  O_33
    7  A    between atoms: N_11  and  N_27
    8  A    between atoms: C_13  and  C_17
    9  A    between atoms: C_13  and  C_38
   10  A    between atoms: C_14  and  C_23
   11  A    between atoms: C_15  and  C_30
   12  A    between atoms: C_15  and  C_32
   13  A    between atoms: C_16  and  C_37
   14  A    between atoms: C_16  and  C_41
   15  A    between atoms: C_17  and  N_27
   16  A    between atoms: C_19  and  C_28
   17  A    between atoms: C_19  and  C_37
   18  A    between atoms: C_21  and  C_35
   19  A    between atoms: C_22  and  C_35
   20  A    between atoms: C_23  and  N_31
   21  A    between atoms: C_23  and  O_33
   22  A    between atoms: C_34  and  C_38
                            x       y       z     vdW  Elec       q    Type
                         _______ _______ _______ _____ _____    ______ ____

>  <TORSDO>
F 22

$$$$
=
 OpenBabel10222416523D

 41 40  0  0  1  0  0  0  0  0999 V2000
  186.0130  178.7650  140.0290 C   0  0  0  0  0  0  0  0  0  0  0  0
  186.7040  178.1660  138.9210 N   0  0  0  0  0  0  0  0  0  0  0  0
  185.1220  179.6310  139.8170 O   0  0  0  0  0  0  0  0  0  0  0  0
  186.3810  178.5400  137.6070 N   0  0  0  0  0  2  0  0  0  0  0  0
  185.5140  177.5050  137.0510 C   0  0  0  0  0  2  0  0  0  0  0  0
  186.0120  177.0460  135.6820 C   0  0  1  0  0  3  0  0  0  0  0  0
  187.3700  177.6530  135.3830 C   0  0  0  0  0  1  0  0  0  0  0  0
  186.0880  175.5250  135.5780 C   0  0  0  0  0  2  0  0  0  0  0  0
  186.4410  174.8850  136.9150 C   0  0  0  0  0  2  0  0  0  0  0  0
  185.4370  173.8470  137.2870 C   0  0  0  0  0  0  0  0  0  0  0  0
  184.1760  173.8620  136.7060 O   0  0  0  0  0  0  0  0  0  0  0  0
  185.7420  172.9420  138.1080 O   0  0  0  0  0  1  0  0  0  0  0  0
  186.3150  178.3680  141.4410 C   0  0  0  0  0  2  0  0  0  0  0  0
  186.0170  179.5010  142.3810 C   0  0  0  0  0  3  0  0  0  0  0  0
  184.9420  179.5420  143.1760 C   0  0  0  0  0  3  0  0  0  0  0  0
  183.8950  178.4720  143.1890 C   0  0  0  0  0  2  0  0  0  0  0  0
  182.7050  178.9290  143.9650 C   0  0  0  0  0  0  0  0  0  0  0  0
  182.8010  179.1230  145.1680 O   0  0  0  0  0  0  0  0  0  0  0  0
  181.3970  179.1240  143.2610 C   0  0  2  0  0  3  0  0  0  0  0  0
  180.3310  178.4570  143.9880 N   0  0  0  0  0  1  0  0  0  0  0  0
  181.4130  179.3840  140.9170 O   0  0  0  0  0  0  0  0  0  0  0  0
  181.4560  178.6090  141.8590 C   0  0  0  0  0  3  0  0  0  0  0  0
  187.8790  177.3300  139.1360 C   0  0  0  0  0  2  0  0  0  0  0  0
  189.4590  178.8990  138.2760 O   0  0  0  0  0  1  0  0  0  0  0  0
  189.0960  178.1930  139.4260 C   0  0  2  0  0  3  0  0  0  0  0  0
  190.2620  177.3430  139.9280 C   0  0  2  0  0  3  0  0  0  0  0  0
  191.4590  175.7580  138.3450 C   0  0  0  0  0  0  0  0  0  0  0  0
  192.4130  176.5660  138.1900 O   0  0  0  0  0  1  0  0  0  0  0  0
  191.4930  174.5250  137.7070 O   0  0  0  0  0  0  0  0  0  0  0  0
  190.3440  176.1000  139.1670 N   0  0  0  0  0  2  0  0  0  0  0  0
  190.1050  177.0500  141.2900 O   0  0  0  0  0  0  0  0  0  0  0  0
  191.7150  178.8770  143.9010 O   0  0  0  0  0  0  0  0  0  0  0  0
  190.8220  177.9970  141.9470 N   0  0  0  0  0  2  0  0  0  0  0  0
  191.0850  177.9360  143.3550 C   0  0  0  0  0  0  0  0  0  0  0  0
  191.5350  175.7450  144.1510 O   0  0  0  0  0  1  0  0  0  0  0  0
  190.6160  176.7960  144.2070 C   0  0  1  0  0  3  0  0  0  0  0  0
  190.3870  177.2270  145.6270 C   0  0  0  0  0  3  0  0  0  0  0  0
  189.2150  177.6830  146.0800 C   0  0  0  0  0  3  0  0  0  0  0  0
  188.0080  177.8190  145.2090 C   0  0  0  0  0  2  0  0  0  0  0  0
  186.7710  177.4320  145.9930 C   0  0  0  0  0  2  0  0  0  0  0  0
  186.0700  178.6840  146.4770 C   0  0  0  0  0  1  0  0  0  0  0  0
  1 13  1  0  0  0  0
  2 23  1  0  0  0  0
  2  1  1  0  0  0  0
  3  1  2  0  0  0  0
  4  2  1  0  0  0  0
  5  4  1  0  0  0  0
  6  7  1  1  0  0  0
  6  5  1  0  0  0  0
  8  6  1  0  0  0  0
  8  9  1  0  0  0  0
  9 10  1  0  0  0  0
 10 12  1  0  0  0  0
 11 10  2  0  0  0  0
 13 14  1  0  0  0  0
 14 15  2  0  0  0  0
 15 16  1  0  0  0  0
 16 17  1  0  0  0  0
 17 18  2  0  0  0  0
 19 17  1  0  0  0  0
 19 20  1  1  0  0  0
 21 22  2  0  0  0  0
 22 19  1  0  0  0  0
 23 25  1  0  0  0  0
 25 24  1  6  0  0  0
 25 26  1  0  0  0  0
 26 30  1  6  0  0  0
 26 31  1  0  0  0  0
 27 30  1  0  0  0  0
 28 27  1  0  0  0  0
 29 27  2  0  0  0  0
 31 33  1  0  0  0  0
 33 34  1  0  0  0  0
 34 32  2  0  0  0  0
 34 36  1  0  0  0  0
 36 35  1  1  0  0  0
 36 37  1  0  0  0  0
 37 38  2  0  0  0  0
 39 40  1  0  0  0  0
 39 38  1  0  0  0  0
 40 41  1  0  0  0  0
M  END
>  <MODEL>
6

>  <REMARK>
 VINA RESULT:      -6.8      2.375      7.236
  Name = 
  22 active torsions:
  status: ('A' for Active; 'I' for Inactive)
    1  A    between atoms: C_3  and  N_11
    2  A    between atoms: C_3  and  C_14
    3  A    between atoms: C_4  and  C_7
    4  A    between atoms: C_4  and  C_12
    5  A    between atoms: C_8  and  C_34
    6  A    between atoms: N_10  and  O_33
    7  A    between atoms: N_11  and  N_27
    8  A    between atoms: C_13  and  C_17
    9  A    between atoms: C_13  and  C_38
   10  A    between atoms: C_14  and  C_23
   11  A    between atoms: C_15  and  C_30
   12  A    between atoms: C_15  and  C_32
   13  A    between atoms: C_16  and  C_37
   14  A    between atoms: C_16  and  C_41
   15  A    between atoms: C_17  and  N_27
   16  A    between atoms: C_19  and  C_28
   17  A    between atoms: C_19  and  C_37
   18  A    between atoms: C_21  and  C_35
   19  A    between atoms: C_22  and  C_35
   20  A    between atoms: C_23  and  N_31
   21  A    between atoms: C_23  and  O_33
   22  A    between atoms: C_34  and  C_38
                            x       y       z     vdW  Elec       q    Type
                         _______ _______ _______ _____ _____    ______ ____

>  <TORSDO>
F 22

$$$$
=
 OpenBabel10222416523D

 41 40  0  0  1  0  0  0  0  0999 V2000
  187.8830  178.0640  141.3570 C   0  0  0  0  0  0  0  0  0  0  0  0
  187.0310  178.5920  140.3280 N   0  0  0  0  0  0  0  0  0  0  0  0
  189.0220  177.6130  141.0570 O   0  0  0  0  0  0  0  0  0  0  0  0
  187.4700  178.6130  138.9950 N   0  0  0  0  0  2  0  0  0  0  0  0
  187.6020  177.2290  138.5490 C   0  0  0  0  0  2  0  0  0  0  0  0
  187.7570  177.1510  137.0310 C   0  0  1  0  0  3  0  0  0  0  0  0
  187.1330  178.3680  136.3730 C   0  0  0  0  0  1  0  0  0  0  0  0
  189.2180  177.0220  136.6070 C   0  0  0  0  0  2  0  0  0  0  0  0
  190.0840  176.4660  137.7300 C   0  0  0  0  0  2  0  0  0  0  0  0
  190.4300  175.0380  137.4770 C   0  0  0  0  0  0  0  0  0  0  0  0
  189.6200  174.2640  136.6550 O   0  0  0  0  0  0  0  0  0  0  0  0
  191.4690  174.5410  137.9850 O   0  0  0  0  0  1  0  0  0  0  0  0
  187.4550  178.0540  142.7920 C   0  0  0  0  0  2  0  0  0  0  0  0
  187.7870  176.7350  143.4290 C   0  0  0  0  0  3  0  0  0  0  0  0
  188.4930  176.6130  144.5590 C   0  0  0  0  0  3  0  0  0  0  0  0
  189.0640  177.7860  145.2950 C   0  0  0  0  0  2  0  0  0  0  0  0
  190.4710  178.0260  144.8610 C   0  0  0  0  0  0  0  0  0  0  0  0
  190.7180  178.9140  144.0590 O   0  0  0  0  0  0  0  0  0  0  0  0
  191.5660  177.1560  145.3990 C   0  0  2  0  0  3  0  0  0  0  0  0
  191.7910  176.0260  144.5150 N   0  0  0  0  0  1  0  0  0  0  0  0
  192.0970  176.6800  147.6480 O   0  0  0  0  0  0  0  0  0  0  0  0
  191.2430  176.6690  146.7740 C   0  0  0  0  0  3  0  0  0  0  0  0
  185.6370  178.9180  140.6050 C   0  0  0  0  0  2  0  0  0  0  0  0
  184.5030  180.1490  138.9030 O   0  0  0  0  0  1  0  0  0  0  0  0
  184.8160  178.8550  139.3270 C   0  0  2  0  0  3  0  0  0  0  0  0
  183.5450  178.0320  139.5340 C   0  0  2  0  0  3  0  0  0  0  0  0
  182.5640  177.8560  137.1980 C   0  0  0  0  0  0  0  0  0  0  0  0
  183.4990  177.1040  136.8160 O   0  0  0  0  0  1  0  0  0  0  0  0
  181.5410  178.1820  136.3170 O   0  0  0  0  0  0  0  0  0  0  0  0
  182.5490  178.3800  138.5250 N   0  0  0  0  0  2  0  0  0  0  0  0
  183.0180  178.2580  140.8130 O   0  0  0  0  0  0  0  0  0  0  0  0
  179.5050  178.3650  141.4410 O   0  0  0  0  0  0  0  0  0  0  0  0
  181.6800  178.0600  140.6910 N   0  0  0  0  0  2  0  0  0  0  0  0
  180.7240  178.6350  141.5900 C   0  0  0  0  0  0  0  0  0  0  0  0
  180.1240  180.4730  142.9680 O   0  0  0  0  0  1  0  0  0  0  0  0
  181.1280  179.5350  142.7180 C   0  0  1  0  0  3  0  0  0  0  0  0
  181.4450  178.7520  143.9610 C   0  0  0  0  0  3  0  0  0  0  0  0
  182.6600  178.7110  144.5170 C   0  0  0  0  0  3  0  0  0  0  0  0
  183.8350  179.4380  143.9490 C   0  0  0  0  0  2  0  0  0  0  0  0
  185.0230  179.2830  144.8770 C   0  0  0  0  0  2  0  0  0  0  0  0
  184.6010  178.5110  146.1080 C   0  0  0  0  0  1  0  0  0  0  0  0
  1 13  1  0  0  0  0
  2 23  1  0  0  0  0
  2  1  1  0  0  0  0
  3  1  2  0  0  0  0
  4  2  1  0  0  0  0
  5  4  1  0  0  0  0
  6  7  1  6  0  0  0
  6  5  1  0  0  0  0
  8  6  1  0  0  0  0
  8  9  1  0  0  0  0
 10  9  1  0  0  0  0
 10 12  1  0  0  0  0
 11 10  2  0  0  0  0
 13 14  1  0  0  0  0
 14 15  2  0  0  0  0
 15 16  1  0  0  0  0
 17 16  1  0  0  0  0
 17 19  1  0  0  0  0
 18 17  2  0  0  0  0
 19 20  1  6  0  0  0
 19 22  1  0  0  0  0
 22 21  2  0  0  0  0
 25 24  1  1  0  0  0
 25 26  1  0  0  0  0
 25 23  1  0  0  0  0
 26 30  1  6  0  0  0
 26 31  1  0  0  0  0
 27 30  1  0  0  0  0
 28 27  1  0  0  0  0
 29 27  2  0  0  0  0
 32 34  2  0  0  0  0
 33 31  1  0  0  0  0
 33 34  1  0  0  0  0
 34 36  1  0  0  0  0
 36 35  1  1  0  0  0
 36 37  1  0  0  0  0
 37 38  2  0  0  0  0
 39 38  1  0  0  0  0
 39 40  1  0  0  0  0
 40 41  1  0  0  0  0
M  END
>  <MODEL>
7

>  <REMARK>
 VINA RESULT:      -6.7      2.590      3.798
  Name = 
  22 active torsions:
  status: ('A' for Active; 'I' for Inactive)
    1  A    between atoms: C_3  and  N_11
    2  A    between atoms: C_3  and  C_14
    3  A    between atoms: C_4  and  C_7
    4  A    between atoms: C_4  and  C_12
    5  A    between atoms: C_8  and  C_34
    6  A    between atoms: N_10  and  O_33
    7  A    between atoms: N_11  and  N_27
    8  A    between atoms: C_13  and  C_17
    9  A    between atoms: C_13  and  C_38
   10  A    between atoms: C_14  and  C_23
   11  A    between atoms: C_15  and  C_30
   12  A    between atoms: C_15  and  C_32
   13  A    between atoms: C_16  and  C_37
   14  A    between atoms: C_16  and  C_41
   15  A    between atoms: C_17  and  N_27
   16  A    between atoms: C_19  and  C_28
   17  A    between atoms: C_19  and  C_37
   18  A    between atoms: C_21  and  C_35
   19  A    between atoms: C_22  and  C_35
   20  A    between atoms: C_23  and  N_31
   21  A    between atoms: C_23  and  O_33
   22  A    between atoms: C_34  and  C_38
                            x       y       z     vdW  Elec       q    Type
                         _______ _______ _______ _____ _____    ______ ____

>  <TORSDO>
F 22

$$$$
=
 OpenBabel10222416523D

 41 40  0  0  1  0  0  0  0  0999 V2000
  184.6730  178.5530  141.4850 C   0  0  0  0  0  0  0  0  0  0  0  0
  185.8250  178.7470  140.6480 N   0  0  0  0  0  0  0  0  0  0  0  0
  183.5180  178.6190  140.9850 O   0  0  0  0  0  0  0  0  0  0  0  0
  185.6620  179.0020  139.2770 N   0  0  0  0  0  2  0  0  0  0  0  0
  185.7840  177.7300  138.5710 C   0  0  0  0  0  2  0  0  0  0  0  0
  184.5840  177.4890  137.6570 C   0  0  1  0  0  3  0  0  0  0  0  0
  185.0320  176.8540  136.3540 C   0  0  0  0  0  1  0  0  0  0  0  0
  183.5200  176.6190  138.3210 C   0  0  0  0  0  2  0  0  0  0  0  0
  182.1260  176.9310  137.7910 C   0  0  0  0  0  2  0  0  0  0  0  0
  182.0180  178.3640  137.3920 C   0  0  0  0  0  0  0  0  0  0  0  0
  181.8410  178.7000  136.0560 O   0  0  0  0  0  0  0  0  0  0  0  0
  182.0600  179.2670  138.2690 O   0  0  0  0  0  1  0  0  0  0  0  0
  184.8140  178.2520  142.9450 C   0  0  0  0  0  2  0  0  0  0  0  0
  184.2770  179.3860  143.7690 C   0  0  0  0  0  3  0  0  0  0  0  0
  183.0260  179.4340  144.2410 C   0  0  0  0  0  3  0  0  0  0  0  0
  182.0090  178.3700  143.9650 C   0  0  0  0  0  2  0  0  0  0  0  0
  180.6900  178.9930  143.6520 C   0  0  0  0  0  0  0  0  0  0  0  0
  179.8020  178.9940  144.4920 O   0  0  0  0  0  0  0  0  0  0  0  0
  180.4600  179.5920  142.2980 C   0  0  2  0  0  3  0  0  0  0  0  0
  179.7420  180.8480  142.4180 N   0  0  0  0  0  1  0  0  0  0  0  0
  180.2860  177.7670  140.8130 O   0  0  0  0  0  0  0  0  0  0  0  0
  179.7010  178.6550  141.4140 C   0  0  0  0  0  3  0  0  0  0  0  0
  187.1550  178.8910  141.2280 C   0  0  0  0  0  2  0  0  0  0  0  0
  187.8830  177.0090  142.5030 O   0  0  0  0  0  1  0  0  0  0  0  0
  187.8830  177.5570  141.2180 C   0  0  2  0  0  3  0  0  0  0  0  0
  189.3120  177.7170  140.7000 C   0  0  2  0  0  3  0  0  0  0  0  0
  189.3010  178.1260  138.1920 C   0  0  0  0  0  0  0  0  0  0  0  0
  189.0590  179.3520  138.3510 O   0  0  0  0  0  1  0  0  0  0  0  0
  189.4660  177.6190  136.9110 O   0  0  0  0  0  0  0  0  0  0  0  0
  189.4020  177.2540  139.3180 N   0  0  0  0  0  2  0  0  0  0  0  0
  190.2070  176.9920  141.4970 O   0  0  0  0  0  0  0  0  0  0  0  0
  191.9520  178.7810  144.0470 O   0  0  0  0  0  0  0  0  0  0  0  0
  190.9650  177.9250  142.1280 N   0  0  0  0  0  2  0  0  0  0  0  0
  191.2870  177.8520  143.5230 C   0  0  0  0  0  0  0  0  0  0  0  0
  191.6930  175.6190  144.2210 O   0  0  0  0  0  1  0  0  0  0  0  0
  190.8400  176.7130  144.3880 C   0  0  1  0  0  3  0  0  0  0  0  0
  190.7660  177.1140  145.8340 C   0  0  0  0  0  3  0  0  0  0  0  0
  189.6580  177.5890  146.4120 C   0  0  0  0  0  3  0  0  0  0  0  0
  188.3740  177.7770  145.6700 C   0  0  0  0  0  2  0  0  0  0  0  0
  187.2090  177.5910  146.6190 C   0  0  0  0  0  2  0  0  0  0  0  0
  187.6300  177.9930  148.0170 C   0  0  0  0  0  1  0  0  0  0  0  0
  1 13  1  0  0  0  0
  2 23  1  0  0  0  0
  2  1  1  0  0  0  0
  3  1  2  0  0  0  0
  4  2  1  0  0  0  0
  5  4  1  0  0  0  0
  6  7  1  6  0  0  0
  6  8  1  0  0  0  0
  6  5  1  0  0  0  0
  9  8  1  0  0  0  0
 10  9  1  0  0  0  0
 10 12  1  0  0  0  0
 11 10  2  0  0  0  0
 13 14  1  0  0  0  0
 14 15  2  0  0  0  0
 16 15  1  0  0  0  0
 17 16  1  0  0  0  0
 17 18  2  0  0  0  0
 19 20  1  1  0  0  0
 19 17  1  0  0  0  0
 21 22  2  0  0  0  0
 22 19  1  0  0  0  0
 25 23  1  0  0  0  0
 25 24  1  1  0  0  0
 26 30  1  6  0  0  0
 26 25  1  0  0  0  0
 26 31  1  0  0  0  0
 27 28  1  0  0  0  0
 27 30  1  0  0  0  0
 29 27  2  0  0  0  0
 31 33  1  0  0  0  0
 33 34  1  0  0  0  0
 34 32  2  0  0  0  0
 34 36  1  0  0  0  0
 36 35  1  1  0  0  0
 36 37  1  0  0  0  0
 37 38  2  0  0  0  0
 39 38  1  0  0  0  0
 39 40  1  0  0  0  0
 40 41  1  0  0  0  0
M  END
>  <MODEL>
8

>  <REMARK>
 VINA RESULT:      -6.5      3.268      8.518
  Name = 
  22 active torsions:
  status: ('A' for Active; 'I' for Inactive)
    1  A    between atoms: C_3  and  N_11
    2  A    between atoms: C_3  and  C_14
    3  A    between atoms: C_4  and  C_7
    4  A    between atoms: C_4  and  C_12
    5  A    between atoms: C_8  and  C_34
    6  A    between atoms: N_10  and  O_33
    7  A    between atoms: N_11  and  N_27
    8  A    between atoms: C_13  and  C_17
    9  A    between atoms: C_13  and  C_38
   10  A    between atoms: C_14  and  C_23
   11  A    between atoms: C_15  and  C_30
   12  A    between atoms: C_15  and  C_32
   13  A    between atoms: C_16  and  C_37
   14  A    between atoms: C_16  and  C_41
   15  A    between atoms: C_17  and  N_27
   16  A    between atoms: C_19  and  C_28
   17  A    between atoms: C_19  and  C_37
   18  A    between atoms: C_21  and  C_35
   19  A    between atoms: C_22  and  C_35
   20  A    between atoms: C_23  and  N_31
   21  A    between atoms: C_23  and  O_33
   22  A    between atoms: C_34  and  C_38
                            x       y       z     vdW  Elec       q    Type
                         _______ _______ _______ _____ _____    ______ ____

>  <TORSDO>
F 22

$$$$
=
 OpenBabel10222416523D

 41 40  0  0  1  0  0  0  0  0999 V2000
  185.7940  178.9040  139.7740 C   0  0  0  0  0  0  0  0  0  0  0  0
  186.5030  178.2440  138.7120 N   0  0  0  0  0  0  0  0  0  0  0  0
  184.8860  179.7350  139.5000 O   0  0  0  0  0  0  0  0  0  0  0  0
  186.1780  178.5200  137.3750 N   0  0  0  0  0  2  0  0  0  0  0  0
  185.9120  177.2490  136.7100 C   0  0  0  0  0  2  0  0  0  0  0  0
  184.5590  176.6780  137.1320 C   0  0  1  0  0  3  0  0  0  0  0  0
  183.4710  177.1370  136.1780 C   0  0  0  0  0  1  0  0  0  0  0  0
  184.5750  175.1540  137.2080 C   0  0  0  0  0  2  0  0  0  0  0  0
  185.9920  174.6000  137.1230 C   0  0  0  0  0  2  0  0  0  0  0  0
  186.0010  173.1260  137.3500 C   0  0  0  0  0  0  0  0  0  0  0  0
  187.0960  172.3700  136.9510 O   0  0  0  0  0  0  0  0  0  0  0  0
  185.0280  172.5720  137.9260 O   0  0  0  0  0  1  0  0  0  0  0  0
  186.0970  178.6110  141.2110 C   0  0  0  0  0  2  0  0  0  0  0  0
  184.8460  178.2110  141.9400 C   0  0  0  0  0  3  0  0  0  0  0  0
  184.6930  178.3210  143.2650 C   0  0  0  0  0  3  0  0  0  0  0  0
  185.7720  178.8220  144.1730 C   0  0  0  0  0  2  0  0  0  0  0  0
  186.0390  177.8240  145.2500 C   0  0  0  0  0  0  0  0  0  0  0  0
  186.6790  176.8140  144.9990 O   0  0  0  0  0  0  0  0  0  0  0  0
  185.4970  178.0630  146.6260 C   0  0  2  0  0  3  0  0  0  0  0  0
  184.1720  178.6530  146.5490 N   0  0  0  0  0  1  0  0  0  0  0  0
  187.3050  178.4670  148.0860 O   0  0  0  0  0  0  0  0  0  0  0  0
  186.4040  178.9490  147.4180 C   0  0  0  0  0  3  0  0  0  0  0  0
  187.6930  177.4500  138.9880 C   0  0  0  0  0  2  0  0  0  0  0  0
  189.0930  179.2050  138.1780 O   0  0  0  0  0  1  0  0  0  0  0  0
  188.8800  178.3570  139.2670 C   0  0  2  0  0  3  0  0  0  0  0  0
  190.1360  177.5370  139.5660 C   0  0  2  0  0  3  0  0  0  0  0  0
  190.6630  175.6720  137.9250 C   0  0  0  0  0  0  0  0  0  0  0  0
  191.4020  176.4270  137.2390 O   0  0  0  0  0  0  0  0  0  0  0  0
  190.5110  174.3410  137.5580 O   0  0  0  0  0  1  0  0  0  0  0  0
  189.9760  176.1730  139.0710 N   0  0  0  0  0  2  0  0  0  0  0  0
  190.3870  177.5110  140.9450 O   0  0  0  0  0  0  0  0  0  0  0  0
  188.4420  175.6020  143.2520 O   0  0  0  0  0  0  0  0  0  0  0  0
  189.3820  176.7710  141.4800 N   0  0  0  0  0  2  0  0  0  0  0  0
  189.3840  176.3270  142.8430 C   0  0  0  0  0  0  0  0  0  0  0  0
  191.6960  176.7980  143.1090 O   0  0  0  0  0  1  0  0  0  0  0  0
  190.4860  176.6780  143.7960 C   0  0  1  0  0  3  0  0  0  0  0  0
  190.1770  177.9380  144.5540 C   0  0  0  0  0  3  0  0  0  0  0  0
  189.9560  177.9720  145.8720 C   0  0  0  0  0  3  0  0  0  0  0  0
  189.9860  176.7470  146.7290 C   0  0  0  0  0  2  0  0  0  0  0  0
  191.1940  176.7970  147.6420 C   0  0  0  0  0  2  0  0  0  0  0  0
  192.1160  175.6410  147.3190 C   0  0  0  0  0  1  0  0  0  0  0  0
  1 13  1  0  0  0  0
  2 23  1  0  0  0  0
  2  1  1  0  0  0  0
  3  1  2  0  0  0  0
  4  2  1  0  0  0  0
  5  6  1  0  0  0  0
  5  4  1  0  0  0  0
  6  7  1  6  0  0  0
  6  8  1  0  0  0  0
  9  8  1  0  0  0  0
  9 10  1  0  0  0  0
 10 12  1  0  0  0  0
 11 10  2  0  0  0  0
 13 14  1  0  0  0  0
 14 15  2  0  0  0  0
 15 16  1  0  0  0  0
 16 17  1  0  0  0  0
 17 19  1  0  0  0  0
 18 17  2  0  0  0  0
 19 20  1  6  0  0  0
 19 22  1  0  0  0  0
 22 21  2  0  0  0  0
 23 25  1  0  0  0  0
 25 24  1  6  0  0  0
 25 26  1  0  0  0  0
 26 30  1  1  0  0  0
 26 31  1  0  0  0  0
 27 30  1  0  0  0  0
 28 27  2  0  0  0  0
 29 27  1  0  0  0  0
 31 33  1  0  0  0  0
 33 34  1  0  0  0  0
 34 32  2  0  0  0  0
 34 36  1  0  0  0  0
 36 35  1  6  0  0  0
 36 37  1  0  0  0  0
 37 38  2  0  0  0  0
 38 39  1  0  0  0  0
 39 40  1  0  0  0  0
 41 40  1  0  0  0  0
M  END
>  <MODEL>
9

>  <REMARK>
 VINA RESULT:      -6.5      2.686      6.318
  Name = 
  22 active torsions:
  status: ('A' for Active; 'I' for Inactive)
    1  A    between atoms: C_3  and  N_11
    2  A    between atoms: C_3  and  C_14
    3  A    between atoms: C_4  and  C_7
    4  A    between atoms: C_4  and  C_12
    5  A    between atoms: C_8  and  C_34
    6  A    between atoms: N_10  and  O_33
    7  A    between atoms: N_11  and  N_27
    8  A    between atoms: C_13  and  C_17
    9  A    between atoms: C_13  and  C_38
   10  A    between atoms: C_14  and  C_23
   11  A    between atoms: C_15  and  C_30
   12  A    between atoms: C_15  and  C_32
   13  A    between atoms: C_16  and  C_37
   14  A    between atoms: C_16  and  C_41
   15  A    between atoms: C_17  and  N_27
   16  A    between atoms: C_19  and  C_28
   17  A    between atoms: C_19  and  C_37
   18  A    between atoms: C_21  and  C_35
   19  A    between atoms: C_22  and  C_35
   20  A    between atoms: C_23  and  N_31
   21  A    between atoms: C_23  and  O_33
   22  A    between atoms: C_34  and  C_38
                            x       y       z     vdW  Elec       q    Type
                         _______ _______ _______ _____ _____    ______ ____

>  <TORSDO>
F 22

$$$$
