=
 OpenBabel10222416353D

 32 35  0  0  1  0  0  0  0  0999 V2000
  184.0010  177.9620  139.0190 C   0  0  0  0  0  0  0  0  0  0  0  0
  184.7840  177.6750  138.0330 N   0  0  0  0  0  0  0  0  0  0  0  0
  183.0890  176.8920  139.5400 C   0  0  0  0  0  2  0  0  0  0  0  0
  180.7750  177.7570  139.4770 C   0  0  0  0  0  2  0  0  0  0  0  0
  181.7820  176.8780  138.7650 C   0  0  0  0  0  3  0  0  0  0  0  0
  180.6990  176.2510  139.6220 C   0  0  0  0  0  2  0  0  0  0  0  0
  185.7190  178.6090  137.4440 C   0  0  0  0  0  2  0  0  0  0  0  0
  189.0690  179.0570  137.8810 C   0  0  0  0  0  3  0  0  0  0  0  0
  188.0720  178.9670  136.8800 N   0  0  0  0  0  0  0  0  0  0  0  0
  188.8200  178.2120  138.8610 C   0  0  0  0  0  0  0  0  0  0  0  0
  187.0920  177.9650  137.2710 C   0  0  1  0  0  3  0  0  0  0  0  0
  187.5780  177.4320  138.6180 C   0  0  0  0  0  3  0  0  0  0  0  0
  191.2310  177.0080  141.3460 O   0  0  0  0  0  1  0  0  0  0  0  0
  189.6190  178.0530  140.0390 N   0  0  0  0  0  2  0  0  0  0  0  0
  190.7120  175.9530  139.3820 O   0  0  0  0  0  0  0  0  0  0  0  0
  190.5530  176.9980  140.2850 C   0  0  0  0  0  0  0  0  0  0  0  0
  184.0130  179.3260  139.6650 C   0  0  0  0  0  2  0  0  0  0  0  0
  185.0330  179.4280  140.6150 O   0  0  0  0  0  0  0  0  0  0  0  0
  184.4560  178.9800  141.8030 C   0  0  0  0  0  2  0  0  0  0  0  0
  185.5310  178.5910  142.7660 C   0  0  0  0  0  0  0  0  0  0  0  0
  185.1190  178.6470  147.0980 O   0  0  0  0  0  1  0  0  0  0  0  0
  189.5850  176.8560  147.4450 N   0  0  0  0  0  1  0  0  0  0  0  0
  187.5820  177.7530  144.4430 C   0  0  0  0  0  0  0  0  0  0  0  0
  187.7330  177.7350  143.0940 N   0  0  0  0  0  0  0  0  0  0  0  0
  186.7460  178.1350  142.2580 C   0  0  0  0  0  3  0  0  0  0  0  0
  188.5110  177.3160  146.6350 C   0  0  0  0  0  0  0  0  0  0  0  0
  187.3320  177.7620  147.2270 C   0  0  0  0  0  3  0  0  0  0  0  0
  185.3310  178.6430  144.1600 C   0  0  0  0  0  0  0  0  0  0  0  0
  188.6350  177.3110  145.2470 C   0  0  0  0  0  3  0  0  0  0  0  0
  184.0130  179.1330  144.6780 C   0  0  0  0  0  1  0  0  0  0  0  0
  186.3720  178.2180  145.0280 C   0  0  0  0  0  0  0  0  0  0  0  0
  186.2660  178.2160  146.4440 C   0  0  0  0  0  0  0  0  0  0  0  0
  1  3  1  0  0  0  0
  1 17  1  0  0  0  0
  2  1  2  0  0  0  0
  4  6  1  0  0  0  0
  5  4  1  0  0  0  0
  5  3  1  0  0  0  0
  5  6  1  0  0  0  0
  7  2  1  0  0  0  0
  8 10  1  0  0  0  0
  9 11  1  0  0  0  0
  9  8  2  0  0  0  0
 10 14  1  0  0  0  0
 11  7  1  1  0  0  0
 11 12  1  0  0  0  0
 12 10  2  0  0  0  0
 14 16  1  0  0  0  0
 15 16  2  0  0  0  0
 16 13  1  0  0  0  0
 17 18  1  0  0  0  0
 18 19  1  0  0  0  0
 19 20  1  0  0  0  0
 20 28  1  0  0  0  0
 23 31  1  0  0  0  0
 23 29  1  0  0  0  0
 24 23  2  0  0  0  0
 25 20  2  0  0  0  0
 25 24  1  0  0  0  0
 26 27  1  0  0  0  0
 26 22  1  0  0  0  0
 28 30  1  0  0  0  0
 28 31  2  0  0  0  0
 29 26  2  0  0  0  0
 31 32  1  0  0  0  0
 32 21  1  0  0  0  0
 32 27  2  0  0  0  0
M  END
>  <MODEL>
1

>  <REMARK>
 VINA RESULT:      -8.1      0.000      0.000
  Name = 
  9 active torsions:
  status: ('A' for Active; 'I' for Inactive)
    1  A    between atoms: C_1  and  C_19
    2  A    between atoms: C_3  and  C_15
    3  A    between atoms: C_3  and  C_29
    4  A    between atoms: C_11  and  C_15
    5  A    between atoms: C_12  and  N_16
    6  A    between atoms: N_14  and  C_21
    7  A    between atoms: C_19  and  O_25
    8  A    between atoms: C_21  and  C_23
    9  A    between atoms: O_25  and  C_29
                            x       y       z     vdW  Elec       q    Type
                         _______ _______ _______ _____ _____    ______ ____

>  <TORSDO>
F 9

$$$$
=
 OpenBabel10222416353D

 32 35  0  0  1  0  0  0  0  0999 V2000
  189.0470  177.1340  144.7690 C   0  0  0  0  0  0  0  0  0  0  0  0
  190.0760  176.8850  144.0300 N   0  0  0  0  0  0  0  0  0  0  0  0
  189.2740  177.6890  146.1440 C   0  0  0  0  0  2  0  0  0  0  0  0
  187.3460  178.3140  147.5570 C   0  0  0  0  0  2  0  0  0  0  0  0
  188.2270  177.1660  147.1120 C   0  0  0  0  0  3  0  0  0  0  0  0
  188.4400  177.8030  148.4720 C   0  0  0  0  0  2  0  0  0  0  0  0
  189.9980  176.3610  142.6840 C   0  0  0  0  0  2  0  0  0  0  0  0
  190.7750  177.0420  139.4360 C   0  0  0  0  0  3  0  0  0  0  0  0
  191.2750  177.1560  140.7550 N   0  0  0  0  0  2  0  0  0  0  0  0
  189.4750  177.2580  139.4130 C   0  0  0  0  0  0  0  0  0  0  0  0
  190.1780  177.4750  141.6570 C   0  0  1  0  0  3  0  0  0  0  0  0
  188.9380  177.5520  140.7670 C   0  0  0  0  0  2  0  0  0  0  0  0
  187.7320  178.0730  136.2930 O   0  0  0  0  0  0  0  0  0  0  0  0
  188.6490  177.2060  138.2430 N   0  0  0  0  0  2  0  0  0  0  0  0
  189.0060  179.5260  137.5180 O   0  0  0  0  0  1  0  0  0  0  0  0
  188.4450  178.2720  137.3100 C   0  0  0  0  0  0  0  0  0  0  0  0
  187.6420  176.9100  144.2670 C   0  0  0  0  0  2  0  0  0  0  0  0
  187.1560  178.0370  143.5990 O   0  0  0  0  0  0  0  0  0  0  0  0
  185.8860  178.2460  144.1340 C   0  0  0  0  0  2  0  0  0  0  0  0
  184.8980  178.4220  143.0270 C   0  0  0  0  0  0  0  0  0  0  0  0
  180.6450  179.1540  143.5920 O   0  0  0  0  0  1  0  0  0  0  0  0
  180.1720  179.4970  138.8030 N   0  0  0  0  0  1  0  0  0  0  0  0
  183.1830  178.8240  140.8790 C   0  0  0  0  0  0  0  0  0  0  0  0
  184.5050  178.5890  140.6800 N   0  0  0  0  0  0  0  0  0  0  0  0
  185.3600  178.3940  141.7130 C   0  0  0  0  0  3  0  0  0  0  0  0
  181.0000  179.2770  139.9380 C   0  0  0  0  0  0  0  0  0  0  0  0
  180.4520  179.3150  141.2190 C   0  0  0  0  0  3  0  0  0  0  0  0
  183.5310  178.6470  143.2840 C   0  0  0  0  0  0  0  0  0  0  0  0
  182.3610  179.0330  139.7690 C   0  0  0  0  0  3  0  0  0  0  0  0
  183.0630  178.6760  144.7070 C   0  0  0  0  0  1  0  0  0  0  0  0
  182.6430  178.8530  142.1940 C   0  0  0  0  0  0  0  0  0  0  0  0
  181.2540  179.1030  142.3440 C   0  0  0  0  0  0  0  0  0  0  0  0
  1  3  1  0  0  0  0
  2  1  2  0  0  0  0
  3  5  1  0  0  0  0
  4  6  1  0  0  0  0
  5  4  1  0  0  0  0
  5  6  1  0  0  0  0
  7  2  1  0  0  0  0
  8  9  1  0  0  0  0
  9 11  1  0  0  0  0
 10  8  2  0  0  0  0
 10 12  1  0  0  0  0
 11  7  1  1  0  0  0
 12 11  1  0  0  0  0
 13 16  2  0  0  0  0
 14 10  1  0  0  0  0
 16 15  1  0  0  0  0
 16 14  1  0  0  0  0
 17  1  1  0  0  0  0
 18 19  1  0  0  0  0
 18 17  1  0  0  0  0
 20 28  1  0  0  0  0
 20 19  1  0  0  0  0
 22 26  1  0  0  0  0
 23 31  1  0  0  0  0
 24 23  2  0  0  0  0
 24 25  1  0  0  0  0
 25 20  2  0  0  0  0
 26 27  1  0  0  0  0
 27 32  2  0  0  0  0
 28 30  1  0  0  0  0
 29 26  2  0  0  0  0
 29 23  1  0  0  0  0
 31 32  1  0  0  0  0
 31 28  2  0  0  0  0
 32 21  1  0  0  0  0
M  END
>  <MODEL>
2

>  <REMARK>
 VINA RESULT:      -8.1      2.429      6.670
  Name = 
  9 active torsions:
  status: ('A' for Active; 'I' for Inactive)
    1  A    between atoms: C_1  and  C_19
    2  A    between atoms: C_3  and  C_15
    3  A    between atoms: C_3  and  C_29
    4  A    between atoms: C_11  and  C_15
    5  A    between atoms: C_12  and  N_16
    6  A    between atoms: N_14  and  C_21
    7  A    between atoms: C_19  and  O_25
    8  A    between atoms: C_21  and  C_23
    9  A    between atoms: O_25  and  C_29
                            x       y       z     vdW  Elec       q    Type
                         _______ _______ _______ _____ _____    ______ ____

>  <TORSDO>
F 9

$$$$
=
 OpenBabel10222416353D

 32 35  0  0  1  0  0  0  0  0999 V2000
  184.0040  178.6830  139.9230 C   0  0  0  0  0  0  0  0  0  0  0  0
  184.7530  178.3590  138.9230 N   0  0  0  0  0  0  0  0  0  0  0  0
  182.5170  178.6580  139.7380 C   0  0  0  0  0  2  0  0  0  0  0  0
  180.3630  178.0060  140.7600 C   0  0  0  0  0  2  0  0  0  0  0  0
  181.8210  178.3030  141.0410 C   0  0  0  0  0  3  0  0  0  0  0  0
  180.7620  179.3450  141.3440 C   0  0  0  0  0  2  0  0  0  0  0  0
  186.1990  178.3300  138.9690 C   0  0  0  0  0  2  0  0  0  0  0  0
  189.0480  178.4280  137.1010 C   0  0  0  0  0  3  0  0  0  0  0  0
  187.8080  179.0850  137.2880 N   0  0  0  0  0  2  0  0  0  0  0  0
  188.9080  177.1250  137.2410 C   0  0  0  0  0  0  0  0  0  0  0  0
  186.7810  178.0940  137.5790 C   0  0  1  0  0  3  0  0  0  0  0  0
  187.5050  176.7480  137.5510 C   0  0  0  0  0  2  0  0  0  0  0  0
  191.5950  174.7440  137.9840 O   0  0  0  0  0  0  0  0  0  0  0  0
  189.9650  176.1640  137.1320 N   0  0  0  0  0  2  0  0  0  0  0  0
  190.5370  176.0720  139.5190 O   0  0  0  0  0  1  0  0  0  0  0  0
  190.7270  175.6260  138.2170 C   0  0  0  0  0  0  0  0  0  0  0  0
  184.5940  179.0510  141.2630 C   0  0  0  0  0  2  0  0  0  0  0  0
  184.9710  177.9120  141.9800 O   0  0  0  0  0  0  0  0  0  0  0  0
  185.0250  178.3330  143.3090 C   0  0  0  0  0  2  0  0  0  0  0  0
  186.3730  178.0250  143.8760 C   0  0  0  0  0  0  0  0  0  0  0  0
  187.3460  178.0670  148.1190 O   0  0  0  0  0  1  0  0  0  0  0  0
  191.8050  176.5990  147.0070 N   0  0  0  0  0  1  0  0  0  0  0  0
  188.9000  177.3410  144.8070 C   0  0  0  0  0  0  0  0  0  0  0  0
  188.6200  177.3290  143.4790 N   0  0  0  0  0  0  0  0  0  0  0  0
  187.3930  177.6550  143.0030 C   0  0  0  0  0  3  0  0  0  0  0  0
  190.5010  176.9780  146.5860 C   0  0  0  0  0  0  0  0  0  0  0  0
  189.5410  177.3420  147.5280 C   0  0  0  0  0  3  0  0  0  0  0  0
  186.6200  178.0670  145.2630 C   0  0  0  0  0  0  0  0  0  0  0  0
  190.1810  176.9770  145.2300 C   0  0  0  0  0  3  0  0  0  0  0  0
  185.5020  178.4640  146.1790 C   0  0  0  0  0  1  0  0  0  0  0  0
  187.9080  177.7200  145.7520 C   0  0  0  0  0  0  0  0  0  0  0  0
  188.2550  177.7160  147.1290 C   0  0  0  0  0  0  0  0  0  0  0  0
  1 17  1  0  0  0  0
  2  7  1  0  0  0  0
  2  1  2  0  0  0  0
  3  1  1  0  0  0  0
  3  5  1  0  0  0  0
  4  5  1  0  0  0  0
  4  6  1  0  0  0  0
  5  6  1  0  0  0  0
  8 10  2  0  0  0  0
  8  9  1  0  0  0  0
  9 11  1  0  0  0  0
 10 12  1  0  0  0  0
 11  7  1  1  0  0  0
 12 11  1  0  0  0  0
 13 16  2  0  0  0  0
 14 10  1  0  0  0  0
 14 16  1  0  0  0  0
 16 15  1  0  0  0  0
 17 18  1  0  0  0  0
 18 19  1  0  0  0  0
 19 20  1  0  0  0  0
 20 28  1  0  0  0  0
 23 29  1  0  0  0  0
 23 31  1  0  0  0  0
 24 23  2  0  0  0  0
 25 24  1  0  0  0  0
 25 20  2  0  0  0  0
 26 22  1  0  0  0  0
 26 27  1  0  0  0  0
 28 31  2  0  0  0  0
 28 30  1  0  0  0  0
 29 26  2  0  0  0  0
 31 32  1  0  0  0  0
 32 27  2  0  0  0  0
 32 21  1  0  0  0  0
M  END
>  <MODEL>
3

>  <REMARK>
 VINA RESULT:      -8.0      1.570      2.001
  Name = 
  9 active torsions:
  status: ('A' for Active; 'I' for Inactive)
    1  A    between atoms: C_1  and  C_19
    2  A    between atoms: C_3  and  C_15
    3  A    between atoms: C_3  and  C_29
    4  A    between atoms: C_11  and  C_15
    5  A    between atoms: C_12  and  N_16
    6  A    between atoms: N_14  and  C_21
    7  A    between atoms: C_19  and  O_25
    8  A    between atoms: C_21  and  C_23
    9  A    between atoms: O_25  and  C_29
                            x       y       z     vdW  Elec       q    Type
                         _______ _______ _______ _____ _____    ______ ____

>  <TORSDO>
F 9

$$$$
=
 OpenBabel10222416353D

 32 35  0  0  1  0  0  0  0  0999 V2000
  183.5270  179.1460  143.2200 C   0  0  0  0  0  0  0  0  0  0  0  0
  183.6220  178.7360  141.9990 N   0  0  0  0  0  0  0  0  0  0  0  0
  182.2600  178.8640  143.9700 C   0  0  0  0  0  2  0  0  0  0  0  0
  179.8720  179.4830  143.8190 C   0  0  0  0  0  2  0  0  0  0  0  0
  181.0590  178.9490  143.0440 C   0  0  0  0  0  3  0  0  0  0  0  0
  179.9810  178.0000  143.5320 C   0  0  0  0  0  2  0  0  0  0  0  0
  184.7900  178.9300  141.1690 C   0  0  0  0  0  2  0  0  0  0  0  0
  184.5690  177.7730  137.9710 C   0  0  0  0  0  3  0  0  0  0  0  0
  185.2960  178.6700  138.7900 N   0  0  0  0  0  2  0  0  0  0  0  0
  183.2940  177.7690  138.3070 C   0  0  0  0  0  0  0  0  0  0  0  0
  184.3880  179.2920  139.7430 C   0  0  1  0  0  3  0  0  0  0  0  0
  183.0150  178.6960  139.4340 C   0  0  0  0  0  2  0  0  0  0  0  0
  180.6500  175.3090  137.6760 O   0  0  0  0  0  0  0  0  0  0  0  0
  182.2800  176.9650  137.6920 N   0  0  0  0  0  2  0  0  0  0  0  0
  181.8480  175.5000  139.6170 O   0  0  0  0  0  1  0  0  0  0  0  0
  181.5560  175.9010  138.3190 C   0  0  0  0  0  0  0  0  0  0  0  0
  184.6660  179.8630  143.9030 C   0  0  0  0  0  2  0  0  0  0  0  0
  185.1180  179.1510  145.0170 O   0  0  0  0  0  0  0  0  0  0  0  0
  185.6770  177.9870  144.4910 C   0  0  0  0  0  2  0  0  0  0  0  0
  186.9180  177.6400  145.2480 C   0  0  0  0  0  0  0  0  0  0  0  0
  190.7390  176.6390  143.4220 O   0  0  0  0  0  1  0  0  0  0  0  0
  192.6460  176.2950  147.8410 N   0  0  0  0  0  1  0  0  0  0  0  0
  189.1750  177.1030  146.7760 C   0  0  0  0  0  0  0  0  0  0  0  0
  187.9900  177.4060  147.3650 N   0  0  0  0  0  0  0  0  0  0  0  0
  186.8780  177.6750  146.6400 C   0  0  0  0  0  3  0  0  0  0  0  0
  191.5170  176.5410  147.0100 C   0  0  0  0  0  0  0  0  0  0  0  0
  191.6440  176.4770  145.6240 C   0  0  0  0  0  3  0  0  0  0  0  0
  188.1210  177.3160  144.5890 C   0  0  0  0  0  0  0  0  0  0  0  0
  190.2870  176.8530  147.5830 C   0  0  0  0  0  3  0  0  0  0  0  0
  188.1350  177.2900  143.0910 C   0  0  0  0  0  1  0  0  0  0  0  0
  189.2820  177.0390  145.3590 C   0  0  0  0  0  0  0  0  0  0  0  0
  190.5450  176.7180  144.7950 C   0  0  0  0  0  0  0  0  0  0  0  0
  1 17  1  0  0  0  0
  1  3  1  0  0  0  0
  2  1  2  0  0  0  0
  5  6  1  0  0  0  0
  5  4  1  0  0  0  0
  5  3  1  0  0  0  0
  6  4  1  0  0  0  0
  7  2  1  0  0  0  0
  8 10  2  0  0  0  0
  8  9  1  0  0  0  0
  9 11  1  0  0  0  0
 10 12  1  0  0  0  0
 11  7  1  1  0  0  0
 12 11  1  0  0  0  0
 13 16  2  0  0  0  0
 14 10  1  0  0  0  0
 14 16  1  0  0  0  0
 16 15  1  0  0  0  0
 17 18  1  0  0  0  0
 19 18  1  0  0  0  0
 19 20  1  0  0  0  0
 20 25  1  0  0  0  0
 21 32  1  0  0  0  0
 23 24  1  0  0  0  0
 23 29  1  0  0  0  0
 25 24  2  0  0  0  0
 26 29  2  0  0  0  0
 26 22  1  0  0  0  0
 27 26  1  0  0  0  0
 28 20  2  0  0  0  0
 28 31  1  0  0  0  0
 30 28  1  0  0  0  0
 31 23  2  0  0  0  0
 32 31  1  0  0  0  0
 32 27  2  0  0  0  0
M  END
>  <MODEL>
4

>  <REMARK>
 VINA RESULT:      -8.0      2.587      5.204
  Name = 
  9 active torsions:
  status: ('A' for Active; 'I' for Inactive)
    1  A    between atoms: C_1  and  C_19
    2  A    between atoms: C_3  and  C_15
    3  A    between atoms: C_3  and  C_29
    4  A    between atoms: C_11  and  C_15
    5  A    between atoms: C_12  and  N_16
    6  A    between atoms: N_14  and  C_21
    7  A    between atoms: C_19  and  O_25
    8  A    between atoms: C_21  and  C_23
    9  A    between atoms: O_25  and  C_29
                            x       y       z     vdW  Elec       q    Type
                         _______ _______ _______ _____ _____    ______ ____

>  <TORSDO>
F 9

$$$$
=
 OpenBabel10222416353D

 32 35  0  0  1  0  0  0  0  0999 V2000
  188.9710  177.4030  146.5550 C   0  0  0  0  0  0  0  0  0  0  0  0
  187.7910  177.5860  147.0470 N   0  0  0  0  0  0  0  0  0  0  0  0
  189.8280  176.3190  147.1390 C   0  0  0  0  0  2  0  0  0  0  0  0
  192.0560  175.7710  146.2220 C   0  0  0  0  0  2  0  0  0  0  0  0
  191.2920  176.7230  147.1180 C   0  0  0  0  0  3  0  0  0  0  0  0
  192.1270  175.6130  147.7260 C   0  0  0  0  0  2  0  0  0  0  0  0
  186.8610  178.5850  146.5710 C   0  0  0  0  0  2  0  0  0  0  0  0
  184.1670  179.2300  144.5870 C   0  0  0  0  0  3  0  0  0  0  0  0
  184.5320  178.6570  145.8280 N   0  0  0  0  0  2  0  0  0  0  0  0
  185.0700  178.9590  143.6670 C   0  0  0  0  0  0  0  0  0  0  0  0
  185.7980  177.9550  145.6770 C   0  0  1  0  0  3  0  0  0  0  0  0
  186.1880  178.1430  144.2110 C   0  0  0  0  0  2  0  0  0  0  0  0
  184.2350  179.3420  140.1180 O   0  0  0  0  0  0  0  0  0  0  0  0
  185.0210  179.3970  142.3040 N   0  0  0  0  0  2  0  0  0  0  0  0
  183.4490  177.6910  141.4950 O   0  0  0  0  0  1  0  0  0  0  0  0
  184.2230  178.8220  141.2650 C   0  0  0  0  0  0  0  0  0  0  0  0
  189.4810  178.2300  145.4000 C   0  0  0  0  0  2  0  0  0  0  0  0
  189.4140  177.5180  144.1990 O   0  0  0  0  0  0  0  0  0  0  0  0
  190.2310  178.2280  143.3200 C   0  0  0  0  0  2  0  0  0  0  0  0
  189.7680  178.0090  141.9170 C   0  0  0  0  0  0  0  0  0  0  0  0
  192.2430  176.4260  138.7060 O   0  0  0  0  0  1  0  0  0  0  0  0
  188.4000  176.6000  135.7940 N   0  0  0  0  0  1  0  0  0  0  0  0
  188.7530  177.5630  139.3690 C   0  0  0  0  0  0  0  0  0  0  0  0
  187.9660  178.0650  140.3550 N   0  0  0  0  0  0  0  0  0  0  0  0
  188.4390  178.2860  141.6050 C   0  0  0  0  0  3  0  0  0  0  0  0
  188.9770  176.8280  137.0740 C   0  0  0  0  0  0  0  0  0  0  0  0
  190.3190  176.5290  137.2970 C   0  0  0  0  0  3  0  0  0  0  0  0
  190.6290  177.5010  140.9230 C   0  0  0  0  0  0  0  0  0  0  0  0
  188.1970  177.3430  138.1070 C   0  0  0  0  0  3  0  0  0  0  0  0
  192.0520  177.2080  141.2890 C   0  0  0  0  0  1  0  0  0  0  0  0
  190.1220  177.2690  139.6170 C   0  0  0  0  0  0  0  0  0  0  0  0
  190.9000  176.7460  138.5500 C   0  0  0  0  0  0  0  0  0  0  0  0
  1  2  2  0  0  0  0
  1  3  1  0  0  0  0
  4  5  1  0  0  0  0
  4  6  1  0  0  0  0
  5  3  1  0  0  0  0
  5  6  1  0  0  0  0
  7  2  1  0  0  0  0
  8  9  1  0  0  0  0
 10 12  1  0  0  0  0
 10  8  2  0  0  0  0
 11  9  1  0  0  0  0
 11  7  1  1  0  0  0
 12 11  1  0  0  0  0
 13 16  2  0  0  0  0
 14 10  1  0  0  0  0
 16 15  1  0  0  0  0
 16 14  1  0  0  0  0
 17  1  1  0  0  0  0
 18 17  1  0  0  0  0
 19 18  1  0  0  0  0
 20 19  1  0  0  0  0
 22 26  1  0  0  0  0
 23 31  1  0  0  0  0
 23 24  1  0  0  0  0
 24 25  2  0  0  0  0
 25 20  1  0  0  0  0
 26 27  2  0  0  0  0
 26 29  1  0  0  0  0
 27 32  1  0  0  0  0
 28 30  1  0  0  0  0
 28 20  2  0  0  0  0
 29 23  2  0  0  0  0
 31 28  1  0  0  0  0
 32 21  1  0  0  0  0
 32 31  2  0  0  0  0
M  END
>  <MODEL>
5

>  <REMARK>
 VINA RESULT:      -7.8      2.345      8.563
  Name = 
  9 active torsions:
  status: ('A' for Active; 'I' for Inactive)
    1  A    between atoms: C_1  and  C_19
    2  A    between atoms: C_3  and  C_15
    3  A    between atoms: C_3  and  C_29
    4  A    between atoms: C_11  and  C_15
    5  A    between atoms: C_12  and  N_16
    6  A    between atoms: N_14  and  C_21
    7  A    between atoms: C_19  and  O_25
    8  A    between atoms: C_21  and  C_23
    9  A    between atoms: O_25  and  C_29
                            x       y       z     vdW  Elec       q    Type
                         _______ _______ _______ _____ _____    ______ ____

>  <TORSDO>
F 9

$$$$
=
 OpenBabel10222416353D

 32 35  0  0  1  0  0  0  0  0999 V2000
  190.9680  176.5660  138.3150 C   0  0  0  0  0  0  0  0  0  0  0  0
  190.3530  176.9860  137.2600 N   0  0  0  0  0  0  0  0  0  0  0  0
  191.9020  175.4010  138.1790 C   0  0  0  0  0  2  0  0  0  0  0  0
  193.6560  175.6820  136.4610 C   0  0  0  0  0  2  0  0  0  0  0  0
  193.3210  175.8780  137.9250 C   0  0  0  0  0  3  0  0  0  0  0  0
  194.1750  174.7020  137.4920 C   0  0  0  0  0  2  0  0  0  0  0  0
  189.4370  178.1050  137.2490 C   0  0  0  0  0  2  0  0  0  0  0  0
  186.4960  176.3850  137.2170 C   0  0  0  0  0  3  0  0  0  0  0  0
  187.7900  176.4020  136.6430 N   0  0  0  0  0  0  0  0  0  0  0  0
  186.0430  177.6120  137.3780 C   0  0  0  0  0  0  0  0  0  0  0  0
  188.1960  177.7820  136.4230 C   0  0  1  0  0  3  0  0  0  0  0  0
  187.0230  178.6290  136.9130 C   0  0  0  0  0  3  0  0  0  0  0  0
  183.3940  178.9460  139.5320 O   0  0  0  0  0  0  0  0  0  0  0  0
  184.7740  177.9580  137.9450 N   0  0  0  0  0  2  0  0  0  0  0  0
  185.6350  179.0130  139.9900 O   0  0  0  0  0  1  0  0  0  0  0  0
  184.5660  178.6590  139.1750 C   0  0  0  0  0  0  0  0  0  0  0  0
  190.7890  177.2390  139.6540 C   0  0  0  0  0  2  0  0  0  0  0  0
  190.1900  176.3790  140.5770 O   0  0  0  0  0  0  0  0  0  0  0  0
  190.6270  176.8340  141.8210 C   0  0  0  0  0  2  0  0  0  0  0  0
  189.4480  177.1510  142.6820 C   0  0  0  0  0  0  0  0  0  0  0  0
  189.4920  177.1840  147.0340 O   0  0  0  0  0  1  0  0  0  0  0  0
  184.8890  178.6270  146.9690 N   0  0  0  0  0  1  0  0  0  0  0  0
  187.2040  177.8480  144.1640 C   0  0  0  0  0  0  0  0  0  0  0  0
  187.1670  177.8370  142.8070 N   0  0  0  0  0  0  0  0  0  0  0  0
  188.2500  177.5040  142.0650 C   0  0  0  0  0  3  0  0  0  0  0  0
  186.0610  178.2410  146.2610 C   0  0  0  0  0  0  0  0  0  0  0  0
  187.2150  177.8960  146.9590 C   0  0  0  0  0  3  0  0  0  0  0  0
  189.5320  177.1330  144.0890 C   0  0  0  0  0  0  0  0  0  0  0  0
  186.0550  178.2180  144.8680 C   0  0  0  0  0  3  0  0  0  0  0  0
  190.8340  176.7540  144.7250 C   0  0  0  0  0  1  0  0  0  0  0  0
  188.3920  177.4870  144.8580 C   0  0  0  0  0  0  0  0  0  0  0  0
  188.3750  177.5160  146.2770 C   0  0  0  0  0  0  0  0  0  0  0  0
  1 17  1  0  0  0  0
  2  1  2  0  0  0  0
  3  1  1  0  0  0  0
  4  6  1  0  0  0  0
  4  5  1  0  0  0  0
  5  3  1  0  0  0  0
  6  5  1  0  0  0  0
  7  2  1  0  0  0  0
  8 10  1  0  0  0  0
  9  8  2  0  0  0  0
 10 14  1  0  0  0  0
 11  9  1  0  0  0  0
 11 12  1  0  0  0  0
 11  7  1  1  0  0  0
 12 10  2  0  0  0  0
 14 16  1  0  0  0  0
 16 13  2  0  0  0  0
 16 15  1  0  0  0  0
 17 18  1  0  0  0  0
 18 19  1  0  0  0  0
 19 20  1  0  0  0  0
 20 28  1  0  0  0  0
 23 31  1  0  0  0  0
 23 29  1  0  0  0  0
 24 23  2  0  0  0  0
 25 20  2  0  0  0  0
 25 24  1  0  0  0  0
 26 27  1  0  0  0  0
 26 22  1  0  0  0  0
 28 30  1  0  0  0  0
 28 31  2  0  0  0  0
 29 26  2  0  0  0  0
 31 32  1  0  0  0  0
 32 27  2  0  0  0  0
 32 21  1  0  0  0  0
M  END
>  <MODEL>
6

>  <REMARK>
 VINA RESULT:      -7.8      2.360      6.083
  Name = 
  9 active torsions:
  status: ('A' for Active; 'I' for Inactive)
    1  A    between atoms: C_1  and  C_19
    2  A    between atoms: C_3  and  C_15
    3  A    between atoms: C_3  and  C_29
    4  A    between atoms: C_11  and  C_15
    5  A    between atoms: C_12  and  N_16
    6  A    between atoms: N_14  and  C_21
    7  A    between atoms: C_19  and  O_25
    8  A    between atoms: C_21  and  C_23
    9  A    between atoms: O_25  and  C_29
                            x       y       z     vdW  Elec       q    Type
                         _______ _______ _______ _____ _____    ______ ____

>  <TORSDO>
F 9

$$$$
=
 OpenBabel10222416353D

 32 35  0  0  1  0  0  0  0  0999 V2000
  188.6200  177.2660  138.0490 C   0  0  0  0  0  0  0  0  0  0  0  0
  189.5280  176.7000  137.3260 N   0  0  0  0  0  0  0  0  0  0  0  0
  187.1970  176.8260  137.8800 C   0  0  0  0  0  2  0  0  0  0  0  0
  185.2500  178.2690  138.3650 C   0  0  0  0  0  2  0  0  0  0  0  0
  186.3420  177.9690  137.3590 C   0  0  0  0  0  3  0  0  0  0  0  0
  184.9300  177.4690  137.1200 C   0  0  0  0  0  2  0  0  0  0  0  0
  190.9370  177.0200  137.3980 C   0  0  0  0  0  2  0  0  0  0  0  0
  192.8580  174.2110  137.5700 C   0  0  0  0  0  3  0  0  0  0  0  0
  191.5610  174.7000  137.8550 N   0  0  0  0  0  2  0  0  0  0  0  0
  193.7670  175.1280  137.8310 C   0  0  0  0  0  0  0  0  0  0  0  0
  191.6620  176.0670  138.3440 C   0  0  1  0  0  3  0  0  0  0  0  0
  193.1570  176.3850  138.3390 C   0  0  0  0  0  2  0  0  0  0  0  0
  197.2170  173.8890  137.9180 O   0  0  0  0  0  0  0  0  0  0  0  0
  195.1790  174.9710  137.6420 N   0  0  0  0  0  2  0  0  0  0  0  0
  195.4610  173.0070  139.0920 O   0  0  0  0  0  1  0  0  0  0  0  0
  195.9930  173.9410  138.2100 C   0  0  0  0  0  0  0  0  0  0  0  0
  188.9690  178.3230  139.0680 C   0  0  0  0  0  2  0  0  0  0  0  0
  188.3220  178.0880  140.2840 O   0  0  0  0  0  0  0  0  0  0  0  0
  189.2180  177.3100  141.0170 C   0  0  0  0  0  2  0  0  0  0  0  0
  188.8320  177.3280  142.4600 C   0  0  0  0  0  0  0  0  0  0  0  0
  191.6220  176.9330  145.7780 O   0  0  0  0  0  1  0  0  0  0  0  0
  187.9300  177.5470  148.8230 N   0  0  0  0  0  1  0  0  0  0  0  0
  187.9930  177.4700  145.1050 C   0  0  0  0  0  0  0  0  0  0  0  0
  187.1050  177.5880  144.0850 N   0  0  0  0  0  0  0  0  0  0  0  0
  187.4930  177.5260  142.7880 C   0  0  0  0  0  3  0  0  0  0  0  0
  188.4120  177.4450  147.4890 C   0  0  0  0  0  0  0  0  0  0  0  0
  189.7690  177.2390  147.2510 C   0  0  0  0  0  3  0  0  0  0  0  0
  189.7890  177.1840  143.4850 C   0  0  0  0  0  0  0  0  0  0  0  0
  187.5270  177.5610  146.4190 C   0  0  0  0  0  3  0  0  0  0  0  0
  191.2230  176.9760  143.1030 C   0  0  0  0  0  1  0  0  0  0  0  0
  189.3730  177.2540  144.8410 C   0  0  0  0  0  0  0  0  0  0  0  0
  190.2580  177.1380  145.9450 C   0  0  0  0  0  0  0  0  0  0  0  0
  1 17  1  0  0  0  0
  2  7  1  0  0  0  0
  2  1  2  0  0  0  0
  3  1  1  0  0  0  0
  5  3  1  0  0  0  0
  5  4  1  0  0  0  0
  6  5  1  0  0  0  0
  6  4  1  0  0  0  0
  8 10  2  0  0  0  0
  8  9  1  0  0  0  0
  9 11  1  0  0  0  0
 10 12  1  0  0  0  0
 11  7  1  6  0  0  0
 12 11  1  0  0  0  0
 13 16  2  0  0  0  0
 14 10  1  0  0  0  0
 14 16  1  0  0  0  0
 16 15  1  0  0  0  0
 17 18  1  0  0  0  0
 18 19  1  0  0  0  0
 19 20  1  0  0  0  0
 20 25  2  0  0  0  0
 20 28  1  0  0  0  0
 21 32  1  0  0  0  0
 23 29  1  0  0  0  0
 24 23  2  0  0  0  0
 25 24  1  0  0  0  0
 26 22  1  0  0  0  0
 27 26  1  0  0  0  0
 28 31  2  0  0  0  0
 29 26  2  0  0  0  0
 30 28  1  0  0  0  0
 31 23  1  0  0  0  0
 31 32  1  0  0  0  0
 32 27  2  0  0  0  0
M  END
>  <MODEL>
7

>  <REMARK>
 VINA RESULT:      -7.8      3.233      4.869
  Name = 
  9 active torsions:
  status: ('A' for Active; 'I' for Inactive)
    1  A    between atoms: C_1  and  C_19
    2  A    between atoms: C_3  and  C_15
    3  A    between atoms: C_3  and  C_29
    4  A    between atoms: C_11  and  C_15
    5  A    between atoms: C_12  and  N_16
    6  A    between atoms: N_14  and  C_21
    7  A    between atoms: C_19  and  O_25
    8  A    between atoms: C_21  and  C_23
    9  A    between atoms: O_25  and  C_29
                            x       y       z     vdW  Elec       q    Type
                         _______ _______ _______ _____ _____    ______ ____

>  <TORSDO>
F 9

$$$$
=
 OpenBabel10222416353D

 32 35  0  0  1  0  0  0  0  0999 V2000
  188.9450  177.3610  144.6520 C   0  0  0  0  0  0  0  0  0  0  0  0
  189.9420  177.0300  143.9010 N   0  0  0  0  0  0  0  0  0  0  0  0
  189.2260  178.1070  145.9220 C   0  0  0  0  0  2  0  0  0  0  0  0
  188.3030  177.0390  147.9500 C   0  0  0  0  0  2  0  0  0  0  0  0
  189.5210  177.1420  147.0570 C   0  0  0  0  0  3  0  0  0  0  0  0
  189.4810  177.8900  148.3750 C   0  0  0  0  0  2  0  0  0  0  0  0
  189.8100  176.3210  142.6480 C   0  0  0  0  0  2  0  0  0  0  0  0
  190.2510  176.4280  139.2700 C   0  0  0  0  0  3  0  0  0  0  0  0
  190.9640  176.4130  140.4930 N   0  0  0  0  0  2  0  0  0  0  0  0
  189.1530  177.1480  139.3820 C   0  0  0  0  0  0  0  0  0  0  0  0
  190.2390  177.2020  141.4790 C   0  0  1  0  0  3  0  0  0  0  0  0
  189.0000  177.7170  140.7470 C   0  0  0  0  0  2  0  0  0  0  0  0
  187.2740  178.5260  136.5520 O   0  0  0  0  0  0  0  0  0  0  0  0
  188.1940  177.3610  138.3400 N   0  0  0  0  0  2  0  0  0  0  0  0
  189.0230  179.5560  137.6100 O   0  0  0  0  0  1  0  0  0  0  0  0
  188.1420  178.4900  137.4630 C   0  0  0  0  0  0  0  0  0  0  0  0
  187.5220  177.0430  144.2610 C   0  0  0  0  0  2  0  0  0  0  0  0
  186.6100  177.6670  145.1160 O   0  0  0  0  0  0  0  0  0  0  0  0
  186.2910  178.8660  144.4790 C   0  0  0  0  0  2  0  0  0  0  0  0
  184.8560  178.8460  144.0620 C   0  0  0  0  0  0  0  0  0  0  0  0
  183.4710  178.4210  139.9580 O   0  0  0  0  0  1  0  0  0  0  0  0
  178.9320  178.4440  141.5940 N   0  0  0  0  0  1  0  0  0  0  0  0
  182.1520  178.7310  143.4330 C   0  0  0  0  0  0  0  0  0  0  0  0
  182.5630  178.8710  144.7190 N   0  0  0  0  0  0  0  0  0  0  0  0
  183.8760  178.9260  145.0490 C   0  0  0  0  0  3  0  0  0  0  0  0
  180.3290  178.5190  141.8560 C   0  0  0  0  0  0  0  0  0  0  0  0
  181.2410  178.4380  140.8070 C   0  0  0  0  0  3  0  0  0  0  0  0
  184.4790  178.7150  142.7110 C   0  0  0  0  0  0  0  0  0  0  0  0
  180.7830  178.6640  143.1650 C   0  0  0  0  0  3  0  0  0  0  0  0
  185.5550  178.6270  141.6710 C   0  0  0  0  0  1  0  0  0  0  0  0
  183.1000  178.6550  142.3760 C   0  0  0  0  0  0  0  0  0  0  0  0
  182.6160  178.5080  141.0490 C   0  0  0  0  0  0  0  0  0  0  0  0
  1  3  1  0  0  0  0
  2  1  2  0  0  0  0
  3  5  1  0  0  0  0
  4  6  1  0  0  0  0
  5  4  1  0  0  0  0
  5  6  1  0  0  0  0
  7  2  1  0  0  0  0
  8 10  2  0  0  0  0
  8  9  1  0  0  0  0
  9 11  1  0  0  0  0
 10 12  1  0  0  0  0
 11  7  1  1  0  0  0
 12 11  1  0  0  0  0
 13 16  2  0  0  0  0
 14 10  1  0  0  0  0
 16 15  1  0  0  0  0
 16 14  1  0  0  0  0
 17  1  1  0  0  0  0
 17 18  1  0  0  0  0
 19 18  1  0  0  0  0
 20 19  1  0  0  0  0
 20 25  1  0  0  0  0
 21 32  1  0  0  0  0
 22 26  1  0  0  0  0
 23 24  1  0  0  0  0
 24 25  2  0  0  0  0
 26 29  2  0  0  0  0
 27 32  2  0  0  0  0
 27 26  1  0  0  0  0
 28 20  2  0  0  0  0
 29 23  1  0  0  0  0
 30 28  1  0  0  0  0
 31 28  1  0  0  0  0
 31 23  2  0  0  0  0
 32 31  1  0  0  0  0
M  END
>  <MODEL>
8

>  <REMARK>
 VINA RESULT:      -7.7      2.550      6.823
  Name = 
  9 active torsions:
  status: ('A' for Active; 'I' for Inactive)
    1  A    between atoms: C_1  and  C_19
    2  A    between atoms: C_3  and  C_15
    3  A    between atoms: C_3  and  C_29
    4  A    between atoms: C_11  and  C_15
    5  A    between atoms: C_12  and  N_16
    6  A    between atoms: N_14  and  C_21
    7  A    between atoms: C_19  and  O_25
    8  A    between atoms: C_21  and  C_23
    9  A    between atoms: O_25  and  C_29
                            x       y       z     vdW  Elec       q    Type
                         _______ _______ _______ _____ _____    ______ ____

>  <TORSDO>
F 9

$$$$
=
 OpenBabel10222416353D

 32 35  0  0  1  0  0  0  0  0999 V2000
  186.6530  177.6710  145.2770 C   0  0  0  0  0  0  0  0  0  0  0  0
  185.7860  178.6270  145.2420 N   0  0  0  0  0  0  0  0  0  0  0  0
  187.1900  177.2440  146.6100 C   0  0  0  0  0  2  0  0  0  0  0  0
  189.5040  177.4560  147.4510 C   0  0  0  0  0  2  0  0  0  0  0  0
  188.2440  178.2200  147.1020 C   0  0  0  0  0  3  0  0  0  0  0  0
  188.5710  177.9170  148.5510 C   0  0  0  0  0  2  0  0  0  0  0  0
  185.1810  179.1270  144.0270 C   0  0  0  0  0  2  0  0  0  0  0  0
  182.0870  179.1600  142.5990 C   0  0  0  0  0  3  0  0  0  0  0  0
  182.7470  178.9800  143.8380 N   0  0  0  0  0  2  0  0  0  0  0  0
  182.7870  178.6270  141.6190 C   0  0  0  0  0  0  0  0  0  0  0  0
  183.9940  178.2620  143.6160 C   0  0  1  0  0  3  0  0  0  0  0  0
  184.0460  178.0070  142.1100 C   0  0  0  0  0  2  0  0  0  0  0  0
  182.7070  179.2110  138.0010 O   0  0  0  0  0  0  0  0  0  0  0  0
  182.4180  178.6410  140.2350 N   0  0  0  0  0  2  0  0  0  0  0  0
  184.2140  180.1280  139.4590 O   0  0  0  0  0  1  0  0  0  0  0  0
  183.1120  179.3260  139.1870 C   0  0  0  0  0  0  0  0  0  0  0  0
  187.1040  176.9680  144.0200 C   0  0  0  0  0  2  0  0  0  0  0  0
  188.4870  176.7710  144.0170 O   0  0  0  0  0  0  0  0  0  0  0  0
  189.0010  177.8780  143.3430 C   0  0  0  0  0  2  0  0  0  0  0  0
  189.3860  177.4840  141.9540 C   0  0  0  0  0  0  0  0  0  0  0  0
  187.2120  178.6220  138.3600 O   0  0  0  0  0  1  0  0  0  0  0  0
  190.5750  176.3710  135.7340 N   0  0  0  0  0  1  0  0  0  0  0  0
  190.2640  176.7600  139.4190 C   0  0  0  0  0  0  0  0  0  0  0  0
  190.9540  176.3880  140.5280 N   0  0  0  0  0  0  0  0  0  0  0  0
  190.5460  176.7330  141.7730 C   0  0  0  0  0  3  0  0  0  0  0  0
  190.0680  176.7510  137.0070 C   0  0  0  0  0  0  0  0  0  0  0  0
  188.8940  177.4970  137.0970 C   0  0  0  0  0  3  0  0  0  0  0  0
  188.6280  177.8810  140.8340 C   0  0  0  0  0  0  0  0  0  0  0  0
  190.7500  176.3840  138.1650 C   0  0  0  0  0  3  0  0  0  0  0  0
  187.3880  178.6920  141.0580 C   0  0  0  0  0  1  0  0  0  0  0  0
  189.0660  177.5170  139.5330 C   0  0  0  0  0  0  0  0  0  0  0  0
  188.3850  177.8800  138.3410 C   0  0  0  0  0  0  0  0  0  0  0  0
  1  3  1  0  0  0  0
  2  1  2  0  0  0  0
  3  5  1  0  0  0  0
  4  6  1  0  0  0  0
  5  4  1  0  0  0  0
  5  6  1  0  0  0  0
  7  2  1  0  0  0  0
  8  9  1  0  0  0  0
 10 12  1  0  0  0  0
 10  8  2  0  0  0  0
 11  9  1  0  0  0  0
 11  7  1  6  0  0  0
 12 11  1  0  0  0  0
 13 16  2  0  0  0  0
 14 10  1  0  0  0  0
 16 15  1  0  0  0  0
 16 14  1  0  0  0  0
 17  1  1  0  0  0  0
 18 17  1  0  0  0  0
 19 18  1  0  0  0  0
 20 19  1  0  0  0  0
 22 26  1  0  0  0  0
 23 31  1  0  0  0  0
 23 24  1  0  0  0  0
 24 25  2  0  0  0  0
 25 20  1  0  0  0  0
 26 27  2  0  0  0  0
 26 29  1  0  0  0  0
 27 32  1  0  0  0  0
 28 30  1  0  0  0  0
 28 20  2  0  0  0  0
 29 23  2  0  0  0  0
 31 28  1  0  0  0  0
 32 21  1  0  0  0  0
 32 31  2  0  0  0  0
M  END
>  <MODEL>
9

>  <REMARK>
 VINA RESULT:      -7.6      2.475      7.792
  Name = 
  9 active torsions:
  status: ('A' for Active; 'I' for Inactive)
    1  A    between atoms: C_1  and  C_19
    2  A    between atoms: C_3  and  C_15
    3  A    between atoms: C_3  and  C_29
    4  A    between atoms: C_11  and  C_15
    5  A    between atoms: C_12  and  N_16
    6  A    between atoms: N_14  and  C_21
    7  A    between atoms: C_19  and  O_25
    8  A    between atoms: C_21  and  C_23
    9  A    between atoms: O_25  and  C_29
                            x       y       z     vdW  Elec       q    Type
                         _______ _______ _______ _____ _____    ______ ____

>  <TORSDO>
F 9

$$$$
