=
 OpenBabel10222416503D

 53 58  0  0  1  0  0  0  0  0999 V2000
  189.2410  176.7180  137.8210 C   0  0  2  0  0  3  0  0  0  0  0  0
  191.3100  176.3230  134.6260 C   0  0  0  0  0  2  0  0  0  0  0  0
  193.0440  174.2930  136.4360 C   0  0  0  0  0  1  0  0  0  0  0  0
  189.9460  176.0300  136.6780 C   0  0  0  0  0  0  0  0  0  0  0  0
  190.7160  174.9640  136.9670 C   0  0  0  0  0  3  0  0  0  0  0  0
  191.5120  174.8710  134.6010 N   0  0  0  0  0  2  0  0  0  0  0  0
  191.1470  172.8380  135.8440 C   0  0  0  0  0  1  0  0  0  0  0  0
  191.6050  174.2840  135.9480 C   0  0  0  0  0  0  0  0  0  0  0  0
  189.9760  176.6300  135.2920 C   0  0  0  0  0  2  0  0  0  0  0  0
  187.8800  177.2920  137.5000 C   0  0  0  0  0  0  0  0  0  0  0  0
  187.6000  178.4750  137.8340 O   0  0  0  0  0  0  0  0  0  0  0  0
  184.5920  177.0860  136.0460 C   0  0  0  0  0  3  0  0  0  0  0  0
  183.8200  176.0980  136.4870 C   0  0  0  0  0  0  0  0  0  0  0  0
  186.6260  175.2660  137.3750 N   0  0  0  0  0  0  0  0  0  0  0  0
  185.5540  174.3540  137.0730 C   0  0  0  0  0  3  0  0  0  0  0  0
  186.5250  178.0620  135.0790 O   0  0  0  0  0  1  0  0  0  0  0  0
  184.3150  174.7160  136.7020 C   0  0  0  0  0  3  0  0  0  0  0  0
  186.0260  176.9020  135.6880 C   0  0  1  0  0  3  0  0  0  0  0  0
  186.8410  176.4440  136.8700 C   0  0  0  0  0  0  0  0  0  0  0  0
  182.4770  176.4010  136.7080 O   0  0  0  0  0  0  0  0  0  0  0  0
  181.9410  177.7030  136.4940 C   0  0  0  0  0  2  0  0  0  0  0  0
  181.2010  178.1320  137.7430 C   0  0  0  0  0  2  0  0  0  0  0  0
  181.3850  177.0850  138.8300 C   0  0  0  0  0  2  0  0  0  0  0  0
  182.7290  177.8000  140.6720 N   0  0  0  0  0  0  0  0  0  0  0  0
  180.5950  178.8370  142.0460 C   0  0  0  0  0  0  0  0  0  0  0  0
  181.8800  178.9090  142.5900 C   0  0  0  0  0  3  0  0  0  0  0  0
  181.5110  177.7210  140.1400 N   0  0  0  0  0  0  0  0  0  0  0  0
  180.4240  178.2370  140.7920 C   0  0  0  0  0  0  0  0  0  0  0  0
  182.9540  178.3750  141.8860 C   0  0  0  0  0  0  0  0  0  0  0  0
  179.2780  178.1860  140.2740 O   0  0  0  0  0  0  0  0  0  0  0  0
  184.3380  179.4760  143.6180 C   0  0  0  0  0  1  0  0  0  0  0  0
  184.3470  178.5240  142.4320 C   0  0  0  0  0  3  0  0  0  0  0  0
  185.3060  179.0350  141.3720 C   0  0  0  0  0  1  0  0  0  0  0  0
  179.4660  179.3700  142.7540 N   0  0  0  0  0  2  0  0  0  0  0  0
  179.2200  179.1210  144.1670 C   0  0  0  0  0  1  0  0  0  0  0  0
  190.1660  177.7260  138.5110 C   0  0  0  0  0  2  0  0  0  0  0  0
  189.2260  177.1000  140.7410 C   0  0  0  0  0  3  0  0  0  0  0  0
  191.6000  177.5670  140.6020 C   0  0  0  0  0  3  0  0  0  0  0  0
  191.7340  177.3290  141.9730 C   0  0  0  0  0  3  0  0  0  0  0  0
  190.3500  177.4280  139.9720 C   0  0  0  0  0  0  0  0  0  0  0  0
  189.3530  176.8910  142.1280 C   0  0  0  0  0  3  0  0  0  0  0  0
  190.6140  176.9890  142.7370 C   0  0  0  0  0  0  0  0  0  0  0  0
  190.7610  176.7470  144.2050 C   0  0  0  0  0  2  0  0  0  0  0  0
  189.4190  177.5800  146.1040 N   0  0  1  0  0  0  0  0  0  0  0  0
  187.0340  177.5910  146.1940 C   0  0  0  0  0  3  0  0  0  0  0  0
  188.2660  177.2040  146.9380 C   0  0  2  0  0  3  0  0  0  0  0  0
  189.4010  176.7410  144.8800 C   0  0  1  0  0  3  0  0  0  0  0  0
  188.8430  178.1010  144.8460 C   0  0  1  0  0  3  0  0  0  0  0  0
  187.3580  178.0830  145.0220 C   0  0  0  0  0  3  0  0  0  0  0  0
  187.7420  177.1260  149.2800 F   0  0  0  0  0  0  0  0  0  0  0  0
  187.7400  179.1550  148.2710 F   0  0  0  0  0  0  0  0  0  0  0  0
  189.6850  178.0410  148.6590 F   0  0  0  0  0  0  0  0  0  0  0  0
  188.3430  177.9000  148.3050 C   0  0  0  0  0  0  0  0  0  0  0  0
  1 36  1  6  0  0  0
  2  9  1  0  0  0  0
  4  5  2  0  0  0  0
  4  1  1  0  0  0  0
  6  2  1  0  0  0  0
  6  8  1  0  0  0  0
  7  8  1  0  0  0  0
  8  3  1  0  0  0  0
  8  5  1  0  0  0  0
  9  4  1  0  0  0  0
 10  1  1  0  0  0  0
 10 11  2  0  0  0  0
 12 13  2  0  0  0  0
 13 17  1  0  0  0  0
 13 20  1  0  0  0  0
 15 14  1  0  0  0  0
 17 15  2  0  0  0  0
 18 16  1  1  0  0  0
 18 12  1  0  0  0  0
 18 19  1  0  0  0  0
 19 14  2  0  0  0  0
 19 10  1  0  0  0  0
 21 20  1  0  0  0  0
 21 22  1  0  0  0  0
 22 23  1  0  0  0  0
 23 27  1  0  0  0  0
 24 29  2  0  0  0  0
 25 26  2  0  0  0  0
 25 34  1  0  0  0  0
 27 24  1  0  0  0  0
 27 28  1  0  0  0  0
 28 25  1  0  0  0  0
 29 32  1  0  0  0  0
 29 26  1  0  0  0  0
 30 28  2  0  0  0  0
 32 31  1  0  0  0  0
 33 32  1  0  0  0  0
 34 35  1  0  0  0  0
 36 40  1  0  0  0  0
 37 41  1  0  0  0  0
 38 39  2  0  0  0  0
 39 42  1  0  0  0  0
 40 38  1  0  0  0  0
 40 37  2  0  0  0  0
 41 42  2  0  0  0  0
 42 43  1  0  0  0  0
 43 47  1  0  0  0  0
 44 46  1  0  0  0  0
 45 46  1  0  0  0  0
 46 53  1  0  0  0  0
 47 44  1  0  0  0  0
 48 47  1  0  0  0  0
 48 49  1  0  0  0  0
 48 44  1  0  0  0  0
 49 45  2  0  0  0  0
 51 53  1  0  0  0  0
 53 52  1  0  0  0  0
 53 50  1  0  0  0  0
M  END
>  <MODEL>
1

>  <REMARK>
 VINA RESULT:      -8.4      0.000      0.000
  Name = 
  15 active torsions:
  status: ('A' for Active; 'I' for Inactive)
    1  A    between atoms: C_2  and  C_20
    2  A    between atoms: C_2  and  C_51
    3  A    between atoms: C_8  and  C_28
    4  A    between atoms: C_8  and  O_45
    5  A    between atoms: C_9  and  C_20
    6  A    between atoms: N_11  and  C_13
    7  A    between atoms: C_12  and  O_45
    8  A    between atoms: C_17  and  C_53
    9  A    between atoms: C_20  and  C_53
   10  A    between atoms: C_21  and  C_30
   11  A    between atoms: C_21  and  C_48
   12  A    between atoms: N_26  and  C_34
   13  A    between atoms: C_28  and  C_34
   14  A    between atoms: C_35  and  C_40
   15  A    between atoms: C_37  and  C_38
                            x       y       z     vdW  Elec       q    Type
                         _______ _______ _______ _____ _____    ______ ____

>  <TORSDO>
F 15

$$$$
=
 OpenBabel10222416503D

 53 58  0  0  1  0  0  0  0  0999 V2000
  190.0700  176.4790  138.8770 C   0  0  2  0  0  3  0  0  0  0  0  0
  190.9470  173.8130  136.2760 C   0  0  0  0  0  2  0  0  0  0  0  0
  192.3580  176.2830  134.7560 C   0  0  0  0  0  1  0  0  0  0  0  0
  190.9190  175.6460  137.9490 C   0  0  0  0  0  0  0  0  0  0  0  0
  191.8160  176.2860  137.1760 C   0  0  0  0  0  3  0  0  0  0  0  0
  192.3430  174.1540  135.9860 N   0  0  0  0  0  2  0  0  0  0  0  0
  194.0830  175.7620  136.4330 C   0  0  0  0  0  1  0  0  0  0  0  0
  192.6120  175.5980  136.0880 C   0  0  0  0  0  0  0  0  0  0  0  0
  190.6340  174.1800  137.7200 C   0  0  0  0  0  2  0  0  0  0  0  0
  188.8670  177.1420  138.2470 C   0  0  0  0  0  0  0  0  0  0  0  0
  188.5320  178.3050  138.5990 O   0  0  0  0  0  0  0  0  0  0  0  0
  186.4610  177.2900  135.5720 C   0  0  0  0  0  3  0  0  0  0  0  0
  185.4060  176.4900  135.6920 C   0  0  0  0  0  0  0  0  0  0  0  0
  187.4120  175.3350  137.6920 N   0  0  0  0  0  0  0  0  0  0  0  0
  186.3990  174.5730  137.0090 C   0  0  0  0  0  3  0  0  0  0  0  0
  188.7650  177.8380  135.4550 O   0  0  0  0  0  1  0  0  0  0  0  0
  185.5040  175.0800  136.1450 C   0  0  0  0  0  3  0  0  0  0  0  0
  187.8550  176.8450  135.8460 C   0  0  1  0  0  3  0  0  0  0  0  0
  188.0280  176.4010  137.2760 C   0  0  0  0  0  0  0  0  0  0  0  0
  184.1690  177.0210  135.3260 O   0  0  0  0  0  0  0  0  0  0  0  0
  182.9410  176.3520  135.5940 C   0  0  0  0  0  2  0  0  0  0  0  0
  182.3740  176.8840  136.8930 C   0  0  0  0  0  2  0  0  0  0  0  0
  182.9310  178.2740  137.1610 C   0  0  0  0  0  2  0  0  0  0  0  0
  181.8670  178.4490  139.2930 N   0  0  0  0  0  0  0  0  0  0  0  0
  184.2000  179.0650  140.5950 C   0  0  0  0  0  0  0  0  0  0  0  0
  183.0020  178.9770  141.3090 C   0  0  0  0  0  3  0  0  0  0  0  0
  183.0000  178.5310  138.5970 N   0  0  0  0  0  0  0  0  0  0  0  0
  184.1850  178.8260  139.2150 C   0  0  0  0  0  0  0  0  0  0  0  0
  181.8240  178.6690  140.6370 C   0  0  0  0  0  0  0  0  0  0  0  0
  185.2580  178.8750  138.5590 O   0  0  0  0  0  0  0  0  0  0  0  0
  180.8230  178.6710  142.9000 C   0  0  0  0  0  1  0  0  0  0  0  0
  180.5500  178.4940  141.4150 C   0  0  0  0  0  3  0  0  0  0  0  0
  179.9310  177.1300  141.1660 C   0  0  0  0  0  1  0  0  0  0  0  0
  185.4300  179.3920  141.2600 N   0  0  0  0  0  2  0  0  0  0  0  0
  186.3430  178.3880  141.7850 C   0  0  0  0  0  1  0  0  0  0  0  0
  190.9320  177.4520  139.6880 C   0  0  0  0  0  2  0  0  0  0  0  0
  189.9110  176.3190  141.6680 C   0  0  0  0  0  3  0  0  0  0  0  0
  191.8590  177.7110  142.0390 C   0  0  0  0  0  3  0  0  0  0  0  0
  191.8050  177.4350  143.4080 C   0  0  0  0  0  3  0  0  0  0  0  0
  190.9290  177.1330  141.1570 C   0  0  0  0  0  0  0  0  0  0  0  0
  189.8350  176.0650  143.0520 C   0  0  0  0  0  3  0  0  0  0  0  0
  190.7970  176.6110  143.9160 C   0  0  0  0  0  0  0  0  0  0  0  0
  190.7360  176.3290  145.3830 C   0  0  0  0  0  2  0  0  0  0  0  0
  188.4590  177.0700  145.9870 N   0  0  1  0  0  0  0  0  0  0  0  0
  187.9400  178.6350  147.7130 C   0  0  0  0  0  3  0  0  0  0  0  0
  187.6970  178.2950  146.2830 C   0  0  2  0  0  3  0  0  0  0  0  0
  189.9050  177.3840  146.0920 C   0  0  1  0  0  3  0  0  0  0  0  0
  189.2060  176.7610  147.2250 C   0  0  1  0  0  3  0  0  0  0  0  0
  188.7910  177.7830  148.2350 C   0  0  0  0  0  3  0  0  0  0  0  0
  185.4680  178.1730  147.1660 F   0  0  0  0  0  0  0  0  0  0  0  0
  185.9720  176.8440  145.4000 F   0  0  0  0  0  0  0  0  0  0  0  0
  185.7600  179.0950  145.1500 F   0  0  0  0  0  0  0  0  0  0  0  0
  186.2040  178.0800  145.9990 C   0  0  0  0  0  0  0  0  0  0  0  0
  1 36  1  6  0  0  0
  2  9  1  0  0  0  0
  3  8  1  0  0  0  0
  4  1  1  0  0  0  0
  5  4  2  0  0  0  0
  6  8  1  0  0  0  0
  6  2  1  0  0  0  0
  8  7  1  0  0  0  0
  8  5  1  0  0  0  0
  9  4  1  0  0  0  0
 10 11  2  0  0  0  0
 10  1  1  0  0  0  0
 12 13  2  0  0  0  0
 12 18  1  0  0  0  0
 13 17  1  0  0  0  0
 15 14  1  0  0  0  0
 17 15  2  0  0  0  0
 18 16  1  1  0  0  0
 18 19  1  0  0  0  0
 19 14  2  0  0  0  0
 19 10  1  0  0  0  0
 20 21  1  0  0  0  0
 20 13  1  0  0  0  0
 21 22  1  0  0  0  0
 22 23  1  0  0  0  0
 23 27  1  0  0  0  0
 24 29  2  0  0  0  0
 25 34  1  0  0  0  0
 25 26  2  0  0  0  0
 27 28  1  0  0  0  0
 27 24  1  0  0  0  0
 28 25  1  0  0  0  0
 29 26  1  0  0  0  0
 29 32  1  0  0  0  0
 30 28  2  0  0  0  0
 32 31  1  0  0  0  0
 33 32  1  0  0  0  0
 34 35  1  0  0  0  0
 36 40  1  0  0  0  0
 37 41  1  0  0  0  0
 38 39  2  0  0  0  0
 39 42  1  0  0  0  0
 40 37  2  0  0  0  0
 40 38  1  0  0  0  0
 41 42  2  0  0  0  0
 42 43  1  0  0  0  0
 43 47  1  0  0  0  0
 44 47  1  0  0  0  0
 44 46  1  0  0  0  0
 44 48  1  0  0  0  0
 45 49  2  0  0  0  0
 46 45  1  0  0  0  0
 47 48  1  0  0  0  0
 48 49  1  0  0  0  0
 51 53  1  0  0  0  0
 52 53  1  0  0  0  0
 53 46  1  0  0  0  0
 53 50  1  0  0  0  0
M  END
>  <MODEL>
2

>  <REMARK>
 VINA RESULT:      -8.2      1.871      2.929
  Name = 
  15 active torsions:
  status: ('A' for Active; 'I' for Inactive)
    1  A    between atoms: C_2  and  C_20
    2  A    between atoms: C_2  and  C_51
    3  A    between atoms: C_8  and  C_28
    4  A    between atoms: C_8  and  O_45
    5  A    between atoms: C_9  and  C_20
    6  A    between atoms: N_11  and  C_13
    7  A    between atoms: C_12  and  O_45
    8  A    between atoms: C_17  and  C_53
    9  A    between atoms: C_20  and  C_53
   10  A    between atoms: C_21  and  C_30
   11  A    between atoms: C_21  and  C_48
   12  A    between atoms: N_26  and  C_34
   13  A    between atoms: C_28  and  C_34
   14  A    between atoms: C_35  and  C_40
   15  A    between atoms: C_37  and  C_38
                            x       y       z     vdW  Elec       q    Type
                         _______ _______ _______ _____ _____    ______ ____

>  <TORSDO>
F 15

$$$$
=
 OpenBabel10222416503D

 53 58  0  0  1  0  0  0  0  0999 V2000
  190.7560  176.8240  139.6420 C   0  0  2  0  0  3  0  0  0  0  0  0
  193.6910  175.8530  137.3870 C   0  0  0  0  0  2  0  0  0  0  0  0
  191.7930  173.3660  136.6040 C   0  0  0  0  0  1  0  0  0  0  0  0
  191.4940  176.4330  138.3860 C   0  0  0  0  0  0  0  0  0  0  0  0
  190.9550  175.4710  137.6150 C   0  0  0  0  0  3  0  0  0  0  0  0
  192.9860  175.4700  136.1600 N   0  0  0  0  0  2  0  0  0  0  0  0
  190.8010  175.1300  135.2010 C   0  0  0  0  0  1  0  0  0  0  0  0
  191.6670  174.8690  136.4220 C   0  0  0  0  0  0  0  0  0  0  0  0
  192.8920  176.9330  138.1050 C   0  0  0  0  0  2  0  0  0  0  0  0
  189.4320  177.5220  139.4330 C   0  0  0  0  0  0  0  0  0  0  0  0
  189.0090  178.3410  140.2930 O   0  0  0  0  0  0  0  0  0  0  0  0
  186.6290  178.4080  137.3540 C   0  0  0  0  0  3  0  0  0  0  0  0
  185.7650  177.4320  137.0930 C   0  0  0  0  0  0  0  0  0  0  0  0
  188.2430  175.9450  138.0950 N   0  0  0  0  0  0  0  0  0  0  0  0
  187.2810  175.4090  137.1680 C   0  0  0  0  0  3  0  0  0  0  0  0
  188.7500  179.4650  137.4210 O   0  0  0  0  0  1  0  0  0  0  0  0
  186.1810  176.0520  136.7410 C   0  0  0  0  0  3  0  0  0  0  0  0
  188.1050  178.2270  137.2840 C   0  0  1  0  0  3  0  0  0  0  0  0
  188.5860  177.1870  138.2630 C   0  0  0  0  0  0  0  0  0  0  0  0
  184.4110  177.7670  137.1210 O   0  0  0  0  0  0  0  0  0  0  0  0
  183.3810  176.7850  137.1600 C   0  0  0  0  0  2  0  0  0  0  0  0
  182.4780  177.0770  138.3390 C   0  0  0  0  0  2  0  0  0  0  0  0
  183.0160  178.2740  139.1080 C   0  0  0  0  0  2  0  0  0  0  0  0
  181.9460  178.7580  141.1890 N   0  0  0  0  0  0  0  0  0  0  0  0
  179.9850  180.2780  140.0220 C   0  0  0  0  0  0  0  0  0  0  0  0
  179.9990  180.0960  141.4080 C   0  0  0  0  0  3  0  0  0  0  0  0
  181.9470  178.9190  139.8670 N   0  0  0  0  0  0  0  0  0  0  0  0
  180.9900  179.6800  139.2520 C   0  0  0  0  0  0  0  0  0  0  0  0
  180.9950  179.3190  141.9880 C   0  0  0  0  0  0  0  0  0  0  0  0
  181.0090  179.8540  138.0040 O   0  0  0  0  0  0  0  0  0  0  0  0
  182.4720  178.8270  143.9120 C   0  0  0  0  0  1  0  0  0  0  0  0
  181.0580  179.1890  143.4840 C   0  0  0  0  0  3  0  0  0  0  0  0
  180.0850  178.1390  143.9900 C   0  0  0  0  0  1  0  0  0  0  0  0
  178.9630  181.0670  139.3940 N   0  0  0  0  0  2  0  0  0  0  0  0
  178.9320  182.5210  139.4480 C   0  0  0  0  0  1  0  0  0  0  0  0
  191.6770  177.5680  140.6140 C   0  0  0  0  0  2  0  0  0  0  0  0
  191.5930  178.2910  143.0050 C   0  0  0  0  0  3  0  0  0  0  0  0
  190.8510  176.0460  142.4730 C   0  0  0  0  0  3  0  0  0  0  0  0
  190.5830  175.8070  143.8230 C   0  0  0  0  0  3  0  0  0  0  0  0
  191.3330  177.2990  142.0510 C   0  0  0  0  0  0  0  0  0  0  0  0
  191.3550  178.0410  144.3710 C   0  0  0  0  0  3  0  0  0  0  0  0
  190.8310  176.8020  144.7730 C   0  0  0  0  0  0  0  0  0  0  0  0
  190.5550  176.5360  146.2180 C   0  0  0  0  0  2  0  0  0  0  0  0
  188.1870  177.2350  146.2760 N   0  0  1  0  0  0  0  0  0  0  0  0
  187.2260  178.6830  147.9130 C   0  0  0  0  0  3  0  0  0  0  0  0
  187.3550  178.4380  146.4480 C   0  0  2  0  0  3  0  0  0  0  0  0
  189.5560  177.5420  146.7600 C   0  0  1  0  0  3  0  0  0  0  0  0
  188.6050  176.8460  147.6400 C   0  0  1  0  0  3  0  0  0  0  0  0
  187.9320  177.7990  148.5760 C   0  0  0  0  0  3  0  0  0  0  0  0
  186.0380  177.2290  144.8450 F   0  0  0  0  0  0  0  0  0  0  0  0
  185.5400  179.4150  145.1800 F   0  0  0  0  0  0  0  0  0  0  0  0
  185.0680  177.8500  146.7620 F   0  0  0  0  0  0  0  0  0  0  0  0
  185.9840  178.2420  145.7850 C   0  0  0  0  0  0  0  0  0  0  0  0
  1 36  1  6  0  0  0
  2  9  1  0  0  0  0
  4  1  1  0  0  0  0
  5  4  2  0  0  0  0
  6  8  1  0  0  0  0
  6  2  1  0  0  0  0
  7  8  1  0  0  0  0
  8  3  1  0  0  0  0
  8  5  1  0  0  0  0
  9  4  1  0  0  0  0
 10  1  1  0  0  0  0
 10 11  2  0  0  0  0
 13 20  1  0  0  0  0
 13 12  2  0  0  0  0
 14 19  2  0  0  0  0
 15 14  1  0  0  0  0
 17 13  1  0  0  0  0
 17 15  2  0  0  0  0
 18 12  1  0  0  0  0
 18 16  1  1  0  0  0
 18 19  1  0  0  0  0
 19 10  1  0  0  0  0
 20 21  1  0  0  0  0
 21 22  1  0  0  0  0
 22 23  1  0  0  0  0
 23 27  1  0  0  0  0
 24 29  2  0  0  0  0
 25 26  2  0  0  0  0
 26 29  1  0  0  0  0
 27 24  1  0  0  0  0
 28 27  1  0  0  0  0
 28 25  1  0  0  0  0
 29 32  1  0  0  0  0
 30 28  2  0  0  0  0
 32 31  1  0  0  0  0
 32 33  1  0  0  0  0
 34 35  1  0  0  0  0
 34 25  1  0  0  0  0
 36 40  1  0  0  0  0
 37 41  1  0  0  0  0
 38 39  2  0  0  0  0
 39 42  1  0  0  0  0
 40 38  1  0  0  0  0
 40 37  2  0  0  0  0
 41 42  2  0  0  0  0
 42 43  1  0  0  0  0
 43 47  1  0  0  0  0
 44 46  1  0  0  0  0
 44 47  1  0  0  0  0
 44 48  1  0  0  0  0
 45 49  2  0  0  0  0
 46 45  1  0  0  0  0
 47 48  1  0  0  0  0
 48 49  1  0  0  0  0
 50 53  1  0  0  0  0
 51 53  1  0  0  0  0
 53 46  1  0  0  0  0
 53 52  1  0  0  0  0
M  END
>  <MODEL>
3

>  <REMARK>
 VINA RESULT:      -8.2      1.913      2.885
  Name = 
  15 active torsions:
  status: ('A' for Active; 'I' for Inactive)
    1  A    between atoms: C_2  and  C_20
    2  A    between atoms: C_2  and  C_51
    3  A    between atoms: C_8  and  C_28
    4  A    between atoms: C_8  and  O_45
    5  A    between atoms: C_9  and  C_20
    6  A    between atoms: N_11  and  C_13
    7  A    between atoms: C_12  and  O_45
    8  A    between atoms: C_17  and  C_53
    9  A    between atoms: C_20  and  C_53
   10  A    between atoms: C_21  and  C_30
   11  A    between atoms: C_21  and  C_48
   12  A    between atoms: N_26  and  C_34
   13  A    between atoms: C_28  and  C_34
   14  A    between atoms: C_35  and  C_40
   15  A    between atoms: C_37  and  C_38
                            x       y       z     vdW  Elec       q    Type
                         _______ _______ _______ _____ _____    ______ ____

>  <TORSDO>
F 15

$$$$
=
 OpenBabel10222416503D

 53 58  0  0  1  0  0  0  0  0999 V2000
  183.1520  175.3670  136.1180 C   0  0  2  0  0  3  0  0  0  0  0  0
  179.6530  173.9790  135.4340 C   0  0  0  0  0  2  0  0  0  0  0  0
  180.4420  171.8590  137.7330 C   0  0  0  0  0  1  0  0  0  0  0  0
  181.7490  174.8900  136.4000 C   0  0  0  0  0  0  0  0  0  0  0  0
  181.5690  174.0480  137.4350 C   0  0  0  0  0  3  0  0  0  0  0  0
  179.1720  173.7470  136.7990 N   0  0  0  0  0  2  0  0  0  0  0  0
  179.8200  173.7960  139.1210 C   0  0  0  0  0  1  0  0  0  0  0  0
  180.2500  173.3660  137.7280 C   0  0  0  0  0  0  0  0  0  0  0  0
  180.6160  175.1580  135.4380 C   0  0  0  0  0  2  0  0  0  0  0  0
  183.2900  176.8350  135.7860 C   0  0  0  0  0  0  0  0  0  0  0  0
  183.6060  177.1900  134.6180 O   0  0  0  0  0  0  0  0  0  0  0  0
  183.9060  177.7870  139.2040 C   0  0  0  0  0  3  0  0  0  0  0  0
  182.8650  178.2760  139.8700 C   0  0  0  0  0  0  0  0  0  0  0  0
  182.0000  178.4750  136.9430 N   0  0  0  0  0  0  0  0  0  0  0  0
  181.5500  179.3480  137.9950 C   0  0  0  0  0  3  0  0  0  0  0  0
  185.4920  177.6650  137.4450 O   0  0  0  0  0  1  0  0  0  0  0  0
  181.9130  179.2520  139.2850 C   0  0  0  0  0  3  0  0  0  0  0  0
  184.2470  178.1960  137.8130 C   0  0  1  0  0  3  0  0  0  0  0  0
  183.1410  177.8590  136.8460 C   0  0  0  0  0  0  0  0  0  0  0  0
  182.7150  177.8610  141.1930 O   0  0  0  0  0  0  0  0  0  0  0  0
  182.7250  178.7740  142.2860 C   0  0  0  0  0  2  0  0  0  0  0  0
  184.1350  178.8660  142.8270 C   0  0  0  0  0  2  0  0  0  0  0  0
  184.1100  178.7130  144.3400 C   0  0  0  0  0  2  0  0  0  0  0  0
  186.3440  177.9610  143.9510 N   0  0  0  0  0  0  0  0  0  0  0  0
  187.0230  178.0630  146.6060 C   0  0  0  0  0  0  0  0  0  0  0  0
  187.9650  177.6550  145.6570 C   0  0  0  0  0  3  0  0  0  0  0  0
  185.4340  178.3490  144.8410 N   0  0  0  0  0  0  0  0  0  0  0  0
  185.7400  178.4220  146.1730 C   0  0  0  0  0  0  0  0  0  0  0  0
  187.6080  177.6030  144.3140 C   0  0  0  0  0  0  0  0  0  0  0  0
  184.8850  178.8160  147.0100 O   0  0  0  0  0  0  0  0  0  0  0  0
  189.8620  178.1390  143.4430 C   0  0  0  0  0  1  0  0  0  0  0  0
  188.6430  177.2430  143.2850 C   0  0  0  0  0  3  0  0  0  0  0  0
  188.0910  177.3720  141.8760 C   0  0  0  0  0  1  0  0  0  0  0  0
  187.3590  178.1170  148.0000 N   0  0  0  0  0  2  0  0  0  0  0  0
  188.7280  178.0590  148.4930 C   0  0  0  0  0  1  0  0  0  0  0  0
  183.8500  174.4570  135.1020 C   0  0  0  0  0  2  0  0  0  0  0  0
  185.4540  173.3090  136.6370 C   0  0  0  0  0  3  0  0  0  0  0  0
  186.3690  174.6620  134.8460 C   0  0  0  0  0  3  0  0  0  0  0  0
  187.6660  174.3640  135.2740 C   0  0  0  0  0  3  0  0  0  0  0  0
  185.2550  174.1150  135.5080 C   0  0  0  0  0  0  0  0  0  0  0  0
  186.7590  173.0340  137.0890 C   0  0  0  0  0  3  0  0  0  0  0  0
  187.8640  173.5490  136.3930 C   0  0  0  0  0  0  0  0  0  0  0  0
  189.2520  173.2440  136.8540 C   0  0  0  0  0  2  0  0  0  0  0  0
  190.4270  174.9860  138.1530 N   0  0  1  0  0  0  0  0  0  0  0  0
  192.1640  176.3880  137.3070 C   0  0  0  0  0  3  0  0  0  0  0  0
  190.8700  176.3860  138.0470 C   0  0  2  0  0  3  0  0  0  0  0  0
  190.1180  174.4900  136.7890 C   0  0  1  0  0  3  0  0  0  0  0  0
  191.4240  174.1980  137.3970 C   0  0  1  0  0  3  0  0  0  0  0  0
  192.4670  175.1660  136.9370 C   0  0  0  0  0  3  0  0  0  0  0  0
  190.6400  176.1090  140.4200 F   0  0  0  0  0  0  0  0  0  0  0  0
  190.2540  178.1710  139.5610 F   0  0  0  0  0  0  0  0  0  0  0  0
  192.3600  177.3160  139.6560 F   0  0  0  0  0  0  0  0  0  0  0  0
  191.0160  177.0100  139.4410 C   0  0  0  0  0  0  0  0  0  0  0  0
  1 36  1  6  0  0  0
  1  4  1  0  0  0  0
  2  9  1  0  0  0  0
  2  6  1  0  0  0  0
  4  5  2  0  0  0  0
  5  8  1  0  0  0  0
  6  8  1  0  0  0  0
  8  3  1  0  0  0  0
  8  7  1  0  0  0  0
  9  4  1  0  0  0  0
 10  1  1  0  0  0  0
 10 19  1  0  0  0  0
 11 10  2  0  0  0  0
 12 13  2  0  0  0  0
 13 20  1  0  0  0  0
 14 15  1  0  0  0  0
 15 17  2  0  0  0  0
 17 13  1  0  0  0  0
 18 16  1  6  0  0  0
 18 12  1  0  0  0  0
 19 14  2  0  0  0  0
 19 18  1  0  0  0  0
 20 21  1  0  0  0  0
 21 22  1  0  0  0  0
 22 23  1  0  0  0  0
 23 27  1  0  0  0  0
 24 29  2  0  0  0  0
 24 27  1  0  0  0  0
 25 34  1  0  0  0  0
 26 25  2  0  0  0  0
 27 28  1  0  0  0  0
 28 25  1  0  0  0  0
 28 30  2  0  0  0  0
 29 26  1  0  0  0  0
 32 31  1  0  0  0  0
 32 29  1  0  0  0  0
 33 32  1  0  0  0  0
 34 35  1  0  0  0  0
 36 40  1  0  0  0  0
 37 41  1  0  0  0  0
 38 39  2  0  0  0  0
 38 40  1  0  0  0  0
 39 42  1  0  0  0  0
 40 37  2  0  0  0  0
 42 43  1  0  0  0  0
 42 41  2  0  0  0  0
 45 46  1  0  0  0  0
 46 44  1  0  0  0  0
 46 53  1  0  0  0  0
 47 43  1  0  0  0  0
 47 48  1  0  0  0  0
 47 44  1  0  0  0  0
 48 44  1  0  0  0  0
 49 45  2  0  0  0  0
 49 48  1  0  0  0  0
 53 51  1  0  0  0  0
 53 52  1  0  0  0  0
 53 50  1  0  0  0  0
M  END
>  <MODEL>
4

>  <REMARK>
 VINA RESULT:      -8.1      3.434      7.909
  Name = 
  15 active torsions:
  status: ('A' for Active; 'I' for Inactive)
    1  A    between atoms: C_2  and  C_20
    2  A    between atoms: C_2  and  C_51
    3  A    between atoms: C_8  and  C_28
    4  A    between atoms: C_8  and  O_45
    5  A    between atoms: C_9  and  C_20
    6  A    between atoms: N_11  and  C_13
    7  A    between atoms: C_12  and  O_45
    8  A    between atoms: C_17  and  C_53
    9  A    between atoms: C_20  and  C_53
   10  A    between atoms: C_21  and  C_30
   11  A    between atoms: C_21  and  C_48
   12  A    between atoms: N_26  and  C_34
   13  A    between atoms: C_28  and  C_34
   14  A    between atoms: C_35  and  C_40
   15  A    between atoms: C_37  and  C_38
                            x       y       z     vdW  Elec       q    Type
                         _______ _______ _______ _____ _____    ______ ____

>  <TORSDO>
F 15

$$$$
=
 OpenBabel10222416503D

 53 58  0  0  1  0  0  0  0  0999 V2000
  187.8860  177.4980  144.5800 C   0  0  2  0  0  3  0  0  0  0  0  0
  189.0350  178.0080  148.1940 C   0  0  0  0  0  2  0  0  0  0  0  0
  190.5640  175.2080  147.7180 C   0  0  0  0  0  1  0  0  0  0  0  0
  188.8280  177.6160  145.7520 C   0  0  0  0  0  0  0  0  0  0  0  0
  189.7910  176.6830  145.8800 C   0  0  0  0  0  3  0  0  0  0  0  0
  190.4490  177.6360  148.0930 N   0  0  0  0  0  2  0  0  0  0  0  0
  192.1240  176.7520  146.6010 C   0  0  0  0  0  1  0  0  0  0  0  0
  190.6940  176.5860  147.0910 C   0  0  0  0  0  0  0  0  0  0  0  0
  188.5800  178.6030  146.8690 C   0  0  0  0  0  2  0  0  0  0  0  0
  186.4160  177.4450  144.9250 C   0  0  0  0  0  0  0  0  0  0  0  0
  186.0060  176.6570  145.8200 O   0  0  0  0  0  0  0  0  0  0  0  0
  183.2040  179.0700  144.8530 C   0  0  0  0  0  3  0  0  0  0  0  0
  182.4530  178.8310  143.7830 C   0  0  0  0  0  0  0  0  0  0  0  0
  185.2480  177.9510  142.9070 N   0  0  0  0  0  0  0  0  0  0  0  0
  184.2260  178.4460  142.0220 C   0  0  0  0  0  3  0  0  0  0  0  0
  185.1370  179.7740  146.0320 O   0  0  0  0  0  1  0  0  0  0  0  0
  182.9910  178.8150  142.4010 C   0  0  0  0  0  3  0  0  0  0  0  0
  184.6570  179.3840  144.7730 C   0  0  1  0  0  3  0  0  0  0  0  0
  185.4380  178.2510  144.1570 C   0  0  0  0  0  0  0  0  0  0  0  0
  181.0900  178.6300  144.0040 O   0  0  0  0  0  0  0  0  0  0  0  0
  180.0870  179.2580  143.2120 C   0  0  0  0  0  2  0  0  0  0  0  0
  179.5200  178.2370  142.2490 C   0  0  0  0  0  2  0  0  0  0  0  0
  178.9310  178.9490  141.0410 C   0  0  0  0  0  2  0  0  0  0  0  0
  180.6810  178.2610  139.5660 N   0  0  0  0  0  0  0  0  0  0  0  0
  181.2350  180.8200  138.7550 C   0  0  0  0  0  0  0  0  0  0  0  0
  181.9640  179.7470  138.2340 C   0  0  0  0  0  3  0  0  0  0  0  0
  179.9780  179.2710  140.0740 N   0  0  0  0  0  0  0  0  0  0  0  0
  180.2200  180.5610  139.6840 C   0  0  0  0  0  0  0  0  0  0  0  0
  181.6770  178.4530  138.6570 C   0  0  0  0  0  0  0  0  0  0  0  0
  179.5360  181.5120  140.1450 O   0  0  0  0  0  0  0  0  0  0  0  0
  181.4390  176.4620  137.2070 C   0  0  0  0  0  1  0  0  0  0  0  0
  182.4040  177.2920  138.0390 C   0  0  0  0  0  3  0  0  0  0  0  0
  183.0530  176.4180  139.0970 C   0  0  0  0  0  1  0  0  0  0  0  0
  181.5160  182.1670  138.3450 N   0  0  0  0  0  2  0  0  0  0  0  0
  180.9080  182.7880  137.1770 C   0  0  0  0  0  1  0  0  0  0  0  0
  188.3200  176.3710  143.6360 C   0  0  0  0  0  2  0  0  0  0  0  0
  187.9370  177.8160  141.6330 C   0  0  0  0  0  3  0  0  0  0  0  0
  189.8870  176.3770  141.6370 C   0  0  0  0  0  3  0  0  0  0  0  0
  190.2380  176.8370  140.3650 C   0  0  0  0  0  3  0  0  0  0  0  0
  188.7490  176.8830  142.2910 C   0  0  0  0  0  0  0  0  0  0  0  0
  188.2710  178.2580  140.3380 C   0  0  0  0  0  3  0  0  0  0  0  0
  189.4340  177.7790  139.7150 C   0  0  0  0  0  0  0  0  0  0  0  0
  189.8070  178.2580  138.3490 C   0  0  0  0  0  2  0  0  0  0  0  0
  187.8840  177.7780  136.8770 N   0  0  1  0  0  0  0  0  0  0  0  0
  187.9530  176.3780  134.9450 C   0  0  0  0  0  3  0  0  0  0  0  0
  187.2100  176.6530  136.2080 C   0  0  2  0  0  3  0  0  0  0  0  0
  189.2380  177.3330  137.2890 C   0  0  1  0  0  3  0  0  0  0  0  0
  189.0620  178.0880  136.0390 C   0  0  1  0  0  3  0  0  0  0  0  0
  188.9920  177.1740  134.8570 C   0  0  0  0  0  3  0  0  0  0  0  0
  184.9530  175.8580  136.0230 F   0  0  0  0  0  0  0  0  0  0  0  0
  185.5750  177.5760  134.6810 F   0  0  0  0  0  0  0  0  0  0  0  0
  185.2950  177.8780  136.9180 F   0  0  0  0  0  0  0  0  0  0  0  0
  185.7380  176.9920  135.9350 C   0  0  0  0  0  0  0  0  0  0  0  0
  1 36  1  1  0  0  0
  1 10  1  0  0  0  0
  1  4  1  0  0  0  0
  4  5  2  0  0  0  0
  4  9  1  0  0  0  0
  5  8  1  0  0  0  0
  6  2  1  0  0  0  0
  7  8  1  0  0  0  0
  8  3  1  0  0  0  0
  8  6  1  0  0  0  0
  9  2  1  0  0  0  0
 10 11  2  0  0  0  0
 13 20  1  0  0  0  0
 13 12  2  0  0  0  0
 14 19  2  0  0  0  0
 15 17  2  0  0  0  0
 15 14  1  0  0  0  0
 17 13  1  0  0  0  0
 18 12  1  0  0  0  0
 18 16  1  1  0  0  0
 19 18  1  0  0  0  0
 19 10  1  0  0  0  0
 21 20  1  0  0  0  0
 22 21  1  0  0  0  0
 23 22  1  0  0  0  0
 24 27  1  0  0  0  0
 25 28  1  0  0  0  0
 26 29  1  0  0  0  0
 26 25  2  0  0  0  0
 27 23  1  0  0  0  0
 28 27  1  0  0  0  0
 28 30  2  0  0  0  0
 29 24  2  0  0  0  0
 31 32  1  0  0  0  0
 32 29  1  0  0  0  0
 32 33  1  0  0  0  0
 34 25  1  0  0  0  0
 35 34  1  0  0  0  0
 37 40  1  0  0  0  0
 38 40  2  0  0  0  0
 39 38  1  0  0  0  0
 40 36  1  0  0  0  0
 41 37  2  0  0  0  0
 42 41  1  0  0  0  0
 42 39  2  0  0  0  0
 43 42  1  0  0  0  0
 44 47  1  0  0  0  0
 45 46  1  0  0  0  0
 46 44  1  0  0  0  0
 47 43  1  0  0  0  0
 48 44  1  0  0  0  0
 48 47  1  0  0  0  0
 49 45  2  0  0  0  0
 49 48  1  0  0  0  0
 51 53  1  0  0  0  0
 53 50  1  0  0  0  0
 53 46  1  0  0  0  0
 53 52  1  0  0  0  0
M  END
>  <MODEL>
5

>  <REMARK>
 VINA RESULT:      -7.9      4.048      8.260
  Name = 
  15 active torsions:
  status: ('A' for Active; 'I' for Inactive)
    1  A    between atoms: C_2  and  C_20
    2  A    between atoms: C_2  and  C_51
    3  A    between atoms: C_8  and  C_28
    4  A    between atoms: C_8  and  O_45
    5  A    between atoms: C_9  and  C_20
    6  A    between atoms: N_11  and  C_13
    7  A    between atoms: C_12  and  O_45
    8  A    between atoms: C_17  and  C_53
    9  A    between atoms: C_20  and  C_53
   10  A    between atoms: C_21  and  C_30
   11  A    between atoms: C_21  and  C_48
   12  A    between atoms: N_26  and  C_34
   13  A    between atoms: C_28  and  C_34
   14  A    between atoms: C_35  and  C_40
   15  A    between atoms: C_37  and  C_38
                            x       y       z     vdW  Elec       q    Type
                         _______ _______ _______ _____ _____    ______ ____

>  <TORSDO>
F 15

$$$$
=
 OpenBabel10222416503D

 53 58  0  0  1  0  0  0  0  0999 V2000
  182.7830  174.7020  136.8650 C   0  0  2  0  0  3  0  0  0  0  0  0
  179.6090  172.8670  137.9610 C   0  0  0  0  0  2  0  0  0  0  0  0
  180.2240  174.2600  140.8040 C   0  0  0  0  0  1  0  0  0  0  0  0
  181.4100  174.4980  137.4570 C   0  0  0  0  0  0  0  0  0  0  0  0
  181.1510  175.0650  138.6490 C   0  0  0  0  0  3  0  0  0  0  0  0
  178.9360  173.9120  138.7390 N   0  0  0  0  0  2  0  0  0  0  0  0
  179.1820  176.1460  139.6120 C   0  0  0  0  0  1  0  0  0  0  0  0
  179.8800  174.8070  139.4300 C   0  0  0  0  0  0  0  0  0  0  0  0
  180.4300  173.5180  136.8560 C   0  0  0  0  0  2  0  0  0  0  0  0
  182.9470  175.9280  135.9980 C   0  0  0  0  0  0  0  0  0  0  0  0
  182.8540  175.8310  134.7440 O   0  0  0  0  0  0  0  0  0  0  0  0
  185.2850  177.8310  137.9680 C   0  0  0  0  0  3  0  0  0  0  0  0
  184.7630  178.5610  138.9490 C   0  0  0  0  0  0  0  0  0  0  0  0
  182.3550  177.9170  137.1750 N   0  0  0  0  0  0  0  0  0  0  0  0
  182.4820  179.0940  137.9950 C   0  0  0  0  0  3  0  0  0  0  0  0
  185.5700  177.0860  135.7350 O   0  0  0  0  0  1  0  0  0  0  0  0
  183.5290  179.3700  138.7900 C   0  0  0  0  0  3  0  0  0  0  0  0
  184.7070  177.7780  136.5970 C   0  0  1  0  0  3  0  0  0  0  0  0
  183.3010  177.2320  136.6060 C   0  0  0  0  0  0  0  0  0  0  0  0
  185.4560  178.5760  140.1590 O   0  0  0  0  0  0  0  0  0  0  0  0
  184.8510  178.9830  141.3820 C   0  0  0  0  0  2  0  0  0  0  0  0
  185.4310  178.1560  142.5090 C   0  0  0  0  0  2  0  0  0  0  0  0
  186.9060  177.8970  142.2430 C   0  0  0  0  0  2  0  0  0  0  0  0
  186.9440  177.8610  144.6310 N   0  0  0  0  0  0  0  0  0  0  0  0
  189.6230  177.2880  144.7500 C   0  0  0  0  0  0  0  0  0  0  0  0
  188.8840  177.4290  145.9280 C   0  0  0  0  0  3  0  0  0  0  0  0
  187.6330  177.7320  143.4990 N   0  0  0  0  0  0  0  0  0  0  0  0
  188.9690  177.4360  143.5200 C   0  0  0  0  0  0  0  0  0  0  0  0
  187.5260  177.7240  145.8550 C   0  0  0  0  0  0  0  0  0  0  0  0
  189.6120  177.2880  142.4480 O   0  0  0  0  0  0  0  0  0  0  0  0
  185.3210  178.3180  146.8070 C   0  0  0  0  0  1  0  0  0  0  0  0
  186.7140  177.7960  147.1180 C   0  0  0  0  0  3  0  0  0  0  0  0
  187.3770  178.6870  148.1530 C   0  0  0  0  0  1  0  0  0  0  0  0
  191.0270  176.9940  144.7940 N   0  0  0  0  0  2  0  0  0  0  0  0
  191.7090  176.5360  145.9960 C   0  0  0  0  0  1  0  0  0  0  0  0
  183.2880  173.4220  136.1910 C   0  0  0  0  0  2  0  0  0  0  0  0
  185.3460  172.7850  137.4600 C   0  0  0  0  0  3  0  0  0  0  0  0
  185.6260  173.7210  135.2420 C   0  0  0  0  0  3  0  0  0  0  0  0
  187.0140  173.6200  135.3670 C   0  0  0  0  0  3  0  0  0  0  0  0
  184.7820  173.2790  136.2770 C   0  0  0  0  0  0  0  0  0  0  0  0
  186.7450  172.7130  137.6010 C   0  0  0  0  0  3  0  0  0  0  0  0
  187.5760  173.1140  136.5430 C   0  0  0  0  0  0  0  0  0  0  0  0
  189.0620  173.0200  136.6760 C   0  0  0  0  0  2  0  0  0  0  0  0
  189.5050  175.2050  137.7400 N   0  0  1  0  0  0  0  0  0  0  0  0
  191.1650  176.7640  137.0270 C   0  0  0  0  0  3  0  0  0  0  0  0
  189.7280  176.6180  137.3950 C   0  0  2  0  0  3  0  0  0  0  0  0
  189.6960  174.3900  136.5140 C   0  0  1  0  0  3  0  0  0  0  0  0
  190.7940  174.5270  137.4830 C   0  0  1  0  0  3  0  0  0  0  0  0
  191.7560  175.5930  137.0670 C   0  0  0  0  0  3  0  0  0  0  0  0
  190.4710  177.8280  139.3310 F   0  0  0  0  0  0  0  0  0  0  0  0
  188.3910  176.9300  139.3890 F   0  0  0  0  0  0  0  0  0  0  0  0
  188.8550  178.7280  138.0760 F   0  0  0  0  0  0  0  0  0  0  0  0
  189.3540  177.5250  138.5760 C   0  0  0  0  0  0  0  0  0  0  0  0
  1 36  1  6  0  0  0
  1  4  1  0  0  0  0
  2  6  1  0  0  0  0
  4  5  2  0  0  0  0
  5  8  1  0  0  0  0
  6  8  1  0  0  0  0
  8  7  1  0  0  0  0
  8  3  1  0  0  0  0
  9  4  1  0  0  0  0
  9  2  1  0  0  0  0
 10 19  1  0  0  0  0
 10  1  1  0  0  0  0
 11 10  2  0  0  0  0
 12 13  2  0  0  0  0
 13 20  1  0  0  0  0
 14 15  1  0  0  0  0
 15 17  2  0  0  0  0
 17 13  1  0  0  0  0
 18 16  1  6  0  0  0
 18 19  1  0  0  0  0
 18 12  1  0  0  0  0
 19 14  2  0  0  0  0
 20 21  1  0  0  0  0
 21 22  1  0  0  0  0
 23 22  1  0  0  0  0
 23 27  1  0  0  0  0
 24 29  2  0  0  0  0
 25 34  1  0  0  0  0
 25 26  2  0  0  0  0
 27 28  1  0  0  0  0
 27 24  1  0  0  0  0
 28 25  1  0  0  0  0
 29 26  1  0  0  0  0
 29 32  1  0  0  0  0
 30 28  2  0  0  0  0
 31 32  1  0  0  0  0
 32 33  1  0  0  0  0
 34 35  1  0  0  0  0
 36 40  1  0  0  0  0
 37 41  1  0  0  0  0
 38 39  2  0  0  0  0
 38 40  1  0  0  0  0
 39 42  1  0  0  0  0
 40 37  2  0  0  0  0
 42 43  1  0  0  0  0
 42 41  2  0  0  0  0
 45 49  2  0  0  0  0
 45 46  1  0  0  0  0
 46 44  1  0  0  0  0
 46 53  1  0  0  0  0
 47 43  1  0  0  0  0
 47 48  1  0  0  0  0
 47 44  1  0  0  0  0
 48 44  1  0  0  0  0
 49 48  1  0  0  0  0
 52 53  1  0  0  0  0
 53 50  1  0  0  0  0
 53 51  1  0  0  0  0
M  END
>  <MODEL>
6

>  <REMARK>
 VINA RESULT:      -7.7      3.311      8.445
  Name = 
  15 active torsions:
  status: ('A' for Active; 'I' for Inactive)
    1  A    between atoms: C_2  and  C_20
    2  A    between atoms: C_2  and  C_51
    3  A    between atoms: C_8  and  C_28
    4  A    between atoms: C_8  and  O_45
    5  A    between atoms: C_9  and  C_20
    6  A    between atoms: N_11  and  C_13
    7  A    between atoms: C_12  and  O_45
    8  A    between atoms: C_17  and  C_53
    9  A    between atoms: C_20  and  C_53
   10  A    between atoms: C_21  and  C_30
   11  A    between atoms: C_21  and  C_48
   12  A    between atoms: N_26  and  C_34
   13  A    between atoms: C_28  and  C_34
   14  A    between atoms: C_35  and  C_40
   15  A    between atoms: C_37  and  C_38
                            x       y       z     vdW  Elec       q    Type
                         _______ _______ _______ _____ _____    ______ ____

>  <TORSDO>
F 15

$$$$
=
 OpenBabel10222416503D

 53 58  0  0  1  0  0  0  0  0999 V2000
  189.5960  177.1030  138.7030 C   0  0  2  0  0  3  0  0  0  0  0  0
  193.2730  176.8900  139.7430 C   0  0  0  0  0  2  0  0  0  0  0  0
  193.3290  174.4000  137.6940 C   0  0  0  0  0  1  0  0  0  0  0  0
  191.0960  177.0340  138.5590 C   0  0  0  0  0  0  0  0  0  0  0  0
  191.6000  176.1780  137.6510 C   0  0  0  0  0  3  0  0  0  0  0  0
  193.9170  176.6660  138.4460 N   0  0  0  0  0  2  0  0  0  0  0  0
  193.4900  176.2740  136.1060 C   0  0  0  0  0  1  0  0  0  0  0  0
  193.0800  175.8880  137.5170 C   0  0  0  0  0  0  0  0  0  0  0  0
  192.0160  177.7260  139.5380 C   0  0  0  0  0  2  0  0  0  0  0  0
  188.8160  177.1690  137.4110 C   0  0  0  0  0  0  0  0  0  0  0  0
  188.7410  178.2550  136.7740 O   0  0  0  0  0  0  0  0  0  0  0  0
  185.6240  175.7120  136.6020 C   0  0  0  0  0  3  0  0  0  0  0  0
  185.3900  174.5040  137.1050 C   0  0  0  0  0  0  0  0  0  0  0  0
  188.4210  174.8160  137.3730 N   0  0  0  0  0  0  0  0  0  0  0  0
  187.7340  173.5610  137.2130 C   0  0  0  0  0  3  0  0  0  0  0  0
  186.8030  177.3530  135.3610 O   0  0  0  0  0  1  0  0  0  0  0  0
  186.4020  173.4190  137.1140 C   0  0  0  0  0  3  0  0  0  0  0  0
  186.9150  176.0910  135.9620 C   0  0  1  0  0  3  0  0  0  0  0  0
  188.0670  175.9850  136.9280 C   0  0  0  0  0  0  0  0  0  0  0  0
  184.1090  174.2670  137.6010 O   0  0  0  0  0  0  0  0  0  0  0  0
  183.1040  175.2760  137.6350 C   0  0  0  0  0  2  0  0  0  0  0  0
  182.9730  175.7820  139.0550 C   0  0  0  0  0  2  0  0  0  0  0  0
  182.4410  177.2070  139.0400 C   0  0  0  0  0  2  0  0  0  0  0  0
  183.6760  177.9780  140.9350 N   0  0  0  0  0  0  0  0  0  0  0  0
  181.4230  178.6820  142.3300 C   0  0  0  0  0  0  0  0  0  0  0  0
  182.6860  178.8770  142.8960 C   0  0  0  0  0  3  0  0  0  0  0  0
  182.4800  177.7840  140.3820 N   0  0  0  0  0  0  0  0  0  0  0  0
  181.3350  178.1340  141.0450 C   0  0  0  0  0  0  0  0  0  0  0  0
  183.8220  178.5100  142.1810 C   0  0  0  0  0  0  0  0  0  0  0  0
  180.2070  177.9750  140.5080 O   0  0  0  0  0  0  0  0  0  0  0  0
  185.9430  179.7370  141.8370 C   0  0  0  0  0  1  0  0  0  0  0  0
  185.1820  178.7930  142.7540 C   0  0  0  0  0  3  0  0  0  0  0  0
  185.9780  177.5140  142.9480 C   0  0  0  0  0  1  0  0  0  0  0  0
  180.2330  179.0410  143.0480 N   0  0  0  0  0  2  0  0  0  0  0  0
  179.4850  180.2630  142.7920 C   0  0  0  0  0  1  0  0  0  0  0  0
  189.1890  178.1920  139.7020 C   0  0  0  0  0  2  0  0  0  0  0  0
  189.5340  176.4260  141.4370 C   0  0  0  0  0  3  0  0  0  0  0  0
  189.5090  178.7380  142.1630 C   0  0  0  0  0  3  0  0  0  0  0  0
  189.7050  178.3320  143.4860 C   0  0  0  0  0  3  0  0  0  0  0  0
  189.4490  177.7890  141.1270 C   0  0  0  0  0  0  0  0  0  0  0  0
  189.6990  176.0130  142.7740 C   0  0  0  0  0  3  0  0  0  0  0  0
  189.8030  176.9720  143.7940 C   0  0  0  0  0  0  0  0  0  0  0  0
  190.0010  176.5440  145.2120 C   0  0  0  0  0  2  0  0  0  0  0  0
  187.8570  177.3220  146.1610 N   0  0  1  0  0  0  0  0  0  0  0  0
  187.6300  178.6160  148.1540 C   0  0  0  0  0  3  0  0  0  0  0  0
  187.2280  178.5290  146.7210 C   0  0  2  0  0  3  0  0  0  0  0  0
  189.3280  177.5210  146.1590 C   0  0  1  0  0  3  0  0  0  0  0  0
  188.6900  176.7690  147.2500 C   0  0  1  0  0  3  0  0  0  0  0  0
  188.4550  177.6370  148.4450 C   0  0  0  0  0  3  0  0  0  0  0  0
  185.2530  179.4520  145.7150 F   0  0  0  0  0  0  0  0  0  0  0  0
  185.0600  178.5790  147.7980 F   0  0  0  0  0  0  0  0  0  0  0  0
  185.3660  177.2360  145.9870 F   0  0  0  0  0  0  0  0  0  0  0  0
  185.7020  178.4600  146.5670 C   0  0  0  0  0  0  0  0  0  0  0  0
  1 36  1  1  0  0  0
  4  1  1  0  0  0  0
  4  9  1  0  0  0  0
  5  4  2  0  0  0  0
  6  2  1  0  0  0  0
  7  8  1  0  0  0  0
  8  5  1  0  0  0  0
  8  3  1  0  0  0  0
  8  6  1  0  0  0  0
  9  2  1  0  0  0  0
 10  1  1  0  0  0  0
 11 10  2  0  0  0  0
 12 13  2  0  0  0  0
 13 17  1  0  0  0  0
 13 20  1  0  0  0  0
 15 14  1  0  0  0  0
 17 15  2  0  0  0  0
 18 16  1  1  0  0  0
 18 12  1  0  0  0  0
 18 19  1  0  0  0  0
 19 14  2  0  0  0  0
 19 10  1  0  0  0  0
 20 21  1  0  0  0  0
 21 22  1  0  0  0  0
 23 22  1  0  0  0  0
 23 27  1  0  0  0  0
 24 29  2  0  0  0  0
 25 26  2  0  0  0  0
 25 34  1  0  0  0  0
 27 24  1  0  0  0  0
 27 28  1  0  0  0  0
 28 25  1  0  0  0  0
 29 32  1  0  0  0  0
 29 26  1  0  0  0  0
 30 28  2  0  0  0  0
 31 32  1  0  0  0  0
 32 33  1  0  0  0  0
 35 34  1  0  0  0  0
 36 40  1  0  0  0  0
 37 41  1  0  0  0  0
 38 39  2  0  0  0  0
 39 42  1  0  0  0  0
 40 37  2  0  0  0  0
 40 38  1  0  0  0  0
 41 42  2  0  0  0  0
 42 43  1  0  0  0  0
 43 47  1  0  0  0  0
 44 46  1  0  0  0  0
 44 48  1  0  0  0  0
 45 49  2  0  0  0  0
 46 45  1  0  0  0  0
 47 44  1  0  0  0  0
 47 48  1  0  0  0  0
 48 49  1  0  0  0  0
 50 53  1  0  0  0  0
 52 53  1  0  0  0  0
 53 46  1  0  0  0  0
 53 51  1  0  0  0  0
M  END
>  <MODEL>
7

>  <REMARK>
 VINA RESULT:      -7.6      1.796      2.470
  Name = 
  15 active torsions:
  status: ('A' for Active; 'I' for Inactive)
    1  A    between atoms: C_2  and  C_20
    2  A    between atoms: C_2  and  C_51
    3  A    between atoms: C_8  and  C_28
    4  A    between atoms: C_8  and  O_45
    5  A    between atoms: C_9  and  C_20
    6  A    between atoms: N_11  and  C_13
    7  A    between atoms: C_12  and  O_45
    8  A    between atoms: C_17  and  C_53
    9  A    between atoms: C_20  and  C_53
   10  A    between atoms: C_21  and  C_30
   11  A    between atoms: C_21  and  C_48
   12  A    between atoms: N_26  and  C_34
   13  A    between atoms: C_28  and  C_34
   14  A    between atoms: C_35  and  C_40
   15  A    between atoms: C_37  and  C_38
                            x       y       z     vdW  Elec       q    Type
                         _______ _______ _______ _____ _____    ______ ____

>  <TORSDO>
F 15

$$$$
=
 OpenBabel10222416503D

 53 58  0  0  1  0  0  0  0  0999 V2000
  182.7470  174.8020  136.8930 C   0  0  2  0  0  3  0  0  0  0  0  0
  179.6340  172.8650  137.9890 C   0  0  0  0  0  2  0  0  0  0  0  0
  180.2150  174.2620  140.8370 C   0  0  0  0  0  1  0  0  0  0  0  0
  181.3830  174.5530  137.4870 C   0  0  0  0  0  0  0  0  0  0  0  0
  181.1090  175.1060  138.6840 C   0  0  0  0  0  3  0  0  0  0  0  0
  178.9320  173.8850  138.7740 N   0  0  0  0  0  2  0  0  0  0  0  0
  179.1120  176.1210  139.6580 C   0  0  0  0  0  1  0  0  0  0  0  0
  179.8490  174.8050  139.4670 C   0  0  0  0  0  0  0  0  0  0  0  0
  180.4310  173.5460  136.8850 C   0  0  0  0  0  2  0  0  0  0  0  0
  182.9030  176.0990  136.1340 C   0  0  0  0  0  0  0  0  0  0  0  0
  182.3900  176.2260  134.9890 O   0  0  0  0  0  0  0  0  0  0  0  0
  186.1440  177.2000  137.2530 C   0  0  0  0  0  3  0  0  0  0  0  0
  186.1760  177.8230  138.4260 C   0  0  0  0  0  0  0  0  0  0  0  0
  183.2210  177.9210  137.6420 N   0  0  0  0  0  0  0  0  0  0  0  0
  183.8860  178.8950  138.4660 C   0  0  0  0  0  3  0  0  0  0  0  0
  185.4560  176.8220  135.0150 O   0  0  0  0  0  1  0  0  0  0  0  0
  185.1790  178.8450  138.8280 C   0  0  0  0  0  3  0  0  0  0  0  0
  185.1260  177.4880  136.2050 C   0  0  1  0  0  3  0  0  0  0  0  0
  183.7290  177.1960  136.6900 C   0  0  0  0  0  0  0  0  0  0  0  0
  187.2340  177.5070  139.2780 O   0  0  0  0  0  0  0  0  0  0  0  0
  188.4840  178.1880  139.2300 C   0  0  0  0  0  2  0  0  0  0  0  0
  188.9220  178.4960  140.6460 C   0  0  0  0  0  2  0  0  0  0  0  0
  189.0350  177.2010  141.4370 C   0  0  0  0  0  2  0  0  0  0  0  0
  187.1270  177.7200  142.7770 N   0  0  0  0  0  0  0  0  0  0  0  0
  188.4380  177.2290  145.1350 C   0  0  0  0  0  0  0  0  0  0  0  0
  187.0980  177.6280  145.1490 C   0  0  0  0  0  3  0  0  0  0  0  0
  188.4030  177.3430  142.7460 N   0  0  0  0  0  0  0  0  0  0  0  0
  189.0860  177.0790  143.9030 C   0  0  0  0  0  0  0  0  0  0  0  0
  186.4450  177.8790  143.9460 C   0  0  0  0  0  0  0  0  0  0  0  0
  190.2850  176.6950  143.8690 O   0  0  0  0  0  0  0  0  0  0  0  0
  184.6390  179.0390  142.7150 C   0  0  0  0  0  1  0  0  0  0  0  0
  184.9830  178.2290  143.9550 C   0  0  0  0  0  3  0  0  0  0  0  0
  184.6090  179.0130  145.2010 C   0  0  0  0  0  1  0  0  0  0  0  0
  189.1410  176.9730  146.3600 N   0  0  0  0  0  2  0  0  0  0  0  0
  189.0190  177.8160  147.5410 C   0  0  0  0  0  1  0  0  0  0  0  0
  183.2330  173.5840  136.1010 C   0  0  0  0  0  2  0  0  0  0  0  0
  185.2730  173.0340  137.4370 C   0  0  0  0  0  3  0  0  0  0  0  0
  185.5740  173.6570  135.1150 C   0  0  0  0  0  3  0  0  0  0  0  0
  186.9570  173.5150  135.2480 C   0  0  0  0  0  3  0  0  0  0  0  0
  184.7200  173.3920  136.2000 C   0  0  0  0  0  0  0  0  0  0  0  0
  186.6690  172.9220  137.5830 C   0  0  0  0  0  3  0  0  0  0  0  0
  187.5070  173.1450  136.4790 C   0  0  0  0  0  0  0  0  0  0  0  0
  188.9890  173.0070  136.6190 C   0  0  0  0  0  2  0  0  0  0  0  0
  191.0480  174.3620  136.7780 N   0  0  1  0  0  0  0  0  0  0  0  0
  191.1140  176.7110  137.1930 C   0  0  0  0  0  3  0  0  0  0  0  0
  191.6720  175.3960  137.6190 C   0  0  2  0  0  3  0  0  0  0  0  0
  189.6000  174.3120  137.0980 C   0  0  1  0  0  3  0  0  0  0  0  0
  190.0690  175.0770  135.9330 C   0  0  1  0  0  3  0  0  0  0  0  0
  190.2120  176.5300  136.2580 C   0  0  0  0  0  3  0  0  0  0  0  0
  193.8090  175.3910  138.7150 F   0  0  0  0  0  0  0  0  0  0  0  0
  193.6640  176.4180  136.6990 F   0  0  0  0  0  0  0  0  0  0  0  0
  193.5610  174.1520  136.8700 F   0  0  0  0  0  0  0  0  0  0  0  0
  193.2000  175.3570  137.4740 C   0  0  0  0  0  0  0  0  0  0  0  0
  1 36  1  6  0  0  0
  1  4  1  0  0  0  0
  2  6  1  0  0  0  0
  4  5  2  0  0  0  0
  5  8  1  0  0  0  0
  6  8  1  0  0  0  0
  8  7  1  0  0  0  0
  8  3  1  0  0  0  0
  9  4  1  0  0  0  0
  9  2  1  0  0  0  0
 10 19  1  0  0  0  0
 10  1  1  0  0  0  0
 11 10  2  0  0  0  0
 12 13  2  0  0  0  0
 13 17  1  0  0  0  0
 13 20  1  0  0  0  0
 14 15  1  0  0  0  0
 15 17  2  0  0  0  0
 18 16  1  6  0  0  0
 18 19  1  0  0  0  0
 18 12  1  0  0  0  0
 19 14  2  0  0  0  0
 21 20  1  0  0  0  0
 21 22  1  0  0  0  0
 22 23  1  0  0  0  0
 23 27  1  0  0  0  0
 24 29  2  0  0  0  0
 25 26  2  0  0  0  0
 25 34  1  0  0  0  0
 27 24  1  0  0  0  0
 27 28  1  0  0  0  0
 28 25  1  0  0  0  0
 29 32  1  0  0  0  0
 29 26  1  0  0  0  0
 30 28  2  0  0  0  0
 31 32  1  0  0  0  0
 32 33  1  0  0  0  0
 34 35  1  0  0  0  0
 36 40  1  0  0  0  0
 37 41  1  0  0  0  0
 38 39  2  0  0  0  0
 38 40  1  0  0  0  0
 39 42  1  0  0  0  0
 40 37  2  0  0  0  0
 42 43  1  0  0  0  0
 42 41  2  0  0  0  0
 43 47  1  0  0  0  0
 44 47  1  0  0  0  0
 44 46  1  0  0  0  0
 45 46  1  0  0  0  0
 48 49  1  0  0  0  0
 48 44  1  0  0  0  0
 48 47  1  0  0  0  0
 49 45  2  0  0  0  0
 51 53  1  0  0  0  0
 52 53  1  0  0  0  0
 53 46  1  0  0  0  0
 53 50  1  0  0  0  0
M  END
>  <MODEL>
8

>  <REMARK>
 VINA RESULT:      -7.6      3.731      8.600
  Name = 
  15 active torsions:
  status: ('A' for Active; 'I' for Inactive)
    1  A    between atoms: C_2  and  C_20
    2  A    between atoms: C_2  and  C_51
    3  A    between atoms: C_8  and  C_28
    4  A    between atoms: C_8  and  O_45
    5  A    between atoms: C_9  and  C_20
    6  A    between atoms: N_11  and  C_13
    7  A    between atoms: C_12  and  O_45
    8  A    between atoms: C_17  and  C_53
    9  A    between atoms: C_20  and  C_53
   10  A    between atoms: C_21  and  C_30
   11  A    between atoms: C_21  and  C_48
   12  A    between atoms: N_26  and  C_34
   13  A    between atoms: C_28  and  C_34
   14  A    between atoms: C_35  and  C_40
   15  A    between atoms: C_37  and  C_38
                            x       y       z     vdW  Elec       q    Type
                         _______ _______ _______ _____ _____    ______ ____

>  <TORSDO>
F 15

$$$$
=
 OpenBabel10222416503D

 53 58  0  0  1  0  0  0  0  0999 V2000
  183.2160  176.3960  138.4780 C   0  0  2  0  0  3  0  0  0  0  0  0
  180.1480  175.4870  140.5760 C   0  0  0  0  0  2  0  0  0  0  0  0
  180.6520  178.3820  141.9040 C   0  0  0  0  0  1  0  0  0  0  0  0
  181.8530  176.5350  139.1080 C   0  0  0  0  0  0  0  0  0  0  0  0
  181.5480  177.7090  139.6920 C   0  0  0  0  0  3  0  0  0  0  0  0
  179.4060  176.7510  140.5490 N   0  0  0  0  0  2  0  0  0  0  0  0
  179.5100  179.0490  139.8270 C   0  0  0  0  0  1  0  0  0  0  0  0
  180.2880  177.9300  140.5000 C   0  0  0  0  0  0  0  0  0  0  0  0
  180.9380  175.3450  139.2820 C   0  0  0  0  0  2  0  0  0  0  0  0
  183.8600  177.6840  138.0200 C   0  0  0  0  0  0  0  0  0  0  0  0
  183.5600  178.1750  136.8980 O   0  0  0  0  0  0  0  0  0  0  0  0
  187.3450  177.8830  138.9040 C   0  0  0  0  0  3  0  0  0  0  0  0
  187.6180  177.8900  140.2040 C   0  0  0  0  0  0  0  0  0  0  0  0
  184.6390  178.5720  140.0930 N   0  0  0  0  0  0  0  0  0  0  0  0
  185.5420  179.0010  141.1280 C   0  0  0  0  0  3  0  0  0  0  0  0
  186.3340  178.6360  136.8960 O   0  0  0  0  0  1  0  0  0  0  0  0
  186.8470  178.6870  141.1900 C   0  0  0  0  0  3  0  0  0  0  0  0
  186.2610  178.7020  138.2950 C   0  0  1  0  0  3  0  0  0  0  0  0
  184.9070  178.3310  138.8450 C   0  0  0  0  0  0  0  0  0  0  0  0
  188.7130  177.1330  140.6210 O   0  0  0  0  0  0  0  0  0  0  0  0
  189.9940  177.7090  140.8590 C   0  0  0  0  0  2  0  0  0  0  0  0
  190.2010  177.8280  142.3540 C   0  0  0  0  0  2  0  0  0  0  0  0
  189.6670  176.5820  143.0430 C   0  0  0  0  0  2  0  0  0  0  0  0
  188.8980  177.0670  145.2530 N   0  0  0  0  0  0  0  0  0  0  0  0
  191.2800  176.3690  146.4180 C   0  0  0  0  0  0  0  0  0  0  0  0
  190.2150  176.8090  147.2100 C   0  0  0  0  0  3  0  0  0  0  0  0
  189.9020  176.6510  144.4840 N   0  0  0  0  0  0  0  0  0  0  0  0
  191.1020  176.2840  145.0320 C   0  0  0  0  0  0  0  0  0  0  0  0
  189.0130  177.1650  146.6070 C   0  0  0  0  0  0  0  0  0  0  0  0
  192.0410  175.8650  144.3050 O   0  0  0  0  0  0  0  0  0  0  0  0
  186.7130  178.0770  146.5850 C   0  0  0  0  0  1  0  0  0  0  0  0
  187.8430  177.5610  147.4620 C   0  0  0  0  0  3  0  0  0  0  0  0
  188.2320  178.6240  148.4750 C   0  0  0  0  0  1  0  0  0  0  0  0
  192.5350  176.0040  147.0120 N   0  0  0  0  0  2  0  0  0  0  0  0
  192.7670  176.0020  148.4480 C   0  0  0  0  0  1  0  0  0  0  0  0
  183.2150  175.3110  137.3960 C   0  0  0  0  0  2  0  0  0  0  0  0
  184.7250  173.3310  137.6060 C   0  0  0  0  0  3  0  0  0  0  0  0
  185.6810  175.4030  136.7910 C   0  0  0  0  0  3  0  0  0  0  0  0
  186.9340  174.7930  136.6870 C   0  0  0  0  0  3  0  0  0  0  0  0
  184.5630  174.6690  137.2260 C   0  0  0  0  0  0  0  0  0  0  0  0
  185.9940  172.7230  137.5330 C   0  0  0  0  0  3  0  0  0  0  0  0
  187.0930  173.4530  137.0540 C   0  0  0  0  0  0  0  0  0  0  0  0
  188.4370  172.8090  136.9530 C   0  0  0  0  0  2  0  0  0  0  0  0
  190.5730  174.0280  137.1900 N   0  0  1  0  0  0  0  0  0  0  0  0
  191.8470  174.9240  135.3820 C   0  0  0  0  0  3  0  0  0  0  0  0
  191.2530  175.2430  136.7120 C   0  0  2  0  0  3  0  0  0  0  0  0
  189.4270  173.7500  136.2890 C   0  0  1  0  0  3  0  0  0  0  0  0
  190.7020  173.0450  136.0940 C   0  0  1  0  0  3  0  0  0  0  0  0
  191.5300  173.6990  135.0340 C   0  0  0  0  0  3  0  0  0  0  0  0
  191.7460  176.0480  138.9190 F   0  0  0  0  0  0  0  0  0  0  0  0
  193.0720  176.7560  137.2230 F   0  0  0  0  0  0  0  0  0  0  0  0
  193.1730  174.6110  137.9730 F   0  0  0  0  0  0  0  0  0  0  0  0
  192.3250  175.6890  137.7160 C   0  0  0  0  0  0  0  0  0  0  0  0
  1 36  1  6  0  0  0
  1  4  1  0  0  0  0
  4  9  1  0  0  0  0
  4  5  2  0  0  0  0
  5  8  1  0  0  0  0
  6  2  1  0  0  0  0
  7  8  1  0  0  0  0
  8  6  1  0  0  0  0
  8  3  1  0  0  0  0
  9  2  1  0  0  0  0
 10  1  1  0  0  0  0
 10 19  1  0  0  0  0
 11 10  2  0  0  0  0
 12 13  2  0  0  0  0
 13 20  1  0  0  0  0
 13 17  1  0  0  0  0
 14 15  1  0  0  0  0
 15 17  2  0  0  0  0
 18 16  1  6  0  0  0
 18 19  1  0  0  0  0
 18 12  1  0  0  0  0
 19 14  2  0  0  0  0
 20 21  1  0  0  0  0
 21 22  1  0  0  0  0
 22 23  1  0  0  0  0
 23 27  1  0  0  0  0
 24 29  2  0  0  0  0
 25 34  1  0  0  0  0
 25 26  2  0  0  0  0
 27 28  1  0  0  0  0
 27 24  1  0  0  0  0
 28 25  1  0  0  0  0
 29 26  1  0  0  0  0
 29 32  1  0  0  0  0
 30 28  2  0  0  0  0
 31 32  1  0  0  0  0
 32 33  1  0  0  0  0
 34 35  1  0  0  0  0
 38 40  1  0  0  0  0
 39 38  2  0  0  0  0
 39 42  1  0  0  0  0
 40 36  1  0  0  0  0
 40 37  2  0  0  0  0
 41 37  1  0  0  0  0
 42 41  2  0  0  0  0
 43 42  1  0  0  0  0
 45 46  1  0  0  0  0
 46 44  1  0  0  0  0
 46 53  1  0  0  0  0
 47 43  1  0  0  0  0
 47 44  1  0  0  0  0
 48 47  1  0  0  0  0
 48 44  1  0  0  0  0
 49 45  2  0  0  0  0
 49 48  1  0  0  0  0
 51 53  1  0  0  0  0
 53 52  1  0  0  0  0
 53 50  1  0  0  0  0
M  END
>  <MODEL>
9

>  <REMARK>
 VINA RESULT:      -7.5      3.429      9.425
  Name = 
  15 active torsions:
  status: ('A' for Active; 'I' for Inactive)
    1  A    between atoms: C_2  and  C_20
    2  A    between atoms: C_2  and  C_51
    3  A    between atoms: C_8  and  C_28
    4  A    between atoms: C_8  and  O_45
    5  A    between atoms: C_9  and  C_20
    6  A    between atoms: N_11  and  C_13
    7  A    between atoms: C_12  and  O_45
    8  A    between atoms: C_17  and  C_53
    9  A    between atoms: C_20  and  C_53
   10  A    between atoms: C_21  and  C_30
   11  A    between atoms: C_21  and  C_48
   12  A    between atoms: N_26  and  C_34
   13  A    between atoms: C_28  and  C_34
   14  A    between atoms: C_35  and  C_40
   15  A    between atoms: C_37  and  C_38
                            x       y       z     vdW  Elec       q    Type
                         _______ _______ _______ _____ _____    ______ ____

>  <TORSDO>
F 15

$$$$
