=
 OpenBabel10222415483D

 31 36  0  0  1  0  0  0  0  0999 V2000
  187.4800  177.1960  146.7760 C   0  0  0  0  0  3  0  0  0  0  0  0
  190.9770  176.4940  146.7120 O   0  0  0  0  0  0  0  0  0  0  0  0
  181.8810  178.8750  142.2670 C   0  0  0  0  0  0  0  0  0  0  0  0
  185.7070  178.5190  142.7140 C   0  0  1  0  0  3  0  0  0  0  0  0
  180.5870  179.3890  141.7670 C   0  0  0  0  0  0  0  0  0  0  0  0
  189.7670  177.7870  145.1400 C   0  0  0  0  0  3  0  0  0  0  0  0
  183.7320  177.8650  139.1470 C   0  0  2  0  0  3  0  0  0  0  0  0
  181.5640  179.2550  139.4690 C   0  0  0  0  0  2  0  0  0  0  0  0
  184.6850  179.4930  143.2810 C   0  0  1  0  0  3  0  0  0  0  0  0
  185.1120  177.9160  139.8210 C   0  0  2  0  0  3  0  0  0  0  0  0
  185.3450  179.2280  140.3850 N   0  0  2  0  0  0  0  0  0  0  0  0
  188.5880  178.2870  144.7610 C   0  0  0  0  0  3  0  0  0  0  0  0
  188.6590  176.6970  147.1540 C   0  0  0  0  0  3  0  0  0  0  0  0
  182.2670  179.0860  143.4910 N   0  0  0  0  0  0  0  0  0  0  0  0
  180.4380  179.5120  140.4410 C   0  0  0  0  0  3  0  0  0  0  0  0
  182.7710  178.2500  141.3360 N   0  0  0  0  0  0  0  0  0  0  0  0
  185.9220  178.8110  139.1960 O   0  0  0  0  0  0  0  0  0  0  0  0
  184.9340  178.2490  146.0040 C   0  0  0  0  0  2  0  0  0  0  0  0
  186.3410  179.0820  141.4410 C   0  0  0  0  0  2  0  0  0  0  0  0
  189.8660  176.9650  146.3560 C   0  0  0  0  0  0  0  0  0  0  0  0
  183.5850  178.6890  143.9830 C   0  0  2  0  0  3  0  0  0  0  0  0
  186.0800  179.3780  143.9100 C   0  0  1  0  0  3  0  0  0  0  0  0
  182.6430  178.3790  140.0490 C   0  0  0  0  0  0  0  0  0  0  0  0
  186.1660  178.5310  145.1680 C   0  0  0  0  0  0  0  0  0  0  0  0
  187.3570  178.0280  145.5510 C   0  0  0  0  0  0  0  0  0  0  0  0
  183.6760  178.9210  145.4750 C   0  0  0  0  0  2  0  0  0  0  0  0
  179.4550  179.7120  142.6640 C   0  0  0  0  0  0  0  0  0  0  0  0
  178.9310  178.7360  143.5590 N   0  0  0  0  0  1  0  0  0  0  0  0
  178.9310  180.8570  142.6380 O   0  0  0  0  0  0  0  0  0  0  0  0
  183.4490  176.5490  138.7770 O   0  0  0  0  0  0  0  0  0  0  0  0
  183.7780  176.4780  137.4220 C   0  0  0  0  0  1  0  0  0  0  0  0
  1 13  2  0  0  0  0
  3 14  2  0  0  0  0
  4 19  1  6  0  0  0
  4  9  1  0  0  0  0
  4 22  1  0  0  0  0
  5  3  1  0  0  0  0
  5 27  1  0  0  0  0
  6 20  1  0  0  0  0
  7 30  1  1  0  0  0
  7 10  1  0  0  0  0
  7 23  1  0  0  0  0
  8 23  1  0  0  0  0
  8 15  1  0  0  0  0
  9 22  1  0  0  0  0
  9 21  1  0  0  0  0
 10 11  1  0  0  0  0
 11 19  1  0  0  0  0
 12  6  2  0  0  0  0
 12 25  1  0  0  0  0
 14 21  1  0  0  0  0
 15  5  2  0  0  0  0
 16  3  1  0  0  0  0
 17 10  1  0  0  0  0
 17 11  1  0  0  0  0
 20  2  2  0  0  0  0
 20 13  1  0  0  0  0
 21 26  1  0  0  0  0
 22 24  1  0  0  0  0
 23 16  2  0  0  0  0
 24 25  2  0  0  0  0
 24 18  1  0  0  0  0
 25  1  1  0  0  0  0
 26 18  1  0  0  0  0
 27 28  1  0  0  0  0
 29 27  2  0  0  0  0
 31 30  1  0  0  0  0
M  END
>  <MODEL>
1

>  <REMARK>
 VINA RESULT:      -9.1      0.000      0.000
  Name = 
  2 active torsions:
  status: ('A' for Active; 'I' for Inactive)
    1  A    between atoms: O_3  and  C_11
    2  A    between atoms: C_6  and  C_7
                            x       y       z     vdW  Elec       q    Type
                         _______ _______ _______ _____ _____    ______ ____

>  <TORSDO>
F 2

$$$$
=
 OpenBabel10222415483D

 31 36  0  0  1  0  0  0  0  0999 V2000
  190.8910  175.8000  138.7030 C   0  0  0  0  0  3  0  0  0  0  0  0
  191.4980  175.6090  135.1920 O   0  0  0  0  0  0  0  0  0  0  0  0
  185.7770  178.0530  143.5270 C   0  0  0  0  0  0  0  0  0  0  0  0
  187.0350  178.0730  139.8690 C   0  0  1  0  0  3  0  0  0  0  0  0
  185.1340  178.5250  144.7720 C   0  0  0  0  0  0  0  0  0  0  0  0
  190.0890  177.1570  136.3000 C   0  0  0  0  0  3  0  0  0  0  0  0
  183.0530  178.3040  140.9380 C   0  0  2  0  0  3  0  0  0  0  0  0
  183.1990  179.2350  143.3570 C   0  0  0  0  0  2  0  0  0  0  0  0
  187.5770  178.6840  141.1530 C   0  0  1  0  0  3  0  0  0  0  0  0
  184.0330  178.3220  139.7550 C   0  0  2  0  0  3  0  0  0  0  0  0
  184.9720  179.4140  139.8980 N   0  0  2  0  0  0  0  0  0  0  0  0
  189.5840  177.5930  137.4570 C   0  0  0  0  0  3  0  0  0  0  0  0
  191.3960  175.3650  137.5460 C   0  0  0  0  0  3  0  0  0  0  0  0
  187.0680  177.9230  143.4370 N   0  0  0  0  0  0  0  0  0  0  0  0
  183.8970  179.0310  144.6800 C   0  0  0  0  0  3  0  0  0  0  0  0
  184.9590  177.8670  142.3660 N   0  0  0  0  0  0  0  0  0  0  0  0
  183.8930  179.4630  139.0300 O   0  0  0  0  0  0  0  0  0  0  0  0
  189.8340  176.7020  141.2040 C   0  0  0  0  0  2  0  0  0  0  0  0
  186.1580  179.0780  139.1200 C   0  0  0  0  0  2  0  0  0  0  0  0
  191.0220  176.0190  136.2820 C   0  0  0  0  0  0  0  0  0  0  0  0
  187.7410  177.5670  142.1890 C   0  0  2  0  0  3  0  0  0  0  0  0
  188.4720  178.5610  139.9130 C   0  0  1  0  0  3  0  0  0  0  0  0
  183.7650  178.3690  142.2620 C   0  0  0  0  0  0  0  0  0  0  0  0
  189.4340  177.3850  139.9120 C   0  0  0  0  0  0  0  0  0  0  0  0
  189.9470  176.9470  138.7430 C   0  0  0  0  0  0  0  0  0  0  0  0
  189.2150  177.3370  142.4410 C   0  0  0  0  0  2  0  0  0  0  0  0
  185.7790  178.4060  146.0990 C   0  0  0  0  0  0  0  0  0  0  0  0
  185.6460  179.4390  147.0720 N   0  0  0  0  0  1  0  0  0  0  0  0
  186.4680  177.3890  146.3820 O   0  0  0  0  0  0  0  0  0  0  0  0
  182.2820  177.1420  140.8800 O   0  0  0  0  0  0  0  0  0  0  0  0
  182.6940  176.4950  139.7130 C   0  0  0  0  0  1  0  0  0  0  0  0
  1 25  1  0  0  0  0
  2 20  2  0  0  0  0
  3  5  1  0  0  0  0
  4 19  1  6  0  0  0
  4 22  1  0  0  0  0
  4  9  1  0  0  0  0
  5 27  1  0  0  0  0
  6 12  2  0  0  0  0
  7 30  1  1  0  0  0
  7 23  1  0  0  0  0
  8 15  1  0  0  0  0
  9 21  1  0  0  0  0
 10 11  1  0  0  0  0
 10  7  1  0  0  0  0
 12 25  1  0  0  0  0
 13  1  2  0  0  0  0
 14  3  2  0  0  0  0
 15  5  2  0  0  0  0
 16  3  1  0  0  0  0
 17 10  1  0  0  0  0
 17 11  1  0  0  0  0
 18 26  1  0  0  0  0
 19 11  1  0  0  0  0
 20  6  1  0  0  0  0
 20 13  1  0  0  0  0
 21 26  1  0  0  0  0
 21 14  1  0  0  0  0
 22  9  1  0  0  0  0
 23 16  2  0  0  0  0
 23  8  1  0  0  0  0
 24 22  1  0  0  0  0
 24 18  1  0  0  0  0
 25 24  2  0  0  0  0
 27 29  2  0  0  0  0
 27 28  1  0  0  0  0
 31 30  1  0  0  0  0
M  END
>  <MODEL>
2

>  <REMARK>
 VINA RESULT:      -8.2      3.743      6.116
  Name = 
  2 active torsions:
  status: ('A' for Active; 'I' for Inactive)
    1  A    between atoms: O_3  and  C_11
    2  A    between atoms: C_6  and  C_7
                            x       y       z     vdW  Elec       q    Type
                         _______ _______ _______ _____ _____    ______ ____

>  <TORSDO>
F 2

$$$$
=
 OpenBabel10222415483D

 31 36  0  0  1  0  0  0  0  0999 V2000
  188.2500  177.1680  144.3470 C   0  0  0  0  0  3  0  0  0  0  0  0
  191.5590  176.3660  143.2830 O   0  0  0  0  0  0  0  0  0  0  0  0
  181.5270  178.5560  141.6310 C   0  0  0  0  0  0  0  0  0  0  0  0
  185.3050  178.1390  140.9140 C   0  0  1  0  0  3  0  0  0  0  0  0
  180.1400  179.0540  141.5030 C   0  0  0  0  0  0  0  0  0  0  0  0
  189.9190  177.5330  142.0360 C   0  0  0  0  0  3  0  0  0  0  0  0
  182.3290  177.1970  138.2120 C   0  0  2  0  0  3  0  0  0  0  0  0
  180.3610  178.6710  139.0430 C   0  0  0  0  0  2  0  0  0  0  0  0
  184.5050  179.1910  141.6670 C   0  0  1  0  0  3  0  0  0  0  0  0
  183.8490  177.2740  138.4200 C   0  0  2  0  0  3  0  0  0  0  0  0
  184.2400  178.6280  138.7510 N   0  0  2  0  0  0  0  0  0  0  0  0
  188.6780  178.0270  141.9900 C   0  0  0  0  0  3  0  0  0  0  0  0
  189.4890  176.6750  144.3930 C   0  0  0  0  0  3  0  0  0  0  0  0
  182.2710  178.8730  142.6490 N   0  0  0  0  0  0  0  0  0  0  0  0
  179.5880  179.0520  140.2820 C   0  0  0  0  0  3  0  0  0  0  0  0
  182.0890  177.8190  140.5390 N   0  0  0  0  0  0  0  0  0  0  0  0
  184.4230  178.0820  137.4900 O   0  0  0  0  0  0  0  0  0  0  0  0
  185.5860  178.2110  144.2930 C   0  0  0  0  0  2  0  0  0  0  0  0
  185.5140  178.5570  139.4580 C   0  0  0  0  0  2  0  0  0  0  0  0
  190.3910  176.8300  143.2400 C   0  0  0  0  0  0  0  0  0  0  0  0
  183.6780  178.4890  142.7500 C   0  0  2  0  0  3  0  0  0  0  0  0
  186.0260  179.0990  141.8450 C   0  0  1  0  0  3  0  0  0  0  0  0
  181.5690  177.8260  139.3480 C   0  0  0  0  0  0  0  0  0  0  0  0
  186.4980  178.3760  143.0940 C   0  0  0  0  0  0  0  0  0  0  0  0
  187.7520  177.8800  143.1420 C   0  0  0  0  0  0  0  0  0  0  0  0
  184.2230  178.8630  144.1100 C   0  0  0  0  0  2  0  0  0  0  0  0
  179.3390  179.4940  142.6680 C   0  0  0  0  0  0  0  0  0  0  0  0
  178.9320  178.5640  143.6680 N   0  0  0  0  0  1  0  0  0  0  0  0
  178.9940  180.7010  142.7820 O   0  0  0  0  0  0  0  0  0  0  0  0
  181.9500  175.8590  138.0810 O   0  0  0  0  0  0  0  0  0  0  0  0
  183.1120  175.1300  138.3410 C   0  0  0  0  0  1  0  0  0  0  0  0
  1 13  2  0  0  0  0
  3 14  2  0  0  0  0
  4 19  1  6  0  0  0
  4  9  1  0  0  0  0
  4 22  1  0  0  0  0
  5  3  1  0  0  0  0
  5 27  1  0  0  0  0
  6 20  1  0  0  0  0
  7 30  1  1  0  0  0
  7 10  1  0  0  0  0
  7 23  1  0  0  0  0
  8 23  1  0  0  0  0
  8 15  1  0  0  0  0
  9 22  1  0  0  0  0
  9 21  1  0  0  0  0
 10 11  1  0  0  0  0
 11 19  1  0  0  0  0
 12  6  2  0  0  0  0
 12 25  1  0  0  0  0
 14 21  1  0  0  0  0
 15  5  2  0  0  0  0
 16  3  1  0  0  0  0
 17 10  1  0  0  0  0
 17 11  1  0  0  0  0
 20  2  2  0  0  0  0
 20 13  1  0  0  0  0
 21 26  1  0  0  0  0
 22 24  1  0  0  0  0
 23 16  2  0  0  0  0
 24 25  2  0  0  0  0
 24 18  1  0  0  0  0
 25  1  1  0  0  0  0
 26 18  1  0  0  0  0
 27 29  2  0  0  0  0
 27 28  1  0  0  0  0
 30 31  1  0  0  0  0
M  END
>  <MODEL>
3

>  <REMARK>
 VINA RESULT:      -8.1      1.579      1.959
  Name = 
  2 active torsions:
  status: ('A' for Active; 'I' for Inactive)
    1  A    between atoms: O_3  and  C_11
    2  A    between atoms: C_6  and  C_7
                            x       y       z     vdW  Elec       q    Type
                         _______ _______ _______ _____ _____    ______ ____

>  <TORSDO>
F 2

$$$$
=
 OpenBabel10222415483D

 31 36  0  0  1  0  0  0  0  0999 V2000
  188.1210  177.1680  144.6930 C   0  0  0  0  0  3  0  0  0  0  0  0
  191.5960  176.4730  144.2830 O   0  0  0  0  0  0  0  0  0  0  0  0
  182.0170  178.4330  140.7380 C   0  0  0  0  0  0  0  0  0  0  0  0
  185.8730  178.1290  140.7660 C   0  0  1  0  0  3  0  0  0  0  0  0
  180.6670  178.8970  140.3500 C   0  0  0  0  0  0  0  0  0  0  0  0
  190.1960  177.6210  142.7580 C   0  0  0  0  0  3  0  0  0  0  0  0
  183.5090  177.1620  137.5220 C   0  0  2  0  0  3  0  0  0  0  0  0
  181.3740  178.5690  137.9740 C   0  0  0  0  0  2  0  0  0  0  0  0
  184.9110  179.1450  141.3630 C   0  0  1  0  0  3  0  0  0  0  0  0
  184.9560  177.2750  138.0240 C   0  0  2  0  0  3  0  0  0  0  0  0
  185.2360  178.6330  138.4440 N   0  0  2  0  0  0  0  0  0  0  0  0
  188.9740  178.0840  142.4770 C   0  0  0  0  0  3  0  0  0  0  0  0
  189.3420  176.7070  144.9730 C   0  0  0  0  0  3  0  0  0  0  0  0
  182.5390  178.7500  141.8860 N   0  0  0  0  0  0  0  0  0  0  0  0
  180.3640  178.9040  139.0450 C   0  0  0  0  0  3  0  0  0  0  0  0
  182.8020  177.7330  139.7670 N   0  0  0  0  0  0  0  0  0  0  0  0
  185.6760  178.1160  137.2360 O   0  0  0  0  0  0  0  0  0  0  0  0
  185.4890  178.1420  144.1350 C   0  0  0  0  0  2  0  0  0  0  0  0
  186.3490  178.5810  139.3850 C   0  0  0  0  0  2  0  0  0  0  0  0
  190.4460  176.9080  144.0200 C   0  0  0  0  0  0  0  0  0  0  0  0
  183.9100  178.4010  142.2540 C   0  0  2  0  0  3  0  0  0  0  0  0
  186.3700  179.0890  141.8330 C   0  0  1  0  0  3  0  0  0  0  0  0
  182.5240  177.7490  138.4980 C   0  0  0  0  0  0  0  0  0  0  0  0
  186.6120  178.3540  143.1400 C   0  0  0  0  0  0  0  0  0  0  0  0
  187.8470  177.8900  143.4240 C   0  0  0  0  0  0  0  0  0  0  0  0
  184.1690  178.7610  143.7000 C   0  0  0  0  0  2  0  0  0  0  0  0
  179.6430  179.2930  141.3410 C   0  0  0  0  0  0  0  0  0  0  0  0
  178.9310  178.3110  142.0890 N   0  0  0  0  0  1  0  0  0  0  0  0
  179.3760  180.5110  141.5280 O   0  0  0  0  0  0  0  0  0  0  0  0
  183.2020  175.8180  137.3010 O   0  0  0  0  0  0  0  0  0  0  0  0
  184.4270  175.1530  137.3770 C   0  0  0  0  0  1  0  0  0  0  0  0
  1 13  2  0  0  0  0
  3 14  2  0  0  0  0
  4 19  1  6  0  0  0
  4  9  1  0  0  0  0
  4 22  1  0  0  0  0
  5  3  1  0  0  0  0
  5 27  1  0  0  0  0
  6 20  1  0  0  0  0
  7 30  1  1  0  0  0
  7 10  1  0  0  0  0
  7 23  1  0  0  0  0
  8 23  1  0  0  0  0
  8 15  1  0  0  0  0
  9 22  1  0  0  0  0
  9 21  1  0  0  0  0
 10 11  1  0  0  0  0
 11 19  1  0  0  0  0
 12  6  2  0  0  0  0
 12 25  1  0  0  0  0
 14 21  1  0  0  0  0
 15  5  2  0  0  0  0
 16  3  1  0  0  0  0
 17 10  1  0  0  0  0
 17 11  1  0  0  0  0
 20  2  2  0  0  0  0
 20 13  1  0  0  0  0
 21 26  1  0  0  0  0
 22 24  1  0  0  0  0
 23 16  2  0  0  0  0
 24 25  2  0  0  0  0
 24 18  1  0  0  0  0
 25  1  1  0  0  0  0
 26 18  1  0  0  0  0
 27 29  2  0  0  0  0
 27 28  1  0  0  0  0
 30 31  1  0  0  0  0
M  END
>  <MODEL>
4

>  <REMARK>
 VINA RESULT:      -7.7      1.499      1.918
  Name = 
  2 active torsions:
  status: ('A' for Active; 'I' for Inactive)
    1  A    between atoms: O_3  and  C_11
    2  A    between atoms: C_6  and  C_7
                            x       y       z     vdW  Elec       q    Type
                         _______ _______ _______ _____ _____    ______ ____

>  <TORSDO>
F 2

$$$$
=
 OpenBabel10222415483D

 31 36  0  0  1  0  0  0  0  0999 V2000
  188.4870  177.4660  142.9170 C   0  0  0  0  0  3  0  0  0  0  0  0
  191.4860  176.8290  141.0920 O   0  0  0  0  0  0  0  0  0  0  0  0
  181.2320  178.3720  141.8950 C   0  0  0  0  0  0  0  0  0  0  0  0
  184.7440  178.1580  140.2880 C   0  0  1  0  0  3  0  0  0  0  0  0
  179.8260  178.7840  142.1010 C   0  0  0  0  0  0  0  0  0  0  0  0
  189.5210  177.8590  140.2650 C   0  0  0  0  0  3  0  0  0  0  0  0
  181.2710  176.9610  138.4040 C   0  0  2  0  0  3  0  0  0  0  0  0
  179.4700  178.3420  139.6660 C   0  0  0  0  0  2  0  0  0  0  0  0
  184.0830  179.1830  141.1980 C   0  0  1  0  0  3  0  0  0  0  0  0
  182.7870  177.1350  138.2360 C   0  0  2  0  0  3  0  0  0  0  0  0
  183.1590  178.5190  138.4410 N   0  0  2  0  0  0  0  0  0  0  0  0
  188.2770  178.2780  140.5140 C   0  0  0  0  0  3  0  0  0  0  0  0
  189.7300  177.0490  142.6670 C   0  0  0  0  0  3  0  0  0  0  0  0
  182.1780  178.7640  142.6970 N   0  0  0  0  0  0  0  0  0  0  0  0
  178.9970  178.7130  141.0510 C   0  0  0  0  0  3  0  0  0  0  0  0
  181.5600  177.6380  140.7110 N   0  0  0  0  0  0  0  0  0  0  0  0
  183.0670  177.9470  137.1820 O   0  0  0  0  0  0  0  0  0  0  0  0
  185.8270  178.3470  143.4960 C   0  0  0  0  0  2  0  0  0  0  0  0
  184.5670  178.5440  138.8190 C   0  0  0  0  0  2  0  0  0  0  0  0
  190.3150  177.2220  141.3270 C   0  0  0  0  0  0  0  0  0  0  0  0
  183.5890  178.4670  142.4590 C   0  0  2  0  0  3  0  0  0  0  0  0
  185.6050  179.1860  141.0020 C   0  0  1  0  0  3  0  0  0  0  0  0
  180.7690  177.5780  139.6810 C   0  0  0  0  0  0  0  0  0  0  0  0
  186.4110  178.5310  142.1090 C   0  0  0  0  0  0  0  0  0  0  0  0
  187.6680  178.1110  141.8580 C   0  0  0  0  0  0  0  0  0  0  0  0
  184.4220  178.9120  143.6410 C   0  0  0  0  0  2  0  0  0  0  0  0
  179.3030  179.2100  143.4180 C   0  0  0  0  0  0  0  0  0  0  0  0
  179.1970  178.2850  144.4970 N   0  0  0  0  0  1  0  0  0  0  0  0
  178.9310  180.4010  143.6000 O   0  0  0  0  0  0  0  0  0  0  0  0
  180.9590  175.6000  138.3890 O   0  0  0  0  0  0  0  0  0  0  0  0
  180.4360  175.3660  137.1160 C   0  0  0  0  0  1  0  0  0  0  0  0
  2 20  2  0  0  0  0
  3  5  1  0  0  0  0
  3 14  2  0  0  0  0
  4 19  1  6  0  0  0
  4 22  1  0  0  0  0
  4  9  1  0  0  0  0
  5 27  1  0  0  0  0
  6 12  2  0  0  0  0
  6 20  1  0  0  0  0
  7 30  1  1  0  0  0
  7 23  1  0  0  0  0
  8 23  1  0  0  0  0
  8 15  1  0  0  0  0
  9 21  1  0  0  0  0
 10  7  1  0  0  0  0
 10 11  1  0  0  0  0
 11 19  1  0  0  0  0
 12 25  1  0  0  0  0
 13  1  2  0  0  0  0
 15  5  2  0  0  0  0
 16  3  1  0  0  0  0
 17 10  1  0  0  0  0
 17 11  1  0  0  0  0
 18 26  1  0  0  0  0
 20 13  1  0  0  0  0
 21 14  1  0  0  0  0
 21 26  1  0  0  0  0
 22  9  1  0  0  0  0
 22 24  1  0  0  0  0
 23 16  2  0  0  0  0
 24 18  1  0  0  0  0
 25 24  2  0  0  0  0
 25  1  1  0  0  0  0
 27 29  2  0  0  0  0
 27 28  1  0  0  0  0
 31 30  1  0  0  0  0
M  END
>  <MODEL>
5

>  <REMARK>
 VINA RESULT:      -7.4      2.289      3.019
  Name = 
  2 active torsions:
  status: ('A' for Active; 'I' for Inactive)
    1  A    between atoms: O_3  and  C_11
    2  A    between atoms: C_6  and  C_7
                            x       y       z     vdW  Elec       q    Type
                         _______ _______ _______ _____ _____    ______ ____

>  <TORSDO>
F 2

$$$$
=
 OpenBabel10222415483D

 31 36  0  0  1  0  0  0  0  0999 V2000
  189.0280  176.6760  146.0700 C   0  0  0  0  0  3  0  0  0  0  0  0
  191.8950  175.7850  147.9970 O   0  0  0  0  0  0  0  0  0  0  0  0
  186.9220  177.7480  139.0760 C   0  0  0  0  0  0  0  0  0  0  0  0
  189.8520  177.2780  141.5580 C   0  0  1  0  0  3  0  0  0  0  0  0
  186.1730  178.2250  137.8940 C   0  0  0  0  0  0  0  0  0  0  0  0
  191.8910  176.8110  145.8630 C   0  0  0  0  0  3  0  0  0  0  0  0
  189.9510  176.0510  137.6170 C   0  0  2  0  0  3  0  0  0  0  0  0
  188.1700  177.5940  136.5280 C   0  0  0  0  0  2  0  0  0  0  0  0
  188.8440  178.3980  141.3480 C   0  0  1  0  0  3  0  0  0  0  0  0
  190.7670  176.1570  138.9140 C   0  0  2  0  0  3  0  0  0  0  0  0
  190.8670  177.5400  139.3320 N   0  0  2  0  0  0  0  0  0  0  0  0
  191.1720  177.2920  144.8450 C   0  0  0  0  0  3  0  0  0  0  0  0
  189.7470  176.1960  147.0880 C   0  0  0  0  0  3  0  0  0  0  0  0
  186.6410  178.1720  140.2730 N   0  0  0  0  0  0  0  0  0  0  0  0
  186.7560  178.0950  136.6940 C   0  0  0  0  0  3  0  0  0  0  0  0
  188.0620  176.9070  138.8670 N   0  0  0  0  0  0  0  0  0  0  0  0
  191.9080  176.8690  138.7110 O   0  0  0  0  0  0  0  0  0  0  0  0
  187.4480  177.6950  143.9140 C   0  0  0  0  0  2  0  0  0  0  0  0
  191.1320  177.5470  140.7660 C   0  0  0  0  0  2  0  0  0  0  0  0
  191.2180  176.2370  147.0390 C   0  0  0  0  0  0  0  0  0  0  0  0
  187.4330  177.8070  141.4470 C   0  0  2  0  0  3  0  0  0  0  0  0
  189.6710  178.3310  142.6380 C   0  0  1  0  0  3  0  0  0  0  0  0
  188.6430  176.7900  137.7110 C   0  0  0  0  0  0  0  0  0  0  0  0
  188.9610  177.7420  143.8440 C   0  0  0  0  0  0  0  0  0  0  0  0
  189.6880  177.2590  144.8740 C   0  0  0  0  0  0  0  0  0  0  0  0
  186.7670  178.3190  142.7040 C   0  0  0  0  0  2  0  0  0  0  0  0
  184.8030  178.7770  137.9860 C   0  0  0  0  0  0  0  0  0  0  0  0
  184.4740  179.7580  138.9660 N   0  0  0  0  0  1  0  0  0  0  0  0
  183.9010  178.3750  137.2020 O   0  0  0  0  0  0  0  0  0  0  0  0
  189.7090  174.7060  137.3350 O   0  0  0  0  0  0  0  0  0  0  0  0
  190.8290  174.2820  136.6180 C   0  0  0  0  0  1  0  0  0  0  0  0
  1 13  2  0  0  0  0
  3 14  2  0  0  0  0
  4 19  1  6  0  0  0
  4 22  1  0  0  0  0
  5 27  1  0  0  0  0
  5  3  1  0  0  0  0
  6 20  1  0  0  0  0
  7 30  1  1  0  0  0
  7 23  1  0  0  0  0
  7 10  1  0  0  0  0
  8 15  1  0  0  0  0
  8 23  1  0  0  0  0
  9 21  1  0  0  0  0
  9  4  1  0  0  0  0
  9 22  1  0  0  0  0
 10 11  1  0  0  0  0
 11 19  1  0  0  0  0
 12 25  1  0  0  0  0
 12  6  2  0  0  0  0
 14 21  1  0  0  0  0
 15  5  2  0  0  0  0
 16  3  1  0  0  0  0
 17 10  1  0  0  0  0
 17 11  1  0  0  0  0
 20 13  1  0  0  0  0
 20  2  2  0  0  0  0
 21 26  1  0  0  0  0
 22 24  1  0  0  0  0
 23 16  2  0  0  0  0
 24 18  1  0  0  0  0
 24 25  2  0  0  0  0
 25  1  1  0  0  0  0
 26 18  1  0  0  0  0
 27 28  1  0  0  0  0
 29 27  2  0  0  0  0
 31 30  1  0  0  0  0
M  END
>  <MODEL>
6

>  <REMARK>
 VINA RESULT:      -7.2      3.621      5.387
  Name = 
  2 active torsions:
  status: ('A' for Active; 'I' for Inactive)
    1  A    between atoms: O_3  and  C_11
    2  A    between atoms: C_6  and  C_7
                            x       y       z     vdW  Elec       q    Type
                         _______ _______ _______ _____ _____    ______ ____

>  <TORSDO>
F 2

$$$$
=
 OpenBabel10222415483D

 31 36  0  0  1  0  0  0  0  0999 V2000
  184.5690  175.0280  135.4760 C   0  0  0  0  0  3  0  0  0  0  0  0
  181.1430  175.6870  136.2210 O   0  0  0  0  0  0  0  0  0  0  0  0
  191.3510  176.2060  138.1440 C   0  0  0  0  0  0  0  0  0  0  0  0
  187.5870  177.0820  138.3160 C   0  0  1  0  0  3  0  0  0  0  0  0
  192.8180  176.3790  138.2220 C   0  0  0  0  0  0  0  0  0  0  0  0
  183.0110  176.9640  136.9190 C   0  0  0  0  0  3  0  0  0  0  0  0
  190.1300  177.1870  141.5680 C   0  0  2  0  0  3  0  0  0  0  0  0
  192.4450  177.4870  140.4320 C   0  0  0  0  0  2  0  0  0  0  0  0
  188.6620  177.3370  137.2700 C   0  0  1  0  0  3  0  0  0  0  0  0
  188.6940  177.4610  141.0950 C   0  0  2  0  0  3  0  0  0  0  0  0
  188.6950  178.4490  140.0370 N   0  0  2  0  0  0  0  0  0  0  0  0
  184.3380  177.1200  136.9070 C   0  0  0  0  0  3  0  0  0  0  0  0
  183.2430  174.8730  135.4870 C   0  0  0  0  0  3  0  0  0  0  0  0
  190.7460  176.0560  137.0030 N   0  0  0  0  0  0  0  0  0  0  0  0
  193.3200  176.9380  139.3320 C   0  0  0  0  0  3  0  0  0  0  0  0
  190.5840  176.3420  139.3450 N   0  0  0  0  0  0  0  0  0  0  0  0
  188.3410  178.7500  141.3420 O   0  0  0  0  0  0  0  0  0  0  0  0
  187.4150  175.3230  135.4230 C   0  0  0  0  0  2  0  0  0  0  0  0
  187.4680  178.2720  139.2690 C   0  0  0  0  0  2  0  0  0  0  0  0
  182.3920  175.8330  136.2100 C   0  0  0  0  0  0  0  0  0  0  0  0
  189.2900  175.9940  136.8830 C   0  0  2  0  0  3  0  0  0  0  0  0
  187.1780  177.4910  136.9120 C   0  0  1  0  0  3  0  0  0  0  0  0
  191.0580  176.8980  140.4200 C   0  0  0  0  0  0  0  0  0  0  0  0
  186.5550  176.3180  136.1760 C   0  0  0  0  0  0  0  0  0  0  0  0
  185.2140  176.1630  136.1850 C   0  0  0  0  0  0  0  0  0  0  0  0
  188.8990  175.6550  135.4610 C   0  0  0  0  0  2  0  0  0  0  0  0
  193.7350  175.9130  137.1580 C   0  0  0  0  0  0  0  0  0  0  0  0
  194.0010  174.5250  136.9790 N   0  0  0  0  0  1  0  0  0  0  0  0
  194.3060  176.7450  136.4020 O   0  0  0  0  0  0  0  0  0  0  0  0
  190.1250  176.1050  142.4500 O   0  0  0  0  0  0  0  0  0  0  0  0
  190.7280  176.5850  143.6130 C   0  0  0  0  0  1  0  0  0  0  0  0
  1 13  2  0  0  0  0
  1 25  1  0  0  0  0
  3  5  1  0  0  0  0
  3 16  1  0  0  0  0
  4 19  1  1  0  0  0
  5 15  2  0  0  0  0
  7 30  1  1  0  0  0
  9  4  1  0  0  0  0
 10 17  1  0  0  0  0
 10  7  1  0  0  0  0
 11 10  1  0  0  0  0
 11 17  1  0  0  0  0
 12  6  2  0  0  0  0
 13 20  1  0  0  0  0
 14  3  2  0  0  0  0
 15  8  1  0  0  0  0
 16 23  2  0  0  0  0
 18 26  1  0  0  0  0
 18 24  1  0  0  0  0
 19 11  1  0  0  0  0
 20  2  2  0  0  0  0
 20  6  1  0  0  0  0
 21 14  1  0  0  0  0
 21  9  1  0  0  0  0
 22  9  1  0  0  0  0
 22  4  1  0  0  0  0
 23  8  1  0  0  0  0
 23  7  1  0  0  0  0
 24 25  2  0  0  0  0
 24 22  1  0  0  0  0
 25 12  1  0  0  0  0
 26 21  1  0  0  0  0
 27  5  1  0  0  0  0
 28 27  1  0  0  0  0
 29 27  2  0  0  0  0
 30 31  1  0  0  0  0
M  END
>  <MODEL>
7

>  <REMARK>
 VINA RESULT:      -7.0      5.095     10.558
  Name = 
  2 active torsions:
  status: ('A' for Active; 'I' for Inactive)
    1  A    between atoms: O_3  and  C_11
    2  A    between atoms: C_6  and  C_7
                            x       y       z     vdW  Elec       q    Type
                         _______ _______ _______ _____ _____    ______ ____

>  <TORSDO>
F 2

$$$$
=
 OpenBabel10222415483D

 31 36  0  0  1  0  0  0  0  0999 V2000
  181.1640  178.1190  141.5610 C   0  0  0  0  0  3  0  0  0  0  0  0
  179.0920  178.1160  144.4650 O   0  0  0  0  0  0  0  0  0  0  0  0
  188.2670  177.7500  139.5810 C   0  0  0  0  0  0  0  0  0  0  0  0
  185.7050  178.2450  142.4370 C   0  0  1  0  0  3  0  0  0  0  0  0
  189.5160  177.8920  138.8020 C   0  0  0  0  0  0  0  0  0  0  0  0
  181.3510  178.8130  144.3430 C   0  0  0  0  0  3  0  0  0  0  0  0
  189.4250  176.5300  142.9510 C   0  0  2  0  0  3  0  0  0  0  0  0
  190.7500  177.5040  140.9410 C   0  0  0  0  0  2  0  0  0  0  0  0
  186.0880  179.0920  141.2330 C   0  0  1  0  0  3  0  0  0  0  0  0
  188.1470  176.9810  143.6720 C   0  0  2  0  0  3  0  0  0  0  0  0
  187.9320  178.3990  143.4720 N   0  0  2  0  0  0  0  0  0  0  0  0
  182.4380  178.9880  143.5860 C   0  0  0  0  0  3  0  0  0  0  0  0
  180.0790  177.9440  142.3180 C   0  0  0  0  0  3  0  0  0  0  0  0
  187.1470  178.2680  139.1700 N   0  0  0  0  0  0  0  0  0  0  0  0
  190.6760  177.7210  139.4490 C   0  0  0  0  0  3  0  0  0  0  0  0
  188.3380  177.1420  140.8760 N   0  0  0  0  0  0  0  0  0  0  0  0
  188.4360  177.8780  144.6520 O   0  0  0  0  0  0  0  0  0  0  0  0
  183.4660  178.4800  139.9000 C   0  0  0  0  0  2  0  0  0  0  0  0
  186.5110  178.6600  143.6690 C   0  0  0  0  0  2  0  0  0  0  0  0
  180.1140  178.2810  143.7510 C   0  0  0  0  0  0  0  0  0  0  0  0
  185.9240  178.2410  139.9690 C   0  0  2  0  0  3  0  0  0  0  0  0
  184.7920  179.3780  142.0010 C   0  0  1  0  0  3  0  0  0  0  0  0
  189.4570  176.9880  141.5170 C   0  0  0  0  0  0  0  0  0  0  0  0
  183.5220  178.8280  141.3740 C   0  0  0  0  0  0  0  0  0  0  0  0
  182.4240  178.6540  142.1390 C   0  0  0  0  0  0  0  0  0  0  0  0
  184.7620  178.7750  139.1600 C   0  0  0  0  0  2  0  0  0  0  0  0
  189.5230  178.1570  137.3460 C   0  0  0  0  0  0  0  0  0  0  0  0
  189.8430  177.1250  136.4170 N   0  0  0  0  0  1  0  0  0  0  0  0
  189.2560  179.3080  136.9080 O   0  0  0  0  0  0  0  0  0  0  0  0
  189.5130  175.1370  142.9980 O   0  0  0  0  0  0  0  0  0  0  0  0
  190.7490  174.8750  143.5930 C   0  0  0  0  0  1  0  0  0  0  0  0
  1 25  1  0  0  0  0
  1 13  2  0  0  0  0
  3 16  1  0  0  0  0
  4 19  1  1  0  0  0
  5 15  2  0  0  0  0
  5  3  1  0  0  0  0
  7 30  1  6  0  0  0
  7 10  1  0  0  0  0
  8 23  1  0  0  0  0
  9 22  1  0  0  0  0
  9  4  1  0  0  0  0
 10 17  1  0  0  0  0
 11 19  1  0  0  0  0
 11 10  1  0  0  0  0
 11 17  1  0  0  0  0
 12  6  2  0  0  0  0
 13 20  1  0  0  0  0
 14  3  2  0  0  0  0
 14 21  1  0  0  0  0
 15  8  1  0  0  0  0
 16 23  2  0  0  0  0
 18 24  1  0  0  0  0
 20  6  1  0  0  0  0
 20  2  2  0  0  0  0
 21  9  1  0  0  0  0
 22  4  1  0  0  0  0
 23  7  1  0  0  0  0
 24 22  1  0  0  0  0
 24 25  2  0  0  0  0
 25 12  1  0  0  0  0
 26 18  1  0  0  0  0
 26 21  1  0  0  0  0
 27  5  1  0  0  0  0
 28 27  1  0  0  0  0
 29 27  2  0  0  0  0
 30 31  1  0  0  0  0
M  END
>  <MODEL>
8

>  <REMARK>
 VINA RESULT:      -7.0      3.212      7.814
  Name = 
  2 active torsions:
  status: ('A' for Active; 'I' for Inactive)
    1  A    between atoms: O_3  and  C_11
    2  A    between atoms: C_6  and  C_7
                            x       y       z     vdW  Elec       q    Type
                         _______ _______ _______ _____ _____    ______ ____

>  <TORSDO>
F 2

$$$$
=
 OpenBabel10222415483D

 31 36  0  0  1  0  0  0  0  0999 V2000
  187.0690  177.6860  144.9610 C   0  0  0  0  0  3  0  0  0  0  0  0
  188.9570  177.3490  147.9690 O   0  0  0  0  0  0  0  0  0  0  0  0
  187.8260  177.2350  137.6310 C   0  0  0  0  0  0  0  0  0  0  0  0
  189.5700  177.4240  141.0780 C   0  0  1  0  0  3  0  0  0  0  0  0
  187.5980  177.4270  136.1820 C   0  0  0  0  0  0  0  0  0  0  0  0
  189.7970  177.9300  145.8320 C   0  0  0  0  0  3  0  0  0  0  0  0
  191.1350  175.4470  137.8080 C   0  0  2  0  0  3  0  0  0  0  0  0
  189.9470  176.6460  135.8350 C   0  0  0  0  0  2  0  0  0  0  0  0
  188.7500  178.4240  140.2780 C   0  0  1  0  0  3  0  0  0  0  0  0
  191.3960  175.8510  139.2670 C   0  0  2  0  0  3  0  0  0  0  0  0
  191.3660  177.2920  139.4000 N   0  0  2  0  0  0  0  0  0  0  0  0
  189.5340  178.1600  144.5430 C   0  0  0  0  0  3  0  0  0  0  0  0
  187.3320  177.4560  146.2490 C   0  0  0  0  0  3  0  0  0  0  0  0
  187.1200  177.8720  138.5180 N   0  0  0  0  0  0  0  0  0  0  0  0
  188.5910  177.0940  135.3470 C   0  0  0  0  0  3  0  0  0  0  0  0
  188.9350  176.4310  138.0450 N   0  0  0  0  0  0  0  0  0  0  0  0
  192.5460  176.5680  139.3710 O   0  0  0  0  0  0  0  0  0  0  0  0
  186.4610  178.1720  142.2070 C   0  0  0  0  0  2  0  0  0  0  0  0
  191.0630  177.5980  140.7940 C   0  0  0  0  0  2  0  0  0  0  0  0
  188.7100  177.5650  146.7550 C   0  0  0  0  0  0  0  0  0  0  0  0
  187.3930  177.7900  139.9520 C   0  0  2  0  0  3  0  0  0  0  0  0
  189.0200  178.6590  141.7690 C   0  0  1  0  0  3  0  0  0  0  0  0
  189.9110  176.1180  137.2460 C   0  0  0  0  0  0  0  0  0  0  0  0
  187.8870  178.2840  142.7090 C   0  0  0  0  0  0  0  0  0  0  0  0
  188.1520  178.0540  144.0120 C   0  0  0  0  0  0  0  0  0  0  0  0
  186.3120  178.5060  140.7300 C   0  0  0  0  0  2  0  0  0  0  0  0
  186.3120  177.9130  135.6330 C   0  0  0  0  0  0  0  0  0  0  0  0
  186.2830  178.8900  134.5950 N   0  0  0  0  0  1  0  0  0  0  0  0
  185.2210  177.4770  136.0880 O   0  0  0  0  0  0  0  0  0  0  0  0
  190.9820  174.0610  137.7350 O   0  0  0  0  0  0  0  0  0  0  0  0
  191.1210  173.7550  136.3800 C   0  0  0  0  0  1  0  0  0  0  0  0
  1 13  2  0  0  0  0
  3 16  1  0  0  0  0
  3 14  2  0  0  0  0
  4 19  1  6  0  0  0
  4 22  1  0  0  0  0
  5  3  1  0  0  0  0
  6 20  1  0  0  0  0
  7 30  1  1  0  0  0
  7 10  1  0  0  0  0
  8 23  1  0  0  0  0
  9  4  1  0  0  0  0
  9 22  1  0  0  0  0
 10 17  1  0  0  0  0
 10 11  1  0  0  0  0
 11 19  1  0  0  0  0
 12  6  2  0  0  0  0
 13 20  1  0  0  0  0
 14 21  1  0  0  0  0
 15  8  1  0  0  0  0
 15  5  2  0  0  0  0
 17 11  1  0  0  0  0
 18 24  1  0  0  0  0
 20  2  2  0  0  0  0
 21  9  1  0  0  0  0
 21 26  1  0  0  0  0
 22 24  1  0  0  0  0
 23  7  1  0  0  0  0
 23 16  2  0  0  0  0
 24 25  2  0  0  0  0
 25 12  1  0  0  0  0
 25  1  1  0  0  0  0
 26 18  1  0  0  0  0
 27 29  2  0  0  0  0
 27  5  1  0  0  0  0
 28 27  1  0  0  0  0
 31 30  1  0  0  0  0
M  END
>  <MODEL>
9

>  <REMARK>
 VINA RESULT:      -6.7      4.338      6.578
  Name = 
  2 active torsions:
  status: ('A' for Active; 'I' for Inactive)
    1  A    between atoms: O_3  and  C_11
    2  A    between atoms: C_6  and  C_7
                            x       y       z     vdW  Elec       q    Type
                         _______ _______ _______ _____ _____    ______ ____

>  <TORSDO>
F 2

$$$$
