=
 OpenBabel10222415323D

 54 59  0  0  1  0  0  0  0  0999 V2000
  186.5930  177.1790  137.2870 C   0  0  0  0  0  0  0  0  0  0  0  0
  185.2310  177.1640  136.9490 C   0  0  0  0  0  3  0  0  0  0  0  0
  186.0390  178.4730  139.2650 C   0  0  0  0  0  3  0  0  0  0  0  0
  186.9980  177.8290  138.4670 C   0  0  0  0  0  0  0  0  0  0  0  0
  184.2720  177.7720  137.7700 C   0  0  0  0  0  0  0  0  0  0  0  0
  184.6870  178.4410  138.9210 C   0  0  0  0  0  3  0  0  0  0  0  0
  182.8230  177.8230  137.3850 C   0  0  0  0  0  2  0  0  0  0  0  0
  179.9830  178.7200  141.5100 N   0  0  0  0  0  0  0  0  0  0  0  0
  181.3400  178.0960  139.5030 C   0  0  0  0  0  0  0  0  0  0  0  0
  181.0630  180.8630  138.9200 C   0  0  0  0  0  3  0  0  0  0  0  0
  180.1680  178.8420  140.0680 C   0  0  2  0  0  3  0  0  0  0  0  0
  180.3710  180.3050  139.9130 C   0  0  1  0  0  3  0  0  0  0  0  0
  181.8210  179.9760  138.0080 C   0  0  0  0  0  3  0  0  0  0  0  0
  181.6600  176.9600  139.9410 O   0  0  0  0  0  0  0  0  0  0  0  0
  179.8190  179.9150  141.9930 C   0  0  0  0  0  0  0  0  0  0  0  0
  181.9990  178.6740  138.3020 C   0  0  2  0  0  3  0  0  0  0  0  0
  179.9810  180.9450  141.0690 O   0  0  0  0  0  0  0  0  0  0  0  0
  179.3460  179.0540  144.2350 C   0  0  0  0  0  1  0  0  0  0  0  0
  179.5530  180.1340  143.3410 O   0  0  0  0  0  0  0  0  0  0  0  0
  187.5640  176.5760  136.4700 O   0  0  0  0  0  0  0  0  0  0  0  0
  187.3570  174.3930  137.2330 O   0  0  0  0  0  0  0  0  0  0  0  0
  187.9350  175.2240  136.4810 C   0  0  0  0  0  0  0  0  0  0  0  0
  189.0310  174.7980  135.5920 C   0  0  0  0  0  3  0  0  0  0  0  0
  190.3250  174.7050  135.9180 C   0  0  0  0  0  3  0  0  0  0  0  0
  192.2800  174.7090  137.5150 C   0  0  2  0  0  3  0  0  0  0  0  0
  193.5540  176.8790  137.9340 O   0  0  0  0  0  0  0  0  0  0  0  0
  191.1210  176.4580  137.3830 N   0  0  0  0  0  2  0  0  0  0  0  0
  190.8860  175.0360  137.2740 C   0  0  1  0  0  3  0  0  0  0  0  0
  192.5450  176.1750  137.6650 C   0  0  0  0  0  0  0  0  0  0  0  0
  192.7630  172.3720  136.2780 O   0  0  0  0  0  1  0  0  0  0  0  0
  193.2650  174.0180  136.0700 P   0  0  2  0  0  0  0  0  0  0  0  0
  195.1080  173.7840  137.0990 S   0  0  0  0  0  0  0  0  0  0  0  0
  195.9100  175.0500  136.9930 O   0  0  0  0  0  0  0  0  0  0  0  0
  194.8330  173.4940  138.5490 O   0  0  0  0  0  0  0  0  0  0  0  0
  196.8620  172.9460  135.2200 C   0  0  0  0  0  1  0  0  0  0  0  0
  196.0430  172.4440  136.3920 C   0  0  0  0  0  2  0  0  0  0  0  0
  188.4660  177.9270  138.7970 C   0  0  2  0  0  3  0  0  0  0  0  0
  189.0070  176.9830  141.2400 C   0  0  0  0  0  0  0  0  0  0  0  0
  188.7740  177.4270  140.1460 C   0  0  0  0  0  0  0  0  0  0  0  0
  189.2760  176.4040  142.5580 C   0  0  0  0  0  2  0  0  0  0  0  0
  188.3320  178.5290  146.1780 O   0  0  0  0  0  0  0  0  0  0  0  0
  190.5320  176.6800  145.5750 C   0  0  2  0  0  3  0  0  0  0  0  0
  189.0420  177.5170  147.3620 P   0  0  2  0  0  0  0  0  0  0  0  0
  190.7970  179.0650  144.7830 C   0  0  0  0  0  1  0  0  0  0  0  0
  190.4110  177.1730  143.2380 C   0  0  2  0  0  3  0  0  0  0  0  0
  188.2340  176.2480  147.5100 O   0  0  0  0  0  0  0  0  0  0  0  0
  189.0760  178.3290  148.8420 O   0  0  0  0  0  1  0  0  0  0  0  0
  188.5510  177.9530  144.9040 C   0  0  0  0  0  2  0  0  0  0  0  0
  190.6410  177.1470  146.8920 O   0  0  0  0  0  0  0  0  0  0  0  0
  191.8290  176.1710  144.9950 C   0  0  0  0  0  2  0  0  0  0  0  0
  191.6040  176.2360  143.4880 C   0  0  0  0  0  2  0  0  0  0  0  0
  190.0470  177.7450  144.6100 C   0  0  1  0  0  0  0  0  0  0  0  0
  189.0460  179.4650  137.3070 C   0  0  0  0  0  1  0  0  0  0  0  0
  188.8870  179.2520  138.6800 O   0  0  0  0  0  0  0  0  0  0  0  0
  1  4  1  0  0  0  0
  2  1  2  0  0  0  0
  2  5  1  0  0  0  0
  4 37  1  0  0  0  0
  4  3  2  0  0  0  0
  5  6  2  0  0  0  0
  6  3  1  0  0  0  0
  7  5  1  0  0  0  0
  8 15  2  0  0  0  0
  9 14  2  0  0  0  0
 11  9  1  1  0  0  0
 11  8  1  0  0  0  0
 12 10  1  1  0  0  0
 12 11  1  0  0  0  0
 12 17  1  0  0  0  0
 13 16  1  0  0  0  0
 13 10  2  0  0  0  0
 15 19  1  0  0  0  0
 16  7  1  6  0  0  0
 16  9  1  0  0  0  0
 17 15  1  0  0  0  0
 19 18  1  0  0  0  0
 20 22  1  0  0  0  0
 20  1  1  0  0  0  0
 22 21  2  0  0  0  0
 23 24  2  0  0  0  0
 23 22  1  0  0  0  0
 25 31  1  6  0  0  0
 25 29  1  0  0  0  0
 27 29  1  0  0  0  0
 28 24  1  6  0  0  0
 28 27  1  0  0  0  0
 28 25  1  0  0  0  0
 29 26  2  0  0  0  0
 31 30  1  1  0  0  0
 31 32  1  0  0  0  0
 32 34  2  0  0  0  0
 33 32  2  0  0  0  0
 35 36  1  0  0  0  0
 36 32  1  0  0  0  0
 37 39  1  1  0  0  0
 38 40  1  0  0  0  0
 39 38  3  0  0  0  0
 41 43  1  0  0  0  0
 42 50  1  6  0  0  0
 42 49  1  0  0  0  0
 43 46  2  1  0  0  0
 43 47  1  0  0  0  0
 45 40  1  1  0  0  0
 45 51  1  0  0  0  0
 45 52  1  0  0  0  0
 48 41  1  0  0  0  0
 49 43  1  0  0  0  0
 51 50  1  0  0  0  0
 52 44  1  1  0  0  0
 52 48  1  0  0  0  0
 52 42  1  0  0  0  0
 53 54  1  0  0  0  0
 54 37  1  0  0  0  0
M  END
>  <MODEL>
1

>  <REMARK>
 VINA RESULT:      -7.9      0.000      0.000
  Name = 
  15 active torsions:
  status: ('A' for Active; 'I' for Inactive)
    1  A    between atoms: C_2  and  C_9
    2  A    between atoms: C_7  and  P_23
    3  A    between atoms: C_9  and  C_22
    4  A    between atoms: C_14  and  O_21
    5  A    between atoms: C_17  and  C_37
    6  A    between atoms: C_17  and  C_51
    7  A    between atoms: C_19  and  C_44
    8  A    between atoms: O_21  and  C_35
    9  A    between atoms: P_23  and  S_27
   10  A    between atoms: C_24  and  C_44
   11  A    between atoms: S_27  and  C_36
   12  A    between atoms: C_32  and  C_35
   13  A    between atoms: O_42  and  C_44
   14  A    between atoms: C_43  and  O_45
   15  A    between atoms: C_46  and  C_47
                            x       y       z     vdW  Elec       q    Type
                         _______ _______ _______ _____ _____    ______ ____

>  <TORSDO>
F 15

$$$$
=
 OpenBabel10222415323D

 54 59  0  0  1  0  0  0  0  0999 V2000
  187.3360  175.7680  136.8000 C   0  0  0  0  0  0  0  0  0  0  0  0
  188.3060  176.5120  137.4890 C   0  0  0  0  0  3  0  0  0  0  0  0
  185.6390  177.2770  137.6590 C   0  0  0  0  0  3  0  0  0  0  0  0
  185.9890  176.1660  136.8750 C   0  0  0  0  0  0  0  0  0  0  0  0
  187.9590  177.6450  138.2350 C   0  0  0  0  0  0  0  0  0  0  0  0
  186.6170  178.0130  138.3300 C   0  0  0  0  0  3  0  0  0  0  0  0
  188.9770  178.4070  139.0310 C   0  0  0  0  0  2  0  0  0  0  0  0
  191.3480  176.4770  143.0980 N   0  0  0  0  0  0  0  0  0  0  0  0
  190.3150  177.3460  140.9910 C   0  0  0  0  0  0  0  0  0  0  0  0
  188.0570  177.6870  142.6820 C   0  0  0  0  0  3  0  0  0  0  0  0
  190.1870  176.4850  142.2140 C   0  0  2  0  0  3  0  0  0  0  0  0
  189.1310  177.0220  143.1080 C   0  0  1  0  0  3  0  0  0  0  0  0
  187.9880  178.0670  141.2530 C   0  0  0  0  0  3  0  0  0  0  0  0
  191.4040  177.4310  140.3680 O   0  0  0  0  0  0  0  0  0  0  0  0
  190.9260  176.6830  144.3100 C   0  0  0  0  0  0  0  0  0  0  0  0
  189.0690  177.9550  140.4560 C   0  0  2  0  0  3  0  0  0  0  0  0
  189.5660  176.9660  144.4140 O   0  0  0  0  0  0  0  0  0  0  0  0
  191.2940  176.5810  146.7280 C   0  0  0  0  0  1  0  0  0  0  0  0
  191.7880  176.6680  145.4020 O   0  0  0  0  0  0  0  0  0  0  0  0
  187.6710  174.6280  136.0510 O   0  0  0  0  0  0  0  0  0  0  0  0
  188.5980  172.9220  137.3250 O   0  0  0  0  0  0  0  0  0  0  0  0
  188.6900  173.7110  136.3450 C   0  0  0  0  0  0  0  0  0  0  0  0
  189.8840  173.6990  135.4800 C   0  0  0  0  0  3  0  0  0  0  0  0
  191.1250  174.0430  135.8380 C   0  0  0  0  0  3  0  0  0  0  0  0
  192.9020  174.3590  137.6030 C   0  0  2  0  0  3  0  0  0  0  0  0
  193.9040  176.6750  137.9750 O   0  0  0  0  0  0  0  0  0  0  0  0
  191.5920  175.9620  137.2350 N   0  0  0  0  0  2  0  0  0  0  0  0
  191.5130  174.5190  137.2110 C   0  0  1  0  0  3  0  0  0  0  0  0
  193.0020  175.8520  137.6670 C   0  0  0  0  0  0  0  0  0  0  0  0
  193.6650  172.0190  136.5230 O   0  0  0  0  0  1  0  0  0  0  0  0
  194.0900  173.6870  136.3100 P   0  0  2  0  0  0  0  0  0  0  0  0
  195.8090  173.6020  137.5550 S   0  0  0  0  0  0  0  0  0  0  0  0
  196.5590  174.9020  137.4690 O   0  0  0  0  0  0  0  0  0  0  0  0
  195.3800  173.3730  138.9780 O   0  0  0  0  0  0  0  0  0  0  0  0
  197.4990  172.6080  135.6930 C   0  0  0  0  0  1  0  0  0  0  0  0
  196.8800  172.2780  137.0370 C   0  0  0  0  0  2  0  0  0  0  0  0
  184.9260  175.3270  136.2120 C   0  0  2  0  0  3  0  0  0  0  0  0
  182.5510  175.6070  137.4100 C   0  0  0  0  0  0  0  0  0  0  0  0
  183.6150  175.4600  136.8660 C   0  0  0  0  0  0  0  0  0  0  0  0
  181.2660  175.8300  138.0770 C   0  0  0  0  0  2  0  0  0  0  0  0
  179.4050  178.1650  141.1740 O   0  0  0  0  0  0  0  0  0  0  0  0
  181.4450  178.9070  139.1960 C   0  0  2  0  0  3  0  0  0  0  0  0
  180.6100  179.3420  141.4820 P   0  0  2  0  0  0  0  0  0  0  0  0
  179.0450  178.8800  138.4050 C   0  0  0  0  0  1  0  0  0  0  0  0
  180.7140  177.2030  137.6860 C   0  0  2  0  0  3  0  0  0  0  0  0
  181.7770  178.7130  142.2070 O   0  0  0  0  0  0  0  0  0  0  0  0
  179.9570  180.5700  142.4420 O   0  0  0  0  0  1  0  0  0  0  0  0
  179.8770  177.2950  140.1620 C   0  0  0  0  0  2  0  0  0  0  0  0
  181.1270  180.0120  139.9980 O   0  0  0  0  0  0  0  0  0  0  0  0
  182.0510  179.2720  137.8630 C   0  0  0  0  0  2  0  0  0  0  0  0
  181.8110  178.0350  137.0030 C   0  0  0  0  0  2  0  0  0  0  0  0
  180.2390  178.0470  138.8710 C   0  0  1  0  0  0  0  0  0  0  0  0
  184.4510  173.3560  135.3120 C   0  0  0  0  0  1  0  0  0  0  0  0
  185.3160  173.9860  136.2120 O   0  0  0  0  0  0  0  0  0  0  0  0
  1  4  2  0  0  0  0
  1  2  1  0  0  0  0
  2  5  2  0  0  0  0
  3  6  2  0  0  0  0
  4  3  1  0  0  0  0
  5  6  1  0  0  0  0
  5  7  1  0  0  0  0
  8 15  2  0  0  0  0
 11  9  1  6  0  0  0
 11  8  1  0  0  0  0
 11 12  1  0  0  0  0
 12 10  1  6  0  0  0
 12 17  1  0  0  0  0
 13 10  2  0  0  0  0
 14  9  2  0  0  0  0
 15 17  1  0  0  0  0
 15 19  1  0  0  0  0
 16  7  1  6  0  0  0
 16  9  1  0  0  0  0
 16 13  1  0  0  0  0
 19 18  1  0  0  0  0
 20 22  1  0  0  0  0
 20  1  1  0  0  0  0
 22 21  2  0  0  0  0
 23 24  2  0  0  0  0
 23 22  1  0  0  0  0
 25 31  1  6  0  0  0
 25 29  1  0  0  0  0
 27 29  1  0  0  0  0
 28 24  1  6  0  0  0
 28 27  1  0  0  0  0
 28 25  1  0  0  0  0
 29 26  2  0  0  0  0
 31 30  1  1  0  0  0
 31 32  1  0  0  0  0
 32 34  2  0  0  0  0
 33 32  2  0  0  0  0
 35 36  1  0  0  0  0
 36 32  1  0  0  0  0
 37 39  1  1  0  0  0
 37  4  1  0  0  0  0
 38 40  1  0  0  0  0
 39 38  3  0  0  0  0
 41 43  1  0  0  0  0
 42 50  1  6  0  0  0
 42 49  1  0  0  0  0
 43 46  2  1  0  0  0
 43 47  1  0  0  0  0
 45 40  1  1  0  0  0
 45 52  1  0  0  0  0
 48 41  1  0  0  0  0
 49 43  1  0  0  0  0
 51 45  1  0  0  0  0
 51 50  1  0  0  0  0
 52 44  1  6  0  0  0
 52 42  1  0  0  0  0
 52 48  1  0  0  0  0
 53 54  1  0  0  0  0
 54 37  1  0  0  0  0
M  END
>  <MODEL>
2

>  <REMARK>
 VINA RESULT:      -7.3      2.753      7.731
  Name = 
  15 active torsions:
  status: ('A' for Active; 'I' for Inactive)
    1  A    between atoms: C_2  and  C_9
    2  A    between atoms: C_7  and  P_23
    3  A    between atoms: C_9  and  C_22
    4  A    between atoms: C_14  and  O_21
    5  A    between atoms: C_17  and  C_37
    6  A    between atoms: C_17  and  C_51
    7  A    between atoms: C_19  and  C_44
    8  A    between atoms: O_21  and  C_35
    9  A    between atoms: P_23  and  S_27
   10  A    between atoms: C_24  and  C_44
   11  A    between atoms: S_27  and  C_36
   12  A    between atoms: C_32  and  C_35
   13  A    between atoms: O_42  and  C_44
   14  A    between atoms: C_43  and  O_45
   15  A    between atoms: C_46  and  C_47
                            x       y       z     vdW  Elec       q    Type
                         _______ _______ _______ _____ _____    ______ ____

>  <TORSDO>
F 15

$$$$
=
 OpenBabel10222415323D

 54 59  0  0  1  0  0  0  0  0999 V2000
  185.9020  176.3870  136.5620 C   0  0  0  0  0  0  0  0  0  0  0  0
  184.5460  176.0920  136.3560 C   0  0  0  0  0  3  0  0  0  0  0  0
  185.2370  178.1360  138.1090 C   0  0  0  0  0  3  0  0  0  0  0  0
  186.2510  177.4110  137.4600 C   0  0  0  0  0  0  0  0  0  0  0  0
  183.5390  176.7880  137.0370 C   0  0  0  0  0  0  0  0  0  0  0  0
  183.8930  177.8230  137.9010 C   0  0  0  0  0  3  0  0  0  0  0  0
  182.0850  176.5280  136.7740 C   0  0  0  0  0  2  0  0  0  0  0  0
  179.6820  176.8500  141.2480 N   0  0  0  0  0  0  0  0  0  0  0  0
  180.8820  176.5070  139.0790 C   0  0  0  0  0  0  0  0  0  0  0  0
  179.7450  179.0410  138.4790 C   0  0  0  0  0  3  0  0  0  0  0  0
  179.6310  176.9270  139.7910 C   0  0  2  0  0  3  0  0  0  0  0  0
  179.3820  178.3750  139.5750 C   0  0  1  0  0  3  0  0  0  0  0  0
  180.5980  178.3470  137.4870 C   0  0  0  0  0  3  0  0  0  0  0  0
  181.5710  175.5380  139.4920 O   0  0  0  0  0  0  0  0  0  0  0  0
  179.2470  177.9800  141.7210 C   0  0  0  0  0  0  0  0  0  0  0  0
  181.1810  177.1690  137.7820 C   0  0  2  0  0  3  0  0  0  0  0  0
  178.9810  178.9510  140.7600 O   0  0  0  0  0  0  0  0  0  0  0  0
  178.9960  179.5120  143.6140 C   0  0  0  0  0  1  0  0  0  0  0  0
  179.1100  178.2000  143.0890 O   0  0  0  0  0  0  0  0  0  0  0  0
  186.9210  175.6980  135.8830 O   0  0  0  0  0  0  0  0  0  0  0  0
  186.9700  173.7750  137.1840 O   0  0  0  0  0  0  0  0  0  0  0  0
  187.4150  174.4240  136.1980 C   0  0  0  0  0  0  0  0  0  0  0  0
  188.4810  173.8630  135.3480 C   0  0  0  0  0  3  0  0  0  0  0  0
  189.7500  173.6480  135.7070 C   0  0  0  0  0  3  0  0  0  0  0  0
  191.7520  174.1410  137.1650 C   0  0  2  0  0  3  0  0  0  0  0  0
  192.2110  176.5410  137.8970 O   0  0  0  0  0  0  0  0  0  0  0  0
  190.0400  175.3360  137.4170 N   0  0  0  0  0  2  0  0  0  0  0  0
  190.3140  173.9610  137.0660 C   0  0  1  0  0  3  0  0  0  0  0  0
  191.4940  175.5620  137.5620 C   0  0  0  0  0  0  0  0  0  0  0  0
  192.7100  172.3600  135.3940 O   0  0  0  0  0  1  0  0  0  0  0  0
  192.7390  174.0860  135.5660 P   0  0  2  0  0  0  0  0  0  0  0  0
  194.6690  174.1530  136.4490 S   0  0  0  0  0  0  0  0  0  0  0  0
  195.6250  173.3260  135.6360 O   0  0  0  0  0  0  0  0  0  0  0  0
  195.1520  175.5770  136.4800 O   0  0  0  0  0  0  0  0  0  0  0  0
  195.4110  174.3990  139.0380 C   0  0  0  0  0  1  0  0  0  0  0  0
  194.6100  173.5090  138.1080 C   0  0  0  0  0  2  0  0  0  0  0  0
  187.6990  177.7970  137.6250 C   0  0  2  0  0  3  0  0  0  0  0  0
  188.2910  178.3400  140.1770 C   0  0  0  0  0  0  0  0  0  0  0  0
  188.0460  178.0950  139.0230 C   0  0  0  0  0  0  0  0  0  0  0  0
  188.5450  178.6350  141.5880 C   0  0  0  0  0  2  0  0  0  0  0  0
  191.5240  176.3320  143.6690 O   0  0  0  0  0  0  0  0  0  0  0  0
  189.0270  177.5340  144.6390 C   0  0  2  0  0  3  0  0  0  0  0  0
  191.3300  176.8960  145.2740 P   0  0  2  0  0  0  0  0  0  0  0  0
  188.8330  175.3310  143.4170 C   0  0  0  0  0  1  0  0  0  0  0  0
  188.0560  177.4730  142.4550 C   0  0  2  0  0  3  0  0  0  0  0  0
  191.8630  178.3040  145.3970 O   0  0  0  0  0  0  0  0  0  0  0  0
  192.1810  175.8860  146.3260 O   0  0  0  0  0  1  0  0  0  0  0  0
  190.6020  177.0140  142.8390 C   0  0  0  0  0  2  0  0  0  0  0  0
  189.6720  176.8540  145.6820 O   0  0  0  0  0  0  0  0  0  0  0  0
  187.5470  177.7290  144.8580 C   0  0  0  0  0  2  0  0  0  0  0  0
  187.0000  177.9710  143.4540 C   0  0  0  0  0  2  0  0  0  0  0  0
  189.1490  176.8220  143.3050 C   0  0  1  0  0  0  0  0  0  0  0  0
  188.9660  178.4640  135.9300 C   0  0  0  0  0  1  0  0  0  0  0  0
  187.9850  178.9050  136.8250 O   0  0  0  0  0  0  0  0  0  0  0  0
  1  4  1  0  0  0  0
  2  1  2  0  0  0  0
  2  5  1  0  0  0  0
  4 37  1  0  0  0  0
  4  3  2  0  0  0  0
  5  6  2  0  0  0  0
  6  3  1  0  0  0  0
  7  5  1  0  0  0  0
  8 15  2  0  0  0  0
  9 14  2  0  0  0  0
 11  9  1  6  0  0  0
 11  8  1  0  0  0  0
 12 10  1  1  0  0  0
 12 11  1  0  0  0  0
 12 17  1  0  0  0  0
 13 16  1  0  0  0  0
 13 10  2  0  0  0  0
 15 19  1  0  0  0  0
 16  7  1  6  0  0  0
 16  9  1  0  0  0  0
 17 15  1  0  0  0  0
 19 18  1  0  0  0  0
 20 22  1  0  0  0  0
 20  1  1  0  0  0  0
 22 21  2  0  0  0  0
 23 24  2  0  0  0  0
 23 22  1  0  0  0  0
 25 31  1  6  0  0  0
 25 29  1  0  0  0  0
 27 29  1  0  0  0  0
 28 24  1  6  0  0  0
 28 25  1  0  0  0  0
 28 27  1  0  0  0  0
 29 26  2  0  0  0  0
 31 30  1  1  0  0  0
 31 32  1  0  0  0  0
 32 34  2  0  0  0  0
 32 36  1  0  0  0  0
 33 32  2  0  0  0  0
 36 35  1  0  0  0  0
 37 39  1  1  0  0  0
 38 40  1  0  0  0  0
 39 38  3  0  0  0  0
 41 43  1  0  0  0  0
 42 50  1  1  0  0  0
 42 49  1  0  0  0  0
 43 46  2  1  0  0  0
 43 49  1  0  0  0  0
 43 47  1  0  0  0  0
 45 40  1  1  0  0  0
 45 52  1  0  0  0  0
 45 51  1  0  0  0  0
 48 52  1  0  0  0  0
 48 41  1  0  0  0  0
 51 50  1  0  0  0  0
 52 44  1  1  0  0  0
 52 42  1  0  0  0  0
 53 54  1  0  0  0  0
 54 37  1  0  0  0  0
M  END
>  <MODEL>
3

>  <REMARK>
 VINA RESULT:      -7.0      1.718      2.355
  Name = 
  15 active torsions:
  status: ('A' for Active; 'I' for Inactive)
    1  A    between atoms: C_2  and  C_9
    2  A    between atoms: C_7  and  P_23
    3  A    between atoms: C_9  and  C_22
    4  A    between atoms: C_14  and  O_21
    5  A    between atoms: C_17  and  C_37
    6  A    between atoms: C_17  and  C_51
    7  A    between atoms: C_19  and  C_44
    8  A    between atoms: O_21  and  C_35
    9  A    between atoms: P_23  and  S_27
   10  A    between atoms: C_24  and  C_44
   11  A    between atoms: S_27  and  C_36
   12  A    between atoms: C_32  and  C_35
   13  A    between atoms: O_42  and  C_44
   14  A    between atoms: C_43  and  O_45
   15  A    between atoms: C_46  and  C_47
                            x       y       z     vdW  Elec       q    Type
                         _______ _______ _______ _____ _____    ______ ____

>  <TORSDO>
F 15

$$$$
=
 OpenBabel10222415323D

 54 59  0  0  1  0  0  0  0  0999 V2000
  185.8080  177.0370  136.9730 C   0  0  0  0  0  0  0  0  0  0  0  0
  184.4370  176.9550  136.6860 C   0  0  0  0  0  3  0  0  0  0  0  0
  185.2880  178.5610  138.7890 C   0  0  0  0  0  3  0  0  0  0  0  0
  186.2360  177.8380  138.0470 C   0  0  0  0  0  0  0  0  0  0  0  0
  183.4910  177.6440  137.4550 C   0  0  0  0  0  0  0  0  0  0  0  0
  183.9260  178.4610  138.4980 C   0  0  0  0  0  3  0  0  0  0  0  0
  182.0300  177.6190  137.1160 C   0  0  0  0  0  2  0  0  0  0  0  0
  179.9750  173.0530  136.2100 N   0  0  0  0  0  0  0  0  0  0  0  0
  180.9580  175.3390  136.4730 C   0  0  0  0  0  0  0  0  0  0  0  0
  180.4650  174.8260  139.2240 C   0  0  0  0  0  3  0  0  0  0  0  0
  179.8830  174.3620  136.8480 C   0  0  2  0  0  3  0  0  0  0  0  0
  179.9940  174.0060  138.2840 C   0  0  1  0  0  3  0  0  0  0  0  0
  181.0750  176.1060  138.7970 C   0  0  0  0  0  3  0  0  0  0  0  0
  181.4000  175.3990  135.2970 O   0  0  0  0  0  0  0  0  0  0  0  0
  179.8560  172.1500  137.1360 C   0  0  0  0  0  0  0  0  0  0  0  0
  181.3580  176.3360  137.5000 C   0  0  2  0  0  3  0  0  0  0  0  0
  179.8010  172.6500  138.4350 O   0  0  0  0  0  0  0  0  0  0  0  0
  179.7510  170.3300  135.5030 C   0  0  0  0  0  1  0  0  0  0  0  0
  179.8370  170.7900  136.8410 O   0  0  0  0  0  0  0  0  0  0  0  0
  186.7670  176.3530  136.2060 O   0  0  0  0  0  0  0  0  0  0  0  0
  186.5890  174.2650  137.2070 O   0  0  0  0  0  0  0  0  0  0  0  0
  187.1230  175.0030  136.3340 C   0  0  0  0  0  0  0  0  0  0  0  0
  188.1510  174.4670  135.4230 C   0  0  0  0  0  3  0  0  0  0  0  0
  189.3910  174.0980  135.7570 C   0  0  0  0  0  3  0  0  0  0  0  0
  191.4020  174.2600  137.2750 C   0  0  2  0  0  3  0  0  0  0  0  0
  191.9910  176.5010  138.3430 O   0  0  0  0  0  0  0  0  0  0  0  0
  189.7590  175.5050  137.6910 N   0  0  0  0  0  2  0  0  0  0  0  0
  189.9570  174.1800  137.1480 C   0  0  1  0  0  3  0  0  0  0  0  0
  191.2220  175.6230  137.8700 C   0  0  0  0  0  0  0  0  0  0  0  0
  192.5130  172.6660  135.4180 O   0  0  0  0  0  1  0  0  0  0  0  0
  192.4010  174.3760  135.6870 P   0  0  2  0  0  0  0  0  0  0  0  0
  194.3140  174.5470  136.5950 S   0  0  0  0  0  0  0  0  0  0  0  0
  194.7000  175.9970  136.6860 O   0  0  0  0  0  0  0  0  0  0  0  0
  194.2600  173.9630  137.9790 O   0  0  0  0  0  0  0  0  0  0  0  0
  196.9070  173.8700  136.2420 C   0  0  0  0  0  1  0  0  0  0  0  0
  195.5340  173.6810  135.6300 C   0  0  0  0  0  2  0  0  0  0  0  0
  187.7100  178.0040  138.3120 C   0  0  2  0  0  3  0  0  0  0  0  0
  188.3050  177.8030  140.9120 C   0  0  0  0  0  0  0  0  0  0  0  0
  188.0440  177.8730  139.7380 C   0  0  0  0  0  0  0  0  0  0  0  0
  188.6040  177.7590  142.3450 C   0  0  0  0  0  2  0  0  0  0  0  0
  189.9220  178.5410  146.3650 O   0  0  0  0  0  0  0  0  0  0  0  0
  190.9220  176.6310  144.3710 C   0  0  2  0  0  3  0  0  0  0  0  0
  190.6220  177.0380  146.7920 P   0  0  2  0  0  0  0  0  0  0  0  0
  191.6880  179.0280  144.1400 C   0  0  0  0  0  1  0  0  0  0  0  0
  190.1040  177.9680  142.5650 C   0  0  2  0  0  3  0  0  0  0  0  0
  189.5410  176.0020  146.9990 O   0  0  0  0  0  0  0  0  0  0  0  0
  191.5000  177.2180  148.2230 O   0  0  0  0  0  1  0  0  0  0  0  0
  189.4220  178.4440  145.0440 C   0  0  0  0  0  2  0  0  0  0  0  0
  191.6810  176.5440  145.5470 O   0  0  0  0  0  0  0  0  0  0  0  0
  191.6310  176.1150  143.1430 C   0  0  0  0  0  2  0  0  0  0  0  0
  190.8890  176.7790  141.9880 C   0  0  0  0  0  2  0  0  0  0  0  0
  190.5150  178.0540  144.0360 C   0  0  1  0  0  0  0  0  0  0  0  0
  189.3580  179.0000  137.2090 C   0  0  0  0  0  1  0  0  0  0  0  0
  188.1360  179.2480  137.8440 O   0  0  0  0  0  0  0  0  0  0  0  0
  1  4  1  0  0  0  0
  2  1  2  0  0  0  0
  2  5  1  0  0  0  0
  4 37  1  0  0  0  0
  4  3  2  0  0  0  0
  5  6  2  0  0  0  0
  6  3  1  0  0  0  0
  7  5  1  0  0  0  0
  8 15  2  0  0  0  0
  9 11  1  0  0  0  0
  9 16  1  0  0  0  0
 11  8  1  6  0  0  0
 11 12  1  0  0  0  0
 12 17  1  0  0  0  0
 12 10  1  6  0  0  0
 13 10  2  0  0  0  0
 14  9  2  0  0  0  0
 15 17  1  0  0  0  0
 16  7  1  6  0  0  0
 16 13  1  0  0  0  0
 18 19  1  0  0  0  0
 19 15  1  0  0  0  0
 20 22  1  0  0  0  0
 20  1  1  0  0  0  0
 22 21  2  0  0  0  0
 23 24  2  0  0  0  0
 23 22  1  0  0  0  0
 25 31  1  6  0  0  0
 25 29  1  0  0  0  0
 27 29  1  0  0  0  0
 28 24  1  6  0  0  0
 28 25  1  0  0  0  0
 28 27  1  0  0  0  0
 29 26  2  0  0  0  0
 31 30  1  6  0  0  0
 31 32  1  0  0  0  0
 32 33  2  0  0  0  0
 32 34  2  0  0  0  0
 36 35  1  0  0  0  0
 36 32  1  0  0  0  0
 37 39  1  1  0  0  0
 38 40  1  0  0  0  0
 39 38  3  0  0  0  0
 41 43  1  0  0  0  0
 42 50  1  6  0  0  0
 42 49  1  0  0  0  0
 43 46  2  1  0  0  0
 43 47  1  0  0  0  0
 45 40  1  1  0  0  0
 45 52  1  0  0  0  0
 48 41  1  0  0  0  0
 49 43  1  0  0  0  0
 51 45  1  0  0  0  0
 51 50  1  0  0  0  0
 52 44  1  1  0  0  0
 52 42  1  0  0  0  0
 52 48  1  0  0  0  0
 53 54  1  0  0  0  0
 54 37  1  0  0  0  0
M  END
>  <MODEL>
4

>  <REMARK>
 VINA RESULT:      -6.9      2.766      3.712
  Name = 
  15 active torsions:
  status: ('A' for Active; 'I' for Inactive)
    1  A    between atoms: C_2  and  C_9
    2  A    between atoms: C_7  and  P_23
    3  A    between atoms: C_9  and  C_22
    4  A    between atoms: C_14  and  O_21
    5  A    between atoms: C_17  and  C_37
    6  A    between atoms: C_17  and  C_51
    7  A    between atoms: C_19  and  C_44
    8  A    between atoms: O_21  and  C_35
    9  A    between atoms: P_23  and  S_27
   10  A    between atoms: C_24  and  C_44
   11  A    between atoms: S_27  and  C_36
   12  A    between atoms: C_32  and  C_35
   13  A    between atoms: O_42  and  C_44
   14  A    between atoms: C_43  and  O_45
   15  A    between atoms: C_46  and  C_47
                            x       y       z     vdW  Elec       q    Type
                         _______ _______ _______ _____ _____    ______ ____

>  <TORSDO>
F 15

$$$$
=
 OpenBabel10222415323D

 54 59  0  0  1  0  0  0  0  0999 V2000
  188.7870  176.5370  138.6240 C   0  0  0  0  0  0  0  0  0  0  0  0
  187.7280  177.4560  138.5860 C   0  0  0  0  0  3  0  0  0  0  0  0
  188.5260  176.2110  136.2320 C   0  0  0  0  0  3  0  0  0  0  0  0
  189.2000  175.9190  137.4290 C   0  0  0  0  0  0  0  0  0  0  0  0
  187.0860  177.7770  137.3830 C   0  0  0  0  0  0  0  0  0  0  0  0
  187.4810  177.1360  136.2100 C   0  0  0  0  0  3  0  0  0  0  0  0
  185.9090  178.7050  137.3410 C   0  0  0  0  0  2  0  0  0  0  0  0
  182.6760  178.5450  141.2670 N   0  0  0  0  0  0  0  0  0  0  0  0
  184.3890  178.7090  139.4500 C   0  0  0  0  0  0  0  0  0  0  0  0
  182.7640  176.7100  138.2510 C   0  0  0  0  0  3  0  0  0  0  0  0
  183.5430  177.8370  140.3310 C   0  0  2  0  0  3  0  0  0  0  0  0
  182.5560  177.0900  139.5120 C   0  0  1  0  0  3  0  0  0  0  0  0
  183.9760  177.2070  137.5600 C   0  0  0  0  0  3  0  0  0  0  0  0
  184.9060  179.7690  139.8900 O   0  0  0  0  0  0  0  0  0  0  0  0
  181.4830  178.0400  141.1630 C   0  0  0  0  0  0  0  0  0  0  0  0
  184.7240  178.1890  138.0990 C   0  0  2  0  0  3  0  0  0  0  0  0
  181.3350  177.0960  140.1500 O   0  0  0  0  0  0  0  0  0  0  0  0
  180.4080  179.7630  142.5300 C   0  0  0  0  0  1  0  0  0  0  0  0
  180.4330  178.4590  141.9750 O   0  0  0  0  0  0  0  0  0  0  0  0
  189.4370  176.2050  139.8240 O   0  0  0  0  0  0  0  0  0  0  0  0
  191.5070  176.7420  140.7310 O   0  0  0  0  0  0  0  0  0  0  0  0
  190.2910  177.0350  140.5640 C   0  0  0  0  0  0  0  0  0  0  0  0
  189.7260  178.2630  141.1520 C   0  0  0  0  0  3  0  0  0  0  0  0
  188.8650  178.3290  142.1730 C   0  0  0  0  0  3  0  0  0  0  0  0
  188.7330  176.9320  144.2720 C   0  0  2  0  0  3  0  0  0  0  0  0
  186.6830  177.1190  145.7770 O   0  0  0  0  0  0  0  0  0  0  0  0
  186.9350  177.3700  143.2730 N   0  0  0  0  0  2  0  0  0  0  0  0
  188.3110  177.1330  142.8970 C   0  0  1  0  0  3  0  0  0  0  0  0
  187.3090  177.1420  144.6850 C   0  0  0  0  0  0  0  0  0  0  0  0
  191.3170  177.6680  144.3620 O   0  0  0  0  0  1  0  0  0  0  0  0
  189.8300  178.2530  145.0370 P   0  0  2  0  0  0  0  0  0  0  0  0
  190.0970  177.3100  146.9220 S   0  0  0  0  0  0  0  0  0  0  0  0
  189.3700  175.9940  146.9340 O   0  0  0  0  0  0  0  0  0  0  0  0
  191.5630  177.0660  147.1520 O   0  0  0  0  0  0  0  0  0  0  0  0
  188.0770  177.8590  148.6340 C   0  0  0  0  0  1  0  0  0  0  0  0
  189.4540  178.3410  148.2230 C   0  0  0  0  0  2  0  0  0  0  0  0
  190.2780  174.8660  137.4690 C   0  0  2  0  0  3  0  0  0  0  0  0
  192.7280  175.8560  137.0540 C   0  0  0  0  0  0  0  0  0  0  0  0
  191.6210  175.4270  137.2550 C   0  0  0  0  0  0  0  0  0  0  0  0
  194.0800  176.3470  136.7780 C   0  0  0  0  0  2  0  0  0  0  0  0
  197.1070  173.4320  137.7010 O   0  0  0  0  0  0  0  0  0  0  0  0
  194.6980  173.2130  136.0360 C   0  0  2  0  0  3  0  0  0  0  0  0
  196.2370  171.9690  137.5180 P   0  0  2  0  0  0  0  0  0  0  0  0
  196.7170  174.3060  134.9820 C   0  0  0  0  0  1  0  0  0  0  0  0
  194.6830  175.5660  135.6090 C   0  0  2  0  0  3  0  0  0  0  0  0
  195.2630  171.7990  138.6620 O   0  0  0  0  0  1  0  0  0  0  0  0
  197.3200  170.6730  137.5140 O   0  0  0  0  0  0  0  0  0  0  0  0
  196.2310  174.5120  137.4350 C   0  0  0  0  0  2  0  0  0  0  0  0
  195.4010  172.0000  136.0300 O   0  0  0  0  0  0  0  0  0  0  0  0
  193.7780  173.3950  134.8530 C   0  0  0  0  0  2  0  0  0  0  0  0
  193.5650  174.9040  134.7870 C   0  0  0  0  0  2  0  0  0  0  0  0
  195.6110  174.4240  136.0300 C   0  0  1  0  0  0  0  0  0  0  0  0
  188.9470  173.1490  137.0160 C   0  0  0  0  0  1  0  0  0  0  0  0
  190.0190  173.8900  136.5050 O   0  0  0  0  0  0  0  0  0  0  0  0
  1 20  1  0  0  0  0
  2  1  1  0  0  0  0
  3  4  1  0  0  0  0
  4 37  1  0  0  0  0
  4  1  2  0  0  0  0
  5  2  2  0  0  0  0
  6  3  2  0  0  0  0
  6  5  1  0  0  0  0
  7  5  1  0  0  0  0
  9 14  2  0  0  0  0
 11  9  1  6  0  0  0
 11  8  1  0  0  0  0
 12 10  1  6  0  0  0
 12 17  1  0  0  0  0
 12 11  1  0  0  0  0
 13 16  1  0  0  0  0
 13 10  2  0  0  0  0
 15  8  2  0  0  0  0
 15 19  1  0  0  0  0
 16  7  1  1  0  0  0
 16  9  1  0  0  0  0
 17 15  1  0  0  0  0
 19 18  1  0  0  0  0
 20 22  1  0  0  0  0
 22 21  2  0  0  0  0
 22 23  1  0  0  0  0
 23 24  2  0  0  0  0
 25 29  1  0  0  0  0
 25 31  1  1  0  0  0
 27 29  1  0  0  0  0
 28 24  1  1  0  0  0
 28 27  1  0  0  0  0
 28 25  1  0  0  0  0
 29 26  2  0  0  0  0
 31 30  1  6  0  0  0
 31 32  1  0  0  0  0
 32 33  2  0  0  0  0
 32 34  2  0  0  0  0
 32 36  1  0  0  0  0
 36 35  1  0  0  0  0
 37 39  1  6  0  0  0
 38 39  3  0  0  0  0
 40 38  1  0  0  0  0
 42 50  1  6  0  0  0
 43 47  2  6  0  0  0
 43 41  1  0  0  0  0
 43 46  1  0  0  0  0
 45 52  1  0  0  0  0
 45 40  1  1  0  0  0
 48 41  1  0  0  0  0
 49 42  1  0  0  0  0
 49 43  1  0  0  0  0
 51 50  1  0  0  0  0
 51 45  1  0  0  0  0
 52 44  1  6  0  0  0
 52 42  1  0  0  0  0
 52 48  1  0  0  0  0
 54 53  1  0  0  0  0
 54 37  1  0  0  0  0
M  END
>  <MODEL>
5

>  <REMARK>
 VINA RESULT:      -6.8      2.815      8.312
  Name = 
  15 active torsions:
  status: ('A' for Active; 'I' for Inactive)
    1  A    between atoms: C_2  and  C_9
    2  A    between atoms: C_7  and  P_23
    3  A    between atoms: C_9  and  C_22
    4  A    between atoms: C_14  and  O_21
    5  A    between atoms: C_17  and  C_37
    6  A    between atoms: C_17  and  C_51
    7  A    between atoms: C_19  and  C_44
    8  A    between atoms: O_21  and  C_35
    9  A    between atoms: P_23  and  S_27
   10  A    between atoms: C_24  and  C_44
   11  A    between atoms: S_27  and  C_36
   12  A    between atoms: C_32  and  C_35
   13  A    between atoms: O_42  and  C_44
   14  A    between atoms: C_43  and  O_45
   15  A    between atoms: C_46  and  C_47
                            x       y       z     vdW  Elec       q    Type
                         _______ _______ _______ _____ _____    ______ ____

>  <TORSDO>
F 15

$$$$
=
 OpenBabel10222415323D

 54 59  0  0  1  0  0  0  0  0999 V2000
  188.8470  175.5730  137.1020 C   0  0  0  0  0  0  0  0  0  0  0  0
  188.6460  176.6950  137.9210 C   0  0  0  0  0  3  0  0  0  0  0  0
  191.0350  175.2860  138.1160 C   0  0  0  0  0  3  0  0  0  0  0  0
  190.0500  174.8530  137.2130 C   0  0  0  0  0  0  0  0  0  0  0  0
  189.6130  177.0990  138.8500 C   0  0  0  0  0  0  0  0  0  0  0  0
  190.8150  176.3980  138.9300 C   0  0  0  0  0  3  0  0  0  0  0  0
  189.4390  178.3360  139.6810 C   0  0  0  0  0  2  0  0  0  0  0  0
  188.9510  176.8040  144.5080 N   0  0  0  0  0  0  0  0  0  0  0  0
  189.3460  177.4500  142.1230 C   0  0  0  0  0  0  0  0  0  0  0  0
  186.6220  178.2450  142.2800 C   0  0  0  0  0  3  0  0  0  0  0  0
  188.4550  176.7930  143.1360 C   0  0  2  0  0  3  0  0  0  0  0  0
  187.1860  177.5520  143.2690 C   0  0  1  0  0  3  0  0  0  0  0  0
  187.3830  178.4190  141.0210 C   0  0  0  0  0  3  0  0  0  0  0  0
  190.5970  177.3400  142.1900 O   0  0  0  0  0  0  0  0  0  0  0  0
  187.9900  177.2240  145.2750 C   0  0  0  0  0  0  0  0  0  0  0  0
  188.6880  178.0900  140.9540 C   0  0  2  0  0  3  0  0  0  0  0  0
  186.8480  177.6460  144.6010 O   0  0  0  0  0  0  0  0  0  0  0  0
  189.2450  177.9180  147.2590 C   0  0  0  0  0  1  0  0  0  0  0  0
  188.1270  177.2860  146.6590 O   0  0  0  0  0  0  0  0  0  0  0  0
  187.8870  175.1600  136.1640 O   0  0  0  0  0  0  0  0  0  0  0  0
  186.4010  176.5850  135.0880 O   0  0  0  0  0  0  0  0  0  0  0  0
  186.6130  175.7160  135.9790 C   0  0  0  0  0  0  0  0  0  0  0  0
  185.5230  175.2640  136.8620 C   0  0  0  0  0  3  0  0  0  0  0  0
  184.5850  176.0350  137.4210 C   0  0  0  0  0  3  0  0  0  0  0  0
  183.4450  178.2190  137.9720 C   0  0  2  0  0  3  0  0  0  0  0  0
  184.5400  179.8250  139.6240 O   0  0  0  0  0  0  0  0  0  0  0  0
  185.5470  178.1820  137.9850 N   0  0  0  0  0  2  0  0  0  0  0  0
  184.4930  177.5260  137.2450 C   0  0  1  0  0  3  0  0  0  0  0  0
  184.5180  178.9370  138.7310 C   0  0  0  0  0  0  0  0  0  0  0  0
  181.4340  176.4360  137.9210 O   0  0  0  0  0  1  0  0  0  0  0  0
  182.3930  177.1970  139.1490 P   0  0  2  0  0  0  0  0  0  0  0  0
  180.9640  178.7040  139.5950 S   0  0  0  0  0  0  0  0  0  0  0  0
  181.3230  179.3720  140.8930 O   0  0  0  0  0  0  0  0  0  0  0  0
  180.9650  179.7300  138.4960 O   0  0  0  0  0  0  0  0  0  0  0  0
  179.3000  177.0260  140.9090 C   0  0  0  0  0  1  0  0  0  0  0  0
  179.3400  177.9890  139.7390 C   0  0  0  0  0  2  0  0  0  0  0  0
  190.3160  173.6990  136.2800 C   0  0  2  0  0  3  0  0  0  0  0  0
  192.7340  173.8660  135.1480 C   0  0  0  0  0  0  0  0  0  0  0  0
  191.6360  173.7870  135.6380 C   0  0  0  0  0  0  0  0  0  0  0  0
  194.0860  173.9630  134.5940 C   0  0  0  0  0  2  0  0  0  0  0  0
  196.9820  175.1670  137.5390 O   0  0  0  0  0  0  0  0  0  0  0  0
  195.0110  172.9900  137.5850 C   0  0  2  0  0  3  0  0  0  0  0  0
  196.2490  174.6110  138.9830 P   0  0  2  0  0  0  0  0  0  0  0  0
  197.1540  172.5620  136.3160 C   0  0  0  0  0  1  0  0  0  0  0  0
  194.9710  172.8700  135.1980 C   0  0  2  0  0  3  0  0  0  0  0  0
  195.0580  175.4760  139.3260 O   0  0  0  0  0  0  0  0  0  0  0  0
  197.3720  174.6870  140.2430 O   0  0  0  0  0  1  0  0  0  0  0  0
  196.1310  174.8490  136.4530 C   0  0  0  0  0  2  0  0  0  0  0  0
  195.7600  172.9890  138.7710 O   0  0  0  0  0  0  0  0  0  0  0  0
  194.3660  171.6640  137.2660 C   0  0  0  0  0  2  0  0  0  0  0  0
  194.0960  171.7420  135.7670 C   0  0  0  0  0  2  0  0  0  0  0  0
  195.8400  173.3410  136.3650 C   0  0  1  0  0  0  0  0  0  0  0  0
  188.9110  172.3070  135.2730 C   0  0  0  0  0  1  0  0  0  0  0  0
  189.3220  173.6440  135.3020 O   0  0  0  0  0  0  0  0  0  0  0  0
  1  4  2  0  0  0  0
  1  2  1  0  0  0  0
  2  5  2  0  0  0  0
  3  6  2  0  0  0  0
  4  3  1  0  0  0  0
  5  6  1  0  0  0  0
  5  7  1  0  0  0  0
  8 15  2  0  0  0  0
  9 14  2  0  0  0  0
 11  9  1  6  0  0  0
 11 12  1  0  0  0  0
 11  8  1  0  0  0  0
 12 10  1  1  0  0  0
 12 17  1  0  0  0  0
 13 10  2  0  0  0  0
 15 19  1  0  0  0  0
 16  7  1  6  0  0  0
 16 13  1  0  0  0  0
 16  9  1  0  0  0  0
 17 15  1  0  0  0  0
 19 18  1  0  0  0  0
 20  1  1  0  0  0  0
 21 22  2  0  0  0  0
 22 20  1  0  0  0  0
 22 23  1  0  0  0  0
 23 24  2  0  0  0  0
 25 29  1  0  0  0  0
 25 31  1  1  0  0  0
 27 29  1  0  0  0  0
 28 24  1  1  0  0  0
 28 25  1  0  0  0  0
 28 27  1  0  0  0  0
 29 26  2  0  0  0  0
 31 30  1  6  0  0  0
 31 32  1  0  0  0  0
 32 36  1  0  0  0  0
 32 33  2  0  0  0  0
 34 32  2  0  0  0  0
 36 35  1  0  0  0  0
 37 39  1  6  0  0  0
 37  4  1  0  0  0  0
 38 39  3  0  0  0  0
 40 38  1  0  0  0  0
 41 43  1  0  0  0  0
 42 50  1  6  0  0  0
 42 49  1  0  0  0  0
 43 46  2  1  0  0  0
 43 47  1  0  0  0  0
 45 40  1  1  0  0  0
 45 51  1  0  0  0  0
 45 52  1  0  0  0  0
 48 41  1  0  0  0  0
 49 43  1  0  0  0  0
 51 50  1  0  0  0  0
 52 44  1  1  0  0  0
 52 48  1  0  0  0  0
 52 42  1  0  0  0  0
 53 54  1  0  0  0  0
 54 37  1  0  0  0  0
M  END
>  <MODEL>
6

>  <REMARK>
 VINA RESULT:      -6.8      3.504      9.575
  Name = 
  15 active torsions:
  status: ('A' for Active; 'I' for Inactive)
    1  A    between atoms: C_2  and  C_9
    2  A    between atoms: C_7  and  P_23
    3  A    between atoms: C_9  and  C_22
    4  A    between atoms: C_14  and  O_21
    5  A    between atoms: C_17  and  C_37
    6  A    between atoms: C_17  and  C_51
    7  A    between atoms: C_19  and  C_44
    8  A    between atoms: O_21  and  C_35
    9  A    between atoms: P_23  and  S_27
   10  A    between atoms: C_24  and  C_44
   11  A    between atoms: S_27  and  C_36
   12  A    between atoms: C_32  and  C_35
   13  A    between atoms: O_42  and  C_44
   14  A    between atoms: C_43  and  O_45
   15  A    between atoms: C_46  and  C_47
                            x       y       z     vdW  Elec       q    Type
                         _______ _______ _______ _____ _____    ______ ____

>  <TORSDO>
F 15

$$$$
=
 OpenBabel10222415323D

 54 59  0  0  1  0  0  0  0  0999 V2000
  188.8290  178.3560  139.6540 C   0  0  0  0  0  0  0  0  0  0  0  0
  187.6150  178.5690  140.3250 C   0  0  0  0  0  3  0  0  0  0  0  0
  189.6720  177.2330  141.6350 C   0  0  0  0  0  3  0  0  0  0  0  0
  189.8630  177.6670  140.3120 C   0  0  0  0  0  0  0  0  0  0  0  0
  187.4130  178.0970  141.6290 C   0  0  0  0  0  0  0  0  0  0  0  0
  188.4550  177.4430  142.2850 C   0  0  0  0  0  3  0  0  0  0  0  0
  186.1460  178.3780  142.3810 C   0  0  0  0  0  2  0  0  0  0  0  0
  181.2180  179.0520  141.3120 N   0  0  0  0  0  0  0  0  0  0  0  0
  183.5880  178.6230  141.9890 C   0  0  0  0  0  0  0  0  0  0  0  0
  184.0970  179.3460  139.2890 C   0  0  0  0  0  3  0  0  0  0  0  0
  182.4990  178.4430  140.9730 C   0  0  2  0  0  3  0  0  0  0  0  0
  182.8490  179.1560  139.7190 C   0  0  1  0  0  3  0  0  0  0  0  0
  185.2130  178.9800  140.1920 C   0  0  0  0  0  3  0  0  0  0  0  0
  183.3380  178.5810  143.2220 O   0  0  0  0  0  0  0  0  0  0  0  0
  180.8190  179.7390  140.2830 C   0  0  0  0  0  0  0  0  0  0  0  0
  184.9850  178.6850  141.4860 C   0  0  2  0  0  3  0  0  0  0  0  0
  181.7340  179.8040  139.2350 O   0  0  0  0  0  0  0  0  0  0  0  0
  179.1680  181.1940  141.3540 C   0  0  0  0  0  1  0  0  0  0  0  0
  179.5900  180.3910  140.2650 O   0  0  0  0  0  0  0  0  0  0  0  0
  189.0450  178.8270  138.3480 O   0  0  0  0  0  0  0  0  0  0  0  0
  187.1110  179.3020  137.1520 O   0  0  0  0  0  0  0  0  0  0  0  0
  188.1890  178.6540  137.2510 C   0  0  0  0  0  0  0  0  0  0  0  0
  188.5800  177.6830  136.2130 C   0  0  0  0  0  3  0  0  0  0  0  0
  188.2460  176.3890  136.1730 C   0  0  0  0  0  3  0  0  0  0  0  0
  186.0330  175.3840  136.8550 C   0  0  2  0  0  3  0  0  0  0  0  0
  185.7550  172.8480  136.8640 O   0  0  0  0  0  0  0  0  0  0  0  0
  187.7790  174.3010  137.3030 N   0  0  0  0  0  2  0  0  0  0  0  0
  187.4060  175.6940  137.2100 C   0  0  1  0  0  3  0  0  0  0  0  0
  186.3850  173.9330  136.9760 C   0  0  0  0  0  0  0  0  0  0  0  0
  185.1470  177.4490  135.3800 O   0  0  0  0  0  1  0  0  0  0  0  0
  185.4880  175.7720  135.0980 P   0  0  2  0  0  0  0  0  0  0  0  0
  183.4730  175.1350  135.3030 S   0  0  0  0  0  0  0  0  0  0  0  0
  183.1060  175.0830  136.7600 O   0  0  0  0  0  0  0  0  0  0  0  0
  182.5690  176.1110  134.6020 O   0  0  0  0  0  0  0  0  0  0  0  0
  182.3150  172.6950  135.4460 C   0  0  0  0  0  1  0  0  0  0  0  0
  183.2630  173.5150  134.5940 C   0  0  0  0  0  2  0  0  0  0  0  0
  191.2010  177.5080  139.6360 C   0  0  2  0  0  3  0  0  0  0  0  0
  191.2900  175.3200  138.1000 C   0  0  0  0  0  0  0  0  0  0  0  0
  191.2680  176.2980  138.8010 C   0  0  0  0  0  0  0  0  0  0  0  0
  191.2820  174.1460  137.2230 C   0  0  0  0  0  2  0  0  0  0  0  0
  195.4960  174.1040  138.0880 O   0  0  0  0  0  0  0  0  0  0  0  0
  193.9660  172.7150  136.0010 C   0  0  2  0  0  3  0  0  0  0  0  0
  195.9560  172.5770  137.4640 P   0  0  2  0  0  0  0  0  0  0  0  0
  194.5430  175.1370  135.5720 C   0  0  0  0  0  1  0  0  0  0  0  0
  192.2420  174.3700  136.0530 C   0  0  2  0  0  3  0  0  0  0  0  0
  195.4300  171.4740  138.3530 O   0  0  0  0  0  1  0  0  0  0  0  0
  197.6410  172.4850  137.4010 O   0  0  0  0  0  0  0  0  0  0  0  0
  194.1050  174.2710  137.8850 C   0  0  0  0  0  2  0  0  0  0  0  0
  195.3300  172.4110  135.8830 O   0  0  0  0  0  0  0  0  0  0  0  0
  193.1800  172.5070  134.7300 C   0  0  0  0  0  2  0  0  0  0  0  0
  191.9370  173.3700  134.9260 C   0  0  0  0  0  2  0  0  0  0  0  0
  193.7160  174.1560  136.4020 C   0  0  1  0  0  0  0  0  0  0  0  0
  193.4070  177.4850  139.8670 C   0  0  0  0  0  1  0  0  0  0  0  0
  192.2130  177.4720  140.5960 O   0  0  0  0  0  0  0  0  0  0  0  0
  1  4  2  0  0  0  0
  1  2  1  0  0  0  0
  2  5  2  0  0  0  0
  3  6  2  0  0  0  0
  4  3  1  0  0  0  0
  5  6  1  0  0  0  0
  5  7  1  0  0  0  0
  9 14  2  0  0  0  0
 10 13  2  0  0  0  0
 11  8  1  1  0  0  0
 11  9  1  0  0  0  0
 12 10  1  1  0  0  0
 12 11  1  0  0  0  0
 13 16  1  0  0  0  0
 15  8  2  0  0  0  0
 16  9  1  0  0  0  0
 16  7  1  6  0  0  0
 17 12  1  0  0  0  0
 17 15  1  0  0  0  0
 19 15  1  0  0  0  0
 19 18  1  0  0  0  0
 20  1  1  0  0  0  0
 21 22  2  0  0  0  0
 22 20  1  0  0  0  0
 23 22  1  0  0  0  0
 24 23  2  0  0  0  0
 25 31  1  6  0  0  0
 25 29  1  0  0  0  0
 25 28  1  0  0  0  0
 26 29  2  0  0  0  0
 28 24  1  6  0  0  0
 28 27  1  0  0  0  0
 29 27  1  0  0  0  0
 31 32  1  0  0  0  0
 31 30  1  1  0  0  0
 32 33  2  0  0  0  0
 34 32  2  0  0  0  0
 36 32  1  0  0  0  0
 36 35  1  0  0  0  0
 37 39  1  1  0  0  0
 37  4  1  0  0  0  0
 37 54  1  0  0  0  0
 38 39  3  0  0  0  0
 40 38  1  0  0  0  0
 42 50  1  6  0  0  0
 42 52  1  0  0  0  0
 43 47  2  6  0  0  0
 43 41  1  0  0  0  0
 43 46  1  0  0  0  0
 45 52  1  0  0  0  0
 45 40  1  1  0  0  0
 48 41  1  0  0  0  0
 49 42  1  0  0  0  0
 49 43  1  0  0  0  0
 50 51  1  0  0  0  0
 51 45  1  0  0  0  0
 52 44  1  6  0  0  0
 52 48  1  0  0  0  0
 53 54  1  0  0  0  0
M  END
>  <MODEL>
7

>  <REMARK>
 VINA RESULT:      -6.8      3.696      7.711
  Name = 
  15 active torsions:
  status: ('A' for Active; 'I' for Inactive)
    1  A    between atoms: C_2  and  C_9
    2  A    between atoms: C_7  and  P_23
    3  A    between atoms: C_9  and  C_22
    4  A    between atoms: C_14  and  O_21
    5  A    between atoms: C_17  and  C_37
    6  A    between atoms: C_17  and  C_51
    7  A    between atoms: C_19  and  C_44
    8  A    between atoms: O_21  and  C_35
    9  A    between atoms: P_23  and  S_27
   10  A    between atoms: C_24  and  C_44
   11  A    between atoms: S_27  and  C_36
   12  A    between atoms: C_32  and  C_35
   13  A    between atoms: O_42  and  C_44
   14  A    between atoms: C_43  and  O_45
   15  A    between atoms: C_46  and  C_47
                            x       y       z     vdW  Elec       q    Type
                         _______ _______ _______ _____ _____    ______ ____

>  <TORSDO>
F 15

$$$$
=
 OpenBabel10222415323D

 54 59  0  0  1  0  0  0  0  0999 V2000
  188.6000  175.4360  135.9820 C   0  0  0  0  0  0  0  0  0  0  0  0
  187.5900  174.7850  135.2570 C   0  0  0  0  0  3  0  0  0  0  0  0
  189.2880  173.2820  136.8660 C   0  0  0  0  0  3  0  0  0  0  0  0
  189.4680  174.6730  136.7830 C   0  0  0  0  0  0  0  0  0  0  0  0
  187.4410  173.3930  135.3090 C   0  0  0  0  0  0  0  0  0  0  0  0
  188.2860  172.6480  136.1300 C   0  0  0  0  0  3  0  0  0  0  0  0
  186.3240  172.6930  134.5940 C   0  0  0  0  0  2  0  0  0  0  0  0
  181.9230  174.2200  136.6420 N   0  0  0  0  0  0  0  0  0  0  0  0
  184.1300  173.6510  135.6080 C   0  0  0  0  0  0  0  0  0  0  0  0
  183.6540  171.1500  136.8710 C   0  0  0  0  0  3  0  0  0  0  0  0
  183.2360  173.6040  136.8120 C   0  0  2  0  0  3  0  0  0  0  0  0
  182.8710  172.1990  137.1240 C   0  0  1  0  0  3  0  0  0  0  0  0
  184.8850  171.3680  136.0770 C   0  0  0  0  0  3  0  0  0  0  0  0
  184.1580  174.6600  134.8580 O   0  0  0  0  0  0  0  0  0  0  0  0
  181.0310  173.3790  137.0740 C   0  0  0  0  0  0  0  0  0  0  0  0
  185.0950  172.5330  135.4350 C   0  0  2  0  0  3  0  0  0  0  0  0
  181.5340  172.1360  137.4470 O   0  0  0  0  0  0  0  0  0  0  0  0
  179.1060  174.3640  138.2220 C   0  0  0  0  0  1  0  0  0  0  0  0
  179.6770  173.6970  137.1090 O   0  0  0  0  0  0  0  0  0  0  0  0
  188.7570  176.8320  135.9410 O   0  0  0  0  0  0  0  0  0  0  0  0
  187.2350  177.9560  134.5960 O   0  0  0  0  0  0  0  0  0  0  0  0
  187.7420  177.7760  135.7370 C   0  0  0  0  0  0  0  0  0  0  0  0
  187.2840  178.5650  136.8960 C   0  0  0  0  0  3  0  0  0  0  0  0
  186.1660  178.3600  137.6000 C   0  0  0  0  0  3  0  0  0  0  0  0
  183.8930  177.3410  138.0080 C   0  0  2  0  0  3  0  0  0  0  0  0
  182.0470  177.6550  136.2750 O   0  0  0  0  0  0  0  0  0  0  0  0
  184.5580  177.4850  136.0190 N   0  0  0  0  0  2  0  0  0  0  0  0
  185.1660  177.2740  137.3130 C   0  0  1  0  0  3  0  0  0  0  0  0
  183.2340  177.5280  136.6760 C   0  0  0  0  0  0  0  0  0  0  0  0
  184.3480  178.1970  140.5160 O   0  0  0  0  0  1  0  0  0  0  0  0
  183.5840  178.8420  139.0980 P   0  0  2  0  0  0  0  0  0  0  0  0
  181.6130  178.3280  139.6980 S   0  0  0  0  0  0  0  0  0  0  0  0
  180.6370  178.7450  138.6330 O   0  0  0  0  0  0  0  0  0  0  0  0
  181.5250  176.8390  139.8910 O   0  0  0  0  0  0  0  0  0  0  0  0
  180.4480  178.2020  142.1340 C   0  0  0  0  0  1  0  0  0  0  0  0
  181.1970  179.1510  141.2210 C   0  0  0  0  0  2  0  0  0  0  0  0
  190.5010  175.3670  137.6340 C   0  0  2  0  0  3  0  0  0  0  0  0
  189.4460  177.1000  139.3780 C   0  0  0  0  0  0  0  0  0  0  0  0
  189.9000  176.3160  138.5850 C   0  0  0  0  0  0  0  0  0  0  0  0
  188.9350  178.0630  140.3560 C   0  0  0  0  0  2  0  0  0  0  0  0
  191.5600  176.4190  143.3420 O   0  0  0  0  0  0  0  0  0  0  0  0
  189.1470  178.0680  143.6280 C   0  0  2  0  0  3  0  0  0  0  0  0
  191.3390  177.5220  144.6330 P   0  0  2  0  0  0  0  0  0  0  0  0
  188.8000  175.5970  143.2270 C   0  0  0  0  0  1  0  0  0  0  0  0
  188.2890  177.3170  141.5260 C   0  0  2  0  0  3  0  0  0  0  0  0
  192.0020  178.8410  144.3070 O   0  0  0  0  0  0  0  0  0  0  0  0
  192.0300  176.8840  146.0350 O   0  0  0  0  0  1  0  0  0  0  0  0
  190.7540  176.8340  142.2540 C   0  0  0  0  0  2  0  0  0  0  0  0
  189.6660  177.7490  144.8910 O   0  0  0  0  0  0  0  0  0  0  0  0
  187.6840  178.4370  143.6420 C   0  0  0  0  0  2  0  0  0  0  0  0
  187.2370  178.2110  142.2010 C   0  0  0  0  0  2  0  0  0  0  0  0
  189.2670  176.9270  142.6360 C   0  0  1  0  0  0  0  0  0  0  0  0
  192.4600  176.4080  137.6650 C   0  0  0  0  0  1  0  0  0  0  0  0
  191.4120  176.0370  136.8160 O   0  0  0  0  0  0  0  0  0  0  0  0
  1  4  1  0  0  0  0
  2  5  1  0  0  0  0
  2  1  2  0  0  0  0
  4  3  2  0  0  0  0
  4 37  1  0  0  0  0
  5  6  2  0  0  0  0
  6  3  1  0  0  0  0
  7  5  1  0  0  0  0
  8 11  1  0  0  0  0
  8 15  2  0  0  0  0
 11  9  1  6  0  0  0
 11 12  1  0  0  0  0
 12 10  1  6  0  0  0
 12 17  1  0  0  0  0
 13 10  2  0  0  0  0
 14  9  2  0  0  0  0
 15 19  1  0  0  0  0
 15 17  1  0  0  0  0
 16  7  1  1  0  0  0
 16  9  1  0  0  0  0
 16 13  1  0  0  0  0
 19 18  1  0  0  0  0
 20  1  1  0  0  0  0
 21 22  2  0  0  0  0
 22 20  1  0  0  0  0
 22 23  1  0  0  0  0
 23 24  2  0  0  0  0
 25 31  1  1  0  0  0
 26 29  2  0  0  0  0
 27 29  1  0  0  0  0
 27 28  1  0  0  0  0
 28 24  1  1  0  0  0
 28 25  1  0  0  0  0
 29 25  1  0  0  0  0
 31 32  1  0  0  0  0
 31 30  1  1  0  0  0
 32 34  2  0  0  0  0
 32 36  1  0  0  0  0
 33 32  2  0  0  0  0
 36 35  1  0  0  0  0
 37 39  1  1  0  0  0
 38 40  1  0  0  0  0
 39 38  3  0  0  0  0
 41 43  1  0  0  0  0
 42 50  1  1  0  0  0
 42 49  1  0  0  0  0
 43 46  2  6  0  0  0
 43 49  1  0  0  0  0
 43 47  1  0  0  0  0
 45 40  1  6  0  0  0
 45 51  1  0  0  0  0
 45 52  1  0  0  0  0
 48 52  1  0  0  0  0
 48 41  1  0  0  0  0
 51 50  1  0  0  0  0
 52 44  1  1  0  0  0
 52 42  1  0  0  0  0
 54 37  1  0  0  0  0
 54 53  1  0  0  0  0
M  END
>  <MODEL>
8

>  <REMARK>
 VINA RESULT:      -6.7      3.865      7.799
  Name = 
  15 active torsions:
  status: ('A' for Active; 'I' for Inactive)
    1  A    between atoms: C_2  and  C_9
    2  A    between atoms: C_7  and  P_23
    3  A    between atoms: C_9  and  C_22
    4  A    between atoms: C_14  and  O_21
    5  A    between atoms: C_17  and  C_37
    6  A    between atoms: C_17  and  C_51
    7  A    between atoms: C_19  and  C_44
    8  A    between atoms: O_21  and  C_35
    9  A    between atoms: P_23  and  S_27
   10  A    between atoms: C_24  and  C_44
   11  A    between atoms: S_27  and  C_36
   12  A    between atoms: C_32  and  C_35
   13  A    between atoms: O_42  and  C_44
   14  A    between atoms: C_43  and  O_45
   15  A    between atoms: C_46  and  C_47
                            x       y       z     vdW  Elec       q    Type
                         _______ _______ _______ _____ _____    ______ ____

>  <TORSDO>
F 15

$$$$
=
 OpenBabel10222415323D

 54 59  0  0  1  0  0  0  0  0999 V2000
  190.1320  176.8100  136.8160 C   0  0  0  0  0  0  0  0  0  0  0  0
  191.3230  176.2310  136.3500 C   0  0  0  0  0  3  0  0  0  0  0  0
  188.8970  175.3750  135.2960 C   0  0  0  0  0  3  0  0  0  0  0  0
  188.9050  176.3650  136.2920 C   0  0  0  0  0  0  0  0  0  0  0  0
  191.3090  175.2140  135.3870 C   0  0  0  0  0  0  0  0  0  0  0  0
  190.0900  174.8020  134.8510 C   0  0  0  0  0  3  0  0  0  0  0  0
  192.5770  174.6370  134.8310 C   0  0  0  0  0  2  0  0  0  0  0  0
  196.8960  175.2430  137.4510 N   0  0  0  0  0  0  0  0  0  0  0  0
  194.8500  175.0460  136.0240 C   0  0  0  0  0  0  0  0  0  0  0  0
  194.2740  172.9040  137.8000 C   0  0  0  0  0  3  0  0  0  0  0  0
  195.9850  174.3620  136.7280 C   0  0  2  0  0  3  0  0  0  0  0  0
  195.4640  173.5040  137.8220 C   0  0  1  0  0  3  0  0  0  0  0  0
  193.3370  173.2430  136.7040 C   0  0  0  0  0  3  0  0  0  0  0  0
  195.0140  176.1550  135.4520 O   0  0  0  0  0  0  0  0  0  0  0  0
  197.0580  174.7550  138.6440 C   0  0  0  0  0  0  0  0  0  0  0  0
  193.5790  174.2880  135.8890 C   0  0  2  0  0  3  0  0  0  0  0  0
  196.2620  173.6500  138.9350 O   0  0  0  0  0  0  0  0  0  0  0  0
  197.6770  175.2610  140.9580 C   0  0  0  0  0  1  0  0  0  0  0  0
  197.9280  175.3330  139.5650 O   0  0  0  0  0  0  0  0  0  0  0  0
  190.1340  177.8330  137.7790 O   0  0  0  0  0  0  0  0  0  0  0  0
  188.9640  178.7550  139.5600 O   0  0  0  0  0  0  0  0  0  0  0  0
  189.5690  177.7670  139.0600 C   0  0  0  0  0  0  0  0  0  0  0  0
  189.7070  176.5100  139.8170 C   0  0  0  0  0  3  0  0  0  0  0  0
  190.2150  176.3770  141.0460 C   0  0  0  0  0  3  0  0  0  0  0  0
  190.0940  177.7820  143.1410 C   0  0  2  0  0  3  0  0  0  0  0  0
  191.7780  177.3870  145.0150 O   0  0  0  0  0  0  0  0  0  0  0  0
  191.9910  177.1290  142.5080 N   0  0  0  0  0  2  0  0  0  0  0  0
  190.7500  177.5140  141.8730 C   0  0  1  0  0  3  0  0  0  0  0  0
  191.3770  177.4190  143.8220 C   0  0  0  0  0  0  0  0  0  0  0  0
  187.4530  177.4090  142.8110 O   0  0  0  0  0  1  0  0  0  0  0  0
  188.7270  176.6040  143.6680 P   0  0  2  0  0  0  0  0  0  0  0  0
  188.3020  177.5190  145.5370 S   0  0  0  0  0  0  0  0  0  0  0  0
  188.7540  176.6200  146.6540 O   0  0  0  0  0  0  0  0  0  0  0  0
  189.0380  178.8270  145.6280 O   0  0  0  0  0  0  0  0  0  0  0  0
  186.2650  178.5350  146.9970 C   0  0  0  0  0  1  0  0  0  0  0  0
  186.5530  177.8090  145.6980 C   0  0  0  0  0  2  0  0  0  0  0  0
  187.6250  177.0370  136.7200 C   0  0  2  0  0  3  0  0  0  0  0  0
  185.6120  175.3160  137.0940 C   0  0  0  0  0  0  0  0  0  0  0  0
  186.5310  176.0780  136.9370 C   0  0  0  0  0  0  0  0  0  0  0  0
  184.4690  174.4150  137.2560 C   0  0  0  0  0  2  0  0  0  0  0  0
  181.8810  176.5920  139.9150 O   0  0  0  0  0  0  0  0  0  0  0  0
  182.9970  177.3450  137.3050 C   0  0  2  0  0  3  0  0  0  0  0  0
  182.2480  178.2110  139.4970 P   0  0  2  0  0  0  0  0  0  0  0  0
  180.9620  175.8460  137.2870 C   0  0  0  0  0  1  0  0  0  0  0  0
  183.2170  175.0550  136.6510 C   0  0  2  0  0  3  0  0  0  0  0  0
  183.6220  178.5800  140.0060 O   0  0  0  0  0  0  0  0  0  0  0  0
  181.1040  179.2400  140.1920 O   0  0  0  0  0  1  0  0  0  0  0  0
  182.6740  175.7320  139.1180 C   0  0  0  0  0  2  0  0  0  0  0  0
  182.1840  178.3760  137.7980 O   0  0  0  0  0  0  0  0  0  0  0  0
  183.1880  177.3770  135.8090 C   0  0  0  0  0  2  0  0  0  0  0  0
  183.6070  175.9510  135.4650 C   0  0  0  0  0  2  0  0  0  0  0  0
  182.4510  175.9640  137.6140 C   0  0  1  0  0  0  0  0  0  0  0  0
  187.2580  179.2050  136.4250 C   0  0  0  0  0  1  0  0  0  0  0  0
  187.2420  177.9750  135.7590 O   0  0  0  0  0  0  0  0  0  0  0  0
  1 20  1  0  0  0  0
  2  1  1  0  0  0  0
  3  4  1  0  0  0  0
  4 37  1  0  0  0  0
  4  1  2  0  0  0  0
  5  2  2  0  0  0  0
  6  3  2  0  0  0  0
  6  5  1  0  0  0  0
  7  5  1  0  0  0  0
  8 15  2  0  0  0  0
 11  9  1  1  0  0  0
 11  8  1  0  0  0  0
 11 12  1  0  0  0  0
 12 10  1  1  0  0  0
 12 17  1  0  0  0  0
 13 10  2  0  0  0  0
 14  9  2  0  0  0  0
 15 17  1  0  0  0  0
 15 19  1  0  0  0  0
 16  7  1  6  0  0  0
 16  9  1  0  0  0  0
 16 13  1  0  0  0  0
 19 18  1  0  0  0  0
 20 22  1  0  0  0  0
 22 21  2  0  0  0  0
 22 23  1  0  0  0  0
 23 24  2  0  0  0  0
 25 31  1  1  0  0  0
 25 29  1  0  0  0  0
 27 29  1  0  0  0  0
 28 24  1  1  0  0  0
 28 27  1  0  0  0  0
 28 25  1  0  0  0  0
 29 26  2  0  0  0  0
 31 30  1  6  0  0  0
 31 32  1  0  0  0  0
 32 34  2  0  0  0  0
 32 36  1  0  0  0  0
 32 33  2  0  0  0  0
 36 35  1  0  0  0  0
 37 39  1  6  0  0  0
 38 40  1  0  0  0  0
 39 38  3  0  0  0  0
 42 50  1  6  0  0  0
 42 52  1  0  0  0  0
 42 49  1  0  0  0  0
 43 41  1  0  0  0  0
 43 46  2  1  0  0  0
 43 47  1  0  0  0  0
 45 40  1  1  0  0  0
 45 52  1  0  0  0  0
 48 41  1  0  0  0  0
 49 43  1  0  0  0  0
 51 50  1  0  0  0  0
 51 45  1  0  0  0  0
 52 44  1  6  0  0  0
 52 48  1  0  0  0  0
 54 53  1  0  0  0  0
 54 37  1  0  0  0  0
M  END
>  <MODEL>
9

>  <REMARK>
 VINA RESULT:      -6.7      3.688     10.965
  Name = 
  15 active torsions:
  status: ('A' for Active; 'I' for Inactive)
    1  A    between atoms: C_2  and  C_9
    2  A    between atoms: C_7  and  P_23
    3  A    between atoms: C_9  and  C_22
    4  A    between atoms: C_14  and  O_21
    5  A    between atoms: C_17  and  C_37
    6  A    between atoms: C_17  and  C_51
    7  A    between atoms: C_19  and  C_44
    8  A    between atoms: O_21  and  C_35
    9  A    between atoms: P_23  and  S_27
   10  A    between atoms: C_24  and  C_44
   11  A    between atoms: S_27  and  C_36
   12  A    between atoms: C_32  and  C_35
   13  A    between atoms: O_42  and  C_44
   14  A    between atoms: C_43  and  O_45
   15  A    between atoms: C_46  and  C_47
                            x       y       z     vdW  Elec       q    Type
                         _______ _______ _______ _____ _____    ______ ____

>  <TORSDO>
F 15

$$$$
