=
 OpenBabel10222417533D

 53 58  0  0  1  0  0  0  0  0999 V2000
  184.0250  178.5330  140.1940 C   0  0  0  0  0  3  0  0  0  0  0  0
  181.2310  179.1930  140.2160 C   0  0  0  0  0  2  0  0  0  0  0  0
  181.7700  178.3140  139.0870 C   0  0  1  0  0  3  0  0  0  0  0  0
  183.2610  178.6360  138.9040 C   0  0  2  0  0  3  0  0  0  0  0  0
  181.9580  178.9190  141.5380 C   0  0  0  0  0  2  0  0  0  0  0  0
  183.4540  178.7280  141.3890 C   0  0  0  0  0  0  0  0  0  0  0  0
  183.8310  178.7900  143.8100 C   0  0  0  0  0  3  0  0  0  0  0  0
  184.3030  178.6030  142.5810 C   0  0  0  0  0  3  0  0  0  0  0  0
  184.6900  178.6480  144.9860 C   0  0  0  0  0  0  0  0  0  0  0  0
  185.9220  178.1080  144.9430 N   0  0  0  0  0  0  0  0  0  0  0  0
  184.3720  179.0360  146.1960 O   0  0  0  0  0  0  0  0  0  0  0  0
  186.2990  178.2150  146.2360 C   0  0  0  0  0  0  0  0  0  0  0  0
  185.3520  178.7830  147.0070 N   0  0  0  0  0  0  0  0  0  0  0  0
  187.6060  177.7800  146.7360 C   0  0  0  0  0  0  0  0  0  0  0  0
  187.6750  177.0730  147.7800 O   0  0  0  0  0  0  0  0  0  0  0  0
  188.7980  178.1540  146.0390 N   0  0  0  0  0  2  0  0  0  0  0  0
  190.1150  177.6650  146.4270 C   0  0  0  0  0  2  0  0  0  0  0  0
  190.6420  176.6800  145.3920 C   0  0  2  0  0  3  0  0  0  0  0  0
  191.8530  175.9500  145.9470 C   0  0  0  0  0  1  0  0  0  0  0  0
  191.5880  178.3840  144.0740 O   0  0  0  0  0  0  0  0  0  0  0  0
  190.9050  177.3730  144.0730 C   0  0  0  0  0  0  0  0  0  0  0  0
  190.3090  175.4840  142.7340 O   0  0  0  0  0  1  0  0  0  0  0  0
  190.3690  176.8790  142.7570 C   0  0  1  0  0  3  0  0  0  0  0  0
  189.0450  177.4480  142.4760 C   0  0  0  0  0  0  0  0  0  0  0  0
  188.0020  177.8990  142.2570 N   0  0  0  0  0  0  0  0  0  0  0  0
  181.5230  176.8220  139.3620 C   0  0  0  0  0  2  0  0  0  0  0  0
  179.5580  176.0420  138.1020 N   0  0  0  0  0  2  0  0  0  0  0  0
  179.1280  175.4640  136.8290 C   0  0  0  0  0  2  0  0  0  0  0  0
  181.0220  176.0590  138.1380 C   0  0  2  0  0  3  0  0  0  0  0  0
  181.0940  173.9320  136.8270 C   0  0  1  0  0  3  0  0  0  0  0  0
  179.5730  174.0060  136.7380 C   0  0  0  0  0  2  0  0  0  0  0  0
  181.5790  174.6340  138.0940 C   0  0  0  0  0  2  0  0  0  0  0  0
  181.5130  172.5380  136.8380 N   0  0  0  0  0  2  0  0  0  0  0  0
  182.7890  172.1100  136.3630 C   0  0  0  0  0  0  0  0  0  0  0  0
  183.6080  172.9450  135.8850 O   0  0  0  0  0  0  0  0  0  0  0  0
  183.6130  170.0940  135.4200 O   0  0  0  0  0  0  0  0  0  0  0  0
  183.1360  170.6900  136.4240 C   0  0  0  0  0  3  0  0  0  0  0  0
  183.9260  177.8020  137.8150 C   0  0  0  0  0  2  0  0  0  0  0  0
  187.9820  175.3250  135.9180 C   0  0  0  0  0  3  0  0  0  0  0  0
  185.3630  177.5590  138.1470 C   0  0  0  0  0  3  0  0  0  0  0  0
  186.2570  177.0130  137.3130 C   0  0  0  0  0  0  0  0  0  0  0  0
  187.6720  176.8470  137.7990 C   0  0  1  0  0  3  0  0  0  0  0  0
  186.7850  175.8130  135.2970 N   0  0  0  0  0  0  0  0  0  0  0  0
  188.3630  175.7710  137.0800 N   0  0  0  0  0  0  0  0  0  0  0  0
  185.9530  176.5970  135.9200 C   0  0  0  0  0  0  0  0  0  0  0  0
  189.7680  178.2380  138.2690 C   0  0  1  0  0  3  0  0  0  0  0  0
  188.4430  178.1600  137.6130 C   0  0  2  0  0  3  0  0  0  0  0  0
  188.5880  178.8430  138.9100 N   0  0  0  0  0  2  0  0  0  0  0  0
  190.1920  177.0070  139.0640 C   0  0  2  0  0  3  0  0  0  0  0  0
  191.5750  177.1820  139.5620 C   0  0  0  0  0  2  0  0  0  0  0  0
  191.2930  176.4080  138.4200 O   0  0  0  0  0  0  0  0  0  0  0  0
  184.7940  177.0430  135.2750 O   0  0  0  0  0  0  0  0  0  0  0  0
  183.8780  176.1510  134.6520 C   0  0  0  0  0  1  0  0  0  0  0  0
  1  6  2  0  0  0  0
  2  5  1  0  0  0  0
  3 26  1  1  0  0  0
  3  2  1  0  0  0  0
  4 38  1  6  0  0  0
  4  3  1  0  0  0  0
  4  1  1  0  0  0  0
  6  5  1  0  0  0  0
  6  8  1  0  0  0  0
  7  9  1  0  0  0  0
  8  7  2  0  0  0  0
  9 11  1  0  0  0  0
 10  9  2  0  0  0  0
 10 12  1  0  0  0  0
 11 13  1  0  0  0  0
 12 14  1  0  0  0  0
 12 13  2  0  0  0  0
 14 15  2  0  0  0  0
 16 17  1  0  0  0  0
 16 14  1  0  0  0  0
 18 19  1  1  0  0  0
 18 17  1  0  0  0  0
 21 20  2  0  0  0  0
 21 18  1  0  0  0  0
 23 22  1  1  0  0  0
 23 21  1  0  0  0  0
 24 23  1  0  0  0  0
 25 24  3  0  0  0  0
 27 29  1  0  0  0  0
 28 27  1  0  0  0  0
 29 26  1  1  0  0  0
 30 33  1  1  0  0  0
 30 32  1  0  0  0  0
 31 30  1  0  0  0  0
 31 28  1  0  0  0  0
 32 29  1  0  0  0  0
 34 37  1  0  0  0  0
 34 33  1  0  0  0  0
 35 34  2  0  0  0  0
 36 37  2  0  0  0  0
 38 40  1  0  0  0  0
 39 44  2  0  0  0  0
 41 42  1  0  0  0  0
 41 40  2  0  0  0  0
 42 44  1  6  0  0  0
 43 39  1  0  0  0  0
 43 45  2  0  0  0  0
 45 41  1  0  0  0  0
 46 48  1  1  0  0  0
 46 49  1  0  0  0  0
 47 42  1  0  0  0  0
 47 46  1  0  0  0  0
 47 48  1  1  0  0  0
 49 50  1  1  0  0  0
 51 49  1  0  0  0  0
 51 50  1  0  0  0  0
 52 45  1  0  0  0  0
 53 52  1  0  0  0  0
M  END
>  <MODEL>
1

>  <REMARK>
 VINA RESULT:      -7.8      0.000      0.000
  Name = 
  17 active torsions:
  status: ('A' for Active; 'I' for Inactive)
    1  A    between atoms: C_2  and  C_9
    2  A    between atoms: C_5  and  C_53
    3  A    between atoms: C_7  and  C_47
    4  A    between atoms: C_11  and  C_48
    5  A    between atoms: C_12  and  C_41
    6  A    between atoms: C_13  and  C_19
    7  A    between atoms: C_14  and  C_46
    8  A    between atoms: N_15  and  C_18
    9  A    between atoms: C_16  and  C_40
   10  A    between atoms: C_20  and  C_32
   11  A    between atoms: C_21  and  C_49
   12  A    between atoms: C_21  and  C_51
   13  A    between atoms: O_27  and  C_44
   14  A    between atoms: C_30  and  C_46
   15  A    between atoms: N_31  and  C_51
   16  A    between atoms: C_33  and  C_48
   17  A    between atoms: C_41  and  C_49
                            x       y       z     vdW  Elec       q    Type
                         _______ _______ _______ _____ _____    ______ ____

>  <TORSDO>
F 17

$$$$
=
 OpenBabel10222417533D

 53 58  0  0  1  0  0  0  0  0999 V2000
  185.7130  178.0060  139.7180 C   0  0  0  0  0  3  0  0  0  0  0  0
  183.6950  179.8890  138.9280 C   0  0  0  0  0  2  0  0  0  0  0  0
  183.8870  178.6230  138.0920 C   0  0  1  0  0  3  0  0  0  0  0  0
  185.3370  178.1510  138.2700 C   0  0  2  0  0  3  0  0  0  0  0  0
  183.9450  179.6230  140.4170 C   0  0  0  0  0  2  0  0  0  0  0  0
  185.1320  178.7200  140.6900 C   0  0  0  0  0  0  0  0  0  0  0  0
  184.8010  178.7290  143.1180 C   0  0  0  0  0  3  0  0  0  0  0  0
  185.5820  178.4930  142.0680 C   0  0  0  0  0  3  0  0  0  0  0  0
  185.2640  178.4840  144.4840 C   0  0  0  0  0  0  0  0  0  0  0  0
  186.5440  178.2100  144.7950 N   0  0  0  0  0  0  0  0  0  0  0  0
  184.5010  178.5140  145.5500 O   0  0  0  0  0  0  0  0  0  0  0  0
  186.4660  178.0840  146.1370 C   0  0  0  0  0  0  0  0  0  0  0  0
  185.2160  178.2700  146.6040 N   0  0  0  0  0  0  0  0  0  0  0  0
  187.6210  177.8000  146.9930 C   0  0  0  0  0  0  0  0  0  0  0  0
  187.4560  177.6100  148.2290 O   0  0  0  0  0  0  0  0  0  0  0  0
  188.9320  177.7330  146.4220 N   0  0  0  0  0  2  0  0  0  0  0  0
  190.1030  177.3510  147.2010 C   0  0  0  0  0  2  0  0  0  0  0  0
  190.9850  176.4000  146.4020 C   0  0  2  0  0  3  0  0  0  0  0  0
  192.1420  175.9240  147.2640 C   0  0  0  0  0  1  0  0  0  0  0  0
  191.8650  178.1720  145.1280 O   0  0  0  0  0  0  0  0  0  0  0  0
  191.4210  177.0350  145.1000 C   0  0  0  0  0  0  0  0  0  0  0  0
  191.9110  175.0640  143.8380 O   0  0  0  0  0  1  0  0  0  0  0  0
  191.3400  176.3370  143.7700 C   0  0  1  0  0  3  0  0  0  0  0  0
  189.9510  176.2450  143.3030 C   0  0  0  0  0  0  0  0  0  0  0  0
  188.8560  176.1720  142.9370 N   0  0  0  0  0  0  0  0  0  0  0  0
  182.8680  177.5360  138.4670 C   0  0  0  0  0  2  0  0  0  0  0  0
  180.7920  176.7170  137.4270 N   0  0  0  0  0  2  0  0  0  0  0  0
  179.3820  177.0310  137.2050 C   0  0  0  0  0  2  0  0  0  0  0  0
  181.4400  177.8770  138.0430 C   0  0  2  0  0  3  0  0  0  0  0  0
  179.9560  179.4130  136.7460 C   0  0  1  0  0  3  0  0  0  0  0  0
  179.2510  178.1750  136.2010 C   0  0  0  0  0  2  0  0  0  0  0  0
  181.4050  179.0790  137.0970 C   0  0  0  0  0  2  0  0  0  0  0  0
  179.9160  180.4730  135.7500 N   0  0  0  0  0  2  0  0  0  0  0  0
  179.8950  181.8590  136.0950 C   0  0  0  0  0  0  0  0  0  0  0  0
  179.8880  182.2180  137.3050 O   0  0  0  0  0  0  0  0  0  0  0  0
  180.6840  183.8240  135.0240 O   0  0  0  0  0  0  0  0  0  0  0  0
  179.8700  182.8600  135.0290 C   0  0  0  0  0  3  0  0  0  0  0  0
  185.6520  176.8740  137.5010 C   0  0  0  0  0  2  0  0  0  0  0  0
  188.7680  172.8820  136.7620 C   0  0  0  0  0  3  0  0  0  0  0  0
  187.1000  176.5250  137.6340 C   0  0  0  0  0  3  0  0  0  0  0  0
  187.6650  175.4130  137.1490 C   0  0  0  0  0  0  0  0  0  0  0  0
  189.1420  175.2170  137.3590 C   0  0  1  0  0  3  0  0  0  0  0  0
  187.4840  173.2060  136.2100 N   0  0  0  0  0  0  0  0  0  0  0  0
  189.5060  173.7970  137.3220 N   0  0  0  0  0  0  0  0  0  0  0  0
  186.9350  174.3750  136.3770 C   0  0  0  0  0  0  0  0  0  0  0  0
  191.2720  176.4540  136.6650 C   0  0  1  0  0  3  0  0  0  0  0  0
  189.9260  175.9730  136.2790 C   0  0  2  0  0  3  0  0  0  0  0  0
  190.1220  177.3740  136.6890 N   0  0  0  0  0  2  0  0  0  0  0  0
  191.7030  176.1540  138.0970 C   0  0  2  0  0  3  0  0  0  0  0  0
  193.1140  176.5550  138.2920 C   0  0  0  0  0  2  0  0  0  0  0  0
  192.7520  175.2140  138.0680 O   0  0  0  0  0  0  0  0  0  0  0  0
  185.6770  174.6430  135.8260 O   0  0  0  0  0  0  0  0  0  0  0  0
  184.6210  173.6920  135.8410 C   0  0  0  0  0  1  0  0  0  0  0  0
  1  6  2  0  0  0  0
  2  5  1  0  0  0  0
  3  4  1  0  0  0  0
  3 26  1  1  0  0  0
  3  2  1  0  0  0  0
  4 38  1  6  0  0  0
  4  1  1  0  0  0  0
  5  6  1  0  0  0  0
  6  8  1  0  0  0  0
  7  9  1  0  0  0  0
  8  7  2  0  0  0  0
  9 10  2  0  0  0  0
  9 11  1  0  0  0  0
 10 12  1  0  0  0  0
 11 13  1  0  0  0  0
 12 13  2  0  0  0  0
 12 14  1  0  0  0  0
 14 15  2  0  0  0  0
 16 14  1  0  0  0  0
 16 17  1  0  0  0  0
 18 17  1  0  0  0  0
 18 19  1  1  0  0  0
 21 20  2  0  0  0  0
 21 18  1  0  0  0  0
 23 22  1  1  0  0  0
 23 21  1  0  0  0  0
 24 23  1  0  0  0  0
 25 24  3  0  0  0  0
 27 29  1  0  0  0  0
 28 27  1  0  0  0  0
 29 26  1  6  0  0  0
 30 33  1  6  0  0  0
 30 32  1  0  0  0  0
 31 30  1  0  0  0  0
 31 28  1  0  0  0  0
 32 29  1  0  0  0  0
 33 34  1  0  0  0  0
 34 35  2  0  0  0  0
 36 37  2  0  0  0  0
 37 34  1  0  0  0  0
 38 40  1  0  0  0  0
 39 44  2  0  0  0  0
 41 40  2  0  0  0  0
 42 41  1  6  0  0  0
 43 45  2  0  0  0  0
 43 39  1  0  0  0  0
 44 42  1  0  0  0  0
 45 41  1  0  0  0  0
 46 48  1  1  0  0  0
 46 49  1  0  0  0  0
 47 46  1  0  0  0  0
 47 48  1  1  0  0  0
 47 42  1  0  0  0  0
 49 50  1  6  0  0  0
 51 49  1  0  0  0  0
 51 50  1  0  0  0  0
 52 53  1  0  0  0  0
 52 45  1  0  0  0  0
M  END
>  <MODEL>
2

>  <REMARK>
 VINA RESULT:      -6.6      2.533      4.044
  Name = 
  17 active torsions:
  status: ('A' for Active; 'I' for Inactive)
    1  A    between atoms: C_2  and  C_9
    2  A    between atoms: C_5  and  C_53
    3  A    between atoms: C_7  and  C_47
    4  A    between atoms: C_11  and  C_48
    5  A    between atoms: C_12  and  C_41
    6  A    between atoms: C_13  and  C_19
    7  A    between atoms: C_14  and  C_46
    8  A    between atoms: N_15  and  C_18
    9  A    between atoms: C_16  and  C_40
   10  A    between atoms: C_20  and  C_32
   11  A    between atoms: C_21  and  C_49
   12  A    between atoms: C_21  and  C_51
   13  A    between atoms: O_27  and  C_44
   14  A    between atoms: C_30  and  C_46
   15  A    between atoms: N_31  and  C_51
   16  A    between atoms: C_33  and  C_48
   17  A    between atoms: C_41  and  C_49
                            x       y       z     vdW  Elec       q    Type
                         _______ _______ _______ _____ _____    ______ ____

>  <TORSDO>
F 17

$$$$
=
 OpenBabel10222417533D

 53 58  0  0  1  0  0  0  0  0999 V2000
  187.3030  178.1160  139.6160 C   0  0  0  0  0  3  0  0  0  0  0  0
  189.5100  178.4280  137.8070 C   0  0  0  0  0  2  0  0  0  0  0  0
  189.7520  177.7370  139.1490 C   0  0  1  0  0  3  0  0  0  0  0  0
  188.7030  178.2530  140.1450 C   0  0  2  0  0  3  0  0  0  0  0  0
  188.1150  178.1140  137.2560 C   0  0  0  0  0  2  0  0  0  0  0  0
  187.0220  178.1210  138.3070 C   0  0  0  0  0  0  0  0  0  0  0  0
  184.6220  178.4990  138.6240 C   0  0  0  0  0  3  0  0  0  0  0  0
  185.6160  177.9810  137.9090 C   0  0  0  0  0  3  0  0  0  0  0  0
  183.2270  178.3600  138.2040 C   0  0  0  0  0  0  0  0  0  0  0  0
  182.7210  177.2290  137.6780 N   0  0  0  0  0  0  0  0  0  0  0  0
  182.3190  179.3000  138.3010 O   0  0  0  0  0  0  0  0  0  0  0  0
  181.4350  177.5890  137.4760 C   0  0  0  0  0  0  0  0  0  0  0  0
  181.1840  178.8560  137.8570 N   0  0  0  0  0  0  0  0  0  0  0  0
  180.4190  176.6870  136.9250 C   0  0  0  0  0  0  0  0  0  0  0  0
  179.2620  177.1240  136.6730 O   0  0  0  0  0  0  0  0  0  0  0  0
  180.7440  175.3170  136.6700 N   0  0  0  0  0  2  0  0  0  0  0  0
  179.8120  174.4010  136.0260 C   0  0  0  0  0  2  0  0  0  0  0  0
  180.0380  172.9780  136.5210 C   0  0  2  0  0  3  0  0  0  0  0  0
  179.9170  172.9330  138.0350 C   0  0  0  0  0  1  0  0  0  0  0  0
  181.4390  172.1610  134.8150 O   0  0  0  0  0  0  0  0  0  0  0  0
  181.3490  172.4300  136.0020 C   0  0  0  0  0  0  0  0  0  0  0  0
  183.0180  170.8900  136.7520 O   0  0  0  0  0  1  0  0  0  0  0  0
  182.5540  172.2010  136.8740 C   0  0  1  0  0  3  0  0  0  0  0  0
  183.6270  173.1520  136.5560 C   0  0  0  0  0  0  0  0  0  0  0  0
  184.4710  173.9020  136.3070 N   0  0  0  0  0  0  0  0  0  0  0  0
  189.7260  176.2060  139.0120 C   0  0  0  0  0  2  0  0  0  0  0  0
  190.0800  174.3640  137.4180 N   0  0  0  0  0  2  0  0  0  0  0  0
  190.7570  173.9940  136.1760 C   0  0  0  0  0  2  0  0  0  0  0  0
  190.5390  175.6940  137.8240 C   0  0  2  0  0  3  0  0  0  0  0  0
  192.8090  175.2100  136.8990 C   0  0  1  0  0  3  0  0  0  0  0  0
  192.2600  173.8710  136.4150 C   0  0  0  0  0  2  0  0  0  0  0  0
  192.0380  175.6770  138.1320 C   0  0  0  0  0  2  0  0  0  0  0  0
  194.2220  175.0690  137.2190 N   0  0  0  0  0  2  0  0  0  0  0  0
  195.2520  175.1840  136.2380 C   0  0  0  0  0  0  0  0  0  0  0  0
  194.9630  175.3960  135.0270 O   0  0  0  0  0  0  0  0  0  0  0  0
  197.5160  175.8920  136.3040 O   0  0  0  0  0  0  0  0  0  0  0  0
  196.6490  175.0430  136.6480 C   0  0  0  0  0  3  0  0  0  0  0  0
  188.8230  177.6170  141.5250 C   0  0  0  0  0  2  0  0  0  0  0  0
  187.1290  177.4620  146.3520 C   0  0  0  0  0  3  0  0  0  0  0  0
  187.5430  177.7680  142.2840 C   0  0  0  0  0  3  0  0  0  0  0  0
  187.4530  177.8790  143.6140 C   0  0  0  0  0  0  0  0  0  0  0  0
  186.0860  178.0370  144.2230 C   0  0  1  0  0  3  0  0  0  0  0  0
  188.4320  177.7070  145.8050 N   0  0  0  0  0  0  0  0  0  0  0  0
  186.0610  177.5750  145.6150 N   0  0  0  0  0  0  0  0  0  0  0  0
  188.6220  177.8990  144.5310 C   0  0  0  0  0  0  0  0  0  0  0  0
  184.2380  179.7640  143.8330 C   0  0  1  0  0  3  0  0  0  0  0  0
  185.6580  179.5090  144.1680 C   0  0  2  0  0  3  0  0  0  0  0  0
  185.2740  179.8670  142.7910 N   0  0  0  0  0  2  0  0  0  0  0  0
  183.3830  178.5290  143.5680 C   0  0  2  0  0  3  0  0  0  0  0  0
  182.0100  178.9390  143.1960 C   0  0  0  0  0  2  0  0  0  0  0  0
  182.3240  178.5020  144.4960 O   0  0  0  0  0  0  0  0  0  0  0  0
  189.9130  178.1270  144.0420 O   0  0  0  0  0  0  0  0  0  0  0  0
  191.0720  177.6100  144.6820 C   0  0  0  0  0  1  0  0  0  0  0  0
  1  4  1  0  0  0  0
  2  3  1  0  0  0  0
  3 26  1  6  0  0  0
  3  4  1  0  0  0  0
  4 38  1  1  0  0  0
  5  2  1  0  0  0  0
  5  6  1  0  0  0  0
  6  1  2  0  0  0  0
  8  6  1  0  0  0  0
  8  7  2  0  0  0  0
  9 11  1  0  0  0  0
  9  7  1  0  0  0  0
 10  9  2  0  0  0  0
 12 10  1  0  0  0  0
 12 13  2  0  0  0  0
 13 11  1  0  0  0  0
 14 12  1  0  0  0  0
 15 14  2  0  0  0  0
 16 14  1  0  0  0  0
 17 18  1  0  0  0  0
 17 16  1  0  0  0  0
 18 19  1  1  0  0  0
 20 21  2  0  0  0  0
 21 18  1  0  0  0  0
 21 23  1  0  0  0  0
 23 22  1  6  0  0  0
 24 23  1  0  0  0  0
 25 24  3  0  0  0  0
 27 29  1  0  0  0  0
 28 31  1  0  0  0  0
 28 27  1  0  0  0  0
 29 32  1  0  0  0  0
 29 26  1  1  0  0  0
 30 33  1  1  0  0  0
 30 32  1  0  0  0  0
 31 30  1  0  0  0  0
 34 37  1  0  0  0  0
 34 33  1  0  0  0  0
 35 34  2  0  0  0  0
 36 37  2  0  0  0  0
 38 40  1  0  0  0  0
 40 41  2  0  0  0  0
 41 45  1  0  0  0  0
 42 41  1  1  0  0  0
 42 44  1  0  0  0  0
 43 39  1  0  0  0  0
 44 39  2  0  0  0  0
 45 43  2  0  0  0  0
 46 48  1  6  0  0  0
 46 47  1  0  0  0  0
 47 48  1  6  0  0  0
 47 42  1  0  0  0  0
 49 50  1  6  0  0  0
 49 46  1  0  0  0  0
 49 51  1  0  0  0  0
 50 51  1  0  0  0  0
 52 45  1  0  0  0  0
 52 53  1  0  0  0  0
M  END
>  <MODEL>
3

>  <REMARK>
 VINA RESULT:      -6.5      2.743     10.266
  Name = 
  17 active torsions:
  status: ('A' for Active; 'I' for Inactive)
    1  A    between atoms: C_2  and  C_9
    2  A    between atoms: C_5  and  C_53
    3  A    between atoms: C_7  and  C_47
    4  A    between atoms: C_11  and  C_48
    5  A    between atoms: C_12  and  C_41
    6  A    between atoms: C_13  and  C_19
    7  A    between atoms: C_14  and  C_46
    8  A    between atoms: N_15  and  C_18
    9  A    between atoms: C_16  and  C_40
   10  A    between atoms: C_20  and  C_32
   11  A    between atoms: C_21  and  C_49
   12  A    between atoms: C_21  and  C_51
   13  A    between atoms: O_27  and  C_44
   14  A    between atoms: C_30  and  C_46
   15  A    between atoms: N_31  and  C_51
   16  A    between atoms: C_33  and  C_48
   17  A    between atoms: C_41  and  C_49
                            x       y       z     vdW  Elec       q    Type
                         _______ _______ _______ _____ _____    ______ ____

>  <TORSDO>
F 17

$$$$
=
 OpenBabel10222417533D

 53 58  0  0  1  0  0  0  0  0999 V2000
  188.8660  177.2990  141.0300 C   0  0  0  0  0  3  0  0  0  0  0  0
  189.9700  175.6260  143.0850 C   0  0  0  0  0  2  0  0  0  0  0  0
  190.9240  176.4190  142.1920 C   0  0  1  0  0  3  0  0  0  0  0  0
  190.2190  176.6710  140.8500 C   0  0  2  0  0  3  0  0  0  0  0  0
  188.6730  176.4000  143.3500 C   0  0  0  0  0  2  0  0  0  0  0  0
  188.1290  177.1240  142.1340 C   0  0  0  0  0  0  0  0  0  0  0  0
  186.0950  177.8210  143.3080 C   0  0  0  0  0  3  0  0  0  0  0  0
  186.8210  177.7860  142.1950 C   0  0  0  0  0  3  0  0  0  0  0  0
  184.7980  178.4980  143.3530 C   0  0  0  0  0  0  0  0  0  0  0  0
  183.7890  178.2210  142.5070 N   0  0  0  0  0  0  0  0  0  0  0  0
  184.4680  179.4280  144.2150 O   0  0  0  0  0  0  0  0  0  0  0  0
  182.8370  179.0700  142.9510 C   0  0  0  0  0  0  0  0  0  0  0  0
  183.2480  179.8110  143.9970 N   0  0  0  0  0  0  0  0  0  0  0  0
  181.4940  179.1570  142.3690 C   0  0  0  0  0  0  0  0  0  0  0  0
  180.7400  180.1230  142.6710 O   0  0  0  0  0  0  0  0  0  0  0  0
  181.0450  178.1490  141.4580 N   0  0  0  0  0  2  0  0  0  0  0  0
  179.7650  178.2370  140.7670 C   0  0  0  0  0  2  0  0  0  0  0  0
  179.9540  178.0320  139.2690 C   0  0  2  0  0  3  0  0  0  0  0  0
  180.1520  176.5550  138.9730 C   0  0  0  0  0  1  0  0  0  0  0  0
  180.8560  180.1050  138.6160 O   0  0  0  0  0  0  0  0  0  0  0  0
  181.0680  178.9100  138.7430 C   0  0  0  0  0  0  0  0  0  0  0  0
  182.5320  178.2050  136.9880 O   0  0  0  0  0  1  0  0  0  0  0  0
  182.4280  178.3860  138.3690 C   0  0  1  0  0  3  0  0  0  0  0  0
  183.4900  179.2810  138.8440 C   0  0  0  0  0  0  0  0  0  0  0  0
  184.3260  179.9890  139.2170 N   0  0  0  0  0  0  0  0  0  0  0  0
  191.3820  177.7220  142.8660 C   0  0  0  0  0  2  0  0  0  0  0  0
  191.6660  176.2590  144.8250 N   0  0  0  0  0  2  0  0  0  0  0  0
  191.8610  176.2550  146.2740 C   0  0  0  0  0  2  0  0  0  0  0  0
  191.4070  177.6340  144.3910 C   0  0  2  0  0  3  0  0  0  0  0  0
  190.2040  178.0990  146.5310 C   0  0  1  0  0  3  0  0  0  0  0  0
  190.5760  176.6890  146.9780 C   0  0  0  0  0  2  0  0  0  0  0  0
  190.1080  178.1580  145.0080 C   0  0  0  0  0  2  0  0  0  0  0  0
  188.9300  178.4760  147.1250 N   0  0  0  0  0  2  0  0  0  0  0  0
  187.7170  177.7680  146.8690 C   0  0  0  0  0  0  0  0  0  0  0  0
  187.7050  176.7810  146.0820 O   0  0  0  0  0  0  0  0  0  0  0  0
  186.0350  179.3720  147.3470 O   0  0  0  0  0  0  0  0  0  0  0  0
  186.4820  178.2060  147.5200 C   0  0  0  0  0  3  0  0  0  0  0  0
  191.0640  177.4800  139.8720 C   0  0  0  0  0  2  0  0  0  0  0  0
  190.0320  175.4140  135.3050 C   0  0  0  0  0  3  0  0  0  0  0  0
  191.7030  176.5790  138.8640 C   0  0  0  0  0  3  0  0  0  0  0  0
  191.2460  176.3780  137.6220 C   0  0  0  0  0  0  0  0  0  0  0  0
  192.0150  175.4470  136.7240 C   0  0  1  0  0  3  0  0  0  0  0  0
  189.5110  176.5750  135.9670 N   0  0  0  0  0  0  0  0  0  0  0  0
  191.1570  174.8770  135.6800 N   0  0  0  0  0  0  0  0  0  0  0  0
  190.0480  177.0500  137.0540 C   0  0  0  0  0  0  0  0  0  0  0  0
  194.5160  175.5710  136.1990 C   0  0  1  0  0  3  0  0  0  0  0  0
  193.1810  176.1990  136.0710 C   0  0  2  0  0  3  0  0  0  0  0  0
  194.1220  176.6610  137.1070 N   0  0  0  0  0  2  0  0  0  0  0  0
  194.5660  174.2620  136.9800 C   0  0  2  0  0  3  0  0  0  0  0  0
  195.8780  173.6070  136.7820 C   0  0  0  0  0  2  0  0  0  0  0  0
  194.7330  173.1970  136.0730 O   0  0  0  0  0  0  0  0  0  0  0  0
  189.5020  178.1810  137.6700 O   0  0  0  0  0  0  0  0  0  0  0  0
  188.5380  179.0070  137.0280 C   0  0  0  0  0  1  0  0  0  0  0  0
  1  6  2  0  0  0  0
  2  5  1  0  0  0  0
  3 26  1  1  0  0  0
  3  2  1  0  0  0  0
  4 38  1  6  0  0  0
  4  1  1  0  0  0  0
  4  3  1  0  0  0  0
  6  8  1  0  0  0  0
  6  5  1  0  0  0  0
  7  9  1  0  0  0  0
  8  7  2  0  0  0  0
  9 11  1  0  0  0  0
 10 12  1  0  0  0  0
 10  9  2  0  0  0  0
 12 13  2  0  0  0  0
 13 11  1  0  0  0  0
 14 15  2  0  0  0  0
 14 12  1  0  0  0  0
 16 14  1  0  0  0  0
 17 16  1  0  0  0  0
 18 19  1  1  0  0  0
 18 17  1  0  0  0  0
 20 21  2  0  0  0  0
 21 18  1  0  0  0  0
 23 22  1  6  0  0  0
 23 21  1  0  0  0  0
 23 24  1  0  0  0  0
 24 25  3  0  0  0  0
 27 28  1  0  0  0  0
 28 31  1  0  0  0  0
 29 26  1  6  0  0  0
 29 27  1  0  0  0  0
 29 32  1  0  0  0  0
 30 31  1  0  0  0  0
 30 33  1  1  0  0  0
 32 30  1  0  0  0  0
 34 33  1  0  0  0  0
 34 37  1  0  0  0  0
 35 34  2  0  0  0  0
 36 37  2  0  0  0  0
 39 44  2  0  0  0  0
 39 43  1  0  0  0  0
 40 38  1  0  0  0  0
 41 40  2  0  0  0  0
 42 44  1  6  0  0  0
 42 41  1  0  0  0  0
 43 45  2  0  0  0  0
 45 41  1  0  0  0  0
 45 52  1  0  0  0  0
 46 49  1  0  0  0  0
 46 48  1  1  0  0  0
 47 46  1  0  0  0  0
 47 42  1  0  0  0  0
 47 48  1  1  0  0  0
 49 50  1  1  0  0  0
 51 50  1  0  0  0  0
 51 49  1  0  0  0  0
 53 52  1  0  0  0  0
M  END
>  <MODEL>
4

>  <REMARK>
 VINA RESULT:      -6.4      3.136      9.006
  Name = 
  17 active torsions:
  status: ('A' for Active; 'I' for Inactive)
    1  A    between atoms: C_2  and  C_9
    2  A    between atoms: C_5  and  C_53
    3  A    between atoms: C_7  and  C_47
    4  A    between atoms: C_11  and  C_48
    5  A    between atoms: C_12  and  C_41
    6  A    between atoms: C_13  and  C_19
    7  A    between atoms: C_14  and  C_46
    8  A    between atoms: N_15  and  C_18
    9  A    between atoms: C_16  and  C_40
   10  A    between atoms: C_20  and  C_32
   11  A    between atoms: C_21  and  C_49
   12  A    between atoms: C_21  and  C_51
   13  A    between atoms: O_27  and  C_44
   14  A    between atoms: C_30  and  C_46
   15  A    between atoms: N_31  and  C_51
   16  A    between atoms: C_33  and  C_48
   17  A    between atoms: C_41  and  C_49
                            x       y       z     vdW  Elec       q    Type
                         _______ _______ _______ _____ _____    ______ ____

>  <TORSDO>
F 17

$$$$
=
 OpenBabel10222417533D

 53 58  0  0  1  0  0  0  0  0999 V2000
  185.8440  178.0820  139.1890 C   0  0  0  0  0  3  0  0  0  0  0  0
  183.3100  177.0500  138.3210 C   0  0  0  0  0  2  0  0  0  0  0  0
  183.3290  178.2490  139.2690 C   0  0  1  0  0  3  0  0  0  0  0  0
  184.6350  178.1980  140.0740 C   0  0  2  0  0  3  0  0  0  0  0  0
  184.4910  177.0860  137.3440 C   0  0  0  0  0  2  0  0  0  0  0  0
  185.8000  177.5180  137.9760 C   0  0  0  0  0  0  0  0  0  0  0  0
  187.9210  176.4700  137.3390 C   0  0  0  0  0  3  0  0  0  0  0  0
  187.0460  177.4610  137.2020 C   0  0  0  0  0  3  0  0  0  0  0  0
  189.1520  176.4250  136.5480 C   0  0  0  0  0  0  0  0  0  0  0  0
  190.3360  176.0190  137.0430 N   0  0  0  0  0  0  0  0  0  0  0  0
  189.2420  176.7560  135.2840 O   0  0  0  0  0  0  0  0  0  0  0  0
  191.1280  176.1400  135.9560 C   0  0  0  0  0  0  0  0  0  0  0  0
  190.4620  176.5900  134.8750 N   0  0  0  0  0  0  0  0  0  0  0  0
  192.5520  175.7950  135.9490 C   0  0  0  0  0  0  0  0  0  0  0  0
  193.2440  176.0020  134.9140 O   0  0  0  0  0  0  0  0  0  0  0  0
  193.1550  175.2290  137.1180 N   0  0  0  0  0  2  0  0  0  0  0  0
  194.5850  174.9640  137.2080 C   0  0  0  0  0  2  0  0  0  0  0  0
  194.8720  173.9720  138.3280 C   0  0  2  0  0  3  0  0  0  0  0  0
  195.8430  174.5860  139.3220 C   0  0  0  0  0  1  0  0  0  0  0  0
  195.2490  171.6530  138.4690 O   0  0  0  0  0  0  0  0  0  0  0  0
  195.3370  172.6460  137.7660 C   0  0  0  0  0  0  0  0  0  0  0  0
  197.2070  172.9790  136.3120 O   0  0  0  0  0  1  0  0  0  0  0  0
  195.9010  172.4880  136.3800 C   0  0  1  0  0  3  0  0  0  0  0  0
  195.8650  171.0840  135.9500 C   0  0  0  0  0  0  0  0  0  0  0  0
  195.8370  169.9790  135.6090 N   0  0  0  0  0  0  0  0  0  0  0  0
  183.1620  179.5750  138.5090 C   0  0  0  0  0  2  0  0  0  0  0  0
  181.0840  179.6190  139.8270 N   0  0  0  0  0  2  0  0  0  0  0  0
  180.1070  180.5050  140.4580 C   0  0  0  0  0  2  0  0  0  0  0  0
  182.0120  180.4310  139.0360 C   0  0  2  0  0  3  0  0  0  0  0  0
  180.1700  182.0260  138.4830 C   0  0  1  0  0  3  0  0  0  0  0  0
  179.2630  181.1990  139.3910 C   0  0  0  0  0  2  0  0  0  0  0  0
  181.2730  181.1440  137.9020 C   0  0  0  0  0  2  0  0  0  0  0  0
  179.3800  182.6090  137.4090 N   0  0  0  0  0  2  0  0  0  0  0  0
  179.7760  183.7910  136.7120 C   0  0  0  0  0  0  0  0  0  0  0  0
  180.8400  184.3950  137.0270 O   0  0  0  0  0  0  0  0  0  0  0  0
  179.4370  184.8080  134.5950 O   0  0  0  0  0  0  0  0  0  0  0  0
  178.9310  184.3030  135.6340 C   0  0  0  0  0  3  0  0  0  0  0  0
  184.7870  179.3620  141.0460 C   0  0  0  0  0  2  0  0  0  0  0  0
  185.0170  178.7170  146.1180 C   0  0  0  0  0  3  0  0  0  0  0  0
  185.7920  179.0330  142.1040 C   0  0  0  0  0  3  0  0  0  0  0  0
  185.4930  178.7240  143.3710 C   0  0  0  0  0  0  0  0  0  0  0  0
  186.6250  178.4060  144.3110 C   0  0  1  0  0  3  0  0  0  0  0  0
  183.9250  178.6240  145.1920 N   0  0  0  0  0  0  0  0  0  0  0  0
  186.2500  178.6570  145.7070 N   0  0  0  0  0  0  0  0  0  0  0  0
  184.1090  178.6310  143.9030 C   0  0  0  0  0  0  0  0  0  0  0  0
  188.4890  176.6550  144.2320 C   0  0  1  0  0  3  0  0  0  0  0  0
  187.0380  176.9380  144.1500 C   0  0  2  0  0  3  0  0  0  0  0  0
  187.8320  176.7730  142.9200 N   0  0  0  0  0  2  0  0  0  0  0  0
  189.3940  177.8640  144.4500 C   0  0  2  0  0  3  0  0  0  0  0  0
  190.8120  177.4420  144.4290 C   0  0  0  0  0  2  0  0  0  0  0  0
  190.1280  177.6750  145.6370 O   0  0  0  0  0  0  0  0  0  0  0  0
  183.0130  178.5460  143.0380 O   0  0  0  0  0  0  0  0  0  0  0  0
  181.7170  179.0050  143.4030 C   0  0  0  0  0  1  0  0  0  0  0  0
  1  4  1  0  0  0  0
  2  3  1  0  0  0  0
  3 26  1  6  0  0  0
  3  4  1  0  0  0  0
  4 38  1  6  0  0  0
  5  6  1  0  0  0  0
  5  2  1  0  0  0  0
  6  1  2  0  0  0  0
  8  7  2  0  0  0  0
  8  6  1  0  0  0  0
  9 10  2  0  0  0  0
  9  7  1  0  0  0  0
 11  9  1  0  0  0  0
 12 10  1  0  0  0  0
 13 11  1  0  0  0  0
 13 12  2  0  0  0  0
 14 12  1  0  0  0  0
 14 16  1  0  0  0  0
 15 14  2  0  0  0  0
 16 17  1  0  0  0  0
 17 18  1  0  0  0  0
 18 19  1  1  0  0  0
 21 18  1  0  0  0  0
 21 20  2  0  0  0  0
 23 22  1  1  0  0  0
 23 21  1  0  0  0  0
 24 23  1  0  0  0  0
 25 24  3  0  0  0  0
 27 28  1  0  0  0  0
 29 26  1  6  0  0  0
 29 27  1  0  0  0  0
 30 33  1  6  0  0  0
 30 31  1  0  0  0  0
 31 28  1  0  0  0  0
 32 30  1  0  0  0  0
 32 29  1  0  0  0  0
 34 35  2  0  0  0  0
 34 33  1  0  0  0  0
 36 37  2  0  0  0  0
 37 34  1  0  0  0  0
 38 40  1  0  0  0  0
 40 41  2  0  0  0  0
 41 45  1  0  0  0  0
 42 41  1  6  0  0  0
 42 44  1  0  0  0  0
 43 39  1  0  0  0  0
 44 39  2  0  0  0  0
 45 43  2  0  0  0  0
 46 48  1  6  0  0  0
 46 49  1  0  0  0  0
 47 48  1  6  0  0  0
 47 46  1  0  0  0  0
 47 42  1  0  0  0  0
 49 50  1  6  0  0  0
 49 51  1  0  0  0  0
 50 51  1  0  0  0  0
 52 53  1  0  0  0  0
 52 45  1  0  0  0  0
M  END
>  <MODEL>
5

>  <REMARK>
 VINA RESULT:      -6.3      4.147      8.841
  Name = 
  17 active torsions:
  status: ('A' for Active; 'I' for Inactive)
    1  A    between atoms: C_2  and  C_9
    2  A    between atoms: C_5  and  C_53
    3  A    between atoms: C_7  and  C_47
    4  A    between atoms: C_11  and  C_48
    5  A    between atoms: C_12  and  C_41
    6  A    between atoms: C_13  and  C_19
    7  A    between atoms: C_14  and  C_46
    8  A    between atoms: N_15  and  C_18
    9  A    between atoms: C_16  and  C_40
   10  A    between atoms: C_20  and  C_32
   11  A    between atoms: C_21  and  C_49
   12  A    between atoms: C_21  and  C_51
   13  A    between atoms: O_27  and  C_44
   14  A    between atoms: C_30  and  C_46
   15  A    between atoms: N_31  and  C_51
   16  A    between atoms: C_33  and  C_48
   17  A    between atoms: C_41  and  C_49
                            x       y       z     vdW  Elec       q    Type
                         _______ _______ _______ _____ _____    ______ ____

>  <TORSDO>
F 17

$$$$
=
 OpenBabel10222417533D

 53 58  0  0  1  0  0  0  0  0999 V2000
  185.9300  178.4350  139.5550 C   0  0  0  0  0  3  0  0  0  0  0  0
  187.1120  179.5220  141.9340 C   0  0  0  0  0  2  0  0  0  0  0  0
  185.6520  179.0710  141.9790 C   0  0  1  0  0  3  0  0  0  0  0  0
  185.0810  179.1670  140.5560 C   0  0  2  0  0  3  0  0  0  0  0  0
  187.9480  178.6290  141.0100 C   0  0  0  0  0  2  0  0  0  0  0  0
  187.2440  178.2470  139.7220 C   0  0  0  0  0  0  0  0  0  0  0  0
  189.2220  177.1010  138.8380 C   0  0  0  0  0  3  0  0  0  0  0  0
  187.9700  177.5180  138.6750 C   0  0  0  0  0  3  0  0  0  0  0  0
  189.9240  176.3640  137.7870 C   0  0  0  0  0  0  0  0  0  0  0  0
  190.5050  175.1670  137.9830 N   0  0  0  0  0  0  0  0  0  0  0  0
  190.0550  176.7700  136.5480 O   0  0  0  0  0  0  0  0  0  0  0  0
  190.9880  174.9060  136.7490 C   0  0  0  0  0  0  0  0  0  0  0  0
  190.7140  175.8850  135.8660 N   0  0  0  0  0  0  0  0  0  0  0  0
  191.7100  173.6780  136.4050 C   0  0  0  0  0  0  0  0  0  0  0  0
  191.1210  172.7580  135.7740 O   0  0  0  0  0  0  0  0  0  0  0  0
  193.0830  173.5280  136.7820 N   0  0  0  0  0  2  0  0  0  0  0  0
  193.8820  172.3790  136.3780 C   0  0  0  0  0  2  0  0  0  0  0  0
  195.3400  172.5810  136.7710 C   0  0  2  0  0  3  0  0  0  0  0  0
  196.1260  171.3080  136.5030 C   0  0  0  0  0  1  0  0  0  0  0  0
  195.0600  172.3410  139.0960 O   0  0  0  0  0  0  0  0  0  0  0  0
  195.4490  173.0710  138.1990 C   0  0  0  0  0  0  0  0  0  0  0  0
  196.6220  174.3690  139.8290 O   0  0  0  0  0  1  0  0  0  0  0  0
  196.0170  174.4130  138.5710 C   0  0  1  0  0  3  0  0  0  0  0  0
  196.9770  174.8810  137.5630 C   0  0  0  0  0  0  0  0  0  0  0  0
  197.7320  175.2530  136.7700 N   0  0  0  0  0  0  0  0  0  0  0  0
  185.5110  177.6610  142.5730 C   0  0  0  0  0  2  0  0  0  0  0  0
  185.0200  178.7300  144.7340 N   0  0  0  0  0  2  0  0  0  0  0  0
  185.0970  178.5490  146.1830 C   0  0  0  0  0  2  0  0  0  0  0  0
  185.7210  177.6200  144.0850 C   0  0  2  0  0  3  0  0  0  0  0  0
  187.3650  177.5390  145.9650 C   0  0  1  0  0  3  0  0  0  0  0  0
  186.5500  178.6340  146.6460 C   0  0  0  0  0  2  0  0  0  0  0  0
  187.2070  177.6350  144.4490 C   0  0  0  0  0  2  0  0  0  0  0  0
  188.7670  177.6790  146.3300 N   0  0  0  0  0  2  0  0  0  0  0  0
  189.3680  176.9370  147.3920 C   0  0  0  0  0  0  0  0  0  0  0  0
  188.6800  176.1320  148.0800 O   0  0  0  0  0  0  0  0  0  0  0  0
  191.6750  176.5500  146.9980 O   0  0  0  0  0  0  0  0  0  0  0  0
  190.7880  177.1280  147.6830 C   0  0  0  0  0  3  0  0  0  0  0  0
  183.6270  178.7190  140.4620 C   0  0  0  0  0  2  0  0  0  0  0  0
  181.0600  178.2040  136.0640 C   0  0  0  0  0  3  0  0  0  0  0  0
  182.8830  179.5630  139.4780 C   0  0  0  0  0  3  0  0  0  0  0  0
  182.1160  179.0860  138.4890 C   0  0  0  0  0  0  0  0  0  0  0  0
  181.4230  180.0730  137.5890 C   0  0  1  0  0  3  0  0  0  0  0  0
  181.3690  177.2660  137.1050 N   0  0  0  0  0  0  0  0  0  0  0  0
  181.1250  179.4860  136.2780 N   0  0  0  0  0  0  0  0  0  0  0  0
  181.8690  177.6410  138.2470 C   0  0  0  0  0  0  0  0  0  0  0  0
  179.8810  182.0080  138.2420 C   0  0  1  0  0  3  0  0  0  0  0  0
  180.1190  180.5470  138.2430 C   0  0  2  0  0  3  0  0  0  0  0  0
  180.4220  181.3480  139.4420 N   0  0  0  0  0  2  0  0  0  0  0  0
  180.9730  182.8610  137.6050 C   0  0  2  0  0  3  0  0  0  0  0  0
  180.4630  184.2280  137.3550 C   0  0  0  0  0  2  0  0  0  0  0  0
  180.5430  183.2700  136.3270 O   0  0  0  0  0  0  0  0  0  0  0  0
  182.1620  176.6890  139.2310 O   0  0  0  0  0  0  0  0  0  0  0  0
  181.2620  175.6410  139.5660 C   0  0  0  0  0  1  0  0  0  0  0  0
  1  6  2  0  0  0  0
  1  4  1  0  0  0  0
  2  3  1  0  0  0  0
  3 26  1  6  0  0  0
  4 38  1  1  0  0  0
  4  3  1  0  0  0  0
  5  2  1  0  0  0  0
  6  5  1  0  0  0  0
  8  7  2  0  0  0  0
  8  6  1  0  0  0  0
  9 10  2  0  0  0  0
  9  7  1  0  0  0  0
 11  9  1  0  0  0  0
 12 10  1  0  0  0  0
 13 11  1  0  0  0  0
 13 12  2  0  0  0  0
 14 12  1  0  0  0  0
 14 16  1  0  0  0  0
 15 14  2  0  0  0  0
 17 18  1  0  0  0  0
 17 16  1  0  0  0  0
 18 19  1  1  0  0  0
 18 21  1  0  0  0  0
 21 23  1  0  0  0  0
 21 20  2  0  0  0  0
 23 22  1  1  0  0  0
 24 23  1  0  0  0  0
 25 24  3  0  0  0  0
 27 28  1  0  0  0  0
 28 31  1  0  0  0  0
 29 26  1  6  0  0  0
 29 32  1  0  0  0  0
 29 27  1  0  0  0  0
 30 33  1  6  0  0  0
 30 31  1  0  0  0  0
 32 30  1  0  0  0  0
 33 34  1  0  0  0  0
 34 37  1  0  0  0  0
 34 35  2  0  0  0  0
 36 37  2  0  0  0  0
 39 44  2  0  0  0  0
 39 43  1  0  0  0  0
 40 38  1  0  0  0  0
 41 40  2  0  0  0  0
 42 44  1  6  0  0  0
 42 47  1  0  0  0  0
 42 41  1  0  0  0  0
 43 45  2  0  0  0  0
 45 41  1  0  0  0  0
 45 52  1  0  0  0  0
 46 47  1  0  0  0  0
 46 48  1  1  0  0  0
 47 48  1  1  0  0  0
 49 50  1  1  0  0  0
 49 46  1  0  0  0  0
 51 50  1  0  0  0  0
 51 49  1  0  0  0  0
 52 53  1  0  0  0  0
M  END
>  <MODEL>
6

>  <REMARK>
 VINA RESULT:      -6.3      3.849      9.558
  Name = 
  17 active torsions:
  status: ('A' for Active; 'I' for Inactive)
    1  A    between atoms: C_2  and  C_9
    2  A    between atoms: C_5  and  C_53
    3  A    between atoms: C_7  and  C_47
    4  A    between atoms: C_11  and  C_48
    5  A    between atoms: C_12  and  C_41
    6  A    between atoms: C_13  and  C_19
    7  A    between atoms: C_14  and  C_46
    8  A    between atoms: N_15  and  C_18
    9  A    between atoms: C_16  and  C_40
   10  A    between atoms: C_20  and  C_32
   11  A    between atoms: C_21  and  C_49
   12  A    between atoms: C_21  and  C_51
   13  A    between atoms: O_27  and  C_44
   14  A    between atoms: C_30  and  C_46
   15  A    between atoms: N_31  and  C_51
   16  A    between atoms: C_33  and  C_48
   17  A    between atoms: C_41  and  C_49
                            x       y       z     vdW  Elec       q    Type
                         _______ _______ _______ _____ _____    ______ ____

>  <TORSDO>
F 17

$$$$
=
 OpenBabel10222417533D

 53 58  0  0  1  0  0  0  0  0999 V2000
  185.1000  178.1200  139.0760 C   0  0  0  0  0  3  0  0  0  0  0  0
  182.5630  178.5950  137.8200 C   0  0  0  0  0  2  0  0  0  0  0  0
  183.4690  177.5000  137.2550 C   0  0  1  0  0  3  0  0  0  0  0  0
  184.9210  177.8560  137.6070 C   0  0  2  0  0  3  0  0  0  0  0  0
  182.6870  178.6970  139.3440 C   0  0  0  0  0  2  0  0  0  0  0  0
  184.1090  178.5670  139.8550 C   0  0  0  0  0  0  0  0  0  0  0  0
  183.6040  178.3480  142.2430 C   0  0  0  0  0  3  0  0  0  0  0  0
  184.4030  178.7880  141.2760 C   0  0  0  0  0  3  0  0  0  0  0  0
  183.9220  178.5690  143.6550 C   0  0  0  0  0  0  0  0  0  0  0  0
  185.1650  178.4650  144.1590 N   0  0  0  0  0  0  0  0  0  0  0  0
  183.0500  178.9000  144.5750 O   0  0  0  0  0  0  0  0  0  0  0  0
  184.9460  178.7660  145.4580 C   0  0  0  0  0  0  0  0  0  0  0  0
  183.6520  179.0350  145.7170 N   0  0  0  0  0  0  0  0  0  0  0  0
  186.0070  178.8180  146.4670 C   0  0  0  0  0  0  0  0  0  0  0  0
  185.9990  179.7290  147.3400 O   0  0  0  0  0  0  0  0  0  0  0  0
  187.0460  177.8340  146.4620 N   0  0  0  0  0  2  0  0  0  0  0  0
  188.0660  177.7710  147.5000 C   0  0  0  0  0  2  0  0  0  0  0  0
  189.2480  176.9310  147.0330 C   0  0  2  0  0  3  0  0  0  0  0  0
  190.4860  177.2920  147.8380 C   0  0  0  0  0  1  0  0  0  0  0  0
  188.4620  176.9600  144.8150 O   0  0  0  0  0  0  0  0  0  0  0  0
  189.4410  177.0570  145.5370 C   0  0  0  0  0  0  0  0  0  0  0  0
  191.0150  176.3770  143.8710 O   0  0  0  0  0  1  0  0  0  0  0  0
  190.7780  177.2980  144.8930 C   0  0  1  0  0  3  0  0  0  0  0  0
  190.8770  178.6680  144.3740 C   0  0  0  0  0  0  0  0  0  0  0  0
  190.9560  179.7490  143.9670 N   0  0  0  0  0  0  0  0  0  0  0  0
  183.0660  176.1090  137.7710 C   0  0  0  0  0  2  0  0  0  0  0  0
  181.3540  174.4960  137.0460 N   0  0  0  0  0  2  0  0  0  0  0  0
  180.8500  173.7510  135.8930 C   0  0  0  0  0  2  0  0  0  0  0  0
  182.5980  175.1680  136.6620 C   0  0  2  0  0  3  0  0  0  0  0  0
  183.1800  173.2640  135.1520 C   0  0  1  0  0  3  0  0  0  0  0  0
  181.8320  172.6460  135.5120 C   0  0  0  0  0  2  0  0  0  0  0  0
  183.6750  174.1440  136.2980 C   0  0  0  0  0  2  0  0  0  0  0  0
  184.1430  172.2070  134.8830 N   0  0  0  0  0  2  0  0  0  0  0  0
  185.5020  172.2700  135.3180 C   0  0  0  0  0  0  0  0  0  0  0  0
  185.9270  173.2790  135.9470 O   0  0  0  0  0  0  0  0  0  0  0  0
  187.5260  171.0590  135.5790 O   0  0  0  0  0  0  0  0  0  0  0  0
  186.4010  171.1560  135.0170 C   0  0  0  0  0  3  0  0  0  0  0  0
  185.9280  176.8230  137.1170 C   0  0  0  0  0  2  0  0  0  0  0  0
  190.7800  175.1940  137.1010 C   0  0  0  0  0  3  0  0  0  0  0  0
  187.1090  176.7680  138.0320 C   0  0  0  0  0  3  0  0  0  0  0  0
  188.3530  176.4510  137.6540 C   0  0  0  0  0  0  0  0  0  0  0  0
  189.4360  176.4540  138.7000 C   0  0  1  0  0  3  0  0  0  0  0  0
  189.8900  175.5560  136.0350 N   0  0  0  0  0  0  0  0  0  0  0  0
  190.5470  175.5730  138.3240 N   0  0  0  0  0  0  0  0  0  0  0  0
  188.7470  176.1380  136.2560 C   0  0  0  0  0  0  0  0  0  0  0  0
  189.3150  178.6700  139.9740 C   0  0  1  0  0  3  0  0  0  0  0  0
  189.9620  177.8810  138.9010 C   0  0  2  0  0  3  0  0  0  0  0  0
  188.9070  178.8540  138.5710 N   0  0  0  0  0  2  0  0  0  0  0  0
  188.1930  177.9690  140.7340 C   0  0  2  0  0  3  0  0  0  0  0  0
  188.0040  178.6100  142.0540 C   0  0  0  0  0  2  0  0  0  0  0  0
  188.7240  177.4090  141.9130 O   0  0  0  0  0  0  0  0  0  0  0  0
  187.9080  176.4660  135.1850 O   0  0  0  0  0  0  0  0  0  0  0  0
  187.8740  177.7680  134.6160 C   0  0  0  0  0  1  0  0  0  0  0  0
  1  6  2  0  0  0  0
  2  5  1  0  0  0  0
  3  4  1  0  0  0  0
  3 26  1  1  0  0  0
  3  2  1  0  0  0  0
  4 38  1  1  0  0  0
  4  1  1  0  0  0  0
  5  6  1  0  0  0  0
  6  8  1  0  0  0  0
  7  9  1  0  0  0  0
  8  7  2  0  0  0  0
  9 10  2  0  0  0  0
  9 11  1  0  0  0  0
 10 12  1  0  0  0  0
 11 13  1  0  0  0  0
 12 13  2  0  0  0  0
 12 14  1  0  0  0  0
 14 15  2  0  0  0  0
 16 14  1  0  0  0  0
 16 17  1  0  0  0  0
 18 17  1  0  0  0  0
 18 19  1  1  0  0  0
 20 21  2  0  0  0  0
 21 18  1  0  0  0  0
 23 22  1  6  0  0  0
 23 21  1  0  0  0  0
 24 23  1  0  0  0  0
 25 24  3  0  0  0  0
 28 27  1  0  0  0  0
 29 27  1  0  0  0  0
 29 26  1  1  0  0  0
 30 33  1  1  0  0  0
 30 31  1  0  0  0  0
 30 32  1  0  0  0  0
 31 28  1  0  0  0  0
 32 29  1  0  0  0  0
 33 34  1  0  0  0  0
 34 35  2  0  0  0  0
 37 34  1  0  0  0  0
 37 36  2  0  0  0  0
 38 40  1  0  0  0  0
 39 44  2  0  0  0  0
 41 40  2  0  0  0  0
 42 41  1  6  0  0  0
 42 47  1  0  0  0  0
 43 45  2  0  0  0  0
 43 39  1  0  0  0  0
 44 42  1  0  0  0  0
 45 41  1  0  0  0  0
 46 48  1  6  0  0  0
 46 49  1  0  0  0  0
 47 48  1  6  0  0  0
 47 46  1  0  0  0  0
 49 51  1  0  0  0  0
 49 50  1  1  0  0  0
 51 50  1  0  0  0  0
 52 45  1  0  0  0  0
 53 52  1  0  0  0  0
M  END
>  <MODEL>
7

>  <REMARK>
 VINA RESULT:      -6.2      1.911      2.648
  Name = 
  17 active torsions:
  status: ('A' for Active; 'I' for Inactive)
    1  A    between atoms: C_2  and  C_9
    2  A    between atoms: C_5  and  C_53
    3  A    between atoms: C_7  and  C_47
    4  A    between atoms: C_11  and  C_48
    5  A    between atoms: C_12  and  C_41
    6  A    between atoms: C_13  and  C_19
    7  A    between atoms: C_14  and  C_46
    8  A    between atoms: N_15  and  C_18
    9  A    between atoms: C_16  and  C_40
   10  A    between atoms: C_20  and  C_32
   11  A    between atoms: C_21  and  C_49
   12  A    between atoms: C_21  and  C_51
   13  A    between atoms: O_27  and  C_44
   14  A    between atoms: C_30  and  C_46
   15  A    between atoms: N_31  and  C_51
   16  A    between atoms: C_33  and  C_48
   17  A    between atoms: C_41  and  C_49
                            x       y       z     vdW  Elec       q    Type
                         _______ _______ _______ _____ _____    ______ ____

>  <TORSDO>
F 17

$$$$
=
 OpenBabel10222417533D

 53 58  0  0  1  0  0  0  0  0999 V2000
  186.2020  178.3130  140.0710 C   0  0  0  0  0  3  0  0  0  0  0  0
  187.4610  179.4880  142.3670 C   0  0  0  0  0  2  0  0  0  0  0  0
  186.0300  178.9660  142.5000 C   0  0  1  0  0  3  0  0  0  0  0  0
  185.3760  179.0140  141.1120 C   0  0  2  0  0  3  0  0  0  0  0  0
  188.2880  178.6270  141.4060 C   0  0  0  0  0  2  0  0  0  0  0  0
  187.5320  178.1930  140.1640 C   0  0  0  0  0  0  0  0  0  0  0  0
  189.5070  177.1220  139.1870 C   0  0  0  0  0  3  0  0  0  0  0  0
  188.2330  177.4880  139.0850 C   0  0  0  0  0  3  0  0  0  0  0  0
  190.1850  176.4080  138.1040 C   0  0  0  0  0  0  0  0  0  0  0  0
  190.6410  175.1470  138.2200 N   0  0  0  0  0  0  0  0  0  0  0  0
  190.4100  176.8980  136.9100 O   0  0  0  0  0  0  0  0  0  0  0  0
  191.1540  174.9410  136.9870 C   0  0  0  0  0  0  0  0  0  0  0  0
  191.0140  176.0110  136.1810 N   0  0  0  0  0  0  0  0  0  0  0  0
  191.7730  173.6810  136.5680 C   0  0  0  0  0  0  0  0  0  0  0  0
  191.0710  172.7880  136.0190 O   0  0  0  0  0  0  0  0  0  0  0  0
  193.1730  173.4680  136.7800 N   0  0  0  0  0  2  0  0  0  0  0  0
  193.8640  172.2830  136.2910 C   0  0  0  0  0  2  0  0  0  0  0  0
  195.1740  172.0830  137.0440 C   0  0  2  0  0  3  0  0  0  0  0  0
  195.0600  170.8790  137.9640 C   0  0  0  0  0  1  0  0  0  0  0  0
  195.2890  173.4820  138.9330 O   0  0  0  0  0  0  0  0  0  0  0  0
  195.5840  173.3540  137.7560 C   0  0  0  0  0  0  0  0  0  0  0  0
  195.5090  175.5620  136.8430 O   0  0  0  0  0  1  0  0  0  0  0  0
  196.3420  174.4690  137.0880 C   0  0  1  0  0  3  0  0  0  0  0  0
  197.4970  174.8820  137.8940 C   0  0  0  0  0  0  0  0  0  0  0  0
  198.4090  175.2050  138.5280 N   0  0  0  0  0  0  0  0  0  0  0  0
  185.9950  177.5580  143.1150 C   0  0  0  0  0  2  0  0  0  0  0  0
  185.5390  178.8350  145.1690 N   0  0  0  0  0  2  0  0  0  0  0  0
  185.4370  178.7290  146.6240 C   0  0  0  0  0  2  0  0  0  0  0  0
  186.0470  177.5660  144.6420 C   0  0  2  0  0  3  0  0  0  0  0  0
  187.4490  177.2580  146.6870 C   0  0  1  0  0  3  0  0  0  0  0  0
  186.8240  178.5380  147.2350 C   0  0  0  0  0  2  0  0  0  0  0  0
  187.4600  177.2930  145.1600 C   0  0  0  0  0  2  0  0  0  0  0  0
  188.8070  177.1260  147.1930 N   0  0  0  0  0  2  0  0  0  0  0  0
  189.9510  177.0960  146.3400 C   0  0  0  0  0  0  0  0  0  0  0  0
  189.8170  177.1640  145.0860 O   0  0  0  0  0  0  0  0  0  0  0  0
  192.0850  176.0810  146.5500 O   0  0  0  0  0  0  0  0  0  0  0  0
  191.2830  176.9750  146.9320 C   0  0  0  0  0  3  0  0  0  0  0  0
  183.9440  178.4930  141.1050 C   0  0  0  0  0  2  0  0  0  0  0  0
  180.3360  175.8440  138.6220 C   0  0  0  0  0  3  0  0  0  0  0  0
  183.8250  177.2990  140.2120 C   0  0  0  0  0  3  0  0  0  0  0  0
  182.7240  176.9620  139.5320 C   0  0  0  0  0  0  0  0  0  0  0  0
  182.7730  175.7320  138.6650 C   0  0  1  0  0  3  0  0  0  0  0  0
  180.3680  177.1950  139.1030 N   0  0  0  0  0  0  0  0  0  0  0  0
  181.4350  175.1650  138.4610 N   0  0  0  0  0  0  0  0  0  0  0  0
  181.4630  177.7480  139.5410 C   0  0  0  0  0  0  0  0  0  0  0  0
  184.3260  175.0790  136.7390 C   0  0  1  0  0  3  0  0  0  0  0  0
  183.3920  176.0790  137.3050 C   0  0  2  0  0  3  0  0  0  0  0  0
  184.8460  176.2600  137.4480 N   0  0  0  0  0  2  0  0  0  0  0  0
  184.5700  173.8370  137.5900 C   0  0  2  0  0  3  0  0  0  0  0  0
  185.7180  173.0750  137.0490 C   0  0  0  0  0  2  0  0  0  0  0  0
  184.3880  172.6940  136.7870 O   0  0  0  0  0  0  0  0  0  0  0  0
  181.4440  179.0670  140.0070 O   0  0  0  0  0  0  0  0  0  0  0  0
  180.4100  179.5630  140.8470 C   0  0  0  0  0  1  0  0  0  0  0  0
  1  6  2  0  0  0  0
  1  4  1  0  0  0  0
  2  3  1  0  0  0  0
  3 26  1  6  0  0  0
  4 38  1  1  0  0  0
  4  3  1  0  0  0  0
  5  2  1  0  0  0  0
  6  5  1  0  0  0  0
  8  7  2  0  0  0  0
  8  6  1  0  0  0  0
  9 10  2  0  0  0  0
  9  7  1  0  0  0  0
 11  9  1  0  0  0  0
 12 10  1  0  0  0  0
 13 11  1  0  0  0  0
 13 12  2  0  0  0  0
 14 16  1  0  0  0  0
 14 12  1  0  0  0  0
 15 14  2  0  0  0  0
 17 16  1  0  0  0  0
 17 18  1  0  0  0  0
 18 21  1  0  0  0  0
 18 19  1  1  0  0  0
 21 20  2  0  0  0  0
 23 22  1  1  0  0  0
 23 21  1  0  0  0  0
 23 24  1  0  0  0  0
 24 25  3  0  0  0  0
 27 28  1  0  0  0  0
 28 31  1  0  0  0  0
 29 26  1  6  0  0  0
 29 32  1  0  0  0  0
 29 27  1  0  0  0  0
 30 33  1  1  0  0  0
 30 31  1  0  0  0  0
 32 30  1  0  0  0  0
 34 37  1  0  0  0  0
 34 33  1  0  0  0  0
 35 34  2  0  0  0  0
 36 37  2  0  0  0  0
 39 43  1  0  0  0  0
 40 38  1  0  0  0  0
 41 45  1  0  0  0  0
 41 40  2  0  0  0  0
 42 44  1  6  0  0  0
 42 41  1  0  0  0  0
 43 45  2  0  0  0  0
 44 39  2  0  0  0  0
 45 52  1  0  0  0  0
 46 47  1  0  0  0  0
 46 48  1  1  0  0  0
 46 49  1  0  0  0  0
 47 48  1  1  0  0  0
 47 42  1  0  0  0  0
 49 50  1  6  0  0  0
 51 50  1  0  0  0  0
 51 49  1  0  0  0  0
 52 53  1  0  0  0  0
M  END
>  <MODEL>
8

>  <REMARK>
 VINA RESULT:      -6.0      3.511      9.147
  Name = 
  17 active torsions:
  status: ('A' for Active; 'I' for Inactive)
    1  A    between atoms: C_2  and  C_9
    2  A    between atoms: C_5  and  C_53
    3  A    between atoms: C_7  and  C_47
    4  A    between atoms: C_11  and  C_48
    5  A    between atoms: C_12  and  C_41
    6  A    between atoms: C_13  and  C_19
    7  A    between atoms: C_14  and  C_46
    8  A    between atoms: N_15  and  C_18
    9  A    between atoms: C_16  and  C_40
   10  A    between atoms: C_20  and  C_32
   11  A    between atoms: C_21  and  C_49
   12  A    between atoms: C_21  and  C_51
   13  A    between atoms: O_27  and  C_44
   14  A    between atoms: C_30  and  C_46
   15  A    between atoms: N_31  and  C_51
   16  A    between atoms: C_33  and  C_48
   17  A    between atoms: C_41  and  C_49
                            x       y       z     vdW  Elec       q    Type
                         _______ _______ _______ _____ _____    ______ ____

>  <TORSDO>
F 17

$$$$
=
 OpenBabel10222417533D

 53 58  0  0  1  0  0  0  0  0999 V2000
  187.8730  177.6470  139.2120 C   0  0  0  0  0  3  0  0  0  0  0  0
  190.1350  177.9000  137.4620 C   0  0  0  0  0  2  0  0  0  0  0  0
  190.3430  177.2910  138.8490 C   0  0  1  0  0  3  0  0  0  0  0  0
  189.2520  177.8410  139.7780 C   0  0  2  0  0  3  0  0  0  0  0  0
  188.7650  177.5280  136.8840 C   0  0  0  0  0  2  0  0  0  0  0  0
  187.6370  177.5730  137.8970 C   0  0  0  0  0  0  0  0  0  0  0  0
  185.9380  176.7420  136.3380 C   0  0  0  0  0  3  0  0  0  0  0  0
  186.2480  177.3830  137.4610 C   0  0  0  0  0  3  0  0  0  0  0  0
  184.5470  176.5510  135.9280 C   0  0  0  0  0  0  0  0  0  0  0  0
  183.5100  176.5840  136.7850 N   0  0  0  0  0  0  0  0  0  0  0  0
  184.1520  176.3440  134.6960 O   0  0  0  0  0  0  0  0  0  0  0  0
  182.4710  176.3780  135.9470 C   0  0  0  0  0  0  0  0  0  0  0  0
  182.8600  176.2320  134.6650 N   0  0  0  0  0  0  0  0  0  0  0  0
  181.0730  176.3430  136.3840 C   0  0  0  0  0  0  0  0  0  0  0  0
  180.5060  175.2340  136.5850 O   0  0  0  0  0  0  0  0  0  0  0  0
  180.3570  177.5660  136.5840 N   0  0  0  0  0  2  0  0  0  0  0  0
  179.0020  177.5980  137.1180 C   0  0  0  0  0  2  0  0  0  0  0  0
  178.9470  178.4490  138.3800 C   0  0  2  0  0  3  0  0  0  0  0  0
  179.5210  179.8270  138.0960 C   0  0  0  0  0  1  0  0  0  0  0  0
  179.3620  176.5620  139.7240 O   0  0  0  0  0  0  0  0  0  0  0  0
  179.6180  177.7400  139.5370 C   0  0  0  0  0  0  0  0  0  0  0  0
  180.1650  178.3050  141.7950 O   0  0  0  0  0  1  0  0  0  0  0  0
  180.5890  178.4130  140.4690 C   0  0  1  0  0  3  0  0  0  0  0  0
  181.9390  177.8570  140.3200 C   0  0  0  0  0  0  0  0  0  0  0  0
  183.0020  177.4170  140.2010 N   0  0  0  0  0  0  0  0  0  0  0  0
  190.3490  175.7550  138.7980 C   0  0  0  0  0  2  0  0  0  0  0  0
  190.5500  173.8470  137.2560 N   0  0  0  0  0  2  0  0  0  0  0  0
  191.0940  173.4270  135.9660 C   0  0  0  0  0  2  0  0  0  0  0  0
  191.0360  175.1960  137.5540 C   0  0  2  0  0  3  0  0  0  0  0  0
  193.2000  174.6840  136.4130 C   0  0  1  0  0  3  0  0  0  0  0  0
  192.6160  173.3230  136.0470 C   0  0  0  0  0  2  0  0  0  0  0  0
  192.5590  175.2000  137.7000 C   0  0  0  0  0  2  0  0  0  0  0  0
  194.6390  174.5640  136.5860 N   0  0  0  0  0  2  0  0  0  0  0  0
  195.5730  175.3940  135.8940 C   0  0  0  0  0  0  0  0  0  0  0  0
  195.1710  176.2650  135.0730 O   0  0  0  0  0  0  0  0  0  0  0  0
  197.5370  175.6230  137.2060 O   0  0  0  0  0  0  0  0  0  0  0  0
  197.0050  175.2170  136.1370 C   0  0  0  0  0  3  0  0  0  0  0  0
  189.3360  177.2880  141.1960 C   0  0  0  0  0  2  0  0  0  0  0  0
  187.5820  177.5270  145.9980 C   0  0  0  0  0  3  0  0  0  0  0  0
  188.0500  177.5150  141.9240 C   0  0  0  0  0  3  0  0  0  0  0  0
  187.9460  177.7280  143.2410 C   0  0  0  0  0  0  0  0  0  0  0  0
  186.5740  177.9530  143.8180 C   0  0  1  0  0  3  0  0  0  0  0  0
  188.8960  177.7100  145.4510 N   0  0  0  0  0  0  0  0  0  0  0  0
  186.5250  177.5990  145.2410 N   0  0  0  0  0  0  0  0  0  0  0  0
  189.1040  177.8020  144.1690 C   0  0  0  0  0  0  0  0  0  0  0  0
  184.7360  179.7330  143.8410 C   0  0  1  0  0  3  0  0  0  0  0  0
  186.1700  179.4220  143.6440 C   0  0  2  0  0  3  0  0  0  0  0  0
  185.2760  179.5620  142.4820 N   0  0  0  0  0  2  0  0  0  0  0  0
  183.8360  178.5470  144.1740 C   0  0  2  0  0  3  0  0  0  0  0  0
  182.4200  178.9800  144.1940 C   0  0  0  0  0  2  0  0  0  0  0  0
  183.1600  178.8150  145.3800 O   0  0  0  0  0  0  0  0  0  0  0  0
  190.4040  177.9730  143.6800 O   0  0  0  0  0  0  0  0  0  0  0  0
  191.1730  179.1360  143.9550 C   0  0  0  0  0  1  0  0  0  0  0  0
  1  4  1  0  0  0  0
  2  3  1  0  0  0  0
  3 26  1  6  0  0  0
  3  4  1  0  0  0  0
  4 38  1  1  0  0  0
  5  2  1  0  0  0  0
  5  6  1  0  0  0  0
  6  1  2  0  0  0  0
  7  8  2  0  0  0  0
  8  6  1  0  0  0  0
  9  7  1  0  0  0  0
  9 10  2  0  0  0  0
 11  9  1  0  0  0  0
 12 14  1  0  0  0  0
 12 10  1  0  0  0  0
 13 11  1  0  0  0  0
 13 12  2  0  0  0  0
 14 16  1  0  0  0  0
 14 15  2  0  0  0  0
 16 17  1  0  0  0  0
 17 18  1  0  0  0  0
 18 19  1  6  0  0  0
 18 21  1  0  0  0  0
 21 20  2  0  0  0  0
 21 23  1  0  0  0  0
 23 22  1  1  0  0  0
 24 23  1  0  0  0  0
 25 24  3  0  0  0  0
 27 29  1  0  0  0  0
 28 31  1  0  0  0  0
 28 27  1  0  0  0  0
 29 32  1  0  0  0  0
 29 26  1  1  0  0  0
 30 33  1  1  0  0  0
 30 32  1  0  0  0  0
 31 30  1  0  0  0  0
 34 37  1  0  0  0  0
 34 33  1  0  0  0  0
 35 34  2  0  0  0  0
 37 36  2  0  0  0  0
 38 40  1  0  0  0  0
 40 41  2  0  0  0  0
 41 45  1  0  0  0  0
 42 41  1  1  0  0  0
 42 44  1  0  0  0  0
 43 39  1  0  0  0  0
 44 39  2  0  0  0  0
 45 43  2  0  0  0  0
 46 48  1  6  0  0  0
 46 49  1  0  0  0  0
 47 48  1  6  0  0  0
 47 42  1  0  0  0  0
 47 46  1  0  0  0  0
 49 50  1  6  0  0  0
 49 51  1  0  0  0  0
 50 51  1  0  0  0  0
 52 53  1  0  0  0  0
 52 45  1  0  0  0  0
M  END
>  <MODEL>
9

>  <REMARK>
 VINA RESULT:      -5.9      3.090     10.426
  Name = 
  17 active torsions:
  status: ('A' for Active; 'I' for Inactive)
    1  A    between atoms: C_2  and  C_9
    2  A    between atoms: C_5  and  C_53
    3  A    between atoms: C_7  and  C_47
    4  A    between atoms: C_11  and  C_48
    5  A    between atoms: C_12  and  C_41
    6  A    between atoms: C_13  and  C_19
    7  A    between atoms: C_14  and  C_46
    8  A    between atoms: N_15  and  C_18
    9  A    between atoms: C_16  and  C_40
   10  A    between atoms: C_20  and  C_32
   11  A    between atoms: C_21  and  C_49
   12  A    between atoms: C_21  and  C_51
   13  A    between atoms: O_27  and  C_44
   14  A    between atoms: C_30  and  C_46
   15  A    between atoms: N_31  and  C_51
   16  A    between atoms: C_33  and  C_48
   17  A    between atoms: C_41  and  C_49
                            x       y       z     vdW  Elec       q    Type
                         _______ _______ _______ _____ _____    ______ ____

>  <TORSDO>
F 17

$$$$
