=
 OpenBabel10222416393D

 30 36  0  0  1  0  0  0  0  0999 V2000
  189.4890  177.0510  143.6900 C   0  0  0  0  0  0  0  0  0  0  0  0
  191.3620  176.2920  145.2150 C   0  0  0  0  0  0  0  0  0  0  0  0
  187.2190  177.7660  147.4110 N   0  0  0  0  0  0  0  0  0  0  0  0
  188.1330  177.4500  143.5760 C   0  0  0  0  0  0  0  0  0  0  0  0
  190.2720  177.0030  142.5230 C   0  0  0  0  0  3  0  0  0  0  0  0
  187.9370  178.1550  139.5160 S   0  0  0  0  0  0  0  0  0  0  0  0
  185.1640  177.7050  142.9570 C   0  0  1  0  0  3  0  0  0  0  0  0
  188.4210  177.7840  141.1950 C   0  0  0  0  0  0  0  0  0  0  0  0
  190.4300  177.3020  140.0750 N   0  0  0  0  0  2  0  0  0  0  0  0
  185.0710  178.1550  144.4130 C   0  0  2  0  0  3  0  0  0  0  0  0
  186.3350  178.5240  146.5680 C   0  0  0  0  0  0  0  0  0  0  0  0
  189.7160  177.3460  141.2950 C   0  0  0  0  0  0  0  0  0  0  0  0
  187.5990  177.8610  142.3290 C   0  0  0  0  0  0  0  0  0  0  0  0
  191.9810  176.3740  146.5250 N   0  0  0  0  0  2  0  0  0  0  0  0
  184.1430  179.3480  144.3970 C   0  0  0  0  0  2  0  0  0  0  0  0
  183.8060  178.0450  142.3550 C   0  0  0  0  0  2  0  0  0  0  0  0
  189.5630  176.6300  137.9080 C   0  0  0  0  0  1  0  0  0  0  0  0
  192.0230  175.5650  144.1820 N   0  0  0  0  0  1  0  0  0  0  0  0
  188.4560  177.5180  147.1130 C   0  0  0  0  0  0  0  0  0  0  0  0
  191.2520  177.0200  147.6340 C   0  0  0  0  0  2  0  0  0  0  0  0
  189.6350  177.7400  138.9360 C   0  0  1  0  0  3  0  0  0  0  0  0
  190.1300  176.8540  145.0370 C   0  0  0  0  0  0  0  0  0  0  0  0
  187.3340  177.4190  144.7100 O   0  0  0  0  0  0  0  0  0  0  0  0
  185.4420  179.2310  147.1040 O   0  0  0  0  0  0  0  0  0  0  0  0
  186.4290  178.4540  145.0590 C   0  0  1  0  0  3  0  0  0  0  0  0
  183.1530  179.0610  143.2840 C   0  0  0  0  0  2  0  0  0  0  0  0
  186.0760  179.7190  141.6910 C   0  0  0  0  0  1  0  0  0  0  0  0
  189.7780  176.7640  147.3610 C   0  0  2  0  0  3  0  0  0  0  0  0
  189.6810  177.6730  146.2380 C   0  0  2  0  0  3  0  0  0  0  0  0
  186.2590  178.3760  142.2350 N   0  0  0  0  0  0  0  0  0  0  0  0
  1 22  1  0  0  0  0
  2 14  1  0  0  0  0
  4  1  1  0  0  0  0
  4 23  1  0  0  0  0
  5  1  2  0  0  0  0
  6  8  1  0  0  0  0
  7 16  1  6  0  0  0
  7 10  1  0  0  0  0
  8 12  2  0  0  0  0
  8 13  1  0  0  0  0
  9 12  1  0  0  0  0
 10 15  1  6  0  0  0
 10 25  1  0  0  0  0
 11 24  2  0  0  0  0
 11  3  1  0  0  0  0
 12  5  1  0  0  0  0
 13  4  2  0  0  0  0
 14 20  1  0  0  0  0
 16 26  1  0  0  0  0
 18  2  1  0  0  0  0
 19 28  1  0  0  0  0
 19  3  2  0  0  0  0
 21 17  1  6  0  0  0
 21  6  1  0  0  0  0
 21  9  1  0  0  0  0
 22  2  2  0  0  0  0
 25 23  1  1  0  0  0
 25 11  1  0  0  0  0
 26 15  1  0  0  0  0
 27 30  1  0  0  0  0
 28 20  1  1  0  0  0
 29 22  1  6  0  0  0
 29 19  1  0  0  0  0
 29 28  1  0  0  0  0
 30 13  1  0  0  0  0
 30  7  1  0  0  0  0
M  END
>  <MODEL>
1

>  <REMARK>
 VINA RESULT:     -11.7      0.000      0.000
  Name = 
  0 active torsions:
  status: ('A' for Active; 'I' for Inactive)
                            x       y       z     vdW  Elec       q    Type
                         _______ _______ _______ _____ _____    ______ ____

>  <TORSDO>
F 0

$$$$
=
 OpenBabel10222416393D

 30 36  0  0  1  0  0  0  0  0999 V2000
  186.3340  178.4290  141.5700 C   0  0  0  0  0  0  0  0  0  0  0  0
  183.9110  179.1560  141.4540 C   0  0  0  0  0  0  0  0  0  0  0  0
  185.8120  178.5960  145.9530 N   0  0  0  0  0  0  0  0  0  0  0  0
  187.4720  178.2010  142.3840 C   0  0  0  0  0  0  0  0  0  0  0  0
  186.4430  178.1950  140.1870 C   0  0  0  0  0  3  0  0  0  0  0  0
  190.1520  176.9200  139.5210 S   0  0  0  0  0  0  0  0  0  0  0  0
  190.1870  178.2520  143.7590 C   0  0  1  0  0  3  0  0  0  0  0  0
  188.7270  177.4740  140.4450 C   0  0  0  0  0  0  0  0  0  0  0  0
  187.8410  177.5090  138.2690 N   0  0  0  0  0  2  0  0  0  0  0  0
  189.3610  178.0450  145.0270 C   0  0  2  0  0  3  0  0  0  0  0  0
  187.0360  177.8430  145.9920 C   0  0  0  0  0  0  0  0  0  0  0  0
  187.6450  177.7460  139.6490 C   0  0  0  0  0  0  0  0  0  0  0  0
  188.6680  177.6810  141.8320 C   0  0  0  0  0  0  0  0  0  0  0  0
  182.6140  179.1920  142.1040 N   0  0  0  0  0  0  0  0  0  0  0  0
  190.1100  176.9970  145.8180 C   0  0  0  0  0  2  0  0  0  0  0  0
  191.6280  178.0080  144.1880 C   0  0  0  0  0  2  0  0  0  0  0  0
  189.8590  177.9520  136.9910 C   0  0  0  0  0  1  0  0  0  0  0  0
  184.0260  179.6220  140.1130 N   0  0  0  0  0  1  0  0  0  0  0  0
  185.0240  178.6300  144.9230 C   0  0  0  0  0  0  0  0  0  0  0  0
  182.5040  178.8250  143.5290 C   0  0  0  0  0  2  0  0  0  0  0  0
  189.1760  177.0120  137.9630 C   0  0  1  0  0  3  0  0  0  0  0  0
  184.9930  178.7420  142.1780 C   0  0  1  0  0  3  0  0  0  0  0  0
  187.3940  178.5100  143.7360 O   0  0  0  0  0  0  0  0  0  0  0  0
  187.4110  177.3510  147.0890 O   0  0  0  0  0  0  0  0  0  0  0  0
  187.8980  177.6700  144.7610 C   0  0  1  0  0  3  0  0  0  0  0  0
  191.5740  177.2410  145.5040 C   0  0  0  0  0  2  0  0  0  0  0  0
  190.2770  175.9660  142.6390 C   0  0  0  0  0  1  0  0  0  0  0  0
  183.8260  179.2300  144.1610 C   0  0  2  0  0  3  0  0  0  0  0  0
  184.6090  178.1820  143.5390 C   0  0  2  0  0  3  0  0  0  0  0  0
  189.7830  177.3390  142.6760 N   0  0  0  0  0  0  0  0  0  0  0  0
  1 22  1  0  0  0  0
  1  4  1  0  0  0  0
  2 14  2  0  0  0  0
  3 11  1  0  0  0  0
  4 23  1  0  0  0  0
  5  1  2  0  0  0  0
  6  8  1  0  0  0  0
  7 16  1  1  0  0  0
  7 10  1  0  0  0  0
  8 13  1  0  0  0  0
  9 12  1  0  0  0  0
 10 15  1  1  0  0  0
 11 24  2  0  0  0  0
 12  5  1  0  0  0  0
 12  8  2  0  0  0  0
 13  4  2  0  0  0  0
 13 30  1  0  0  0  0
 14 20  1  0  0  0  0
 16 26  1  0  0  0  0
 18  2  1  0  0  0  0
 19  3  2  0  0  0  0
 21 17  1  6  0  0  0
 21  9  1  0  0  0  0
 21  6  1  0  0  0  0
 22  2  1  6  0  0  0
 22 29  1  0  0  0  0
 25 23  1  6  0  0  0
 25 10  1  0  0  0  0
 25 11  1  0  0  0  0
 26 15  1  0  0  0  0
 27 30  1  0  0  0  0
 28 20  1  1  0  0  0
 28 19  1  0  0  0  0
 29 28  1  0  0  0  0
 29 19  1  1  0  0  0
 30  7  1  0  0  0  0
M  END
>  <MODEL>
2

>  <REMARK>
 VINA RESULT:     -10.3      1.828      5.461
  Name = 
  0 active torsions:
  status: ('A' for Active; 'I' for Inactive)
                            x       y       z     vdW  Elec       q    Type
                         _______ _______ _______ _____ _____    ______ ____

>  <TORSDO>
F 0

$$$$
=
 OpenBabel10222416393D

 30 36  0  0  1  0  0  0  0  0999 V2000
  188.8730  177.3870  144.1570 C   0  0  0  0  0  0  0  0  0  0  0  0
  190.3200  176.9150  146.1800 C   0  0  0  0  0  0  0  0  0  0  0  0
  185.6370  178.1140  147.0740 N   0  0  0  0  0  0  0  0  0  0  0  0
  187.5710  177.6430  143.6560 C   0  0  0  0  0  0  0  0  0  0  0  0
  189.9430  177.3410  143.2450 C   0  0  0  0  0  3  0  0  0  0  0  0
  188.4200  178.0630  139.6410 S   0  0  0  0  0  0  0  0  0  0  0  0
  184.8670  177.5650  142.2600 C   0  0  1  0  0  3  0  0  0  0  0  0
  188.4620  177.8500  141.4140 C   0  0  0  0  0  0  0  0  0  0  0  0
  190.7290  177.4970  140.9070 N   0  0  0  0  0  2  0  0  0  0  0  0
  184.3510  178.0960  143.5960 C   0  0  2  0  0  3  0  0  0  0  0  0
  184.9570  178.7260  145.9650 C   0  0  0  0  0  0  0  0  0  0  0  0
  189.7120  177.5490  141.8880 C   0  0  0  0  0  0  0  0  0  0  0  0
  187.3610  177.9180  142.2820 C   0  0  0  0  0  0  0  0  0  0  0  0
  190.5550  177.1420  147.5930 N   0  0  0  0  0  2  0  0  0  0  0  0
  183.3720  179.1890  143.2320 C   0  0  0  0  0  2  0  0  0  0  0  0
  183.6990  177.7310  141.2970 C   0  0  0  0  0  2  0  0  0  0  0  0
  190.5320  176.6050  138.6560 C   0  0  0  0  0  1  0  0  0  0  0  0
  191.2890  176.1930  145.4250 N   0  0  0  0  0  1  0  0  0  0  0  0
  186.9250  177.9690  147.1340 C   0  0  0  0  0  0  0  0  0  0  0  0
  189.5060  177.7840  148.4110 C   0  0  0  0  0  2  0  0  0  0  0  0
  190.2390  177.7810  139.5650 C   0  0  1  0  0  3  0  0  0  0  0  0
  189.1410  177.3410  145.6370 C   0  0  0  0  0  0  0  0  0  0  0  0
  186.5010  177.6070  144.5400 O   0  0  0  0  0  0  0  0  0  0  0  0
  183.9000  179.3750  146.1840 O   0  0  0  0  0  0  0  0  0  0  0  0
  185.4580  178.5680  144.5460 C   0  0  1  0  0  3  0  0  0  0  0  0
  182.7430  178.7360  141.9280 C   0  0  0  0  0  2  0  0  0  0  0  0
  185.9280  179.5740  141.1060 C   0  0  0  0  0  1  0  0  0  0  0  0
  188.1850  177.3660  147.7860 C   0  0  2  0  0  3  0  0  0  0  0  0
  188.3240  178.1880  146.6000 C   0  0  2  0  0  3  0  0  0  0  0  0
  186.0600  178.2930  141.7950 N   0  0  0  0  0  0  0  0  0  0  0  0
  1 22  1  0  0  0  0
  2 14  1  0  0  0  0
  3 19  2  0  0  0  0
  4  1  1  0  0  0  0
  4 23  1  0  0  0  0
  5  1  2  0  0  0  0
  6  8  1  0  0  0  0
  7 16  1  6  0  0  0
  7 10  1  0  0  0  0
  8 12  2  0  0  0  0
  8 13  1  0  0  0  0
  9 12  1  0  0  0  0
 10 15  1  6  0  0  0
 10 25  1  0  0  0  0
 11 24  2  0  0  0  0
 11  3  1  0  0  0  0
 12  5  1  0  0  0  0
 13  4  2  0  0  0  0
 14 20  1  0  0  0  0
 16 26  1  0  0  0  0
 18  2  1  0  0  0  0
 19 28  1  0  0  0  0
 21 17  1  6  0  0  0
 21  6  1  0  0  0  0
 21  9  1  0  0  0  0
 22  2  2  0  0  0  0
 25 23  1  1  0  0  0
 25 11  1  0  0  0  0
 26 15  1  0  0  0  0
 27 30  1  0  0  0  0
 28 20  1  1  0  0  0
 29 22  1  6  0  0  0
 29 19  1  0  0  0  0
 29 28  1  0  0  0  0
 30  7  1  0  0  0  0
 30 13  1  0  0  0  0
M  END
>  <MODEL>
3

>  <REMARK>
 VINA RESULT:      -9.7      1.052      1.238
  Name = 
  0 active torsions:
  status: ('A' for Active; 'I' for Inactive)
                            x       y       z     vdW  Elec       q    Type
                         _______ _______ _______ _____ _____    ______ ____

>  <TORSDO>
F 0

$$$$
=
 OpenBabel10222416393D

 30 36  0  0  1  0  0  0  0  0999 V2000
  185.7100  178.5680  142.6460 C   0  0  0  0  0  0  0  0  0  0  0  0
  185.2610  178.6690  145.1350 C   0  0  0  0  0  0  0  0  0  0  0  0
  189.7250  177.1190  143.7810 N   0  0  0  0  0  0  0  0  0  0  0  0
  186.6610  178.3680  141.6130 C   0  0  0  0  0  0  0  0  0  0  0  0
  184.3790  178.8470  142.2840 C   0  0  0  0  0  3  0  0  0  0  0  0
  184.2350  178.8280  138.3090 S   0  0  0  0  0  0  0  0  0  0  0  0
  188.5700  178.6240  139.2570 C   0  0  1  0  0  3  0  0  0  0  0  0
  184.9310  178.6690  139.9460 C   0  0  0  0  0  0  0  0  0  0  0  0
  182.7130  179.2130  140.4970 N   0  0  0  0  0  2  0  0  0  0  0  0
  189.5070  177.8060  140.1430 C   0  0  2  0  0  3  0  0  0  0  0  0
  189.8250  176.7230  142.4030 C   0  0  0  0  0  0  0  0  0  0  0  0
  184.0220  178.9160  140.9410 C   0  0  0  0  0  0  0  0  0  0  0  0
  186.2690  178.3760  140.2520 C   0  0  0  0  0  0  0  0  0  0  0  0
  185.5840  178.1630  146.4560 N   0  0  0  0  0  2  0  0  0  0  0  0
  190.1160  176.7720  139.2240 C   0  0  0  0  0  2  0  0  0  0  0  0
  189.2260  178.6130  137.8820 C   0  0  0  0  0  2  0  0  0  0  0  0
  182.1030  180.5430  138.5590 C   0  0  0  0  0  1  0  0  0  0  0  0
  184.1680  179.5720  144.9890 N   0  0  0  0  0  1  0  0  0  0  0  0
  188.5970  177.3010  144.3940 C   0  0  0  0  0  0  0  0  0  0  0  0
  186.7830  177.3240  146.6400 C   0  0  0  0  0  2  0  0  0  0  0  0
  182.5880  179.1940  139.0450 C   0  0  1  0  0  3  0  0  0  0  0  0
  186.0620  178.3170  144.0870 C   0  0  0  0  0  0  0  0  0  0  0  0
  187.9910  178.1760  141.9640 O   0  0  0  0  0  0  0  0  0  0  0  0
  190.7930  176.0000  142.0470 O   0  0  0  0  0  0  0  0  0  0  0  0
  188.8220  177.1930  141.3710 C   0  0  1  0  0  3  0  0  0  0  0  0
  190.2240  177.4610  137.8760 C   0  0  0  0  0  2  0  0  0  0  0  0
  186.8990  176.9440  138.3200 C   0  0  0  0  0  1  0  0  0  0  0  0
  187.7860  177.8070  145.6050 C   0  0  2  0  0  3  0  0  0  0  0  0
  187.0860  177.2560  144.4620 C   0  0  2  0  0  3  0  0  0  0  0  0
  187.2110  178.0580  139.2110 N   0  0  0  0  0  0  0  0  0  0  0  0
  1 22  1  0  0  0  0
  2 14  1  0  0  0  0
  3 19  2  0  0  0  0
  4 23  1  0  0  0  0
  4  1  2  0  0  0  0
  5  1  1  0  0  0  0
  6 21  1  0  0  0  0
  6  8  1  0  0  0  0
  7 16  1  6  0  0  0
  7 10  1  0  0  0  0
  8 13  2  0  0  0  0
  8 12  1  0  0  0  0
  9 12  1  0  0  0  0
 10 15  1  6  0  0  0
 10 25  1  0  0  0  0
 11  3  1  0  0  0  0
 12  5  2  0  0  0  0
 13  4  1  0  0  0  0
 14 20  1  0  0  0  0
 18  2  1  0  0  0  0
 19 29  1  0  0  0  0
 19 28  1  0  0  0  0
 21 17  1  6  0  0  0
 21  9  1  0  0  0  0
 22  2  2  0  0  0  0
 24 11  2  0  0  0  0
 25 23  1  1  0  0  0
 25 11  1  0  0  0  0
 26 16  1  0  0  0  0
 26 15  1  0  0  0  0
 27 30  1  0  0  0  0
 28 20  1  1  0  0  0
 29 22  1  6  0  0  0
 29 28  1  0  0  0  0
 30  7  1  0  0  0  0
 30 13  1  0  0  0  0
M  END
>  <MODEL>
4

>  <REMARK>
 VINA RESULT:      -9.6      2.415      5.756
  Name = 
  0 active torsions:
  status: ('A' for Active; 'I' for Inactive)
                            x       y       z     vdW  Elec       q    Type
                         _______ _______ _______ _____ _____    ______ ____

>  <TORSDO>
F 0

$$$$
=
 OpenBabel10222416393D

 30 36  0  0  1  0  0  0  0  0999 V2000
  187.1900  177.8000  144.7580 C   0  0  0  0  0  0  0  0  0  0  0  0
  184.9310  178.3150  145.7770 C   0  0  0  0  0  0  0  0  0  0  0  0
  185.2260  178.5560  140.8760 N   0  0  0  0  0  0  0  0  0  0  0  0
  187.9420  177.5730  143.5780 C   0  0  0  0  0  0  0  0  0  0  0  0
  187.8570  177.7440  145.9960 C   0  0  0  0  0  3  0  0  0  0  0  0
  191.6810  176.9710  145.2150 S   0  0  0  0  0  0  0  0  0  0  0  0
  189.6260  176.4320  141.3140 C   0  0  1  0  0  3  0  0  0  0  0  0
  189.9560  177.3120  144.8960 C   0  0  0  0  0  0  0  0  0  0  0  0
  189.9580  177.3830  147.2450 N   0  0  0  0  0  2  0  0  0  0  0  0
  188.6460  177.1950  140.4250 C   0  0  2  0  0  3  0  0  0  0  0  0
  186.5670  178.6280  140.3630 C   0  0  0  0  0  0  0  0  0  0  0  0
  189.2220  177.4770  146.0420 C   0  0  0  0  0  0  0  0  0  0  0  0
  189.3430  177.3680  143.6350 C   0  0  0  0  0  0  0  0  0  0  0  0
  183.6590  179.0010  145.6450 N   0  0  0  0  0  2  0  0  0  0  0  0
  189.5040  177.8610  139.3740 C   0  0  0  0  0  2  0  0  0  0  0  0
  190.7560  176.0170  140.3800 C   0  0  0  0  0  2  0  0  0  0  0  0
  191.7760  175.8430  147.7190 C   0  0  0  0  0  1  0  0  0  0  0  0
  185.2370  177.6560  147.0030 N   0  0  0  0  0  1  0  0  0  0  0  0
  184.9240  178.7520  142.1220 C   0  0  0  0  0  0  0  0  0  0  0  0
  183.2790  179.5830  144.3430 C   0  0  0  0  0  2  0  0  0  0  0  0
  191.3760  177.1280  147.0240 C   0  0  1  0  0  3  0  0  0  0  0  0
  185.7600  178.2620  144.6930 C   0  0  0  0  0  0  0  0  0  0  0  0
  187.2740  177.5430  142.3610 O   0  0  0  0  0  0  0  0  0  0  0  0
  186.7460  179.0370  139.1860 O   0  0  0  0  0  0  0  0  0  0  0  0
  187.7540  178.1810  141.1890 C   0  0  1  0  0  3  0  0  0  0  0  0
  190.6570  176.9020  139.1430 C   0  0  0  0  0  2  0  0  0  0  0  0
  191.2160  178.2000  142.2290 C   0  0  0  0  0  1  0  0  0  0  0  0
  183.9200  178.6930  143.2920 C   0  0  2  0  0  3  0  0  0  0  0  0
  185.2780  179.1330  143.5430 C   0  0  2  0  0  3  0  0  0  0  0  0
  190.1220  177.2540  142.4310 N   0  0  0  0  0  0  0  0  0  0  0  0
  1  5  1  0  0  0  0
  2 18  1  0  0  0  0
  3 19  2  0  0  0  0
  4 13  1  0  0  0  0
  4  1  2  0  0  0  0
  5 12  2  0  0  0  0
  6 21  1  0  0  0  0
  7 16  1  6  0  0  0
  7 30  1  0  0  0  0
  8  6  1  0  0  0  0
  8 12  1  0  0  0  0
 10 15  1  6  0  0  0
 10 25  1  0  0  0  0
 10  7  1  0  0  0  0
 11  3  1  0  0  0  0
 12  9  1  0  0  0  0
 13  8  2  0  0  0  0
 14  2  1  0  0  0  0
 19 28  1  0  0  0  0
 20 14  1  0  0  0  0
 21  9  1  0  0  0  0
 21 17  1  1  0  0  0
 22  1  1  0  0  0  0
 22  2  2  0  0  0  0
 23  4  1  0  0  0  0
 24 11  2  0  0  0  0
 25 11  1  6  0  0  0
 25 23  1  0  0  0  0
 26 15  1  0  0  0  0
 26 16  1  0  0  0  0
 27 30  1  0  0  0  0
 28 29  1  0  0  0  0
 28 20  1  6  0  0  0
 29 19  1  6  0  0  0
 29 22  1  0  0  0  0
 30 13  1  0  0  0  0
M  END
>  <MODEL>
5

>  <REMARK>
 VINA RESULT:      -9.4      2.232      6.344
  Name = 
  0 active torsions:
  status: ('A' for Active; 'I' for Inactive)
                            x       y       z     vdW  Elec       q    Type
                         _______ _______ _______ _____ _____    ______ ____

>  <TORSDO>
F 0

$$$$
=
 OpenBabel10222416393D

 30 36  0  0  1  0  0  0  0  0999 V2000
  186.5910  178.0360  142.9690 C   0  0  0  0  0  0  0  0  0  0  0  0
  187.3940  177.8780  145.3640 C   0  0  0  0  0  0  0  0  0  0  0  0
  182.5880  178.6870  144.7180 N   0  0  0  0  0  0  0  0  0  0  0  0
  185.4850  178.1210  142.0850 C   0  0  0  0  0  0  0  0  0  0  0  0
  187.8860  178.0170  142.4190 C   0  0  0  0  0  3  0  0  0  0  0  0
  187.4690  178.2820  138.4720 S   0  0  0  0  0  0  0  0  0  0  0  0
  183.3360  177.6640  139.9790 C   0  0  1  0  0  3  0  0  0  0  0  0
  186.9920  178.2240  140.1920 C   0  0  0  0  0  0  0  0  0  0  0  0
  189.3250  178.0510  140.4100 N   0  0  0  0  0  2  0  0  0  0  0  0
  182.4090  178.2530  141.0400 C   0  0  2  0  0  3  0  0  0  0  0  0
  182.2320  179.1350  143.4000 C   0  0  0  0  0  0  0  0  0  0  0  0
  188.0600  178.0870  141.0400 C   0  0  0  0  0  0  0  0  0  0  0  0
  185.6790  178.2580  140.6880 C   0  0  0  0  0  0  0  0  0  0  0  0
  187.1780  178.2440  146.7520 N   0  0  0  0  0  2  0  0  0  0  0  0
  181.5120  179.2120  140.2900 C   0  0  0  0  0  2  0  0  0  0  0  0
  182.5030  177.6340  138.7050 C   0  0  0  0  0  2  0  0  0  0  0  0
  189.8730  176.9590  138.3110 C   0  0  0  0  0  1  0  0  0  0  0  0
  188.5910  177.1920  145.0090 N   0  0  0  0  0  1  0  0  0  0  0  0
  183.8060  178.6740  145.1660 C   0  0  0  0  0  0  0  0  0  0  0  0
  185.8920  178.8470  147.1530 C   0  0  0  0  0  2  0  0  0  0  0  0
  189.2410  178.1730  138.9610 C   0  0  1  0  0  3  0  0  0  0  0  0
  186.4060  178.1400  144.4580 C   0  0  0  0  0  0  0  0  0  0  0  0
  184.2050  178.0560  142.6170 O   0  0  0  0  0  0  0  0  0  0  0  0
  181.1170  179.6940  143.2290 O   0  0  0  0  0  0  0  0  0  0  0  0
  183.1460  178.9080  142.2140 C   0  0  1  0  0  3  0  0  0  0  0  0
  181.3350  178.5910  138.9170 C   0  0  0  0  0  2  0  0  0  0  0  0
  184.5560  179.6620  138.9720 C   0  0  0  0  0  1  0  0  0  0  0  0
  184.8510  178.2530  146.2190 C   0  0  2  0  0  3  0  0  0  0  0  0
  185.2820  178.9810  145.0430 C   0  0  2  0  0  3  0  0  0  0  0  0
  184.5620  178.4630  139.8050 N   0  0  0  0  0  0  0  0  0  0  0  0
  1 22  1  0  0  0  0
  2 14  1  0  0  0  0
  3 19  2  0  0  0  0
  4 23  1  0  0  0  0
  4  1  2  0  0  0  0
  5  1  1  0  0  0  0
  6 21  1  0  0  0  0
  6  8  1  0  0  0  0
  7 16  1  6  0  0  0
  7 10  1  0  0  0  0
  8 13  2  0  0  0  0
  8 12  1  0  0  0  0
  9 12  1  0  0  0  0
 10 15  1  6  0  0  0
 10 25  1  0  0  0  0
 11  3  1  0  0  0  0
 12  5  2  0  0  0  0
 13  4  1  0  0  0  0
 14 20  1  0  0  0  0
 16 26  1  0  0  0  0
 18  2  1  0  0  0  0
 19 28  1  0  0  0  0
 21 17  1  6  0  0  0
 21  9  1  0  0  0  0
 22  2  2  0  0  0  0
 24 11  2  0  0  0  0
 25 23  1  1  0  0  0
 25 11  1  0  0  0  0
 26 15  1  0  0  0  0
 27 30  1  0  0  0  0
 28 20  1  1  0  0  0
 29 22  1  6  0  0  0
 29 19  1  0  0  0  0
 29 28  1  0  0  0  0
 30  7  1  0  0  0  0
 30 13  1  0  0  0  0
M  END
>  <MODEL>
6

>  <REMARK>
 VINA RESULT:      -9.3      2.425      3.932
  Name = 
  0 active torsions:
  status: ('A' for Active; 'I' for Inactive)
                            x       y       z     vdW  Elec       q    Type
                         _______ _______ _______ _____ _____    ______ ____

>  <TORSDO>
F 0

$$$$
=
 OpenBabel10222416393D

 30 36  0  0  1  0  0  0  0  0999 V2000
  189.8190  177.5360  142.5860 C   0  0  0  0  0  0  0  0  0  0  0  0
  191.2490  177.4230  140.5000 C   0  0  0  0  0  0  0  0  0  0  0  0
  186.5290  178.6330  139.8510 N   0  0  0  0  0  0  0  0  0  0  0  0
  188.5690  177.8850  143.1560 C   0  0  0  0  0  0  0  0  0  0  0  0
  190.8140  177.0070  143.4280 C   0  0  0  0  0  3  0  0  0  0  0  0
  189.2540  176.8190  147.0820 S   0  0  0  0  0  0  0  0  0  0  0  0
  186.2720  179.1190  144.7260 C   0  0  1  0  0  3  0  0  0  0  0  0
  189.3310  177.1190  145.3230 C   0  0  0  0  0  0  0  0  0  0  0  0
  191.5120  176.3280  145.6990 N   0  0  0  0  0  2  0  0  0  0  0  0
  185.5210  178.9930  143.4020 C   0  0  2  0  0  3  0  0  0  0  0  0
  185.6780  178.3310  140.9700 C   0  0  0  0  0  0  0  0  0  0  0  0
  190.5590  176.8320  144.7850 C   0  0  0  0  0  0  0  0  0  0  0  0
  188.3000  177.6390  144.5260 C   0  0  0  0  0  0  0  0  0  0  0  0
  191.3010  177.2180  139.0640 N   0  0  0  0  0  0  0  0  0  0  0  0
  184.1550  178.4640  143.7730 C   0  0  0  0  0  2  0  0  0  0  0  0
  185.1970  179.4500  145.7530 C   0  0  0  0  0  2  0  0  0  0  0  0
  191.8350  177.0370  148.0000 C   0  0  0  0  0  1  0  0  0  0  0  0
  192.4690  177.5480  141.2250 N   0  0  0  0  0  1  0  0  0  0  0  0
  187.7290  178.1600  139.7160 C   0  0  0  0  0  0  0  0  0  0  0  0
  190.0480  177.2060  138.2850 C   0  0  0  0  0  2  0  0  0  0  0  0
  190.9900  176.2080  147.0540 C   0  0  1  0  0  3  0  0  0  0  0  0
  190.0280  177.5610  141.0960 C   0  0  1  0  0  3  0  0  0  0  0  0
  187.6140  178.4850  142.3470 O   0  0  0  0  0  0  0  0  0  0  0  0
  184.4330  178.2720  140.7880 O   0  0  0  0  0  0  0  0  0  0  0  0
  186.2410  178.1290  142.3600 C   0  0  1  0  0  3  0  0  0  0  0  0
  183.8590  179.0620  145.1360 C   0  0  0  0  0  2  0  0  0  0  0  0
  186.2950  176.7690  145.7080 C   0  0  0  0  0  1  0  0  0  0  0  0
  189.1020  178.1470  139.0140 C   0  0  2  0  0  3  0  0  0  0  0  0
  188.8760  177.2710  140.1460 C   0  0  2  0  0  3  0  0  0  0  0  0
  186.9940  177.8840  145.0770 N   0  0  0  0  0  0  0  0  0  0  0  0
  1  4  2  0  0  0  0
  1  5  1  0  0  0  0
  2 18  1  0  0  0  0
  3 11  1  0  0  0  0
  4 13  1  0  0  0  0
  5 12  2  0  0  0  0
  7 30  1  0  0  0  0
  7 16  1  1  0  0  0
  8  6  1  0  0  0  0
  9 21  1  0  0  0  0
 10 15  1  1  0  0  0
 10  7  1  0  0  0  0
 12  8  1  0  0  0  0
 12  9  1  0  0  0  0
 13 30  1  0  0  0  0
 13  8  2  0  0  0  0
 14  2  2  0  0  0  0
 15 26  1  0  0  0  0
 19  3  2  0  0  0  0
 20 14  1  0  0  0  0
 21  6  1  0  0  0  0
 21 17  1  1  0  0  0
 22  2  1  1  0  0  0
 22  1  1  0  0  0  0
 23 25  1  0  0  0  0
 23  4  1  0  0  0  0
 24 11  2  0  0  0  0
 25 11  1  6  0  0  0
 25 10  1  0  0  0  0
 26 16  1  0  0  0  0
 28 20  1  6  0  0  0
 28 19  1  0  0  0  0
 28 29  1  0  0  0  0
 29 19  1  1  0  0  0
 29 22  1  0  0  0  0
 30 27  1  0  0  0  0
M  END
>  <MODEL>
7

>  <REMARK>
 VINA RESULT:      -9.0      2.180      5.430
  Name = 
  0 active torsions:
  status: ('A' for Active; 'I' for Inactive)
                            x       y       z     vdW  Elec       q    Type
                         _______ _______ _______ _____ _____    ______ ____

>  <TORSDO>
F 0

$$$$
=
 OpenBabel10222416393D

 30 36  0  0  1  0  0  0  0  0999 V2000
  186.0390  178.2260  141.2770 C   0  0  0  0  0  0  0  0  0  0  0  0
  186.6300  178.2120  138.8160 C   0  0  0  0  0  0  0  0  0  0  0  0
  190.3570  177.5960  141.9620 N   0  0  0  0  0  0  0  0  0  0  0  0
  186.4780  178.0190  142.6100 C   0  0  0  0  0  0  0  0  0  0  0  0
  184.7030  178.6130  141.0660 C   0  0  0  0  0  3  0  0  0  0  0  0
  183.0050  178.9070  144.6510 S   0  0  0  0  0  0  0  0  0  0  0  0
  186.9540  177.0370  145.4510 C   0  0  1  0  0  3  0  0  0  0  0  0
  184.2890  178.6390  143.4380 C   0  0  0  0  0  0  0  0  0  0  0  0
  182.4880  179.1530  142.0190 N   0  0  0  0  0  2  0  0  0  0  0  0
  188.4220  177.2820  145.1100 C   0  0  2  0  0  3  0  0  0  0  0  0
  190.0600  177.9740  143.3170 C   0  0  0  0  0  0  0  0  0  0  0  0
  183.8480  178.7880  142.1490 C   0  0  0  0  0  0  0  0  0  0  0  0
  185.6150  178.2650  143.7060 C   0  0  0  0  0  0  0  0  0  0  0  0
  187.6420  178.4410  137.8010 N   0  0  0  0  0  0  0  0  0  0  0  0
  189.0000  177.9640  146.3290 C   0  0  0  0  0  2  0  0  0  0  0  0
  186.9340  176.8160  146.9580 C   0  0  0  0  0  2  0  0  0  0  0  0
  180.6340  178.3590  143.3730 C   0  0  0  0  0  1  0  0  0  0  0  0
  185.2950  177.9240  138.4090 N   0  0  0  0  0  1  0  0  0  0  0  0
  189.6160  177.9230  140.9490 C   0  0  0  0  0  0  0  0  0  0  0  0
  189.0500  178.6210  138.2050 C   0  0  0  0  0  2  0  0  0  0  0  0
  181.8150  179.3040  143.3020 C   0  0  1  0  0  3  0  0  0  0  0  0
  187.0100  178.2090  140.1280 C   0  0  1  0  0  3  0  0  0  0  0  0
  187.7700  177.5570  142.8190 O   0  0  0  0  0  0  0  0  0  0  0  0
  191.0140  178.1860  144.1110 O   0  0  0  0  0  0  0  0  0  0  0  0
  188.6350  178.0750  143.8150 C   0  0  1  0  0  3  0  0  0  0  0  0
  188.2420  177.3770  147.5050 C   0  0  0  0  0  2  0  0  0  0  0  0
  185.9800  179.3450  145.9150 C   0  0  0  0  0  1  0  0  0  0  0  0
  189.2260  177.7850  139.4630 C   0  0  2  0  0  3  0  0  0  0  0  0
  188.4500  178.6570  140.3220 C   0  0  2  0  0  3  0  0  0  0  0  0
  186.0950  178.1670  145.0590 N   0  0  0  0  0  0  0  0  0  0  0  0
  1  4  1  0  0  0  0
  3 11  1  0  0  0  0
  4 23  1  0  0  0  0
  4 13  2  0  0  0  0
  5  1  2  0  0  0  0
  5 12  1  0  0  0  0
  7 16  1  1  0  0  0
  8 13  1  0  0  0  0
  8  6  1  0  0  0  0
  9 12  1  0  0  0  0
  9 21  1  0  0  0  0
 10  7  1  0  0  0  0
 10 15  1  1  0  0  0
 11 25  1  0  0  0  0
 11 24  2  0  0  0  0
 12  8  2  0  0  0  0
 13 30  1  0  0  0  0
 14 20  1  0  0  0  0
 14  2  2  0  0  0  0
 15 26  1  0  0  0  0
 16 26  1  0  0  0  0
 18  2  1  0  0  0  0
 19  3  2  0  0  0  0
 21 17  1  6  0  0  0
 21  6  1  0  0  0  0
 22  2  1  6  0  0  0
 22 29  1  0  0  0  0
 22  1  1  0  0  0  0
 25 23  1  6  0  0  0
 25 10  1  0  0  0  0
 28 20  1  6  0  0  0
 28 29  1  0  0  0  0
 28 19  1  0  0  0  0
 29 19  1  1  0  0  0
 30  7  1  0  0  0  0
 30 27  1  0  0  0  0
M  END
>  <MODEL>
8

>  <REMARK>
 VINA RESULT:      -8.9      2.460      6.422
  Name = 
  0 active torsions:
  status: ('A' for Active; 'I' for Inactive)
                            x       y       z     vdW  Elec       q    Type
                         _______ _______ _______ _____ _____    ______ ____

>  <TORSDO>
F 0

$$$$
=
 OpenBabel10222416393D

 30 36  0  0  1  0  0  0  0  0999 V2000
  185.8530  178.1950  143.6540 C   0  0  0  0  0  0  0  0  0  0  0  0
  183.4590  178.6280  142.9520 C   0  0  0  0  0  0  0  0  0  0  0  0
  186.7570  178.2040  139.3300 N   0  0  0  0  0  0  0  0  0  0  0  0
  187.1750  177.8780  143.2500 C   0  0  0  0  0  0  0  0  0  0  0  0
  185.5990  178.3800  145.0250 C   0  0  0  0  0  3  0  0  0  0  0  0
  189.0610  177.8780  146.9190 S   0  0  0  0  0  0  0  0  0  0  0  0
  189.8890  176.5980  142.7470 C   0  0  1  0  0  3  0  0  0  0  0  0
  187.9190  178.0020  145.5510 C   0  0  0  0  0  0  0  0  0  0  0  0
  186.4530  178.4030  147.3430 N   0  0  0  0  0  2  0  0  0  0  0  0
  189.6900  177.1300  141.3290 C   0  0  2  0  0  3  0  0  0  0  0  0
  188.1250  178.3320  139.7530 C   0  0  0  0  0  0  0  0  0  0  0  0
  186.6320  178.2550  145.9490 C   0  0  0  0  0  0  0  0  0  0  0  0
  188.2290  177.8190  144.1950 C   0  0  0  0  0  0  0  0  0  0  0  0
  182.5580  179.1630  141.9480 N   0  0  0  0  0  0  0  0  0  0  0  0
  191.0260  177.7200  140.9390 C   0  0  0  0  0  2  0  0  0  0  0  0
  191.3500  176.1660  142.7990 C   0  0  0  0  0  2  0  0  0  0  0  0
  187.5550  177.1280  149.0930 C   0  0  0  0  0  1  0  0  0  0  0  0
  182.9240  178.1820  144.1950 N   0  0  0  0  0  1  0  0  0  0  0  0
  185.7440  178.5430  140.0670 C   0  0  0  0  0  0  0  0  0  0  0  0
  183.0830  179.5170  140.6150 C   0  0  0  0  0  2  0  0  0  0  0  0
  187.6940  178.2570  148.0930 C   0  0  1  0  0  3  0  0  0  0  0  0
  184.7840  178.5030  142.6410 C   0  0  1  0  0  3  0  0  0  0  0  0
  187.4140  177.6130  141.9080 O   0  0  0  0  0  0  0  0  0  0  0  0
  189.0060  178.5860  138.8900 O   0  0  0  0  0  0  0  0  0  0  0  0
  188.5290  178.1230  141.1970 C   0  0  1  0  0  3  0  0  0  0  0  0
  192.0570  176.8540  141.6380 C   0  0  0  0  0  2  0  0  0  0  0  0
  190.5810  178.6230  144.1300 C   0  0  0  0  0  1  0  0  0  0  0  0
  184.2300  178.5530  140.3550 C   0  0  2  0  0  3  0  0  0  0  0  0
  185.1380  179.1530  141.3120 C   0  0  2  0  0  3  0  0  0  0  0  0
  189.5890  177.6140  143.7710 N   0  0  0  0  0  0  0  0  0  0  0  0
  1  5  1  0  0  0  0
  2 18  1  0  0  0  0
  3 11  1  0  0  0  0
  3 19  2  0  0  0  0
  4  1  2  0  0  0  0
  4 13  1  0  0  0  0
  5 12  2  0  0  0  0
  6 21  1  0  0  0  0
  7 16  1  6  0  0  0
  7 30  1  0  0  0  0
  8 12  1  0  0  0  0
  8  6  1  0  0  0  0
  9 21  1  0  0  0  0
 10 15  1  1  0  0  0
 10  7  1  0  0  0  0
 12  9  1  0  0  0  0
 13  8  2  0  0  0  0
 14  2  2  0  0  0  0
 15 26  1  0  0  0  0
 19 28  1  0  0  0  0
 20 14  1  0  0  0  0
 21 17  1  1  0  0  0
 22  2  1  1  0  0  0
 22  1  1  0  0  0  0
 23  4  1  0  0  0  0
 24 11  2  0  0  0  0
 25 11  1  6  0  0  0
 25 10  1  0  0  0  0
 25 23  1  0  0  0  0
 26 16  1  0  0  0  0
 28 20  1  6  0  0  0
 28 29  1  0  0  0  0
 29 19  1  6  0  0  0
 29 22  1  0  0  0  0
 30 27  1  0  0  0  0
 30 13  1  0  0  0  0
M  END
>  <MODEL>
9

>  <REMARK>
 VINA RESULT:      -8.7      2.631      7.307
  Name = 
  0 active torsions:
  status: ('A' for Active; 'I' for Inactive)
                            x       y       z     vdW  Elec       q    Type
                         _______ _______ _______ _____ _____    ______ ____

>  <TORSDO>
F 0

$$$$
