=
 OpenBabel10222415273D

 31 35  0  0  1  0  0  0  0  0999 V2000
  187.5380  178.3140  140.5920 C   0  0  0  0  0  0  0  0  0  0  0  0
  190.1750  177.5490  139.9720 C   0  0  0  0  0  0  0  0  0  0  0  0
  189.2750  177.9770  138.9870 C   0  0  0  0  0  0  0  0  0  0  0  0
  186.2070  178.7040  140.9110 N   0  0  0  0  0  1  0  0  0  0  0  0
  188.0070  178.3480  139.2850 C   0  0  0  0  0  0  0  0  0  0  0  0
  189.6820  177.5200  141.3070 C   0  0  0  0  0  0  0  0  0  0  0  0
  188.3010  178.5960  137.2100 C   0  0  0  0  0  3  0  0  0  0  0  0
  189.4920  178.1320  137.6720 N   0  0  0  0  0  0  0  0  0  0  0  0
  187.3610  178.7420  138.1790 N   0  0  0  0  0  0  0  0  0  0  0  0
  188.3910  177.8980  141.5710 N   0  0  0  0  0  2  0  0  0  0  0  0
  192.0000  174.3710  137.1930 C   0  0  0  0  0  0  0  0  0  0  0  0
  191.5590  177.1630  139.6240 C   0  0  0  0  0  0  0  0  0  0  0  0
  194.0590  175.3470  137.9910 N   0  0  0  0  0  0  0  0  0  0  0  0
  191.9630  176.1840  138.7460 C   0  0  0  0  0  0  0  0  0  0  0  0
  191.3080  173.3690  136.3440 C   0  0  0  0  0  1  0  0  0  0  0  0
  193.3260  176.2050  138.7450 C   0  0  0  0  0  0  0  0  0  0  0  0
  193.4110  174.4300  137.2110 C   0  0  0  0  0  3  0  0  0  0  0  0
  192.7320  177.7380  140.1160 C   0  0  0  0  0  3  0  0  0  0  0  0
  193.8230  177.1410  139.5720 N   0  0  0  0  0  0  0  0  0  0  0  0
  191.2530  175.2640  137.9800 C   0  0  0  0  0  2  0  0  0  0  0  0
  190.6960  176.9580  142.6760 S   0  0  0  0  0  0  0  0  0  0  0  0
  190.1170  178.3010  143.7680 C   0  0  0  0  0  2  0  0  0  0  0  0
  190.6940  176.9140  145.6420 O   0  0  0  0  0  1  0  0  0  0  0  0
  189.7250  177.7910  145.1500 C   0  0  2  0  0  3  0  0  0  0  0  0
  188.3620  177.1130  145.1150 C   0  0  0  0  0  2  0  0  0  0  0  0
  186.8090  178.0270  146.6020 C   0  0  0  0  0  2  0  0  0  0  0  0
  187.3020  178.1020  145.2260 N   0  0  0  0  0  0  0  0  0  0  0  0
  185.7540  179.0190  146.7980 N   0  0  0  0  0  2  0  0  0  0  0  0
  184.6620  178.7250  145.8740 C   0  0  0  0  0  2  0  0  0  0  0  0
  185.1880  178.6740  144.4430 C   0  0  0  0  0  2  0  0  0  0  0  0
  186.2610  177.6850  144.3720 N   0  0  0  0  0  2  0  0  0  0  0  0
  1  4  1  0  0  0  0
  1 10  1  0  0  0  0
  2  6  2  0  0  0  0
  3  5  1  0  0  0  0
  3  2  1  0  0  0  0
  5  1  2  0  0  0  0
  6 10  1  0  0  0  0
  6 21  1  0  0  0  0
  7  8  1  0  0  0  0
  7  9  2  0  0  0  0
  8  3  2  0  0  0  0
  9  5  1  0  0  0  0
 11 17  2  0  0  0  0
 11 20  1  0  0  0  0
 12  2  1  0  0  0  0
 12 18  1  0  0  0  0
 13 16  2  0  0  0  0
 14 12  2  0  0  0  0
 15 11  1  0  0  0  0
 16 14  1  0  0  0  0
 16 19  1  0  0  0  0
 17 13  1  0  0  0  0
 19 18  2  0  0  0  0
 20 14  1  0  0  0  0
 21 22  1  0  0  0  0
 22 24  1  0  0  0  0
 24 23  1  6  0  0  0
 25 24  1  0  0  0  0
 25 27  1  0  0  0  0
 26 28  1  0  0  0  0
 27 26  1  0  0  0  0
 29 28  1  0  0  0  0
 30 29  1  0  0  0  0
 31 30  1  0  0  0  0
 31 27  1  0  0  0  0
M  END
>  <MODEL>
1

>  <REMARK>
 VINA RESULT:      -8.1      0.000      0.000
  Name = 
  6 active torsions:
  status: ('A' for Active; 'I' for Inactive)
    1  A    between atoms: C_3  and  N_9
    2  A    between atoms: C_3  and  C_19
    3  A    between atoms: C_4  and  C_5
    4  A    between atoms: C_8  and  C_19
    5  A    between atoms: C_8  and  S_31
    6  A    between atoms: C_21  and  S_31
                            x       y       z     vdW  Elec       q    Type
                         _______ _______ _______ _____ _____    ______ ____

>  <TORSDO>
F 6

$$$$
=
 OpenBabel10222415273D

 31 35  0  0  1  0  0  0  0  0999 V2000
  186.8580  177.9880  142.6390 C   0  0  0  0  0  0  0  0  0  0  0  0
  187.8320  178.0520  139.9990 C   0  0  0  0  0  0  0  0  0  0  0  0
  186.5270  178.4510  140.3190 C   0  0  0  0  0  0  0  0  0  0  0  0
  186.3710  177.9570  143.9760 N   0  0  0  0  0  1  0  0  0  0  0  0
  186.0590  178.4220  141.5900 C   0  0  0  0  0  0  0  0  0  0  0  0
  188.6400  177.6110  141.0830 C   0  0  0  0  0  0  0  0  0  0  0  0
  184.5390  179.1850  140.3390 C   0  0  0  0  0  3  0  0  0  0  0  0
  185.5820  178.9390  139.5020 N   0  0  0  0  0  0  0  0  0  0  0  0
  184.7990  178.8780  141.6360 N   0  0  0  0  0  0  0  0  0  0  0  0
  188.1320  177.5910  142.3570 N   0  0  0  0  0  2  0  0  0  0  0  0
  187.6040  175.1750  136.4180 C   0  0  0  0  0  0  0  0  0  0  0  0
  188.3250  178.1060  138.6060 C   0  0  0  0  0  0  0  0  0  0  0  0
  188.8220  176.9600  135.3420 N   0  0  0  0  0  0  0  0  0  0  0  0
  188.1640  177.1600  137.6200 C   0  0  0  0  0  0  0  0  0  0  0  0
  186.9760  173.8320  136.3420 C   0  0  0  0  0  1  0  0  0  0  0  0
  188.7770  177.6550  136.5070 C   0  0  0  0  0  0  0  0  0  0  0  0
  188.2390  175.7250  135.2830 C   0  0  0  0  0  3  0  0  0  0  0  0
  189.0410  179.1490  138.0170 C   0  0  0  0  0  3  0  0  0  0  0  0
  189.3220  178.8650  136.7190 N   0  0  0  0  0  0  0  0  0  0  0  0
  187.5660  175.9030  137.6190 C   0  0  0  0  0  2  0  0  0  0  0  0
  190.3190  177.0290  140.8350 S   0  0  0  0  0  0  0  0  0  0  0  0
  190.3290  176.1170  142.4150 C   0  0  0  0  0  2  0  0  0  0  0  0
  191.9830  175.2100  143.9010 O   0  0  0  0  0  1  0  0  0  0  0  0
  191.6010  176.3650  143.2160 C   0  0  2  0  0  3  0  0  0  0  0  0
  191.4160  177.5230  144.1880 C   0  0  0  0  0  2  0  0  0  0  0  0
  189.5870  178.0730  145.5330 C   0  0  0  0  0  2  0  0  0  0  0  0
  190.6570  177.0910  145.3510 N   0  0  0  0  0  0  0  0  0  0  0  0
  188.7590  177.6860  146.6740 N   0  0  0  0  0  2  0  0  0  0  0  0
  189.5990  177.6570  147.8690 C   0  0  0  0  0  2  0  0  0  0  0  0
  190.7920  176.7320  147.6450 C   0  0  0  0  0  2  0  0  0  0  0  0
  191.5200  177.1830  146.4610 N   0  0  0  0  0  2  0  0  0  0  0  0
  1  4  1  0  0  0  0
  2  3  1  0  0  0  0
  2  6  2  0  0  0  0
  3  5  1  0  0  0  0
  5  9  1  0  0  0  0
  5  1  2  0  0  0  0
  6 10  1  0  0  0  0
  7  9  2  0  0  0  0
  8  3  2  0  0  0  0
  8  7  1  0  0  0  0
 10  1  1  0  0  0  0
 11 20  1  0  0  0  0
 12  2  1  0  0  0  0
 13 16  2  0  0  0  0
 14 12  2  0  0  0  0
 15 11  1  0  0  0  0
 16 19  1  0  0  0  0
 16 14  1  0  0  0  0
 17 13  1  0  0  0  0
 17 11  2  0  0  0  0
 18 12  1  0  0  0  0
 19 18  2  0  0  0  0
 20 14  1  0  0  0  0
 21  6  1  0  0  0  0
 21 22  1  0  0  0  0
 22 24  1  0  0  0  0
 24 23  1  1  0  0  0
 24 25  1  0  0  0  0
 25 27  1  0  0  0  0
 26 28  1  0  0  0  0
 27 26  1  0  0  0  0
 27 31  1  0  0  0  0
 28 29  1  0  0  0  0
 30 29  1  0  0  0  0
 31 30  1  0  0  0  0
M  END
>  <MODEL>
2

>  <REMARK>
 VINA RESULT:      -7.9      3.051      4.060
  Name = 
  6 active torsions:
  status: ('A' for Active; 'I' for Inactive)
    1  A    between atoms: C_3  and  N_9
    2  A    between atoms: C_3  and  C_19
    3  A    between atoms: C_4  and  C_5
    4  A    between atoms: C_8  and  C_19
    5  A    between atoms: C_8  and  S_31
    6  A    between atoms: C_21  and  S_31
                            x       y       z     vdW  Elec       q    Type
                         _______ _______ _______ _____ _____    ______ ____

>  <TORSDO>
F 6

$$$$
=
 OpenBabel10222415273D

 31 35  0  0  1  0  0  0  0  0999 V2000
  186.1240  178.8250  141.2150 C   0  0  0  0  0  0  0  0  0  0  0  0
  188.3210  177.6540  142.5300 C   0  0  0  0  0  0  0  0  0  0  0  0
  187.0900  177.8500  143.1710 C   0  0  0  0  0  0  0  0  0  0  0  0
  185.0160  179.4140  140.5450 N   0  0  0  0  0  1  0  0  0  0  0  0
  186.0320  178.4120  142.5380 C   0  0  0  0  0  0  0  0  0  0  0  0
  188.4020  178.0810  141.1750 C   0  0  0  0  0  0  0  0  0  0  0  0
  185.4390  177.9000  144.4980 C   0  0  0  0  0  3  0  0  0  0  0  0
  186.7380  177.5080  144.4190 N   0  0  0  0  0  2  0  0  0  0  0  0
  184.9700  178.4610  143.3530 N   0  0  0  0  0  0  0  0  0  0  0  0
  187.3110  178.6490  140.5670 N   0  0  0  0  0  0  0  0  0  0  0  0
  189.7070  177.5870  146.9150 C   0  0  0  0  0  0  0  0  0  0  0  0
  189.4570  177.0260  143.2380 C   0  0  0  0  0  0  0  0  0  0  0  0
  191.4480  176.1970  145.9870 N   0  0  0  0  0  0  0  0  0  0  0  0
  189.7420  177.0780  144.5830 C   0  0  0  0  0  0  0  0  0  0  0  0
  189.0940  178.2480  148.0950 C   0  0  0  0  0  1  0  0  0  0  0  0
  190.8750  176.3420  144.7660 C   0  0  0  0  0  0  0  0  0  0  0  0
  190.8760  176.8090  147.0670 C   0  0  0  0  0  3  0  0  0  0  0  0
  190.4590  176.2380  142.6690 C   0  0  0  0  0  3  0  0  0  0  0  0
  191.3360  175.8200  143.6170 N   0  0  0  0  0  0  0  0  0  0  0  0
  189.1240  177.7330  145.6450 C   0  0  0  0  0  2  0  0  0  0  0  0
  189.9180  177.9370  140.2270 S   0  0  0  0  0  0  0  0  0  0  0  0
  189.0610  177.1720  138.8100 C   0  0  0  0  0  2  0  0  0  0  0  0
  189.0460  179.3620  137.8230 O   0  0  0  0  0  1  0  0  0  0  0  0
  189.1960  178.0030  137.5390 C   0  0  2  0  0  3  0  0  0  0  0  0
  188.1820  177.5640  136.4910 C   0  0  0  0  0  2  0  0  0  0  0  0
  186.6970  175.7700  136.3050 C   0  0  0  0  0  2  0  0  0  0  0  0
  187.0380  176.9320  137.1270 N   0  0  0  0  0  0  0  0  0  0  0  0
  185.5670  175.0630  136.9020 N   0  0  0  0  0  2  0  0  0  0  0  0
  184.4250  175.9720  136.9530 C   0  0  0  0  0  2  0  0  0  0  0  0
  184.8060  177.2470  137.7000 C   0  0  0  0  0  2  0  0  0  0  0  0
  185.9670  177.8450  137.0460 N   0  0  0  0  0  2  0  0  0  0  0  0
  1  5  1  0  0  0  0
  2  3  1  0  0  0  0
  2 12  1  0  0  0  0
  3  8  1  0  0  0  0
  4  1  1  0  0  0  0
  5  3  2  0  0  0  0
  5  9  1  0  0  0  0
  6  2  2  0  0  0  0
  8  7  1  0  0  0  0
  9  7  2  0  0  0  0
 10  6  1  0  0  0  0
 10  1  2  0  0  0  0
 11 17  2  0  0  0  0
 11 15  1  0  0  0  0
 12 14  2  0  0  0  0
 13 17  1  0  0  0  0
 14 16  1  0  0  0  0
 14 20  1  0  0  0  0
 16 13  2  0  0  0  0
 18 12  1  0  0  0  0
 18 19  2  0  0  0  0
 19 16  1  0  0  0  0
 20 11  1  0  0  0  0
 21  6  1  0  0  0  0
 22 21  1  0  0  0  0
 24 23  1  1  0  0  0
 24 22  1  0  0  0  0
 25 27  1  0  0  0  0
 25 24  1  0  0  0  0
 26 28  1  0  0  0  0
 26 27  1  0  0  0  0
 28 29  1  0  0  0  0
 29 30  1  0  0  0  0
 31 27  1  0  0  0  0
 31 30  1  0  0  0  0
M  END
>  <MODEL>
3

>  <REMARK>
 VINA RESULT:      -7.6      3.235      7.154
  Name = 
  6 active torsions:
  status: ('A' for Active; 'I' for Inactive)
    1  A    between atoms: C_3  and  N_9
    2  A    between atoms: C_3  and  C_19
    3  A    between atoms: C_4  and  C_5
    4  A    between atoms: C_8  and  C_19
    5  A    between atoms: C_8  and  S_31
    6  A    between atoms: C_21  and  S_31
                            x       y       z     vdW  Elec       q    Type
                         _______ _______ _______ _____ _____    ______ ____

>  <TORSDO>
F 6

$$$$
=
 OpenBabel10222415273D

 31 35  0  0  1  0  0  0  0  0999 V2000
  185.8410  178.7290  141.6840 C   0  0  0  0  0  0  0  0  0  0  0  0
  188.1430  177.6120  142.8590 C   0  0  0  0  0  0  0  0  0  0  0  0
  186.9570  177.7990  143.5810 C   0  0  0  0  0  0  0  0  0  0  0  0
  184.6780  179.2900  141.0850 N   0  0  0  0  0  1  0  0  0  0  0  0
  185.8480  178.3340  143.0160 C   0  0  0  0  0  0  0  0  0  0  0  0
  188.1210  178.0200  141.4950 C   0  0  0  0  0  0  0  0  0  0  0  0
  185.4010  177.8430  145.0200 C   0  0  0  0  0  3  0  0  0  0  0  0
  186.6980  177.4700  144.8560 N   0  0  0  0  0  2  0  0  0  0  0  0
  184.8440  178.3800  143.9030 N   0  0  0  0  0  0  0  0  0  0  0  0
  186.9820  178.5620  140.9570 N   0  0  0  0  0  0  0  0  0  0  0  0
  189.7990  177.5800  147.1490 C   0  0  0  0  0  0  0  0  0  0  0  0
  189.3360  177.0120  143.4940 C   0  0  0  0  0  0  0  0  0  0  0  0
  191.5130  176.2330  146.1130 N   0  0  0  0  0  0  0  0  0  0  0  0
  189.7020  177.0720  144.8190 C   0  0  0  0  0  0  0  0  0  0  0  0
  189.2450  178.2270  148.3660 C   0  0  0  0  0  1  0  0  0  0  0  0
  190.8620  176.3640  144.9300 C   0  0  0  0  0  0  0  0  0  0  0  0
  190.9940  176.8310  147.2270 C   0  0  0  0  0  3  0  0  0  0  0  0
  190.3190  176.2500  142.8630 C   0  0  0  0  0  3  0  0  0  0  0  0
  191.2630  175.8530  143.7540 N   0  0  0  0  0  0  0  0  0  0  0  0
  189.1350  177.7110  145.9180 C   0  0  0  0  0  2  0  0  0  0  0  0
  189.5700  177.8850  140.4460 S   0  0  0  0  0  0  0  0  0  0  0  0
  188.5770  177.9670  138.9180 C   0  0  0  0  0  2  0  0  0  0  0  0
  188.9090  179.7050  137.2950 O   0  0  0  0  0  1  0  0  0  0  0  0
  189.3880  178.4680  137.7290 C   0  0  2  0  0  3  0  0  0  0  0  0
  189.3660  177.4590  136.5890 C   0  0  0  0  0  2  0  0  0  0  0  0
  190.5110  175.4690  137.0190 C   0  0  0  0  0  2  0  0  0  0  0  0
  189.2000  176.1120  137.1090 N   0  0  0  0  0  0  0  0  0  0  0  0
  190.4280  174.1120  137.5550 N   0  0  0  0  0  2  0  0  0  0  0  0
  189.4630  173.3570  136.7590 C   0  0  0  0  0  2  0  0  0  0  0  0
  188.1220  174.0840  136.7390 C   0  0  0  0  0  2  0  0  0  0  0  0
  188.3290  175.4380  136.2290 N   0  0  0  0  0  2  0  0  0  0  0  0
  1  5  1  0  0  0  0
  2 12  1  0  0  0  0
  2  3  1  0  0  0  0
  3  8  1  0  0  0  0
  4  1  1  0  0  0  0
  5  3  2  0  0  0  0
  5  9  1  0  0  0  0
  6  2  2  0  0  0  0
  8  7  1  0  0  0  0
  9  7  2  0  0  0  0
 10  6  1  0  0  0  0
 10  1  2  0  0  0  0
 11 17  2  0  0  0  0
 11 15  1  0  0  0  0
 12 14  2  0  0  0  0
 13 17  1  0  0  0  0
 14 16  1  0  0  0  0
 14 20  1  0  0  0  0
 16 13  2  0  0  0  0
 18 12  1  0  0  0  0
 18 19  2  0  0  0  0
 19 16  1  0  0  0  0
 20 11  1  0  0  0  0
 21  6  1  0  0  0  0
 22 21  1  0  0  0  0
 24 23  1  6  0  0  0
 24 22  1  0  0  0  0
 25 27  1  0  0  0  0
 25 24  1  0  0  0  0
 26 27  1  0  0  0  0
 26 28  1  0  0  0  0
 29 28  1  0  0  0  0
 30 29  1  0  0  0  0
 31 30  1  0  0  0  0
 31 27  1  0  0  0  0
M  END
>  <MODEL>
4

>  <REMARK>
 VINA RESULT:      -7.5      2.753      7.604
  Name = 
  6 active torsions:
  status: ('A' for Active; 'I' for Inactive)
    1  A    between atoms: C_3  and  N_9
    2  A    between atoms: C_3  and  C_19
    3  A    between atoms: C_4  and  C_5
    4  A    between atoms: C_8  and  C_19
    5  A    between atoms: C_8  and  S_31
    6  A    between atoms: C_21  and  S_31
                            x       y       z     vdW  Elec       q    Type
                         _______ _______ _______ _____ _____    ______ ____

>  <TORSDO>
F 6

$$$$
=
 OpenBabel10222415273D

 31 35  0  0  1  0  0  0  0  0999 V2000
  192.5460  176.3320  138.2180 C   0  0  0  0  0  0  0  0  0  0  0  0
  189.8410  176.8840  137.6680 C   0  0  0  0  0  0  0  0  0  0  0  0
  190.7400  176.5030  136.6630 C   0  0  0  0  0  0  0  0  0  0  0  0
  193.9120  176.0500  138.5010 N   0  0  0  0  0  1  0  0  0  0  0  0
  192.0410  176.2350  136.9280 C   0  0  0  0  0  0  0  0  0  0  0  0
  190.3710  176.9790  138.9860 C   0  0  0  0  0  0  0  0  0  0  0  0
  191.7030  175.9200  134.8680 C   0  0  0  0  0  3  0  0  0  0  0  0
  190.4950  176.3040  135.3600 N   0  0  0  0  0  0  0  0  0  0  0  0
  192.6810  175.8660  135.8090 N   0  0  0  0  0  0  0  0  0  0  0  0
  191.6950  176.7040  139.2160 N   0  0  0  0  0  2  0  0  0  0  0  0
  186.1230  174.2320  137.1170 C   0  0  0  0  0  0  0  0  0  0  0  0
  188.4210  177.1580  137.3570 C   0  0  0  0  0  0  0  0  0  0  0  0
  185.0690  176.3740  136.7590 N   0  0  0  0  0  0  0  0  0  0  0  0
  187.3970  176.2480  137.2380 C   0  0  0  0  0  0  0  0  0  0  0  0
  186.0150  172.7540  137.1980 C   0  0  0  0  0  1  0  0  0  0  0  0
  186.2730  176.9680  136.9580 C   0  0  0  0  0  0  0  0  0  0  0  0
  184.9800  175.0130  136.8380 C   0  0  0  0  0  3  0  0  0  0  0  0
  187.8450  178.4100  137.1400 C   0  0  0  0  0  3  0  0  0  0  0  0
  186.5160  178.2880  136.8900 N   0  0  0  0  0  0  0  0  0  0  0  0
  187.3650  174.8590  137.3180 C   0  0  0  0  0  2  0  0  0  0  0  0
  189.3610  177.4940  140.3760 S   0  0  0  0  0  0  0  0  0  0  0  0
  190.4760  176.7070  141.5880 C   0  0  0  0  0  2  0  0  0  0  0  0
  188.6210  175.8310  142.8370 O   0  0  0  0  0  1  0  0  0  0  0  0
  189.8180  176.5410  142.9530 C   0  0  2  0  0  3  0  0  0  0  0  0
  189.5720  177.8940  143.6070 C   0  0  0  0  0  2  0  0  0  0  0  0
  191.2100  176.9520  144.9810 C   0  0  0  0  0  2  0  0  0  0  0  0
  190.0990  177.9040  144.9620 N   0  0  0  0  0  0  0  0  0  0  0  0
  191.8120  176.9300  146.3120 N   0  0  0  0  0  2  0  0  0  0  0  0
  190.7960  176.5090  147.2740 C   0  0  0  0  0  2  0  0  0  0  0  0
  189.5760  177.4180  147.1760 C   0  0  0  0  0  2  0  0  0  0  0  0
  189.0840  177.3980  145.8000 N   0  0  0  0  0  2  0  0  0  0  0  0
  1  4  1  0  0  0  0
  1 10  1  0  0  0  0
  2  6  2  0  0  0  0
  3  5  1  0  0  0  0
  3  2  1  0  0  0  0
  5  1  2  0  0  0  0
  6 10  1  0  0  0  0
  6 21  1  0  0  0  0
  7  8  1  0  0  0  0
  7  9  2  0  0  0  0
  8  3  2  0  0  0  0
  9  5  1  0  0  0  0
 11 15  1  0  0  0  0
 11 20  1  0  0  0  0
 12  2  1  0  0  0  0
 13 17  1  0  0  0  0
 13 16  2  0  0  0  0
 14 20  1  0  0  0  0
 14 12  2  0  0  0  0
 16 14  1  0  0  0  0
 17 11  2  0  0  0  0
 18 12  1  0  0  0  0
 19 16  1  0  0  0  0
 19 18  2  0  0  0  0
 21 22  1  0  0  0  0
 22 24  1  0  0  0  0
 24 23  1  6  0  0  0
 24 25  1  0  0  0  0
 25 27  1  0  0  0  0
 26 28  1  0  0  0  0
 27 26  1  0  0  0  0
 27 31  1  0  0  0  0
 28 29  1  0  0  0  0
 30 29  1  0  0  0  0
 31 30  1  0  0  0  0
M  END
>  <MODEL>
5

>  <REMARK>
 VINA RESULT:      -7.4      2.782      5.280
  Name = 
  6 active torsions:
  status: ('A' for Active; 'I' for Inactive)
    1  A    between atoms: C_3  and  N_9
    2  A    between atoms: C_3  and  C_19
    3  A    between atoms: C_4  and  C_5
    4  A    between atoms: C_8  and  C_19
    5  A    between atoms: C_8  and  S_31
    6  A    between atoms: C_21  and  S_31
                            x       y       z     vdW  Elec       q    Type
                         _______ _______ _______ _____ _____    ______ ____

>  <TORSDO>
F 6

$$$$
=
 OpenBabel10222415273D

 31 35  0  0  1  0  0  0  0  0999 V2000
  183.1330  179.0030  143.7990 C   0  0  0  0  0  0  0  0  0  0  0  0
  182.5250  178.6140  141.0780 C   0  0  0  0  0  0  0  0  0  0  0  0
  181.5310  178.6290  142.0660 C   0  0  0  0  0  0  0  0  0  0  0  0
  183.4440  179.2040  145.1730 N   0  0  0  0  0  1  0  0  0  0  0  0
  181.8230  178.8180  143.3760 C   0  0  2  0  0  3  0  0  0  0  0  0
  183.8620  178.8050  141.5260 C   0  0  0  0  0  0  0  0  0  0  0  0
  179.7290  178.6290  143.1820 C   0  0  0  0  0  3  0  0  0  0  0  0
  180.2040  178.5120  141.9130 N   0  0  0  0  0  0  0  0  0  0  0  0
  180.7020  178.8200  144.1110 N   0  0  0  0  0  0  0  0  0  0  0  0
  184.1210  178.9890  142.8600 N   0  0  0  0  0  0  0  0  0  0  0  0
  180.9990  181.3990  137.7520 C   0  0  0  0  0  0  0  0  0  0  0  0
  182.1800  178.4180  139.6540 C   0  0  0  0  0  0  0  0  0  0  0  0
  181.1250  179.3640  136.4600 N   0  0  0  0  0  0  0  0  0  0  0  0
  181.7440  179.3660  138.7570 C   0  0  0  0  0  0  0  0  0  0  0  0
  180.6850  182.8490  137.8230 C   0  0  0  0  0  1  0  0  0  0  0  0
  181.5690  178.7210  137.5690 C   0  0  0  0  0  0  0  0  0  0  0  0
  180.8400  180.6990  136.5360 C   0  0  0  0  0  3  0  0  0  0  0  0
  182.2490  177.2220  138.9380 C   0  0  0  0  0  3  0  0  0  0  0  0
  181.8670  177.4130  137.6490 N   0  0  0  0  0  0  0  0  0  0  0  0
  181.4580  180.7210  138.8940 C   0  0  0  0  0  2  0  0  0  0  0  0
  185.2520  178.7710  140.3920 S   0  0  0  0  0  0  0  0  0  0  0  0
  186.4650  178.6300  141.7480 C   0  0  0  0  0  2  0  0  0  0  0  0
  187.9270  178.5610  139.8440 O   0  0  0  0  0  1  0  0  0  0  0  0
  187.9010  178.6310  141.2380 C   0  0  2  0  0  3  0  0  0  0  0  0
  188.6960  177.4820  141.8440 C   0  0  0  0  0  2  0  0  0  0  0  0
  190.8330  177.6760  142.7660 C   0  0  0  0  0  2  0  0  0  0  0  0
  189.4150  177.9310  143.0250 N   0  0  0  0  0  0  0  0  0  0  0  0
  191.6270  178.1320  143.9060 N   0  0  0  0  0  2  0  0  0  0  0  0
  191.2080  177.3870  145.0910 C   0  0  0  0  0  2  0  0  0  0  0  0
  189.7050  177.5410  145.2990 C   0  0  0  0  0  2  0  0  0  0  0  0
  189.0160  177.0980  144.0890 N   0  0  0  0  0  2  0  0  0  0  0  0
  1  4  1  0  0  0  0
  2  6  2  0  0  0  0
  2  3  1  0  0  0  0
  5  3  1  6  0  0  0
  5  1  1  0  0  0  0
  5  9  1  0  0  0  0
  6 10  1  0  0  0  0
  7  9  2  0  0  0  0
  8  3  2  0  0  0  0
  8  7  1  0  0  0  0
 10  1  2  0  0  0  0
 11 15  1  0  0  0  0
 11 20  1  0  0  0  0
 12  2  1  0  0  0  0
 13 17  1  0  0  0  0
 13 16  2  0  0  0  0
 14 20  1  0  0  0  0
 14 12  2  0  0  0  0
 16 19  1  0  0  0  0
 16 14  1  0  0  0  0
 17 11  2  0  0  0  0
 18 12  1  0  0  0  0
 19 18  2  0  0  0  0
 21  6  1  0  0  0  0
 21 22  1  0  0  0  0
 24 23  1  6  0  0  0
 24 22  1  0  0  0  0
 24 25  1  0  0  0  0
 25 27  1  0  0  0  0
 26 27  1  0  0  0  0
 26 28  1  0  0  0  0
 27 31  1  0  0  0  0
 28 29  1  0  0  0  0
 29 30  1  0  0  0  0
 31 30  1  0  0  0  0
M  END
>  <MODEL>
6

>  <REMARK>
 VINA RESULT:      -7.4      4.940      8.754
  Name = 
  6 active torsions:
  status: ('A' for Active; 'I' for Inactive)
    1  A    between atoms: C_3  and  N_9
    2  A    between atoms: C_3  and  C_19
    3  A    between atoms: C_4  and  C_5
    4  A    between atoms: C_8  and  C_19
    5  A    between atoms: C_8  and  S_31
    6  A    between atoms: C_21  and  S_31
                            x       y       z     vdW  Elec       q    Type
                         _______ _______ _______ _____ _____    ______ ____

>  <TORSDO>
F 6

$$$$
=
 OpenBabel10222415273D

 31 35  0  0  1  0  0  0  0  0999 V2000
  185.5300  178.9330  141.0090 C   0  0  0  0  0  0  0  0  0  0  0  0
  186.4710  178.0740  138.4980 C   0  0  0  0  0  0  0  0  0  0  0  0
  185.1140  178.3320  138.7340 C   0  0  0  0  0  0  0  0  0  0  0  0
  185.0600  179.3720  142.2790 N   0  0  0  0  0  1  0  0  0  0  0  0
  184.6610  178.7480  139.9410 C   0  0  0  0  0  0  0  0  0  0  0  0
  187.3500  178.2680  139.6000 C   0  0  0  0  0  0  0  0  0  0  0  0
  183.0220  178.6470  138.6150 C   0  0  0  0  0  3  0  0  0  0  0  0
  184.0920  178.2660  137.8680 N   0  0  0  0  0  0  0  0  0  0  0  0
  183.3370  178.9540  139.9010 N   0  0  0  0  0  0  0  0  0  0  0  0
  186.8560  178.6860  140.8090 N   0  0  0  0  0  2  0  0  0  0  0  0
  186.7880  173.9860  136.4130 C   0  0  0  0  0  0  0  0  0  0  0  0
  186.9430  177.6340  137.1680 C   0  0  0  0  0  0  0  0  0  0  0  0
  187.6440  175.3520  134.6160 N   0  0  0  0  0  0  0  0  0  0  0  0
  186.9640  176.3540  136.6640 C   0  0  0  0  0  0  0  0  0  0  0  0
  186.4260  172.6450  136.9360 C   0  0  0  0  0  1  0  0  0  0  0  0
  187.4690  176.4450  135.4010 C   0  0  0  0  0  0  0  0  0  0  0  0
  187.3060  174.1210  135.1060 C   0  0  0  0  0  3  0  0  0  0  0  0
  187.4480  178.4490  136.1540 C   0  0  0  0  0  3  0  0  0  0  0  0
  187.7750  177.7090  135.0640 N   0  0  0  0  0  0  0  0  0  0  0  0
  186.6140  175.1250  137.2180 C   0  0  0  0  0  2  0  0  0  0  0  0
  189.1100  177.9410  139.4740 S   0  0  0  0  0  0  0  0  0  0  0  0
  189.1850  177.2280  141.1520 C   0  0  0  0  0  2  0  0  0  0  0  0
  191.5640  177.3780  140.8570 O   0  0  0  0  0  1  0  0  0  0  0  0
  190.5440  177.4420  141.8080 C   0  0  2  0  0  3  0  0  0  0  0  0
  190.7820  176.4220  142.9130 C   0  0  0  0  0  2  0  0  0  0  0  0
  191.6810  176.3980  145.0690 C   0  0  0  0  0  2  0  0  0  0  0  0
  190.6910  177.0580  144.2180 N   0  0  0  0  0  0  0  0  0  0  0  0
  191.6670  177.0080  146.3970 N   0  0  0  0  0  2  0  0  0  0  0  0
  190.3370  176.8330  146.9750 C   0  0  0  0  0  2  0  0  0  0  0  0
  189.2810  177.4040  146.0350 C   0  0  0  0  0  2  0  0  0  0  0  0
  189.4130  176.7570  144.7310 N   0  0  0  0  0  2  0  0  0  0  0  0
  1  4  1  0  0  0  0
  2  3  1  0  0  0  0
  2  6  2  0  0  0  0
  3  5  1  0  0  0  0
  5  1  2  0  0  0  0
  6 10  1  0  0  0  0
  7  9  2  0  0  0  0
  8  7  1  0  0  0  0
  8  3  2  0  0  0  0
  9  5  1  0  0  0  0
 10  1  1  0  0  0  0
 11 15  1  0  0  0  0
 11 20  1  0  0  0  0
 12  2  1  0  0  0  0
 13 17  1  0  0  0  0
 13 16  2  0  0  0  0
 14 12  2  0  0  0  0
 14 20  1  0  0  0  0
 16 14  1  0  0  0  0
 17 11  2  0  0  0  0
 18 12  1  0  0  0  0
 19 16  1  0  0  0  0
 19 18  2  0  0  0  0
 21  6  1  0  0  0  0
 21 22  1  0  0  0  0
 22 24  1  0  0  0  0
 24 23  1  6  0  0  0
 24 25  1  0  0  0  0
 25 27  1  0  0  0  0
 26 28  1  0  0  0  0
 27 31  1  0  0  0  0
 27 26  1  0  0  0  0
 28 29  1  0  0  0  0
 30 29  1  0  0  0  0
 31 30  1  0  0  0  0
M  END
>  <MODEL>
7

>  <REMARK>
 VINA RESULT:      -7.2      3.525      4.877
  Name = 
  6 active torsions:
  status: ('A' for Active; 'I' for Inactive)
    1  A    between atoms: C_3  and  N_9
    2  A    between atoms: C_3  and  C_19
    3  A    between atoms: C_4  and  C_5
    4  A    between atoms: C_8  and  C_19
    5  A    between atoms: C_8  and  S_31
    6  A    between atoms: C_21  and  S_31
                            x       y       z     vdW  Elec       q    Type
                         _______ _______ _______ _____ _____    ______ ____

>  <TORSDO>
F 6

$$$$
=
 OpenBabel10222415273D

 31 35  0  0  1  0  0  0  0  0999 V2000
  188.5930  177.7620  140.2620 C   0  0  0  0  0  0  0  0  0  0  0  0
  187.5310  177.8000  142.8690 C   0  0  0  0  0  0  0  0  0  0  0  0
  188.6840  177.0710  142.5470 C   0  0  0  0  0  0  0  0  0  0  0  0
  189.1280  177.7480  138.9430 N   0  0  0  0  0  1  0  0  0  0  0  0
  189.1960  177.0540  141.2930 C   0  0  0  0  0  0  0  0  0  0  0  0
  186.9230  178.5210  141.8040 C   0  0  0  0  0  0  0  0  0  0  0  0
  190.4450  175.8920  142.5370 C   0  0  0  0  0  3  0  0  0  0  0  0
  189.4630  176.3440  143.3620 N   0  0  0  0  0  2  0  0  0  0  0  0
  190.3110  176.3120  141.2520 N   0  0  0  0  0  0  0  0  0  0  0  0
  187.4670  178.4770  140.5450 N   0  0  0  0  0  0  0  0  0  0  0  0
  189.4300  177.3110  147.0300 C   0  0  0  0  0  0  0  0  0  0  0  0
  186.9990  177.8140  144.2490 C   0  0  0  0  0  0  0  0  0  0  0  0
  187.1460  177.6470  147.7350 N   0  0  0  0  0  0  0  0  0  0  0  0
  187.7020  177.6690  145.4220 C   0  0  0  0  0  0  0  0  0  0  0  0
  190.8520  177.0670  147.3810 C   0  0  0  0  0  1  0  0  0  0  0  0
  186.7900  177.7640  146.4320 C   0  0  0  0  0  0  0  0  0  0  0  0
  188.4580  177.4240  148.0480 C   0  0  0  0  0  3  0  0  0  0  0  0
  185.6670  177.9960  144.6240 C   0  0  0  0  0  3  0  0  0  0  0  0
  185.5420  177.9610  145.9750 N   0  0  0  0  0  0  0  0  0  0  0  0
  189.0480  177.4310  145.6820 C   0  0  0  0  0  2  0  0  0  0  0  0
  185.4200  179.4700  142.0420 S   0  0  0  0  0  0  0  0  0  0  0  0
  184.4060  178.2530  141.1350 C   0  0  0  0  0  2  0  0  0  0  0  0
  184.4910  180.0040  139.4930 O   0  0  0  0  0  1  0  0  0  0  0  0
  184.1900  178.6540  139.6800 C   0  0  2  0  0  3  0  0  0  0  0  0
  182.7620  178.3610  139.2410 C   0  0  0  0  0  2  0  0  0  0  0  0
  180.8970  177.3750  140.2440 C   0  0  0  0  0  2  0  0  0  0  0  0
  181.8520  178.4770  140.3680 N   0  0  0  0  0  0  0  0  0  0  0  0
  179.9620  177.4090  141.3670 N   0  0  0  0  0  2  0  0  0  0  0  0
  179.2420  178.6800  141.3330 C   0  0  0  0  0  2  0  0  0  0  0  0
  180.2320  179.8410  141.3330 C   0  0  0  0  0  2  0  0  0  0  0  0
  181.1410  179.6830  140.1990 N   0  0  0  0  0  2  0  0  0  0  0  0
  1 10  2  0  0  0  0
  1  5  1  0  0  0  0
  2 12  1  0  0  0  0
  3  2  1  0  0  0  0
  3  8  1  0  0  0  0
  4  1  1  0  0  0  0
  5  3  2  0  0  0  0
  6 21  1  0  0  0  0
  6  2  2  0  0  0  0
  7  8  1  0  0  0  0
  9  5  1  0  0  0  0
  9  7  2  0  0  0  0
 10  6  1  0  0  0  0
 11 15  1  0  0  0  0
 11 17  2  0  0  0  0
 12 18  1  0  0  0  0
 12 14  2  0  0  0  0
 13 17  1  0  0  0  0
 14 20  1  0  0  0  0
 14 16  1  0  0  0  0
 16 13  2  0  0  0  0
 18 19  2  0  0  0  0
 19 16  1  0  0  0  0
 20 11  1  0  0  0  0
 22 21  1  0  0  0  0
 24 23  1  1  0  0  0
 24 22  1  0  0  0  0
 25 24  1  0  0  0  0
 25 27  1  0  0  0  0
 26 27  1  0  0  0  0
 26 28  1  0  0  0  0
 29 28  1  0  0  0  0
 30 29  1  0  0  0  0
 31 27  1  0  0  0  0
 31 30  1  0  0  0  0
M  END
>  <MODEL>
8

>  <REMARK>
 VINA RESULT:      -7.2      3.743      7.592
  Name = 
  6 active torsions:
  status: ('A' for Active; 'I' for Inactive)
    1  A    between atoms: C_3  and  N_9
    2  A    between atoms: C_3  and  C_19
    3  A    between atoms: C_4  and  C_5
    4  A    between atoms: C_8  and  C_19
    5  A    between atoms: C_8  and  S_31
    6  A    between atoms: C_21  and  S_31
                            x       y       z     vdW  Elec       q    Type
                         _______ _______ _______ _____ _____    ______ ____

>  <TORSDO>
F 6

$$$$
=
 OpenBabel10222415273D

 31 35  0  0  1  0  0  0  0  0999 V2000
  188.7990  177.6160  140.4070 C   0  0  0  0  0  0  0  0  0  0  0  0
  187.5930  177.7580  142.9470 C   0  0  0  0  0  0  0  0  0  0  0  0
  188.7370  176.9850  142.7100 C   0  0  0  0  0  0  0  0  0  0  0  0
  189.4070  177.5500  139.1220 N   0  0  0  0  0  1  0  0  0  0  0  0
  189.3190  176.9180  141.4890 C   0  0  0  0  0  0  0  0  0  0  0  0
  187.0700  178.4690  141.8300 C   0  0  0  0  0  0  0  0  0  0  0  0
  190.4560  175.7510  142.8310 C   0  0  0  0  0  3  0  0  0  0  0  0
  189.4450  176.2560  143.5870 N   0  0  0  0  0  2  0  0  0  0  0  0
  190.4100  176.1400  141.5310 N   0  0  0  0  0  0  0  0  0  0  0  0
  187.6830  178.3740  140.6070 N   0  0  0  0  0  0  0  0  0  0  0  0
  189.2650  177.5170  147.2250 C   0  0  0  0  0  0  0  0  0  0  0  0
  186.9840  177.8260  144.2930 C   0  0  0  0  0  0  0  0  0  0  0  0
  186.9390  177.8320  147.7860 N   0  0  0  0  0  0  0  0  0  0  0  0
  187.6230  177.7550  145.5090 C   0  0  0  0  0  0  0  0  0  0  0  0
  190.6700  177.3250  147.6650 C   0  0  0  0  0  1  0  0  0  0  0  0
  186.6540  177.8770  146.4610 C   0  0  0  0  0  0  0  0  0  0  0  0
  188.2360  177.6560  148.1820 C   0  0  0  0  0  3  0  0  0  0  0  0
  185.6290  177.9940  144.5850 C   0  0  0  0  0  3  0  0  0  0  0  0
  185.4290  178.0220  145.9270 N   0  0  0  0  0  0  0  0  0  0  0  0
  188.9570  177.5630  145.8550 C   0  0  0  0  0  2  0  0  0  0  0  0
  185.5880  179.4710  141.9580 S   0  0  0  0  0  0  0  0  0  0  0  0
  184.6570  178.3910  140.8190 C   0  0  0  0  0  2  0  0  0  0  0  0
  184.3450  180.2150  139.2880 O   0  0  0  0  0  1  0  0  0  0  0  0
  184.7310  178.8760  139.3760 C   0  0  2  0  0  3  0  0  0  0  0  0
  183.8670  178.0130  138.4660 C   0  0  0  0  0  2  0  0  0  0  0  0
  185.9610  177.8270  137.4460 C   0  0  0  0  0  2  0  0  0  0  0  0
  184.6990  177.1210  137.6750 N   0  0  0  0  0  0  0  0  0  0  0  0
  186.8650  176.9750  136.6770 N   0  0  0  0  0  2  0  0  0  0  0  0
  186.2390  176.6730  135.3920 C   0  0  0  0  0  2  0  0  0  0  0  0
  184.8640  176.0520  135.6160 C   0  0  0  0  0  2  0  0  0  0  0  0
  184.0620  176.9650  136.4270 N   0  0  0  0  0  2  0  0  0  0  0  0
  1 10  2  0  0  0  0
  1  5  1  0  0  0  0
  2 12  1  0  0  0  0
  3  2  1  0  0  0  0
  3  8  1  0  0  0  0
  4  1  1  0  0  0  0
  5  9  1  0  0  0  0
  5  3  2  0  0  0  0
  6 21  1  0  0  0  0
  6  2  2  0  0  0  0
  7  8  1  0  0  0  0
  9  7  2  0  0  0  0
 10  6  1  0  0  0  0
 11 15  1  0  0  0  0
 11 17  2  0  0  0  0
 12 18  1  0  0  0  0
 12 14  2  0  0  0  0
 13 17  1  0  0  0  0
 14 20  1  0  0  0  0
 14 16  1  0  0  0  0
 16 13  2  0  0  0  0
 18 19  2  0  0  0  0
 19 16  1  0  0  0  0
 20 11  1  0  0  0  0
 22 21  1  0  0  0  0
 24 23  1  1  0  0  0
 24 22  1  0  0  0  0
 25 24  1  0  0  0  0
 26 27  1  0  0  0  0
 27 25  1  0  0  0  0
 28 26  1  0  0  0  0
 29 30  1  0  0  0  0
 29 28  1  0  0  0  0
 30 31  1  0  0  0  0
 31 27  1  0  0  0  0
M  END
>  <MODEL>
9

>  <REMARK>
 VINA RESULT:      -7.2      3.609      8.103
  Name = 
  6 active torsions:
  status: ('A' for Active; 'I' for Inactive)
    1  A    between atoms: C_3  and  N_9
    2  A    between atoms: C_3  and  C_19
    3  A    between atoms: C_4  and  C_5
    4  A    between atoms: C_8  and  C_19
    5  A    between atoms: C_8  and  S_31
    6  A    between atoms: C_21  and  S_31
                            x       y       z     vdW  Elec       q    Type
                         _______ _______ _______ _____ _____    ______ ____

>  <TORSDO>
F 6

$$$$
