=
 OpenBabel10222416563D

 28 31  0  0  0  0  0  0  0  0999 V2000
  187.0820  178.7460  137.4520 N   0  0  0  0  0  2  0  0  0  0  0  0
  186.0850  178.3650  138.3590 C   0  0  0  0  0  0  0  0  0  0  0  0
  187.4030  178.2200  138.7100 C   0  0  0  0  0  0  0  0  0  0  0  0
  188.4070  177.8070  139.6820 C   0  0  0  0  0  0  0  0  0  0  0  0
  189.7920  177.3500  141.6950 C   0  0  0  0  0  0  0  0  0  0  0  0
  188.3370  178.1160  141.3300 S   0  0  0  0  0  0  0  0  0  0  0  0
  189.5640  177.1010  139.3850 C   0  0  0  0  0  3  0  0  0  0  0  0
  190.3450  176.8430  140.5210 C   0  0  0  0  0  3  0  0  0  0  0  0
  191.5220  177.0070  145.6040 C   0  0  0  0  0  0  0  0  0  0  0  0
  190.7840  178.1480  145.2540 C   0  0  0  0  0  3  0  0  0  0  0  0
  190.2200  178.2580  143.9800 C   0  0  0  0  0  3  0  0  0  0  0  0
  191.6890  175.9830  144.6660 C   0  0  0  0  0  3  0  0  0  0  0  0
  191.1240  176.0940  143.3920 C   0  0  0  0  0  3  0  0  0  0  0  0
  190.3850  177.2320  143.0390 C   0  0  0  0  0  0  0  0  0  0  0  0
  192.0980  176.8660  146.8690 O   0  0  0  0  0  0  0  0  0  0  0  0
  192.3180  175.6000  147.4770 C   0  0  0  0  0  1  0  0  0  0  0  0
  184.6430  178.2010  138.6920 C   0  0  0  0  0  2  0  0  0  0  0  0
  184.1780  179.3490  139.5290 C   0  0  0  0  0  0  0  0  0  0  0  0
  184.1530  179.2900  140.8620 C   0  0  0  0  0  3  0  0  0  0  0  0
  183.7410  180.5080  138.8990 O   0  0  0  0  0  1  0  0  0  0  0  0
  184.5940  178.0940  141.6520 C   0  0  0  0  0  2  0  0  0  0  0  0
  184.1250  178.1720  142.9960 O   0  0  0  0  0  0  0  0  0  0  0  0
  184.9710  178.1910  144.1100 C   0  0  0  0  0  0  0  0  0  0  0  0
  187.0350  177.5730  145.2350 C   0  0  0  0  0  3  0  0  0  0  0  0
  186.6190  178.2630  146.3770 C   0  0  0  0  0  3  0  0  0  0  0  0
  185.3830  178.9160  146.3880 C   0  0  0  0  0  3  0  0  0  0  0  0
  186.2140  177.5360  144.1030 C   0  0  0  0  0  3  0  0  0  0  0  0
  184.5610  178.8780  145.2570 C   0  0  0  0  0  3  0  0  0  0  0  0
  1  2  1  0  0  0  0
  1  3  1  0  0  0  0
  2 17  1  0  0  0  0
  2  3  2  0  0  0  0
  3  4  1  0  0  0  0
  4  6  1  0  0  0  0
  5 14  1  0  0  0  0
  6  5  1  0  0  0  0
  7  4  2  0  0  0  0
  7  8  1  0  0  0  0
  8  5  2  0  0  0  0
  9 15  1  0  0  0  0
 10  9  1  0  0  0  0
 11 10  2  0  0  0  0
 12  9  2  0  0  0  0
 13 12  1  0  0  0  0
 14 13  2  0  0  0  0
 14 11  1  0  0  0  0
 15 16  1  0  0  0  0
 17 18  1  0  0  0  0
 18 19  2  0  0  0  0
 19 21  1  0  0  0  0
 20 18  1  0  0  0  0
 21 22  1  0  0  0  0
 22 23  1  0  0  0  0
 23 28  1  0  0  0  0
 24 25  2  0  0  0  0
 25 26  1  0  0  0  0
 27 23  2  0  0  0  0
 27 24  1  0  0  0  0
 28 26  2  0  0  0  0
M  END
>  <MODEL>
1

>  <REMARK>
 VINA RESULT:      -8.5      0.000      0.000
  Name = 
  8 active torsions:
  status: ('A' for Active; 'I' for Inactive)
    1  A    between atoms: C_1  and  C_18
    2  A    between atoms: C_2  and  C_16
    3  A    between atoms: O_3  and  C_4
    4  A    between atoms: C_5  and  C_28
    5  A    between atoms: C_9  and  O_17
    6  A    between atoms: C_13  and  C_16
    7  A    between atoms: O_17  and  C_26
    8  A    between atoms: C_20  and  C_26
                            x       y       z     vdW  Elec       q    Type
                         _______ _______ _______ _____ _____    ______ ____

>  <TORSDO>
F 8

$$$$
=
 OpenBabel10222416563D

 28 31  0  0  0  0  0  0  0  0999 V2000
  181.8390  179.5460  142.6770 N   0  0  0  0  0  2  0  0  0  0  0  0
  182.5730  178.6960  141.8410 C   0  0  0  0  0  0  0  0  0  0  0  0
  183.0230  178.9380  143.1140 C   0  0  0  0  0  0  0  0  0  0  0  0
  184.0180  178.7260  144.1580 C   0  0  0  0  0  0  0  0  0  0  0  0
  186.0360  178.2300  145.5220 C   0  0  0  0  0  0  0  0  0  0  0  0
  185.5970  178.2250  143.8950 S   0  0  0  0  0  0  0  0  0  0  0  0
  183.8020  178.9080  145.5150 C   0  0  0  0  0  3  0  0  0  0  0  0
  184.9400  178.6290  146.2850 C   0  0  0  0  0  3  0  0  0  0  0  0
  189.8960  177.1870  147.0710 C   0  0  0  0  0  0  0  0  0  0  0  0
  189.6560  177.1580  145.6890 C   0  0  0  0  0  3  0  0  0  0  0  0
  188.3980  177.4990  145.1850 C   0  0  0  0  0  3  0  0  0  0  0  0
  188.8640  177.5580  147.9390 C   0  0  0  0  0  3  0  0  0  0  0  0
  187.6060  177.8990  147.4340 C   0  0  0  0  0  3  0  0  0  0  0  0
  187.3620  177.8720  146.0530 C   0  0  0  0  0  0  0  0  0  0  0  0
  191.1420  176.8520  147.6070 O   0  0  0  0  0  0  0  0  0  0  0  0
  192.0490  175.9770  146.9500 C   0  0  0  0  0  1  0  0  0  0  0  0
  182.7570  178.0350  140.5190 C   0  0  0  0  0  2  0  0  0  0  0  0
  183.2250  179.0330  139.5090 C   0  0  0  0  0  0  0  0  0  0  0  0
  184.5170  179.3200  139.3420 C   0  0  0  0  0  3  0  0  0  0  0  0
  182.2820  179.6950  138.7310 O   0  0  0  0  0  1  0  0  0  0  0  0
  185.6220  178.6760  140.1240 C   0  0  0  0  0  2  0  0  0  0  0  0
  186.8250  178.6280  139.3610 O   0  0  0  0  0  0  0  0  0  0  0  0
  188.0380  178.1390  139.8580 C   0  0  0  0  0  0  0  0  0  0  0  0
  189.5420  177.6330  141.6980 C   0  0  0  0  0  3  0  0  0  0  0  0
  190.4890  177.1490  140.7920 C   0  0  0  0  0  3  0  0  0  0  0  0
  190.2130  177.1590  139.4210 C   0  0  0  0  0  3  0  0  0  0  0  0
  188.3190  178.1270  141.2340 C   0  0  0  0  0  3  0  0  0  0  0  0
  188.9910  177.6540  138.9560 C   0  0  0  0  0  3  0  0  0  0  0  0
  1  3  1  0  0  0  0
  2  1  1  0  0  0  0
  2  3  2  0  0  0  0
  3  4  1  0  0  0  0
  4  7  2  0  0  0  0
  5 14  1  0  0  0  0
  5  8  2  0  0  0  0
  6  4  1  0  0  0  0
  6  5  1  0  0  0  0
  7  8  1  0  0  0  0
  9 15  1  0  0  0  0
  9 12  1  0  0  0  0
 10  9  2  0  0  0  0
 11 10  1  0  0  0  0
 11 14  2  0  0  0  0
 13 12  2  0  0  0  0
 14 13  1  0  0  0  0
 16 15  1  0  0  0  0
 17  2  1  0  0  0  0
 18 17  1  0  0  0  0
 19 18  2  0  0  0  0
 19 21  1  0  0  0  0
 20 18  1  0  0  0  0
 22 23  1  0  0  0  0
 22 21  1  0  0  0  0
 23 27  1  0  0  0  0
 25 24  1  0  0  0  0
 26 25  2  0  0  0  0
 27 24  2  0  0  0  0
 28 26  1  0  0  0  0
 28 23  2  0  0  0  0
M  END
>  <MODEL>
2

>  <REMARK>
 VINA RESULT:      -8.5      2.247      5.032
  Name = 
  8 active torsions:
  status: ('A' for Active; 'I' for Inactive)
    1  A    between atoms: C_1  and  C_18
    2  A    between atoms: C_2  and  C_16
    3  A    between atoms: O_3  and  C_4
    4  A    between atoms: C_5  and  C_28
    5  A    between atoms: C_9  and  O_17
    6  A    between atoms: C_13  and  C_16
    7  A    between atoms: O_17  and  C_26
    8  A    between atoms: C_20  and  C_26
                            x       y       z     vdW  Elec       q    Type
                         _______ _______ _______ _____ _____    ______ ____

>  <TORSDO>
F 8

$$$$
=
 OpenBabel10222416563D

 28 31  0  0  0  0  0  0  0  0999 V2000
  190.2080  176.9370  147.4300 N   0  0  0  0  0  2  0  0  0  0  0  0
  190.5420  176.9810  146.0700 C   0  0  0  0  0  0  0  0  0  0  0  0
  189.2660  177.2990  146.4590 C   0  0  0  0  0  0  0  0  0  0  0  0
  187.9100  177.7050  146.1110 C   0  0  0  0  0  0  0  0  0  0  0  0
  185.7440  178.2470  145.0190 C   0  0  0  0  0  0  0  0  0  0  0  0
  187.2440  177.6240  144.5740 S   0  0  0  0  0  0  0  0  0  0  0  0
  186.9770  178.2180  147.0010 C   0  0  0  0  0  3  0  0  0  0  0  0
  185.7550  178.5230  146.3850 C   0  0  0  0  0  3  0  0  0  0  0  0
  182.4230  178.8750  142.3790 C   0  0  0  0  0  0  0  0  0  0  0  0
  182.2720  179.0540  143.7630 C   0  0  0  0  0  3  0  0  0  0  0  0
  183.3550  178.8490  144.6230 C   0  0  0  0  0  3  0  0  0  0  0  0
  183.6670  178.4890  141.8690 C   0  0  0  0  0  3  0  0  0  0  0  0
  184.7500  178.2850  142.7290 C   0  0  0  0  0  3  0  0  0  0  0  0
  184.6030  178.4640  144.1130 C   0  0  0  0  0  0  0  0  0  0  0  0
  181.3600  179.0710  141.4940 O   0  0  0  0  0  0  0  0  0  0  0  0
  180.1320  179.6670  141.8880 C   0  0  0  0  0  1  0  0  0  0  0  0
  191.5420  176.7900  144.9840 C   0  0  0  0  0  2  0  0  0  0  0  0
  191.4840  177.9380  144.0270 C   0  0  0  0  0  0  0  0  0  0  0  0
  190.9350  177.8240  142.8170 C   0  0  0  0  0  3  0  0  0  0  0  0
  192.0360  179.1560  144.4040 O   0  0  0  0  0  1  0  0  0  0  0  0
  190.3130  176.5620  142.2980 C   0  0  0  0  0  2  0  0  0  0  0  0
  189.2320  176.8520  141.4170 O   0  0  0  0  0  0  0  0  0  0  0  0
  189.4000  177.1630  140.0630 C   0  0  0  0  0  0  0  0  0  0  0  0
  190.5710  176.9240  137.9470 C   0  0  0  0  0  3  0  0  0  0  0  0
  189.6870  177.8310  137.3550 C   0  0  0  0  0  3  0  0  0  0  0  0
  188.6620  178.4040  138.1130 C   0  0  0  0  0  3  0  0  0  0  0  0
  190.4290  176.5910  139.2970 C   0  0  0  0  0  3  0  0  0  0  0  0
  188.5210  178.0710  139.4640 C   0  0  0  0  0  3  0  0  0  0  0  0
  2  3  2  0  0  0  0
  2  1  1  0  0  0  0
  3  1  1  0  0  0  0
  4  3  1  0  0  0  0
  4  7  2  0  0  0  0
  5  8  2  0  0  0  0
  6  5  1  0  0  0  0
  6  4  1  0  0  0  0
  8  7  1  0  0  0  0
  9 10  1  0  0  0  0
 10 11  2  0  0  0  0
 12  9  2  0  0  0  0
 12 13  1  0  0  0  0
 13 14  2  0  0  0  0
 14 11  1  0  0  0  0
 14  5  1  0  0  0  0
 15 16  1  0  0  0  0
 15  9  1  0  0  0  0
 17  2  1  0  0  0  0
 18 20  1  0  0  0  0
 18 17  1  0  0  0  0
 19 18  2  0  0  0  0
 21 19  1  0  0  0  0
 22 21  1  0  0  0  0
 23 22  1  0  0  0  0
 24 27  1  0  0  0  0
 25 24  2  0  0  0  0
 25 26  1  0  0  0  0
 26 28  2  0  0  0  0
 27 23  2  0  0  0  0
 28 23  1  0  0  0  0
M  END
>  <MODEL>
3

>  <REMARK>
 VINA RESULT:      -8.5      2.905      8.321
  Name = 
  8 active torsions:
  status: ('A' for Active; 'I' for Inactive)
    1  A    between atoms: C_1  and  C_18
    2  A    between atoms: C_2  and  C_16
    3  A    between atoms: O_3  and  C_4
    4  A    between atoms: C_5  and  C_28
    5  A    between atoms: C_9  and  O_17
    6  A    between atoms: C_13  and  C_16
    7  A    between atoms: O_17  and  C_26
    8  A    between atoms: C_20  and  C_26
                            x       y       z     vdW  Elec       q    Type
                         _______ _______ _______ _____ _____    ______ ____

>  <TORSDO>
F 8

$$$$
=
 OpenBabel10222416563D

 28 31  0  0  0  0  0  0  0  0999 V2000
  190.2540  176.7860  147.2830 N   0  0  0  0  0  2  0  0  0  0  0  0
  190.5690  176.8810  145.9220 C   0  0  0  0  0  0  0  0  0  0  0  0
  189.3020  177.1970  146.3420 C   0  0  0  0  0  0  0  0  0  0  0  0
  187.9460  177.6320  146.0300 C   0  0  0  0  0  0  0  0  0  0  0  0
  185.7620  178.2150  144.9970 C   0  0  0  0  0  0  0  0  0  0  0  0
  187.2340  177.5550  144.5130 S   0  0  0  0  0  0  0  0  0  0  0  0
  187.0520  178.1720  146.9420 C   0  0  0  0  0  3  0  0  0  0  0  0
  185.8190  178.5010  146.3590 C   0  0  0  0  0  3  0  0  0  0  0  0
  182.3790  178.9070  142.4530 C   0  0  0  0  0  0  0  0  0  0  0  0
  183.6190  178.5490  141.9020 C   0  0  0  0  0  3  0  0  0  0  0  0
  184.7200  178.3220  142.7310 C   0  0  0  0  0  3  0  0  0  0  0  0
  182.2570  179.0380  143.8410 C   0  0  0  0  0  3  0  0  0  0  0  0
  183.3600  178.8110  144.6700 C   0  0  0  0  0  3  0  0  0  0  0  0
  184.6000  178.4520  144.1220 C   0  0  0  0  0  0  0  0  0  0  0  0
  181.2590  179.1400  141.6520 O   0  0  0  0  0  0  0  0  0  0  0  0
  180.0610  179.7170  142.1540 C   0  0  0  0  0  1  0  0  0  0  0  0
  191.5510  176.7220  144.8140 C   0  0  0  0  0  2  0  0  0  0  0  0
  191.5250  177.9280  143.9300 C   0  0  0  0  0  0  0  0  0  0  0  0
  191.1100  177.8690  142.6640 C   0  0  0  0  0  3  0  0  0  0  0  0
  191.9630  179.1450  144.4390 O   0  0  0  0  0  1  0  0  0  0  0  0
  190.6200  176.6140  142.0040 C   0  0  0  0  0  2  0  0  0  0  0  0
  189.4430  176.8670  141.2410 O   0  0  0  0  0  0  0  0  0  0  0  0
  189.4600  177.2330  139.8910 C   0  0  0  0  0  0  0  0  0  0  0  0
  188.6940  178.6130  138.0430 C   0  0  0  0  0  3  0  0  0  0  0  0
  189.5380  177.9180  137.1730 C   0  0  0  0  0  3  0  0  0  0  0  0
  190.3420  176.8820  137.6590 C   0  0  0  0  0  3  0  0  0  0  0  0
  188.6540  178.2730  139.3990 C   0  0  0  0  0  3  0  0  0  0  0  0
  190.3020  176.5410  139.0140 C   0  0  0  0  0  3  0  0  0  0  0  0
  2  3  2  0  0  0  0
  2  1  1  0  0  0  0
  3  1  1  0  0  0  0
  4  3  1  0  0  0  0
  4  7  2  0  0  0  0
  5  8  2  0  0  0  0
  6  5  1  0  0  0  0
  6  4  1  0  0  0  0
  8  7  1  0  0  0  0
  9 12  1  0  0  0  0
 10  9  2  0  0  0  0
 10 11  1  0  0  0  0
 11 14  2  0  0  0  0
 12 13  2  0  0  0  0
 14 13  1  0  0  0  0
 14  5  1  0  0  0  0
 15 16  1  0  0  0  0
 15  9  1  0  0  0  0
 17  2  1  0  0  0  0
 18 20  1  0  0  0  0
 18 17  1  0  0  0  0
 19 18  2  0  0  0  0
 21 19  1  0  0  0  0
 22 21  1  0  0  0  0
 23 22  1  0  0  0  0
 24 27  2  0  0  0  0
 25 26  2  0  0  0  0
 25 24  1  0  0  0  0
 26 28  1  0  0  0  0
 27 23  1  0  0  0  0
 28 23  2  0  0  0  0
M  END
>  <MODEL>
4

>  <REMARK>
 VINA RESULT:      -8.4      2.931      8.416
  Name = 
  8 active torsions:
  status: ('A' for Active; 'I' for Inactive)
    1  A    between atoms: C_1  and  C_18
    2  A    between atoms: C_2  and  C_16
    3  A    between atoms: O_3  and  C_4
    4  A    between atoms: C_5  and  C_28
    5  A    between atoms: C_9  and  O_17
    6  A    between atoms: C_13  and  C_16
    7  A    between atoms: O_17  and  C_26
    8  A    between atoms: C_20  and  C_26
                            x       y       z     vdW  Elec       q    Type
                         _______ _______ _______ _____ _____    ______ ____

>  <TORSDO>
F 8

$$$$
=
 OpenBabel10222416563D

 28 31  0  0  0  0  0  0  0  0999 V2000
  188.9580  178.2700  148.5060 N   0  0  0  0  0  2  0  0  0  0  0  0
  189.2090  177.1600  147.6900 C   0  0  0  0  0  0  0  0  0  0  0  0
  188.0930  177.9240  147.4600 C   0  0  0  0  0  0  0  0  0  0  0  0
  186.8810  178.1810  146.6920 C   0  0  0  0  0  0  0  0  0  0  0  0
  185.1200  178.4650  144.9610 C   0  0  0  0  0  0  0  0  0  0  0  0
  186.7320  177.9810  145.0330 S   0  0  0  0  0  0  0  0  0  0  0  0
  185.6800  178.6270  147.2220 C   0  0  0  0  0  3  0  0  0  0  0  0
  184.6860  178.7870  146.2460 C   0  0  0  0  0  3  0  0  0  0  0  0
  182.7310  178.6740  141.4060 C   0  0  0  0  0  0  0  0  0  0  0  0
  184.0870  178.3210  141.3290 C   0  0  0  0  0  3  0  0  0  0  0  0
  184.8650  178.2520  142.4880 C   0  0  0  0  0  3  0  0  0  0  0  0
  182.1660  178.9580  142.6540 C   0  0  0  0  0  3  0  0  0  0  0  0
  182.9440  178.8890  143.8130 C   0  0  0  0  0  3  0  0  0  0  0  0
  184.3000  178.5360  143.7390 C   0  0  0  0  0  0  0  0  0  0  0  0
  181.9270  178.7520  140.2660 O   0  0  0  0  0  0  0  0  0  0  0  0
  180.5390  178.4490  140.2830 C   0  0  0  0  0  1  0  0  0  0  0  0
  190.0510  175.9830  147.3410 C   0  0  0  0  0  2  0  0  0  0  0  0
  191.4040  176.4370  146.8940 C   0  0  0  0  0  0  0  0  0  0  0  0
  191.6550  176.7760  145.6290 C   0  0  0  0  0  3  0  0  0  0  0  0
  192.4370  176.4900  147.8220 O   0  0  0  0  0  1  0  0  0  0  0  0
  190.6250  176.7540  144.5390 C   0  0  0  0  0  2  0  0  0  0  0  0
  191.0630  177.5030  143.4090 O   0  0  0  0  0  0  0  0  0  0  0  0
  190.3350  177.6050  142.2190 C   0  0  0  0  0  0  0  0  0  0  0  0
  188.3470  178.2540  140.9810 C   0  0  0  0  0  3  0  0  0  0  0  0
  188.9250  177.7770  139.8010 C   0  0  0  0  0  3  0  0  0  0  0  0
  190.2050  177.2140  139.8280 C   0  0  0  0  0  3  0  0  0  0  0  0
  189.0480  178.1680  142.1870 C   0  0  0  0  0  3  0  0  0  0  0  0
  190.9070  177.1280  141.0340 C   0  0  0  0  0  3  0  0  0  0  0  0
  2  1  1  0  0  0  0
  3  2  2  0  0  0  0
  3  1  1  0  0  0  0
  4  7  2  0  0  0  0
  4  3  1  0  0  0  0
  5  6  1  0  0  0  0
  5  8  2  0  0  0  0
  6  4  1  0  0  0  0
  8  7  1  0  0  0  0
  9 12  1  0  0  0  0
 10  9  2  0  0  0  0
 10 11  1  0  0  0  0
 11 14  2  0  0  0  0
 12 13  2  0  0  0  0
 14 13  1  0  0  0  0
 14  5  1  0  0  0  0
 15 16  1  0  0  0  0
 15  9  1  0  0  0  0
 17  2  1  0  0  0  0
 18 17  1  0  0  0  0
 18 20  1  0  0  0  0
 19 18  2  0  0  0  0
 21 19  1  0  0  0  0
 22 21  1  0  0  0  0
 23 22  1  0  0  0  0
 24 27  2  0  0  0  0
 25 26  2  0  0  0  0
 25 24  1  0  0  0  0
 26 28  1  0  0  0  0
 27 23  1  0  0  0  0
 28 23  2  0  0  0  0
M  END
>  <MODEL>
5

>  <REMARK>
 VINA RESULT:      -8.2      2.837      8.714
  Name = 
  8 active torsions:
  status: ('A' for Active; 'I' for Inactive)
    1  A    between atoms: C_1  and  C_18
    2  A    between atoms: C_2  and  C_16
    3  A    between atoms: O_3  and  C_4
    4  A    between atoms: C_5  and  C_28
    5  A    between atoms: C_9  and  O_17
    6  A    between atoms: C_13  and  C_16
    7  A    between atoms: O_17  and  C_26
    8  A    between atoms: C_20  and  C_26
                            x       y       z     vdW  Elec       q    Type
                         _______ _______ _______ _____ _____    ______ ____

>  <TORSDO>
F 8

$$$$
=
 OpenBabel10222416563D

 28 31  0  0  0  0  0  0  0  0999 V2000
  182.8050  178.5700  141.3730 N   0  0  0  0  0  2  0  0  0  0  0  0
  183.9420  178.7740  140.5820 C   0  0  0  0  0  0  0  0  0  0  0  0
  184.0910  178.5470  141.9270 C   0  0  0  0  0  0  0  0  0  0  0  0
  184.9580  178.4010  143.0890 C   0  0  0  0  0  0  0  0  0  0  0  0
  186.8060  178.0020  144.7030 C   0  0  0  0  0  0  0  0  0  0  0  0
  186.5620  177.9120  143.0390 S   0  0  0  0  0  0  0  0  0  0  0  0
  184.5820  178.6440  144.4020 C   0  0  0  0  0  3  0  0  0  0  0  0
  185.6240  178.4190  145.3130 C   0  0  0  0  0  3  0  0  0  0  0  0
  190.4670  177.0940  146.7440 C   0  0  0  0  0  0  0  0  0  0  0  0
  190.4480  177.2270  145.3470 C   0  0  0  0  0  3  0  0  0  0  0  0
  189.2550  177.5240  144.6830 C   0  0  0  0  0  3  0  0  0  0  0  0
  189.2800  177.2580  147.4640 C   0  0  0  0  0  3  0  0  0  0  0  0
  188.0860  177.5550  146.7990 C   0  0  0  0  0  3  0  0  0  0  0  0
  188.0640  177.6910  145.4040 C   0  0  0  0  0  0  0  0  0  0  0  0
  191.6430  176.7970  147.4370 O   0  0  0  0  0  0  0  0  0  0  0  0
  192.3250  175.5580  147.2970 C   0  0  0  0  0  1  0  0  0  0  0  0
  184.5520  179.0620  139.2550 C   0  0  0  0  0  2  0  0  0  0  0  0
  184.4270  177.8680  138.3640 C   0  0  0  0  0  0  0  0  0  0  0  0
  185.4190  177.4750  137.5630 C   0  0  0  0  0  3  0  0  0  0  0  0
  183.2340  177.1560  138.3570 O   0  0  0  0  0  1  0  0  0  0  0  0
  186.7480  178.1640  137.4810 C   0  0  0  0  0  2  0  0  0  0  0  0
  187.8130  177.2170  137.4700 O   0  0  0  0  0  0  0  0  0  0  0  0
  188.8230  177.1780  138.4380 C   0  0  0  0  0  0  0  0  0  0  0  0
  191.0790  176.6200  139.1480 C   0  0  0  0  0  3  0  0  0  0  0  0
  190.8030  177.1240  140.4220 C   0  0  0  0  0  3  0  0  0  0  0  0
  189.5410  177.6540  140.7060 C   0  0  0  0  0  3  0  0  0  0  0  0
  190.0920  176.6450  138.1580 C   0  0  0  0  0  3  0  0  0  0  0  0
  188.5530  177.6790  139.7160 C   0  0  0  0  0  3  0  0  0  0  0  0
  1  3  1  0  0  0  0
  2  1  1  0  0  0  0
  2  3  2  0  0  0  0
  3  4  1  0  0  0  0
  4  7  2  0  0  0  0
  5  8  2  0  0  0  0
  5 14  1  0  0  0  0
  6  4  1  0  0  0  0
  6  5  1  0  0  0  0
  7  8  1  0  0  0  0
  9 15  1  0  0  0  0
  9 12  1  0  0  0  0
 10  9  2  0  0  0  0
 11 10  1  0  0  0  0
 11 14  2  0  0  0  0
 13 12  2  0  0  0  0
 14 13  1  0  0  0  0
 16 15  1  0  0  0  0
 17  2  1  0  0  0  0
 18 17  1  0  0  0  0
 19 18  2  0  0  0  0
 20 18  1  0  0  0  0
 21 19  1  0  0  0  0
 22 21  1  0  0  0  0
 22 23  1  0  0  0  0
 23 28  1  0  0  0  0
 24 25  2  0  0  0  0
 25 26  1  0  0  0  0
 27 23  2  0  0  0  0
 27 24  1  0  0  0  0
 28 26  2  0  0  0  0
M  END
>  <MODEL>
6

>  <REMARK>
 VINA RESULT:      -8.1      2.020      4.910
  Name = 
  8 active torsions:
  status: ('A' for Active; 'I' for Inactive)
    1  A    between atoms: C_1  and  C_18
    2  A    between atoms: C_2  and  C_16
    3  A    between atoms: O_3  and  C_4
    4  A    between atoms: C_5  and  C_28
    5  A    between atoms: C_9  and  O_17
    6  A    between atoms: C_13  and  C_16
    7  A    between atoms: O_17  and  C_26
    8  A    between atoms: C_20  and  C_26
                            x       y       z     vdW  Elec       q    Type
                         _______ _______ _______ _____ _____    ______ ____

>  <TORSDO>
F 8

$$$$
=
 OpenBabel10222416563D

 28 31  0  0  0  0  0  0  0  0999 V2000
  184.9350  178.5160  143.8990 N   0  0  0  0  0  2  0  0  0  0  0  0
  185.9490  177.9820  144.7030 C   0  0  0  0  0  0  0  0  0  0  0  0
  186.1910  178.1960  143.3700 C   0  0  0  0  0  0  0  0  0  0  0  0
  187.0970  178.1290  142.2300 C   0  0  0  0  0  0  0  0  0  0  0  0
  188.9690  177.7620  140.6360 C   0  0  0  0  0  0  0  0  0  0  0  0
  188.6240  177.4340  142.2520 S   0  0  0  0  0  0  0  0  0  0  0  0
  186.8270  178.6290  140.9650 C   0  0  0  0  0  3  0  0  0  0  0  0
  187.8830  178.4230  140.0650 C   0  0  0  0  0  3  0  0  0  0  0  0
  192.6010  176.7360  138.5990 C   0  0  0  0  0  0  0  0  0  0  0  0
  192.6350  177.1690  139.9340 C   0  0  0  0  0  3  0  0  0  0  0  0
  191.4510  177.5020  140.5980 C   0  0  0  0  0  3  0  0  0  0  0  0
  191.3720  176.6450  137.9390 C   0  0  0  0  0  3  0  0  0  0  0  0
  190.1880  176.9780  138.6030 C   0  0  0  0  0  3  0  0  0  0  0  0
  190.2180  177.4090  139.9380 C   0  0  0  0  0  0  0  0  0  0  0  0
  193.7670  176.3960  137.9090 O   0  0  0  0  0  0  0  0  0  0  0  0
  194.2240  175.0570  137.7870 C   0  0  0  0  0  1  0  0  0  0  0  0
  186.4180  177.4970  146.0300 C   0  0  0  0  0  2  0  0  0  0  0  0
  186.4170  178.6220  147.0150 C   0  0  0  0  0  0  0  0  0  0  0  0
  187.1930  178.6140  148.1000 C   0  0  0  0  0  3  0  0  0  0  0  0
  185.5670  179.7010  146.8030 O   0  0  0  0  0  1  0  0  0  0  0  0
  188.1440  177.5060  148.4370 C   0  0  0  0  0  2  0  0  0  0  0  0
  189.4870  177.8810  148.1430 O   0  0  0  0  0  0  0  0  0  0  0  0
  190.2810  177.2310  147.1920 C   0  0  0  0  0  0  0  0  0  0  0  0
  192.0590  175.6860  146.5910 C   0  0  0  0  0  3  0  0  0  0  0  0
  191.8420  175.9630  145.2380 C   0  0  0  0  0  3  0  0  0  0  0  0
  190.8480  176.8710  144.8610 C   0  0  0  0  0  3  0  0  0  0  0  0
  191.2820  176.3180  147.5670 C   0  0  0  0  0  3  0  0  0  0  0  0
  190.0710  177.5040  145.8370 C   0  0  0  0  0  3  0  0  0  0  0  0
  1  2  1  0  0  0  0
  2 17  1  0  0  0  0
  3  1  1  0  0  0  0
  3  2  2  0  0  0  0
  4  6  1  0  0  0  0
  4  3  1  0  0  0  0
  5  6  1  0  0  0  0
  7  4  2  0  0  0  0
  8  5  2  0  0  0  0
  8  7  1  0  0  0  0
  9 10  1  0  0  0  0
 10 11  2  0  0  0  0
 12  9  2  0  0  0  0
 12 13  1  0  0  0  0
 13 14  2  0  0  0  0
 14 11  1  0  0  0  0
 14  5  1  0  0  0  0
 15  9  1  0  0  0  0
 16 15  1  0  0  0  0
 17 18  1  0  0  0  0
 18 19  2  0  0  0  0
 19 21  1  0  0  0  0
 20 18  1  0  0  0  0
 22 21  1  0  0  0  0
 23 27  1  0  0  0  0
 23 22  1  0  0  0  0
 24 27  2  0  0  0  0
 25 24  1  0  0  0  0
 26 25  2  0  0  0  0
 26 28  1  0  0  0  0
 28 23  2  0  0  0  0
M  END
>  <MODEL>
7

>  <REMARK>
 VINA RESULT:      -8.0      2.944      6.192
  Name = 
  8 active torsions:
  status: ('A' for Active; 'I' for Inactive)
    1  A    between atoms: C_1  and  C_18
    2  A    between atoms: C_2  and  C_16
    3  A    between atoms: O_3  and  C_4
    4  A    between atoms: C_5  and  C_28
    5  A    between atoms: C_9  and  O_17
    6  A    between atoms: C_13  and  C_16
    7  A    between atoms: O_17  and  C_26
    8  A    between atoms: C_20  and  C_26
                            x       y       z     vdW  Elec       q    Type
                         _______ _______ _______ _____ _____    ______ ____

>  <TORSDO>
F 8

$$$$
=
 OpenBabel10222416563D

 28 31  0  0  0  0  0  0  0  0999 V2000
  188.5960  177.1400  147.4680 N   0  0  0  0  0  2  0  0  0  0  0  0
  189.1900  177.6050  146.2880 C   0  0  0  0  0  0  0  0  0  0  0  0
  187.8280  177.6810  146.4300 C   0  0  0  0  0  0  0  0  0  0  0  0
  186.5270  178.0490  145.8860 C   0  0  0  0  0  0  0  0  0  0  0  0
  184.5200  178.5040  144.4920 C   0  0  0  0  0  0  0  0  0  0  0  0
  186.0730  177.8890  144.2790 S   0  0  0  0  0  0  0  0  0  0  0  0
  185.4770  178.5830  146.6200 C   0  0  0  0  0  3  0  0  0  0  0  0
  184.3450  178.8400  145.8330 C   0  0  0  0  0  3  0  0  0  0  0  0
  181.5720  178.9650  141.4110 C   0  0  0  0  0  0  0  0  0  0  0  0
  182.8930  178.6240  141.0830 C   0  0  0  0  0  3  0  0  0  0  0  0
  183.8530  178.4730  142.0870 C   0  0  0  0  0  3  0  0  0  0  0  0
  181.2260  179.1540  142.7530 C   0  0  0  0  0  3  0  0  0  0  0  0
  182.1870  179.0030  143.7580 C   0  0  0  0  0  3  0  0  0  0  0  0
  183.5070  178.6610  143.4330 C   0  0  0  0  0  0  0  0  0  0  0  0
  180.5900  179.1230  140.4310 O   0  0  0  0  0  0  0  0  0  0  0  0
  180.7350  180.0170  139.3360 C   0  0  0  0  0  1  0  0  0  0  0  0
  190.4090  177.8250  145.4610 C   0  0  0  0  0  2  0  0  0  0  0  0
  191.4130  176.7510  145.7340 C   0  0  0  0  0  0  0  0  0  0  0  0
  191.6800  175.7900  144.8490 C   0  0  0  0  0  3  0  0  0  0  0  0
  192.0770  176.7450  146.9550 O   0  0  0  0  0  1  0  0  0  0  0  0
  191.0250  175.6890  143.5040 C   0  0  0  0  0  2  0  0  0  0  0  0
  191.2380  176.8770  142.7450 O   0  0  0  0  0  0  0  0  0  0  0  0
  190.4010  177.2890  141.7020 C   0  0  0  0  0  0  0  0  0  0  0  0
  189.9080  177.5530  139.3370 C   0  0  0  0  0  3  0  0  0  0  0  0
  188.6800  178.1390  139.6580 C   0  0  0  0  0  3  0  0  0  0  0  0
  188.3120  178.3010  140.9970 C   0  0  0  0  0  3  0  0  0  0  0  0
  190.7670  177.1290  140.3550 C   0  0  0  0  0  3  0  0  0  0  0  0
  189.1710  177.8780  142.0160 C   0  0  0  0  0  3  0  0  0  0  0  0
  2  3  2  0  0  0  0
  2  1  1  0  0  0  0
  3  1  1  0  0  0  0
  4  3  1  0  0  0  0
  4  7  2  0  0  0  0
  5  8  2  0  0  0  0
  6  5  1  0  0  0  0
  6  4  1  0  0  0  0
  8  7  1  0  0  0  0
  9 12  1  0  0  0  0
 10  9  2  0  0  0  0
 10 11  1  0  0  0  0
 11 14  2  0  0  0  0
 12 13  2  0  0  0  0
 14 13  1  0  0  0  0
 14  5  1  0  0  0  0
 15  9  1  0  0  0  0
 16 15  1  0  0  0  0
 17 18  1  0  0  0  0
 17  2  1  0  0  0  0
 18 20  1  0  0  0  0
 19 18  2  0  0  0  0
 21 19  1  0  0  0  0
 22 21  1  0  0  0  0
 23 28  1  0  0  0  0
 23 22  1  0  0  0  0
 24 25  2  0  0  0  0
 24 27  1  0  0  0  0
 25 26  1  0  0  0  0
 26 28  2  0  0  0  0
 27 23  2  0  0  0  0
M  END
>  <MODEL>
8

>  <REMARK>
 VINA RESULT:      -8.0      2.725      8.707
  Name = 
  8 active torsions:
  status: ('A' for Active; 'I' for Inactive)
    1  A    between atoms: C_1  and  C_18
    2  A    between atoms: C_2  and  C_16
    3  A    between atoms: O_3  and  C_4
    4  A    between atoms: C_5  and  C_28
    5  A    between atoms: C_9  and  O_17
    6  A    between atoms: C_13  and  C_16
    7  A    between atoms: O_17  and  C_26
    8  A    between atoms: C_20  and  C_26
                            x       y       z     vdW  Elec       q    Type
                         _______ _______ _______ _____ _____    ______ ____

>  <TORSDO>
F 8

$$$$
=
 OpenBabel10222416563D

 28 31  0  0  0  0  0  0  0  0999 V2000
  191.6850  177.5130  145.8330 N   0  0  0  0  0  2  0  0  0  0  0  0
  190.4090  177.0800  146.2140 C   0  0  0  0  0  0  0  0  0  0  0  0
  190.6450  177.4020  144.9020 C   0  0  0  0  0  0  0  0  0  0  0  0
  190.1590  177.5390  143.5350 C   0  0  0  0  0  0  0  0  0  0  0  0
  189.7960  177.5230  141.0760 C   0  0  0  0  0  0  0  0  0  0  0  0
  190.9680  177.0020  142.1670 S   0  0  0  0  0  0  0  0  0  0  0  0
  188.9610  178.1340  143.1690 C   0  0  0  0  0  3  0  0  0  0  0  0
  188.7550  178.1250  141.7820 C   0  0  0  0  0  3  0  0  0  0  0  0
  189.9760  177.0690  136.8150 C   0  0  0  0  0  0  0  0  0  0  0  0
  189.1460  178.0450  137.3900 C   0  0  0  0  0  3  0  0  0  0  0  0
  189.0890  178.1930  138.7780 C   0  0  0  0  0  3  0  0  0  0  0  0
  190.7420  176.2450  137.6460 C   0  0  0  0  0  3  0  0  0  0  0  0
  190.6850  176.3940  139.0340 C   0  0  0  0  0  3  0  0  0  0  0  0
  189.8580  177.3690  139.6120 C   0  0  0  0  0  0  0  0  0  0  0  0
  190.0550  176.8960  135.4310 O   0  0  0  0  0  0  0  0  0  0  0  0
  188.9550  176.4510  134.6490 C   0  0  0  0  0  1  0  0  0  0  0  0
  189.4670  176.6300  147.2760 C   0  0  0  0  0  2  0  0  0  0  0  0
  188.8900  177.8150  147.9830 C   0  0  0  0  0  0  0  0  0  0  0  0
  187.6830  178.2990  147.6860 C   0  0  0  0  0  3  0  0  0  0  0  0
  189.6430  178.4420  148.9690 O   0  0  0  0  0  1  0  0  0  0  0  0
  186.7830  177.7110  146.6410 C   0  0  0  0  0  2  0  0  0  0  0  0
  185.6640  178.5600  146.3970 O   0  0  0  0  0  0  0  0  0  0  0  0
  184.9740  178.5990  145.1800 C   0  0  0  0  0  0  0  0  0  0  0  0
  182.9640  179.0140  143.8790 C   0  0  0  0  0  3  0  0  0  0  0  0
  183.6440  178.6530  142.7120 C   0  0  0  0  0  3  0  0  0  0  0  0
  184.9860  178.2650  142.7780 C   0  0  0  0  0  3  0  0  0  0  0  0
  183.6250  178.9880  145.1100 C   0  0  0  0  0  3  0  0  0  0  0  0
  185.6470  178.2380  144.0090 C   0  0  0  0  0  3  0  0  0  0  0  0
  1  2  1  0  0  0  0
  2 17  1  0  0  0  0
  3  1  1  0  0  0  0
  3  2  2  0  0  0  0
  4  3  1  0  0  0  0
  5  8  2  0  0  0  0
  5  6  1  0  0  0  0
  6  4  1  0  0  0  0
  7  4  2  0  0  0  0
  8  7  1  0  0  0  0
  9 10  2  0  0  0  0
  9 12  1  0  0  0  0
 10 11  1  0  0  0  0
 11 14  2  0  0  0  0
 12 13  2  0  0  0  0
 13 14  1  0  0  0  0
 14  5  1  0  0  0  0
 15  9  1  0  0  0  0
 16 15  1  0  0  0  0
 17 18  1  0  0  0  0
 18 20  1  0  0  0  0
 19 18  2  0  0  0  0
 21 19  1  0  0  0  0
 22 21  1  0  0  0  0
 23 22  1  0  0  0  0
 24 27  2  0  0  0  0
 25 26  2  0  0  0  0
 25 24  1  0  0  0  0
 26 28  1  0  0  0  0
 27 23  1  0  0  0  0
 28 23  2  0  0  0  0
M  END
>  <MODEL>
9

>  <REMARK>
 VINA RESULT:      -7.9      3.113      6.943
  Name = 
  8 active torsions:
  status: ('A' for Active; 'I' for Inactive)
    1  A    between atoms: C_1  and  C_18
    2  A    between atoms: C_2  and  C_16
    3  A    between atoms: O_3  and  C_4
    4  A    between atoms: C_5  and  C_28
    5  A    between atoms: C_9  and  O_17
    6  A    between atoms: C_13  and  C_16
    7  A    between atoms: O_17  and  C_26
    8  A    between atoms: C_20  and  C_26
                            x       y       z     vdW  Elec       q    Type
                         _______ _______ _______ _____ _____    ______ ____

>  <TORSDO>
F 8

$$$$
