=
 OpenBabel10222415293D

 31 33  0  0  1  0  0  0  0  0999 V2000
  189.0510  177.8560  139.8350 C   0  0  0  0  0  0  0  0  0  0  0  0
  191.9170  177.3310  140.6910 C   0  0  0  0  0  3  0  0  0  0  0  0
  190.8820  176.9080  138.4180 C   0  0  0  0  0  0  0  0  0  0  0  0
  189.6870  177.7770  138.6520 C   0  0  0  0  0  0  0  0  0  0  0  0
  190.8470  177.5160  141.4710 C   0  0  0  0  0  0  0  0  0  0  0  0
  191.8760  176.7830  139.3200 C   0  0  0  0  0  3  0  0  0  0  0  0
  187.9800  178.7350  139.9880 O   0  0  0  0  0  1  0  0  0  0  0  0
  189.1960  178.6120  137.5120 C   0  0  0  0  0  1  0  0  0  0  0  0
  189.5050  177.0310  141.0050 C   0  0  1  0  0  3  0  0  0  0  0  0
  190.5430  175.3970  134.9800 C   0  0  0  0  0  2  0  0  0  0  0  0
  191.0390  176.2680  137.1350 N   0  0  0  0  0  0  0  0  0  0  0  0
  192.3100  176.2270  136.4390 C   0  0  0  0  0  2  0  0  0  0  0  0
  191.9930  175.8550  135.0020 C   0  0  0  0  0  2  0  0  0  0  0  0
  189.9290  175.8410  136.2960 C   0  0  2  0  0  3  0  0  0  0  0  0
  189.8970  173.5260  137.3000 N   0  0  0  0  0  1  0  0  0  0  0  0
  187.9500  174.7780  137.1330 O   0  0  0  0  0  0  0  0  0  0  0  0
  189.1900  174.7010  136.9250 C   0  0  0  0  0  0  0  0  0  0  0  0
  188.4890  176.9610  142.1090 C   0  0  0  0  0  3  0  0  0  0  0  0
  187.5920  177.9310  142.2690 C   0  0  0  0  0  3  0  0  0  0  0  0
  186.5920  177.8460  143.3720 C   0  0  0  0  0  2  0  0  0  0  0  0
  185.3850  179.5320  141.9380 N   0  0  0  0  0  1  0  0  0  0  0  0
  185.3520  178.5710  142.9870 C   0  0  0  0  0  0  0  0  0  0  0  0
  184.2650  178.3140  143.5690 O   0  0  0  0  0  0  0  0  0  0  0  0
  190.9930  178.0950  142.7790 N   0  0  0  0  0  2  0  0  0  0  0  0
  190.7470  176.2640  147.2780 N   0  0  0  0  0  2  0  0  0  0  0  0
  189.6460  177.9320  145.3240 N   0  0  0  0  0  2  0  0  0  0  0  0
  190.9530  177.3820  145.1150 C   0  0  0  0  0  0  0  0  0  0  0  0
  189.8620  177.3500  147.6930 C   0  0  0  0  0  2  0  0  0  0  0  0
  191.5590  177.4490  143.9280 C   0  0  0  0  0  3  0  0  0  0  0  0
  191.6840  176.7730  146.2750 C   0  0  0  0  0  2  0  0  0  0  0  0
  188.9020  177.6780  146.5540 C   0  0  0  0  0  2  0  0  0  0  0  0
  1  7  1  0  0  0  0
  1  9  1  0  0  0  0
  2  5  2  0  0  0  0
  3  4  1  0  0  0  0
  3  6  2  0  0  0  0
  4  1  2  0  0  0  0
  5 24  1  0  0  0  0
  6  2  1  0  0  0  0
  8  4  1  0  0  0  0
  9  5  1  0  0  0  0
  9 18  1  1  0  0  0
 10 13  1  0  0  0  0
 10 14  1  0  0  0  0
 11  3  1  0  0  0  0
 12 11  1  0  0  0  0
 13 12  1  0  0  0  0
 14 17  1  1  0  0  0
 14 11  1  0  0  0  0
 17 16  2  0  0  0  0
 17 15  1  0  0  0  0
 18 19  2  0  0  0  0
 19 20  1  0  0  0  0
 21 22  1  0  0  0  0
 22 20  1  0  0  0  0
 22 23  2  0  0  0  0
 24 29  1  0  0  0  0
 25 28  1  0  0  0  0
 26 31  1  0  0  0  0
 27 26  1  0  0  0  0
 27 30  1  0  0  0  0
 29 27  2  0  0  0  0
 30 25  1  0  0  0  0
 31 28  1  0  0  0  0
M  END
>  <MODEL>
1

>  <REMARK>
 VINA RESULT:      -7.8      0.000      0.000
  Name = 
  7 active torsions:
  status: ('A' for Active; 'I' for Inactive)
    1  A    between atoms: C_3  and  C_29
    2  A    between atoms: N_5  and  C_13
    3  A    between atoms: C_11  and  C_21
    4  A    between atoms: C_16  and  N_17
    5  A    between atoms: N_17  and  C_18
    6  A    between atoms: C_21  and  C_24
    7  A    between atoms: C_30  and  C_31
                            x       y       z     vdW  Elec       q    Type
                         _______ _______ _______ _____ _____    ______ ____

>  <TORSDO>
F 7

$$$$
=
 OpenBabel10222415293D

 31 33  0  0  1  0  0  0  0  0999 V2000
  188.0180  178.1670  140.4660 C   0  0  0  0  0  0  0  0  0  0  0  0
  190.7830  176.9190  140.6050 C   0  0  0  0  0  3  0  0  0  0  0  0
  189.0510  176.6370  138.7780 C   0  0  0  0  0  0  0  0  0  0  0  0
  188.2340  177.8230  139.1840 C   0  0  0  0  0  0  0  0  0  0  0  0
  190.0720  177.4570  141.6020 C   0  0  0  0  0  0  0  0  0  0  0  0
  190.2030  176.3040  139.3940 C   0  0  0  0  0  3  0  0  0  0  0  0
  187.2940  179.3210  140.7600 O   0  0  0  0  0  1  0  0  0  0  0  0
  187.6530  178.6740  138.1000 C   0  0  0  0  0  1  0  0  0  0  0  0
  188.5760  177.3380  141.5860 C   0  0  1  0  0  3  0  0  0  0  0  0
  188.7540  174.4330  135.7340 C   0  0  0  0  0  2  0  0  0  0  0  0
  188.6570  175.8840  137.6130 N   0  0  0  0  0  0  0  0  0  0  0  0
  187.2910  175.4450  137.3980 C   0  0  0  0  0  2  0  0  0  0  0  0
  187.3550  174.3730  136.3260 C   0  0  0  0  0  2  0  0  0  0  0  0
  189.5930  175.2650  136.6860 C   0  0  2  0  0  3  0  0  0  0  0  0
  189.6520  177.3540  135.2730 N   0  0  0  0  0  1  0  0  0  0  0  0
  191.6130  176.2590  135.8590 O   0  0  0  0  0  0  0  0  0  0  0  0
  190.3550  176.3030  135.9220 C   0  0  0  0  0  0  0  0  0  0  0  0
  187.9480  177.6410  142.9170 C   0  0  0  0  0  3  0  0  0  0  0  0
  186.6310  177.5520  143.0820 C   0  0  0  0  0  3  0  0  0  0  0  0
  186.0250  177.8580  144.4090 C   0  0  0  0  0  2  0  0  0  0  0  0
  183.9530  179.0100  145.2660 N   0  0  0  0  0  1  0  0  0  0  0  0
  184.9350  178.8580  144.2490 C   0  0  0  0  0  0  0  0  0  0  0  0
  184.8970  179.5900  143.2250 O   0  0  0  0  0  0  0  0  0  0  0  0
  190.7370  178.0680  142.7200 N   0  0  0  0  0  2  0  0  0  0  0  0
  190.9450  176.1930  147.2030 N   0  0  0  0  0  2  0  0  0  0  0  0
  189.7100  177.9480  145.4130 N   0  0  0  0  0  2  0  0  0  0  0  0
  190.9470  177.3270  145.0390 C   0  0  0  0  0  0  0  0  0  0  0  0
  190.1840  177.3230  147.7330 C   0  0  0  0  0  2  0  0  0  0  0  0
  191.4030  177.3750  143.7860 C   0  0  0  0  0  3  0  0  0  0  0  0
  191.7790  176.6610  146.0950 C   0  0  0  0  0  2  0  0  0  0  0  0
  189.1110  177.7210  146.7240 C   0  0  0  0  0  2  0  0  0  0  0  0
  1  7  1  0  0  0  0
  1  9  1  0  0  0  0
  2  5  2  0  0  0  0
  3  4  1  0  0  0  0
  3  6  2  0  0  0  0
  4  1  2  0  0  0  0
  5 24  1  0  0  0  0
  6  2  1  0  0  0  0
  8  4  1  0  0  0  0
  9  5  1  0  0  0  0
  9 18  1  1  0  0  0
 10 13  1  0  0  0  0
 10 14  1  0  0  0  0
 11  3  1  0  0  0  0
 12 11  1  0  0  0  0
 13 12  1  0  0  0  0
 14 17  1  6  0  0  0
 14 11  1  0  0  0  0
 15 17  1  0  0  0  0
 16 17  2  0  0  0  0
 18 19  2  0  0  0  0
 19 20  1  0  0  0  0
 22 20  1  0  0  0  0
 22 21  1  0  0  0  0
 23 22  2  0  0  0  0
 24 29  1  0  0  0  0
 25 28  1  0  0  0  0
 26 31  1  0  0  0  0
 27 26  1  0  0  0  0
 27 30  1  0  0  0  0
 29 27  2  0  0  0  0
 30 25  1  0  0  0  0
 31 28  1  0  0  0  0
M  END
>  <MODEL>
2

>  <REMARK>
 VINA RESULT:      -7.5      1.552      2.162
  Name = 
  7 active torsions:
  status: ('A' for Active; 'I' for Inactive)
    1  A    between atoms: C_3  and  C_29
    2  A    between atoms: N_5  and  C_13
    3  A    between atoms: C_11  and  C_21
    4  A    between atoms: C_16  and  N_17
    5  A    between atoms: N_17  and  C_18
    6  A    between atoms: C_21  and  C_24
    7  A    between atoms: C_30  and  C_31
                            x       y       z     vdW  Elec       q    Type
                         _______ _______ _______ _____ _____    ______ ____

>  <TORSDO>
F 7

$$$$
=
 OpenBabel10222415293D

 31 33  0  0  1  0  0  0  0  0999 V2000
  183.1710  179.2130  138.7040 C   0  0  0  0  0  0  0  0  0  0  0  0
  185.1270  177.3840  137.2720 C   0  0  0  0  0  3  0  0  0  0  0  0
  182.6000  177.3840  137.0960 C   0  0  0  0  0  0  0  0  0  0  0  0
  182.4250  178.7470  137.6870 C   0  0  0  0  0  0  0  0  0  0  0  0
  185.3460  178.1320  138.3590 C   0  0  0  0  0  0  0  0  0  0  0  0
  183.8130  176.8390  136.8740 C   0  0  0  0  0  3  0  0  0  0  0  0
  182.9860  180.5180  139.1590 O   0  0  0  0  0  1  0  0  0  0  0  0
  181.3800  179.6370  137.0920 C   0  0  0  0  0  1  0  0  0  0  0  0
  184.2280  178.3530  139.3360 C   0  0  1  0  0  3  0  0  0  0  0  0
  179.2470  175.7440  136.5700 C   0  0  0  0  0  2  0  0  0  0  0  0
  181.4350  176.6670  136.6400 N   0  0  0  0  0  0  0  0  0  0  0  0
  181.1540  176.4590  135.2320 C   0  0  0  0  0  2  0  0  0  0  0  0
  179.6950  176.0500  135.1490 C   0  0  0  0  0  2  0  0  0  0  0  0
  180.3090  176.3140  137.4920 C   0  0  2  0  0  3  0  0  0  0  0  0
  181.1100  175.7080  139.8070 N   0  0  0  0  0  1  0  0  0  0  0  0
  180.6760  174.0620  138.2280 O   0  0  0  0  0  0  0  0  0  0  0  0
  180.7060  175.2900  138.5090 C   0  0  0  0  0  0  0  0  0  0  0  0
  184.7010  178.8750  140.6630 C   0  0  0  0  0  3  0  0  0  0  0  0
  184.2020  178.3950  141.7990 C   0  0  0  0  0  3  0  0  0  0  0  0
  184.6820  178.9250  143.1060 C   0  0  0  0  0  2  0  0  0  0  0  0
  183.7990  179.0470  145.4650 N   0  0  0  0  0  1  0  0  0  0  0  0
  183.5470  179.0090  144.0650 C   0  0  0  0  0  0  0  0  0  0  0  0
  182.3650  179.0750  143.6380 O   0  0  0  0  0  0  0  0  0  0  0  0
  186.6590  178.6460  138.6340 N   0  0  0  0  0  2  0  0  0  0  0  0
  190.2970  176.4240  140.9750 N   0  0  0  0  0  2  0  0  0  0  0  0
  188.2230  178.2960  141.0330 N   0  0  0  0  0  2  0  0  0  0  0  0
  188.6130  177.7270  139.7770 C   0  0  0  0  0  0  0  0  0  0  0  0
  190.3400  177.4960  141.9680 C   0  0  0  0  0  2  0  0  0  0  0  0
  187.8720  177.8820  138.6770 C   0  0  0  0  0  3  0  0  0  0  0  0
  189.9170  176.9920  139.6810 C   0  0  0  0  0  2  0  0  0  0  0  0
  188.9170  177.9560  142.2700 C   0  0  0  0  0  2  0  0  0  0  0  0
  1  7  1  0  0  0  0
  1  9  1  0  0  0  0
  2  5  2  0  0  0  0
  3  4  1  0  0  0  0
  4  1  2  0  0  0  0
  5 24  1  0  0  0  0
  5  9  1  0  0  0  0
  6  3  2  0  0  0  0
  6  2  1  0  0  0  0
  8  4  1  0  0  0  0
  9 18  1  1  0  0  0
 10 14  1  0  0  0  0
 11  3  1  0  0  0  0
 11 14  1  0  0  0  0
 12 11  1  0  0  0  0
 13 12  1  0  0  0  0
 13 10  1  0  0  0  0
 14 17  1  1  0  0  0
 16 17  2  0  0  0  0
 17 15  1  0  0  0  0
 18 19  2  0  0  0  0
 19 20  1  0  0  0  0
 20 22  1  0  0  0  0
 22 21  1  0  0  0  0
 23 22  2  0  0  0  0
 24 29  1  0  0  0  0
 25 28  1  0  0  0  0
 26 31  1  0  0  0  0
 27 26  1  0  0  0  0
 28 31  1  0  0  0  0
 29 27  2  0  0  0  0
 30 27  1  0  0  0  0
 30 25  1  0  0  0  0
M  END
>  <MODEL>
3

>  <REMARK>
 VINA RESULT:      -7.4      5.210      7.182
  Name = 
  7 active torsions:
  status: ('A' for Active; 'I' for Inactive)
    1  A    between atoms: C_3  and  C_29
    2  A    between atoms: N_5  and  C_13
    3  A    between atoms: C_11  and  C_21
    4  A    between atoms: C_16  and  N_17
    5  A    between atoms: N_17  and  C_18
    6  A    between atoms: C_21  and  C_24
    7  A    between atoms: C_30  and  C_31
                            x       y       z     vdW  Elec       q    Type
                         _______ _______ _______ _____ _____    ______ ____

>  <TORSDO>
F 7

$$$$
=
 OpenBabel10222415293D

 31 33  0  0  1  0  0  0  0  0999 V2000
  181.3800  178.8560  141.2450 C   0  0  0  0  0  0  0  0  0  0  0  0
  183.7500  177.6160  139.8050 C   0  0  0  0  0  3  0  0  0  0  0  0
  181.3300  176.8720  139.7210 C   0  0  0  0  0  0  0  0  0  0  0  0
  180.7780  178.1490  140.2710 C   0  0  0  0  0  0  0  0  0  0  0  0
  183.7670  178.4410  140.8580 C   0  0  0  0  0  0  0  0  0  0  0  0
  182.6440  176.6950  139.4740 C   0  0  0  0  0  3  0  0  0  0  0  0
  180.8320  180.0680  141.6610 O   0  0  0  0  0  1  0  0  0  0  0  0
  179.5040  178.6690  139.6850 C   0  0  0  0  0  1  0  0  0  0  0  0
  182.6570  178.3680  141.8670 C   0  0  1  0  0  3  0  0  0  0  0  0
  179.4520  174.0080  138.1450 C   0  0  0  0  0  2  0  0  0  0  0  0
  180.4150  175.8270  139.3320 N   0  0  0  0  0  0  0  0  0  0  0  0
  179.5270  175.1810  140.2790 C   0  0  0  0  0  2  0  0  0  0  0  0
  179.0470  173.9080  139.6070 C   0  0  0  0  0  2  0  0  0  0  0  0
  180.4630  175.1370  138.0510 C   0  0  2  0  0  3  0  0  0  0  0  0
  181.0660  176.3920  135.9480 N   0  0  0  0  0  1  0  0  0  0  0  0
  178.9310  176.5340  136.8480 O   0  0  0  0  0  0  0  0  0  0  0  0
  180.0950  176.0600  136.9320 C   0  0  0  0  0  0  0  0  0  0  0  0
  182.9900  179.0620  143.1570 C   0  0  0  0  0  3  0  0  0  0  0  0
  183.4490  178.3740  144.1990 C   0  0  0  0  0  3  0  0  0  0  0  0
  183.7720  179.0780  145.4720 C   0  0  0  0  0  2  0  0  0  0  0  0
  185.6800  179.2750  147.1080 N   0  0  0  0  0  1  0  0  0  0  0  0
  185.1710  178.7750  145.8780 C   0  0  0  0  0  0  0  0  0  0  0  0
  185.8960  178.0500  145.1470 O   0  0  0  0  0  0  0  0  0  0  0  0
  184.8780  179.3270  141.0680 N   0  0  0  0  0  2  0  0  0  0  0  0
  189.6110  178.2120  140.9710 N   0  0  0  0  0  2  0  0  0  0  0  0
  187.1830  178.4040  139.6000 N   0  0  0  0  0  2  0  0  0  0  0  0
  187.1910  178.5400  141.0270 C   0  0  0  0  0  0  0  0  0  0  0  0
  189.4210  177.4210  139.7580 C   0  0  0  0  0  2  0  0  0  0  0  0
  186.1230  178.9840  141.6940 C   0  0  0  0  0  3  0  0  0  0  0  0
  188.4060  178.1140  141.7960 C   0  0  0  0  0  2  0  0  0  0  0  0
  188.4060  178.1200  138.8580 C   0  0  0  0  0  2  0  0  0  0  0  0
  1  7  1  0  0  0  0
  1  9  1  0  0  0  0
  2  5  2  0  0  0  0
  3  4  1  0  0  0  0
  4  1  2  0  0  0  0
  5 24  1  0  0  0  0
  5  9  1  0  0  0  0
  6  3  2  0  0  0  0
  6  2  1  0  0  0  0
  8  4  1  0  0  0  0
  9 18  1  1  0  0  0
 10 13  1  0  0  0  0
 11  3  1  0  0  0  0
 11 12  1  0  0  0  0
 13 12  1  0  0  0  0
 14 17  1  6  0  0  0
 14 10  1  0  0  0  0
 14 11  1  0  0  0  0
 15 17  1  0  0  0  0
 16 17  2  0  0  0  0
 18 19  2  0  0  0  0
 19 20  1  0  0  0  0
 20 22  1  0  0  0  0
 22 21  1  0  0  0  0
 23 22  2  0  0  0  0
 24 29  1  0  0  0  0
 25 30  1  0  0  0  0
 26 27  1  0  0  0  0
 27 29  2  0  0  0  0
 27 30  1  0  0  0  0
 28 25  1  0  0  0  0
 31 26  1  0  0  0  0
 31 28  1  0  0  0  0
M  END
>  <MODEL>
4

>  <REMARK>
 VINA RESULT:      -7.3      5.056      8.194
  Name = 
  7 active torsions:
  status: ('A' for Active; 'I' for Inactive)
    1  A    between atoms: C_3  and  C_29
    2  A    between atoms: N_5  and  C_13
    3  A    between atoms: C_11  and  C_21
    4  A    between atoms: C_16  and  N_17
    5  A    between atoms: N_17  and  C_18
    6  A    between atoms: C_21  and  C_24
    7  A    between atoms: C_30  and  C_31
                            x       y       z     vdW  Elec       q    Type
                         _______ _______ _______ _____ _____    ______ ____

>  <TORSDO>
F 7

$$$$
=
 OpenBabel10222415293D

 31 33  0  0  1  0  0  0  0  0999 V2000
  189.2240  178.4710  142.6670 C   0  0  0  0  0  0  0  0  0  0  0  0
  186.8560  177.5430  144.3260 C   0  0  0  0  0  3  0  0  0  0  0  0
  189.3090  177.4530  144.9510 C   0  0  0  0  0  0  0  0  0  0  0  0
  189.7490  178.4280  143.9050 C   0  0  0  0  0  0  0  0  0  0  0  0
  186.8970  177.7780  143.0100 C   0  0  0  0  0  0  0  0  0  0  0  0
  188.0140  177.1320  145.1450 C   0  0  0  0  0  3  0  0  0  0  0  0
  189.6480  179.4490  141.7690 O   0  0  0  0  0  1  0  0  0  0  0  0
  190.8110  179.4150  144.2740 C   0  0  0  0  0  1  0  0  0  0  0  0
  188.1610  177.4950  142.2520 C   0  0  1  0  0  3  0  0  0  0  0  0
  191.2560  175.8140  147.7320 C   0  0  0  0  0  2  0  0  0  0  0  0
  190.2890  176.9190  145.8640 N   0  0  0  0  0  0  0  0  0  0  0  0
  191.6250  176.5480  145.4380 C   0  0  0  0  0  2  0  0  0  0  0  0
  192.1930  175.6760  146.5430 C   0  0  0  0  0  2  0  0  0  0  0  0
  189.9830  176.4550  147.2090 C   0  0  2  0  0  3  0  0  0  0  0  0
  188.2320  177.7220  148.5110 N   0  0  0  0  0  1  0  0  0  0  0  0
  190.4410  178.4370  148.4770 O   0  0  0  0  0  0  0  0  0  0  0  0
  189.5860  177.5960  148.0930 C   0  0  0  0  0  0  0  0  0  0  0  0
  187.9550  177.4410  140.7650 C   0  0  0  0  0  3  0  0  0  0  0  0
  188.9560  177.1110  139.9520 C   0  0  0  0  0  3  0  0  0  0  0  0
  188.7340  177.0650  138.4790 C   0  0  0  0  0  2  0  0  0  0  0  0
  186.9180  178.5540  137.5650 N   0  0  0  0  0  1  0  0  0  0  0  0
  188.2630  178.3910  137.9960 C   0  0  0  0  0  0  0  0  0  0  0  0
  189.0460  179.3760  137.9970 O   0  0  0  0  0  0  0  0  0  0  0  0
  185.7180  178.2130  142.3130 N   0  0  0  0  0  2  0  0  0  0  0  0
  180.8770  178.6240  142.0900 N   0  0  0  0  0  2  0  0  0  0  0  0
  183.3310  178.6490  140.7530 N   0  0  0  0  0  2  0  0  0  0  0  0
  183.3180  178.6530  142.1860 C   0  0  0  0  0  0  0  0  0  0  0  0
  180.9740  179.3120  140.8050 C   0  0  0  0  0  2  0  0  0  0  0  0
  184.4260  178.4340  142.8970 C   0  0  0  0  0  3  0  0  0  0  0  0
  182.0410  178.9750  142.9050 C   0  0  0  0  0  2  0  0  0  0  0  0
  182.0930  178.6810  139.9820 C   0  0  0  0  0  2  0  0  0  0  0  0
  1  4  2  0  0  0  0
  2  6  1  0  0  0  0
  3  6  2  0  0  0  0
  3 11  1  0  0  0  0
  4  8  1  0  0  0  0
  4  3  1  0  0  0  0
  5  2  2  0  0  0  0
  7  1  1  0  0  0  0
  9 18  1  6  0  0  0
  9  1  1  0  0  0  0
  9  5  1  0  0  0  0
 11 14  1  0  0  0  0
 12 11  1  0  0  0  0
 12 13  1  0  0  0  0
 13 10  1  0  0  0  0
 14 10  1  0  0  0  0
 14 17  1  1  0  0  0
 17 16  2  0  0  0  0
 17 15  1  0  0  0  0
 19 18  2  0  0  0  0
 20 19  1  0  0  0  0
 21 22  1  0  0  0  0
 22 23  2  0  0  0  0
 22 20  1  0  0  0  0
 24 29  1  0  0  0  0
 24  5  1  0  0  0  0
 25 30  1  0  0  0  0
 26 27  1  0  0  0  0
 27 29  2  0  0  0  0
 27 30  1  0  0  0  0
 28 25  1  0  0  0  0
 31 26  1  0  0  0  0
 31 28  1  0  0  0  0
M  END
>  <MODEL>
5

>  <REMARK>
 VINA RESULT:      -7.0      2.870      8.172
  Name = 
  7 active torsions:
  status: ('A' for Active; 'I' for Inactive)
    1  A    between atoms: C_3  and  C_29
    2  A    between atoms: N_5  and  C_13
    3  A    between atoms: C_11  and  C_21
    4  A    between atoms: C_16  and  N_17
    5  A    between atoms: N_17  and  C_18
    6  A    between atoms: C_21  and  C_24
    7  A    between atoms: C_30  and  C_31
                            x       y       z     vdW  Elec       q    Type
                         _______ _______ _______ _____ _____    ______ ____

>  <TORSDO>
F 7

$$$$
=
 OpenBabel10222415293D

 31 33  0  0  1  0  0  0  0  0999 V2000
  182.9050  179.0430  142.6220 C   0  0  0  0  0  0  0  0  0  0  0  0
  184.3860  178.3390  140.0660 C   0  0  0  0  0  3  0  0  0  0  0  0
  181.9590  177.8730  140.6230 C   0  0  0  0  0  0  0  0  0  0  0  0
  181.8940  178.8460  141.7580 C   0  0  0  0  0  0  0  0  0  0  0  0
  184.9060  178.6530  141.2580 C   0  0  0  0  0  0  0  0  0  0  0  0
  183.0610  177.7190  139.8620 C   0  0  0  0  0  3  0  0  0  0  0  0
  182.7870  180.0130  143.6170 O   0  0  0  0  0  1  0  0  0  0  0  0
  180.6430  179.6520  141.9140 C   0  0  0  0  0  1  0  0  0  0  0  0
  184.1760  178.2520  142.5070 C   0  0  1  0  0  3  0  0  0  0  0  0
  179.1370  176.0180  138.9460 C   0  0  0  0  0  2  0  0  0  0  0  0
  180.7670  177.1500  140.2540 N   0  0  0  0  0  0  0  0  0  0  0  0
  180.0610  176.2900  141.1850 C   0  0  0  0  0  2  0  0  0  0  0  0
  179.1460  175.4190  140.3440 C   0  0  0  0  0  2  0  0  0  0  0  0
  180.3020  176.9900  138.8840 C   0  0  2  0  0  3  0  0  0  0  0  0
  180.4410  178.7920  137.1240 N   0  0  0  0  0  1  0  0  0  0  0  0
  178.9330  178.9580  138.8810 O   0  0  0  0  0  0  0  0  0  0  0  0
  179.8460  178.2980  138.3170 C   0  0  0  0  0  0  0  0  0  0  0  0
  185.0340  178.3260  143.7380 C   0  0  0  0  0  3  0  0  0  0  0  0
  185.9710  177.4120  143.9690 C   0  0  0  0  0  3  0  0  0  0  0  0
  186.8120  177.5000  145.1960 C   0  0  0  0  0  2  0  0  0  0  0  0
  189.2830  177.7290  145.6370 N   0  0  0  0  0  1  0  0  0  0  0  0
  188.2250  177.1720  144.8670 C   0  0  0  0  0  0  0  0  0  0  0  0
  188.4850  176.3790  143.9240 O   0  0  0  0  0  0  0  0  0  0  0  0
  186.1900  179.2910  141.3440 N   0  0  0  0  0  2  0  0  0  0  0  0
  190.3540  177.7290  139.3750 N   0  0  0  0  0  2  0  0  0  0  0  0
  187.7340  178.6270  139.0000 N   0  0  0  0  0  2  0  0  0  0  0  0
  188.1750  178.2980  140.3230 C   0  0  0  0  0  0  0  0  0  0  0  0
  189.6640  177.3940  138.1310 C   0  0  0  0  0  2  0  0  0  0  0  0
  187.4600  178.6250  141.4010 C   0  0  0  0  0  3  0  0  0  0  0  0
  189.4410  177.5110  140.4970 C   0  0  0  0  0  2  0  0  0  0  0  0
  188.6070  178.4560  137.8430 C   0  0  0  0  0  2  0  0  0  0  0  0
  1  7  1  0  0  0  0
  2  5  2  0  0  0  0
  3  4  1  0  0  0  0
  4  8  1  0  0  0  0
  4  1  2  0  0  0  0
  5 24  1  0  0  0  0
  5  9  1  0  0  0  0
  6  2  1  0  0  0  0
  6  3  2  0  0  0  0
  9  1  1  0  0  0  0
  9 18  1  1  0  0  0
 10 13  1  0  0  0  0
 11  3  1  0  0  0  0
 11 12  1  0  0  0  0
 13 12  1  0  0  0  0
 14 17  1  1  0  0  0
 14 10  1  0  0  0  0
 14 11  1  0  0  0  0
 15 17  1  0  0  0  0
 17 16  2  0  0  0  0
 18 19  2  0  0  0  0
 19 20  1  0  0  0  0
 22 20  1  0  0  0  0
 22 21  1  0  0  0  0
 23 22  2  0  0  0  0
 24 29  1  0  0  0  0
 25 30  1  0  0  0  0
 26 27  1  0  0  0  0
 27 30  1  0  0  0  0
 27 29  2  0  0  0  0
 28 25  1  0  0  0  0
 31 28  1  0  0  0  0
 31 26  1  0  0  0  0
M  END
>  <MODEL>
6

>  <REMARK>
 VINA RESULT:      -7.0      4.151      8.206
  Name = 
  7 active torsions:
  status: ('A' for Active; 'I' for Inactive)
    1  A    between atoms: C_3  and  C_29
    2  A    between atoms: N_5  and  C_13
    3  A    between atoms: C_11  and  C_21
    4  A    between atoms: C_16  and  N_17
    5  A    between atoms: N_17  and  C_18
    6  A    between atoms: C_21  and  C_24
    7  A    between atoms: C_30  and  C_31
                            x       y       z     vdW  Elec       q    Type
                         _______ _______ _______ _____ _____    ______ ____

>  <TORSDO>
F 7

$$$$
=
 OpenBabel10222415293D

 31 33  0  0  1  0  0  0  0  0999 V2000
  183.5970  178.7090  143.2260 C   0  0  0  0  0  0  0  0  0  0  0  0
  184.6270  178.9230  140.3770 C   0  0  0  0  0  3  0  0  0  0  0  0
  182.2410  178.5300  141.1300 C   0  0  0  0  0  0  0  0  0  0  0  0
  182.4710  178.9760  142.5400 C   0  0  0  0  0  0  0  0  0  0  0  0
  185.3300  178.6840  141.4900 C   0  0  0  0  0  0  0  0  0  0  0  0
  183.2040  178.5770  140.1880 C   0  0  0  0  0  3  0  0  0  0  0  0
  183.7580  179.2110  144.5160 O   0  0  0  0  0  1  0  0  0  0  0  0
  181.3960  179.7790  143.2010 C   0  0  0  0  0  1  0  0  0  0  0  0
  184.6980  177.9000  142.6030 C   0  0  1  0  0  3  0  0  0  0  0  0
  178.9310  177.9020  139.4380 C   0  0  0  0  0  2  0  0  0  0  0  0
  180.9120  178.1410  140.7300 N   0  0  0  0  0  0  0  0  0  0  0  0
  180.2670  176.9450  141.2380 C   0  0  0  0  0  2  0  0  0  0  0  0
  179.1020  176.6650  140.3060 C   0  0  0  0  0  2  0  0  0  0  0  0
  180.1930  178.7280  139.6090 C   0  0  2  0  0  3  0  0  0  0  0  0
  180.4750  181.1960  139.1640 N   0  0  0  0  0  1  0  0  0  0  0  0
  178.9650  180.4380  140.7570 O   0  0  0  0  0  0  0  0  0  0  0  0
  179.8350  180.1540  139.8910 C   0  0  0  0  0  0  0  0  0  0  0  0
  185.6970  177.3910  143.6040 C   0  0  0  0  0  3  0  0  0  0  0  0
  186.0030  178.1080  144.6820 C   0  0  0  0  0  3  0  0  0  0  0  0
  186.9980  177.5880  145.6630 C   0  0  0  0  0  2  0  0  0  0  0  0
  185.6800  179.0960  147.1950 N   0  0  0  0  0  1  0  0  0  0  0  0
  186.8100  178.2600  146.9770 C   0  0  0  0  0  0  0  0  0  0  0  0
  187.6350  178.0660  147.9080 O   0  0  0  0  0  0  0  0  0  0  0  0
  186.7030  179.0990  141.5850 N   0  0  0  0  0  2  0  0  0  0  0  0
  190.8890  176.6430  141.2680 N   0  0  0  0  0  2  0  0  0  0  0  0
  189.0780  178.0630  142.8530 N   0  0  0  0  0  2  0  0  0  0  0  0
  188.9150  178.0750  141.4290 C   0  0  0  0  0  0  0  0  0  0  0  0
  191.3610  177.2480  142.5110 C   0  0  0  0  0  2  0  0  0  0  0  0
  187.8040  178.5410  140.8550 C   0  0  0  0  0  3  0  0  0  0  0  0
  190.0460  177.6090  140.5610 C   0  0  0  0  0  2  0  0  0  0  0  0
  190.1940  177.3680  143.4860 C   0  0  0  0  0  2  0  0  0  0  0  0
  1  7  1  0  0  0  0
  2  5  2  0  0  0  0
  3  4  1  0  0  0  0
  4  8  1  0  0  0  0
  4  1  2  0  0  0  0
  5 24  1  0  0  0  0
  5  9  1  0  0  0  0
  6  2  1  0  0  0  0
  6  3  2  0  0  0  0
  9  1  1  0  0  0  0
  9 18  1  1  0  0  0
 10 14  1  0  0  0  0
 10 13  1  0  0  0  0
 11  3  1  0  0  0  0
 11 12  1  0  0  0  0
 13 12  1  0  0  0  0
 14 17  1  1  0  0  0
 14 11  1  0  0  0  0
 15 17  1  0  0  0  0
 17 16  2  0  0  0  0
 18 19  2  0  0  0  0
 19 20  1  0  0  0  0
 20 22  1  0  0  0  0
 22 21  1  0  0  0  0
 22 23  2  0  0  0  0
 25 28  1  0  0  0  0
 26 31  1  0  0  0  0
 27 26  1  0  0  0  0
 28 31  1  0  0  0  0
 29 27  2  0  0  0  0
 29 24  1  0  0  0  0
 30 25  1  0  0  0  0
 30 27  1  0  0  0  0
M  END
>  <MODEL>
7

>  <REMARK>
 VINA RESULT:      -6.9      3.868      7.962
  Name = 
  7 active torsions:
  status: ('A' for Active; 'I' for Inactive)
    1  A    between atoms: C_3  and  C_29
    2  A    between atoms: N_5  and  C_13
    3  A    between atoms: C_11  and  C_21
    4  A    between atoms: C_16  and  N_17
    5  A    between atoms: N_17  and  C_18
    6  A    between atoms: C_21  and  C_24
    7  A    between atoms: C_30  and  C_31
                            x       y       z     vdW  Elec       q    Type
                         _______ _______ _______ _____ _____    ______ ____

>  <TORSDO>
F 7

$$$$
=
 OpenBabel10222415293D

 31 33  0  0  1  0  0  0  0  0999 V2000
  184.4000  178.2840  140.9510 C   0  0  0  0  0  0  0  0  0  0  0  0
  183.8380  178.5060  143.9270 C   0  0  0  0  0  3  0  0  0  0  0  0
  182.2660  179.0440  142.0150 C   0  0  0  0  0  0  0  0  0  0  0  0
  183.0550  178.3020  140.9810 C   0  0  0  0  0  0  0  0  0  0  0  0
  185.0260  178.4290  143.3180 C   0  0  0  0  0  0  0  0  0  0  0  0
  182.6130  179.0610  143.3170 C   0  0  0  0  0  3  0  0  0  0  0  0
  185.0600  177.5200  139.9900 O   0  0  0  0  0  1  0  0  0  0  0  0
  182.2990  177.5280  139.9490 C   0  0  0  0  0  1  0  0  0  0  0  0
  185.1990  179.0520  141.9630 C   0  0  1  0  0  3  0  0  0  0  0  0
  178.9310  180.7820  141.7640 C   0  0  0  0  0  2  0  0  0  0  0  0
  181.0260  179.6700  141.6290 N   0  0  0  0  0  0  0  0  0  0  0  0
  180.8460  180.3020  140.3360 C   0  0  0  0  0  2  0  0  0  0  0  0
  179.6100  181.1730  140.4610 C   0  0  0  0  0  2  0  0  0  0  0  0
  179.9420  179.9690  142.5520 C   0  0  2  0  0  3  0  0  0  0  0  0
  178.9590  178.6010  144.4310 N   0  0  0  0  0  1  0  0  0  0  0  0
  179.0620  177.7570  142.2710 O   0  0  0  0  0  0  0  0  0  0  0  0
  179.3050  178.7120  143.0560 C   0  0  0  0  0  0  0  0  0  0  0  0
  186.6400  179.2220  141.5740 C   0  0  0  0  0  3  0  0  0  0  0  0
  187.4160  178.1630  141.3610 C   0  0  0  0  0  3  0  0  0  0  0  0
  188.8440  178.3500  140.9770 C   0  0  0  0  0  2  0  0  0  0  0  0
  189.7900  176.9040  139.1410 N   0  0  0  0  0  1  0  0  0  0  0  0
  189.0250  178.0380  139.5340 C   0  0  0  0  0  0  0  0  0  0  0  0
  188.4770  178.7590  138.6600 O   0  0  0  0  0  0  0  0  0  0  0  0
  186.1490  177.8330  143.9880 N   0  0  0  0  0  0  0  0  0  0  0  0
  189.0750  177.8990  147.8720 N   0  0  0  0  0  2  0  0  0  0  0  0
  188.7530  177.3830  145.1450 N   0  0  0  0  0  0  0  0  0  0  0  0
  187.5930  177.6320  145.9490 C   0  0  0  0  0  0  0  0  0  0  0  0
  190.0080  176.9900  147.2110 C   0  0  0  0  0  2  0  0  0  0  0  0
  186.3960  177.8550  145.4020 C   0  0  0  0  0  3  0  0  0  0  0  0
  187.7140  177.5780  147.4430 C   0  0  0  0  0  2  0  0  0  0  0  0
  190.0890  177.3460  145.7290 C   0  0  0  0  0  2  0  0  0  0  0  0
  1  4  2  0  0  0  0
  1  9  1  0  0  0  0
  3  6  2  0  0  0  0
  4  3  1  0  0  0  0
  5  2  2  0  0  0  0
  5 24  1  0  0  0  0
  6  2  1  0  0  0  0
  7  1  1  0  0  0  0
  8  4  1  0  0  0  0
  9 18  1  6  0  0  0
  9  5  1  0  0  0  0
 10 14  1  0  0  0  0
 11  3  1  0  0  0  0
 11 14  1  0  0  0  0
 12 13  1  0  0  0  0
 12 11  1  0  0  0  0
 13 10  1  0  0  0  0
 14 17  1  6  0  0  0
 16 17  2  0  0  0  0
 17 15  1  0  0  0  0
 19 18  2  0  0  0  0
 20 19  1  0  0  0  0
 21 22  1  0  0  0  0
 22 20  1  0  0  0  0
 23 22  2  0  0  0  0
 24 29  2  0  0  0  0
 26 31  1  0  0  0  0
 26 27  2  0  0  0  0
 27 30  1  0  0  0  0
 28 25  1  0  0  0  0
 29 27  1  0  0  0  0
 30 25  1  0  0  0  0
 31 28  1  0  0  0  0
M  END
>  <MODEL>
8

>  <REMARK>
 VINA RESULT:      -6.9      3.566      8.083
  Name = 
  7 active torsions:
  status: ('A' for Active; 'I' for Inactive)
    1  A    between atoms: C_3  and  C_29
    2  A    between atoms: N_5  and  C_13
    3  A    between atoms: C_11  and  C_21
    4  A    between atoms: C_16  and  N_17
    5  A    between atoms: N_17  and  C_18
    6  A    between atoms: C_21  and  C_24
    7  A    between atoms: C_30  and  C_31
                            x       y       z     vdW  Elec       q    Type
                         _______ _______ _______ _____ _____    ______ ____

>  <TORSDO>
F 7

$$$$
=
 OpenBabel10222415293D

 31 33  0  0  1  0  0  0  0  0999 V2000
  185.2870  178.6040  143.8690 C   0  0  0  0  0  0  0  0  0  0  0  0
  185.8500  178.8490  140.8940 C   0  0  0  0  0  3  0  0  0  0  0  0
  183.5910  178.7310  142.0340 C   0  0  0  0  0  0  0  0  0  0  0  0
  184.1120  179.0580  143.3980 C   0  0  0  0  0  0  0  0  0  0  0  0
  186.6870  178.4530  141.8600 C   0  0  0  0  0  0  0  0  0  0  0  0
  184.3810  178.7060  140.9420 C   0  0  0  0  0  3  0  0  0  0  0  0
  185.7290  179.0030  145.1290 O   0  0  0  0  0  1  0  0  0  0  0  0
  183.2860  179.9560  144.2630 C   0  0  0  0  0  1  0  0  0  0  0  0
  186.1450  177.6950  143.0370 C   0  0  1  0  0  3  0  0  0  0  0  0
  180.0950  177.7460  141.0220 C   0  0  0  0  0  2  0  0  0  0  0  0
  182.1720  178.5460  141.8550 N   0  0  0  0  0  0  0  0  0  0  0  0
  181.2190  178.7720  142.9250 C   0  0  0  0  0  2  0  0  0  0  0  0
  179.9300  178.0980  142.4920 C   0  0  0  0  0  2  0  0  0  0  0  0
  181.5750  177.8780  140.7080 C   0  0  2  0  0  3  0  0  0  0  0  0
  181.3730  180.0520  139.4440 N   0  0  0  0  0  1  0  0  0  0  0  0
  182.2710  178.1650  138.4320 O   0  0  0  0  0  0  0  0  0  0  0  0
  181.7620  178.6840  139.4610 C   0  0  0  0  0  0  0  0  0  0  0  0
  187.2140  176.9990  143.8310 C   0  0  0  0  0  3  0  0  0  0  0  0
  188.0150  177.6880  144.6400 C   0  0  0  0  0  3  0  0  0  0  0  0
  189.0720  176.9820  145.4180 C   0  0  0  0  0  2  0  0  0  0  0  0
  191.5890  176.9300  145.5420 N   0  0  0  0  0  1  0  0  0  0  0  0
  190.3980  177.5980  145.1450 C   0  0  0  0  0  0  0  0  0  0  0  0
  190.4690  178.6980  144.5370 O   0  0  0  0  0  0  0  0  0  0  0  0
  188.1010  178.6750  141.7320 N   0  0  0  0  0  2  0  0  0  0  0  0
  190.8040  177.1750  137.9780 N   0  0  0  0  0  2  0  0  0  0  0  0
  188.6370  178.6810  138.8980 N   0  0  0  0  0  2  0  0  0  0  0  0
  189.2840  177.7700  139.7960 C   0  0  0  0  0  0  0  0  0  0  0  0
  189.7320  177.5130  137.0440 C   0  0  0  0  0  2  0  0  0  0  0  0
  189.0400  177.7890  141.1080 C   0  0  0  0  0  3  0  0  0  0  0  0
  190.2110  176.7300  139.2400 C   0  0  0  0  0  2  0  0  0  0  0  0
  189.0550  178.8000  137.5050 C   0  0  0  0  0  2  0  0  0  0  0  0
  1  7  1  0  0  0  0
  2  6  1  0  0  0  0
  2  5  2  0  0  0  0
  3  4  1  0  0  0  0
  4  1  2  0  0  0  0
  4  8  1  0  0  0  0
  5  9  1  0  0  0  0
  6  3  2  0  0  0  0
  9 18  1  1  0  0  0
  9  1  1  0  0  0  0
 10 13  1  0  0  0  0
 11  3  1  0  0  0  0
 11 12  1  0  0  0  0
 13 12  1  0  0  0  0
 14 17  1  6  0  0  0
 14 10  1  0  0  0  0
 14 11  1  0  0  0  0
 15 17  1  0  0  0  0
 16 17  2  0  0  0  0
 18 19  2  0  0  0  0
 19 20  1  0  0  0  0
 22 20  1  0  0  0  0
 22 21  1  0  0  0  0
 23 22  2  0  0  0  0
 24  5  1  0  0  0  0
 25 30  1  0  0  0  0
 26 27  1  0  0  0  0
 27 29  2  0  0  0  0
 28 31  1  0  0  0  0
 28 25  1  0  0  0  0
 29 24  1  0  0  0  0
 30 27  1  0  0  0  0
 31 26  1  0  0  0  0
M  END
>  <MODEL>
9

>  <REMARK>
 VINA RESULT:      -6.9      3.038      7.955
  Name = 
  7 active torsions:
  status: ('A' for Active; 'I' for Inactive)
    1  A    between atoms: C_3  and  C_29
    2  A    between atoms: N_5  and  C_13
    3  A    between atoms: C_11  and  C_21
    4  A    between atoms: C_16  and  N_17
    5  A    between atoms: N_17  and  C_18
    6  A    between atoms: C_21  and  C_24
    7  A    between atoms: C_30  and  C_31
                            x       y       z     vdW  Elec       q    Type
                         _______ _______ _______ _____ _____    ______ ____

>  <TORSDO>
F 7

$$$$
