=
 OpenBabel10222415433D

 44 46  0  0  1  0  0  0  0  0999 V2000
  191.1120  177.0730  139.9740 C   0  0  0  0  0  0  0  0  0  0  0  0
  192.3230  177.4080  140.6030 C   0  0  0  0  0  0  0  0  0  0  0  0
  189.8740  177.5730  142.0940 N   0  0  0  0  0  0  0  0  0  0  0  0
  193.5230  176.6870  138.7140 N   0  0  0  0  0  0  0  0  0  0  0  0
  192.4410  175.7960  136.6830 C   0  0  0  0  0  1  0  0  0  0  0  0
  192.3470  177.9080  142.0110 C   0  0  0  0  0  2  0  0  0  0  0  0
  190.9880  178.4890  142.3990 C   0  0  2  0  0  3  0  0  0  0  0  0
  190.9770  178.9140  143.8590 C   0  0  0  0  0  1  0  0  0  0  0  0
  189.7800  177.2980  140.6500 C   0  0  1  0  0  3  0  0  0  0  0  0
  191.1500  176.5430  138.6840 C   0  0  0  0  0  3  0  0  0  0  0  0
  192.3790  176.3550  138.0590 C   0  0  0  0  0  0  0  0  0  0  0  0
  193.4950  177.1910  139.9490 N   0  0  0  0  0  0  0  0  0  0  0  0
  188.9800  178.3930  139.9540 C   0  0  0  0  0  2  0  0  0  0  0  0
  187.7380  177.8010  139.3050 C   0  0  0  0  0  2  0  0  0  0  0  0
  186.1270  178.4150  137.4360 C   0  0  0  0  0  2  0  0  0  0  0  0
  187.8480  176.1930  136.8830 C   0  0  0  0  0  2  0  0  0  0  0  0
  185.5640  177.1010  136.9870 C   0  0  0  0  0  0  0  0  0  0  0  0
  184.2920  176.8790  137.1450 N   0  0  0  0  0  0  0  0  0  0  0  0
  186.4680  176.1650  136.2410 C   0  0  0  0  0  2  0  0  0  0  0  0
  188.3530  177.5100  136.9260 O   0  0  0  0  0  0  0  0  0  0  0  0
  187.5960  178.2730  137.8540 C   0  0  2  0  0  3  0  0  0  0  0  0
  183.5580  175.7120  136.7420 C   0  0  0  0  0  0  0  0  0  0  0  0
  182.9930  175.6390  135.6170 O   0  0  0  0  0  0  0  0  0  0  0  0
  183.4930  174.5440  137.6670 C   0  0  0  0  0  2  0  0  0  0  0  0
  185.2260  172.8430  137.8790 N   0  0  0  0  0  1  0  0  0  0  0  0
  184.1410  173.3210  137.0370 C   0  0  1  0  0  3  0  0  0  0  0  0
  183.1030  172.2280  136.8900 C   0  0  0  0  0  1  0  0  0  0  0  0
  190.0000  176.3020  142.8080 C   0  0  0  0  0  2  0  0  0  0  0  0
  188.7430  175.9030  143.2670 O   0  0  0  0  0  0  0  0  0  0  0  0
  188.1480  177.0610  143.7760 C   0  0  1  0  0  3  0  0  0  0  0  0
  186.8500  177.3540  143.0350 C   0  0  0  0  0  2  0  0  0  0  0  0
  185.8330  177.9890  143.9770 C   0  0  0  0  0  2  0  0  0  0  0  0
  184.5730  178.4800  143.2650 C   0  0  1  0  0  3  0  0  0  0  0  0
  183.7900  179.4720  144.1070 C   0  0  0  0  0  1  0  0  0  0  0  0
  184.8760  179.0440  141.9460 C   0  0  0  0  0  0  0  0  0  0  0  0
  185.1210  179.4930  140.9060 N   0  0  0  0  0  0  0  0  0  0  0  0
  187.8840  176.8910  145.2680 C   0  0  0  0  0  2  0  0  0  0  0  0
  188.1750  178.1260  145.9850 N   0  0  0  0  0  2  0  0  0  0  0  0
  188.6030  177.7670  147.3290 C   0  0  0  0  0  2  0  0  0  0  0  0
  189.6470  176.7030  147.2780 C   0  0  0  0  0  3  0  0  0  0  0  0
  190.9040  177.0050  147.3510 N   0  0  0  0  0  0  0  0  0  0  0  0
  192.2050  175.3190  146.0040 C   0  0  0  0  0  1  0  0  0  0  0  0
  191.9270  176.0070  147.2920 C   0  0  0  0  0  0  0  0  0  0  0  0
  192.5940  175.6990  148.3160 O   0  0  0  0  0  0  0  0  0  0  0  0
  1  2  1  0  0  0  0
  1  9  1  0  0  0  0
  2  6  1  0  0  0  0
  3  7  1  0  0  0  0
  3 28  1  0  0  0  0
  4 12  1  0  0  0  0
  5 11  1  0  0  0  0
  6  7  1  0  0  0  0
  7  8  1  1  0  0  0
  9 13  1  6  0  0  0
  9  3  1  0  0  0  0
 10  1  2  0  0  0  0
 11 10  1  0  0  0  0
 11  4  2  0  0  0  0
 12  2  2  0  0  0  0
 14 13  1  0  0  0  0
 15 21  1  0  0  0  0
 16 20  1  0  0  0  0
 17 18  2  0  0  0  0
 17 15  1  0  0  0  0
 19 16  1  0  0  0  0
 19 17  1  0  0  0  0
 20 21  1  0  0  0  0
 21 14  1  1  0  0  0
 22 18  1  0  0  0  0
 22 24  1  0  0  0  0
 23 22  2  0  0  0  0
 26 27  1  1  0  0  0
 26 24  1  0  0  0  0
 26 25  1  0  0  0  0
 28 29  1  0  0  0  0
 29 30  1  0  0  0  0
 30 31  1  6  0  0  0
 30 37  1  0  0  0  0
 31 32  1  0  0  0  0
 33 32  1  0  0  0  0
 33 34  1  1  0  0  0
 35 33  1  0  0  0  0
 36 35  3  0  0  0  0
 37 38  1  0  0  0  0
 38 39  1  0  0  0  0
 40 39  1  0  0  0  0
 40 41  2  0  0  0  0
 42 43  1  0  0  0  0
 43 41  1  0  0  0  0
 43 44  2  0  0  0  0
M  END
>  <MODEL>
1

>  <REMARK>
 VINA RESULT:      -7.3      0.000      0.000
  Name = 
  18 active torsions:
  status: ('A' for Active; 'I' for Inactive)
    1  A    between atoms: C_1  and  C_4
    2  A    between atoms: C_2  and  C_44
    3  A    between atoms: C_4  and  C_18
    4  A    between atoms: C_8  and  C_27
    5  A    between atoms: C_8  and  N_28
    6  A    between atoms: N_9  and  C_42
    7  A    between atoms: C_11  and  C_29
    8  A    between atoms: C_11  and  C_43
    9  A    between atoms: C_12  and  C_18
   10  A    between atoms: C_12  and  C_19
   11  A    between atoms: C_17  and  N_22
   12  A    between atoms: C_19  and  C_25
   13  A    between atoms: C_19  and  O_36
   14  A    between atoms: C_24  and  C_29
   15  A    between atoms: C_25  and  N_30
   16  A    between atoms: C_27  and  C_32
   17  A    between atoms: N_30  and  C_44
   18  A    between atoms: O_36  and  C_42
                            x       y       z     vdW  Elec       q    Type
                         _______ _______ _______ _____ _____    ______ ____

>  <TORSDO>
F 18

$$$$
=
 OpenBabel10222415433D

 44 46  0  0  1  0  0  0  0  0999 V2000
  190.8270  177.0360  140.1560 C   0  0  0  0  0  0  0  0  0  0  0  0
  191.9780  177.4180  140.8650 C   0  0  0  0  0  0  0  0  0  0  0  0
  189.4230  177.5340  142.1700 N   0  0  0  0  0  0  0  0  0  0  0  0
  193.3340  176.7020  139.0820 N   0  0  0  0  0  0  0  0  0  0  0  0
  192.4300  175.7450  136.9960 C   0  0  0  0  0  1  0  0  0  0  0  0
  191.8850  177.9420  142.2610 C   0  0  0  0  0  2  0  0  0  0  0  0
  190.4840  178.4880  142.5390 C   0  0  2  0  0  3  0  0  0  0  0  0
  190.3540  178.9370  143.9860 C   0  0  0  0  0  1  0  0  0  0  0  0
  189.4430  177.2320  140.7290 C   0  0  1  0  0  3  0  0  0  0  0  0
  190.9750  176.4860  138.8830 C   0  0  0  0  0  3  0  0  0  0  0  0
  192.2520  176.3250  138.3520 C   0  0  0  0  0  0  0  0  0  0  0  0
  193.2010  177.2260  140.3020 N   0  0  0  0  0  0  0  0  0  0  0  0
  188.6650  178.2910  139.9560 C   0  0  0  0  0  2  0  0  0  0  0  0
  187.5430  177.6380  139.1610 C   0  0  0  0  0  2  0  0  0  0  0  0
  185.1920  178.5290  138.7790 C   0  0  0  0  0  2  0  0  0  0  0  0
  186.5390  177.5920  136.4310 C   0  0  0  0  0  2  0  0  0  0  0  0
  184.5540  177.5130  137.8820 C   0  0  0  0  0  0  0  0  0  0  0  0
  183.5360  176.8360  138.3290 N   0  0  0  0  0  0  0  0  0  0  0  0
  185.0250  177.4320  136.4600 C   0  0  0  0  0  2  0  0  0  0  0  0
  186.9280  178.7930  137.0620 O   0  0  0  0  0  0  0  0  0  0  0  0
  186.6830  178.6920  138.4560 C   0  0  2  0  0  3  0  0  0  0  0  0
  182.7640  175.8580  137.6150 C   0  0  0  0  0  0  0  0  0  0  0  0
  183.2790  174.7930  137.1820 O   0  0  0  0  0  0  0  0  0  0  0  0
  181.3060  176.0960  137.4140 C   0  0  0  0  0  2  0  0  0  0  0  0
  181.4980  177.7040  135.5920 N   0  0  0  0  0  1  0  0  0  0  0  0
  181.0490  177.5250  136.9630 C   0  0  1  0  0  3  0  0  0  0  0  0
  179.5640  177.8150  137.0440 C   0  0  0  0  0  1  0  0  0  0  0  0
  189.5330  176.2790  142.9150 C   0  0  0  0  0  2  0  0  0  0  0  0
  188.2600  175.8650  143.3140 O   0  0  0  0  0  0  0  0  0  0  0  0
  187.6160  177.0220  143.7610 C   0  0  1  0  0  3  0  0  0  0  0  0
  186.4100  177.3240  142.8810 C   0  0  0  0  0  2  0  0  0  0  0  0
  186.1170  178.8210  142.8780 C   0  0  0  0  0  2  0  0  0  0  0  0
  184.6330  179.1470  143.0450 C   0  0  1  0  0  3  0  0  0  0  0  0
  183.7510  178.2550  142.1900 C   0  0  0  0  0  1  0  0  0  0  0  0
  184.2170  179.0950  144.4510 C   0  0  0  0  0  0  0  0  0  0  0  0
  183.8920  179.0480  145.5610 N   0  0  0  0  0  0  0  0  0  0  0  0
  187.1850  176.8440  145.2120 C   0  0  0  0  0  2  0  0  0  0  0  0
  187.3890  178.0770  145.9630 N   0  0  0  0  0  2  0  0  0  0  0  0
  187.8420  177.7130  147.2980 C   0  0  0  0  0  2  0  0  0  0  0  0
  189.3320  177.6950  147.3560 C   0  0  0  0  0  3  0  0  0  0  0  0
  189.9820  176.5750  147.3220 N   0  0  0  0  0  0  0  0  0  0  0  0
  192.1590  175.6630  146.4390 C   0  0  0  0  0  1  0  0  0  0  0  0
  191.4090  176.5260  147.3890 C   0  0  0  0  0  0  0  0  0  0  0  0
  192.0430  177.2010  148.2450 O   0  0  0  0  0  0  0  0  0  0  0  0
  1  9  1  0  0  0  0
  1  2  1  0  0  0  0
  2  6  1  0  0  0  0
  3  7  1  0  0  0  0
  3 28  1  0  0  0  0
  4 12  1  0  0  0  0
  5 11  1  0  0  0  0
  6  7  1  0  0  0  0
  7  8  1  1  0  0  0
  9 13  1  6  0  0  0
  9  3  1  0  0  0  0
 10  1  2  0  0  0  0
 11 10  1  0  0  0  0
 11  4  2  0  0  0  0
 12  2  2  0  0  0  0
 14 13  1  0  0  0  0
 16 19  1  0  0  0  0
 16 20  1  0  0  0  0
 17 18  2  0  0  0  0
 17 15  1  0  0  0  0
 19 17  1  0  0  0  0
 20 21  1  0  0  0  0
 21 15  1  0  0  0  0
 21 14  1  6  0  0  0
 22 18  1  0  0  0  0
 23 22  2  0  0  0  0
 24 22  1  0  0  0  0
 25 26  1  0  0  0  0
 26 27  1  6  0  0  0
 26 24  1  0  0  0  0
 28 29  1  0  0  0  0
 29 30  1  0  0  0  0
 30 31  1  6  0  0  0
 30 37  1  0  0  0  0
 32 31  1  0  0  0  0
 32 33  1  0  0  0  0
 33 34  1  6  0  0  0
 33 35  1  0  0  0  0
 35 36  3  0  0  0  0
 37 38  1  0  0  0  0
 38 39  1  0  0  0  0
 39 40  1  0  0  0  0
 41 40  2  0  0  0  0
 41 43  1  0  0  0  0
 42 43  1  0  0  0  0
 43 44  2  0  0  0  0
M  END
>  <MODEL>
2

>  <REMARK>
 VINA RESULT:      -6.7      1.504      2.097
  Name = 
  18 active torsions:
  status: ('A' for Active; 'I' for Inactive)
    1  A    between atoms: C_1  and  C_4
    2  A    between atoms: C_2  and  C_44
    3  A    between atoms: C_4  and  C_18
    4  A    between atoms: C_8  and  C_27
    5  A    between atoms: C_8  and  N_28
    6  A    between atoms: N_9  and  C_42
    7  A    between atoms: C_11  and  C_29
    8  A    between atoms: C_11  and  C_43
    9  A    between atoms: C_12  and  C_18
   10  A    between atoms: C_12  and  C_19
   11  A    between atoms: C_17  and  N_22
   12  A    between atoms: C_19  and  C_25
   13  A    between atoms: C_19  and  O_36
   14  A    between atoms: C_24  and  C_29
   15  A    between atoms: C_25  and  N_30
   16  A    between atoms: C_27  and  C_32
   17  A    between atoms: N_30  and  C_44
   18  A    between atoms: O_36  and  C_42
                            x       y       z     vdW  Elec       q    Type
                         _______ _______ _______ _____ _____    ______ ____

>  <TORSDO>
F 18

$$$$
=
 OpenBabel10222415433D

 44 46  0  0  1  0  0  0  0  0999 V2000
  186.0740  174.8830  136.6570 C   0  0  0  0  0  0  0  0  0  0  0  0
  186.8530  174.4280  135.5790 C   0  0  0  0  0  0  0  0  0  0  0  0
  187.5680  176.8800  136.8930 N   0  0  0  0  0  0  0  0  0  0  0  0
  185.6280  172.4220  135.5200 N   0  0  0  0  0  0  0  0  0  0  0  0
  183.7590  171.9320  137.0530 C   0  0  0  0  0  1  0  0  0  0  0  0
  188.0050  175.2300  135.0690 C   0  0  0  0  0  2  0  0  0  0  0  0
  187.8500  176.7010  135.4570 C   0  0  2  0  0  3  0  0  0  0  0  0
  189.0640  177.5070  135.0210 C   0  0  0  0  0  1  0  0  0  0  0  0
  186.2980  176.2410  137.2780 C   0  0  1  0  0  3  0  0  0  0  0  0
  185.0560  174.0620  137.1420 C   0  0  0  0  0  3  0  0  0  0  0  0
  184.8410  172.8190  136.5540 C   0  0  0  0  0  0  0  0  0  0  0  0
  186.6070  173.1990  135.0520 N   0  0  0  0  0  0  0  0  0  0  0  0
  185.1290  177.1790  137.0020 C   0  0  0  0  0  2  0  0  0  0  0  0
  184.0860  177.0520  138.1020 C   0  0  0  0  0  2  0  0  0  0  0  0
  184.2920  179.3240  139.2270 C   0  0  0  0  0  2  0  0  0  0  0  0
  182.1390  177.6850  140.1690 C   0  0  0  0  0  2  0  0  0  0  0  0
  184.1340  179.0270  140.6870 C   0  0  0  0  0  0  0  0  0  0  0  0
  185.1380  179.2550  141.4830 N   0  0  0  0  0  0  0  0  0  0  0  0
  182.7770  178.6250  141.1830 C   0  0  0  0  0  2  0  0  0  0  0  0
  182.0910  178.2850  138.8920 O   0  0  0  0  0  0  0  0  0  0  0  0
  183.4090  178.3990  138.3770 C   0  0  2  0  0  3  0  0  0  0  0  0
  185.1720  179.0820  142.9080 C   0  0  0  0  0  0  0  0  0  0  0  0
  184.8150  179.9990  143.6960 O   0  0  0  0  0  0  0  0  0  0  0  0
  185.6090  177.7710  143.4670 C   0  0  0  0  0  2  0  0  0  0  0  0
  187.1630  178.0940  145.3170 N   0  0  0  0  0  1  0  0  0  0  0  0
  187.0680  177.8240  143.8920 C   0  0  1  0  0  3  0  0  0  0  0  0
  187.7240  176.4920  143.5910 C   0  0  0  0  0  1  0  0  0  0  0  0
  188.6400  176.3400  137.7310 C   0  0  0  0  0  2  0  0  0  0  0  0
  188.6700  177.0330  138.9440 O   0  0  0  0  0  0  0  0  0  0  0  0
  189.9090  176.7290  139.5140 C   0  0  1  0  0  3  0  0  0  0  0  0
  191.0350  177.1360  138.5720 C   0  0  0  0  0  2  0  0  0  0  0  0
  192.2810  176.3010  138.8430 C   0  0  0  0  0  2  0  0  0  0  0  0
  192.6360  175.3530  137.6970 C   0  0  1  0  0  3  0  0  0  0  0  0
  192.0140  175.7890  136.3810 C   0  0  0  0  0  1  0  0  0  0  0  0
  194.0860  175.1860  137.5550 C   0  0  0  0  0  0  0  0  0  0  0  0
  195.2310  175.0590  137.4390 N   0  0  0  0  0  0  0  0  0  0  0  0
  190.0500  177.4440  140.8530 C   0  0  0  0  0  2  0  0  0  0  0  0
  190.6410  176.5580  141.8490 N   0  0  0  0  0  2  0  0  0  0  0  0
  191.4040  177.3810  142.7760 C   0  0  0  0  0  2  0  0  0  0  0  0
  191.4900  176.7210  144.1110 C   0  0  0  0  0  3  0  0  0  0  0  0
  191.1450  177.3560  145.1860 N   0  0  0  0  0  0  0  0  0  0  0  0
  192.2090  175.6620  146.7180 C   0  0  0  0  0  1  0  0  0  0  0  0
  191.2290  176.7540  146.4800 C   0  0  0  0  0  0  0  0  0  0  0  0
  190.4810  177.1320  147.4220 O   0  0  0  0  0  0  0  0  0  0  0  0
  1 10  1  0  0  0  0
  1  9  1  0  0  0  0
  2  1  2  0  0  0  0
  3  9  1  0  0  0  0
  3 28  1  0  0  0  0
  4 11  1  0  0  0  0
  6  7  1  0  0  0  0
  6  2  1  0  0  0  0
  7  8  1  1  0  0  0
  7  3  1  0  0  0  0
  9 13  1  6  0  0  0
 11  5  1  0  0  0  0
 11 10  2  0  0  0  0
 12  4  2  0  0  0  0
 12  2  1  0  0  0  0
 13 14  1  0  0  0  0
 15 17  1  0  0  0  0
 16 19  1  0  0  0  0
 17 19  1  0  0  0  0
 17 18  2  0  0  0  0
 18 22  1  0  0  0  0
 20 16  1  0  0  0  0
 21 14  1  1  0  0  0
 21 20  1  0  0  0  0
 21 15  1  0  0  0  0
 22 24  1  0  0  0  0
 22 23  2  0  0  0  0
 24 26  1  0  0  0  0
 26 27  1  1  0  0  0
 26 25  1  0  0  0  0
 28 29  1  0  0  0  0
 29 30  1  0  0  0  0
 30 31  1  6  0  0  0
 30 37  1  0  0  0  0
 31 32  1  0  0  0  0
 33 34  1  6  0  0  0
 33 32  1  0  0  0  0
 35 33  1  0  0  0  0
 36 35  3  0  0  0  0
 37 38  1  0  0  0  0
 38 39  1  0  0  0  0
 39 40  1  0  0  0  0
 40 41  2  0  0  0  0
 41 43  1  0  0  0  0
 43 42  1  0  0  0  0
 43 44  2  0  0  0  0
M  END
>  <MODEL>
3

>  <REMARK>
 VINA RESULT:      -6.5      2.061      7.119
  Name = 
  18 active torsions:
  status: ('A' for Active; 'I' for Inactive)
    1  A    between atoms: C_1  and  C_4
    2  A    between atoms: C_2  and  C_44
    3  A    between atoms: C_4  and  C_18
    4  A    between atoms: C_8  and  C_27
    5  A    between atoms: C_8  and  N_28
    6  A    between atoms: N_9  and  C_42
    7  A    between atoms: C_11  and  C_29
    8  A    between atoms: C_11  and  C_43
    9  A    between atoms: C_12  and  C_18
   10  A    between atoms: C_12  and  C_19
   11  A    between atoms: C_17  and  N_22
   12  A    between atoms: C_19  and  C_25
   13  A    between atoms: C_19  and  O_36
   14  A    between atoms: C_24  and  C_29
   15  A    between atoms: C_25  and  N_30
   16  A    between atoms: C_27  and  C_32
   17  A    between atoms: N_30  and  C_44
   18  A    between atoms: O_36  and  C_42
                            x       y       z     vdW  Elec       q    Type
                         _______ _______ _______ _____ _____    ______ ____

>  <TORSDO>
F 18

$$$$
=
 OpenBabel10222415433D

 44 46  0  0  1  0  0  0  0  0999 V2000
  187.1610  178.0200  139.2910 C   0  0  0  0  0  0  0  0  0  0  0  0
  186.3980  178.5600  138.2420 C   0  0  0  0  0  0  0  0  0  0  0  0
  188.5860  176.8040  137.6290 N   0  0  0  0  0  0  0  0  0  0  0  0
  184.8920  179.4870  139.7910 N   0  0  0  0  0  0  0  0  0  0  0  0
  185.1470  179.2510  142.2340 C   0  0  0  0  0  1  0  0  0  0  0  0
  186.7480  178.2850  136.8160 C   0  0  0  0  0  2  0  0  0  0  0  0
  188.2160  177.8780  136.6900 C   0  0  2  0  0  3  0  0  0  0  0  0
  188.5550  177.5060  135.2550 C   0  0  0  0  0  1  0  0  0  0  0  0
  188.4200  177.2280  139.0300 C   0  0  1  0  0  3  0  0  0  0  0  0
  186.7500  178.2470  140.6050 C   0  0  0  0  0  3  0  0  0  0  0  0
  185.5990  178.9940  140.8420 C   0  0  0  0  0  0  0  0  0  0  0  0
  185.2760  179.2710  138.5320 N   0  0  0  0  0  0  0  0  0  0  0  0
  189.6590  177.9780  139.5060 C   0  0  0  0  0  2  0  0  0  0  0  0
  189.6770  178.0450  141.0260 C   0  0  0  0  0  2  0  0  0  0  0  0
  189.7960  176.1220  142.6850 C   0  0  0  0  0  2  0  0  0  0  0  0
  191.6570  178.2500  143.1480 C   0  0  0  0  0  2  0  0  0  0  0  0
  189.8780  176.7930  144.0220 C   0  0  0  0  0  0  0  0  0  0  0  0
  188.9050  176.6220  144.8690 N   0  0  0  0  0  0  0  0  0  0  0  0
  191.1480  177.5070  144.3760 C   0  0  0  0  0  2  0  0  0  0  0  0
  191.8190  177.3660  142.0600 O   0  0  0  0  0  0  0  0  0  0  0  0
  190.5440  176.9280  141.6160 C   0  0  2  0  0  3  0  0  0  0  0  0
  188.8170  177.1370  146.2060 C   0  0  0  0  0  0  0  0  0  0  0  0
  189.4210  176.5910  147.1690 O   0  0  0  0  0  0  0  0  0  0  0  0
  188.0180  178.3720  146.4540 C   0  0  0  0  0  2  0  0  0  0  0  0
  185.8680  179.1370  147.3100 N   0  0  0  0  0  1  0  0  0  0  0  0
  186.5490  178.0330  146.6540 C   0  0  1  0  0  3  0  0  0  0  0  0
  185.9080  177.7810  145.3050 C   0  0  0  0  0  1  0  0  0  0  0  0
  187.7990  175.5900  137.4090 C   0  0  0  0  0  2  0  0  0  0  0  0
  188.6580  174.5320  137.1000 O   0  0  0  0  0  0  0  0  0  0  0  0
  187.8280  173.4260  136.8990 C   0  0  1  0  0  3  0  0  0  0  0  0
  186.3790  173.8750  136.7590 C   0  0  0  0  0  2  0  0  0  0  0  0
  185.4420  172.8470  137.3840 C   0  0  0  0  0  2  0  0  0  0  0  0
  184.1720  172.6110  136.5670 C   0  0  1  0  0  3  0  0  0  0  0  0
  183.7560  171.1500  136.5670 C   0  0  0  0  0  1  0  0  0  0  0  0
  183.0680  173.4660  137.0140 C   0  0  0  0  0  0  0  0  0  0  0  0
  182.1950  174.1430  137.3620 N   0  0  0  0  0  0  0  0  0  0  0  0
  188.2730  172.6660  135.6550 C   0  0  0  0  0  2  0  0  0  0  0  0
  189.4250  173.3150  135.0420 N   0  0  0  0  0  2  0  0  0  0  0  0
  190.5440  172.3870  135.1080 C   0  0  0  0  0  2  0  0  0  0  0  0
  191.7320  173.0440  135.7270 C   0  0  0  0  0  3  0  0  0  0  0  0
  191.6110  173.7440  136.8100 N   0  0  0  0  0  0  0  0  0  0  0  0
  192.6400  175.8410  137.7550 C   0  0  0  0  0  1  0  0  0  0  0  0
  192.7290  174.3960  137.4180 C   0  0  0  0  0  0  0  0  0  0  0  0
  193.7910  173.7660  137.6690 O   0  0  0  0  0  0  0  0  0  0  0  0
  1 10  1  0  0  0  0
  2 12  1  0  0  0  0
  2  1  2  0  0  0  0
  3  9  1  0  0  0  0
  4 11  1  0  0  0  0
  6  2  1  0  0  0  0
  7  8  1  6  0  0  0
  7  6  1  0  0  0  0
  7  3  1  0  0  0  0
  9  1  1  0  0  0  0
  9 13  1  6  0  0  0
 10 11  2  0  0  0  0
 11  5  1  0  0  0  0
 12  4  2  0  0  0  0
 13 14  1  0  0  0  0
 15 17  1  0  0  0  0
 16 19  1  0  0  0  0
 17 19  1  0  0  0  0
 17 18  2  0  0  0  0
 18 22  1  0  0  0  0
 20 16  1  0  0  0  0
 21 14  1  1  0  0  0
 21 20  1  0  0  0  0
 21 15  1  0  0  0  0
 22 24  1  0  0  0  0
 22 23  2  0  0  0  0
 24 26  1  0  0  0  0
 26 27  1  6  0  0  0
 26 25  1  0  0  0  0
 28  3  1  0  0  0  0
 29 28  1  0  0  0  0
 30 37  1  6  0  0  0
 30 29  1  0  0  0  0
 31 30  1  0  0  0  0
 31 32  1  0  0  0  0
 33 34  1  1  0  0  0
 33 35  1  0  0  0  0
 33 32  1  0  0  0  0
 35 36  3  0  0  0  0
 38 39  1  0  0  0  0
 38 37  1  0  0  0  0
 39 40  1  0  0  0  0
 40 41  2  0  0  0  0
 41 43  1  0  0  0  0
 43 44  2  0  0  0  0
 43 42  1  0  0  0  0
M  END
>  <MODEL>
4

>  <REMARK>
 VINA RESULT:      -6.3      2.453      8.733
  Name = 
  18 active torsions:
  status: ('A' for Active; 'I' for Inactive)
    1  A    between atoms: C_1  and  C_4
    2  A    between atoms: C_2  and  C_44
    3  A    between atoms: C_4  and  C_18
    4  A    between atoms: C_8  and  C_27
    5  A    between atoms: C_8  and  N_28
    6  A    between atoms: N_9  and  C_42
    7  A    between atoms: C_11  and  C_29
    8  A    between atoms: C_11  and  C_43
    9  A    between atoms: C_12  and  C_18
   10  A    between atoms: C_12  and  C_19
   11  A    between atoms: C_17  and  N_22
   12  A    between atoms: C_19  and  C_25
   13  A    between atoms: C_19  and  O_36
   14  A    between atoms: C_24  and  C_29
   15  A    between atoms: C_25  and  N_30
   16  A    between atoms: C_27  and  C_32
   17  A    between atoms: N_30  and  C_44
   18  A    between atoms: O_36  and  C_42
                            x       y       z     vdW  Elec       q    Type
                         _______ _______ _______ _____ _____    ______ ____

>  <TORSDO>
F 18

$$$$
=
 OpenBabel10222415433D

 44 46  0  0  1  0  0  0  0  0999 V2000
  186.1830  175.3990  136.9880 C   0  0  0  0  0  0  0  0  0  0  0  0
  187.3740  174.9180  136.4200 C   0  0  0  0  0  0  0  0  0  0  0  0
  187.2460  177.6430  137.3180 N   0  0  0  0  0  0  0  0  0  0  0  0
  186.4840  172.7430  136.3520 N   0  0  0  0  0  0  0  0  0  0  0  0
  184.2080  172.1890  137.1260 C   0  0  0  0  0  1  0  0  0  0  0  0
  188.5500  175.8180  136.2200 C   0  0  0  0  0  2  0  0  0  0  0  0
  188.1080  177.2800  136.1780 C   0  0  2  0  0  3  0  0  0  0  0  0
  189.3080  178.2070  136.0680 C   0  0  0  0  0  1  0  0  0  0  0  0
  185.9990  176.8600  137.3240 C   0  0  1  0  0  3  0  0  0  0  0  0
  185.1400  174.5010  137.2200 C   0  0  0  0  0  3  0  0  0  0  0  0
  185.3080  173.1590  136.8900 C   0  0  0  0  0  0  0  0  0  0  0  0
  187.4870  173.5940  136.1300 N   0  0  0  0  0  0  0  0  0  0  0  0
  184.9600  177.5130  136.4200 C   0  0  0  0  0  2  0  0  0  0  0  0
  183.5800  177.4110  137.0520 C   0  0  0  0  0  2  0  0  0  0  0  0
  183.1880  176.8880  139.5100 C   0  0  0  0  0  2  0  0  0  0  0  0
  181.4860  178.9100  138.4050 C   0  0  0  0  0  2  0  0  0  0  0  0
  181.6980  176.7890  139.6320 C   0  0  0  0  0  0  0  0  0  0  0  0
  181.1730  175.6450  139.9650 N   0  0  0  0  0  0  0  0  0  0  0  0
  180.8950  178.0500  139.5150 C   0  0  0  0  0  2  0  0  0  0  0  0
  182.8540  179.1610  138.6430 O   0  0  0  0  0  0  0  0  0  0  0  0
  183.5880  177.9570  138.4840 C   0  0  2  0  0  3  0  0  0  0  0  0
  179.7820  175.3590  140.1780 C   0  0  0  0  0  0  0  0  0  0  0  0
  179.2580  175.4300  141.3220 O   0  0  0  0  0  0  0  0  0  0  0  0
  178.9310  175.0010  139.0070 C   0  0  0  0  0  2  0  0  0  0  0  0
  178.9750  172.9920  137.6270 N   0  0  0  0  0  1  0  0  0  0  0  0
  179.7190  174.1860  137.9940 C   0  0  1  0  0  3  0  0  0  0  0  0
  179.9590  175.0260  136.7570 C   0  0  0  0  0  1  0  0  0  0  0  0
  187.9280  177.4520  138.5990 C   0  0  0  0  0  2  0  0  0  0  0  0
  188.1610  178.6980  139.1880 O   0  0  0  0  0  0  0  0  0  0  0  0
  188.0270  178.4900  140.5630 C   0  0  1  0  0  3  0  0  0  0  0  0
  186.6130  178.0270  140.8890 C   0  0  0  0  0  2  0  0  0  0  0  0
  185.9490  178.9920  141.8650 C   0  0  0  0  0  2  0  0  0  0  0  0
  185.0570  178.2960  142.8920 C   0  0  1  0  0  3  0  0  0  0  0  0
  185.5250  178.5400  144.3160 C   0  0  0  0  0  1  0  0  0  0  0  0
  183.6480  178.6740  142.7370 C   0  0  0  0  0  0  0  0  0  0  0  0
  182.5350  178.9720  142.6210 N   0  0  0  0  0  0  0  0  0  0  0  0
  189.0470  177.4580  141.0310 C   0  0  0  0  0  2  0  0  0  0  0  0
  188.8650  177.1620  142.4470 N   0  0  0  0  0  2  0  0  0  0  0  0
  189.4750  178.2430  143.2070 C   0  0  0  0  0  2  0  0  0  0  0  0
  189.8700  177.7690  144.5650 C   0  0  0  0  0  3  0  0  0  0  0  0
  188.9750  177.5610  145.4790 N   0  0  0  0  0  0  0  0  0  0  0  0
  190.7070  176.6480  147.0640 C   0  0  0  0  0  1  0  0  0  0  0  0
  189.3240  177.1190  146.7930 C   0  0  0  0  0  0  0  0  0  0  0  0
  188.4750  177.1190  147.7250 O   0  0  0  0  0  0  0  0  0  0  0  0
  1 10  1  0  0  0  0
  1  9  1  0  0  0  0
  2  1  2  0  0  0  0
  3  9  1  0  0  0  0
  3 28  1  0  0  0  0
  4 11  1  0  0  0  0
  6  2  1  0  0  0  0
  7  8  1  1  0  0  0
  7  6  1  0  0  0  0
  7  3  1  0  0  0  0
  9 13  1  6  0  0  0
 11  5  1  0  0  0  0
 11 10  2  0  0  0  0
 12  4  2  0  0  0  0
 12  2  1  0  0  0  0
 13 14  1  0  0  0  0
 15 17  1  0  0  0  0
 16 20  1  0  0  0  0
 16 19  1  0  0  0  0
 17 18  2  0  0  0  0
 18 22  1  0  0  0  0
 19 17  1  0  0  0  0
 21 14  1  6  0  0  0
 21 20  1  0  0  0  0
 21 15  1  0  0  0  0
 22 23  2  0  0  0  0
 24 22  1  0  0  0  0
 25 26  1  0  0  0  0
 26 27  1  6  0  0  0
 26 24  1  0  0  0  0
 28 29  1  0  0  0  0
 29 30  1  0  0  0  0
 30 31  1  6  0  0  0
 30 37  1  0  0  0  0
 31 32  1  0  0  0  0
 32 33  1  0  0  0  0
 33 34  1  1  0  0  0
 35 33  1  0  0  0  0
 36 35  3  0  0  0  0
 37 38  1  0  0  0  0
 38 39  1  0  0  0  0
 39 40  1  0  0  0  0
 40 41  2  0  0  0  0
 41 43  1  0  0  0  0
 43 42  1  0  0  0  0
 43 44  2  0  0  0  0
M  END
>  <MODEL>
5

>  <REMARK>
 VINA RESULT:      -6.1      2.871      5.312
  Name = 
  18 active torsions:
  status: ('A' for Active; 'I' for Inactive)
    1  A    between atoms: C_1  and  C_4
    2  A    between atoms: C_2  and  C_44
    3  A    between atoms: C_4  and  C_18
    4  A    between atoms: C_8  and  C_27
    5  A    between atoms: C_8  and  N_28
    6  A    between atoms: N_9  and  C_42
    7  A    between atoms: C_11  and  C_29
    8  A    between atoms: C_11  and  C_43
    9  A    between atoms: C_12  and  C_18
   10  A    between atoms: C_12  and  C_19
   11  A    between atoms: C_17  and  N_22
   12  A    between atoms: C_19  and  C_25
   13  A    between atoms: C_19  and  O_36
   14  A    between atoms: C_24  and  C_29
   15  A    between atoms: C_25  and  N_30
   16  A    between atoms: C_27  and  C_32
   17  A    between atoms: N_30  and  C_44
   18  A    between atoms: O_36  and  C_42
                            x       y       z     vdW  Elec       q    Type
                         _______ _______ _______ _____ _____    ______ ____

>  <TORSDO>
F 18

$$$$
=
 OpenBabel10222415433D

 44 46  0  0  1  0  0  0  0  0999 V2000
  188.7520  177.6020  145.6570 C   0  0  0  0  0  0  0  0  0  0  0  0
  189.7450  177.1780  146.5560 C   0  0  0  0  0  0  0  0  0  0  0  0
  190.1770  176.8620  143.7340 N   0  0  0  0  0  0  0  0  0  0  0  0
  188.5440  178.1090  148.3490 N   0  0  0  0  0  0  0  0  0  0  0  0
  186.3760  179.2550  148.0750 C   0  0  0  0  0  1  0  0  0  0  0  0
  190.9900  176.5100  146.0690 C   0  0  0  0  0  2  0  0  0  0  0  0
  190.7690  175.9020  144.6840 C   0  0  2  0  0  3  0  0  0  0  0  0
  192.0570  175.3020  144.1430 C   0  0  0  0  0  1  0  0  0  0  0  0
  188.8470  177.3130  144.1770 C   0  0  1  0  0  3  0  0  0  0  0  0
  187.6430  178.2850  146.1560 C   0  0  0  0  0  3  0  0  0  0  0  0
  187.5510  178.5320  147.5230 C   0  0  0  0  0  0  0  0  0  0  0  0
  189.6090  177.4580  147.8790 N   0  0  0  0  0  0  0  0  0  0  0  0
  187.7780  176.3200  143.7340 C   0  0  0  0  0  2  0  0  0  0  0  0
  187.0940  176.8200  142.4700 C   0  0  0  0  0  2  0  0  0  0  0  0
  185.3680  178.6190  142.9720 C   0  0  0  0  0  2  0  0  0  0  0  0
  186.4050  178.6320  140.3010 C   0  0  0  0  0  2  0  0  0  0  0  0
  184.4470  178.5860  141.7910 C   0  0  0  0  0  0  0  0  0  0  0  0
  183.2050  178.2440  141.9750 N   0  0  0  0  0  0  0  0  0  0  0  0
  184.9650  179.0960  140.4780 C   0  0  0  0  0  2  0  0  0  0  0  0
  187.2000  179.0440  141.3920 O   0  0  0  0  0  0  0  0  0  0  0  0
  186.8150  178.3240  142.5530 C   0  0  2  0  0  3  0  0  0  0  0  0
  182.1630  178.1960  140.9890 C   0  0  0  0  0  0  0  0  0  0  0  0
  182.3350  177.6460  139.8680 O   0  0  0  0  0  0  0  0  0  0  0  0
  180.8310  178.7810  141.3170 C   0  0  0  0  0  2  0  0  0  0  0  0
  180.0820  180.5390  142.8300 N   0  0  0  0  0  1  0  0  0  0  0  0
  180.7970  179.2750  142.7540 C   0  0  1  0  0  3  0  0  0  0  0  0
  180.0920  178.2500  143.6180 C   0  0  0  0  0  1  0  0  0  0  0  0
  191.0310  178.0350  143.5400 C   0  0  0  0  0  2  0  0  0  0  0  0
  190.8920  178.4970  142.2290 O   0  0  0  0  0  0  0  0  0  0  0  0
  191.3320  177.4480  141.4170 C   0  0  1  0  0  3  0  0  0  0  0  0
  190.1510  176.8130  140.6930 C   0  0  0  0  0  2  0  0  0  0  0  0
  189.8590  177.5610  139.3970 C   0  0  0  0  0  2  0  0  0  0  0  0
  188.9950  176.7640  138.4200 C   0  0  1  0  0  3  0  0  0  0  0  0
  188.4160  177.6400  137.3230 C   0  0  0  0  0  1  0  0  0  0  0  0
  189.7240  175.6280  137.8470 C   0  0  0  0  0  0  0  0  0  0  0  0
  190.2980  174.7270  137.3990 N   0  0  0  0  0  0  0  0  0  0  0  0
  192.3550  177.9660  140.4140 C   0  0  0  0  0  2  0  0  0  0  0  0
  193.2660  176.9010  140.0120 N   0  0  0  0  0  2  0  0  0  0  0  0
  193.1550  176.7450  138.5690 C   0  0  0  0  0  2  0  0  0  0  0  0
  193.9520  175.5720  138.1070 C   0  0  0  0  0  3  0  0  0  0  0  0
  194.9620  175.1460  138.7970 N   0  0  0  0  0  0  0  0  0  0  0  0
  196.5080  174.1150  137.0950 C   0  0  0  0  0  1  0  0  0  0  0  0
  195.7530  174.0330  138.3730 C   0  0  0  0  0  0  0  0  0  0  0  0
  195.8160  172.9810  139.0650 O   0  0  0  0  0  0  0  0  0  0  0  0
  1 10  2  0  0  0  0
  1  2  1  0  0  0  0
  2 12  2  0  0  0  0
  3  9  1  0  0  0  0
  3  7  1  0  0  0  0
  6  2  1  0  0  0  0
  7  8  1  6  0  0  0
  7  6  1  0  0  0  0
  9 13  1  1  0  0  0
  9  1  1  0  0  0  0
 10 11  1  0  0  0  0
 11  5  1  0  0  0  0
 11  4  2  0  0  0  0
 12  4  1  0  0  0  0
 14 13  1  0  0  0  0
 16 19  1  0  0  0  0
 16 20  1  0  0  0  0
 17 18  2  0  0  0  0
 17 15  1  0  0  0  0
 19 17  1  0  0  0  0
 20 21  1  0  0  0  0
 21 14  1  6  0  0  0
 21 15  1  0  0  0  0
 22 24  1  0  0  0  0
 22 18  1  0  0  0  0
 23 22  2  0  0  0  0
 24 26  1  0  0  0  0
 26 25  1  0  0  0  0
 26 27  1  1  0  0  0
 28  3  1  0  0  0  0
 29 28  1  0  0  0  0
 30 37  1  6  0  0  0
 30 29  1  0  0  0  0
 31 30  1  0  0  0  0
 32 31  1  0  0  0  0
 33 34  1  6  0  0  0
 33 32  1  0  0  0  0
 35 33  1  0  0  0  0
 36 35  3  0  0  0  0
 38 37  1  0  0  0  0
 39 38  1  0  0  0  0
 40 39  1  0  0  0  0
 40 41  2  0  0  0  0
 42 43  1  0  0  0  0
 43 41  1  0  0  0  0
 43 44  2  0  0  0  0
M  END
>  <MODEL>
6

>  <REMARK>
 VINA RESULT:      -5.9      2.985      7.242
  Name = 
  18 active torsions:
  status: ('A' for Active; 'I' for Inactive)
    1  A    between atoms: C_1  and  C_4
    2  A    between atoms: C_2  and  C_44
    3  A    between atoms: C_4  and  C_18
    4  A    between atoms: C_8  and  C_27
    5  A    between atoms: C_8  and  N_28
    6  A    between atoms: N_9  and  C_42
    7  A    between atoms: C_11  and  C_29
    8  A    between atoms: C_11  and  C_43
    9  A    between atoms: C_12  and  C_18
   10  A    between atoms: C_12  and  C_19
   11  A    between atoms: C_17  and  N_22
   12  A    between atoms: C_19  and  C_25
   13  A    between atoms: C_19  and  O_36
   14  A    between atoms: C_24  and  C_29
   15  A    between atoms: C_25  and  N_30
   16  A    between atoms: C_27  and  C_32
   17  A    between atoms: N_30  and  C_44
   18  A    between atoms: O_36  and  C_42
                            x       y       z     vdW  Elec       q    Type
                         _______ _______ _______ _____ _____    ______ ____

>  <TORSDO>
F 18

$$$$
=
 OpenBabel10222415433D

 44 46  0  0  1  0  0  0  0  0999 V2000
  189.7590  177.0420  140.4860 C   0  0  0  0  0  0  0  0  0  0  0  0
  188.8250  178.0910  140.4520 C   0  0  0  0  0  0  0  0  0  0  0  0
  189.5010  176.7330  138.0130 N   0  0  0  0  0  0  0  0  0  0  0  0
  188.8520  178.2130  142.8000 N   0  0  0  0  0  0  0  0  0  0  0  0
  190.2570  176.7590  144.2130 C   0  0  0  0  0  1  0  0  0  0  0  0
  188.2280  178.5500  139.1620 C   0  0  0  0  0  2  0  0  0  0  0  0
  189.1230  178.1580  137.9860 C   0  0  2  0  0  3  0  0  0  0  0  0
  188.4780  178.5390  136.6620 C   0  0  0  0  0  1  0  0  0  0  0  0
  190.2790  176.4030  139.2190 C   0  0  1  0  0  3  0  0  0  0  0  0
  190.2310  176.6030  141.7230 C   0  0  0  0  0  3  0  0  0  0  0  0
  189.7630  177.2090  142.8860 C   0  0  0  0  0  0  0  0  0  0  0  0
  188.3930  178.6360  141.6200 N   0  0  0  0  0  0  0  0  0  0  0  0
  191.7540  176.7190  139.0010 C   0  0  0  0  0  2  0  0  0  0  0  0
  192.1640  176.3450  137.5840 C   0  0  0  0  0  2  0  0  0  0  0  0
  193.9110  174.5250  137.9050 C   0  0  0  0  0  2  0  0  0  0  0  0
  192.9630  174.8480  135.2210 C   0  0  0  0  0  2  0  0  0  0  0  0
  194.8690  174.7300  136.7720 C   0  0  0  0  0  0  0  0  0  0  0  0
  196.0970  175.0670  137.0430 N   0  0  0  0  0  0  0  0  0  0  0  0
  194.4060  174.3900  135.3860 C   0  0  0  0  0  2  0  0  0  0  0  0
  192.1420  174.2820  136.2200 O   0  0  0  0  0  0  0  0  0  0  0  0
  192.4730  174.8480  137.4780 C   0  0  2  0  0  3  0  0  0  0  0  0
  197.1700  175.2630  136.1100 C   0  0  0  0  0  0  0  0  0  0  0  0
  197.5530  176.4150  135.7720 O   0  0  0  0  0  0  0  0  0  0  0  0
  197.8710  174.0700  135.5540 C   0  0  0  0  0  2  0  0  0  0  0  0
  199.1800  174.5000  137.5640 N   0  0  0  0  0  1  0  0  0  0  0  0
  198.8450  173.4940  136.5690 C   0  0  1  0  0  3  0  0  0  0  0  0
  198.2040  172.3060  137.2570 C   0  0  0  0  0  1  0  0  0  0  0  0
  188.3300  175.8570  137.9530 C   0  0  0  0  0  2  0  0  0  0  0  0
  188.5810  174.8130  137.0590 O   0  0  0  0  0  0  0  0  0  0  0  0
  187.3490  174.5330  136.4610 C   0  0  1  0  0  3  0  0  0  0  0  0
  186.9210  173.1060  136.7820 C   0  0  0  0  0  2  0  0  0  0  0  0
  185.5720  173.1040  137.4920 C   0  0  0  0  0  2  0  0  0  0  0  0
  184.4040  172.7540  136.5710 C   0  0  1  0  0  3  0  0  0  0  0  0
  184.1180  171.2620  136.5510 C   0  0  0  0  0  1  0  0  0  0  0  0
  183.1940  173.5100  136.9110 C   0  0  0  0  0  0  0  0  0  0  0  0
  182.2410  174.1120  137.1760 N   0  0  0  0  0  0  0  0  0  0  0  0
  186.3010  175.5260  136.9480 C   0  0  0  0  0  2  0  0  0  0  0  0
  185.6490  176.1810  135.8200 N   0  0  0  0  0  2  0  0  0  0  0  0
  184.4750  176.8750  136.3290 C   0  0  0  0  0  2  0  0  0  0  0  0
  184.8700  177.8890  137.3480 C   0  0  0  0  0  3  0  0  0  0  0  0
  184.1250  178.1100  138.3850 N   0  0  0  0  0  0  0  0  0  0  0  0
  184.8240  178.6430  140.7470 C   0  0  0  0  0  1  0  0  0  0  0  0
  184.4710  179.0850  139.3720 C   0  0  0  0  0  0  0  0  0  0  0  0
  184.4780  180.3150  139.0960 O   0  0  0  0  0  0  0  0  0  0  0  0
  1 10  1  0  0  0  0
  2  1  2  0  0  0  0
  2 12  1  0  0  0  0
  3  9  1  0  0  0  0
  4 11  1  0  0  0  0
  6  2  1  0  0  0  0
  7  8  1  6  0  0  0
  7  3  1  0  0  0  0
  7  6  1  0  0  0  0
  9 13  1  6  0  0  0
  9  1  1  0  0  0  0
 10 11  2  0  0  0  0
 11  5  1  0  0  0  0
 12  4  2  0  0  0  0
 14 13  1  0  0  0  0
 16 19  1  0  0  0  0
 16 20  1  0  0  0  0
 17 18  2  0  0  0  0
 17 15  1  0  0  0  0
 19 17  1  0  0  0  0
 20 21  1  0  0  0  0
 21 14  1  6  0  0  0
 21 15  1  0  0  0  0
 22 18  1  0  0  0  0
 23 22  2  0  0  0  0
 24 22  1  0  0  0  0
 24 26  1  0  0  0  0
 26 27  1  1  0  0  0
 26 25  1  0  0  0  0
 28  3  1  0  0  0  0
 29 28  1  0  0  0  0
 30 31  1  1  0  0  0
 30 37  1  0  0  0  0
 30 29  1  0  0  0  0
 31 32  1  0  0  0  0
 33 34  1  1  0  0  0
 33 35  1  0  0  0  0
 33 32  1  0  0  0  0
 35 36  3  0  0  0  0
 38 39  1  0  0  0  0
 38 37  1  0  0  0  0
 39 40  1  0  0  0  0
 40 41  2  0  0  0  0
 41 43  1  0  0  0  0
 43 42  1  0  0  0  0
 44 43  2  0  0  0  0
M  END
>  <MODEL>
7

>  <REMARK>
 VINA RESULT:      -5.9      3.213      9.053
  Name = 
  18 active torsions:
  status: ('A' for Active; 'I' for Inactive)
    1  A    between atoms: C_1  and  C_4
    2  A    between atoms: C_2  and  C_44
    3  A    between atoms: C_4  and  C_18
    4  A    between atoms: C_8  and  C_27
    5  A    between atoms: C_8  and  N_28
    6  A    between atoms: N_9  and  C_42
    7  A    between atoms: C_11  and  C_29
    8  A    between atoms: C_11  and  C_43
    9  A    between atoms: C_12  and  C_18
   10  A    between atoms: C_12  and  C_19
   11  A    between atoms: C_17  and  N_22
   12  A    between atoms: C_19  and  C_25
   13  A    between atoms: C_19  and  O_36
   14  A    between atoms: C_24  and  C_29
   15  A    between atoms: C_25  and  N_30
   16  A    between atoms: C_27  and  C_32
   17  A    between atoms: N_30  and  C_44
   18  A    between atoms: O_36  and  C_42
                            x       y       z     vdW  Elec       q    Type
                         _______ _______ _______ _____ _____    ______ ____

>  <TORSDO>
F 18

$$$$
=
 OpenBabel10222415433D

 44 46  0  0  1  0  0  0  0  0999 V2000
  184.1310  178.5140  142.8860 C   0  0  0  0  0  0  0  0  0  0  0  0
  182.8730  179.0130  143.2620 C   0  0  0  0  0  0  0  0  0  0  0  0
  183.3260  178.2610  140.5270 N   0  0  0  0  0  0  0  0  0  0  0  0
  183.5240  179.0020  145.5200 N   0  0  0  0  0  0  0  0  0  0  0  0
  185.7590  178.2830  146.2800 C   0  0  0  0  0  1  0  0  0  0  0  0
  181.7920  179.2170  142.2500 C   0  0  0  0  0  2  0  0  0  0  0  0
  182.3850  179.3490  140.8480 C   0  0  2  0  0  3  0  0  0  0  0  0
  181.2860  179.4630  139.8030 C   0  0  0  0  0  1  0  0  0  0  0  0
  184.4820  178.2590  141.4390 C   0  0  1  0  0  3  0  0  0  0  0  0
  185.0810  178.2740  143.8780 C   0  0  0  0  0  3  0  0  0  0  0  0
  184.7590  178.5280  145.2090 C   0  0  0  0  0  0  0  0  0  0  0  0
  182.6090  179.2310  144.5770 N   0  0  0  0  0  0  0  0  0  0  0  0
  185.5470  179.2320  140.9450 C   0  0  0  0  0  2  0  0  0  0  0  0
  186.8700  178.9590  141.6450 C   0  0  0  0  0  2  0  0  0  0  0  0
  187.8680  176.8210  142.5930 C   0  0  0  0  0  2  0  0  0  0  0  0
  189.4930  178.1760  140.6620 C   0  0  0  0  0  2  0  0  0  0  0  0
  189.2880  177.1840  142.9040 C   0  0  0  0  0  0  0  0  0  0  0  0
  189.6830  177.1600  144.1440 N   0  0  0  0  0  0  0  0  0  0  0  0
  190.2260  177.4090  141.7550 C   0  0  0  0  0  2  0  0  0  0  0  0
  188.3190  177.4950  140.2750 O   0  0  0  0  0  0  0  0  0  0  0  0
  187.3760  177.5470  141.3340 C   0  0  2  0  0  3  0  0  0  0  0  0
  191.0030  177.4270  144.6390 C   0  0  0  0  0  0  0  0  0  0  0  0
  191.5880  178.5220  144.4150 O   0  0  0  0  0  0  0  0  0  0  0  0
  191.6860  176.3950  145.4700 C   0  0  0  0  0  2  0  0  0  0  0  0
  190.1490  176.5970  147.3510 N   0  0  0  0  0  1  0  0  0  0  0  0
  191.5420  176.7110  146.9510 C   0  0  1  0  0  3  0  0  0  0  0  0
  192.3740  175.7330  147.7530 C   0  0  0  0  0  1  0  0  0  0  0  0
  182.6810  176.9480  140.5820 C   0  0  0  0  0  2  0  0  0  0  0  0
  183.3990  176.0470  139.7920 O   0  0  0  0  0  0  0  0  0  0  0  0
  182.5760  175.7790  138.6940 C   0  0  1  0  0  3  0  0  0  0  0  0
  181.1160  176.0040  139.0650 C   0  0  0  0  0  2  0  0  0  0  0  0
  180.3900  174.6700  139.1980 C   0  0  0  0  0  2  0  0  0  0  0  0
  179.3030  174.6780  140.2730 C   0  0  1  0  0  3  0  0  0  0  0  0
  179.5830  173.6720  141.3760 C   0  0  0  0  0  1  0  0  0  0  0  0
  179.0960  176.0170  140.8310 C   0  0  0  0  0  0  0  0  0  0  0  0
  178.9380  177.0780  141.2690 N   0  0  0  0  0  0  0  0  0  0  0  0
  182.9730  176.6690  137.5220 C   0  0  0  0  0  2  0  0  0  0  0  0
  184.0520  176.0590  136.7550 N   0  0  0  0  0  2  0  0  0  0  0  0
  184.2190  176.8330  135.5330 C   0  0  0  0  0  2  0  0  0  0  0  0
  185.5920  177.4100  135.4650 C   0  0  0  0  0  3  0  0  0  0  0  0
  186.3040  177.5530  136.5370 N   0  0  0  0  0  0  0  0  0  0  0  0
  188.6250  177.5700  135.5560 C   0  0  0  0  0  1  0  0  0  0  0  0
  187.6180  178.1150  136.5050 C   0  0  0  0  0  0  0  0  0  0  0  0
  187.9380  179.0630  137.2710 O   0  0  0  0  0  0  0  0  0  0  0  0
  1  2  2  0  0  0  0
  1 10  1  0  0  0  0
  2 12  1  0  0  0  0
  3 28  1  0  0  0  0
  3  7  1  0  0  0  0
  3  9  1  0  0  0  0
  6  2  1  0  0  0  0
  7  8  1  6  0  0  0
  7  6  1  0  0  0  0
  9 13  1  6  0  0  0
  9  1  1  0  0  0  0
 10 11  2  0  0  0  0
 11  4  1  0  0  0  0
 11  5  1  0  0  0  0
 12  4  2  0  0  0  0
 13 14  1  0  0  0  0
 15 17  1  0  0  0  0
 16 19  1  0  0  0  0
 17 18  2  0  0  0  0
 18 22  1  0  0  0  0
 19 17  1  0  0  0  0
 20 16  1  0  0  0  0
 20 21  1  0  0  0  0
 21 14  1  1  0  0  0
 21 15  1  0  0  0  0
 22 24  1  0  0  0  0
 23 22  2  0  0  0  0
 24 26  1  0  0  0  0
 26 25  1  0  0  0  0
 26 27  1  1  0  0  0
 29 28  1  0  0  0  0
 30 37  1  6  0  0  0
 30 31  1  0  0  0  0
 30 29  1  0  0  0  0
 31 32  1  0  0  0  0
 32 33  1  0  0  0  0
 33 35  1  0  0  0  0
 33 34  1  1  0  0  0
 35 36  3  0  0  0  0
 38 37  1  0  0  0  0
 39 38  1  0  0  0  0
 40 39  1  0  0  0  0
 40 41  2  0  0  0  0
 42 43  1  0  0  0  0
 43 41  1  0  0  0  0
 43 44  2  0  0  0  0
M  END
>  <MODEL>
8

>  <REMARK>
 VINA RESULT:      -5.8      2.821      9.393
  Name = 
  18 active torsions:
  status: ('A' for Active; 'I' for Inactive)
    1  A    between atoms: C_1  and  C_4
    2  A    between atoms: C_2  and  C_44
    3  A    between atoms: C_4  and  C_18
    4  A    between atoms: C_8  and  C_27
    5  A    between atoms: C_8  and  N_28
    6  A    between atoms: N_9  and  C_42
    7  A    between atoms: C_11  and  C_29
    8  A    between atoms: C_11  and  C_43
    9  A    between atoms: C_12  and  C_18
   10  A    between atoms: C_12  and  C_19
   11  A    between atoms: C_17  and  N_22
   12  A    between atoms: C_19  and  C_25
   13  A    between atoms: C_19  and  O_36
   14  A    between atoms: C_24  and  C_29
   15  A    between atoms: C_25  and  N_30
   16  A    between atoms: C_27  and  C_32
   17  A    between atoms: N_30  and  C_44
   18  A    between atoms: O_36  and  C_42
                            x       y       z     vdW  Elec       q    Type
                         _______ _______ _______ _____ _____    ______ ____

>  <TORSDO>
F 18

$$$$
=
 OpenBabel10222415433D

 44 46  0  0  1  0  0  0  0  0999 V2000
  184.2010  178.4340  142.9140 C   0  0  0  0  0  0  0  0  0  0  0  0
  183.0140  179.0200  143.3840 C   0  0  0  0  0  0  0  0  0  0  0  0
  183.1840  178.1990  140.6370 N   0  0  0  0  0  0  0  0  0  0  0  0
  183.8530  179.0000  145.5800 N   0  0  0  0  0  0  0  0  0  0  0  0
  186.0940  178.1480  146.1640 C   0  0  0  0  0  1  0  0  0  0  0  0
  181.8660  179.2790  142.4630 C   0  0  0  0  0  2  0  0  0  0  0  0
  182.3450  179.3510  141.0130 C   0  0  2  0  0  3  0  0  0  0  0  0
  181.1700  179.5210  140.0620 C   0  0  0  0  0  1  0  0  0  0  0  0
  184.4110  178.1350  141.4480 C   0  0  1  0  0  3  0  0  0  0  0  0
  185.2150  178.1470  143.8280 C   0  0  0  0  0  3  0  0  0  0  0  0
  185.0240  178.4420  145.1750 C   0  0  0  0  0  0  0  0  0  0  0  0
  182.8770  179.2740  144.7120 N   0  0  0  0  0  0  0  0  0  0  0  0
  185.4900  179.0290  140.8470 C   0  0  0  0  0  2  0  0  0  0  0  0
  186.6890  178.1920  140.4300 C   0  0  0  0  0  2  0  0  0  0  0  0
  189.0730  178.8820  139.8730 C   0  0  0  0  0  2  0  0  0  0  0  0
  188.8270  176.8470  141.8750 C   0  0  0  0  0  2  0  0  0  0  0  0
  189.8110  177.5840  139.7440 C   0  0  0  0  0  0  0  0  0  0  0  0
  190.3140  177.2620  138.5870 N   0  0  0  0  0  0  0  0  0  0  0  0
  190.0660  176.7910  140.9910 C   0  0  0  0  0  2  0  0  0  0  0  0
  188.4690  178.1840  142.1490 O   0  0  0  0  0  0  0  0  0  0  0  0
  187.9940  178.7970  140.9600 C   0  0  2  0  0  3  0  0  0  0  0  0
  191.0880  176.0960  138.2720 C   0  0  0  0  0  0  0  0  0  0  0  0
  190.5500  174.9710  138.0900 O   0  0  0  0  0  0  0  0  0  0  0  0
  192.5660  176.2280  138.1220 C   0  0  0  0  0  2  0  0  0  0  0  0
  194.2880  176.3530  136.4010 N   0  0  0  0  0  1  0  0  0  0  0  0
  193.0150  175.7440  136.7520 C   0  0  1  0  0  3  0  0  0  0  0  0
  193.1720  174.2380  136.7810 C   0  0  0  0  0  1  0  0  0  0  0  0
  182.4640  176.9320  140.7730 C   0  0  0  0  0  2  0  0  0  0  0  0
  182.9180  176.0360  139.8020 O   0  0  0  0  0  0  0  0  0  0  0  0
  182.6710  176.6600  138.5760 C   0  0  1  0  0  3  0  0  0  0  0  0
  183.7250  176.2480  137.5560 C   0  0  0  0  0  2  0  0  0  0  0  0
  184.6050  177.4390  137.1910 C   0  0  0  0  0  2  0  0  0  0  0  0
  186.0870  177.0850  137.0770 C   0  0  1  0  0  3  0  0  0  0  0  0
  186.3580  176.1190  135.9370 C   0  0  0  0  0  1  0  0  0  0  0  0
  186.9270  178.2800  136.9560 C   0  0  0  0  0  0  0  0  0  0  0  0
  187.5960  179.2210  136.8600 N   0  0  0  0  0  0  0  0  0  0  0  0
  181.2780  176.2910  138.0810 C   0  0  0  0  0  2  0  0  0  0  0  0
  181.2570  176.1990  136.6260 N   0  0  0  0  0  2  0  0  0  0  0  0
  180.1370  176.9970  136.1480 C   0  0  0  0  0  2  0  0  0  0  0  0
  180.5670  178.4030  135.8960 C   0  0  0  0  0  3  0  0  0  0  0  0
  179.9190  179.3970  136.4150 N   0  0  0  0  0  0  0  0  0  0  0  0
  180.8010  181.1540  134.8400 C   0  0  0  0  0  1  0  0  0  0  0  0
  180.3000  180.7550  136.1810 C   0  0  0  0  0  0  0  0  0  0  0  0
  180.2210  181.6180  137.0960 O   0  0  0  0  0  0  0  0  0  0  0  0
  1  2  2  0  0  0  0
  1 10  1  0  0  0  0
  2 12  1  0  0  0  0
  3 28  1  0  0  0  0
  3  7  1  0  0  0  0
  3  9  1  0  0  0  0
  6  2  1  0  0  0  0
  7  8  1  6  0  0  0
  7  6  1  0  0  0  0
  9 13  1  6  0  0  0
  9  1  1  0  0  0  0
 10 11  2  0  0  0  0
 11  4  1  0  0  0  0
 11  5  1  0  0  0  0
 12  4  2  0  0  0  0
 14 13  1  0  0  0  0
 15 21  1  0  0  0  0
 16 20  1  0  0  0  0
 17 15  1  0  0  0  0
 17 19  1  0  0  0  0
 18 17  2  0  0  0  0
 19 16  1  0  0  0  0
 21 14  1  6  0  0  0
 21 20  1  0  0  0  0
 22 18  1  0  0  0  0
 23 22  2  0  0  0  0
 24 22  1  0  0  0  0
 25 26  1  0  0  0  0
 26 27  1  1  0  0  0
 26 24  1  0  0  0  0
 29 28  1  0  0  0  0
 30 31  1  6  0  0  0
 30 29  1  0  0  0  0
 32 31  1  0  0  0  0
 33 34  1  6  0  0  0
 33 32  1  0  0  0  0
 35 33  1  0  0  0  0
 36 35  3  0  0  0  0
 37 30  1  0  0  0  0
 38 37  1  0  0  0  0
 39 38  1  0  0  0  0
 40 39  1  0  0  0  0
 40 41  2  0  0  0  0
 42 43  1  0  0  0  0
 43 41  1  0  0  0  0
 43 44  2  0  0  0  0
M  END
>  <MODEL>
9

>  <REMARK>
 VINA RESULT:      -5.8      3.148      9.567
  Name = 
  18 active torsions:
  status: ('A' for Active; 'I' for Inactive)
    1  A    between atoms: C_1  and  C_4
    2  A    between atoms: C_2  and  C_44
    3  A    between atoms: C_4  and  C_18
    4  A    between atoms: C_8  and  C_27
    5  A    between atoms: C_8  and  N_28
    6  A    between atoms: N_9  and  C_42
    7  A    between atoms: C_11  and  C_29
    8  A    between atoms: C_11  and  C_43
    9  A    between atoms: C_12  and  C_18
   10  A    between atoms: C_12  and  C_19
   11  A    between atoms: C_17  and  N_22
   12  A    between atoms: C_19  and  C_25
   13  A    between atoms: C_19  and  O_36
   14  A    between atoms: C_24  and  C_29
   15  A    between atoms: C_25  and  N_30
   16  A    between atoms: C_27  and  C_32
   17  A    between atoms: N_30  and  C_44
   18  A    between atoms: O_36  and  C_42
                            x       y       z     vdW  Elec       q    Type
                         _______ _______ _______ _____ _____    ______ ____

>  <TORSDO>
F 18

$$$$
