=
 OpenBabel10222418033D

 58 62  0  0  1  0  0  0  0  0999 V2000
  187.0900  175.4500  143.5660 O   0  0  0  0  0  1  0  0  0  0  0  0
  190.0700  177.7380  143.1440 C   0  0  1  0  0  3  0  0  0  0  0  0
  187.9010  177.1180  142.0570 C   0  0  0  0  0  2  0  0  0  0  0  0
  189.3950  176.8250  142.1160 C   0  0  0  0  0  2  0  0  0  0  0  0
  188.0300  177.3900  144.5460 C   0  0  0  0  0  0  0  0  0  0  0  0
  188.7490  178.4110  147.8230 O   0  0  0  0  0  0  0  0  0  0  0  0
  188.6940  178.1070  146.6000 C   0  0  0  0  0  0  0  0  0  0  0  0
  189.3330  177.6810  144.4750 C   0  0  0  0  0  0  0  0  0  0  0  0
  189.8090  178.1760  145.7270 N   0  0  0  0  0  0  0  0  0  0  0  0
  187.2390  176.8220  143.4000 C   0  0  2  0  0  3  0  0  0  0  0  0
  187.4690  177.6140  145.9160 C   0  0  1  0  0  3  0  0  0  0  0  0
  185.1720  178.4180  145.7320 C   0  0  0  0  0  0  0  0  0  0  0  0
  186.4370  178.6940  145.8950 C   0  0  0  0  0  3  0  0  0  0  0  0
  183.9080  178.1430  145.5460 C   0  0  0  0  0  3  0  0  0  0  0  0
  181.1250  179.3310  143.2970 C   0  0  0  0  0  3  0  0  0  0  0  0
  183.1680  178.5960  144.3740 C   0  0  0  0  0  0  0  0  0  0  0  0
  181.7810  179.3660  142.0600 C   0  0  0  0  0  3  0  0  0  0  0  0
  183.8180  178.6500  143.1370 C   0  0  0  0  0  3  0  0  0  0  0  0
  181.8160  178.9490  144.4500 C   0  0  0  0  0  3  0  0  0  0  0  0
  183.1320  179.0350  141.9730 C   0  0  0  0  0  0  0  0  0  0  0  0
  183.7700  179.0300  140.6880 N   0  0  0  0  0  2  0  0  0  0  0  0
  183.7030  177.9740  139.7240 C   0  0  0  0  0  0  0  0  0  0  0  0
  184.0520  178.2590  138.3630 N   0  0  0  0  0  2  0  0  0  0  0  0
  183.3370  176.8210  140.0680 O   0  0  0  0  0  0  0  0  0  0  0  0
  184.2910  177.3090  137.3190 C   0  0  0  0  0  0  0  0  0  0  0  0
  184.1530  174.8280  136.5910 C   0  0  0  0  0  2  0  0  0  0  0  0
  185.3490  177.4920  136.5310 C   0  0  0  0  0  3  0  0  0  0  0  0
  185.5790  175.0980  136.0740 C   0  0  0  0  0  2  0  0  0  0  0  0
  185.6880  176.4960  135.4710 C   0  0  2  0  0  3  0  0  0  0  0  0
  187.1040  176.7440  134.9730 C   0  0  0  0  0  1  0  0  0  0  0  0
  183.4160  176.0780  137.1430 C   0  0  2  0  0  3  0  0  0  0  0  0
  181.7850  175.3020  135.5420 O   0  0  0  0  0  1  0  0  0  0  0  0
  182.1780  176.3970  136.3040 C   0  0  1  0  0  3  0  0  0  0  0  0
  181.1170  176.7790  137.1310 O   0  0  0  0  0  0  0  0  0  0  0  0
  180.8240  175.6440  137.8730 C   0  0  0  0  0  1  0  0  0  0  0  0
  191.5880  177.5270  143.2460 C   0  0  2  0  0  3  0  0  0  0  0  0
  192.2040  178.7710  143.3110 O   0  0  0  0  0  1  0  0  0  0  0  0
  192.1800  176.7890  142.0490 C   0  0  0  0  0  2  0  0  0  0  0  0
  191.8530  177.5150  140.7550 C   0  0  0  0  0  2  0  0  0  0  0  0
  194.0170  177.1470  139.8920 O   0  0  0  0  0  0  0  0  0  0  0  0
  192.8150  177.1250  139.6710 C   0  0  0  0  0  0  0  0  0  0  0  0
  191.2970  175.5960  138.4180 C   0  0  2  0  0  3  0  0  0  0  0  0
  193.7140  176.1860  137.2640 S   0  0  0  0  0  0  0  0  0  0  0  0
  192.3180  176.7240  138.3070 C   0  0  2  0  0  3  0  0  0  0  0  0
  193.1270  174.4670  137.3220 C   0  0  1  0  0  3  0  0  0  0  0  0
  191.6190  174.5290  137.3870 C   0  0  0  0  0  2  0  0  0  0  0  0
  188.9870  175.0580  137.6580 C   0  0  0  0  0  1  0  0  0  0  0  0
  189.8600  176.1080  138.3180 C   0  0  2  0  0  3  0  0  0  0  0  0
  189.7900  177.3490  137.5630 N   0  0  0  0  0  2  0  0  0  0  0  0
  188.9140  178.4170  137.9190 C   0  0  0  0  0  0  0  0  0  0  0  0
  188.1320  178.3100  138.9030 O   0  0  0  0  0  0  0  0  0  0  0  0
  188.9210  179.6620  137.1140 C   0  0  0  0  0  1  0  0  0  0  0  0
  193.5430  173.7790  136.1770 O   0  0  0  0  0  0  0  0  0  0  0  0
  195.4160  172.6310  135.2580 C   0  0  0  0  0  1  0  0  0  0  0  0
  195.0170  172.6900  137.7010 C   0  0  0  0  0  1  0  0  0  0  0  0
  194.8820  173.4710  136.4090 C   0  0  0  0  0  3  0  0  0  0  0  0
  191.5960  176.9190  146.5270 O   0  0  0  0  0  1  0  0  0  0  0  0
  191.1830  178.2050  146.1990 C   0  0  0  0  0  2  0  0  0  0  0  0
  2 36  1  1  0  0  0
  2  8  1  0  0  0  0
  3  4  1  0  0  0  0
  3 10  1  0  0  0  0
  4  2  1  0  0  0  0
  5 11  1  0  0  0  0
  7  6  2  0  0  0  0
  8  5  2  0  0  0  0
  8  9  1  0  0  0  0
  9 58  1  0  0  0  0
  9  7  1  0  0  0  0
 10  1  1  1  0  0  0
 10  5  1  0  0  0  0
 11 13  1  6  0  0  0
 11  7  1  0  0  0  0
 12 13  2  0  0  0  0
 14 12  2  0  0  0  0
 15 19  1  0  0  0  0
 16 19  2  0  0  0  0
 16 14  1  0  0  0  0
 17 15  2  0  0  0  0
 18 16  1  0  0  0  0
 20 17  1  0  0  0  0
 20 18  2  0  0  0  0
 21 20  1  0  0  0  0
 22 24  2  0  0  0  0
 22 21  1  0  0  0  0
 23 22  1  0  0  0  0
 25 23  1  0  0  0  0
 26 31  1  0  0  0  0
 27 25  2  0  0  0  0
 28 26  1  0  0  0  0
 29 30  1  1  0  0  0
 29 28  1  0  0  0  0
 29 27  1  0  0  0  0
 31 33  1  6  0  0  0
 31 25  1  0  0  0  0
 33 32  1  1  0  0  0
 33 34  1  0  0  0  0
 34 35  1  0  0  0  0
 36 37  1  6  0  0  0
 38 36  1  0  0  0  0
 39 38  1  0  0  0  0
 41 40  2  0  0  0  0
 41 39  1  0  0  0  0
 42 48  1  6  0  0  0
 43 45  1  0  0  0  0
 43 44  1  0  0  0  0
 44 42  1  0  0  0  0
 44 41  1  1  0  0  0
 45 53  1  6  0  0  0
 45 46  1  0  0  0  0
 46 42  1  0  0  0  0
 48 47  1  6  0  0  0
 49 50  1  0  0  0  0
 49 48  1  0  0  0  0
 50 51  2  0  0  0  0
 52 50  1  0  0  0  0
 53 56  1  0  0  0  0
 54 56  1  0  0  0  0
 56 55  1  0  0  0  0
 58 57  1  0  0  0  0
M  END
>  <MODEL>
1

>  <REMARK>
 VINA RESULT:      -6.3      0.000      0.000
  Name = 
  16 active torsions:
  status: ('A' for Active; 'I' for Inactive)
    1  A    between atoms: C_1  and  N_32
    2  A    between atoms: C_4  and  C_22
    3  A    between atoms: C_4  and  C_28
    4  A    between atoms: N_7  and  C_54
    5  A    between atoms: C_8  and  C_11
    6  A    between atoms: C_8  and  C_22
    7  A    between atoms: C_10  and  C_50
    8  A    between atoms: C_14  and  N_44
    9  A    between atoms: O_17  and  C_34
   10  A    between atoms: C_20  and  C_55
   11  A    between atoms: N_27  and  C_55
   12  A    between atoms: C_28  and  C_38
   13  A    between atoms: C_29  and  C_56
   14  A    between atoms: C_34  and  C_58
   15  A    between atoms: O_39  and  C_48
   16  A    between atoms: O_39  and  C_49
                            x       y       z     vdW  Elec       q    Type
                         _______ _______ _______ _____ _____    ______ ____

>  <TORSDO>
F 16

$$$$
=
 OpenBabel10222418033D

 58 62  0  0  1  0  0  0  0  0999 V2000
  187.1280  176.3470  141.8990 O   0  0  0  0  0  1  0  0  0  0  0  0
  189.0420  178.6330  139.5740 C   0  0  1  0  0  3  0  0  0  0  0  0
  187.0610  178.6010  141.1050 C   0  0  0  0  0  2  0  0  0  0  0  0
  187.5330  178.3910  139.6710 C   0  0  0  0  0  2  0  0  0  0  0  0
  189.2000  177.4890  141.7900 C   0  0  0  0  0  0  0  0  0  0  0  0
  192.5470  176.6050  142.3470 O   0  0  0  0  0  0  0  0  0  0  0  0
  191.4160  177.0100  141.9610 C   0  0  0  0  0  0  0  0  0  0  0  0
  189.7810  177.8300  140.6360 C   0  0  0  0  0  0  0  0  0  0  0  0
  191.1870  177.5910  140.6890 N   0  0  0  0  0  0  0  0  0  0  0  0
  187.7210  177.5960  142.0430 C   0  0  2  0  0  3  0  0  0  0  0  0
  190.1730  176.9100  142.7700 C   0  0  1  0  0  3  0  0  0  0  0  0
  189.7090  177.4610  145.1020 C   0  0  0  0  0  0  0  0  0  0  0  0
  190.2900  177.7820  143.9780 C   0  0  0  0  0  3  0  0  0  0  0  0
  189.1080  177.1510  146.2210 C   0  0  0  0  0  3  0  0  0  0  0  0
  187.1640  179.4100  148.5310 C   0  0  0  0  0  3  0  0  0  0  0  0
  188.0430  177.9650  146.7940 C   0  0  0  0  0  0  0  0  0  0  0  0
  185.9180  179.4330  147.8900 C   0  0  0  0  0  3  0  0  0  0  0  0
  186.8000  178.0080  146.1540 C   0  0  0  0  0  3  0  0  0  0  0  0
  188.2230  178.6800  147.9830 C   0  0  0  0  0  3  0  0  0  0  0  0
  185.7300  178.7410  146.6960 C   0  0  0  0  0  0  0  0  0  0  0  0
  184.4330  178.7400  146.0850 N   0  0  0  0  0  2  0  0  0  0  0  0
  184.1680  178.8590  144.6830 C   0  0  0  0  0  0  0  0  0  0  0  0
  182.8830  178.4580  144.1860 N   0  0  0  0  0  2  0  0  0  0  0  0
  185.0510  179.3030  143.9040 O   0  0  0  0  0  0  0  0  0  0  0  0
  182.3400  178.7280  142.8900 C   0  0  0  0  0  0  0  0  0  0  0  0
  180.4430  178.2240  141.2010 C   0  0  0  0  0  2  0  0  0  0  0  0
  183.1860  178.9550  141.8870 C   0  0  0  0  0  3  0  0  0  0  0  0
  181.6140  178.1180  140.2070 C   0  0  0  0  0  2  0  0  0  0  0  0
  182.6790  179.1720  140.4990 C   0  0  2  0  0  3  0  0  0  0  0  0
  183.8290  179.0460  139.5110 C   0  0  0  0  0  1  0  0  0  0  0  0
  180.8430  178.6910  142.6270 C   0  0  2  0  0  3  0  0  0  0  0  0
  180.0310  180.8210  141.8330 O   0  0  0  0  0  1  0  0  0  0  0  0
  180.1890  180.0300  142.9670 C   0  0  1  0  0  3  0  0  0  0  0  0
  178.9370  179.8240  143.5550 O   0  0  0  0  0  0  0  0  0  0  0  0
  179.1810  178.9500  144.6040 C   0  0  0  0  0  1  0  0  0  0  0  0
  189.5970  178.4690  138.1500 C   0  0  2  0  0  3  0  0  0  0  0  0
  189.1690  179.5460  137.3830 O   0  0  0  0  0  1  0  0  0  0  0  0
  189.1210  177.1970  137.4560 C   0  0  0  0  0  2  0  0  0  0  0  0
  188.7670  177.4780  136.0050 C   0  0  0  0  0  2  0  0  0  0  0  0
  186.6460  178.0880  135.1720 O   0  0  0  0  0  0  0  0  0  0  0  0
  187.3040  177.2430  135.7610 C   0  0  0  0  0  0  0  0  0  0  0  0
  186.2730  175.0800  135.0770 C   0  0  2  0  0  3  0  0  0  0  0  0
  185.1250  176.4040  137.1870 S   0  0  0  0  0  0  0  0  0  0  0  0
  186.6330  175.9860  136.2500 C   0  0  2  0  0  3  0  0  0  0  0  0
  184.0840  175.7270  135.8610 C   0  0  1  0  0  3  0  0  0  0  0  0
  184.8520  174.5750  135.2550 C   0  0  0  0  0  2  0  0  0  0  0  0
  186.5640  172.6210  134.8040 C   0  0  0  0  0  1  0  0  0  0  0  0
  187.2870  173.9520  134.8880 C   0  0  2  0  0  3  0  0  0  0  0  0
  188.2520  173.9180  135.9760 N   0  0  0  0  0  2  0  0  0  0  0  0
  189.6500  173.7380  135.7580 C   0  0  0  0  0  0  0  0  0  0  0  0
  190.1050  173.5680  134.5940 O   0  0  0  0  0  0  0  0  0  0  0  0
  190.5730  173.7420  136.9180 C   0  0  0  0  0  1  0  0  0  0  0  0
  182.8650  175.2840  136.3870 O   0  0  0  0  0  0  0  0  0  0  0  0
  180.8170  176.0790  137.3020 C   0  0  0  0  0  1  0  0  0  0  0  0
  181.9850  177.3140  135.5020 C   0  0  0  0  0  1  0  0  0  0  0  0
  182.1780  176.4460  136.7300 C   0  0  0  0  0  3  0  0  0  0  0  0
  193.4080  177.5720  139.9950 O   0  0  0  0  0  1  0  0  0  0  0  0
  192.0950  177.4220  139.5660 C   0  0  0  0  0  2  0  0  0  0  0  0
  2 36  1  6  0  0  0
  2  4  1  0  0  0  0
  2  8  1  0  0  0  0
  3 10  1  0  0  0  0
  4  3  1  0  0  0  0
  5 10  1  0  0  0  0
  5 11  1  0  0  0  0
  7  6  2  0  0  0  0
  7 11  1  0  0  0  0
  8  9  1  0  0  0  0
  8  5  2  0  0  0  0
  9  7  1  0  0  0  0
 10  1  1  6  0  0  0
 11 13  1  1  0  0  0
 12 14  2  0  0  0  0
 13 12  2  0  0  0  0
 14 16  1  0  0  0  0
 16 19  2  0  0  0  0
 17 15  2  0  0  0  0
 18 20  2  0  0  0  0
 18 16  1  0  0  0  0
 19 15  1  0  0  0  0
 20 17  1  0  0  0  0
 21 20  1  0  0  0  0
 22 21  1  0  0  0  0
 23 22  1  0  0  0  0
 24 22  2  0  0  0  0
 25 23  1  0  0  0  0
 26 31  1  0  0  0  0
 27 25  2  0  0  0  0
 28 29  1  0  0  0  0
 28 26  1  0  0  0  0
 29 30  1  6  0  0  0
 29 27  1  0  0  0  0
 31 25  1  0  0  0  0
 31 33  1  6  0  0  0
 33 32  1  6  0  0  0
 33 34  1  0  0  0  0
 34 35  1  0  0  0  0
 36 37  1  6  0  0  0
 38 36  1  0  0  0  0
 39 38  1  0  0  0  0
 40 41  2  0  0  0  0
 41 39  1  0  0  0  0
 42 48  1  1  0  0  0
 42 46  1  0  0  0  0
 42 44  1  0  0  0  0
 44 41  1  6  0  0  0
 44 43  1  0  0  0  0
 45 53  1  1  0  0  0
 45 43  1  0  0  0  0
 46 45  1  0  0  0  0
 48 47  1  1  0  0  0
 48 49  1  0  0  0  0
 50 49  1  0  0  0  0
 50 52  1  0  0  0  0
 51 50  2  0  0  0  0
 53 56  1  0  0  0  0
 55 56  1  0  0  0  0
 56 54  1  0  0  0  0
 58 57  1  0  0  0  0
 58  9  1  0  0  0  0
M  END
>  <MODEL>
2

>  <REMARK>
 VINA RESULT:      -6.2      2.644      6.777
  Name = 
  16 active torsions:
  status: ('A' for Active; 'I' for Inactive)
    1  A    between atoms: C_1  and  N_32
    2  A    between atoms: C_4  and  C_22
    3  A    between atoms: C_4  and  C_28
    4  A    between atoms: N_7  and  C_54
    5  A    between atoms: C_8  and  C_11
    6  A    between atoms: C_8  and  C_22
    7  A    between atoms: C_10  and  C_50
    8  A    between atoms: C_14  and  N_44
    9  A    between atoms: O_17  and  C_34
   10  A    between atoms: C_20  and  C_55
   11  A    between atoms: N_27  and  C_55
   12  A    between atoms: C_28  and  C_38
   13  A    between atoms: C_29  and  C_56
   14  A    between atoms: C_34  and  C_58
   15  A    between atoms: O_39  and  C_48
   16  A    between atoms: O_39  and  C_49
                            x       y       z     vdW  Elec       q    Type
                         _______ _______ _______ _____ _____    ______ ____

>  <TORSDO>
F 16

$$$$
=
 OpenBabel10222418033D

 58 62  0  0  1  0  0  0  0  0999 V2000
  187.5240  175.6520  142.7010 O   0  0  0  0  0  1  0  0  0  0  0  0
  188.9810  178.2900  140.4190 C   0  0  1  0  0  3  0  0  0  0  0  0
  187.1260  177.9200  142.0600 C   0  0  0  0  0  2  0  0  0  0  0  0
  187.5220  177.8540  140.5900 C   0  0  0  0  0  2  0  0  0  0  0  0
  189.4270  177.0520  142.5430 C   0  0  0  0  0  0  0  0  0  0  0  0
  192.8880  176.5710  142.8400 O   0  0  0  0  0  0  0  0  0  0  0  0
  191.6930  176.8490  142.5490 C   0  0  0  0  0  0  0  0  0  0  0  0
  189.8830  177.5300  141.3810 C   0  0  0  0  0  0  0  0  0  0  0  0
  191.3080  177.4680  141.3330 N   0  0  0  0  0  0  0  0  0  0  0  0
  187.9670  176.9560  142.8910 C   0  0  2  0  0  3  0  0  0  0  0  0
  190.5290  176.5470  143.4230 C   0  0  1  0  0  3  0  0  0  0  0  0
  189.8570  177.0980  145.7040 C   0  0  0  0  0  0  0  0  0  0  0  0
  190.6190  177.3560  144.6760 C   0  0  0  0  0  3  0  0  0  0  0  0
  189.0800  176.8530  146.7250 C   0  0  0  0  0  3  0  0  0  0  0  0
  187.2870  179.4290  148.8150 C   0  0  0  0  0  3  0  0  0  0  0  0
  188.0820  177.8050  147.2020 C   0  0  0  0  0  0  0  0  0  0  0  0
  186.0810  179.5460  148.1130 C   0  0  0  0  0  3  0  0  0  0  0  0
  186.8810  177.9410  146.4990 C   0  0  0  0  0  3  0  0  0  0  0  0
  188.2860  178.5630  148.3600 C   0  0  0  0  0  3  0  0  0  0  0  0
  185.8730  178.8110  146.9480 C   0  0  0  0  0  0  0  0  0  0  0  0
  184.6110  178.9100  146.2740 N   0  0  0  0  0  2  0  0  0  0  0  0
  184.4140  178.8700  144.8570 C   0  0  0  0  0  0  0  0  0  0  0  0
  183.1010  178.5910  144.3490 N   0  0  0  0  0  2  0  0  0  0  0  0
  185.3790  179.0700  144.0740 O   0  0  0  0  0  0  0  0  0  0  0  0
  182.6480  178.7530  143.0010 C   0  0  0  0  0  0  0  0  0  0  0  0
  180.9470  178.0100  141.1960 C   0  0  0  0  0  2  0  0  0  0  0  0
  183.5540  179.0060  142.0590 C   0  0  0  0  0  3  0  0  0  0  0  0
  182.2030  177.9600  140.3050 C   0  0  0  0  0  2  0  0  0  0  0  0
  183.1480  179.1140  140.6250 C   0  0  2  0  0  3  0  0  0  0  0  0
  184.3830  179.0430  139.7390 C   0  0  0  0  0  1  0  0  0  0  0  0
  181.1860  178.5740  142.6220 C   0  0  2  0  0  3  0  0  0  0  0  0
  180.2270  180.5620  141.6450 O   0  0  0  0  0  1  0  0  0  0  0  0
  180.3990  179.8670  142.8380 C   0  0  1  0  0  3  0  0  0  0  0  0
  179.1420  179.5850  143.3830 O   0  0  0  0  0  0  0  0  0  0  0  0
  179.4090  178.7850  144.4850 C   0  0  0  0  0  1  0  0  0  0  0  0
  189.4540  178.2800  138.9570 C   0  0  2  0  0  3  0  0  0  0  0  0
  188.9790  179.4260  138.3300 O   0  0  0  0  0  1  0  0  0  0  0  0
  188.9440  177.0820  138.1620 C   0  0  0  0  0  2  0  0  0  0  0  0
  189.8710  176.7750  136.9980 C   0  0  0  0  0  2  0  0  0  0  0  0
  190.7640  175.1190  138.4210 O   0  0  0  0  0  0  0  0  0  0  0  0
  190.6850  175.5450  137.2780 C   0  0  0  0  0  0  0  0  0  0  0  0
  191.4820  173.3390  136.4370 C   0  0  2  0  0  3  0  0  0  0  0  0
  193.1120  175.5040  136.0170 S   0  0  0  0  0  0  0  0  0  0  0  0
  191.4210  174.8390  136.1700 C   0  0  2  0  0  3  0  0  0  0  0  0
  193.8070  173.9510  136.6540 C   0  0  1  0  0  3  0  0  0  0  0  0
  192.8940  172.8440  136.1790 C   0  0  0  0  0  2  0  0  0  0  0  0
  191.1000  171.7080  134.5940 C   0  0  0  0  0  1  0  0  0  0  0  0
  190.4260  172.5690  135.6450 C   0  0  2  0  0  3  0  0  0  0  0  0
  189.4800  173.4700  135.0070 N   0  0  0  0  0  2  0  0  0  0  0  0
  188.1440  173.6410  135.4790 C   0  0  0  0  0  0  0  0  0  0  0  0
  187.7190  172.9830  136.4670 O   0  0  0  0  0  0  0  0  0  0  0  0
  187.2480  174.6000  134.7890 C   0  0  0  0  0  1  0  0  0  0  0  0
  195.1030  173.7660  136.1600 O   0  0  0  0  0  0  0  0  0  0  0  0
  197.3560  174.4580  136.4990 C   0  0  0  0  0  1  0  0  0  0  0  0
  195.8280  174.0750  138.4090 C   0  0  0  0  0  1  0  0  0  0  0  0
  195.9130  174.5540  136.9740 C   0  0  0  0  0  3  0  0  0  0  0  0
  193.3240  178.1790  140.4130 O   0  0  0  0  0  1  0  0  0  0  0  0
  192.1520  177.4800  140.1500 C   0  0  0  0  0  2  0  0  0  0  0  0
  2 36  1  6  0  0  0
  2  4  1  0  0  0  0
  2  8  1  0  0  0  0
  3 10  1  0  0  0  0
  4  3  1  0  0  0  0
  5 10  1  0  0  0  0
  5 11  1  0  0  0  0
  7  6  2  0  0  0  0
  7 11  1  0  0  0  0
  8  5  2  0  0  0  0
  9  8  1  0  0  0  0
  9  7  1  0  0  0  0
 10  1  1  6  0  0  0
 11 13  1  1  0  0  0
 12 14  2  0  0  0  0
 13 12  2  0  0  0  0
 14 16  1  0  0  0  0
 16 19  2  0  0  0  0
 17 15  2  0  0  0  0
 18 20  2  0  0  0  0
 18 16  1  0  0  0  0
 19 15  1  0  0  0  0
 20 17  1  0  0  0  0
 21 20  1  0  0  0  0
 22 21  1  0  0  0  0
 23 22  1  0  0  0  0
 24 22  2  0  0  0  0
 25 23  1  0  0  0  0
 26 31  1  0  0  0  0
 27 25  2  0  0  0  0
 28 29  1  0  0  0  0
 28 26  1  0  0  0  0
 29 30  1  6  0  0  0
 29 27  1  0  0  0  0
 31 33  1  6  0  0  0
 31 25  1  0  0  0  0
 33 32  1  6  0  0  0
 33 34  1  0  0  0  0
 34 35  1  0  0  0  0
 36 37  1  6  0  0  0
 38 36  1  0  0  0  0
 39 41  1  0  0  0  0
 39 38  1  0  0  0  0
 41 40  2  0  0  0  0
 42 48  1  6  0  0  0
 43 44  1  0  0  0  0
 43 45  1  0  0  0  0
 44 42  1  0  0  0  0
 44 41  1  1  0  0  0
 45 53  1  6  0  0  0
 46 42  1  0  0  0  0
 46 45  1  0  0  0  0
 48 47  1  6  0  0  0
 49 50  1  0  0  0  0
 49 48  1  0  0  0  0
 50 51  2  0  0  0  0
 52 50  1  0  0  0  0
 53 56  1  0  0  0  0
 54 56  1  0  0  0  0
 56 55  1  0  0  0  0
 58 57  1  0  0  0  0
 58  9  1  0  0  0  0
M  END
>  <MODEL>
3

>  <REMARK>
 VINA RESULT:      -5.8      2.649      5.138
  Name = 
  16 active torsions:
  status: ('A' for Active; 'I' for Inactive)
    1  A    between atoms: C_1  and  N_32
    2  A    between atoms: C_4  and  C_22
    3  A    between atoms: C_4  and  C_28
    4  A    between atoms: N_7  and  C_54
    5  A    between atoms: C_8  and  C_11
    6  A    between atoms: C_8  and  C_22
    7  A    between atoms: C_10  and  C_50
    8  A    between atoms: C_14  and  N_44
    9  A    between atoms: O_17  and  C_34
   10  A    between atoms: C_20  and  C_55
   11  A    between atoms: N_27  and  C_55
   12  A    between atoms: C_28  and  C_38
   13  A    between atoms: C_29  and  C_56
   14  A    between atoms: C_34  and  C_58
   15  A    between atoms: O_39  and  C_48
   16  A    between atoms: O_39  and  C_49
                            x       y       z     vdW  Elec       q    Type
                         _______ _______ _______ _____ _____    ______ ____

>  <TORSDO>
F 16

$$$$
=
 OpenBabel10222418033D

 58 62  0  0  1  0  0  0  0  0999 V2000
  187.9180  176.3130  138.2920 O   0  0  0  0  0  1  0  0  0  0  0  0
  191.2940  177.6560  139.3380 C   0  0  1  0  0  3  0  0  0  0  0  0
  189.3740  178.1460  137.8060 C   0  0  0  0  0  2  0  0  0  0  0  0
  190.7240  177.4510  137.9300 C   0  0  0  0  0  2  0  0  0  0  0  0
  188.9480  177.3620  140.1490 C   0  0  0  0  0  0  0  0  0  0  0  0
  189.0360  176.7570  143.6020 O   0  0  0  0  0  0  0  0  0  0  0  0
  189.2210  176.9910  142.3760 C   0  0  0  0  0  0  0  0  0  0  0  0
  190.2600  177.2830  140.3920 C   0  0  0  0  0  0  0  0  0  0  0  0
  190.5050  177.0890  141.7850 N   0  0  0  0  0  0  0  0  0  0  0  0
  188.3630  177.5390  138.7740 C   0  0  2  0  0  3  0  0  0  0  0  0
  188.1260  177.1710  141.3860 C   0  0  1  0  0  3  0  0  0  0  0  0
  186.4560  178.4230  142.6520 C   0  0  0  0  0  0  0  0  0  0  0  0
  187.3570  178.4110  141.7080 C   0  0  0  0  0  3  0  0  0  0  0  0
  185.5390  178.4290  143.5820 C   0  0  0  0  0  3  0  0  0  0  0  0
  181.8620  179.1560  143.9990 C   0  0  0  0  0  3  0  0  0  0  0  0
  184.1270  178.6590  143.2940 C   0  0  0  0  0  0  0  0  0  0  0  0
  181.4100  178.9930  142.6840 C   0  0  0  0  0  3  0  0  0  0  0  0
  183.6680  178.5130  141.9810 C   0  0  0  0  0  3  0  0  0  0  0  0
  183.2170  178.9920  144.3030 C   0  0  0  0  0  3  0  0  0  0  0  0
  182.3080  178.6790  141.6660 C   0  0  0  0  0  0  0  0  0  0  0  0
  181.8140  178.4680  140.3360 N   0  0  0  0  0  2  0  0  0  0  0  0
  181.8570  177.2330  139.6150 C   0  0  0  0  0  0  0  0  0  0  0  0
  180.9970  177.0670  138.4780 N   0  0  0  0  0  2  0  0  0  0  0  0
  182.6310  176.3090  139.9770 O   0  0  0  0  0  0  0  0  0  0  0  0
  181.0660  176.0330  137.4910 C   0  0  0  0  0  0  0  0  0  0  0  0
  180.8110  175.4220  134.9870 C   0  0  0  0  0  2  0  0  0  0  0  0
  180.6900  174.8040  137.8390 C   0  0  0  0  0  3  0  0  0  0  0  0
  180.0250  174.2260  135.5550 C   0  0  0  0  0  2  0  0  0  0  0  0
  180.6740  173.7000  136.8330 C   0  0  2  0  0  3  0  0  0  0  0  0
  179.8790  172.5230  137.3800 C   0  0  0  0  0  1  0  0  0  0  0  0
  181.4860  176.3210  136.0580 C   0  0  2  0  0  3  0  0  0  0  0  0
  183.6110  177.2770  136.6920 O   0  0  0  0  0  1  0  0  0  0  0  0
  183.0080  176.2940  135.9140 C   0  0  1  0  0  3  0  0  0  0  0  0
  183.5090  175.0450  136.2920 O   0  0  0  0  0  0  0  0  0  0  0  0
  184.7000  175.3260  136.9460 C   0  0  0  0  0  1  0  0  0  0  0  0
  192.6730  177.0090  139.5400 C   0  0  2  0  0  3  0  0  0  0  0  0
  193.5180  177.9450  140.1230 O   0  0  0  0  0  1  0  0  0  0  0  0
  193.3260  176.5530  138.2390 C   0  0  0  0  0  2  0  0  0  0  0  0
  193.5250  175.0470  138.2380 C   0  0  0  0  0  2  0  0  0  0  0  0
  195.7950  174.8360  138.8430 O   0  0  0  0  0  0  0  0  0  0  0  0
  194.9600  174.7020  137.9610 C   0  0  0  0  0  0  0  0  0  0  0  0
  194.2590  173.4250  135.9390 C   0  0  2  0  0  3  0  0  0  0  0  0
  196.8630  173.1490  136.7550 S   0  0  0  0  0  0  0  0  0  0  0  0
  195.3860  174.2090  136.6030 C   0  0  2  0  0  3  0  0  0  0  0  0
  195.8850  171.6820  136.3170 C   0  0  1  0  0  3  0  0  0  0  0  0
  194.8230  172.1450  135.3470 C   0  0  0  0  0  2  0  0  0  0  0  0
  194.2730  175.5320  134.6110 C   0  0  0  0  0  1  0  0  0  0  0  0
  193.4950  174.2670  134.9180 C   0  0  2  0  0  3  0  0  0  0  0  0
  192.1680  174.6130  135.4020 N   0  0  0  0  0  2  0  0  0  0  0  0
  191.1660  173.6330  135.6670 C   0  0  0  0  0  0  0  0  0  0  0  0
  191.3890  172.4090  135.4580 O   0  0  0  0  0  0  0  0  0  0  0  0
  189.8460  174.0650  136.1850 C   0  0  0  0  0  1  0  0  0  0  0  0
  196.7070  170.7170  135.7240 O   0  0  0  0  0  0  0  0  0  0  0  0
  195.4220  169.6730  137.4350 C   0  0  0  0  0  1  0  0  0  0  0  0
  197.8940  169.7410  137.5460 C   0  0  0  0  0  1  0  0  0  0  0  0
  196.7020  169.6450  136.6140 C   0  0  0  0  0  3  0  0  0  0  0  0
  192.0790  177.3360  143.4810 O   0  0  0  0  0  1  0  0  0  0  0  0
  191.7030  176.5450  142.4010 C   0  0  0  0  0  2  0  0  0  0  0  0
  2 36  1  6  0  0  0
  2  8  1  0  0  0  0
  3  4  1  0  0  0  0
  3 10  1  0  0  0  0
  4  2  1  0  0  0  0
  5  8  2  0  0  0  0
  5 11  1  0  0  0  0
  7  6  2  0  0  0  0
  8  9  1  0  0  0  0
  9  7  1  0  0  0  0
  9 58  1  0  0  0  0
 10  1  1  6  0  0  0
 10  5  1  0  0  0  0
 11 13  1  1  0  0  0
 11  7  1  0  0  0  0
 12 14  2  0  0  0  0
 13 12  2  0  0  0  0
 15 19  1  0  0  0  0
 16 14  1  0  0  0  0
 16 19  2  0  0  0  0
 17 15  2  0  0  0  0
 18 16  1  0  0  0  0
 20 18  2  0  0  0  0
 20 17  1  0  0  0  0
 21 20  1  0  0  0  0
 22 24  2  0  0  0  0
 22 21  1  0  0  0  0
 23 22  1  0  0  0  0
 25 27  2  0  0  0  0
 25 23  1  0  0  0  0
 26 28  1  0  0  0  0
 26 31  1  0  0  0  0
 28 29  1  0  0  0  0
 29 30  1  1  0  0  0
 29 27  1  0  0  0  0
 31 33  1  1  0  0  0
 31 25  1  0  0  0  0
 33 34  1  0  0  0  0
 33 32  1  1  0  0  0
 34 35  1  0  0  0  0
 36 37  1  6  0  0  0
 38 36  1  0  0  0  0
 39 38  1  0  0  0  0
 41 39  1  0  0  0  0
 41 40  2  0  0  0  0
 42 48  1  6  0  0  0
 42 44  1  0  0  0  0
 44 43  1  0  0  0  0
 44 41  1  1  0  0  0
 45 53  1  6  0  0  0
 45 43  1  0  0  0  0
 46 42  1  0  0  0  0
 46 45  1  0  0  0  0
 48 47  1  1  0  0  0
 48 49  1  0  0  0  0
 49 50  1  0  0  0  0
 50 52  1  0  0  0  0
 51 50  2  0  0  0  0
 53 56  1  0  0  0  0
 56 54  1  0  0  0  0
 56 55  1  0  0  0  0
 58 57  1  0  0  0  0
M  END
>  <MODEL>
4

>  <REMARK>
 VINA RESULT:      -5.7      2.170      4.166
  Name = 
  16 active torsions:
  status: ('A' for Active; 'I' for Inactive)
    1  A    between atoms: C_1  and  N_32
    2  A    between atoms: C_4  and  C_22
    3  A    between atoms: C_4  and  C_28
    4  A    between atoms: N_7  and  C_54
    5  A    between atoms: C_8  and  C_11
    6  A    between atoms: C_8  and  C_22
    7  A    between atoms: C_10  and  C_50
    8  A    between atoms: C_14  and  N_44
    9  A    between atoms: O_17  and  C_34
   10  A    between atoms: C_20  and  C_55
   11  A    between atoms: N_27  and  C_55
   12  A    between atoms: C_28  and  C_38
   13  A    between atoms: C_29  and  C_56
   14  A    between atoms: C_34  and  C_58
   15  A    between atoms: O_39  and  C_48
   16  A    between atoms: O_39  and  C_49
                            x       y       z     vdW  Elec       q    Type
                         _______ _______ _______ _____ _____    ______ ____

>  <TORSDO>
F 16

$$$$
=
 OpenBabel10222418033D

 58 62  0  0  1  0  0  0  0  0999 V2000
  187.4810  176.0250  142.2030 O   0  0  0  0  0  1  0  0  0  0  0  0
  189.0570  178.6160  139.9450 C   0  0  1  0  0  3  0  0  0  0  0  0
  187.1590  178.3020  141.5490 C   0  0  0  0  0  2  0  0  0  0  0  0
  187.5840  178.2200  140.0880 C   0  0  0  0  0  2  0  0  0  0  0  0
  189.4250  177.3720  142.0820 C   0  0  0  0  0  0  0  0  0  0  0  0
  192.8640  176.7960  142.4510 O   0  0  0  0  0  0  0  0  0  0  0  0
  191.6830  177.1070  142.1350 C   0  0  0  0  0  0  0  0  0  0  0  0
  189.9180  177.8330  140.9280 C   0  0  0  0  0  0  0  0  0  0  0  0
  191.3420  177.7320  140.9100 N   0  0  0  0  0  0  0  0  0  0  0  0
  187.9560  177.3170  142.3990 C   0  0  2  0  0  3  0  0  0  0  0  0
  190.4940  176.8390  142.9850 C   0  0  1  0  0  3  0  0  0  0  0  0
  189.8950  177.3250  145.3010 C   0  0  0  0  0  0  0  0  0  0  0  0
  190.5790  177.6490  144.2380 C   0  0  0  0  0  3  0  0  0  0  0  0
  189.1930  177.0130  146.3580 C   0  0  0  0  0  3  0  0  0  0  0  0
  187.2920  179.4050  148.5680 C   0  0  0  0  0  3  0  0  0  0  0  0
  188.1460  177.8780  146.8910 C   0  0  0  0  0  0  0  0  0  0  0  0
  186.0560  179.4460  147.9120 C   0  0  0  0  0  3  0  0  0  0  0  0
  186.9130  177.9380  146.2340 C   0  0  0  0  0  3  0  0  0  0  0  0
  188.3350  178.6250  148.0590 C   0  0  0  0  0  3  0  0  0  0  0  0
  185.8600  178.7210  146.7380 C   0  0  0  0  0  0  0  0  0  0  0  0
  184.5700  178.7390  146.1110 N   0  0  0  0  0  2  0  0  0  0  0  0
  184.3260  178.8100  144.7020 C   0  0  0  0  0  0  0  0  0  0  0  0
  183.0340  178.4320  144.2060 N   0  0  0  0  0  2  0  0  0  0  0  0
  185.2330  179.1900  143.9170 O   0  0  0  0  0  0  0  0  0  0  0  0
  182.5150  178.6680  142.8920 C   0  0  0  0  0  0  0  0  0  0  0  0
  180.6530  178.1150  141.1800 C   0  0  0  0  0  2  0  0  0  0  0  0
  183.3810  178.8710  141.9010 C   0  0  0  0  0  3  0  0  0  0  0  0
  181.8440  177.9870  140.2120 C   0  0  0  0  0  2  0  0  0  0  0  0
  182.9000  179.0520  140.4980 C   0  0  2  0  0  3  0  0  0  0  0  0
  184.0690  178.9040  139.5360 C   0  0  0  0  0  1  0  0  0  0  0  0
  181.0240  178.6190  142.6010 C   0  0  2  0  0  3  0  0  0  0  0  0
  180.1970  180.7140  141.7330 O   0  0  0  0  0  1  0  0  0  0  0  0
  180.3610  179.9650  142.8940 C   0  0  1  0  0  3  0  0  0  0  0  0
  179.1100  179.7710  143.4880 O   0  0  0  0  0  0  0  0  0  0  0  0
  179.3020  178.7250  144.3790 C   0  0  0  0  0  1  0  0  0  0  0  0
  189.5600  178.5880  138.4940 C   0  0  2  0  0  3  0  0  0  0  0  0
  188.8440  179.5260  137.7600 O   0  0  0  0  0  1  0  0  0  0  0  0
  189.3720  177.2370  137.8120 C   0  0  0  0  0  2  0  0  0  0  0  0
  188.1010  177.2280  136.9790 C   0  0  0  0  0  2  0  0  0  0  0  0
  188.6540  177.7230  134.7400 O   0  0  0  0  0  0  0  0  0  0  0  0
  188.4010  176.8500  135.5580 C   0  0  0  0  0  0  0  0  0  0  0  0
  187.8430  174.5180  136.2390 C   0  0  2  0  0  3  0  0  0  0  0  0
  190.0560  174.8660  134.6570 S   0  0  0  0  0  0  0  0  0  0  0  0
  188.3780  175.4080  135.1220 C   0  0  2  0  0  3  0  0  0  0  0  0
  190.1430  173.7960  136.1220 C   0  0  1  0  0  3  0  0  0  0  0  0
  188.7390  173.3000  136.3780 C   0  0  0  0  0  2  0  0  0  0  0  0
  185.5550  174.6450  137.2140 C   0  0  0  0  0  1  0  0  0  0  0  0
  186.3730  174.1570  136.0340 C   0  0  2  0  0  3  0  0  0  0  0  0
  186.1960  172.7220  135.8750 N   0  0  0  0  0  2  0  0  0  0  0  0
  184.9510  172.1380  135.4950 C   0  0  0  0  0  0  0  0  0  0  0  0
  183.9310  172.8560  135.3080 O   0  0  0  0  0  0  0  0  0  0  0  0
  184.8590  170.6680  135.3280 C   0  0  0  0  0  1  0  0  0  0  0  0
  191.0080  172.7230  135.8820 O   0  0  0  0  0  0  0  0  0  0  0  0
  193.3210  172.1710  135.7650 C   0  0  0  0  0  1  0  0  0  0  0  0
  192.5040  173.9720  137.2540 C   0  0  0  0  0  1  0  0  0  0  0  0
  192.2870  173.2750  135.9260 C   0  0  0  0  0  3  0  0  0  0  0  0
  192.2550  176.4370  139.2070 O   0  0  0  0  0  1  0  0  0  0  0  0
  192.2100  177.7170  139.7450 C   0  0  0  0  0  2  0  0  0  0  0  0
  2 36  1  6  0  0  0
  2  4  1  0  0  0  0
  2  8  1  0  0  0  0
  3 10  1  0  0  0  0
  4  3  1  0  0  0  0
  5 10  1  0  0  0  0
  5 11  1  0  0  0  0
  7  6  2  0  0  0  0
  7 11  1  0  0  0  0
  8  5  2  0  0  0  0
  9  8  1  0  0  0  0
  9  7  1  0  0  0  0
 10  1  1  6  0  0  0
 11 13  1  1  0  0  0
 12 14  2  0  0  0  0
 13 12  2  0  0  0  0
 14 16  1  0  0  0  0
 16 19  2  0  0  0  0
 17 15  2  0  0  0  0
 18 20  2  0  0  0  0
 18 16  1  0  0  0  0
 19 15  1  0  0  0  0
 20 17  1  0  0  0  0
 21 20  1  0  0  0  0
 22 21  1  0  0  0  0
 23 22  1  0  0  0  0
 24 22  2  0  0  0  0
 25 23  1  0  0  0  0
 26 31  1  0  0  0  0
 27 25  2  0  0  0  0
 28 29  1  0  0  0  0
 28 26  1  0  0  0  0
 29 30  1  6  0  0  0
 29 27  1  0  0  0  0
 31 25  1  0  0  0  0
 31 33  1  6  0  0  0
 33 32  1  6  0  0  0
 33 34  1  0  0  0  0
 34 35  1  0  0  0  0
 36 37  1  6  0  0  0
 38 36  1  0  0  0  0
 39 38  1  0  0  0  0
 40 41  2  0  0  0  0
 41 39  1  0  0  0  0
 42 48  1  6  0  0  0
 42 46  1  0  0  0  0
 43 44  1  0  0  0  0
 43 45  1  0  0  0  0
 44 41  1  1  0  0  0
 44 42  1  0  0  0  0
 45 53  1  6  0  0  0
 45 46  1  0  0  0  0
 48 47  1  1  0  0  0
 49 48  1  0  0  0  0
 50 49  1  0  0  0  0
 51 50  2  0  0  0  0
 52 50  1  0  0  0  0
 53 56  1  0  0  0  0
 54 56  1  0  0  0  0
 56 55  1  0  0  0  0
 57 58  1  0  0  0  0
 58  9  1  0  0  0  0
M  END
>  <MODEL>
5

>  <REMARK>
 VINA RESULT:      -5.7      2.529      5.643
  Name = 
  16 active torsions:
  status: ('A' for Active; 'I' for Inactive)
    1  A    between atoms: C_1  and  N_32
    2  A    between atoms: C_4  and  C_22
    3  A    between atoms: C_4  and  C_28
    4  A    between atoms: N_7  and  C_54
    5  A    between atoms: C_8  and  C_11
    6  A    between atoms: C_8  and  C_22
    7  A    between atoms: C_10  and  C_50
    8  A    between atoms: C_14  and  N_44
    9  A    between atoms: O_17  and  C_34
   10  A    between atoms: C_20  and  C_55
   11  A    between atoms: N_27  and  C_55
   12  A    between atoms: C_28  and  C_38
   13  A    between atoms: C_29  and  C_56
   14  A    between atoms: C_34  and  C_58
   15  A    between atoms: O_39  and  C_48
   16  A    between atoms: O_39  and  C_49
                            x       y       z     vdW  Elec       q    Type
                         _______ _______ _______ _____ _____    ______ ____

>  <TORSDO>
F 16

$$$$
=
 OpenBabel10222418033D

 58 62  0  0  1  0  0  0  0  0999 V2000
  188.9860  177.9100  135.8320 O   0  0  0  0  0  1  0  0  0  0  0  0
  189.1340  176.9690  139.4910 C   0  0  1  0  0  3  0  0  0  0  0  0
  187.6860  176.7400  137.4610 C   0  0  0  0  0  2  0  0  0  0  0  0
  187.9810  177.5860  138.6940 C   0  0  0  0  0  2  0  0  0  0  0  0
  190.1690  176.4510  137.2750 C   0  0  0  0  0  0  0  0  0  0  0  0
  193.5500  175.6740  137.7850 O   0  0  0  0  0  0  0  0  0  0  0  0
  192.3250  175.9760  137.8180 C   0  0  0  0  0  0  0  0  0  0  0  0
  190.3240  176.6900  138.5820 C   0  0  0  0  0  0  0  0  0  0  0  0
  191.6510  176.3740  138.9990 N   0  0  0  0  0  0  0  0  0  0  0  0
  188.8900  176.7090  136.5260 C   0  0  2  0  0  3  0  0  0  0  0  0
  191.4340  175.9790  136.6280 C   0  0  1  0  0  3  0  0  0  0  0  0
  190.2720  174.2550  135.3490 C   0  0  0  0  0  0  0  0  0  0  0  0
  191.2770  174.5850  136.1140 C   0  0  0  0  0  3  0  0  0  0  0  0
  189.2540  173.9200  134.6020 C   0  0  0  0  0  3  0  0  0  0  0  0
  187.5980  170.7670  135.8400 C   0  0  0  0  0  3  0  0  0  0  0  0
  188.2450  172.9580  135.0310 C   0  0  0  0  0  0  0  0  0  0  0  0
  186.2460  171.1260  135.7500 C   0  0  0  0  0  3  0  0  0  0  0  0
  186.8940  173.3120  134.9600 C   0  0  0  0  0  3  0  0  0  0  0  0
  188.5940  171.6810  135.4840 C   0  0  0  0  0  3  0  0  0  0  0  0
  185.8860  172.4010  135.3180 C   0  0  0  0  0  0  0  0  0  0  0  0
  184.4960  172.7280  135.1870 N   0  0  0  0  0  2  0  0  0  0  0  0
  183.8090  173.7630  135.8990 C   0  0  0  0  0  0  0  0  0  0  0  0
  182.5480  174.2270  135.3960 N   0  0  0  0  0  2  0  0  0  0  0  0
  184.3090  174.2580  136.9420 O   0  0  0  0  0  0  0  0  0  0  0  0
  181.6010  175.0540  136.0800 C   0  0  0  0  0  0  0  0  0  0  0  0
  179.1380  175.8370  136.2340 C   0  0  0  0  0  2  0  0  0  0  0  0
  182.0150  176.2310  136.5460 C   0  0  0  0  0  3  0  0  0  0  0  0
  179.7870  177.2280  136.3600 C   0  0  0  0  0  2  0  0  0  0  0  0
  181.0550  177.1670  137.2060 C   0  0  2  0  0  3  0  0  0  0  0  0
  181.6830  178.5490  137.3130 C   0  0  0  0  0  1  0  0  0  0  0  0
  180.1420  174.6520  136.2190 C   0  0  2  0  0  3  0  0  0  0  0  0
  179.1290  174.3530  138.3900 O   0  0  0  0  0  1  0  0  0  0  0  0
  179.9330  173.7440  137.4320 C   0  0  1  0  0  3  0  0  0  0  0  0
  179.3390  172.5410  137.0400 O   0  0  0  0  0  0  0  0  0  0  0  0
  180.2730  171.5670  137.3630 C   0  0  0  0  0  1  0  0  0  0  0  0
  189.4790  177.7480  140.7700 C   0  0  2  0  0  3  0  0  0  0  0  0
  189.3120  176.9030  141.8600 O   0  0  0  0  0  1  0  0  0  0  0  0
  188.5890  178.9660  140.9970 C   0  0  0  0  0  2  0  0  0  0  0  0
  187.9500  178.9140  142.3750 C   0  0  0  0  0  2  0  0  0  0  0  0
  185.9390  178.4640  141.2250 O   0  0  0  0  0  0  0  0  0  0  0  0
  186.5420  178.3990  142.2870 C   0  0  0  0  0  0  0  0  0  0  0  0
  185.3540  178.9310  144.4130 C   0  0  2  0  0  3  0  0  0  0  0  0
  187.0080  176.7430  144.4140 S   0  0  0  0  0  0  0  0  0  0  0  0
  185.8560  177.8200  143.4960 C   0  0  2  0  0  3  0  0  0  0  0  0
  187.0820  177.9420  145.7760 C   0  0  1  0  0  3  0  0  0  0  0  0
  185.7240  178.5990  145.8470 C   0  0  0  0  0  2  0  0  0  0  0  0
  183.0880  178.6250  145.4000 C   0  0  0  0  0  1  0  0  0  0  0  0
  183.8610  179.1990  144.2280 C   0  0  2  0  0  3  0  0  0  0  0  0
  183.3680  178.6240  142.9870 N   0  0  0  0  0  2  0  0  0  0  0  0
  182.0260  178.8000  142.5380 C   0  0  0  0  0  0  0  0  0  0  0  0
  181.1930  179.4470  143.2300 O   0  0  0  0  0  0  0  0  0  0  0  0
  181.6070  178.2030  141.2460 C   0  0  0  0  0  1  0  0  0  0  0  0
  187.3760  177.2860  146.9770 O   0  0  0  0  0  0  0  0  0  0  0  0
  189.5530  176.3660  147.2600 C   0  0  0  0  0  1  0  0  0  0  0  0
  188.7850  178.2890  148.6170 C   0  0  0  0  0  1  0  0  0  0  0  0
  188.6980  177.6240  147.2580 C   0  0  0  0  0  3  0  0  0  0  0  0
  192.6710  178.2030  140.0130 O   0  0  0  0  0  1  0  0  0  0  0  0
  192.3440  176.8630  140.1800 C   0  0  0  0  0  2  0  0  0  0  0  0
  2 36  1  1  0  0  0
  3  4  1  0  0  0  0
  4  2  1  0  0  0  0
  5  8  2  0  0  0  0
  6  7  2  0  0  0  0
  7  9  1  0  0  0  0
  8  9  1  0  0  0  0
  8  2  1  0  0  0  0
  9 58  1  0  0  0  0
 10  1  1  1  0  0  0
 10  5  1  0  0  0  0
 10  3  1  0  0  0  0
 11 13  1  1  0  0  0
 11  5  1  0  0  0  0
 11  7  1  0  0  0  0
 12 13  2  0  0  0  0
 14 16  1  0  0  0  0
 14 12  2  0  0  0  0
 16 19  1  0  0  0  0
 17 15  1  0  0  0  0
 18 16  2  0  0  0  0
 18 20  1  0  0  0  0
 19 15  2  0  0  0  0
 20 17  2  0  0  0  0
 21 20  1  0  0  0  0
 21 22  1  0  0  0  0
 22 24  2  0  0  0  0
 23 22  1  0  0  0  0
 23 25  1  0  0  0  0
 25 31  1  0  0  0  0
 25 27  2  0  0  0  0
 26 28  1  0  0  0  0
 27 29  1  0  0  0  0
 28 29  1  0  0  0  0
 29 30  1  6  0  0  0
 31 26  1  0  0  0  0
 31 33  1  1  0  0  0
 33 32  1  1  0  0  0
 34 35  1  0  0  0  0
 34 33  1  0  0  0  0
 36 38  1  0  0  0  0
 36 37  1  1  0  0  0
 38 39  1  0  0  0  0
 40 41  2  0  0  0  0
 41 39  1  0  0  0  0
 42 48  1  1  0  0  0
 42 46  1  0  0  0  0
 43 45  1  0  0  0  0
 44 41  1  6  0  0  0
 44 42  1  0  0  0  0
 44 43  1  0  0  0  0
 45 46  1  0  0  0  0
 45 53  1  1  0  0  0
 48 47  1  1  0  0  0
 49 48  1  0  0  0  0
 50 49  1  0  0  0  0
 50 51  2  0  0  0  0
 52 50  1  0  0  0  0
 53 56  1  0  0  0  0
 56 54  1  0  0  0  0
 56 55  1  0  0  0  0
 57 58  1  0  0  0  0
M  END
>  <MODEL>
6

>  <REMARK>
 VINA RESULT:      -5.5      2.880      8.565
  Name = 
  16 active torsions:
  status: ('A' for Active; 'I' for Inactive)
    1  A    between atoms: C_1  and  N_32
    2  A    between atoms: C_4  and  C_22
    3  A    between atoms: C_4  and  C_28
    4  A    between atoms: N_7  and  C_54
    5  A    between atoms: C_8  and  C_11
    6  A    between atoms: C_8  and  C_22
    7  A    between atoms: C_10  and  C_50
    8  A    between atoms: C_14  and  N_44
    9  A    between atoms: O_17  and  C_34
   10  A    between atoms: C_20  and  C_55
   11  A    between atoms: N_27  and  C_55
   12  A    between atoms: C_28  and  C_38
   13  A    between atoms: C_29  and  C_56
   14  A    between atoms: C_34  and  C_58
   15  A    between atoms: O_39  and  C_48
   16  A    between atoms: O_39  and  C_49
                            x       y       z     vdW  Elec       q    Type
                         _______ _______ _______ _____ _____    ______ ____

>  <TORSDO>
F 16

$$$$
=
 OpenBabel10222418033D

 58 62  0  0  1  0  0  0  0  0999 V2000
  188.6340  179.7020  137.4220 O   0  0  0  0  0  1  0  0  0  0  0  0
  189.4370  176.9780  139.9180 C   0  0  1  0  0  3  0  0  0  0  0  0
  187.5020  178.1730  138.8700 C   0  0  0  0  0  2  0  0  0  0  0  0
  188.4690  178.1580  140.0470 C   0  0  0  0  0  2  0  0  0  0  0  0
  189.4650  177.4850  137.4710 C   0  0  0  0  0  0  0  0  0  0  0  0
  192.2000  175.8330  136.0260 O   0  0  0  0  0  0  0  0  0  0  0  0
  191.2820  176.3340  136.7310 C   0  0  0  0  0  0  0  0  0  0  0  0
  190.0790  176.9630  138.5370 C   0  0  0  0  0  0  0  0  0  0  0  0
  191.2120  176.1900  138.1400 N   0  0  0  0  0  0  0  0  0  0  0  0
  188.2530  178.3720  137.5570 C   0  0  2  0  0  3  0  0  0  0  0  0
  190.1690  177.1570  136.1900 C   0  0  1  0  0  3  0  0  0  0  0  0
  188.1160  176.7180  134.9430 C   0  0  0  0  0  0  0  0  0  0  0  0
  189.3020  176.3150  135.3110 C   0  0  0  0  0  3  0  0  0  0  0  0
  186.9210  177.1120  134.5940 C   0  0  0  0  0  3  0  0  0  0  0  0
  184.2830  174.4520  135.0230 C   0  0  0  0  0  3  0  0  0  0  0  0
  185.7090  176.4120  135.0050 C   0  0  0  0  0  0  0  0  0  0  0  0
  183.3130  175.1570  135.7480 C   0  0  0  0  0  3  0  0  0  0  0  0
  184.7420  177.1010  135.7430 C   0  0  0  0  0  3  0  0  0  0  0  0
  185.4780  175.0770  134.6540 C   0  0  0  0  0  3  0  0  0  0  0  0
  183.5390  176.4800  136.1200 C   0  0  0  0  0  0  0  0  0  0  0  0
  182.5110  177.1960  136.8190 N   0  0  0  0  0  2  0  0  0  0  0  0
  182.2850  177.1670  138.2320 C   0  0  0  0  0  0  0  0  0  0  0  0
  181.4960  178.2070  138.8260 N   0  0  0  0  0  2  0  0  0  0  0  0
  182.7760  176.2480  138.9370 O   0  0  0  0  0  0  0  0  0  0  0  0
  180.9510  178.2240  140.1500 C   0  0  0  0  0  0  0  0  0  0  0  0
  178.9320  178.8590  141.6420 C   0  0  0  0  0  2  0  0  0  0  0  0
  181.7820  178.4280  141.1700 C   0  0  0  0  0  3  0  0  0  0  0  0
  180.0310  179.4300  142.5580 C   0  0  0  0  0  2  0  0  0  0  0  0
  181.2610  178.5260  142.5670 C   0  0  2  0  0  3  0  0  0  0  0  0
  182.3360  179.1100  143.4720 C   0  0  0  0  0  1  0  0  0  0  0  0
  179.4580  178.0860  140.4020 C   0  0  2  0  0  3  0  0  0  0  0  0
  179.3740  175.9490  139.2830 O   0  0  0  0  0  1  0  0  0  0  0  0
  179.0410  176.6160  140.4580 C   0  0  1  0  0  3  0  0  0  0  0  0
  179.6620  175.9770  141.5350 O   0  0  0  0  0  0  0  0  0  0  0  0
  179.3120  174.6410  141.4010 C   0  0  0  0  0  1  0  0  0  0  0  0
  190.4320  176.8720  141.0840 C   0  0  2  0  0  3  0  0  0  0  0  0
  189.8740  176.0650  142.0680 O   0  0  0  0  0  1  0  0  0  0  0  0
  190.7570  178.2160  141.7280 C   0  0  0  0  0  2  0  0  0  0  0  0
  189.7740  178.5290  142.8440 C   0  0  0  0  0  2  0  0  0  0  0  0
  191.1770  179.3980  144.5300 O   0  0  0  0  0  0  0  0  0  0  0  0
  190.4560  178.4750  144.1810 C   0  0  0  0  0  0  0  0  0  0  0  0
  189.9920  177.7460  146.5190 C   0  0  2  0  0  3  0  0  0  0  0  0
  191.7690  176.2450  145.0670 S   0  0  0  0  0  0  0  0  0  0  0  0
  190.2740  177.2890  145.0920 C   0  0  2  0  0  3  0  0  0  0  0  0
  192.1670  176.7320  146.7710 C   0  0  1  0  0  3  0  0  0  0  0  0
  190.8490  176.9410  147.4790 C   0  0  0  0  0  2  0  0  0  0  0  0
  188.2510  176.6060  147.8870 C   0  0  0  0  0  1  0  0  0  0  0  0
  188.5030  177.6910  146.8590 C   0  0  2  0  0  3  0  0  0  0  0  0
  187.6980  177.4410  145.6740 N   0  0  0  0  0  2  0  0  0  0  0  0
  186.4880  178.1460  145.4040 C   0  0  0  0  0  0  0  0  0  0  0  0
  186.0480  179.0080  146.2130 O   0  0  0  0  0  0  0  0  0  0  0  0
  185.7370  177.8510  144.1590 C   0  0  0  0  0  1  0  0  0  0  0  0
  192.9080  175.7240  147.3980 O   0  0  0  0  0  0  0  0  0  0  0  0
  193.5950  176.8780  149.3640 C   0  0  0  0  0  1  0  0  0  0  0  0
  192.7980  174.5350  149.4610 C   0  0  0  0  0  1  0  0  0  0  0  0
  192.6330  175.8670  148.7560 C   0  0  0  0  0  3  0  0  0  0  0  0
  193.3280  176.8130  138.8820 O   0  0  0  0  0  1  0  0  0  0  0  0
  192.3570  175.8210  138.9550 C   0  0  0  0  0  2  0  0  0  0  0  0
  2  4  1  0  0  0  0
  2 36  1  1  0  0  0
  3  4  1  0  0  0  0
  5 10  1  0  0  0  0
  5  8  2  0  0  0  0
  6  7  2  0  0  0  0
  7  9  1  0  0  0  0
  8  2  1  0  0  0  0
  9  8  1  0  0  0  0
  9 58  1  0  0  0  0
 10  1  1  1  0  0  0
 10  3  1  0  0  0  0
 11 13  1  6  0  0  0
 11  7  1  0  0  0  0
 11  5  1  0  0  0  0
 12 13  2  0  0  0  0
 14 12  2  0  0  0  0
 14 16  1  0  0  0  0
 15 17  1  0  0  0  0
 16 18  2  0  0  0  0
 17 20  2  0  0  0  0
 18 20  1  0  0  0  0
 19 16  1  0  0  0  0
 19 15  2  0  0  0  0
 20 21  1  0  0  0  0
 21 22  1  0  0  0  0
 22 23  1  0  0  0  0
 22 24  2  0  0  0  0
 23 25  1  0  0  0  0
 25 31  1  0  0  0  0
 25 27  2  0  0  0  0
 26 28  1  0  0  0  0
 27 29  1  0  0  0  0
 28 29  1  0  0  0  0
 29 30  1  1  0  0  0
 31 33  1  1  0  0  0
 31 26  1  0  0  0  0
 33 32  1  6  0  0  0
 33 34  1  0  0  0  0
 35 34  1  0  0  0  0
 36 38  1  0  0  0  0
 36 37  1  1  0  0  0
 38 39  1  0  0  0  0
 39 41  1  0  0  0  0
 41 40  2  0  0  0  0
 42 48  1  1  0  0  0
 42 46  1  0  0  0  0
 43 44  1  0  0  0  0
 43 45  1  0  0  0  0
 44 41  1  6  0  0  0
 44 42  1  0  0  0  0
 45 53  1  1  0  0  0
 45 46  1  0  0  0  0
 48 47  1  1  0  0  0
 49 48  1  0  0  0  0
 50 49  1  0  0  0  0
 50 51  2  0  0  0  0
 52 50  1  0  0  0  0
 53 56  1  0  0  0  0
 56 54  1  0  0  0  0
 56 55  1  0  0  0  0
 57 58  1  0  0  0  0
M  END
>  <MODEL>
7

>  <REMARK>
 VINA RESULT:      -5.5      2.403      8.051
  Name = 
  16 active torsions:
  status: ('A' for Active; 'I' for Inactive)
    1  A    between atoms: C_1  and  N_32
    2  A    between atoms: C_4  and  C_22
    3  A    between atoms: C_4  and  C_28
    4  A    between atoms: N_7  and  C_54
    5  A    between atoms: C_8  and  C_11
    6  A    between atoms: C_8  and  C_22
    7  A    between atoms: C_10  and  C_50
    8  A    between atoms: C_14  and  N_44
    9  A    between atoms: O_17  and  C_34
   10  A    between atoms: C_20  and  C_55
   11  A    between atoms: N_27  and  C_55
   12  A    between atoms: C_28  and  C_38
   13  A    between atoms: C_29  and  C_56
   14  A    between atoms: C_34  and  C_58
   15  A    between atoms: O_39  and  C_48
   16  A    between atoms: O_39  and  C_49
                            x       y       z     vdW  Elec       q    Type
                         _______ _______ _______ _____ _____    ______ ____

>  <TORSDO>
F 16

$$$$
=
 OpenBabel10222418033D

 58 62  0  0  1  0  0  0  0  0999 V2000
  186.9090  175.6150  143.2410 O   0  0  0  0  0  1  0  0  0  0  0  0
  189.9640  177.8410  143.3330 C   0  0  1  0  0  3  0  0  0  0  0  0
  187.9430  177.3350  141.9420 C   0  0  0  0  0  2  0  0  0  0  0  0
  189.4110  176.9990  142.1790 C   0  0  0  0  0  2  0  0  0  0  0  0
  187.7510  177.4770  144.4370 C   0  0  0  0  0  0  0  0  0  0  0  0
  188.0540  178.3090  147.8300 O   0  0  0  0  0  0  0  0  0  0  0  0
  188.1540  178.0700  146.5960 C   0  0  0  0  0  0  0  0  0  0  0  0
  189.0570  177.7350  144.5520 C   0  0  0  0  0  0  0  0  0  0  0  0
  189.3740  178.1540  145.8800 N   0  0  0  0  0  0  0  0  0  0  0  0
  187.1060  176.9890  143.1690 C   0  0  2  0  0  3  0  0  0  0  0  0
  187.0200  177.6460  145.7330 C   0  0  1  0  0  3  0  0  0  0  0  0
  184.7460  178.5050  145.5050 C   0  0  0  0  0  0  0  0  0  0  0  0
  186.0210  178.7530  145.6370 C   0  0  0  0  0  3  0  0  0  0  0  0
  183.4730  178.2560  145.3510 C   0  0  0  0  0  3  0  0  0  0  0  0
  180.7780  179.5620  143.0600 C   0  0  0  0  0  3  0  0  0  0  0  0
  182.7350  178.6400  144.1530 C   0  0  0  0  0  0  0  0  0  0  0  0
  181.3290  179.2640  141.8070 C   0  0  0  0  0  3  0  0  0  0  0  0
  183.2830  178.3610  142.8980 C   0  0  0  0  0  3  0  0  0  0  0  0
  181.4790  179.2530  144.2300 C   0  0  0  0  0  3  0  0  0  0  0  0
  182.5870  178.6710  141.7170 C   0  0  0  0  0  0  0  0  0  0  0  0
  183.1080  178.3300  140.4250 N   0  0  0  0  0  2  0  0  0  0  0  0
  182.9080  177.0870  139.7430 C   0  0  0  0  0  0  0  0  0  0  0  0
  183.1490  177.0280  138.3310 N   0  0  0  0  0  2  0  0  0  0  0  0
  182.5220  176.0700  140.3750 O   0  0  0  0  0  0  0  0  0  0  0  0
  183.2520  175.8500  137.5240 C   0  0  0  0  0  0  0  0  0  0  0  0
  182.1680  173.5960  136.8530 C   0  0  0  0  0  2  0  0  0  0  0  0
  184.4640  175.3470  137.2970 C   0  0  0  0  0  3  0  0  0  0  0  0
  183.6040  173.0690  137.0330 C   0  0  0  0  0  2  0  0  0  0  0  0
  184.6270  174.0800  136.5210 C   0  0  2  0  0  3  0  0  0  0  0  0
  186.0370  173.5430  136.7130 C   0  0  0  0  0  1  0  0  0  0  0  0
  182.0200  175.1360  136.9910 C   0  0  2  0  0  3  0  0  0  0  0  0
  181.4410  174.8050  134.6710 O   0  0  0  0  0  1  0  0  0  0  0  0
  181.5450  175.7590  135.6780 C   0  0  1  0  0  3  0  0  0  0  0  0
  180.3000  176.3710  135.8540 O   0  0  0  0  0  0  0  0  0  0  0  0
  179.5880  176.0550  134.7060 C   0  0  0  0  0  1  0  0  0  0  0  0
  191.4510  177.5840  143.6200 C   0  0  2  0  0  3  0  0  0  0  0  0
  192.0890  178.8090  143.7730 O   0  0  0  0  0  1  0  0  0  0  0  0
  192.1650  176.8350  142.4990 C   0  0  0  0  0  2  0  0  0  0  0  0
  192.0030  177.5670  141.1770 C   0  0  0  0  0  2  0  0  0  0  0  0
  194.0990  177.1500  140.1790 O   0  0  0  0  0  0  0  0  0  0  0  0
  192.8920  176.9670  140.1260 C   0  0  0  0  0  0  0  0  0  0  0  0
  192.6310  176.8010  137.6530 C   0  0  2  0  0  3  0  0  0  0  0  0
  190.5050  176.0100  139.1940 S   0  0  0  0  0  0  0  0  0  0  0  0
  192.3130  176.1550  138.9980 C   0  0  2  0  0  3  0  0  0  0  0  0
  190.2370  177.0880  137.7570 C   0  0  1  0  0  3  0  0  0  0  0  0
  191.3760  176.8220  136.8000 C   0  0  0  0  0  2  0  0  0  0  0  0
  193.6180  176.1730  135.4540 C   0  0  0  0  0  1  0  0  0  0  0  0
  193.8140  176.1290  136.9570 C   0  0  2  0  0  3  0  0  0  0  0  0
  193.9710  174.7500  137.3910 N   0  0  0  0  0  2  0  0  0  0  0  0
  195.2240  174.2130  137.8110 C   0  0  0  0  0  0  0  0  0  0  0  0
  196.2680  174.9210  137.7940 O   0  0  0  0  0  0  0  0  0  0  0  0
  195.2960  172.8030  138.2650 C   0  0  0  0  0  1  0  0  0  0  0  0
  189.0090  176.7910  137.1560 O   0  0  0  0  0  0  0  0  0  0  0  0
  187.0530  177.9710  136.4850 C   0  0  0  0  0  1  0  0  0  0  0  0
  188.9590  179.1420  137.5440 C   0  0  0  0  0  1  0  0  0  0  0  0
  188.1720  177.8470  137.5080 C   0  0  0  0  0  3  0  0  0  0  0  0
  190.7250  177.0680  147.4330 O   0  0  0  0  0  1  0  0  0  0  0  0
  190.6750  178.1210  146.5270 C   0  0  0  0  0  2  0  0  0  0  0  0
  2 36  1  1  0  0  0
  2  8  1  0  0  0  0
  3  4  1  0  0  0  0
  3 10  1  0  0  0  0
  4  2  1  0  0  0  0
  5  8  2  0  0  0  0
  5 11  1  0  0  0  0
  7  6  2  0  0  0  0
  8  9  1  0  0  0  0
  9 58  1  0  0  0  0
  9  7  1  0  0  0  0
 10  1  1  1  0  0  0
 10  5  1  0  0  0  0
 11 13  1  6  0  0  0
 11  7  1  0  0  0  0
 12 13  2  0  0  0  0
 14 12  2  0  0  0  0
 15 19  1  0  0  0  0
 16 19  2  0  0  0  0
 16 14  1  0  0  0  0
 17 15  2  0  0  0  0
 18 16  1  0  0  0  0
 20 17  1  0  0  0  0
 20 18  2  0  0  0  0
 21 20  1  0  0  0  0
 22 24  2  0  0  0  0
 22 21  1  0  0  0  0
 23 22  1  0  0  0  0
 25 23  1  0  0  0  0
 26 31  1  0  0  0  0
 26 28  1  0  0  0  0
 27 25  2  0  0  0  0
 29 30  1  1  0  0  0
 29 28  1  0  0  0  0
 29 27  1  0  0  0  0
 31 33  1  6  0  0  0
 31 25  1  0  0  0  0
 33 32  1  6  0  0  0
 33 34  1  0  0  0  0
 35 34  1  0  0  0  0
 36 37  1  6  0  0  0
 38 36  1  0  0  0  0
 39 38  1  0  0  0  0
 41 40  2  0  0  0  0
 41 39  1  0  0  0  0
 42 48  1  6  0  0  0
 42 44  1  0  0  0  0
 44 43  1  0  0  0  0
 44 41  1  1  0  0  0
 45 53  1  6  0  0  0
 45 43  1  0  0  0  0
 46 42  1  0  0  0  0
 46 45  1  0  0  0  0
 48 47  1  6  0  0  0
 48 49  1  0  0  0  0
 49 50  1  0  0  0  0
 50 52  1  0  0  0  0
 51 50  2  0  0  0  0
 53 56  1  0  0  0  0
 54 56  1  0  0  0  0
 56 55  1  0  0  0  0
 58 57  1  0  0  0  0
M  END
>  <MODEL>
8

>  <REMARK>
 VINA RESULT:      -5.5      1.478      3.444
  Name = 
  16 active torsions:
  status: ('A' for Active; 'I' for Inactive)
    1  A    between atoms: C_1  and  N_32
    2  A    between atoms: C_4  and  C_22
    3  A    between atoms: C_4  and  C_28
    4  A    between atoms: N_7  and  C_54
    5  A    between atoms: C_8  and  C_11
    6  A    between atoms: C_8  and  C_22
    7  A    between atoms: C_10  and  C_50
    8  A    between atoms: C_14  and  N_44
    9  A    between atoms: O_17  and  C_34
   10  A    between atoms: C_20  and  C_55
   11  A    between atoms: N_27  and  C_55
   12  A    between atoms: C_28  and  C_38
   13  A    between atoms: C_29  and  C_56
   14  A    between atoms: C_34  and  C_58
   15  A    between atoms: O_39  and  C_48
   16  A    between atoms: O_39  and  C_49
                            x       y       z     vdW  Elec       q    Type
                         _______ _______ _______ _____ _____    ______ ____

>  <TORSDO>
F 16

$$$$
=
 OpenBabel10222418033D

 58 62  0  0  1  0  0  0  0  0999 V2000
  189.1250  179.5340  137.2320 O   0  0  0  0  0  1  0  0  0  0  0  0
  185.9720  178.0060  138.6530 C   0  0  1  0  0  3  0  0  0  0  0  0
  187.5950  177.7590  136.7610 C   0  0  0  0  0  2  0  0  0  0  0  0
  186.2910  178.4080  137.2090 C   0  0  0  0  0  2  0  0  0  0  0  0
  188.4250  178.2280  139.0790 C   0  0  0  0  0  0  0  0  0  0  0  0
  188.9400  178.3610  142.5450 O   0  0  0  0  0  0  0  0  0  0  0  0
  188.5440  178.2910  141.3490 C   0  0  0  0  0  0  0  0  0  0  0  0
  187.1750  178.2520  139.5530 C   0  0  0  0  0  0  0  0  0  0  0  0
  187.1760  178.2520  140.9810 N   0  0  0  0  0  0  0  0  0  0  0  0
  188.7620  178.2480  137.6130 C   0  0  2  0  0  3  0  0  0  0  0  0
  189.4500  178.2640  140.1710 C   0  0  1  0  0  3  0  0  0  0  0  0
  191.0200  176.6820  139.1770 C   0  0  0  0  0  0  0  0  0  0  0  0
  190.2540  177.0050  140.1840 C   0  0  0  0  0  3  0  0  0  0  0  0
  191.7690  176.3470  138.1610 C   0  0  0  0  0  3  0  0  0  0  0  0
  192.2300  173.0800  136.3350 C   0  0  0  0  0  3  0  0  0  0  0  0
  191.5140  175.1600  137.3510 C   0  0  0  0  0  0  0  0  0  0  0  0
  190.9870  172.9520  135.7040 C   0  0  0  0  0  3  0  0  0  0  0  0
  190.2700  175.0160  136.7290 C   0  0  0  0  0  3  0  0  0  0  0  0
  192.4930  174.1790  137.1580 C   0  0  0  0  0  3  0  0  0  0  0  0
  189.9970  173.9130  135.9020 C   0  0  0  0  0  0  0  0  0  0  0  0
  188.7490  173.7860  135.2060 N   0  0  0  0  0  2  0  0  0  0  0  0
  187.4600  174.1200  135.7320 C   0  0  0  0  0  0  0  0  0  0  0  0
  186.3710  174.3120  134.8190 N   0  0  0  0  0  2  0  0  0  0  0  0
  187.2930  174.2480  136.9730 O   0  0  0  0  0  0  0  0  0  0  0  0
  184.9800  174.3980  135.1460 C   0  0  0  0  0  0  0  0  0  0  0  0
  182.6640  173.2450  135.0320 C   0  0  0  0  0  2  0  0  0  0  0  0
  184.3970  175.5940  135.1090 C   0  0  0  0  0  3  0  0  0  0  0  0
  182.1990  174.6460  134.5940 C   0  0  0  0  0  2  0  0  0  0  0  0
  182.9330  175.7350  135.3720 C   0  0  2  0  0  3  0  0  0  0  0  0
  182.4640  177.1100  134.9210 C   0  0  0  0  0  1  0  0  0  0  0  0
  184.1540  173.1600  135.4590 C   0  0  2  0  0  3  0  0  0  0  0  0
  184.1860  173.8870  137.7610 O   0  0  0  0  0  1  0  0  0  0  0  0
  184.2780  172.7720  136.9330 C   0  0  1  0  0  3  0  0  0  0  0  0
  183.2730  171.8640  137.2820 O   0  0  0  0  0  0  0  0  0  0  0  0
  183.5700  170.7170  136.5610 C   0  0  0  0  0  1  0  0  0  0  0  0
  184.6530  178.5960  139.1750 C   0  0  2  0  0  3  0  0  0  0  0  0
  183.9580  177.5980  139.8460 O   0  0  0  0  0  1  0  0  0  0  0  0
  183.7430  179.1220  138.0690 C   0  0  0  0  0  2  0  0  0  0  0  0
  182.4680  178.3000  137.9890 C   0  0  0  0  0  2  0  0  0  0  0  0
  180.4460  179.1290  137.1000 O   0  0  0  0  0  0  0  0  0  0  0  0
  181.2600  179.1920  138.0090 C   0  0  0  0  0  0  0  0  0  0  0  0
  179.6410  180.0450  139.7010 C   0  0  2  0  0  3  0  0  0  0  0  0
  181.3060  181.8790  138.5240 S   0  0  0  0  0  0  0  0  0  0  0  0
  181.0480  180.1770  139.1290 C   0  0  2  0  0  3  0  0  0  0  0  0
  179.5310  182.2300  138.6850 C   0  0  1  0  0  3  0  0  0  0  0  0
  179.0370  181.4270  139.8660 C   0  0  0  0  0  2  0  0  0  0  0  0
  180.0530  180.0960  142.1580 C   0  0  0  0  0  1  0  0  0  0  0  0
  179.6190  179.2270  140.9930 C   0  0  2  0  0  3  0  0  0  0  0  0
  180.4880  178.0640  140.8990 N   0  0  0  0  0  2  0  0  0  0  0  0
  180.1040  176.8710  140.2180 C   0  0  0  0  0  0  0  0  0  0  0  0
  178.9640  176.7680  139.6870 O   0  0  0  0  0  0  0  0  0  0  0  0
  181.0580  175.7380  140.1440 C   0  0  0  0  0  1  0  0  0  0  0  0
  179.3300  183.5980  138.9010 O   0  0  0  0  0  0  0  0  0  0  0  0
  179.7580  183.4280  136.5650 C   0  0  0  0  0  1  0  0  0  0  0  0
  179.1990  185.6000  137.6130 C   0  0  0  0  0  1  0  0  0  0  0  0
  178.9480  184.1060  137.6600 C   0  0  0  0  0  3  0  0  0  0  0  0
  186.2610  178.1060  143.1150 O   0  0  0  0  0  1  0  0  0  0  0  0
  186.1060  178.6880  141.8630 C   0  0  0  0  0  2  0  0  0  0  0  0
  2 36  1  1  0  0  0
  2  8  1  0  0  0  0
  3  4  1  0  0  0  0
  3 10  1  0  0  0  0
  4  2  1  0  0  0  0
  5  8  2  0  0  0  0
  5 11  1  0  0  0  0
  7  6  2  0  0  0  0
  8  9  1  0  0  0  0
  9  7  1  0  0  0  0
  9 58  1  0  0  0  0
 10  1  1  6  0  0  0
 10  5  1  0  0  0  0
 11 13  1  1  0  0  0
 11  7  1  0  0  0  0
 12 13  2  0  0  0  0
 14 12  2  0  0  0  0
 15 19  1  0  0  0  0
 16 14  1  0  0  0  0
 17 20  1  0  0  0  0
 17 15  2  0  0  0  0
 18 16  1  0  0  0  0
 19 16  2  0  0  0  0
 20 18  2  0  0  0  0
 21 22  1  0  0  0  0
 21 20  1  0  0  0  0
 22 24  2  0  0  0  0
 23 25  1  0  0  0  0
 23 22  1  0  0  0  0
 25 31  1  0  0  0  0
 26 31  1  0  0  0  0
 27 25  2  0  0  0  0
 27 29  1  0  0  0  0
 28 26  1  0  0  0  0
 28 29  1  0  0  0  0
 29 30  1  6  0  0  0
 31 33  1  1  0  0  0
 33 34  1  0  0  0  0
 33 32  1  1  0  0  0
 35 34  1  0  0  0  0
 36 37  1  6  0  0  0
 38 36  1  0  0  0  0
 39 41  1  0  0  0  0
 39 38  1  0  0  0  0
 40 41  2  0  0  0  0
 42 46  1  0  0  0  0
 42 48  1  1  0  0  0
 43 45  1  0  0  0  0
 43 44  1  0  0  0  0
 44 41  1  6  0  0  0
 44 42  1  0  0  0  0
 45 53  1  1  0  0  0
 45 46  1  0  0  0  0
 48 47  1  1  0  0  0
 49 48  1  0  0  0  0
 50 49  1  0  0  0  0
 51 50  2  0  0  0  0
 52 50  1  0  0  0  0
 54 56  1  0  0  0  0
 55 56  1  0  0  0  0
 56 53  1  0  0  0  0
 58 57  1  0  0  0  0
M  END
>  <MODEL>
9

>  <REMARK>
 VINA RESULT:      -5.5      3.674      9.884
  Name = 
  16 active torsions:
  status: ('A' for Active; 'I' for Inactive)
    1  A    between atoms: C_1  and  N_32
    2  A    between atoms: C_4  and  C_22
    3  A    between atoms: C_4  and  C_28
    4  A    between atoms: N_7  and  C_54
    5  A    between atoms: C_8  and  C_11
    6  A    between atoms: C_8  and  C_22
    7  A    between atoms: C_10  and  C_50
    8  A    between atoms: C_14  and  N_44
    9  A    between atoms: O_17  and  C_34
   10  A    between atoms: C_20  and  C_55
   11  A    between atoms: N_27  and  C_55
   12  A    between atoms: C_28  and  C_38
   13  A    between atoms: C_29  and  C_56
   14  A    between atoms: C_34  and  C_58
   15  A    between atoms: O_39  and  C_48
   16  A    between atoms: O_39  and  C_49
                            x       y       z     vdW  Elec       q    Type
                         _______ _______ _______ _____ _____    ______ ____

>  <TORSDO>
F 16

$$$$
