=
 OpenBabel10222418033D

 35 38  0  0  1  0  0  0  0  0999 V2000
  188.7840  174.2400  134.7730 N   0  0  0  0  0  2  0  0  0  0  0  0
  193.5720  176.7310  138.8040 C   0  0  0  0  0  3  0  0  0  0  0  0
  191.4840  174.6540  136.9000 C   0  0  0  0  0  0  0  0  0  0  0  0
  190.8360  177.9910  142.6410 N   0  0  0  0  0  0  0  0  0  0  0  0
  192.6570  175.1830  137.0590 N   0  0  0  0  0  0  0  0  0  0  0  0
  190.9810  174.3260  135.6200 N   0  0  0  0  0  2  0  0  0  0  0  0
  193.2640  177.4910  139.9420 C   0  0  0  0  0  3  0  0  0  0  0  0
  190.9430  176.7290  139.8700 C   0  0  0  0  0  0  0  0  0  0  0  0
  191.2780  175.9880  138.7310 C   0  0  0  0  0  0  0  0  0  0  0  0
  189.5340  176.7050  140.3790 C   0  0  1  0  0  3  0  0  0  0  0  0
  189.6430  174.7990  135.5580 C   0  0  0  0  0  0  0  0  0  0  0  0
  189.1140  175.7950  136.9610 S   0  0  0  0  0  0  0  0  0  0  0  0
  190.2290  176.7010  142.8250 C   0  0  0  0  0  0  0  0  0  0  0  0
  191.9670  177.4840  140.4960 C   0  0  0  0  0  0  0  0  0  0  0  0
  191.7440  178.2730  141.6320 O   0  0  0  0  0  0  0  0  0  0  0  0
  189.4800  176.0020  141.7320 C   0  0  0  0  0  2  0  0  0  0  0  0
  190.2580  176.1590  143.9620 O   0  0  0  0  0  0  0  0  0  0  0  0
  190.7210  178.9620  143.7150 C   0  0  0  0  0  1  0  0  0  0  0  0
  192.5580  175.9680  138.2360 C   0  0  0  0  0  0  0  0  0  0  0  0
  190.4640  175.0370  137.9250 C   0  0  1  0  0  3  0  0  0  0  0  0
  188.8410  178.0820  140.3600 C   0  0  1  0  0  3  0  0  0  0  0  0
  189.0660  178.7860  139.0280 C   0  0  0  0  0  2  0  0  0  0  0  0
  187.8720  178.5850  138.1130 C   0  0  0  0  0  1  0  0  0  0  0  0
  187.3400  177.9340  140.5900 C   0  0  0  0  0  2  0  0  0  0  0  0
  185.8930  179.7030  141.3100 O   0  0  0  0  0  1  0  0  0  0  0  0
  186.8800  178.8140  141.7430 C   0  0  1  0  0  3  0  0  0  0  0  0
  186.3680  177.9850  142.8790 C   0  0  0  0  0  3  0  0  0  0  0  0
  187.0250  177.8900  144.0380 C   0  0  0  0  0  3  0  0  0  0  0  0
  186.4830  177.0520  145.1500 C   0  0  0  0  0  2  0  0  0  0  0  0
  186.7360  177.6950  146.4330 N   0  0  0  0  0  0  0  0  0  0  0  0
  185.8920  178.8800  146.5220 C   0  0  0  0  0  2  0  0  0  0  0  0
  184.5580  178.4980  146.6650 O   0  0  0  0  0  1  0  0  0  0  0  0
  188.1520  178.0770  146.5270 C   0  0  0  0  0  2  0  0  0  0  0  0
  190.1020  176.7750  147.3490 C   0  0  0  0  0  1  0  0  0  0  0  0
  188.8530  177.5220  147.7670 C   0  0  0  0  0  2  0  0  0  0  0  0
  1 11  2  0  0  0  0
  2  7  1  0  0  0  0
  3  5  2  0  0  0  0
  4 13  1  0  0  0  0
  4 18  1  0  0  0  0
  5 19  1  0  0  0  0
  6  3  1  0  0  0  0
  7 14  2  0  0  0  0
  8 10  1  0  0  0  0
  8 14  1  0  0  0  0
  9  8  2  0  0  0  0
 10 21  1  1  0  0  0
 10 16  1  0  0  0  0
 11  6  1  0  0  0  0
 11 12  1  0  0  0  0
 12 20  1  0  0  0  0
 13 17  2  0  0  0  0
 14 15  1  0  0  0  0
 15  4  1  0  0  0  0
 16 13  1  0  0  0  0
 19  9  1  0  0  0  0
 19  2  2  0  0  0  0
 20  3  1  6  0  0  0
 20  9  1  0  0  0  0
 21 22  1  6  0  0  0
 21 24  1  0  0  0  0
 23 22  1  0  0  0  0
 24 26  1  0  0  0  0
 26 25  1  6  0  0  0
 26 27  1  0  0  0  0
 27 28  2  0  0  0  0
 28 29  1  0  0  0  0
 29 30  1  0  0  0  0
 30 31  1  0  0  0  0
 30 33  1  0  0  0  0
 31 32  1  0  0  0  0
 33 35  1  0  0  0  0
 34 35  1  0  0  0  0
M  END
>  <MODEL>
1

>  <REMARK>
 VINA RESULT:      -6.2      0.000      0.000
  Name = 
  10 active torsions:
  status: ('A' for Active; 'I' for Inactive)
    1  A    between atoms: C_1  and  C_20
    2  A    between atoms: C_2  and  C_13
    3  A    between atoms: C_2  and  N_17
    4  A    between atoms: C_4  and  C_33
    5  A    between atoms: C_6  and  C_20
    6  A    between atoms: C_6  and  C_33
    7  A    between atoms: C_10  and  N_17
    8  A    between atoms: N_17  and  C_21
    9  A    between atoms: C_21  and  C_27
   10  A    between atoms: C_22  and  C_33
                            x       y       z     vdW  Elec       q    Type
                         _______ _______ _______ _____ _____    ______ ____

>  <TORSDO>
F 10

$$$$
=
 OpenBabel10222418033D

 35 38  0  0  1  0  0  0  0  0999 V2000
  195.5420  175.2540  137.1490 N   0  0  0  0  0  2  0  0  0  0  0  0
  189.2480  174.1720  135.0060 C   0  0  0  0  0  3  0  0  0  0  0  0
  192.6350  175.0390  135.2810 C   0  0  0  0  0  0  0  0  0  0  0  0
  186.9150  177.6220  137.5450 N   0  0  0  0  0  0  0  0  0  0  0  0
  191.7410  174.2520  134.7690 N   0  0  0  0  0  0  0  0  0  0  0  0
  193.9560  174.6040  135.5310 N   0  0  0  0  0  2  0  0  0  0  0  0
  188.1360  174.7320  135.6530 C   0  0  0  0  0  3  0  0  0  0  0  0
  189.5740  176.3120  136.8390 C   0  0  0  0  0  0  0  0  0  0  0  0
  190.6640  175.7280  136.1860 C   0  0  0  0  0  0  0  0  0  0  0  0
  189.8060  177.4280  137.8120 C   0  0  1  0  0  3  0  0  0  0  0  0
  194.3070  175.0470  136.8350 C   0  0  0  0  0  0  0  0  0  0  0  0
  192.9660  175.7870  137.7820 S   0  0  0  0  0  0  0  0  0  0  0  0
  187.7320  178.7170  137.1000 C   0  0  0  0  0  0  0  0  0  0  0  0
  188.2800  175.8090  136.5510 C   0  0  0  0  0  0  0  0  0  0  0  0
  187.1180  176.3070  137.1550 O   0  0  0  0  0  0  0  0  0  0  0  0
  189.2220  178.7270  137.2630 C   0  0  0  0  0  2  0  0  0  0  0  0
  187.1830  179.7440  136.6190 O   0  0  0  0  0  0  0  0  0  0  0  0
  185.6540  177.9280  138.2000 C   0  0  0  0  0  1  0  0  0  0  0  0
  190.5000  174.7120  135.2770 C   0  0  0  0  0  0  0  0  0  0  0  0
  192.1080  176.0930  136.2020 C   0  0  1  0  0  3  0  0  0  0  0  0
  189.3660  177.1020  139.2530 C   0  0  1  0  0  3  0  0  0  0  0  0
  190.4990  176.4460  140.0310 C   0  0  0  0  0  2  0  0  0  0  0  0
  191.5830  177.4600  140.3460 C   0  0  0  0  0  1  0  0  0  0  0  0
  188.9350  178.3680  139.9850 C   0  0  0  0  0  2  0  0  0  0  0  0
  189.1260  178.5350  142.3680 O   0  0  0  0  0  1  0  0  0  0  0  0
  188.3280  178.0300  141.3390 C   0  0  1  0  0  3  0  0  0  0  0  0
  186.9350  178.5700  141.4510 C   0  0  0  0  0  3  0  0  0  0  0  0
  186.0960  178.1660  142.4080 C   0  0  0  0  0  3  0  0  0  0  0  0
  184.7130  178.7270  142.4880 C   0  0  0  0  0  2  0  0  0  0  0  0
  184.1850  178.5710  143.8380 N   0  0  0  0  0  0  0  0  0  0  0  0
  182.9980  179.4080  143.9600 C   0  0  0  0  0  2  0  0  0  0  0  0
  181.8600  178.6040  144.0250 O   0  0  0  0  0  1  0  0  0  0  0  0
  185.1970  178.9870  144.8190 C   0  0  0  0  0  2  0  0  0  0  0  0
  186.0340  178.9210  147.1580 C   0  0  0  0  0  1  0  0  0  0  0  0
  184.9840  178.3840  146.2080 C   0  0  0  0  0  2  0  0  0  0  0  0
  2 19  2  0  0  0  0
  2  7  1  0  0  0  0
  3  6  1  0  0  0  0
  4 18  1  0  0  0  0
  5 19  1  0  0  0  0
  5  3  2  0  0  0  0
  6 11  1  0  0  0  0
  7 14  2  0  0  0  0
  8 10  1  0  0  0  0
  9 20  1  0  0  0  0
  9  8  2  0  0  0  0
 10 21  1  1  0  0  0
 11  1  2  0  0  0  0
 11 12  1  0  0  0  0
 13 16  1  0  0  0  0
 13  4  1  0  0  0  0
 14  8  1  0  0  0  0
 14 15  1  0  0  0  0
 15  4  1  0  0  0  0
 16 10  1  0  0  0  0
 17 13  2  0  0  0  0
 19  9  1  0  0  0  0
 20  3  1  6  0  0  0
 20 12  1  0  0  0  0
 21 24  1  1  0  0  0
 21 22  1  0  0  0  0
 22 23  1  0  0  0  0
 24 26  1  0  0  0  0
 26 27  1  0  0  0  0
 26 25  1  1  0  0  0
 27 28  2  0  0  0  0
 28 29  1  0  0  0  0
 29 30  1  0  0  0  0
 30 31  1  0  0  0  0
 30 33  1  0  0  0  0
 31 32  1  0  0  0  0
 33 35  1  0  0  0  0
 35 34  1  0  0  0  0
M  END
>  <MODEL>
2

>  <REMARK>
 VINA RESULT:      -5.9      2.557      4.589
  Name = 
  10 active torsions:
  status: ('A' for Active; 'I' for Inactive)
    1  A    between atoms: C_1  and  C_20
    2  A    between atoms: C_2  and  C_13
    3  A    between atoms: C_2  and  N_17
    4  A    between atoms: C_4  and  C_33
    5  A    between atoms: C_6  and  C_20
    6  A    between atoms: C_6  and  C_33
    7  A    between atoms: C_10  and  N_17
    8  A    between atoms: N_17  and  C_21
    9  A    between atoms: C_21  and  C_27
   10  A    between atoms: C_22  and  C_33
                            x       y       z     vdW  Elec       q    Type
                         _______ _______ _______ _____ _____    ______ ____

>  <TORSDO>
F 10

$$$$
=
 OpenBabel10222418033D

 35 38  0  0  1  0  0  0  0  0999 V2000
  189.6610  177.8760  139.6190 N   0  0  0  0  0  2  0  0  0  0  0  0
  184.5770  176.7320  135.3500 C   0  0  0  0  0  3  0  0  0  0  0  0
  187.4730  177.9140  136.9370 C   0  0  0  0  0  0  0  0  0  0  0  0
  180.9200  178.7370  137.8780 N   0  0  0  0  0  0  0  0  0  0  0  0
  186.9540  177.2350  135.9610 N   0  0  0  0  0  0  0  0  0  0  0  0
  188.7480  177.6080  137.4630 N   0  0  0  0  0  2  0  0  0  0  0  0
  183.2360  176.8750  135.7360 C   0  0  0  0  0  3  0  0  0  0  0  0
  183.9020  178.1340  137.7220 C   0  0  0  0  0  0  0  0  0  0  0  0
  185.2310  177.9690  137.3160 C   0  0  0  0  0  0  0  0  0  0  0  0
  183.6030  178.8680  138.9940 C   0  0  1  0  0  3  0  0  0  0  0  0
  188.6350  177.6190  138.8790 C   0  0  0  0  0  0  0  0  0  0  0  0
  186.9590  177.7940  139.5140 S   0  0  0  0  0  0  0  0  0  0  0  0
  181.5410  180.0210  138.0540 C   0  0  0  0  0  0  0  0  0  0  0  0
  182.8830  177.5860  136.9020 C   0  0  0  0  0  0  0  0  0  0  0  0
  181.5220  177.6790  137.2150 O   0  0  0  0  0  0  0  0  0  0  0  0
  182.8920  180.1810  138.6830 C   0  0  0  0  0  2  0  0  0  0  0  0
  180.9090  181.0640  137.7370 O   0  0  0  0  0  0  0  0  0  0  0  0
  179.4970  178.6210  138.1510 C   0  0  0  0  0  1  0  0  0  0  0  0
  185.5520  177.3150  136.1520 C   0  0  0  0  0  0  0  0  0  0  0  0
  186.4920  178.5020  137.9000 C   0  0  1  0  0  3  0  0  0  0  0  0
  182.8960  178.0080  140.0590 C   0  0  1  0  0  3  0  0  0  0  0  0
  183.0610  176.5240  139.7570 C   0  0  0  0  0  2  0  0  0  0  0  0
  181.7310  175.8040  139.8880 C   0  0  0  0  0  1  0  0  0  0  0  0
  183.4620  178.2930  141.4460 C   0  0  0  0  0  2  0  0  0  0  0  0
  181.1630  178.5490  142.0730 O   0  0  0  0  0  1  0  0  0  0  0  0
  182.4500  179.0430  142.3000 C   0  0  1  0  0  3  0  0  0  0  0  0
  182.7950  178.9400  143.7540 C   0  0  0  0  0  3  0  0  0  0  0  0
  184.0480  178.7460  144.1710 C   0  0  0  0  0  3  0  0  0  0  0  0
  184.3540  178.6480  145.6300 C   0  0  0  0  0  2  0  0  0  0  0  0
  185.5820  177.8910  145.8370 N   0  0  0  0  0  0  0  0  0  0  0  0
  186.3190  178.5110  146.9320 C   0  0  0  0  0  2  0  0  0  0  0  0
  185.6960  179.7030  147.3010 O   0  0  0  0  0  1  0  0  0  0  0  0
  186.3910  177.9120  144.6110 C   0  0  0  0  0  2  0  0  0  0  0  0
  188.1140  176.4460  143.5820 C   0  0  0  0  0  1  0  0  0  0  0  0
  187.7820  177.3000  144.7870 C   0  0  0  0  0  2  0  0  0  0  0  0
  2  7  2  0  0  0  0
  2 19  1  0  0  0  0
  3  6  1  0  0  0  0
  4 13  1  0  0  0  0
  4 18  1  0  0  0  0
  5 19  1  0  0  0  0
  5  3  2  0  0  0  0
  6 11  1  0  0  0  0
  7 14  1  0  0  0  0
  8 10  1  0  0  0  0
  9  8  1  0  0  0  0
  9 20  1  0  0  0  0
 10 21  1  1  0  0  0
 11 12  1  0  0  0  0
 11  1  2  0  0  0  0
 13 16  1  0  0  0  0
 14 15  1  0  0  0  0
 14  8  2  0  0  0  0
 15  4  1  0  0  0  0
 16 10  1  0  0  0  0
 17 13  2  0  0  0  0
 19  9  2  0  0  0  0
 20  3  1  6  0  0  0
 20 12  1  0  0  0  0
 21 22  1  6  0  0  0
 21 24  1  0  0  0  0
 22 23  1  0  0  0  0
 24 26  1  0  0  0  0
 26 25  1  1  0  0  0
 26 27  1  0  0  0  0
 27 28  2  0  0  0  0
 28 29  1  0  0  0  0
 29 30  1  0  0  0  0
 30 31  1  0  0  0  0
 31 32  1  0  0  0  0
 33 35  1  0  0  0  0
 33 30  1  0  0  0  0
 34 35  1  0  0  0  0
M  END
>  <MODEL>
3

>  <REMARK>
 VINA RESULT:      -5.8      4.364      6.922
  Name = 
  10 active torsions:
  status: ('A' for Active; 'I' for Inactive)
    1  A    between atoms: C_1  and  C_20
    2  A    between atoms: C_2  and  C_13
    3  A    between atoms: C_2  and  N_17
    4  A    between atoms: C_4  and  C_33
    5  A    between atoms: C_6  and  C_20
    6  A    between atoms: C_6  and  C_33
    7  A    between atoms: C_10  and  N_17
    8  A    between atoms: N_17  and  C_21
    9  A    between atoms: C_21  and  C_27
   10  A    between atoms: C_22  and  C_33
                            x       y       z     vdW  Elec       q    Type
                         _______ _______ _______ _____ _____    ______ ____

>  <TORSDO>
F 10

$$$$
=
 OpenBabel10222418033D

 35 38  0  0  1  0  0  0  0  0999 V2000
  195.5280  175.2490  137.3750 N   0  0  0  0  0  2  0  0  0  0  0  0
  189.2360  173.9950  135.3230 C   0  0  0  0  0  3  0  0  0  0  0  0
  192.6260  174.8700  135.5270 C   0  0  0  0  0  0  0  0  0  0  0  0
  186.9120  177.6830  137.5120 N   0  0  0  0  0  0  0  0  0  0  0  0
  191.7300  174.0410  135.0880 N   0  0  0  0  0  0  0  0  0  0  0  0
  193.9450  174.4540  135.8220 N   0  0  0  0  0  2  0  0  0  0  0  0
  188.1250  174.6200  135.9090 C   0  0  0  0  0  3  0  0  0  0  0  0
  189.5670  176.2990  136.9450 C   0  0  0  0  0  0  0  0  0  0  0  0
  190.6560  175.6510  136.3540 C   0  0  0  0  0  0  0  0  0  0  0  0
  189.8010  177.5030  137.8070 C   0  0  1  0  0  3  0  0  0  0  0  0
  194.2930  175.0170  137.0780 C   0  0  0  0  0  0  0  0  0  0  0  0
  192.9530  175.8510  137.9450 S   0  0  0  0  0  0  0  0  0  0  0  0
  187.7360  178.7270  136.9680 C   0  0  0  0  0  0  0  0  0  0  0  0
  188.2710  175.7770  136.7010 C   0  0  0  0  0  0  0  0  0  0  0  0
  187.1100  176.3360  137.2500 O   0  0  0  0  0  0  0  0  0  0  0  0
  189.2250  178.7450  137.1350 C   0  0  0  0  0  2  0  0  0  0  0  0
  187.1940  179.7060  136.3890 O   0  0  0  0  0  0  0  0  0  0  0  0
  185.6510  178.0570  138.1300 C   0  0  0  0  0  1  0  0  0  0  0  0
  190.4900  174.5540  135.5460 C   0  0  0  0  0  0  0  0  0  0  0  0
  192.1010  176.0090  136.3410 C   0  0  1  0  0  3  0  0  0  0  0  0
  189.3550  177.3170  139.2710 C   0  0  1  0  0  3  0  0  0  0  0  0
  190.3170  176.4040  140.0200 C   0  0  0  0  0  2  0  0  0  0  0  0
  191.4590  177.2080  140.6120 C   0  0  0  0  0  1  0  0  0  0  0  0
  189.2920  178.6610  139.9890 C   0  0  0  0  0  2  0  0  0  0  0  0
  187.2060  177.7330  140.7200 O   0  0  0  0  0  1  0  0  0  0  0  0
  188.2020  178.6550  141.0520 C   0  0  1  0  0  3  0  0  0  0  0  0
  188.7710  178.3410  142.4010 C   0  0  0  0  0  3  0  0  0  0  0  0
  188.2590  177.3840  143.1780 C   0  0  0  0  0  3  0  0  0  0  0  0
  188.8540  177.0990  144.5190 C   0  0  0  0  0  2  0  0  0  0  0  0
  188.2160  177.9250  145.5370 N   0  0  0  0  0  0  0  0  0  0  0  0
  188.9120  177.7070  146.8000 C   0  0  0  0  0  2  0  0  0  0  0  0
  190.1730  177.1610  146.5540 O   0  0  0  0  0  1  0  0  0  0  0  0
  186.8030  177.5460  145.6710 C   0  0  0  0  0  2  0  0  0  0  0  0
  184.6080  178.7100  145.7300 C   0  0  0  0  0  1  0  0  0  0  0  0
  185.9580  178.5890  146.4040 C   0  0  0  0  0  2  0  0  0  0  0  0
  2 19  2  0  0  0  0
  2  7  1  0  0  0  0
  3  6  1  0  0  0  0
  4 18  1  0  0  0  0
  5  3  2  0  0  0  0
  5 19  1  0  0  0  0
  6 11  1  0  0  0  0
  7 14  2  0  0  0  0
  8 10  1  0  0  0  0
  9  8  2  0  0  0  0
 10 21  1  1  0  0  0
 11  1  2  0  0  0  0
 11 12  1  0  0  0  0
 13 16  1  0  0  0  0
 13  4  1  0  0  0  0
 14  8  1  0  0  0  0
 14 15  1  0  0  0  0
 15  4  1  0  0  0  0
 16 10  1  0  0  0  0
 17 13  2  0  0  0  0
 19  9  1  0  0  0  0
 20  3  1  6  0  0  0
 20  9  1  0  0  0  0
 20 12  1  0  0  0  0
 21 24  1  1  0  0  0
 21 22  1  0  0  0  0
 22 23  1  0  0  0  0
 24 26  1  0  0  0  0
 26 25  1  6  0  0  0
 26 27  1  0  0  0  0
 27 28  2  0  0  0  0
 28 29  1  0  0  0  0
 29 30  1  0  0  0  0
 30 33  1  0  0  0  0
 30 31  1  0  0  0  0
 32 31  1  0  0  0  0
 33 35  1  0  0  0  0
 34 35  1  0  0  0  0
M  END
>  <MODEL>
4

>  <REMARK>
 VINA RESULT:      -5.7      2.270      4.562
  Name = 
  10 active torsions:
  status: ('A' for Active; 'I' for Inactive)
    1  A    between atoms: C_1  and  C_20
    2  A    between atoms: C_2  and  C_13
    3  A    between atoms: C_2  and  N_17
    4  A    between atoms: C_4  and  C_33
    5  A    between atoms: C_6  and  C_20
    6  A    between atoms: C_6  and  C_33
    7  A    between atoms: C_10  and  N_17
    8  A    between atoms: N_17  and  C_21
    9  A    between atoms: C_21  and  C_27
   10  A    between atoms: C_22  and  C_33
                            x       y       z     vdW  Elec       q    Type
                         _______ _______ _______ _____ _____    ______ ____

>  <TORSDO>
F 10

$$$$
=
 OpenBabel10222418033D

 35 38  0  0  1  0  0  0  0  0999 V2000
  195.8110  175.4350  136.9330 N   0  0  0  0  0  2  0  0  0  0  0  0
  189.7070  172.9940  135.4640 C   0  0  0  0  0  3  0  0  0  0  0  0
  192.9480  174.3270  135.3330 C   0  0  0  0  0  0  0  0  0  0  0  0
  186.9470  176.7010  137.0230 N   0  0  0  0  0  0  0  0  0  0  0  0
  192.1650  173.3180  135.1040 N   0  0  0  0  0  0  0  0  0  0  0  0
  194.3180  174.1520  135.6380 N   0  0  0  0  0  2  0  0  0  0  0  0
  188.5340  173.5700  135.9740 C   0  0  0  0  0  3  0  0  0  0  0  0
  189.7530  175.5930  136.6000 C   0  0  0  0  0  0  0  0  0  0  0  0
  190.9090  174.9900  136.0910 C   0  0  0  0  0  0  0  0  0  0  0  0
  189.8390  176.9610  137.2060 C   0  0  1  0  0  3  0  0  0  0  0  0
  194.6130  174.9910  136.7460 C   0  0  0  0  0  0  0  0  0  0  0  0
  193.1910  175.7950  137.5020 S   0  0  0  0  0  0  0  0  0  0  0  0
  187.6070  177.7180  136.2500 C   0  0  0  0  0  0  0  0  0  0  0  0
  188.5370  174.8680  136.5240 C   0  0  0  0  0  0  0  0  0  0  0  0
  187.3220  175.3670  137.0120 O   0  0  0  0  0  0  0  0  0  0  0  0
  189.0830  177.9630  136.3380 C   0  0  0  0  0  2  0  0  0  0  0  0
  186.9220  178.4860  135.5230 O   0  0  0  0  0  0  0  0  0  0  0  0
  185.6610  177.0200  137.6180 C   0  0  0  0  0  1  0  0  0  0  0  0
  190.8770  173.7440  135.5150 C   0  0  0  0  0  0  0  0  0  0  0  0
  192.2900  175.5240  135.9400 C   0  0  1  0  0  3  0  0  0  0  0  0
  189.4560  177.0080  138.6980 C   0  0  1  0  0  3  0  0  0  0  0  0
  190.4720  176.2510  139.5440 C   0  0  0  0  0  2  0  0  0  0  0  0
  191.5070  177.2050  140.1100 C   0  0  0  0  0  1  0  0  0  0  0  0
  189.3820  178.4490  139.1910 C   0  0  0  0  0  2  0  0  0  0  0  0
  187.0400  178.6300  139.6680 O   0  0  0  0  0  1  0  0  0  0  0  0
  188.3070  178.6020  140.2570 C   0  0  1  0  0  3  0  0  0  0  0  0
  188.3870  177.4930  141.2600 C   0  0  0  0  0  3  0  0  0  0  0  0
  188.7660  177.7080  142.5220 C   0  0  0  0  0  3  0  0  0  0  0  0
  188.8340  176.5770  143.4960 C   0  0  0  0  0  2  0  0  0  0  0  0
  188.7550  177.0820  144.8610 N   0  0  0  0  0  0  0  0  0  0  0  0
  187.5500  177.8960  144.9740 C   0  0  0  0  0  2  0  0  0  0  0  0
  186.5100  177.1250  145.4930 O   0  0  0  0  0  1  0  0  0  0  0  0
  189.9410  177.8960  145.1590 C   0  0  0  0  0  2  0  0  0  0  0  0
  191.6180  176.3780  146.1880 C   0  0  0  0  0  1  0  0  0  0  0  0
  191.2610  177.1560  144.9390 C   0  0  0  0  0  2  0  0  0  0  0  0
  2 19  2  0  0  0  0
  2  7  1  0  0  0  0
  3  6  1  0  0  0  0
  4 18  1  0  0  0  0
  5  3  2  0  0  0  0
  5 19  1  0  0  0  0
  6 11  1  0  0  0  0
  7 14  2  0  0  0  0
  8 10  1  0  0  0  0
  9  8  2  0  0  0  0
 10 21  1  1  0  0  0
 11  1  2  0  0  0  0
 11 12  1  0  0  0  0
 13 16  1  0  0  0  0
 13  4  1  0  0  0  0
 14  8  1  0  0  0  0
 14 15  1  0  0  0  0
 15  4  1  0  0  0  0
 16 10  1  0  0  0  0
 17 13  2  0  0  0  0
 19  9  1  0  0  0  0
 20  3  1  6  0  0  0
 20  9  1  0  0  0  0
 20 12  1  0  0  0  0
 21 24  1  1  0  0  0
 21 22  1  0  0  0  0
 22 23  1  0  0  0  0
 24 26  1  0  0  0  0
 26 25  1  6  0  0  0
 26 27  1  0  0  0  0
 27 28  2  0  0  0  0
 28 29  1  0  0  0  0
 29 30  1  0  0  0  0
 30 31  1  0  0  0  0
 30 33  1  0  0  0  0
 31 32  1  0  0  0  0
 35 33  1  0  0  0  0
 35 34  1  0  0  0  0
M  END
>  <MODEL>
5

>  <REMARK>
 VINA RESULT:      -5.4      2.506      4.636
  Name = 
  10 active torsions:
  status: ('A' for Active; 'I' for Inactive)
    1  A    between atoms: C_1  and  C_20
    2  A    between atoms: C_2  and  C_13
    3  A    between atoms: C_2  and  N_17
    4  A    between atoms: C_4  and  C_33
    5  A    between atoms: C_6  and  C_20
    6  A    between atoms: C_6  and  C_33
    7  A    between atoms: C_10  and  N_17
    8  A    between atoms: N_17  and  C_21
    9  A    between atoms: C_21  and  C_27
   10  A    between atoms: C_22  and  C_33
                            x       y       z     vdW  Elec       q    Type
                         _______ _______ _______ _____ _____    ______ ____

>  <TORSDO>
F 10

$$$$
=
 OpenBabel10222418033D

 35 38  0  0  1  0  0  0  0  0999 V2000
  189.0260  178.1890  141.4030 N   0  0  0  0  0  2  0  0  0  0  0  0
  182.8520  179.2650  143.8740 C   0  0  0  0  0  3  0  0  0  0  0  0
  186.0750  178.0520  143.2070 C   0  0  0  0  0  0  0  0  0  0  0  0
  180.1790  177.7080  140.1030 N   0  0  0  0  0  0  0  0  0  0  0  0
  185.2830  178.6750  144.0240 N   0  0  0  0  0  0  0  0  0  0  0  0
  187.4610  178.3260  143.1590 N   0  0  0  0  0  2  0  0  0  0  0  0
  181.7100  179.2370  143.0600 C   0  0  0  0  0  3  0  0  0  0  0  0
  182.9590  178.1150  141.2830 C   0  0  0  0  0  0  0  0  0  0  0  0
  184.0830  178.1650  142.1150 C   0  0  0  0  0  0  0  0  0  0  0  0
  183.0760  177.5120  139.9160 C   0  0  1  0  0  3  0  0  0  0  0  0
  187.8210  178.4430  141.7900 C   0  0  0  0  0  0  0  0  0  0  0  0
  186.4440  178.4240  140.6290 S   0  0  0  0  0  0  0  0  0  0  0  0
  180.7870  176.4090  140.0110 C   0  0  0  0  0  0  0  0  0  0  0  0
  181.7420  178.6510  141.7770 C   0  0  0  0  0  0  0  0  0  0  0  0
  180.5580  178.6670  141.0290 O   0  0  0  0  0  0  0  0  0  0  0  0
  182.2650  176.2230  139.8440 C   0  0  0  0  0  2  0  0  0  0  0  0
  180.0560  175.3820  139.9980 O   0  0  0  0  0  0  0  0  0  0  0  0
  178.9310  177.9320  139.3950 C   0  0  0  0  0  1  0  0  0  0  0  0
  184.0200  178.6960  143.3790 C   0  0  0  0  0  0  0  0  0  0  0  0
  185.4500  177.6090  141.9230 C   0  0  1  0  0  3  0  0  0  0  0  0
  182.7850  178.5020  138.7710 C   0  0  1  0  0  3  0  0  0  0  0  0
  183.5660  179.7960  138.9590 C   0  0  0  0  0  2  0  0  0  0  0  0
  182.6700  180.9970  138.7170 C   0  0  0  0  0  1  0  0  0  0  0  0
  183.1590  177.8930  137.4230 C   0  0  0  0  0  2  0  0  0  0  0  0
  183.9500  175.6760  136.9740 O   0  0  0  0  0  1  0  0  0  0  0  0
  184.2900  176.8880  137.5800 C   0  0  1  0  0  3  0  0  0  0  0  0
  185.5630  177.4190  136.9970 C   0  0  0  0  0  3  0  0  0  0  0  0
  186.5700  176.6150  136.6470 C   0  0  0  0  0  3  0  0  0  0  0  0
  187.8260  177.1820  136.0680 C   0  0  0  0  0  2  0  0  0  0  0  0
  188.7470  177.5560  137.1340 N   0  0  0  0  0  0  0  0  0  0  0  0
  188.9740  178.9940  137.0530 C   0  0  0  0  0  2  0  0  0  0  0  0
  189.0560  179.5300  138.3390 O   0  0  0  0  0  1  0  0  0  0  0  0
  190.0170  176.8360  136.9700 C   0  0  0  0  0  2  0  0  0  0  0  0
  191.6520  175.2530  137.9670 C   0  0  0  0  0  1  0  0  0  0  0  0
  190.5670  176.2620  138.2760 C   0  0  0  0  0  2  0  0  0  0  0  0
  1 11  2  0  0  0  0
  3  5  2  0  0  0  0
  4 15  1  0  0  0  0
  6  3  1  0  0  0  0
  7  2  2  0  0  0  0
  8 14  2  0  0  0  0
  8  9  1  0  0  0  0
  9 19  2  0  0  0  0
 10 21  1  6  0  0  0
 10  8  1  0  0  0  0
 11  6  1  0  0  0  0
 12 11  1  0  0  0  0
 13  4  1  0  0  0  0
 14  7  1  0  0  0  0
 15 14  1  0  0  0  0
 16 10  1  0  0  0  0
 16 13  1  0  0  0  0
 17 13  2  0  0  0  0
 18  4  1  0  0  0  0
 19  2  1  0  0  0  0
 19  5  1  0  0  0  0
 20 12  1  6  0  0  0
 20  9  1  0  0  0  0
 20  3  1  0  0  0  0
 21 24  1  6  0  0  0
 21 22  1  0  0  0  0
 23 22  1  0  0  0  0
 24 26  1  0  0  0  0
 26 25  1  6  0  0  0
 27 26  1  0  0  0  0
 28 27  2  0  0  0  0
 29 28  1  0  0  0  0
 29 30  1  0  0  0  0
 31 30  1  0  0  0  0
 31 32  1  0  0  0  0
 33 30  1  0  0  0  0
 33 35  1  0  0  0  0
 34 35  1  0  0  0  0
M  END
>  <MODEL>
6

>  <REMARK>
 VINA RESULT:      -5.4      4.433      8.901
  Name = 
  10 active torsions:
  status: ('A' for Active; 'I' for Inactive)
    1  A    between atoms: C_1  and  C_20
    2  A    between atoms: C_2  and  C_13
    3  A    between atoms: C_2  and  N_17
    4  A    between atoms: C_4  and  C_33
    5  A    between atoms: C_6  and  C_20
    6  A    between atoms: C_6  and  C_33
    7  A    between atoms: C_10  and  N_17
    8  A    between atoms: N_17  and  C_21
    9  A    between atoms: C_21  and  C_27
   10  A    between atoms: C_22  and  C_33
                            x       y       z     vdW  Elec       q    Type
                         _______ _______ _______ _____ _____    ______ ____

>  <TORSDO>
F 10

$$$$
=
 OpenBabel10222418033D

 35 38  0  0  1  0  0  0  0  0999 V2000
  187.4240  175.5570  135.9830 N   0  0  0  0  0  2  0  0  0  0  0  0
  193.0320  177.5340  139.1480 C   0  0  0  0  0  3  0  0  0  0  0  0
  190.6110  175.7780  137.3160 C   0  0  0  0  0  0  0  0  0  0  0  0
  191.5290  177.1780  143.7740 N   0  0  0  0  0  0  0  0  0  0  0  0
  191.7370  176.4230  137.3140 N   0  0  0  0  0  0  0  0  0  0  0  0
  189.7640  175.7540  136.1850 N   0  0  0  0  0  2  0  0  0  0  0  0
  193.0370  177.8750  140.5090 C   0  0  0  0  0  3  0  0  0  0  0  0
  190.8660  176.7980  140.8250 C   0  0  0  0  0  0  0  0  0  0  0  0
  190.8860  176.4790  139.4630 C   0  0  0  0  0  0  0  0  0  0  0  0
  189.6870  176.4000  141.6600 C   0  0  1  0  0  3  0  0  0  0  0  0
  188.4420  175.9990  136.6430 C   0  0  0  0  0  0  0  0  0  0  0  0
  188.3020  176.4520  138.3800 S   0  0  0  0  0  0  0  0  0  0  0  0
  191.1000  175.8090  143.6900 C   0  0  0  0  0  0  0  0  0  0  0  0
  191.9770  177.4990  141.3590 C   0  0  0  0  0  0  0  0  0  0  0  0
  192.0600  177.8810  142.7040 O   0  0  0  0  0  0  0  0  0  0  0  0
  190.1030  175.3400  142.6750 C   0  0  0  0  0  2  0  0  0  0  0  0
  191.5160  174.9760  144.5400 O   0  0  0  0  0  0  0  0  0  0  0  0
  191.6820  177.7690  145.0930 C   0  0  0  0  0  1  0  0  0  0  0  0
  191.9490  176.8110  138.6610 C   0  0  0  0  0  0  0  0  0  0  0  0
  189.9320  175.6800  138.6450 C   0  0  1  0  0  3  0  0  0  0  0  0
  188.9270  177.5920  142.2740 C   0  0  1  0  0  3  0  0  0  0  0  0
  188.6690  178.6690  141.2270 C   0  0  0  0  0  2  0  0  0  0  0  0
  187.2210  178.6310  140.7730 C   0  0  0  0  0  1  0  0  0  0  0  0
  187.5910  177.1390  142.8530 C   0  0  0  0  0  2  0  0  0  0  0  0
  188.5670  178.2540  144.7370 O   0  0  0  0  0  1  0  0  0  0  0  0
  187.5400  177.3880  144.3540 C   0  0  1  0  0  3  0  0  0  0  0  0
  186.2120  177.9490  144.7590 C   0  0  0  0  0  3  0  0  0  0  0  0
  185.4020  178.5510  143.8840 C   0  0  0  0  0  3  0  0  0  0  0  0
  184.0840  179.0990  144.3250 C   0  0  0  0  0  2  0  0  0  0  0  0
  183.1860  179.2300  143.1830 N   0  0  0  0  0  0  0  0  0  0  0  0
  181.8280  178.9630  143.6410 C   0  0  0  0  0  2  0  0  0  0  0  0
  180.9720  179.9630  143.1790 O   0  0  0  0  0  1  0  0  0  0  0  0
  183.5640  178.2660  142.1410 C   0  0  0  0  0  2  0  0  0  0  0  0
  182.7990  177.4260  139.9310 C   0  0  0  0  0  1  0  0  0  0  0  0
  183.1010  178.6690  140.7400 C   0  0  0  0  0  2  0  0  0  0  0  0
  1 11  2  0  0  0  0
  2  7  1  0  0  0  0
  4 18  1  0  0  0  0
  5  3  2  0  0  0  0
  5 19  1  0  0  0  0
  6 11  1  0  0  0  0
  6  3  1  0  0  0  0
  7 14  2  0  0  0  0
  8 14  1  0  0  0  0
  8 10  1  0  0  0  0
  9  8  2  0  0  0  0
 10 21  1  1  0  0  0
 10 16  1  0  0  0  0
 11 12  1  0  0  0  0
 12 20  1  0  0  0  0
 13  4  1  0  0  0  0
 13 17  2  0  0  0  0
 14 15  1  0  0  0  0
 15  4  1  0  0  0  0
 16 13  1  0  0  0  0
 19  2  2  0  0  0  0
 19  9  1  0  0  0  0
 20  3  1  6  0  0  0
 20  9  1  0  0  0  0
 21 22  1  6  0  0  0
 21 24  1  0  0  0  0
 23 22  1  0  0  0  0
 24 26  1  0  0  0  0
 26 25  1  6  0  0  0
 26 27  1  0  0  0  0
 28 29  1  0  0  0  0
 28 27  2  0  0  0  0
 30 31  1  0  0  0  0
 30 29  1  0  0  0  0
 32 31  1  0  0  0  0
 33 30  1  0  0  0  0
 34 35  1  0  0  0  0
 35 33  1  0  0  0  0
M  END
>  <MODEL>
7

>  <REMARK>
 VINA RESULT:      -5.3      2.312      3.484
  Name = 
  10 active torsions:
  status: ('A' for Active; 'I' for Inactive)
    1  A    between atoms: C_1  and  C_20
    2  A    between atoms: C_2  and  C_13
    3  A    between atoms: C_2  and  N_17
    4  A    between atoms: C_4  and  C_33
    5  A    between atoms: C_6  and  C_20
    6  A    between atoms: C_6  and  C_33
    7  A    between atoms: C_10  and  N_17
    8  A    between atoms: N_17  and  C_21
    9  A    between atoms: C_21  and  C_27
   10  A    between atoms: C_22  and  C_33
                            x       y       z     vdW  Elec       q    Type
                         _______ _______ _______ _____ _____    ______ ____

>  <TORSDO>
F 10

$$$$
=
 OpenBabel10222418033D

 35 38  0  0  1  0  0  0  0  0999 V2000
  189.7850  177.3290  139.1200 N   0  0  0  0  0  2  0  0  0  0  0  0
  184.2920  176.8090  135.2560 C   0  0  0  0  0  3  0  0  0  0  0  0
  187.4080  177.6550  136.6240 C   0  0  0  0  0  0  0  0  0  0  0  0
  181.0670  179.1050  138.1050 N   0  0  0  0  0  0  0  0  0  0  0  0
  186.7480  177.0560  135.6820 N   0  0  0  0  0  0  0  0  0  0  0  0
  188.6830  177.2090  137.0400 N   0  0  0  0  0  2  0  0  0  0  0  0
  183.0070  177.0760  135.7510 C   0  0  0  0  0  3  0  0  0  0  0  0
  183.9510  178.2110  137.6980 C   0  0  0  0  0  0  0  0  0  0  0  0
  185.2200  177.9240  137.1840 C   0  0  0  0  0  0  0  0  0  0  0  0
  183.8290  178.9390  139.0030 C   0  0  1  0  0  3  0  0  0  0  0  0
  188.6830  177.1950  138.4610 C   0  0  0  0  0  0  0  0  0  0  0  0
  187.0890  177.5210  139.2320 S   0  0  0  0  0  0  0  0  0  0  0  0
  181.8280  180.3160  138.2520 C   0  0  0  0  0  0  0  0  0  0  0  0
  182.8210  177.7890  136.9530 C   0  0  0  0  0  0  0  0  0  0  0  0
  181.5040  178.0090  137.3770 O   0  0  0  0  0  0  0  0  0  0  0  0
  183.2330  180.3240  138.7730 C   0  0  0  0  0  2  0  0  0  0  0  0
  181.2820  181.4250  138.0050 O   0  0  0  0  0  0  0  0  0  0  0  0
  179.6660  179.1260  138.4900 C   0  0  0  0  0  1  0  0  0  0  0  0
  185.3810  177.2710  135.9870 C   0  0  0  0  0  0  0  0  0  0  0  0
  186.5710  178.3140  137.6730 C   0  0  1  0  0  3  0  0  0  0  0  0
  183.1230  178.1270  140.1070 C   0  0  1  0  0  3  0  0  0  0  0  0
  183.3950  176.6370  139.9430 C   0  0  0  0  0  2  0  0  0  0  0  0
  182.0910  175.8670  139.8440 C   0  0  0  0  0  1  0  0  0  0  0  0
  183.6010  178.5650  141.4870 C   0  0  0  0  0  2  0  0  0  0  0  0
  185.6780  179.7580  141.4050 O   0  0  0  0  0  1  0  0  0  0  0  0
  185.1170  178.4910  141.5840 C   0  0  1  0  0  3  0  0  0  0  0  0
  185.5430  177.9180  142.9010 C   0  0  0  0  0  3  0  0  0  0  0  0
  186.8220  177.6540  143.1770 C   0  0  0  0  0  3  0  0  0  0  0  0
  187.2080  177.0830  144.5020 C   0  0  0  0  0  2  0  0  0  0  0  0
  188.5340  177.5540  144.8860 N   0  0  0  0  0  0  0  0  0  0  0  0
  189.5230  176.7610  144.1640 C   0  0  0  0  0  2  0  0  0  0  0  0
  190.6660  177.5280  143.9400 O   0  0  0  0  0  1  0  0  0  0  0  0
  188.7190  177.3920  146.3340 C   0  0  0  0  0  2  0  0  0  0  0  0
  187.9320  177.8790  148.6400 C   0  0  0  0  0  1  0  0  0  0  0  0
  187.6440  178.0890  147.1690 C   0  0  0  0  0  2  0  0  0  0  0  0
  2  7  2  0  0  0  0
  2 19  1  0  0  0  0
  3  6  1  0  0  0  0
  4 13  1  0  0  0  0
  4 18  1  0  0  0  0
  5 19  1  0  0  0  0
  5  3  2  0  0  0  0
  6 11  1  0  0  0  0
  7 14  1  0  0  0  0
  8 10  1  0  0  0  0
  9 20  1  0  0  0  0
  9  8  1  0  0  0  0
 10 21  1  1  0  0  0
 11  1  2  0  0  0  0
 11 12  1  0  0  0  0
 13 16  1  0  0  0  0
 14 15  1  0  0  0  0
 14  8  2  0  0  0  0
 15  4  1  0  0  0  0
 16 10  1  0  0  0  0
 17 13  2  0  0  0  0
 19  9  2  0  0  0  0
 20  3  1  6  0  0  0
 20 12  1  0  0  0  0
 21 22  1  6  0  0  0
 21 24  1  0  0  0  0
 23 22  1  0  0  0  0
 24 26  1  0  0  0  0
 26 25  1  1  0  0  0
 26 27  1  0  0  0  0
 27 28  2  0  0  0  0
 28 29  1  0  0  0  0
 29 30  1  0  0  0  0
 30 33  1  0  0  0  0
 31 30  1  0  0  0  0
 32 31  1  0  0  0  0
 33 35  1  0  0  0  0
 35 34  1  0  0  0  0
M  END
>  <MODEL>
8

>  <REMARK>
 VINA RESULT:      -5.2      4.090      6.769
  Name = 
  10 active torsions:
  status: ('A' for Active; 'I' for Inactive)
    1  A    between atoms: C_1  and  C_20
    2  A    between atoms: C_2  and  C_13
    3  A    between atoms: C_2  and  N_17
    4  A    between atoms: C_4  and  C_33
    5  A    between atoms: C_6  and  C_20
    6  A    between atoms: C_6  and  C_33
    7  A    between atoms: C_10  and  N_17
    8  A    between atoms: N_17  and  C_21
    9  A    between atoms: C_21  and  C_27
   10  A    between atoms: C_22  and  C_33
                            x       y       z     vdW  Elec       q    Type
                         _______ _______ _______ _____ _____    ______ ____

>  <TORSDO>
F 10

$$$$
=
 OpenBabel10222418033D

 35 38  0  0  1  0  0  0  0  0999 V2000
  185.4530  178.7740  144.6970 N   0  0  0  0  0  2  0  0  0  0  0  0
  179.9100  180.0190  141.0770 C   0  0  0  0  0  3  0  0  0  0  0  0
  182.2050  178.9860  143.5200 C   0  0  0  0  0  0  0  0  0  0  0  0
  180.6580  176.9540  137.3570 N   0  0  0  0  0  0  0  0  0  0  0  0
  181.2270  179.7740  143.1940 N   0  0  0  0  0  0  0  0  0  0  0  0
  183.1840  179.3650  144.4660 N   0  0  0  0  0  2  0  0  0  0  0  0
  179.7760  179.5850  139.7500 C   0  0  0  0  0  3  0  0  0  0  0  0
  181.6490  178.0380  140.0260 C   0  0  0  0  0  0  0  0  0  0  0  0
  181.7630  178.4970  141.3430 C   0  0  0  0  0  0  0  0  0  0  0  0
  182.6060  177.0030  139.5180 C   0  0  1  0  0  3  0  0  0  0  0  0
  184.4510  179.0230  143.9230 C   0  0  0  0  0  0  0  0  0  0  0  0
  184.4250  178.4500  142.2160 S   0  0  0  0  0  0  0  0  0  0  0  0
  180.8380  175.7770  138.1630 C   0  0  0  0  0  0  0  0  0  0  0  0
  180.6200  178.5870  139.2190 C   0  0  0  0  0  0  0  0  0  0  0  0
  180.4200  178.2130  137.8840 O   0  0  0  0  0  0  0  0  0  0  0  0
  181.8660  175.6970  139.2500 C   0  0  0  0  0  2  0  0  0  0  0  0
  180.1620  174.7440  137.9100 O   0  0  0  0  0  0  0  0  0  0  0  0
  180.4310  176.7810  135.9320 C   0  0  0  0  0  1  0  0  0  0  0  0
  180.9020  179.4330  141.8570 C   0  0  0  0  0  0  0  0  0  0  0  0
  182.6610  178.0520  142.4450 C   0  0  1  0  0  3  0  0  0  0  0  0
  183.4770  177.4840  138.3400 C   0  0  1  0  0  3  0  0  0  0  0  0
  184.1440  178.8140  138.6650 C   0  0  0  0  0  2  0  0  0  0  0  0
  185.6430  178.6330  138.8150 C   0  0  0  0  0  1  0  0  0  0  0  0
  184.5570  176.4580  138.0140 C   0  0  0  0  0  2  0  0  0  0  0  0
  183.9420  177.1220  135.7950 O   0  0  0  0  0  1  0  0  0  0  0  0
  184.5290  176.0940  136.5370 C   0  0  1  0  0  3  0  0  0  0  0  0
  185.9090  175.8110  136.0290 C   0  0  0  0  0  3  0  0  0  0  0  0
  186.9410  175.6190  136.8540 C   0  0  0  0  0  3  0  0  0  0  0  0
  188.3040  175.3380  136.3100 C   0  0  0  0  0  2  0  0  0  0  0  0
  189.2660  176.2900  136.8510 N   0  0  0  0  0  0  0  0  0  0  0  0
  190.5620  175.6270  136.9360 C   0  0  0  0  0  2  0  0  0  0  0  0
  190.5400  174.6820  137.9620 O   0  0  0  0  0  1  0  0  0  0  0  0
  188.8370  176.7280  138.1870 C   0  0  0  0  0  2  0  0  0  0  0  0
  189.0530  179.0070  137.2210 C   0  0  0  0  0  1  0  0  0  0  0  0
  189.1730  178.1890  138.4890 C   0  0  0  0  0  2  0  0  0  0  0  0
  2 19  1  0  0  0  0
  3  6  1  0  0  0  0
  4 15  1  0  0  0  0
  4 13  1  0  0  0  0
  5  3  2  0  0  0  0
  7  2  2  0  0  0  0
  8  9  1  0  0  0  0
  9 19  2  0  0  0  0
 10 21  1  6  0  0  0
 10  8  1  0  0  0  0
 11  6  1  0  0  0  0
 11  1  2  0  0  0  0
 12 20  1  0  0  0  0
 12 11  1  0  0  0  0
 13 16  1  0  0  0  0
 14  7  1  0  0  0  0
 14  8  2  0  0  0  0
 15 14  1  0  0  0  0
 16 10  1  0  0  0  0
 17 13  2  0  0  0  0
 18  4  1  0  0  0  0
 19  5  1  0  0  0  0
 20  9  1  6  0  0  0
 20  3  1  0  0  0  0
 21 24  1  1  0  0  0
 21 22  1  0  0  0  0
 22 23  1  0  0  0  0
 26 25  1  6  0  0  0
 26 24  1  0  0  0  0
 27 26  1  0  0  0  0
 27 28  2  0  0  0  0
 29 30  1  0  0  0  0
 29 28  1  0  0  0  0
 30 31  1  0  0  0  0
 30 33  1  0  0  0  0
 31 32  1  0  0  0  0
 33 35  1  0  0  0  0
 34 35  1  0  0  0  0
M  END
>  <MODEL>
9

>  <REMARK>
 VINA RESULT:      -5.0      5.241     10.071
  Name = 
  10 active torsions:
  status: ('A' for Active; 'I' for Inactive)
    1  A    between atoms: C_1  and  C_20
    2  A    between atoms: C_2  and  C_13
    3  A    between atoms: C_2  and  N_17
    4  A    between atoms: C_4  and  C_33
    5  A    between atoms: C_6  and  C_20
    6  A    between atoms: C_6  and  C_33
    7  A    between atoms: C_10  and  N_17
    8  A    between atoms: N_17  and  C_21
    9  A    between atoms: C_21  and  C_27
   10  A    between atoms: C_22  and  C_33
                            x       y       z     vdW  Elec       q    Type
                         _______ _______ _______ _____ _____    ______ ____

>  <TORSDO>
F 10

$$$$
