=
 OpenBabel10222416173D

 46 51  0  0  1  0  0  0  0  0999 V2000
  188.6560  177.7150  139.9010 C   0  0  0  0  0  3  0  0  0  0  0  0
  188.0040  177.7890  138.6670 C   0  0  0  0  0  0  0  0  0  0  0  0
  190.0250  177.0410  137.5790 C   0  0  0  0  0  3  0  0  0  0  0  0
  190.6950  176.9460  138.8100 C   0  0  0  0  0  0  0  0  0  0  0  0
  188.6950  177.4550  137.5060 C   0  0  0  0  0  3  0  0  0  0  0  0
  189.9920  177.3000  139.9970 C   0  0  0  0  0  0  0  0  0  0  0  0
  190.5920  176.8430  144.5980 C   0  0  0  0  0  0  0  0  0  0  0  0
  187.1650  178.0970  147.3790 C   0  0  0  0  0  2  0  0  0  0  0  0
  191.3450  176.2090  143.4590 C   0  0  0  0  0  2  0  0  0  0  0  0
  190.5640  177.3210  141.3870 C   0  0  1  0  0  3  0  0  0  0  0  0
  189.3930  177.3580  147.3780 C   0  0  0  0  0  0  0  0  0  0  0  0
  189.5380  177.8860  144.3570 C   0  0  0  0  0  0  0  0  0  0  0  0
  187.7660  177.9260  148.7450 C   0  0  0  0  0  3  0  0  0  0  0  0
  190.9890  176.4620  145.7770 N   0  0  0  0  0  0  0  0  0  0  0  0
  190.5250  176.8170  147.0590 N   0  0  0  0  0  0  0  0  0  0  0  0
  190.4940  178.6530  142.1400 C   0  0  0  0  0  2  0  0  0  0  0  0
  188.9950  177.5150  148.7270 N   0  0  0  0  0  0  0  0  0  0  0  0
  188.3770  178.0540  145.2270 C   0  0  0  0  0  3  0  0  0  0  0  0
  188.3140  177.7420  146.5070 C   0  0  0  0  0  0  0  0  0  0  0  0
  189.4940  178.6460  143.2540 C   0  0  0  0  0  3  0  0  0  0  0  0
  190.5050  176.0380  142.2030 C   0  0  0  0  0  2  0  0  0  0  0  0
  192.1010  176.4770  138.7660 C   0  0  0  0  0  0  0  0  0  0  0  0
  192.4920  175.3970  137.9190 N   0  0  0  0  0  2  0  0  0  0  0  0
  192.9780  177.0840  139.4400 O   0  0  0  0  0  0  0  0  0  0  0  0
  193.8810  174.9920  137.7360 C   0  0  0  0  0  2  0  0  0  0  0  0
  193.1830  173.1890  136.1440 C   0  0  0  0  0  1  0  0  0  0  0  0
  193.9850  173.5010  137.4030 C   0  0  1  0  0  3  0  0  0  0  0  0
  197.0010  174.6990  135.9920 C   0  0  0  0  0  2  0  0  0  0  0  0
  196.3140  173.8340  139.3790 O   0  0  0  0  0  0  0  0  0  0  0  0
  197.3920  174.6670  137.4570 C   0  0  0  0  0  2  0  0  0  0  0  0
  196.3740  173.8450  138.1600 C   0  0  0  0  0  0  0  0  0  0  0  0
  196.0510  173.1960  135.5880 S   0  0  0  0  0  0  0  0  0  0  0  0
  195.4520  173.0210  137.3070 C   0  0  2  0  0  0  0  0  0  0  0  0
  196.8390  171.0550  137.5970 O   0  0  0  0  0  1  0  0  0  0  0  0
  195.5320  171.5400  137.6940 C   0  0  0  0  0  2  0  0  0  0  0  0
  186.6400  178.2080  138.5740 N   0  0  0  0  0  2  0  0  0  0  0  0
  185.7330  177.7080  137.5500 C   0  0  0  0  0  2  0  0  0  0  0  0
  184.2960  178.0030  137.9370 C   0  0  0  0  0  2  0  0  0  0  0  0
  184.2380  179.2090  138.8540 C   0  0  0  0  0  2  0  0  0  0  0  0
  183.3950  178.9030  139.9990 N   0  0  0  0  0  2  0  0  0  0  0  0
  183.4630  178.9410  143.8320 C   0  0  0  0  0  2  0  0  0  0  0  0
  182.9240  178.5810  142.4520 C   0  0  0  0  0  2  0  0  0  0  0  0
  183.8750  178.9500  141.3440 C   0  0  0  0  0  0  0  0  0  0  0  0
  185.7200  179.2990  142.9180 C   0  0  0  0  0  2  0  0  0  0  0  0
  184.9150  178.5100  143.9420 C   0  0  0  0  0  2  0  0  0  0  0  0
  185.1340  179.1960  141.5800 N   0  0  0  0  0  0  0  0  0  0  0  0
  1  6  1  0  0  0  0
  2  1  2  0  0  0  0
  3  4  1  0  0  0  0
  4  6  2  0  0  0  0
  5  3  2  0  0  0  0
  5  2  1  0  0  0  0
  7 14  2  0  0  0  0
  8 13  1  0  0  0  0
  9  7  1  0  0  0  0
 10  6  1  6  0  0  0
 10 16  1  0  0  0  0
 10 21  1  0  0  0  0
 11 17  1  0  0  0  0
 12  7  1  0  0  0  0
 12 18  1  0  0  0  0
 14 15  1  0  0  0  0
 15 11  2  0  0  0  0
 16 20  1  0  0  0  0
 17 13  2  0  0  0  0
 18 19  2  0  0  0  0
 19 11  1  0  0  0  0
 19  8  1  0  0  0  0
 20 12  2  0  0  0  0
 21  9  1  0  0  0  0
 22  4  1  0  0  0  0
 22 24  2  0  0  0  0
 23 22  1  0  0  0  0
 25 23  1  0  0  0  0
 27 26  1  6  0  0  0
 27 25  1  0  0  0  0
 28 30  1  0  0  0  0
 30 31  1  0  0  0  0
 31 29  2  0  0  0  0
 32 28  1  0  0  0  0
 32 33  1  0  0  0  0
 33 27  1  0  0  0  0
 33 35  1  1  0  0  0
 33 31  1  0  0  0  0
 34 35  1  0  0  0  0
 36  2  1  0  0  0  0
 37 38  1  0  0  0  0
 37 36  1  0  0  0  0
 38 39  1  0  0  0  0
 39 40  1  0  0  0  0
 40 43  1  0  0  0  0
 41 45  1  0  0  0  0
 42 41  1  0  0  0  0
 43 46  2  0  0  0  0
 43 42  1  0  0  0  0
 44 45  1  0  0  0  0
 46 44  1  0  0  0  0
M  END
>  <MODEL>
1

>  <REMARK>
 VINA RESULT:      -8.8      0.000      0.000
  Name = 
  11 active torsions:
  status: ('A' for Active; 'I' for Inactive)
    1  A    between atoms: N_1  and  C_36
    2  A    between atoms: C_3  and  C_40
    3  A    between atoms: C_7  and  N_18
    4  A    between atoms: C_7  and  C_37
    5  A    between atoms: C_9  and  C_44
    6  A    between atoms: N_13  and  C_30
    7  A    between atoms: C_14  and  N_18
    8  A    between atoms: C_16  and  C_30
    9  A    between atoms: C_16  and  C_46
   10  A    between atoms: C_36  and  C_37
   11  A    between atoms: C_38  and  C_46
                            x       y       z     vdW  Elec       q    Type
                         _______ _______ _______ _____ _____    ______ ____

>  <TORSDO>
F 11

$$$$
=
 OpenBabel10222416173D

 46 51  0  0  1  0  0  0  0  0999 V2000
  187.6650  177.4170  138.2840 C   0  0  0  0  0  3  0  0  0  0  0  0
  186.9260  177.0700  137.1480 C   0  0  0  0  0  0  0  0  0  0  0  0
  188.8400  175.8690  136.2970 C   0  0  0  0  0  3  0  0  0  0  0  0
  189.5950  176.1940  137.4370 C   0  0  0  0  0  0  0  0  0  0  0  0
  187.5200  176.2980  136.1540 C   0  0  0  0  0  3  0  0  0  0  0  0
  188.9910  176.9950  138.4480 C   0  0  0  0  0  0  0  0  0  0  0  0
  190.3880  177.5500  142.8610 C   0  0  0  0  0  0  0  0  0  0  0  0
  187.2360  177.3380  146.1890 C   0  0  0  0  0  2  0  0  0  0  0  0
  191.1890  177.2130  141.6310 C   0  0  0  0  0  2  0  0  0  0  0  0
  189.6640  177.4910  139.6970 C   0  0  1  0  0  3  0  0  0  0  0  0
  189.5040  177.7980  145.7920 C   0  0  0  0  0  0  0  0  0  0  0  0
  188.9290  177.8940  142.7780 C   0  0  0  0  0  0  0  0  0  0  0  0
  188.0290  177.6800  147.4190 C   0  0  0  0  0  3  0  0  0  0  0  0
  191.0880  177.5840  143.9580 N   0  0  0  0  0  0  0  0  0  0  0  0
  190.6950  177.8440  145.2860 N   0  0  0  0  0  0  0  0  0  0  0  0
  189.0340  178.7090  140.3810 C   0  0  0  0  0  2  0  0  0  0  0  0
  189.2780  177.9280  147.1830 N   0  0  0  0  0  0  0  0  0  0  0  0
  187.9810  177.5910  143.8470 C   0  0  0  0  0  3  0  0  0  0  0  0
  188.2680  177.4740  145.1290 C   0  0  0  0  0  0  0  0  0  0  0  0
  188.3480  178.3690  141.6670 C   0  0  0  0  0  3  0  0  0  0  0  0
  190.3830  176.4750  140.5730 C   0  0  0  0  0  2  0  0  0  0  0  0
  190.9800  175.6670  137.4870 C   0  0  0  0  0  0  0  0  0  0  0  0
  192.0930  176.4780  137.1130 N   0  0  0  0  0  2  0  0  0  0  0  0
  191.1830  174.5030  137.9300 O   0  0  0  0  0  0  0  0  0  0  0  0
  193.4770  176.0540  137.2770 C   0  0  0  0  0  2  0  0  0  0  0  0
  194.8300  176.8390  135.3200 C   0  0  0  0  0  1  0  0  0  0  0  0
  194.0980  175.6520  135.9370 C   0  0  1  0  0  3  0  0  0  0  0  0
  197.3980  174.9370  136.9950 C   0  0  0  0  0  2  0  0  0  0  0  0
  194.3290  173.5870  138.2000 O   0  0  0  0  0  0  0  0  0  0  0  0
  196.6160  174.1160  138.0020 C   0  0  0  0  0  2  0  0  0  0  0  0
  195.2280  174.0030  137.4870 C   0  0  0  0  0  0  0  0  0  0  0  0
  196.6430  174.7450  135.3460 S   0  0  0  0  0  0  0  0  0  0  0  0
  194.9950  174.3980  136.0560 C   0  0  2  0  0  0  0  0  0  0  0  0
  192.9710  173.3140  135.2820 O   0  0  0  0  0  1  0  0  0  0  0  0
  194.3670  173.2420  135.2690 C   0  0  0  0  0  2  0  0  0  0  0  0
  185.5710  177.4980  136.9870 N   0  0  0  0  0  2  0  0  0  0  0  0
  184.4780  176.9620  137.7840 C   0  0  0  0  0  2  0  0  0  0  0  0
  183.2440  177.8320  137.6320 C   0  0  0  0  0  2  0  0  0  0  0  0
  182.6930  178.2030  138.9950 C   0  0  0  0  0  2  0  0  0  0  0  0
  183.7700  178.1800  139.9720 N   0  0  0  0  0  2  0  0  0  0  0  0
  184.3520  178.3840  143.7560 C   0  0  0  0  0  2  0  0  0  0  0  0
  184.7460  178.4020  142.2820 C   0  0  0  0  0  2  0  0  0  0  0  0
  183.5530  178.4160  141.3630 C   0  0  0  0  0  0  0  0  0  0  0  0
  182.0290  178.9790  143.1990 C   0  0  0  0  0  2  0  0  0  0  0  0
  183.2520  179.4020  144.0030 C   0  0  0  0  0  2  0  0  0  0  0  0
  182.3650  178.7480  141.7920 N   0  0  0  0  0  0  0  0  0  0  0  0
  1  6  1  0  0  0  0
  2  1  2  0  0  0  0
  3  4  1  0  0  0  0
  4 22  1  0  0  0  0
  4  6  2  0  0  0  0
  5  3  2  0  0  0  0
  5  2  1  0  0  0  0
  7 14  2  0  0  0  0
  8 13  1  0  0  0  0
  9  7  1  0  0  0  0
 10  6  1  1  0  0  0
 10 16  1  0  0  0  0
 10 21  1  0  0  0  0
 11 17  1  0  0  0  0
 12  7  1  0  0  0  0
 12 18  1  0  0  0  0
 14 15  1  0  0  0  0
 15 11  2  0  0  0  0
 16 20  1  0  0  0  0
 17 13  2  0  0  0  0
 18 19  2  0  0  0  0
 19 11  1  0  0  0  0
 19  8  1  0  0  0  0
 20 12  2  0  0  0  0
 21  9  1  0  0  0  0
 22 24  2  0  0  0  0
 23 25  1  0  0  0  0
 23 22  1  0  0  0  0
 27 26  1  1  0  0  0
 27 33  1  0  0  0  0
 27 25  1  0  0  0  0
 28 30  1  0  0  0  0
 31 30  1  0  0  0  0
 31 29  2  0  0  0  0
 32 33  1  0  0  0  0
 32 28  1  0  0  0  0
 33 35  1  6  0  0  0
 33 31  1  0  0  0  0
 35 34  1  0  0  0  0
 36  2  1  0  0  0  0
 36 37  1  0  0  0  0
 38 37  1  0  0  0  0
 38 39  1  0  0  0  0
 39 40  1  0  0  0  0
 40 43  1  0  0  0  0
 41 45  1  0  0  0  0
 42 41  1  0  0  0  0
 43 46  2  0  0  0  0
 43 42  1  0  0  0  0
 44 45  1  0  0  0  0
 46 44  1  0  0  0  0
M  END
>  <MODEL>
2

>  <REMARK>
 VINA RESULT:      -8.6      1.688      2.130
  Name = 
  11 active torsions:
  status: ('A' for Active; 'I' for Inactive)
    1  A    between atoms: N_1  and  C_36
    2  A    between atoms: C_3  and  C_40
    3  A    between atoms: C_7  and  N_18
    4  A    between atoms: C_7  and  C_37
    5  A    between atoms: C_9  and  C_44
    6  A    between atoms: N_13  and  C_30
    7  A    between atoms: C_14  and  N_18
    8  A    between atoms: C_16  and  C_30
    9  A    between atoms: C_16  and  C_46
   10  A    between atoms: C_36  and  C_37
   11  A    between atoms: C_38  and  C_46
                            x       y       z     vdW  Elec       q    Type
                         _______ _______ _______ _____ _____    ______ ____

>  <TORSDO>
F 11

$$$$
=
 OpenBabel10222416173D

 46 51  0  0  1  0  0  0  0  0999 V2000
  186.5590  177.2760  137.7990 C   0  0  0  0  0  3  0  0  0  0  0  0
  185.4340  177.0230  137.0070 C   0  0  0  0  0  0  0  0  0  0  0  0
  186.8850  176.2750  135.2280 C   0  0  0  0  0  3  0  0  0  0  0  0
  188.0270  176.5090  136.0120 C   0  0  0  0  0  0  0  0  0  0  0  0
  185.6030  176.5250  135.7190 C   0  0  0  0  0  3  0  0  0  0  0  0
  187.8550  177.0310  137.3270 C   0  0  0  0  0  0  0  0  0  0  0  0
  190.7220  177.2230  140.9970 C   0  0  0  0  0  0  0  0  0  0  0  0
  188.8940  177.0740  145.2030 C   0  0  0  0  0  2  0  0  0  0  0  0
  191.0190  176.8940  139.5580 C   0  0  0  0  0  2  0  0  0  0  0  0
  188.9570  177.4010  138.2780 C   0  0  1  0  0  3  0  0  0  0  0  0
  190.9210  177.3750  144.0590 C   0  0  0  0  0  0  0  0  0  0  0  0
  189.3620  177.6860  141.4320 C   0  0  0  0  0  0  0  0  0  0  0  0
  190.0870  177.2830  146.0910 C   0  0  0  0  0  3  0  0  0  0  0  0
  191.7550  177.1410  141.7850 N   0  0  0  0  0  0  0  0  0  0  0  0
  191.8670  177.3550  143.1740 N   0  0  0  0  0  0  0  0  0  0  0  0
  188.7160  178.6240  139.1690 C   0  0  0  0  0  2  0  0  0  0  0  0
  191.1980  177.4440  145.4450 N   0  0  0  0  0  0  0  0  0  0  0  0
  188.8130  177.3990  142.7550 C   0  0  0  0  0  3  0  0  0  0  0  0
  189.5090  177.1870  143.8560 C   0  0  0  0  0  0  0  0  0  0  0  0
  188.4830  178.2670  140.6040 C   0  0  0  0  0  3  0  0  0  0  0  0
  189.8350  176.2830  138.8250 C   0  0  0  0  0  2  0  0  0  0  0  0
  189.3340  176.1880  135.3920 C   0  0  0  0  0  0  0  0  0  0  0  0
  189.8200  174.8470  135.3450 N   0  0  0  0  0  2  0  0  0  0  0  0
  189.9990  177.1070  134.8380 O   0  0  0  0  0  0  0  0  0  0  0  0
  191.0290  174.4630  134.6260 C   0  0  0  0  0  2  0  0  0  0  0  0
  191.8650  172.1250  134.9520 C   0  0  0  0  0  1  0  0  0  0  0  0
  191.9170  173.5540  135.4800 C   0  0  1  0  0  3  0  0  0  0  0  0
  193.5190  176.3330  136.9750 C   0  0  0  0  0  2  0  0  0  0  0  0
  194.1260  172.8610  137.5000 O   0  0  0  0  0  0  0  0  0  0  0  0
  194.1830  175.2040  137.7410 C   0  0  0  0  0  2  0  0  0  0  0  0
  193.9030  173.9510  136.9950 C   0  0  0  0  0  0  0  0  0  0  0  0
  193.3980  175.8760  135.2140 S   0  0  0  0  0  0  0  0  0  0  0  0
  193.3640  174.0900  135.6010 C   0  0  2  0  0  0  0  0  0  0  0  0
  195.6060  173.7150  134.7630 O   0  0  0  0  0  1  0  0  0  0  0  0
  194.2640  173.3630  134.5940 C   0  0  0  0  0  2  0  0  0  0  0  0
  184.1130  177.2700  137.4960 N   0  0  0  0  0  2  0  0  0  0  0  0
  183.3880  176.3120  138.3180 C   0  0  0  0  0  2  0  0  0  0  0  0
  182.7640  177.0150  139.5100 C   0  0  0  0  0  2  0  0  0  0  0  0
  183.3750  178.3910  139.6850 C   0  0  0  0  0  2  0  0  0  0  0  0
  184.4690  178.3140  140.6400 N   0  0  0  0  0  2  0  0  0  0  0  0
  185.1200  178.2960  144.4180 C   0  0  0  0  0  2  0  0  0  0  0  0
  185.4870  178.4020  142.9410 C   0  0  0  0  0  2  0  0  0  0  0  0
  184.2770  178.4670  142.0460 C   0  0  0  0  0  0  0  0  0  0  0  0
  182.7860  178.9150  143.9390 C   0  0  0  0  0  2  0  0  0  0  0  0
  184.0230  179.2930  144.7440 C   0  0  0  0  0  2  0  0  0  0  0  0
  183.0970  178.7680  142.5150 N   0  0  0  0  0  0  0  0  0  0  0  0
  2 36  1  0  0  0  0
  2  1  2  0  0  0  0
  3  5  2  0  0  0  0
  3  4  1  0  0  0  0
  4  6  2  0  0  0  0
  5  2  1  0  0  0  0
  6  1  1  0  0  0  0
  7 12  1  0  0  0  0
  7 14  2  0  0  0  0
  8 13  1  0  0  0  0
  9  7  1  0  0  0  0
 10  6  1  1  0  0  0
 10 21  1  0  0  0  0
 10 16  1  0  0  0  0
 11 17  1  0  0  0  0
 12 18  1  0  0  0  0
 14 15  1  0  0  0  0
 15 11  2  0  0  0  0
 16 20  1  0  0  0  0
 17 13  2  0  0  0  0
 18 19  2  0  0  0  0
 19 11  1  0  0  0  0
 19  8  1  0  0  0  0
 20 12  2  0  0  0  0
 21  9  1  0  0  0  0
 22  4  1  0  0  0  0
 23 22  1  0  0  0  0
 24 22  2  0  0  0  0
 25 23  1  0  0  0  0
 25 27  1  0  0  0  0
 27 26  1  6  0  0  0
 27 33  1  0  0  0  0
 28 30  1  0  0  0  0
 31 29  2  0  0  0  0
 31 30  1  0  0  0  0
 32 33  1  0  0  0  0
 32 28  1  0  0  0  0
 33 35  1  6  0  0  0
 33 31  1  0  0  0  0
 35 34  1  0  0  0  0
 36 37  1  0  0  0  0
 37 38  1  0  0  0  0
 38 39  1  0  0  0  0
 39 40  1  0  0  0  0
 40 43  1  0  0  0  0
 41 45  1  0  0  0  0
 42 41  1  0  0  0  0
 43 46  2  0  0  0  0
 43 42  1  0  0  0  0
 44 45  1  0  0  0  0
 46 44  1  0  0  0  0
M  END
>  <MODEL>
3

>  <REMARK>
 VINA RESULT:      -8.6      2.109      3.306
  Name = 
  11 active torsions:
  status: ('A' for Active; 'I' for Inactive)
    1  A    between atoms: N_1  and  C_36
    2  A    between atoms: C_3  and  C_40
    3  A    between atoms: C_7  and  N_18
    4  A    between atoms: C_7  and  C_37
    5  A    between atoms: C_9  and  C_44
    6  A    between atoms: N_13  and  C_30
    7  A    between atoms: C_14  and  N_18
    8  A    between atoms: C_16  and  C_30
    9  A    between atoms: C_16  and  C_46
   10  A    between atoms: C_36  and  C_37
   11  A    between atoms: C_38  and  C_46
                            x       y       z     vdW  Elec       q    Type
                         _______ _______ _______ _____ _____    ______ ____

>  <TORSDO>
F 11

$$$$
=
 OpenBabel10222416173D

 46 51  0  0  1  0  0  0  0  0999 V2000
  185.9710  178.3830  144.2450 C   0  0  0  0  0  3  0  0  0  0  0  0
  185.7750  178.1200  145.6050 C   0  0  0  0  0  0  0  0  0  0  0  0
  183.4220  178.5860  145.3310 C   0  0  0  0  0  3  0  0  0  0  0  0
  183.5950  178.8400  143.9600 C   0  0  0  0  0  0  0  0  0  0  0  0
  184.4960  178.2270  146.1440 C   0  0  0  0  0  3  0  0  0  0  0  0
  184.9060  178.7430  143.4100 C   0  0  0  0  0  0  0  0  0  0  0  0
  186.4100  178.3880  139.0120 C   0  0  0  0  0  0  0  0  0  0  0  0
  190.2980  176.0840  138.2160 C   0  0  0  0  0  2  0  0  0  0  0  0
  185.0450  178.7440  139.5380 C   0  0  0  0  0  2  0  0  0  0  0  0
  185.2870  179.0400  141.9870 C   0  0  1  0  0  3  0  0  0  0  0  0
  188.6660  177.4090  137.1710 C   0  0  0  0  0  0  0  0  0  0  0  0
  187.5830  178.2050  139.9320 C   0  0  0  0  0  0  0  0  0  0  0  0
  190.5120  176.2930  136.7440 C   0  0  0  0  0  3  0  0  0  0  0  0
  186.4820  178.3320  137.7130 N   0  0  0  0  0  0  0  0  0  0  0  0
  187.5660  178.0220  136.8690 N   0  0  0  0  0  0  0  0  0  0  0  0
  186.6560  179.6900  141.7630 C   0  0  0  0  0  2  0  0  0  0  0  0
  189.6020  177.0240  136.1820 N   0  0  0  0  0  0  0  0  0  0  0  0
  188.6770  177.2800  139.6470 C   0  0  0  0  0  3  0  0  0  0  0  0
  189.0710  176.8880  138.4500 C   0  0  0  0  0  0  0  0  0  0  0  0
  187.6540  178.7580  141.1510 C   0  0  0  0  0  3  0  0  0  0  0  0
  184.7460  178.1280  140.8960 C   0  0  0  0  0  2  0  0  0  0  0  0
  182.3770  179.1940  143.1920 C   0  0  0  0  0  0  0  0  0  0  0  0
  181.9650  178.4230  142.0640 N   0  0  0  0  0  2  0  0  0  0  0  0
  181.6570  180.1550  143.5810 O   0  0  0  0  0  0  0  0  0  0  0  0
  180.7060  178.6460  141.3650 C   0  0  0  0  0  2  0  0  0  0  0  0
  179.7030  176.6060  140.3110 C   0  0  0  0  0  1  0  0  0  0  0  0
  180.6220  177.8030  140.0890 C   0  0  1  0  0  3  0  0  0  0  0  0
  180.6950  181.2150  139.1560 C   0  0  0  0  0  2  0  0  0  0  0  0
  182.1810  178.4240  137.5150 O   0  0  0  0  0  0  0  0  0  0  0  0
  181.6120  180.6350  138.0980 C   0  0  0  0  0  2  0  0  0  0  0  0
  181.4110  179.1640  138.1080 C   0  0  0  0  0  0  0  0  0  0  0  0
  179.2640  180.1080  139.3870 S   0  0  0  0  0  0  0  0  0  0  0  0
  180.2170  178.6420  138.8540 C   0  0  2  0  0  0  0  0  0  0  0  0
  178.9610  178.5080  136.7860 O   0  0  0  0  0  1  0  0  0  0  0  0
  179.3270  177.7990  137.9330 C   0  0  0  0  0  2  0  0  0  0  0  0
  186.8640  177.7480  146.4530 N   0  0  0  0  0  2  0  0  0  0  0  0
  187.1120  178.3840  147.7380 C   0  0  0  0  0  2  0  0  0  0  0  0
  188.5270  178.0930  148.2010 C   0  0  0  0  0  2  0  0  0  0  0  0
  189.1140  176.9460  147.4020 C   0  0  0  0  0  2  0  0  0  0  0  0
  190.2010  177.4410  146.5740 N   0  0  0  0  0  2  0  0  0  0  0  0
  191.2360  177.7380  142.8940 C   0  0  0  0  0  2  0  0  0  0  0  0
  191.4390  177.7660  144.4060 C   0  0  0  0  0  2  0  0  0  0  0  0
  190.2480  177.2390  145.1610 C   0  0  0  0  0  0  0  0  0  0  0  0
  189.2720  176.2720  143.1310 C   0  0  0  0  0  2  0  0  0  0  0  0
  190.6450  176.4000  142.4840 C   0  0  0  0  0  2  0  0  0  0  0  0
  189.3340  176.5150  144.5740 N   0  0  0  0  0  0  0  0  0  0  0  0
  1  2  1  0  0  0  0
  2  5  2  0  0  0  0
  2 36  1  0  0  0  0
  3  5  1  0  0  0  0
  4  3  2  0  0  0  0
  6  4  1  0  0  0  0
  6  1  2  0  0  0  0
  7  9  1  0  0  0  0
  7 12  1  0  0  0  0
  8 19  1  0  0  0  0
  9 21  1  0  0  0  0
 10  6  1  1  0  0  0
 11 19  1  0  0  0  0
 12 20  2  0  0  0  0
 13  8  1  0  0  0  0
 14  7  2  0  0  0  0
 15 11  2  0  0  0  0
 15 14  1  0  0  0  0
 16 10  1  0  0  0  0
 17 13  2  0  0  0  0
 17 11  1  0  0  0  0
 18 12  1  0  0  0  0
 19 18  2  0  0  0  0
 20 16  1  0  0  0  0
 21 10  1  0  0  0  0
 22 24  2  0  0  0  0
 22  4  1  0  0  0  0
 23 22  1  0  0  0  0
 25 23  1  0  0  0  0
 27 26  1  1  0  0  0
 27 25  1  0  0  0  0
 28 32  1  0  0  0  0
 29 31  2  0  0  0  0
 30 31  1  0  0  0  0
 30 28  1  0  0  0  0
 31 33  1  0  0  0  0
 33 35  1  6  0  0  0
 33 32  1  0  0  0  0
 33 27  1  0  0  0  0
 34 35  1  0  0  0  0
 36 37  1  0  0  0  0
 37 38  1  0  0  0  0
 39 38  1  0  0  0  0
 40 39  1  0  0  0  0
 41 42  1  0  0  0  0
 42 43  1  0  0  0  0
 43 40  1  0  0  0  0
 44 46  1  0  0  0  0
 45 41  1  0  0  0  0
 45 44  1  0  0  0  0
 46 43  2  0  0  0  0
M  END
>  <MODEL>
4

>  <REMARK>
 VINA RESULT:      -8.4      5.348     11.052
  Name = 
  11 active torsions:
  status: ('A' for Active; 'I' for Inactive)
    1  A    between atoms: N_1  and  C_36
    2  A    between atoms: C_3  and  C_40
    3  A    between atoms: C_7  and  N_18
    4  A    between atoms: C_7  and  C_37
    5  A    between atoms: C_9  and  C_44
    6  A    between atoms: N_13  and  C_30
    7  A    between atoms: C_14  and  N_18
    8  A    between atoms: C_16  and  C_30
    9  A    between atoms: C_16  and  C_46
   10  A    between atoms: C_36  and  C_37
   11  A    between atoms: C_38  and  C_46
                            x       y       z     vdW  Elec       q    Type
                         _______ _______ _______ _____ _____    ______ ____

>  <TORSDO>
F 11

$$$$
=
 OpenBabel10222416173D

 46 51  0  0  1  0  0  0  0  0999 V2000
  187.3770  177.6370  137.8940 C   0  0  0  0  0  3  0  0  0  0  0  0
  186.4640  178.3650  138.6620 C   0  0  0  0  0  0  0  0  0  0  0  0
  187.9390  178.1650  140.5630 C   0  0  0  0  0  3  0  0  0  0  0  0
  188.8770  177.4440  139.8050 C   0  0  0  0  0  0  0  0  0  0  0  0
  186.7480  178.6230  140.0000 C   0  0  0  0  0  3  0  0  0  0  0  0
  188.5810  177.1690  138.4380 C   0  0  0  0  0  0  0  0  0  0  0  0
  191.6260  174.1250  136.6530 C   0  0  0  0  0  0  0  0  0  0  0  0
  195.7240  173.7000  138.6730 C   0  0  0  0  0  2  0  0  0  0  0  0
  190.1370  174.2270  136.4550 C   0  0  0  0  0  2  0  0  0  0  0  0
  189.4310  176.3620  137.4990 C   0  0  1  0  0  3  0  0  0  0  0  0
  194.4800  172.9990  136.8090 C   0  0  0  0  0  0  0  0  0  0  0  0
  192.3880  175.1610  137.4270 C   0  0  0  0  0  0  0  0  0  0  0  0
  196.4460  172.7480  137.7620 C   0  0  0  0  0  3  0  0  0  0  0  0
  192.1760  173.1170  136.0380 N   0  0  0  0  0  0  0  0  0  0  0  0
  193.5180  172.6910  135.9990 N   0  0  0  0  0  0  0  0  0  0  0  0
  190.7220  177.0210  137.0010 C   0  0  0  0  0  2  0  0  0  0  0  0
  195.7450  172.3690  136.7400 N   0  0  0  0  0  0  0  0  0  0  0  0
  193.5890  174.8490  138.1990 C   0  0  0  0  0  3  0  0  0  0  0  0
  194.4300  173.8610  137.9610 C   0  0  0  0  0  0  0  0  0  0  0  0
  191.9550  176.4180  137.5970 C   0  0  0  0  0  3  0  0  0  0  0  0
  189.4150  174.8470  137.6420 C   0  0  0  0  0  2  0  0  0  0  0  0
  190.1150  177.0250  140.5050 C   0  0  0  0  0  0  0  0  0  0  0  0
  190.7720  177.8950  141.4260 N   0  0  0  0  0  2  0  0  0  0  0  0
  190.5580  175.8560  140.3330 O   0  0  0  0  0  0  0  0  0  0  0  0
  191.9080  177.4800  142.2400 C   0  0  0  0  0  2  0  0  0  0  0  0
  190.9110  179.1250  143.8450 C   0  0  0  0  0  1  0  0  0  0  0  0
  191.6860  177.8170  143.7170 C   0  0  1  0  0  3  0  0  0  0  0  0
  190.1490  177.3730  146.8730 C   0  0  0  0  0  2  0  0  0  0  0  0
  188.7980  176.7710  143.6310 O   0  0  0  0  0  0  0  0  0  0  0  0
  188.9790  177.0490  145.9640 C   0  0  0  0  0  2  0  0  0  0  0  0
  189.5330  176.8280  144.6040 C   0  0  0  0  0  0  0  0  0  0  0  0
  191.6620  176.6060  146.2030 S   0  0  0  0  0  0  0  0  0  0  0  0
  191.0210  176.6550  144.4920 C   0  0  2  0  0  0  0  0  0  0  0  0
  192.3940  174.6580  144.4830 O   0  0  0  0  0  1  0  0  0  0  0  0
  191.3640  175.3240  143.8120 C   0  0  0  0  0  2  0  0  0  0  0  0
  185.2390  178.8450  138.1010 N   0  0  0  0  0  2  0  0  0  0  0  0
  183.9610  178.1880  138.3280 C   0  0  0  0  0  2  0  0  0  0  0  0
  183.2120  178.8770  139.4540 C   0  0  0  0  0  2  0  0  0  0  0  0
  182.8580  177.8750  140.5360 C   0  0  0  0  0  2  0  0  0  0  0  0
  182.6680  178.5740  141.7970 N   0  0  0  0  0  2  0  0  0  0  0  0
  184.5920  179.5800  144.9560 C   0  0  0  0  0  2  0  0  0  0  0  0
  183.3580  179.3520  144.0890 C   0  0  0  0  0  2  0  0  0  0  0  0
  183.6750  178.6280  142.8080 C   0  0  0  0  0  0  0  0  0  0  0  0
  185.8960  177.9800  143.6150 C   0  0  0  0  0  2  0  0  0  0  0  0
  185.4110  178.3030  145.0220 C   0  0  0  0  0  2  0  0  0  0  0  0
  184.7890  177.9660  142.6560 N   0  0  0  0  0  0  0  0  0  0  0  0
  1  6  2  0  0  0  0
  1  2  1  0  0  0  0
  2  5  2  0  0  0  0
  4 22  1  0  0  0  0
  4  3  2  0  0  0  0
  5  3  1  0  0  0  0
  6  4  1  0  0  0  0
  7 12  1  0  0  0  0
  9  7  1  0  0  0  0
  9 21  1  0  0  0  0
 10 21  1  0  0  0  0
 10  6  1  1  0  0  0
 11 19  1  0  0  0  0
 12 20  2  0  0  0  0
 12 18  1  0  0  0  0
 13  8  1  0  0  0  0
 14  7  2  0  0  0  0
 15 14  1  0  0  0  0
 15 11  2  0  0  0  0
 16 10  1  0  0  0  0
 16 20  1  0  0  0  0
 17 11  1  0  0  0  0
 17 13  2  0  0  0  0
 19 18  2  0  0  0  0
 19  8  1  0  0  0  0
 22 23  1  0  0  0  0
 23 25  1  0  0  0  0
 24 22  2  0  0  0  0
 25 27  1  0  0  0  0
 27 26  1  6  0  0  0
 27 33  1  0  0  0  0
 29 31  2  0  0  0  0
 30 28  1  0  0  0  0
 31 30  1  0  0  0  0
 32 28  1  0  0  0  0
 33 35  1  6  0  0  0
 33 31  1  0  0  0  0
 33 32  1  0  0  0  0
 35 34  1  0  0  0  0
 36 37  1  0  0  0  0
 36  2  1  0  0  0  0
 37 38  1  0  0  0  0
 38 39  1  0  0  0  0
 39 40  1  0  0  0  0
 40 43  1  0  0  0  0
 41 45  1  0  0  0  0
 42 41  1  0  0  0  0
 43 42  1  0  0  0  0
 44 45  1  0  0  0  0
 46 43  2  0  0  0  0
 46 44  1  0  0  0  0
M  END
>  <MODEL>
5

>  <REMARK>
 VINA RESULT:      -8.2      3.153      7.695
  Name = 
  11 active torsions:
  status: ('A' for Active; 'I' for Inactive)
    1  A    between atoms: N_1  and  C_36
    2  A    between atoms: C_3  and  C_40
    3  A    between atoms: C_7  and  N_18
    4  A    between atoms: C_7  and  C_37
    5  A    between atoms: C_9  and  C_44
    6  A    between atoms: N_13  and  C_30
    7  A    between atoms: C_14  and  N_18
    8  A    between atoms: C_16  and  C_30
    9  A    between atoms: C_16  and  C_46
   10  A    between atoms: C_36  and  C_37
   11  A    between atoms: C_38  and  C_46
                            x       y       z     vdW  Elec       q    Type
                         _______ _______ _______ _____ _____    ______ ____

>  <TORSDO>
F 11

$$$$
=
 OpenBabel10222416173D

 46 51  0  0  1  0  0  0  0  0999 V2000
  188.6190  178.1840  139.6140 C   0  0  0  0  0  3  0  0  0  0  0  0
  189.4230  177.8610  138.5170 C   0  0  0  0  0  0  0  0  0  0  0  0
  190.9070  176.6530  139.9900 C   0  0  0  0  0  3  0  0  0  0  0  0
  190.1050  176.9540  141.1030 C   0  0  0  0  0  0  0  0  0  0  0  0
  190.5710  177.0970  138.7110 C   0  0  0  0  0  3  0  0  0  0  0  0
  188.9370  177.7470  140.9070 C   0  0  0  0  0  0  0  0  0  0  0  0
  185.2370  178.3280  143.6820 C   0  0  0  0  0  0  0  0  0  0  0  0
  181.0830  178.5960  141.7510 C   0  0  0  0  0  2  0  0  0  0  0  0
  186.6270  177.8570  144.0150 C   0  0  0  0  0  2  0  0  0  0  0  0
  188.0020  178.2180  141.9840 C   0  0  1  0  0  3  0  0  0  0  0  0
  182.2030  178.7910  143.8050 C   0  0  0  0  0  0  0  0  0  0  0  0
  184.8840  178.8240  142.3090 C   0  0  0  0  0  0  0  0  0  0  0  0
  180.1920  178.9010  142.9210 C   0  0  0  0  0  3  0  0  0  0  0  0
  184.4190  178.3320  144.6950 N   0  0  0  0  0  0  0  0  0  0  0  0
  183.0580  178.6870  144.7710 N   0  0  0  0  0  0  0  0  0  0  0  0
  187.2460  179.5240  141.7170 C   0  0  0  0  0  2  0  0  0  0  0  0
  180.8250  179.0030  144.0470 N   0  0  0  0  0  0  0  0  0  0  0  0
  183.5530  178.6700  141.7290 C   0  0  0  0  0  3  0  0  0  0  0  0
  182.4200  178.5750  142.3980 C   0  0  0  0  0  0  0  0  0  0  0  0
  185.7890  179.3130  141.4490 C   0  0  0  0  0  3  0  0  0  0  0  0
  187.3230  177.1670  142.8520 C   0  0  0  0  0  2  0  0  0  0  0  0
  190.5520  176.4120  142.4090 C   0  0  0  0  0  0  0  0  0  0  0  0
  191.3360  177.1980  143.3050 N   0  0  0  0  0  2  0  0  0  0  0  0
  190.1780  175.2600  142.7610 O   0  0  0  0  0  0  0  0  0  0  0  0
  191.6810  176.7630  144.6530 C   0  0  0  0  0  2  0  0  0  0  0  0
  190.1070  178.6650  145.0770 C   0  0  0  0  0  1  0  0  0  0  0  0
  191.1350  177.7310  145.7060 C   0  0  1  0  0  3  0  0  0  0  0  0
  189.4990  178.6280  148.7130 C   0  0  0  0  0  2  0  0  0  0  0  0
  188.4160  176.3770  146.1720 O   0  0  0  0  0  0  0  0  0  0  0  0
  188.4330  177.7520  148.0860 C   0  0  0  0  0  2  0  0  0  0  0  0
  189.0840  176.9920  146.9890 C   0  0  0  0  0  0  0  0  0  0  0  0
  191.1330  177.8550  148.4700 S   0  0  0  0  0  0  0  0  0  0  0  0
  190.5860  176.9960  146.9520 C   0  0  2  0  0  0  0  0  0  0  0  0
  192.1770  175.4390  147.9070 O   0  0  0  0  0  1  0  0  0  0  0  0
  191.1350  175.5650  146.9850 C   0  0  0  0  0  2  0  0  0  0  0  0
  189.0920  178.3050  137.1990 N   0  0  0  0  0  2  0  0  0  0  0  0
  187.7560  178.1690  136.6370 C   0  0  0  0  0  2  0  0  0  0  0  0
  187.5420  176.7530  136.1340 C   0  0  0  0  0  2  0  0  0  0  0  0
  186.3090  176.1500  136.7760 C   0  0  0  0  0  2  0  0  0  0  0  0
  185.6460  177.1580  137.5890 N   0  0  0  0  0  2  0  0  0  0  0  0
  182.1710  178.6430  138.2300 C   0  0  0  0  0  2  0  0  0  0  0  0
  183.6930  178.5780  138.3010 C   0  0  0  0  0  2  0  0  0  0  0  0
  184.2680  177.4950  137.4270 C   0  0  0  0  0  0  0  0  0  0  0  0
  182.1470  177.2020  136.2350 C   0  0  0  0  0  2  0  0  0  0  0  0
  181.7230  178.5590  136.7820 C   0  0  0  0  0  2  0  0  0  0  0  0
  183.5710  176.9510  136.4670 N   0  0  0  0  0  0  0  0  0  0  0  0
  1  6  1  0  0  0  0
  2  5  1  0  0  0  0
  2  1  2  0  0  0  0
  3  4  1  0  0  0  0
  4 22  1  0  0  0  0
  5  3  2  0  0  0  0
  6  4  2  0  0  0  0
  7  9  1  0  0  0  0
  7 14  2  0  0  0  0
  8 19  1  0  0  0  0
  8 13  1  0  0  0  0
 10  6  1  6  0  0  0
 10 21  1  0  0  0  0
 11 17  1  0  0  0  0
 11 15  2  0  0  0  0
 12  7  1  0  0  0  0
 13 17  2  0  0  0  0
 14 15  1  0  0  0  0
 16 10  1  0  0  0  0
 18 12  1  0  0  0  0
 18 19  2  0  0  0  0
 19 11  1  0  0  0  0
 20 16  1  0  0  0  0
 20 12  2  0  0  0  0
 21  9  1  0  0  0  0
 22 24  2  0  0  0  0
 22 23  1  0  0  0  0
 23 25  1  0  0  0  0
 25 27  1  0  0  0  0
 27 26  1  6  0  0  0
 27 33  1  0  0  0  0
 29 31  2  0  0  0  0
 30 28  1  0  0  0  0
 31 30  1  0  0  0  0
 32 28  1  0  0  0  0
 33 35  1  1  0  0  0
 33 31  1  0  0  0  0
 33 32  1  0  0  0  0
 35 34  1  0  0  0  0
 36  2  1  0  0  0  0
 37 36  1  0  0  0  0
 38 37  1  0  0  0  0
 38 39  1  0  0  0  0
 39 40  1  0  0  0  0
 41 42  1  0  0  0  0
 43 40  1  0  0  0  0
 43 42  1  0  0  0  0
 44 46  1  0  0  0  0
 44 45  1  0  0  0  0
 45 41  1  0  0  0  0
 46 43  2  0  0  0  0
M  END
>  <MODEL>
6

>  <REMARK>
 VINA RESULT:      -7.9      4.247      7.527
  Name = 
  11 active torsions:
  status: ('A' for Active; 'I' for Inactive)
    1  A    between atoms: N_1  and  C_36
    2  A    between atoms: C_3  and  C_40
    3  A    between atoms: C_7  and  N_18
    4  A    between atoms: C_7  and  C_37
    5  A    between atoms: C_9  and  C_44
    6  A    between atoms: N_13  and  C_30
    7  A    between atoms: C_14  and  N_18
    8  A    between atoms: C_16  and  C_30
    9  A    between atoms: C_16  and  C_46
   10  A    between atoms: C_36  and  C_37
   11  A    between atoms: C_38  and  C_46
                            x       y       z     vdW  Elec       q    Type
                         _______ _______ _______ _____ _____    ______ ____

>  <TORSDO>
F 11

$$$$
=
 OpenBabel10222416173D

 46 51  0  0  1  0  0  0  0  0999 V2000
  187.0190  178.2830  139.5060 C   0  0  0  0  0  3  0  0  0  0  0  0
  188.3800  177.9760  139.6000 C   0  0  0  0  0  0  0  0  0  0  0  0
  188.2790  176.9660  137.4090 C   0  0  0  0  0  3  0  0  0  0  0  0
  186.9150  177.2780  137.2890 C   0  0  0  0  0  0  0  0  0  0  0  0
  189.0060  177.3120  138.5480 C   0  0  0  0  0  3  0  0  0  0  0  0
  186.2710  177.9460  138.3700 C   0  0  0  0  0  0  0  0  0  0  0  0
  182.1100  179.5090  139.7750 C   0  0  0  0  0  0  0  0  0  0  0  0
  180.7890  178.6280  144.0800 C   0  0  0  0  0  2  0  0  0  0  0  0
  182.9500  179.9280  138.5980 C   0  0  0  0  0  2  0  0  0  0  0  0
  184.8130  178.3000  138.4430 C   0  0  1  0  0  3  0  0  0  0  0  0
  180.0470  179.5450  142.0500 C   0  0  0  0  0  0  0  0  0  0  0  0
  182.5000  178.3480  140.6440 C   0  0  0  0  0  0  0  0  0  0  0  0
  179.3870  179.1650  144.1130 C   0  0  0  0  0  3  0  0  0  0  0  0
  181.0070  180.1880  139.9100 N   0  0  0  0  0  0  0  0  0  0  0  0
  179.9910  180.0980  140.8810 N   0  0  0  0  0  0  0  0  0  0  0  0
  183.8520  177.1770  138.8490 C   0  0  0  0  0  2  0  0  0  0  0  0
  178.9930  179.6700  142.9870 N   0  0  0  0  0  0  0  0  0  0  0  0
  182.1790  178.2810  142.0670 C   0  0  0  0  0  3  0  0  0  0  0  0
  181.1630  178.8740  142.6630 C   0  0  0  0  0  0  0  0  0  0  0  0
  183.2950  177.3520  140.2270 C   0  0  0  0  0  3  0  0  0  0  0  0
  184.4410  179.7260  138.8220 C   0  0  0  0  0  2  0  0  0  0  0  0
  186.2520  176.8780  136.0250 C   0  0  0  0  0  0  0  0  0  0  0  0
  185.6480  175.5920  135.8830 N   0  0  0  0  0  2  0  0  0  0  0  0
  186.1620  177.7110  135.0810 O   0  0  0  0  0  0  0  0  0  0  0  0
  184.8660  175.2050  134.7150 C   0  0  0  0  0  2  0  0  0  0  0  0
  185.8030  172.9360  135.2160 C   0  0  0  0  0  1  0  0  0  0  0  0
  184.5840  173.7000  134.7100 C   0  0  1  0  0  3  0  0  0  0  0  0
  183.0220  170.7490  135.8830 C   0  0  0  0  0  2  0  0  0  0  0  0
  184.0450  173.6160  137.7340 O   0  0  0  0  0  0  0  0  0  0  0  0
  183.2700  171.4560  137.2010 C   0  0  0  0  0  2  0  0  0  0  0  0
  183.5860  172.8710  136.8820 C   0  0  0  0  0  0  0  0  0  0  0  0
  182.4360  171.9580  134.6510 S   0  0  0  0  0  0  0  0  0  0  0  0
  183.2940  173.3400  135.4850 C   0  0  2  0  0  0  0  0  0  0  0  0
  181.1940  174.2850  136.2360 O   0  0  0  0  0  1  0  0  0  0  0  0
  182.3530  174.5500  135.5030 C   0  0  0  0  0  2  0  0  0  0  0  0
  189.1410  178.3260  140.7590 N   0  0  0  0  0  2  0  0  0  0  0  0
  189.8510  177.3400  141.5600 C   0  0  0  0  0  2  0  0  0  0  0  0
  189.4090  177.4290  143.0090 C   0  0  0  0  0  2  0  0  0  0  0  0
  188.3350  176.3970  143.2930 C   0  0  0  0  0  2  0  0  0  0  0  0
  187.0330  177.0450  143.2940 N   0  0  0  0  0  2  0  0  0  0  0  0
  184.7290  179.0780  145.5870 C   0  0  0  0  0  2  0  0  0  0  0  0
  185.0950  178.2470  144.3610 C   0  0  0  0  0  2  0  0  0  0  0  0
  186.4660  177.6320  144.4660 C   0  0  0  0  0  0  0  0  0  0  0  0
  186.6030  178.1200  146.8640 C   0  0  0  0  0  2  0  0  0  0  0  0
  185.0920  178.3140  146.8480 C   0  0  0  0  0  2  0  0  0  0  0  0
  187.0810  177.5280  145.6120 N   0  0  0  0  0  0  0  0  0  0  0  0
  1  2  1  0  0  0  0
  2 36  1  0  0  0  0
  3  5  1  0  0  0  0
  4  3  2  0  0  0  0
  4  6  1  0  0  0  0
  5  2  2  0  0  0  0
  6  1  2  0  0  0  0
  7 14  2  0  0  0  0
  7 12  1  0  0  0  0
  8 13  1  0  0  0  0
  9 21  1  0  0  0  0
  9  7  1  0  0  0  0
 10  6  1  1  0  0  0
 10 21  1  0  0  0  0
 10 16  1  0  0  0  0
 11 19  1  0  0  0  0
 11 17  1  0  0  0  0
 12 18  1  0  0  0  0
 14 15  1  0  0  0  0
 15 11  2  0  0  0  0
 16 20  1  0  0  0  0
 17 13  2  0  0  0  0
 18 19  2  0  0  0  0
 19  8  1  0  0  0  0
 20 12  2  0  0  0  0
 22  4  1  0  0  0  0
 23 22  1  0  0  0  0
 24 22  2  0  0  0  0
 25 23  1  0  0  0  0
 27 25  1  0  0  0  0
 27 26  1  1  0  0  0
 27 33  1  0  0  0  0
 28 30  1  0  0  0  0
 31 30  1  0  0  0  0
 31 29  2  0  0  0  0
 32 33  1  0  0  0  0
 32 28  1  0  0  0  0
 33 35  1  1  0  0  0
 33 31  1  0  0  0  0
 35 34  1  0  0  0  0
 36 37  1  0  0  0  0
 37 38  1  0  0  0  0
 38 39  1  0  0  0  0
 39 40  1  0  0  0  0
 40 43  1  0  0  0  0
 41 45  1  0  0  0  0
 42 43  1  0  0  0  0
 42 41  1  0  0  0  0
 43 46  2  0  0  0  0
 45 44  1  0  0  0  0
 46 44  1  0  0  0  0
M  END
>  <MODEL>
7

>  <REMARK>
 VINA RESULT:      -7.8      5.108      8.756
  Name = 
  11 active torsions:
  status: ('A' for Active; 'I' for Inactive)
    1  A    between atoms: N_1  and  C_36
    2  A    between atoms: C_3  and  C_40
    3  A    between atoms: C_7  and  N_18
    4  A    between atoms: C_7  and  C_37
    5  A    between atoms: C_9  and  C_44
    6  A    between atoms: N_13  and  C_30
    7  A    between atoms: C_14  and  N_18
    8  A    between atoms: C_16  and  C_30
    9  A    between atoms: C_16  and  C_46
   10  A    between atoms: C_36  and  C_37
   11  A    between atoms: C_38  and  C_46
                            x       y       z     vdW  Elec       q    Type
                         _______ _______ _______ _____ _____    ______ ____

>  <TORSDO>
F 11

$$$$
=
 OpenBabel10222416173D

 46 51  0  0  1  0  0  0  0  0999 V2000
  188.7830  177.9330  141.7400 C   0  0  0  0  0  3  0  0  0  0  0  0
  190.0530  177.3680  141.5870 C   0  0  0  0  0  0  0  0  0  0  0  0
  189.6420  177.1440  139.2180 C   0  0  0  0  0  3  0  0  0  0  0  0
  188.3680  177.7220  139.3480 C   0  0  0  0  0  0  0  0  0  0  0  0
  190.4770  176.9710  140.3220 C   0  0  0  0  0  3  0  0  0  0  0  0
  187.9290  178.1170  140.6450 C   0  0  0  0  0  0  0  0  0  0  0  0
  183.4310  178.6140  141.7660 C   0  0  0  0  0  0  0  0  0  0  0  0
  180.3460  175.9740  139.6290 C   0  0  0  0  0  2  0  0  0  0  0  0
  184.6650  179.0480  142.5130 C   0  0  0  0  0  2  0  0  0  0  0  0
  186.5810  178.6890  140.9810 C   0  0  1  0  0  3  0  0  0  0  0  0
  180.5480  177.7640  141.1350 C   0  0  0  0  0  0  0  0  0  0  0  0
  183.5150  178.0220  140.3890 C   0  0  0  0  0  0  0  0  0  0  0  0
  179.0400  176.5010  140.1510 C   0  0  0  0  0  3  0  0  0  0  0  0
  182.3160  178.8690  142.3870 N   0  0  0  0  0  0  0  0  0  0  0  0
  180.9820  178.6030  142.0200 N   0  0  0  0  0  0  0  0  0  0  0  0
  185.7120  179.1410  139.8040 C   0  0  0  0  0  2  0  0  0  0  0  0
  179.1690  177.4860  140.9820 N   0  0  0  0  0  0  0  0  0  0  0  0
  182.5640  177.0290  139.8940 C   0  0  0  0  0  3  0  0  0  0  0  0
  181.3150  176.8850  140.2910 C   0  0  0  0  0  0  0  0  0  0  0  0
  184.5430  178.2380  139.5570 C   0  0  0  0  0  3  0  0  0  0  0  0
  185.8770  178.1740  142.2290 C   0  0  0  0  0  2  0  0  0  0  0  0
  187.5770  177.8720  138.1030 C   0  0  0  0  0  0  0  0  0  0  0  0
  186.8050  176.7910  137.5840 N   0  0  0  0  0  2  0  0  0  0  0  0
  187.5350  178.9950  137.5290 O   0  0  0  0  0  0  0  0  0  0  0  0
  185.9050  176.9300  136.4460 C   0  0  0  0  0  2  0  0  0  0  0  0
  183.4150  176.9300  136.1670 C   0  0  0  0  0  1  0  0  0  0  0  0
  184.6170  176.1280  136.6550 C   0  0  1  0  0  3  0  0  0  0  0  0
  187.1600  173.9110  135.5890 C   0  0  0  0  0  2  0  0  0  0  0  0
  184.5680  173.3510  137.9680 O   0  0  0  0  0  0  0  0  0  0  0  0
  186.5150  173.0680  136.6720 C   0  0  0  0  0  2  0  0  0  0  0  0
  185.2020  173.6890  136.9810 C   0  0  0  0  0  0  0  0  0  0  0  0
  185.8600  174.7360  134.6130 S   0  0  0  0  0  0  0  0  0  0  0  0
  184.6900  174.7210  136.0170 C   0  0  2  0  0  0  0  0  0  0  0  0
  183.3380  173.0860  134.8450 O   0  0  0  0  0  1  0  0  0  0  0  0
  183.3060  174.3280  135.4850 C   0  0  0  0  0  2  0  0  0  0  0  0
  190.9240  177.1870  142.7060 N   0  0  0  0  0  2  0  0  0  0  0  0
  191.0240  178.1550  143.7880 C   0  0  0  0  0  2  0  0  0  0  0  0
  191.6620  177.5140  145.0070 C   0  0  0  0  0  2  0  0  0  0  0  0
  190.5920  176.9640  145.9300 C   0  0  0  0  0  2  0  0  0  0  0  0
  189.2890  177.1150  145.3010 N   0  0  0  0  0  2  0  0  0  0  0  0
  185.8250  178.6140  145.9680 C   0  0  0  0  0  2  0  0  0  0  0  0
  186.8540  177.7520  145.2450 C   0  0  0  0  0  2  0  0  0  0  0  0
  188.1650  177.6740  145.9820 C   0  0  0  0  0  0  0  0  0  0  0  0
  187.1790  178.6050  148.0230 C   0  0  0  0  0  2  0  0  0  0  0  0
  185.8120  178.2630  147.4450 C   0  0  0  0  0  2  0  0  0  0  0  0
  188.2590  177.9970  147.2430 N   0  0  0  0  0  0  0  0  0  0  0  0
  2  1  1  0  0  0  0
  2 36  1  0  0  0  0
  3  4  2  0  0  0  0
  3  5  1  0  0  0  0
  4  6  1  0  0  0  0
  5  2  2  0  0  0  0
  6  1  2  0  0  0  0
  7 14  2  0  0  0  0
  7  9  1  0  0  0  0
  8 13  1  0  0  0  0
  8 19  1  0  0  0  0
 10  6  1  6  0  0  0
 10 21  1  0  0  0  0
 11 15  2  0  0  0  0
 12  7  1  0  0  0  0
 13 17  2  0  0  0  0
 15 14  1  0  0  0  0
 16 10  1  0  0  0  0
 17 11  1  0  0  0  0
 18 19  2  0  0  0  0
 18 12  1  0  0  0  0
 19 11  1  0  0  0  0
 20 16  1  0  0  0  0
 20 12  2  0  0  0  0
 21  9  1  0  0  0  0
 22  4  1  0  0  0  0
 23 22  1  0  0  0  0
 24 22  2  0  0  0  0
 25 27  1  0  0  0  0
 25 23  1  0  0  0  0
 27 26  1  6  0  0  0
 28 30  1  0  0  0  0
 30 31  1  0  0  0  0
 31 29  2  0  0  0  0
 32 28  1  0  0  0  0
 32 33  1  0  0  0  0
 33 35  1  6  0  0  0
 33 27  1  0  0  0  0
 33 31  1  0  0  0  0
 34 35  1  0  0  0  0
 36 37  1  0  0  0  0
 37 38  1  0  0  0  0
 38 39  1  0  0  0  0
 40 39  1  0  0  0  0
 40 43  1  0  0  0  0
 41 45  1  0  0  0  0
 42 41  1  0  0  0  0
 42 43  1  0  0  0  0
 43 46  2  0  0  0  0
 45 44  1  0  0  0  0
 46 44  1  0  0  0  0
M  END
>  <MODEL>
8

>  <REMARK>
 VINA RESULT:      -7.8      4.397      8.327
  Name = 
  11 active torsions:
  status: ('A' for Active; 'I' for Inactive)
    1  A    between atoms: N_1  and  C_36
    2  A    between atoms: C_3  and  C_40
    3  A    between atoms: C_7  and  N_18
    4  A    between atoms: C_7  and  C_37
    5  A    between atoms: C_9  and  C_44
    6  A    between atoms: N_13  and  C_30
    7  A    between atoms: C_14  and  N_18
    8  A    between atoms: C_16  and  C_30
    9  A    between atoms: C_16  and  C_46
   10  A    between atoms: C_36  and  C_37
   11  A    between atoms: C_38  and  C_46
                            x       y       z     vdW  Elec       q    Type
                         _______ _______ _______ _____ _____    ______ ____

>  <TORSDO>
F 11

$$$$
=
 OpenBabel10222416173D

 46 51  0  0  1  0  0  0  0  0999 V2000
  188.7270  177.9310  139.5650 C   0  0  0  0  0  3  0  0  0  0  0  0
  189.5390  177.5350  138.4990 C   0  0  0  0  0  0  0  0  0  0  0  0
  190.9760  176.3750  140.0540 C   0  0  0  0  0  3  0  0  0  0  0  0
  190.1660  176.7510  141.1380 C   0  0  0  0  0  0  0  0  0  0  0  0
  190.6670  176.7590  138.7490 C   0  0  0  0  0  3  0  0  0  0  0  0
  189.0180  177.5560  140.8840 C   0  0  0  0  0  0  0  0  0  0  0  0
  185.2940  178.3560  143.5710 C   0  0  0  0  0  0  0  0  0  0  0  0
  181.1720  178.5960  141.5710 C   0  0  0  0  0  2  0  0  0  0  0  0
  186.6710  177.8780  143.9490 C   0  0  0  0  0  2  0  0  0  0  0  0
  188.0780  178.1030  141.9210 C   0  0  1  0  0  3  0  0  0  0  0  0
  182.2680  178.8820  143.6270 C   0  0  0  0  0  0  0  0  0  0  0  0
  184.9690  178.7840  142.1690 C   0  0  0  0  0  0  0  0  0  0  0  0
  180.2720  178.9810  142.7100 C   0  0  0  0  0  3  0  0  0  0  0  0
  184.4640  178.4310  144.5710 N   0  0  0  0  0  0  0  0  0  0  0  0
  183.1090  178.8140  144.6100 N   0  0  0  0  0  0  0  0  0  0  0  0
  187.3520  179.4060  141.5730 C   0  0  0  0  0  2  0  0  0  0  0  0
  180.8910  179.1320  143.8380 N   0  0  0  0  0  0  0  0  0  0  0  0
  183.6420  178.6240  141.5790 C   0  0  0  0  0  3  0  0  0  0  0  0
  182.4990  178.5860  142.2380 C   0  0  0  0  0  0  0  0  0  0  0  0
  185.8940  179.2080  141.2970 C   0  0  0  0  0  3  0  0  0  0  0  0
  187.3680  177.1130  142.8340 C   0  0  0  0  0  2  0  0  0  0  0  0
  190.5830  176.2690  142.4770 C   0  0  0  0  0  0  0  0  0  0  0  0
  191.3660  177.0880  143.3450 N   0  0  0  0  0  2  0  0  0  0  0  0
  190.1840  175.1430  142.8810 O   0  0  0  0  0  0  0  0  0  0  0  0
  191.6830  176.7160  144.7180 C   0  0  0  0  0  2  0  0  0  0  0  0
  190.0850  178.6240  145.0090 C   0  0  0  0  0  1  0  0  0  0  0  0
  191.0800  177.7090  145.7160 C   0  0  1  0  0  3  0  0  0  0  0  0
  189.2160  178.6680  148.5660 C   0  0  0  0  0  2  0  0  0  0  0  0
  188.3740  176.2920  146.0480 O   0  0  0  0  0  0  0  0  0  0  0  0
  188.2200  177.7370  147.9030 C   0  0  0  0  0  2  0  0  0  0  0  0
  188.9660  176.9570  146.8840 C   0  0  0  0  0  0  0  0  0  0  0  0
  190.8830  177.9370  148.4650 S   0  0  0  0  0  0  0  0  0  0  0  0
  190.4660  177.0060  146.9490 C   0  0  2  0  0  0  0  0  0  0  0  0
  192.1900  175.5830  147.8860 O   0  0  0  0  0  1  0  0  0  0  0  0
  191.0510  175.5940  147.0760 C   0  0  0  0  0  2  0  0  0  0  0  0
  189.2350  177.9150  137.1540 N   0  0  0  0  0  2  0  0  0  0  0  0
  188.4130  179.0730  136.8330 C   0  0  0  0  0  2  0  0  0  0  0  0
  186.9750  178.6450  136.6060 C   0  0  0  0  0  2  0  0  0  0  0  0
  186.9150  177.5410  135.5690 C   0  0  0  0  0  2  0  0  0  0  0  0
  186.0090  176.4990  136.0260 N   0  0  0  0  0  2  0  0  0  0  0  0
  186.0560  173.0010  137.5940 C   0  0  0  0  0  2  0  0  0  0  0  0
  185.4380  174.2030  136.8870 C   0  0  0  0  0  2  0  0  0  0  0  0
  186.4660  175.2200  136.4660 C   0  0  0  0  0  0  0  0  0  0  0  0
  188.3090  173.6490  136.8450 C   0  0  0  0  0  2  0  0  0  0  0  0
  187.2770  172.5290  136.8250 C   0  0  0  0  0  2  0  0  0  0  0  0
  187.7340  174.9170  136.3910 N   0  0  0  0  0  0  0  0  0  0  0  0
  1  6  1  0  0  0  0
  2  5  1  0  0  0  0
  2  1  2  0  0  0  0
  3  4  1  0  0  0  0
  4 22  1  0  0  0  0
  5  3  2  0  0  0  0
  6  4  2  0  0  0  0
  7  9  1  0  0  0  0
  7 14  2  0  0  0  0
  8 19  1  0  0  0  0
  8 13  1  0  0  0  0
 10  6  1  6  0  0  0
 10 21  1  0  0  0  0
 11 17  1  0  0  0  0
 11 15  2  0  0  0  0
 12  7  1  0  0  0  0
 13 17  2  0  0  0  0
 14 15  1  0  0  0  0
 16 10  1  0  0  0  0
 18 12  1  0  0  0  0
 18 19  2  0  0  0  0
 19 11  1  0  0  0  0
 20 16  1  0  0  0  0
 20 12  2  0  0  0  0
 21  9  1  0  0  0  0
 22 24  2  0  0  0  0
 22 23  1  0  0  0  0
 23 25  1  0  0  0  0
 25 27  1  0  0  0  0
 27 26  1  6  0  0  0
 27 33  1  0  0  0  0
 29 31  2  0  0  0  0
 30 28  1  0  0  0  0
 31 33  1  0  0  0  0
 31 30  1  0  0  0  0
 32 28  1  0  0  0  0
 33 35  1  1  0  0  0
 33 32  1  0  0  0  0
 35 34  1  0  0  0  0
 36  2  1  0  0  0  0
 37 36  1  0  0  0  0
 38 37  1  0  0  0  0
 39 40  1  0  0  0  0
 39 38  1  0  0  0  0
 40 43  1  0  0  0  0
 42 41  1  0  0  0  0
 43 42  1  0  0  0  0
 45 44  1  0  0  0  0
 45 41  1  0  0  0  0
 46 43  2  0  0  0  0
 46 44  1  0  0  0  0
M  END
>  <MODEL>
9

>  <REMARK>
 VINA RESULT:      -7.7      4.268      7.817
  Name = 
  11 active torsions:
  status: ('A' for Active; 'I' for Inactive)
    1  A    between atoms: N_1  and  C_36
    2  A    between atoms: C_3  and  C_40
    3  A    between atoms: C_7  and  N_18
    4  A    between atoms: C_7  and  C_37
    5  A    between atoms: C_9  and  C_44
    6  A    between atoms: N_13  and  C_30
    7  A    between atoms: C_14  and  N_18
    8  A    between atoms: C_16  and  C_30
    9  A    between atoms: C_16  and  C_46
   10  A    between atoms: C_36  and  C_37
   11  A    between atoms: C_38  and  C_46
                            x       y       z     vdW  Elec       q    Type
                         _______ _______ _______ _____ _____    ______ ____

>  <TORSDO>
F 11

$$$$
