=
 OpenBabel10222416503D

 69 73  0  0  1  0  0  0  0  0999 V2000
  186.0470  178.5000  140.3390 C   0  0  2  0  0  3  0  0  0  0  0  0
  187.4450  177.7240  135.9210 C   0  0  0  0  0  3  0  0  0  0  0  0
  186.1640  177.3730  136.1380 C   0  0  0  0  0  0  0  0  0  0  0  0
  183.1980  174.3040  135.9050 C   0  0  0  0  0  2  0  0  0  0  0  0
  180.7160  176.9590  139.1840 C   0  0  0  0  0  0  0  0  0  0  0  0
  182.0610  179.2060  141.5050 C   0  0  0  0  0  1  0  0  0  0  0  0
  189.5620  178.4000  136.8750 N   0  0  0  0  0  1  0  0  0  0  0  0
  183.8240  177.4710  140.8890 C   0  0  0  0  0  0  0  0  0  0  0  0
  182.0880  174.2350  136.9340 C   0  0  0  0  0  2  0  0  0  0  0  0
  180.8630  175.5860  138.6070 C   0  0  0  0  0  2  0  0  0  0  0  0
  187.6220  178.5810  138.1640 O   0  0  0  0  0  0  0  0  0  0  0  0
  185.4870  176.4580  135.1420 C   0  0  0  0  0  2  0  0  0  0  0  0
  188.1380  178.6830  136.8590 C   0  0  2  0  0  3  0  0  0  0  0  0
  181.6420  175.6350  137.3070 C   0  0  0  0  0  2  0  0  0  0  0  0
  185.4790  175.0320  135.5070 N   0  0  0  0  0  0  0  0  0  0  0  0
  186.2570  178.9330  138.0710 C   0  0  2  0  0  3  0  0  0  0  0  0
  185.7010  179.3790  139.2940 O   0  0  0  0  0  0  0  0  0  0  0  0
  181.9120  177.8560  139.3020 C   0  0  2  0  0  3  0  0  0  0  0  0
  179.6300  177.3190  139.6190 O   0  0  0  0  0  0  0  0  0  0  0  0
  184.4820  174.8160  136.5430 C   0  0  0  0  0  2  0  0  0  0  0  0
  184.0970  176.2980  140.6920 O   0  0  0  0  0  0  0  0  0  0  0  0
  182.3930  177.9150  140.7590 C   0  0  2  0  0  3  0  0  0  0  0  0
  184.9040  178.4040  141.3450 C   0  0  0  0  0  2  0  0  0  0  0  0
  185.4520  177.8120  137.3990 C   0  0  0  0  0  2  0  0  0  0  0  0
  181.6380  179.2050  138.6300 C   0  0  0  0  0  2  0  0  0  0  0  0
  181.9620  179.1610  137.1500 C   0  0  0  0  0  2  0  0  0  0  0  0
  180.8230  179.7610  136.3540 C   0  0  0  0  0  2  0  0  0  0  0  0
  180.0140  180.6930  137.2410 C   0  0  0  0  0  2  0  0  0  0  0  0
  180.7710  181.8250  137.5410 O   0  0  0  0  0  0  0  0  0  0  0  0
  179.9770  182.9140  137.1540 C   0  0  2  0  0  3  0  0  0  0  0  0
  182.0650  184.0820  136.9390 O   0  0  0  0  0  1  0  0  0  0  0  0
  180.9700  183.4990  134.9060 C   0  0  0  0  0  1  0  0  0  0  0  0
  180.1040  185.2850  136.3720 C   0  0  0  0  0  1  0  0  0  0  0  0
  180.8020  183.9350  136.3550 C   0  0  0  0  0  0  0  0  0  0  0  0
  179.3020  182.5580  139.5370 C   0  0  0  0  0  1  0  0  0  0  0  0
  179.3320  183.5480  138.3860 C   0  0  0  0  0  2  0  0  0  0  0  0
  187.3170  178.9870  141.0500 C   0  0  0  0  0  2  0  0  0  0  0  0
  189.7360  176.8060  143.2510 C   0  0  1  0  0  3  0  0  0  0  0  0
  187.0190  178.1910  143.3210 C   0  0  0  0  0  3  0  0  0  0  0  0
  188.9580  177.2290  141.9990 C   0  0  2  0  0  3  0  0  0  0  0  0
  189.1190  177.4540  144.8690 S   0  0  0  0  0  0  0  0  0  0  0  0
  187.7320  178.1090  142.1910 C   0  0  0  0  0  0  0  0  0  0  0  0
  188.7750  175.8330  142.5760 C   0  0  0  0  0  2  0  0  0  0  0  0
  187.3340  177.3700  144.5220 C   0  0  1  0  0  3  0  0  0  0  0  0
  186.5420  177.8330  145.6980 C   0  0  0  0  0  0  0  0  0  0  0  0
  185.7850  178.9910  145.5970 O   0  0  0  0  0  0  0  0  0  0  0  0
  186.5700  177.1970  146.7830 O   0  0  0  0  0  1  0  0  0  0  0  0
  186.7850  174.6030  136.0050 C   0  0  0  0  0  2  0  0  0  0  0  0
  187.3090  173.4340  135.1910 C   0  0  0  0  0  2  0  0  0  0  0  0
  188.7960  173.2380  135.4200 C   0  0  2  0  0  3  0  0  0  0  0  0
  195.2530  172.6290  135.3260 C   0  0  0  0  0  2  0  0  0  0  0  0
  189.0860  171.8130  135.3810 N   0  0  0  0  0  2  0  0  0  0  0  0
  190.5970  170.0590  135.2970 O   0  0  0  0  0  0  0  0  0  0  0  0
  194.8330  170.2470  134.8750 C   0  0  0  0  0  2  0  0  0  0  0  0
  192.9230  171.8590  135.2760 C   0  0  0  0  0  0  0  0  0  0  0  0
  190.4190  171.3030  135.3180 C   0  0  0  0  0  0  0  0  0  0  0  0
  191.5330  172.2090  135.3060 N   0  0  0  0  0  2  0  0  0  0  0  0
  193.8010  172.8180  135.3870 N   0  0  0  0  0  0  0  0  0  0  0  0
  193.3570  170.4110  135.2210 C   0  0  0  0  0  2  0  0  0  0  0  0
  195.6530  171.2110  135.7120 C   0  0  0  0  0  2  0  0  0  0  0  0
  190.3140  174.6140  136.9260 C   0  0  0  0  0  0  0  0  0  0  0  0
  189.1720  173.7740  136.7240 N   0  0  0  0  0  2  0  0  0  0  0  0
  190.5770  175.0230  138.0870 O   0  0  0  0  0  0  0  0  0  0  0  0
  191.1830  175.0280  135.7680 C   0  0  2  0  0  3  0  0  0  0  0  0
  192.3220  175.9720  136.1810 C   0  0  2  0  0  3  0  0  0  0  0  0
  193.3040  176.1590  135.0370 C   0  0  0  0  0  1  0  0  0  0  0  0
  193.0100  175.4450  137.2750 O   0  0  0  0  0  1  0  0  0  0  0  0
  190.3510  175.5590  134.5940 C   0  0  0  0  0  2  0  0  0  0  0  0
  190.1830  177.0690  134.6320 C   0  0  0  0  0  1  0  0  0  0  0  0
  1 37  1  1  0  0  0
  1 23  1  0  0  0  0
  2  3  2  0  0  0  0
  2 13  1  0  0  0  0
  3 24  1  0  0  0  0
  4 20  1  0  0  0  0
  4  9  1  0  0  0  0
  5 18  1  0  0  0  0
  5 19  2  0  0  0  0
  8 23  1  0  0  0  0
  9 14  1  0  0  0  0
 10  5  1  0  0  0  0
 12 15  1  0  0  0  0
 12  3  1  0  0  0  0
 13  7  1  1  0  0  0
 13 11  1  0  0  0  0
 14 10  1  0  0  0  0
 15 48  1  0  0  0  0
 15 20  1  0  0  0  0
 16 24  1  1  0  0  0
 16 11  1  0  0  0  0
 16 17  1  0  0  0  0
 17  1  1  0  0  0  0
 18 25  1  1  0  0  0
 18 22  1  0  0  0  0
 21  8  2  0  0  0  0
 22  8  1  0  0  0  0
 22  6  1  6  0  0  0
 26 25  1  0  0  0  0
 27 26  1  0  0  0  0
 27 28  1  0  0  0  0
 28 29  1  0  0  0  0
 30 29  1  0  0  0  0
 30 36  1  1  0  0  0
 32 34  1  0  0  0  0
 34 33  1  0  0  0  0
 34 31  1  0  0  0  0
 34 30  1  0  0  0  0
 36 35  1  0  0  0  0
 37 42  1  0  0  0  0
 38 43  1  1  0  0  0
 38 41  1  0  0  0  0
 39 44  1  0  0  0  0
 40 42  1  0  0  0  0
 40 43  1  1  0  0  0
 40 38  1  0  0  0  0
 42 39  2  0  0  0  0
 44 41  1  0  0  0  0
 44 45  1  1  0  0  0
 45 47  1  0  0  0  0
 46 45  2  0  0  0  0
 49 48  1  0  0  0  0
 50 49  1  1  0  0  0
 50 62  1  0  0  0  0
 51 58  1  0  0  0  0
 51 60  1  0  0  0  0
 52 50  1  0  0  0  0
 53 56  2  0  0  0  0
 54 59  1  0  0  0  0
 54 60  1  0  0  0  0
 55 57  1  0  0  0  0
 55 58  2  0  0  0  0
 56 52  1  0  0  0  0
 57 56  1  0  0  0  0
 59 55  1  0  0  0  0
 61 63  2  0  0  0  0
 62 61  1  0  0  0  0
 64 68  1  6  0  0  0
 64 65  1  0  0  0  0
 64 61  1  0  0  0  0
 65 66  1  6  0  0  0
 65 67  1  0  0  0  0
 68 69  1  0  0  0  0
M  END
>  <MODEL>
1

>  <REMARK>
 VINA RESULT:      -4.1      0.000      0.000
  Name = 
  19 active torsions:
  status: ('A' for Active; 'I' for Inactive)
    1  A    between atoms: C_2  and  C_43
    2  A    between atoms: C_3  and  C_51
    3  A    between atoms: C_10  and  C_64
    4  A    between atoms: N_17  and  C_69
    5  A    between atoms: C_18  and  C_43
    6  A    between atoms: C_26  and  C_51
    7  A    between atoms: N_33  and  C_46
    8  A    between atoms: C_37  and  C_43
    9  A    between atoms: C_39  and  C_67
   10  A    between atoms: O_41  and  C_47
   11  A    between atoms: O_41  and  C_67
   12  A    between atoms: C_42  and  C_47
   13  A    between atoms: C_42  and  C_65
   14  A    between atoms: C_46  and  C_61
   15  A    between atoms: C_50  and  C_55
   16  A    between atoms: N_52  and  C_69
   17  A    between atoms: C_55  and  C_65
   18  A    between atoms: C_60  and  C_67
   19  A    between atoms: C_61  and  C_69
                            x       y       z     vdW  Elec       q    Type
                         _______ _______ _______ _____ _____    ______ ____

>  <TORSDO>
F 19

$$$$
=
 OpenBabel10222416503D

 69 73  0  0  1  0  0  0  0  0999 V2000
  188.5640  178.6600  140.7410 C   0  0  2  0  0  3  0  0  0  0  0  0
  183.9710  177.9570  141.4340 C   0  0  0  0  0  3  0  0  0  0  0  0
  184.3750  177.6150  140.1960 C   0  0  0  0  0  0  0  0  0  0  0  0
  183.8260  178.0950  135.9850 C   0  0  0  0  0  2  0  0  0  0  0  0
  188.3850  176.3630  135.5630 C   0  0  0  0  0  0  0  0  0  0  0  0
  190.9220  176.5440  137.9650 C   0  0  0  0  0  1  0  0  0  0  0  0
  184.5060  179.0480  143.5240 N   0  0  0  0  0  1  0  0  0  0  0  0
  189.2660  178.4450  138.3400 C   0  0  0  0  0  0  0  0  0  0  0  0
  185.0120  178.0140  135.0460 C   0  0  0  0  0  2  0  0  0  0  0  0
  187.3270  177.1560  134.8610 C   0  0  0  0  0  2  0  0  0  0  0  0
  186.2370  178.4620  142.0690 O   0  0  0  0  0  0  0  0  0  0  0  0
  183.3310  177.4490  139.1150 C   0  0  0  0  0  2  0  0  0  0  0  0
  184.9750  178.0730  142.5550 C   0  0  2  0  0  3  0  0  0  0  0  0
  185.9790  176.9490  135.5260 C   0  0  0  0  0  2  0  0  0  0  0  0
  183.1330  178.6230  138.2500 N   0  0  0  0  0  0  0  0  0  0  0  0
  186.6470  177.4360  141.1890 C   0  0  2  0  0  3  0  0  0  0  0  0
  188.0480  177.3740  141.0010 O   0  0  0  0  0  0  0  0  0  0  0  0
  188.5030  176.4230  137.0560 C   0  0  2  0  0  3  0  0  0  0  0  0
  189.1940  175.7210  134.9050 O   0  0  0  0  0  0  0  0  0  0  0  0
  184.2410  178.7110  137.3130 C   0  0  0  0  0  2  0  0  0  0  0  0
  188.5860  179.3360  137.8570 O   0  0  0  0  0  0  0  0  0  0  0  0
  189.6940  177.3010  137.4620 C   0  0  2  0  0  3  0  0  0  0  0  0
  189.7290  178.5710  139.7600 C   0  0  0  0  0  2  0  0  0  0  0  0
  185.8490  177.4940  139.8790 C   0  0  0  0  0  2  0  0  0  0  0  0
  188.4730  175.0120  137.6510 C   0  0  0  0  0  2  0  0  0  0  0  0
  188.6390  173.9550  136.5790 C   0  0  0  0  0  2  0  0  0  0  0  0
  189.6940  172.9540  136.9990 C   0  0  0  0  0  2  0  0  0  0  0  0
  190.9260  173.1100  136.1240 C   0  0  0  0  0  2  0  0  0  0  0  0
  192.0730  172.9640  136.9030 O   0  0  0  0  0  0  0  0  0  0  0  0
  193.0900  172.6170  136.0020 C   0  0  2  0  0  3  0  0  0  0  0  0
  194.5300  173.6050  137.6520 O   0  0  0  0  0  1  0  0  0  0  0  0
  194.6740  171.2400  137.4090 C   0  0  0  0  0  1  0  0  0  0  0  0
  195.5660  172.7710  135.6910 C   0  0  0  0  0  1  0  0  0  0  0  0
  194.4550  172.5740  136.7090 C   0  0  0  0  0  0  0  0  0  0  0  0
  192.9390  175.0200  135.3190 C   0  0  0  0  0  1  0  0  0  0  0  0
  193.0940  173.5910  134.8250 C   0  0  0  0  0  2  0  0  0  0  0  0
  189.0390  179.3200  142.0420 C   0  0  0  0  0  2  0  0  0  0  0  0
  191.6240  177.0540  143.9480 C   0  0  1  0  0  3  0  0  0  0  0  0
  188.8210  178.2300  144.1980 C   0  0  0  0  0  3  0  0  0  0  0  0
  190.8050  177.5740  142.7610 C   0  0  2  0  0  3  0  0  0  0  0  0
  190.9830  177.4520  145.6360 S   0  0  0  0  0  0  0  0  0  0  0  0
  189.5250  178.3380  143.0640 C   0  0  0  0  0  0  0  0  0  0  0  0
  190.7230  176.1080  143.1600 C   0  0  0  0  0  2  0  0  0  0  0  0
  189.2040  177.2900  145.2860 C   0  0  1  0  0  3  0  0  0  0  0  0
  188.3960  177.5490  146.5120 C   0  0  0  0  0  0  0  0  0  0  0  0
  188.8320  177.0570  147.7340 O   0  0  0  0  0  1  0  0  0  0  0  0
  187.3140  178.1890  146.4460 O   0  0  0  0  0  0  0  0  0  0  0  0
  183.0710  179.8560  139.0330 C   0  0  0  0  0  2  0  0  0  0  0  0
  181.9360  180.7400  138.5500 C   0  0  0  0  0  2  0  0  0  0  0  0
  180.5910  180.0980  138.8360 C   0  0  2  0  0  3  0  0  0  0  0  0
  180.4260  173.8190  137.2180 C   0  0  0  0  0  2  0  0  0  0  0  0
  179.8490  180.0020  137.5880 N   0  0  0  0  0  2  0  0  0  0  0  0
  178.9820  178.7500  135.8430 O   0  0  0  0  0  0  0  0  0  0  0  0
  179.4970  174.5900  135.0750 C   0  0  0  0  0  2  0  0  0  0  0  0
  180.0150  176.2230  136.9380 C   0  0  0  0  0  0  0  0  0  0  0  0
  179.6420  178.7600  136.9120 C   0  0  0  0  0  0  0  0  0  0  0  0
  180.1620  177.5450  137.4720 N   0  0  0  0  0  2  0  0  0  0  0  0
  180.4580  175.2200  137.6460 N   0  0  0  0  0  0  0  0  0  0  0  0
  179.2760  175.9900  135.6390 C   0  0  0  0  0  2  0  0  0  0  0  0
  179.3330  173.5700  136.1860 C   0  0  0  0  0  2  0  0  0  0  0  0
  179.7140  180.5910  141.1710 C   0  0  0  0  0  0  0  0  0  0  0  0
  179.8420  180.9170  139.7830 N   0  0  0  0  0  2  0  0  0  0  0  0
  179.0370  181.3430  141.9190 O   0  0  0  0  0  0  0  0  0  0  0  0
  180.3950  179.3760  141.7450 C   0  0  2  0  0  3  0  0  0  0  0  0
  179.4650  178.1590  141.8470 C   0  0  2  0  0  3  0  0  0  0  0  0
  180.1680  177.0030  142.5390 C   0  0  0  0  0  1  0  0  0  0  0  0
  179.0760  177.7420  140.5720 O   0  0  0  0  0  1  0  0  0  0  0  0
  181.1190  179.6980  143.0590 C   0  0  0  0  0  2  0  0  0  0  0  0
  180.3670  179.1920  144.2790 C   0  0  0  0  0  1  0  0  0  0  0  0
  1 17  1  0  0  0  0
  1 37  1  1  0  0  0
  2 13  1  0  0  0  0
  3  2  2  0  0  0  0
  4 20  1  0  0  0  0
  5 18  1  0  0  0  0
  8 23  1  0  0  0  0
  9 14  1  0  0  0  0
  9  4  1  0  0  0  0
 10 14  1  0  0  0  0
 10  5  1  0  0  0  0
 11 13  1  0  0  0  0
 12  3  1  0  0  0  0
 13  7  1  1  0  0  0
 15 48  1  0  0  0  0
 15 12  1  0  0  0  0
 16 24  1  6  0  0  0
 16 11  1  0  0  0  0
 17 16  1  0  0  0  0
 18 22  1  0  0  0  0
 18 25  1  6  0  0  0
 19  5  2  0  0  0  0
 20 15  1  0  0  0  0
 21  8  2  0  0  0  0
 22  6  1  1  0  0  0
 22  8  1  0  0  0  0
 23  1  1  0  0  0  0
 24  3  1  0  0  0  0
 26 27  1  0  0  0  0
 26 25  1  0  0  0  0
 28 29  1  0  0  0  0
 28 27  1  0  0  0  0
 30 36  1  6  0  0  0
 30 34  1  0  0  0  0
 30 29  1  0  0  0  0
 33 34  1  0  0  0  0
 34 32  1  0  0  0  0
 34 31  1  0  0  0  0
 36 35  1  0  0  0  0
 37 42  1  0  0  0  0
 38 43  1  6  0  0  0
 38 41  1  0  0  0  0
 39 44  1  0  0  0  0
 40 42  1  0  0  0  0
 40 43  1  6  0  0  0
 40 38  1  0  0  0  0
 42 39  2  0  0  0  0
 44 41  1  0  0  0  0
 44 45  1  1  0  0  0
 45 46  1  0  0  0  0
 47 45  2  0  0  0  0
 49 48  1  0  0  0  0
 50 49  1  6  0  0  0
 50 62  1  0  0  0  0
 51 58  1  0  0  0  0
 52 50  1  0  0  0  0
 53 56  2  0  0  0  0
 54 59  1  0  0  0  0
 54 60  1  0  0  0  0
 55 57  1  0  0  0  0
 55 58  2  0  0  0  0
 56 57  1  0  0  0  0
 56 52  1  0  0  0  0
 59 55  1  0  0  0  0
 60 51  1  0  0  0  0
 61 64  1  0  0  0  0
 61 63  2  0  0  0  0
 62 61  1  0  0  0  0
 64 65  1  0  0  0  0
 64 68  1  1  0  0  0
 65 66  1  6  0  0  0
 67 65  1  0  0  0  0
 68 69  1  0  0  0  0
M  END
>  <MODEL>
2

>  <REMARK>
 VINA RESULT:      -3.7      3.519     10.632
  Name = 
  19 active torsions:
  status: ('A' for Active; 'I' for Inactive)
    1  A    between atoms: C_2  and  C_43
    2  A    between atoms: C_3  and  C_51
    3  A    between atoms: C_10  and  C_64
    4  A    between atoms: N_17  and  C_69
    5  A    between atoms: C_18  and  C_43
    6  A    between atoms: C_26  and  C_51
    7  A    between atoms: N_33  and  C_46
    8  A    between atoms: C_37  and  C_43
    9  A    between atoms: C_39  and  C_67
   10  A    between atoms: O_41  and  C_47
   11  A    between atoms: O_41  and  C_67
   12  A    between atoms: C_42  and  C_47
   13  A    between atoms: C_42  and  C_65
   14  A    between atoms: C_46  and  C_61
   15  A    between atoms: C_50  and  C_55
   16  A    between atoms: N_52  and  C_69
   17  A    between atoms: C_55  and  C_65
   18  A    between atoms: C_60  and  C_67
   19  A    between atoms: C_61  and  C_69
                            x       y       z     vdW  Elec       q    Type
                         _______ _______ _______ _____ _____    ______ ____

>  <TORSDO>
F 19

$$$$
=
 OpenBabel10222416503D

 69 73  0  0  1  0  0  0  0  0999 V2000
  188.3670  178.7140  140.5320 C   0  0  2  0  0  3  0  0  0  0  0  0
  183.8220  178.0240  141.5030 C   0  0  0  0  0  3  0  0  0  0  0  0
  184.1580  177.6460  140.2560 C   0  0  0  0  0  0  0  0  0  0  0  0
  183.3710  177.9950  136.0700 C   0  0  0  0  0  2  0  0  0  0  0  0
  187.9060  176.2590  135.4450 C   0  0  0  0  0  0  0  0  0  0  0  0
  190.5730  176.5180  137.6940 C   0  0  0  0  0  1  0  0  0  0  0  0
  184.4700  179.1800  143.5260 N   0  0  0  0  0  1  0  0  0  0  0  0
  188.9340  178.4270  138.1040 C   0  0  0  0  0  0  0  0  0  0  0  0
  184.5040  177.8880  135.0680 C   0  0  0  0  0  2  0  0  0  0  0  0
  186.8070  177.0280  134.7800 C   0  0  0  0  0  2  0  0  0  0  0  0
  186.1180  178.5520  141.9940 O   0  0  0  0  0  0  0  0  0  0  0  0
  183.0550  177.4440  139.2410 C   0  0  0  0  0  2  0  0  0  0  0  0
  184.8870  178.1770  142.5620 C   0  0  2  0  0  3  0  0  0  0  0  0
  185.5000  176.8390  135.5250 C   0  0  0  0  0  2  0  0  0  0  0  0
  182.8050  178.5920  138.3520 N   0  0  0  0  0  0  0  0  0  0  0  0
  186.4820  177.5010  141.1250 C   0  0  2  0  0  3  0  0  0  0  0  0
  187.8710  177.4360  140.8600 O   0  0  0  0  0  0  0  0  0  0  0  0
  188.1070  176.3650  136.9260 C   0  0  2  0  0  3  0  0  0  0  0  0
  188.6790  175.5990  134.7630 O   0  0  0  0  0  0  0  0  0  0  0  0
  183.8590  178.6530  137.3530 C   0  0  0  0  0  2  0  0  0  0  0  0
  188.2250  179.3010  137.6320 O   0  0  0  0  0  0  0  0  0  0  0  0
  189.3160  177.2570  137.2380 C   0  0  2  0  0  3  0  0  0  0  0  0
  189.4750  178.5970  139.4900 C   0  0  0  0  0  2  0  0  0  0  0  0
  185.6120  177.5170  139.8600 C   0  0  0  0  0  2  0  0  0  0  0  0
  188.1160  174.9730  137.5660 C   0  0  0  0  0  2  0  0  0  0  0  0
  188.2730  173.8860  136.5220 C   0  0  0  0  0  2  0  0  0  0  0  0
  189.4820  173.0340  136.8420 C   0  0  0  0  0  2  0  0  0  0  0  0
  190.7160  173.6290  136.1850 C   0  0  0  0  0  2  0  0  0  0  0  0
  191.4680  172.6120  135.5980 O   0  0  0  0  0  0  0  0  0  0  0  0
  192.7350  173.1700  135.3780 C   0  0  2  0  0  3  0  0  0  0  0  0
  195.0640  172.5810  135.3680 O   0  0  0  0  0  1  0  0  0  0  0  0
  193.9570  172.4610  137.4730 C   0  0  0  0  0  1  0  0  0  0  0  0
  193.5170  170.8150  135.6860 C   0  0  0  0  0  1  0  0  0  0  0  0
  193.8370  172.2740  135.9660 C   0  0  0  0  0  0  0  0  0  0  0  0
  193.9410  175.3630  135.3500 C   0  0  0  0  0  1  0  0  0  0  0  0
  192.7870  174.5840  135.9570 C   0  0  0  0  0  2  0  0  0  0  0  0
  188.9110  179.4150  141.7840 C   0  0  0  0  0  2  0  0  0  0  0  0
  191.3830  177.4490  144.1240 C   0  0  1  0  0  3  0  0  0  0  0  0
  188.4430  178.2010  143.8310 C   0  0  0  0  0  3  0  0  0  0  0  0
  190.7440  177.9050  142.8080 C   0  0  2  0  0  3  0  0  0  0  0  0
  190.3730  177.6690  145.6570 S   0  0  0  0  0  0  0  0  0  0  0  0
  189.3300  178.4630  142.8630 C   0  0  0  0  0  0  0  0  0  0  0  0
  190.8050  176.4250  143.1540 C   0  0  0  0  0  2  0  0  0  0  0  0
  188.7420  177.2730  144.9550 C   0  0  1  0  0  3  0  0  0  0  0  0
  187.6800  177.3540  145.9990 C   0  0  0  0  0  0  0  0  0  0  0  0
  187.9430  178.0160  147.1900 O   0  0  0  0  0  1  0  0  0  0  0  0
  186.5590  176.8120  145.8190 O   0  0  0  0  0  0  0  0  0  0  0  0
  182.7820  179.8480  139.1000 C   0  0  0  0  0  2  0  0  0  0  0  0
  181.7910  180.8180  138.4850 C   0  0  0  0  0  2  0  0  0  0  0  0
  180.3680  180.4550  138.8690 C   0  0  2  0  0  3  0  0  0  0  0  0
  179.9300  174.2040  140.5420 C   0  0  0  0  0  2  0  0  0  0  0  0
  179.7500  179.7600  137.7510 N   0  0  0  0  0  2  0  0  0  0  0  0
  178.9760  177.8170  136.7570 O   0  0  0  0  0  0  0  0  0  0  0  0
  179.2740  173.8180  138.2020 C   0  0  0  0  0  2  0  0  0  0  0  0
  179.7170  176.1560  139.0680 C   0  0  0  0  0  0  0  0  0  0  0  0
  179.5250  178.3490  137.7530 C   0  0  0  0  0  0  0  0  0  0  0  0
  179.9010  177.5670  138.8960 N   0  0  0  0  0  2  0  0  0  0  0  0
  180.0170  175.6320  140.2250 N   0  0  0  0  0  0  0  0  0  0  0  0
  179.0960  175.3160  137.9730 C   0  0  0  0  0  2  0  0  0  0  0  0
  178.9310  173.4870  139.6420 C   0  0  0  0  0  2  0  0  0  0  0  0
  179.6370  182.8310  138.3360 C   0  0  0  0  0  0  0  0  0  0  0  0
  179.6110  181.6660  139.1670 N   0  0  0  0  0  2  0  0  0  0  0  0
  178.9650  183.8410  138.6730 O   0  0  0  0  0  0  0  0  0  0  0  0
  180.4370  182.8520  137.0600 C   0  0  2  0  0  3  0  0  0  0  0  0
  181.0040  184.2410  136.7310 C   0  0  2  0  0  3  0  0  0  0  0  0
  181.5020  184.9290  137.9910 C   0  0  0  0  0  1  0  0  0  0  0  0
  180.0160  185.0390  136.1520 O   0  0  0  0  0  1  0  0  0  0  0  0
  179.6660  182.2210  135.8940 C   0  0  0  0  0  2  0  0  0  0  0  0
  180.4550  182.2350  134.5960 C   0  0  0  0  0  1  0  0  0  0  0  0
  1 17  1  0  0  0  0
  1 37  1  1  0  0  0
  2 13  1  0  0  0  0
  3  2  2  0  0  0  0
  4 20  1  0  0  0  0
  5 18  1  0  0  0  0
  8 23  1  0  0  0  0
  9 14  1  0  0  0  0
  9  4  1  0  0  0  0
 10  5  1  0  0  0  0
 10 14  1  0  0  0  0
 11 13  1  0  0  0  0
 12  3  1  0  0  0  0
 13  7  1  1  0  0  0
 15 48  1  0  0  0  0
 15 12  1  0  0  0  0
 16 24  1  6  0  0  0
 16 11  1  0  0  0  0
 17 16  1  0  0  0  0
 18 22  1  0  0  0  0
 18 25  1  6  0  0  0
 19  5  2  0  0  0  0
 20 15  1  0  0  0  0
 21  8  2  0  0  0  0
 22  6  1  1  0  0  0
 22  8  1  0  0  0  0
 23  1  1  0  0  0  0
 24  3  1  0  0  0  0
 26 27  1  0  0  0  0
 26 25  1  0  0  0  0
 28 27  1  0  0  0  0
 29 28  1  0  0  0  0
 30 29  1  0  0  0  0
 30 36  1  1  0  0  0
 30 34  1  0  0  0  0
 31 34  1  0  0  0  0
 33 34  1  0  0  0  0
 34 32  1  0  0  0  0
 35 36  1  0  0  0  0
 37 42  1  0  0  0  0
 38 43  1  6  0  0  0
 38 41  1  0  0  0  0
 39 44  1  0  0  0  0
 40 42  1  0  0  0  0
 40 43  1  6  0  0  0
 40 38  1  0  0  0  0
 42 39  2  0  0  0  0
 44 41  1  0  0  0  0
 44 45  1  1  0  0  0
 45 46  1  0  0  0  0
 47 45  2  0  0  0  0
 49 48  1  0  0  0  0
 50 49  1  6  0  0  0
 50 62  1  0  0  0  0
 52 56  1  0  0  0  0
 52 50  1  0  0  0  0
 53 56  2  0  0  0  0
 54 60  1  0  0  0  0
 55 58  2  0  0  0  0
 56 57  1  0  0  0  0
 57 55  1  0  0  0  0
 58 51  1  0  0  0  0
 59 54  1  0  0  0  0
 59 55  1  0  0  0  0
 60 51  1  0  0  0  0
 61 63  2  0  0  0  0
 61 62  1  0  0  0  0
 64 68  1  6  0  0  0
 64 61  1  0  0  0  0
 65 64  1  0  0  0  0
 65 66  1  1  0  0  0
 67 65  1  0  0  0  0
 69 68  1  0  0  0  0
M  END
>  <MODEL>
3

>  <REMARK>
 VINA RESULT:      -3.5      3.323     10.647
  Name = 
  19 active torsions:
  status: ('A' for Active; 'I' for Inactive)
    1  A    between atoms: C_2  and  C_43
    2  A    between atoms: C_3  and  C_51
    3  A    between atoms: C_10  and  C_64
    4  A    between atoms: N_17  and  C_69
    5  A    between atoms: C_18  and  C_43
    6  A    between atoms: C_26  and  C_51
    7  A    between atoms: N_33  and  C_46
    8  A    between atoms: C_37  and  C_43
    9  A    between atoms: C_39  and  C_67
   10  A    between atoms: O_41  and  C_47
   11  A    between atoms: O_41  and  C_67
   12  A    between atoms: C_42  and  C_47
   13  A    between atoms: C_42  and  C_65
   14  A    between atoms: C_46  and  C_61
   15  A    between atoms: C_50  and  C_55
   16  A    between atoms: N_52  and  C_69
   17  A    between atoms: C_55  and  C_65
   18  A    between atoms: C_60  and  C_67
   19  A    between atoms: C_61  and  C_69
                            x       y       z     vdW  Elec       q    Type
                         _______ _______ _______ _____ _____    ______ ____

>  <TORSDO>
F 19

$$$$
=
 OpenBabel10222416503D

 69 73  0  0  1  0  0  0  0  0999 V2000
  185.6330  178.6880  140.1250 C   0  0  2  0  0  3  0  0  0  0  0  0
  187.1810  178.5610  135.6910 C   0  0  0  0  0  3  0  0  0  0  0  0
  185.9610  178.0120  135.8390 C   0  0  0  0  0  0  0  0  0  0  0  0
  183.4710  174.5920  135.2320 C   0  0  0  0  0  2  0  0  0  0  0  0
  180.5930  176.5300  138.6860 C   0  0  0  0  0  0  0  0  0  0  0  0
  181.5730  178.7020  141.2480 C   0  0  0  0  0  1  0  0  0  0  0  0
  189.1670  179.4310  136.7610 N   0  0  0  0  0  1  0  0  0  0  0  0
  183.5740  177.3040  140.5140 C   0  0  0  0  0  0  0  0  0  0  0  0
  182.3690  174.2640  136.2200 C   0  0  0  0  0  2  0  0  0  0  0  0
  180.9430  175.2560  137.9830 C   0  0  0  0  0  2  0  0  0  0  0  0
  187.2060  179.2060  138.0100 O   0  0  0  0  0  0  0  0  0  0  0  0
  185.4350  177.1150  134.7420 C   0  0  0  0  0  2  0  0  0  0  0  0
  187.7180  179.5110  136.7350 C   0  0  2  0  0  3  0  0  0  0  0  0
  181.7220  175.5440  136.7150 C   0  0  0  0  0  2  0  0  0  0  0  0
  185.6280  175.6720  134.9660 N   0  0  0  0  0  0  0  0  0  0  0  0
  185.8060  179.3690  137.9160 C   0  0  2  0  0  3  0  0  0  0  0  0
  185.1770  179.6080  139.1610 O   0  0  0  0  0  0  0  0  0  0  0  0
  181.6460  177.5710  138.9220 C   0  0  2  0  0  3  0  0  0  0  0  0
  179.4610  176.6870  139.1250 O   0  0  0  0  0  0  0  0  0  0  0  0
  184.6600  175.2150  135.9500 C   0  0  0  0  0  2  0  0  0  0  0  0
  184.0150  176.2070  140.2120 O   0  0  0  0  0  0  0  0  0  0  0  0
  182.0950  177.5520  140.3900 C   0  0  2  0  0  3  0  0  0  0  0  0
  184.5030  178.3310  141.0860 C   0  0  0  0  0  2  0  0  0  0  0  0
  185.1790  178.2180  137.1170 C   0  0  0  0  0  2  0  0  0  0  0  0
  181.1890  178.9270  138.3760 C   0  0  0  0  0  2  0  0  0  0  0  0
  181.2080  178.9480  136.8610 C   0  0  0  0  0  2  0  0  0  0  0  0
  181.8700  180.2190  136.3710 C   0  0  0  0  0  2  0  0  0  0  0  0
  181.3380  181.4070  137.1540 C   0  0  0  0  0  2  0  0  0  0  0  0
  179.9480  181.4480  137.0520 O   0  0  0  0  0  0  0  0  0  0  0  0
  179.5510  182.5290  137.8530 C   0  0  2  0  0  3  0  0  0  0  0  0
  181.3610  184.0790  137.5440 O   0  0  0  0  0  1  0  0  0  0  0  0
  179.8360  183.8650  135.7270 C   0  0  0  0  0  1  0  0  0  0  0  0
  179.1970  185.0040  137.8220 C   0  0  0  0  0  1  0  0  0  0  0  0
  180.0120  183.8610  137.2400 C   0  0  0  0  0  0  0  0  0  0  0  0
  179.1300  181.4960  140.0920 C   0  0  0  0  0  1  0  0  0  0  0  0
  180.0850  182.3460  139.2730 C   0  0  0  0  0  2  0  0  0  0  0  0
  186.8110  179.2760  140.9130 C   0  0  0  0  0  2  0  0  0  0  0  0
  190.3260  177.7850  139.9810 C   0  0  1  0  0  3  0  0  0  0  0  0
  188.2100  177.7510  142.1760 C   0  0  0  0  0  3  0  0  0  0  0  0
  188.8660  178.2040  139.7690 C   0  0  2  0  0  3  0  0  0  0  0  0
  190.8750  177.5460  141.7300 S   0  0  0  0  0  0  0  0  0  0  0  0
  187.9870  178.3520  141.0010 C   0  0  0  0  0  0  0  0  0  0  0  0
  189.2910  176.7640  139.5210 C   0  0  0  0  0  2  0  0  0  0  0  0
  189.3460  176.8120  142.3870 C   0  0  1  0  0  3  0  0  0  0  0  0
  189.4930  176.4830  143.8350 C   0  0  0  0  0  0  0  0  0  0  0  0
  188.3590  176.3310  144.6190 O   0  0  0  0  0  1  0  0  0  0  0  0
  190.6330  176.3650  144.3540 O   0  0  0  0  0  0  0  0  0  0  0  0
  186.9760  175.3850  135.4540 C   0  0  0  0  0  2  0  0  0  0  0  0
  187.4480  174.0330  134.9540 C   0  0  0  0  0  2  0  0  0  0  0  0
  188.2730  173.3220  136.0110 C   0  0  2  0  0  3  0  0  0  0  0  0
  182.8140  170.1200  134.5940 C   0  0  0  0  0  2  0  0  0  0  0  0
  187.4940  173.2520  137.2370 N   0  0  0  0  0  2  0  0  0  0  0  0
  185.5910  172.6060  138.3890 O   0  0  0  0  0  0  0  0  0  0  0  0
  182.0590  170.7960  136.8360 C   0  0  0  0  0  2  0  0  0  0  0  0
  184.3780  171.3790  136.0060 C   0  0  0  0  0  0  0  0  0  0  0  0
  186.2040  172.6410  137.2920 C   0  0  0  0  0  0  0  0  0  0  0  0
  185.6390  172.0530  136.1110 N   0  0  0  0  0  2  0  0  0  0  0  0
  184.0790  170.8050  134.8730 N   0  0  0  0  0  0  0  0  0  0  0  0
  183.4670  171.2490  137.2070 C   0  0  0  0  0  2  0  0  0  0  0  0
  182.1460  169.6280  135.8720 C   0  0  0  0  0  2  0  0  0  0  0  0
  190.8090  173.4990  136.0920 C   0  0  0  0  0  0  0  0  0  0  0  0
  189.5040  174.0650  136.2610 N   0  0  0  0  0  2  0  0  0  0  0  0
  191.8210  174.2040  136.3440 O   0  0  0  0  0  0  0  0  0  0  0  0
  190.9800  172.0870  135.5990 C   0  0  2  0  0  3  0  0  0  0  0  0
  192.4000  171.7980  135.0900 C   0  0  2  0  0  3  0  0  0  0  0  0
  193.2000  171.0390  136.1350 C   0  0  0  0  0  1  0  0  0  0  0  0
  193.0620  172.9930  134.8060 O   0  0  0  0  0  1  0  0  0  0  0  0
  189.8860  171.6970  134.5970 C   0  0  0  0  0  2  0  0  0  0  0  0
  189.0980  170.4750  135.0380 C   0  0  0  0  0  1  0  0  0  0  0  0
  1 37  1  1  0  0  0
  1 23  1  0  0  0  0
  2  3  2  0  0  0  0
  2 13  1  0  0  0  0
  3 24  1  0  0  0  0
  4 20  1  0  0  0  0
  4  9  1  0  0  0  0
  5 18  1  0  0  0  0
  5 19  2  0  0  0  0
  8 23  1  0  0  0  0
  9 14  1  0  0  0  0
 10  5  1  0  0  0  0
 12 15  1  0  0  0  0
 12  3  1  0  0  0  0
 13  7  1  1  0  0  0
 13 11  1  0  0  0  0
 14 10  1  0  0  0  0
 15 48  1  0  0  0  0
 15 20  1  0  0  0  0
 16 24  1  1  0  0  0
 16 11  1  0  0  0  0
 16 17  1  0  0  0  0
 17  1  1  0  0  0  0
 18 25  1  1  0  0  0
 18 22  1  0  0  0  0
 21  8  2  0  0  0  0
 22  8  1  0  0  0  0
 22  6  1  6  0  0  0
 26 25  1  0  0  0  0
 27 26  1  0  0  0  0
 27 28  1  0  0  0  0
 29 28  1  0  0  0  0
 29 30  1  0  0  0  0
 30 36  1  1  0  0  0
 32 34  1  0  0  0  0
 34 31  1  0  0  0  0
 34 33  1  0  0  0  0
 34 30  1  0  0  0  0
 36 35  1  0  0  0  0
 37 42  1  0  0  0  0
 38 43  1  6  0  0  0
 38 41  1  0  0  0  0
 39 44  1  0  0  0  0
 40 43  1  6  0  0  0
 40 38  1  0  0  0  0
 40 42  1  0  0  0  0
 41 44  1  0  0  0  0
 42 39  2  0  0  0  0
 44 45  1  1  0  0  0
 45 47  2  0  0  0  0
 45 46  1  0  0  0  0
 49 48  1  0  0  0  0
 50 49  1  6  0  0  0
 50 62  1  0  0  0  0
 50 52  1  0  0  0  0
 51 58  1  0  0  0  0
 51 60  1  0  0  0  0
 52 56  1  0  0  0  0
 54 59  1  0  0  0  0
 55 57  1  0  0  0  0
 55 59  1  0  0  0  0
 56 53  2  0  0  0  0
 57 56  1  0  0  0  0
 58 55  2  0  0  0  0
 60 54  1  0  0  0  0
 61 62  1  0  0  0  0
 61 63  2  0  0  0  0
 64 68  1  6  0  0  0
 64 61  1  0  0  0  0
 65 64  1  0  0  0  0
 65 66  1  1  0  0  0
 67 65  1  0  0  0  0
 68 69  1  0  0  0  0
M  END
>  <MODEL>
4

>  <REMARK>
 VINA RESULT:      -2.3      1.911      4.120
  Name = 
  19 active torsions:
  status: ('A' for Active; 'I' for Inactive)
    1  A    between atoms: C_2  and  C_43
    2  A    between atoms: C_3  and  C_51
    3  A    between atoms: C_10  and  C_64
    4  A    between atoms: N_17  and  C_69
    5  A    between atoms: C_18  and  C_43
    6  A    between atoms: C_26  and  C_51
    7  A    between atoms: N_33  and  C_46
    8  A    between atoms: C_37  and  C_43
    9  A    between atoms: C_39  and  C_67
   10  A    between atoms: O_41  and  C_47
   11  A    between atoms: O_41  and  C_67
   12  A    between atoms: C_42  and  C_47
   13  A    between atoms: C_42  and  C_65
   14  A    between atoms: C_46  and  C_61
   15  A    between atoms: C_50  and  C_55
   16  A    between atoms: N_52  and  C_69
   17  A    between atoms: C_55  and  C_65
   18  A    between atoms: C_60  and  C_67
   19  A    between atoms: C_61  and  C_69
                            x       y       z     vdW  Elec       q    Type
                         _______ _______ _______ _____ _____    ______ ____

>  <TORSDO>
F 19

$$$$
=
 OpenBabel10222416503D

 69 73  0  0  1  0  0  0  0  0999 V2000
  187.7900  178.6840  140.9100 C   0  0  2  0  0  3  0  0  0  0  0  0
  183.2080  177.6530  140.7820 C   0  0  0  0  0  3  0  0  0  0  0  0
  183.8320  177.4250  139.6120 C   0  0  0  0  0  0  0  0  0  0  0  0
  183.9420  178.1640  135.4040 C   0  0  0  0  0  2  0  0  0  0  0  0
  188.6220  176.7490  135.6480 C   0  0  0  0  0  0  0  0  0  0  0  0
  190.7150  176.9160  138.4470 C   0  0  0  0  0  1  0  0  0  0  0  0
  183.3160  178.6260  142.9930 N   0  0  0  0  0  1  0  0  0  0  0  0
  188.8860  178.6810  138.6510 C   0  0  0  0  0  0  0  0  0  0  0  0
  185.2680  178.2220  134.6730 C   0  0  0  0  0  2  0  0  0  0  0  0
  187.6370  177.5220  134.8280 C   0  0  0  0  0  2  0  0  0  0  0  0
  185.2980  178.2500  141.8160 O   0  0  0  0  0  0  0  0  0  0  0  0
  182.9920  177.2710  138.3640 C   0  0  0  0  0  2  0  0  0  0  0  0
  184.0050  177.7520  142.0610 C   0  0  2  0  0  3  0  0  0  0  0  0
  186.2180  177.1870  135.2440 C   0  0  0  0  0  2  0  0  0  0  0  0
  182.8530  178.4890  137.5480 N   0  0  0  0  0  0  0  0  0  0  0  0
  185.9190  177.3160  140.9580 C   0  0  2  0  0  3  0  0  0  0  0  0
  187.3330  177.3540  141.0030 O   0  0  0  0  0  0  0  0  0  0  0  0
  188.4900  176.7110  137.1400 C   0  0  2  0  0  3  0  0  0  0  0  0
  189.5710  176.2050  135.0980 O   0  0  0  0  0  0  0  0  0  0  0  0
  184.0900  178.7100  136.8170 C   0  0  0  0  0  2  0  0  0  0  0  0
  188.2320  179.5600  138.1140 O   0  0  0  0  0  0  0  0  0  0  0  0
  189.5340  177.6300  137.7920 C   0  0  2  0  0  3  0  0  0  0  0  0
  189.1020  178.7350  140.1330 C   0  0  0  0  0  2  0  0  0  0  0  0
  185.3430  177.4170  139.5390 C   0  0  0  0  0  2  0  0  0  0  0  0
  188.4660  175.2630  137.6390 C   0  0  0  0  0  2  0  0  0  0  0  0
  187.9220  174.3230  136.5810 C   0  0  0  0  0  2  0  0  0  0  0  0
  187.5070  173.0150  137.2190 C   0  0  0  0  0  2  0  0  0  0  0  0
  186.5310  172.2890  136.3090 C   0  0  0  0  0  2  0  0  0  0  0  0
  185.7320  173.2200  135.6450 O   0  0  0  0  0  0  0  0  0  0  0  0
  184.4440  172.6660  135.6400 C   0  0  2  0  0  3  0  0  0  0  0  0
  182.5930  174.1110  135.1340 O   0  0  0  0  0  1  0  0  0  0  0  0
  182.5490  173.0510  137.2660 C   0  0  0  0  0  1  0  0  0  0  0  0
  184.1310  174.8770  136.7640 C   0  0  0  0  0  1  0  0  0  0  0  0
  183.4140  173.6720  136.1780 C   0  0  0  0  0  0  0  0  0  0  0  0
  184.2500  170.1740  135.5210 C   0  0  0  0  0  1  0  0  0  0  0  0
  184.4370  171.3660  136.4440 C   0  0  0  0  0  2  0  0  0  0  0  0
  187.9980  179.2790  142.3080 C   0  0  0  0  0  2  0  0  0  0  0  0
  190.0100  176.6440  144.4190 C   0  0  1  0  0  3  0  0  0  0  0  0
  187.4290  178.2680  144.4380 C   0  0  0  0  0  3  0  0  0  0  0  0
  189.3880  177.2760  143.1690 C   0  0  2  0  0  3  0  0  0  0  0  0
  189.3090  177.1640  146.0490 S   0  0  0  0  0  0  0  0  0  0  0  0
  188.2310  178.2440  143.3660 C   0  0  0  0  0  0  0  0  0  0  0  0
  189.0330  175.8490  143.5600 C   0  0  0  0  0  2  0  0  0  0  0  0
  187.5630  177.2920  145.5540 C   0  0  1  0  0  3  0  0  0  0  0  0
  186.7110  177.6970  146.7100 C   0  0  0  0  0  0  0  0  0  0  0  0
  187.1650  177.4770  148.0020 O   0  0  0  0  0  1  0  0  0  0  0  0
  185.5790  178.2150  146.5240 O   0  0  0  0  0  0  0  0  0  0  0  0
  182.5760  179.6580  138.3810 C   0  0  0  0  0  2  0  0  0  0  0  0
  181.1650  179.5950  138.9360 C   0  0  0  0  0  2  0  0  0  0  0  0
  180.8070  180.8840  139.6520 C   0  0  2  0  0  3  0  0  0  0  0  0
  179.9240  174.4620  139.8630 C   0  0  0  0  0  2  0  0  0  0  0  0
  180.3810  180.5600  141.0040 N   0  0  0  0  0  2  0  0  0  0  0  0
  179.7090  179.0190  142.5980 O   0  0  0  0  0  0  0  0  0  0  0  0
  178.9310  174.8610  142.0790 C   0  0  0  0  0  2  0  0  0  0  0  0
  179.9120  176.7610  140.7240 C   0  0  0  0  0  0  0  0  0  0  0  0
  180.0590  179.2280  141.4090 C   0  0  0  0  0  0  0  0  0  0  0  0
  180.1670  178.1490  140.4690 N   0  0  0  0  0  2  0  0  0  0  0  0
  180.1730  175.9040  139.7760 N   0  0  0  0  0  0  0  0  0  0  0  0
  179.4510  176.2950  142.0870 C   0  0  0  0  0  2  0  0  0  0  0  0
  179.8980  173.9820  141.3090 C   0  0  0  0  0  2  0  0  0  0  0  0
  179.9230  182.3800  137.7960 C   0  0  0  0  0  0  0  0  0  0  0  0
  179.7200  181.5570  138.9490 N   0  0  0  0  0  2  0  0  0  0  0  0
  178.9310  182.9370  137.2560 O   0  0  0  0  0  0  0  0  0  0  0  0
  181.2980  182.5670  137.2130 C   0  0  2  0  0  3  0  0  0  0  0  0
  182.1270  183.6230  137.9590 C   0  0  2  0  0  3  0  0  0  0  0  0
  181.9990  184.9790  137.2850 C   0  0  0  0  0  1  0  0  0  0  0  0
  183.4750  183.2580  137.9680 O   0  0  0  0  0  1  0  0  0  0  0  0
  181.2470  182.7960  135.6970 C   0  0  0  0  0  2  0  0  0  0  0  0
  181.0070  181.5120  134.9200 C   0  0  0  0  0  1  0  0  0  0  0  0
  1 17  1  0  0  0  0
  1 37  1  1  0  0  0
  2 13  1  0  0  0  0
  3  2  2  0  0  0  0
  4 20  1  0  0  0  0
  5 18  1  0  0  0  0
  8 23  1  0  0  0  0
  9 14  1  0  0  0  0
  9  4  1  0  0  0  0
 10 14  1  0  0  0  0
 10  5  1  0  0  0  0
 11 13  1  0  0  0  0
 12  3  1  0  0  0  0
 13  7  1  1  0  0  0
 15 12  1  0  0  0  0
 15 48  1  0  0  0  0
 16 24  1  6  0  0  0
 16 17  1  0  0  0  0
 16 11  1  0  0  0  0
 18 25  1  1  0  0  0
 18 22  1  0  0  0  0
 19  5  2  0  0  0  0
 20 15  1  0  0  0  0
 21  8  2  0  0  0  0
 22  6  1  1  0  0  0
 22  8  1  0  0  0  0
 23  1  1  0  0  0  0
 24  3  1  0  0  0  0
 26 27  1  0  0  0  0
 26 25  1  0  0  0  0
 28 27  1  0  0  0  0
 29 28  1  0  0  0  0
 30 29  1  0  0  0  0
 30 34  1  0  0  0  0
 30 36  1  1  0  0  0
 31 34  1  0  0  0  0
 34 33  1  0  0  0  0
 34 32  1  0  0  0  0
 35 36  1  0  0  0  0
 37 42  1  0  0  0  0
 38 43  1  6  0  0  0
 38 41  1  0  0  0  0
 39 44  1  0  0  0  0
 40 42  1  0  0  0  0
 40 43  1  6  0  0  0
 40 38  1  0  0  0  0
 42 39  2  0  0  0  0
 44 41  1  0  0  0  0
 44 45  1  1  0  0  0
 45 46  1  0  0  0  0
 47 45  2  0  0  0  0
 48 49  1  0  0  0  0
 50 49  1  6  0  0  0
 50 52  1  0  0  0  0
 51 60  1  0  0  0  0
 52 56  1  0  0  0  0
 54 59  1  0  0  0  0
 55 59  1  0  0  0  0
 56 53  2  0  0  0  0
 57 55  1  0  0  0  0
 57 56  1  0  0  0  0
 58 51  1  0  0  0  0
 58 55  2  0  0  0  0
 60 54  1  0  0  0  0
 61 62  1  0  0  0  0
 62 50  1  0  0  0  0
 63 61  2  0  0  0  0
 64 68  1  6  0  0  0
 64 61  1  0  0  0  0
 64 65  1  0  0  0  0
 65 66  1  6  0  0  0
 65 67  1  0  0  0  0
 69 68  1  0  0  0  0
M  END
>  <MODEL>
5

>  <REMARK>
 VINA RESULT:      -1.4      3.815      9.676
  Name = 
  19 active torsions:
  status: ('A' for Active; 'I' for Inactive)
    1  A    between atoms: C_2  and  C_43
    2  A    between atoms: C_3  and  C_51
    3  A    between atoms: C_10  and  C_64
    4  A    between atoms: N_17  and  C_69
    5  A    between atoms: C_18  and  C_43
    6  A    between atoms: C_26  and  C_51
    7  A    between atoms: N_33  and  C_46
    8  A    between atoms: C_37  and  C_43
    9  A    between atoms: C_39  and  C_67
   10  A    between atoms: O_41  and  C_47
   11  A    between atoms: O_41  and  C_67
   12  A    between atoms: C_42  and  C_47
   13  A    between atoms: C_42  and  C_65
   14  A    between atoms: C_46  and  C_61
   15  A    between atoms: C_50  and  C_55
   16  A    between atoms: N_52  and  C_69
   17  A    between atoms: C_55  and  C_65
   18  A    between atoms: C_60  and  C_67
   19  A    between atoms: C_61  and  C_69
                            x       y       z     vdW  Elec       q    Type
                         _______ _______ _______ _____ _____    ______ ____

>  <TORSDO>
F 19

$$$$
