=
 OpenBabel10222418243D

 58 65  0  0  1  0  0  0  0  0999 V2000
  186.0640  177.7370  143.4830 C   0  0  2  0  0  3  0  0  0  0  0  0
  185.6700  178.1730  145.9130 C   0  0  1  0  0  3  0  0  0  0  0  0
  183.4660  178.7460  145.5920 N   0  0  0  0  0  1  0  0  0  0  0  0
  184.7170  179.2760  145.9360 N   0  0  0  0  0  0  0  0  0  0  0  0
  186.3490  178.6730  144.6530 C   0  0  2  0  0  3  0  0  0  0  0  0
  185.3170  179.7800  144.7050 C   0  0  0  0  0  2  0  0  0  0  0  0
  186.6310  178.2840  147.0870 C   0  0  0  0  0  2  0  0  0  0  0  0
  188.5060  176.6480  147.3450 C   0  0  0  0  0  3  0  0  0  0  0  0
  188.7450  178.4620  145.7540 C   0  0  0  0  0  3  0  0  0  0  0  0
  189.7900  176.1970  147.0220 C   0  0  0  0  0  3  0  0  0  0  0  0
  190.5550  176.8820  146.0700 C   0  0  0  0  0  0  0  0  0  0  0  0
  190.0280  178.0080  145.4310 C   0  0  0  0  0  3  0  0  0  0  0  0
  187.9860  177.7850  146.7170 C   0  0  0  0  0  0  0  0  0  0  0  0
  191.9280  176.4070  145.7330 C   0  0  0  0  0  2  0  0  0  0  0  0
  192.1590  174.4980  144.6520 C   0  0  0  0  0  1  0  0  0  0  0  0
  191.9440  175.8630  144.4470 O   0  0  0  0  0  0  0  0  0  0  0  0
  187.3340  177.1430  142.9560 C   0  0  0  0  0  0  0  0  0  0  0  0
  187.8630  176.1520  143.5330 O   0  0  0  0  0  0  0  0  0  0  0  0
  187.9430  177.7190  141.8030 N   0  0  0  0  0  2  0  0  0  0  0  0
  191.8240  175.7950  137.8610 C   0  0  2  0  0  3  0  0  0  0  0  0
  190.0230  176.8550  138.8570 C   0  0  1  0  0  3  0  0  0  0  0  0
  189.3960  177.8370  139.8740 C   0  0  1  0  0  3  0  0  0  0  0  0
  189.1430  177.1600  141.2070 C   0  0  1  0  0  3  0  0  0  0  0  0
  192.1590  177.1260  140.0330 C   0  0  0  0  0  0  0  0  0  0  0  0
  191.5870  177.5930  141.3210 C   0  0  0  0  0  2  0  0  0  0  0  0
  193.2290  177.5660  139.6390 O   0  0  0  0  0  0  0  0  0  0  0  0
  190.2130  178.2410  141.1210 C   0  0  1  0  0  3  0  0  0  0  0  0
  190.1750  177.4820  137.6010 O   0  0  0  0  0  0  0  0  0  0  0  0
  191.3160  176.9190  136.9890 C   0  0  0  0  0  2  0  0  0  0  0  0
  191.3210  176.1590  139.2360 C   0  0  2  0  0  3  0  0  0  0  0  0
  194.0290  176.2830  137.0940 O   0  0  0  0  0  0  0  0  0  0  0  0
  193.8490  174.3240  138.3560 N   0  0  0  0  0  2  0  0  0  0  0  0
  193.2910  175.4930  137.7430 C   0  0  0  0  0  0  0  0  0  0  0  0
  195.7130  173.6360  136.9150 C   0  0  2  0  0  3  0  0  0  0  0  0
  195.5390  171.3300  138.2710 O   0  0  0  0  0  0  0  0  0  0  0  0
  195.2550  173.9700  138.2310 C   0  0  1  0  0  0  0  0  0  0  0  0
  196.1420  174.5600  139.1340 O   0  0  0  0  0  1  0  0  0  0  0  0
  195.5100  172.5020  137.9440 C   0  0  0  0  0  0  0  0  0  0  0  0
  197.2040  173.8620  136.7130 C   0  0  0  0  0  2  0  0  0  0  0  0
  197.2420  176.1790  136.2630 O   0  0  0  0  0  0  0  0  0  0  0  0
  197.4370  175.0500  135.8400 C   0  0  0  0  0  3  0  0  0  0  0  0
  185.4060  178.4350  142.4670 O   0  0  0  0  0  0  0  0  0  0  0  0
  184.2850  177.7140  142.2170 N   0  0  0  0  0  2  0  0  0  0  0  0
  183.4240  178.5370  141.4780 N   0  0  0  0  0  2  0  0  0  0  0  0
  183.0450  179.1020  139.1650 C   0  0  0  0  0  2  0  0  0  0  0  0
  182.9990  178.2060  140.1500 C   0  0  0  0  0  0  0  0  0  0  0  0
  182.4610  176.8460  139.8730 C   0  0  0  0  0  2  0  0  0  0  0  0
  181.7140  176.8420  138.5470 C   0  0  0  0  0  2  0  0  0  0  0  0
  182.1480  175.7090  137.6150 C   0  0  1  0  0  3  0  0  0  0  0  0
  184.6280  175.6000  137.0620 C   0  0  1  0  0  0  0  0  0  0  0  0
  184.1810  175.7550  135.7270 O   0  0  0  0  0  0  0  0  0  0  0  0
  181.9440  175.9810  136.2420 O   0  0  0  0  0  0  0  0  0  0  0  0
  183.0840  176.6360  135.7380 C   0  0  0  0  0  2  0  0  0  0  0  0
  185.0720  176.8130  137.5670 F   0  0  0  0  0  0  0  0  0  0  0  0
  183.5010  175.0570  137.9490 C   0  0  0  0  0  2  0  0  0  0  0  0
  186.4930  174.5190  135.9300 O   0  0  0  0  0  0  0  0  0  0  0  0
  187.1050  175.2540  136.9610 C   0  0  0  0  0  2  0  0  0  0  0  0
  185.7900  174.5990  137.1480 C   0  0  1  0  0  3  0  0  0  0  0  0
  1 42  1  6  0  0  0
  2  4  1  0  0  0  0
  2  7  1  1  0  0  0
  3  4  1  0  0  0  0
  5  1  1  6  0  0  0
  5  6  1  0  0  0  0
  5  2  1  0  0  0  0
  6  4  1  0  0  0  0
  9 13  1  0  0  0  0
 10  8  1  0  0  0  0
 11 10  2  0  0  0  0
 12  9  2  0  0  0  0
 12 11  1  0  0  0  0
 13  7  1  0  0  0  0
 13  8  2  0  0  0  0
 14 11  1  0  0  0  0
 16 15  1  0  0  0  0
 16 14  1  0  0  0  0
 17  1  1  0  0  0  0
 17 18  2  0  0  0  0
 19 17  1  0  0  0  0
 20 33  1  1  0  0  0
 20 30  1  0  0  0  0
 21 28  1  6  0  0  0
 21 30  1  0  0  0  0
 21 22  1  0  0  0  0
 22 27  1  0  0  0  0
 22 23  1  0  0  0  0
 23 19  1  0  0  0  0
 24 25  1  0  0  0  0
 26 24  2  0  0  0  0
 27 23  1  0  0  0  0
 27 25  1  0  0  0  0
 29 28  1  0  0  0  0
 29 20  1  0  0  0  0
 30 24  1  0  0  0  0
 31 33  2  0  0  0  0
 33 32  1  0  0  0  0
 34 38  1  0  0  0  0
 34 36  1  0  0  0  0
 36 32  1  0  0  0  0
 36 37  1  0  0  0  0
 38 36  1  0  0  0  0
 38 35  2  0  0  0  0
 39 34  1  0  0  0  0
 41 40  2  0  0  0  0
 41 39  1  0  0  0  0
 43 42  1  0  0  0  0
 44 43  1  0  0  0  0
 45 46  2  0  0  0  0
 46 44  1  0  0  0  0
 47 46  1  0  0  0  0
 48 47  1  0  0  0  0
 49 55  1  0  0  0  0
 49 48  1  0  0  0  0
 50 58  1  0  0  0  0
 50 54  1  0  0  0  0
 50 55  1  0  0  0  0
 51 53  1  0  0  0  0
 51 50  1  0  0  0  0
 52 49  1  0  0  0  0
 53 52  1  0  0  0  0
 56 57  1  0  0  0  0
 56 58  1  0  0  0  0
 57 58  1  0  0  0  0
M  END
>  <MODEL>
1

>  <REMARK>
 VINA RESULT:      -7.2      0.000      0.000
  Name = 
  19 active torsions:
  status: ('A' for Active; 'I' for Inactive)
    1  A    between atoms: N_1  and  N_6
    2  A    between atoms: N_1  and  C_57
    3  A    between atoms: C_2  and  C_46
    4  A    between atoms: C_3  and  C_5
    5  A    between atoms: C_3  and  C_22
    6  A    between atoms: N_6  and  O_56
    7  A    between atoms: C_7  and  C_38
    8  A    between atoms: C_9  and  C_51
    9  A    between atoms: C_14  and  C_35
   10  A    between atoms: C_17  and  N_54
   11  A    between atoms: C_22  and  C_57
   12  A    between atoms: C_27  and  C_43
   13  A    between atoms: C_28  and  C_43
   14  A    between atoms: C_30  and  N_42
   15  A    between atoms: C_32  and  C_35
   16  A    between atoms: C_37  and  C_39
   17  A    between atoms: C_37  and  O_45
   18  A    between atoms: C_38  and  C_49
   19  A    between atoms: C_43  and  O_56
                            x       y       z     vdW  Elec       q    Type
                         _______ _______ _______ _____ _____    ______ ____

>  <TORSDO>
F 19

$$$$
=
 OpenBabel10222418243D

 58 65  0  0  1  0  0  0  0  0999 V2000
  182.6950  179.1190  143.5330 C   0  0  2  0  0  3  0  0  0  0  0  0
  180.9000  179.4800  141.8310 C   0  0  1  0  0  3  0  0  0  0  0  0
  179.7030  180.8940  143.1940 N   0  0  0  0  0  1  0  0  0  0  0  0
  179.6780  179.6180  142.6140 N   0  0  0  0  0  0  0  0  0  0  0  0
  181.5120  178.4910  142.8040 C   0  0  2  0  0  3  0  0  0  0  0  0
  180.2370  178.6950  143.5940 C   0  0  0  0  0  2  0  0  0  0  0  0
  180.6040  178.7800  140.5120 C   0  0  0  0  0  2  0  0  0  0  0  0
  181.1030  179.3270  138.1230 C   0  0  0  0  0  3  0  0  0  0  0  0
  180.2390  181.0720  139.5670 C   0  0  0  0  0  3  0  0  0  0  0  0
  181.1730  180.2380  137.0640 C   0  0  0  0  0  3  0  0  0  0  0  0
  180.7820  181.5690  137.2580 C   0  0  0  0  0  0  0  0  0  0  0  0
  180.3060  181.9810  138.5070 C   0  0  0  0  0  3  0  0  0  0  0  0
  180.6440  179.7440  139.3770 C   0  0  0  0  0  0  0  0  0  0  0  0
  180.8650  182.5440  136.1330 C   0  0  0  0  0  2  0  0  0  0  0  0
  180.2970  184.6450  135.7810 C   0  0  0  0  0  1  0  0  0  0  0  0
  181.0510  183.8350  136.6310 O   0  0  0  0  0  0  0  0  0  0  0  0
  183.9710  178.8680  142.7910 C   0  0  0  0  0  0  0  0  0  0  0  0
  185.0690  179.2960  143.2460 O   0  0  0  0  0  0  0  0  0  0  0  0
  183.9290  178.1530  141.5580 N   0  0  0  0  0  2  0  0  0  0  0  0
  187.7240  177.3830  137.1640 C   0  0  2  0  0  3  0  0  0  0  0  0
  185.9050  178.0690  138.4210 C   0  0  1  0  0  3  0  0  0  0  0  0
  185.2600  178.7730  139.6380 C   0  0  1  0  0  3  0  0  0  0  0  0
  185.1340  177.8270  140.8160 C   0  0  1  0  0  3  0  0  0  0  0  0
  188.0740  178.2840  139.5440 C   0  0  0  0  0  0  0  0  0  0  0  0
  187.5400  178.4370  140.9210 C   0  0  0  0  0  2  0  0  0  0  0  0
  189.0840  178.8830  139.2060 O   0  0  0  0  0  0  0  0  0  0  0  0
  186.1110  178.9920  140.9080 C   0  0  1  0  0  3  0  0  0  0  0  0
  185.9390  178.9410  137.3110 O   0  0  0  0  0  0  0  0  0  0  0  0
  187.0840  178.6090  136.5550 C   0  0  0  0  0  2  0  0  0  0  0  0
  187.2700  177.4250  138.6030 C   0  0  2  0  0  3  0  0  0  0  0  0
  189.8570  178.2310  136.5160 O   0  0  0  0  0  0  0  0  0  0  0  0
  189.8600  175.9890  137.1750 N   0  0  0  0  0  2  0  0  0  0  0  0
  189.2010  177.2370  136.9320 C   0  0  0  0  0  0  0  0  0  0  0  0
  191.8880  174.6620  137.5620 C   0  0  2  0  0  3  0  0  0  0  0  0
  192.7130  176.8320  138.9010 O   0  0  0  0  0  0  0  0  0  0  0  0
  191.2800  175.7910  136.9230 C   0  0  1  0  0  0  0  0  0  0  0  0
  191.7750  176.2280  135.6930 O   0  0  0  0  0  1  0  0  0  0  0  0
  192.1750  176.0750  138.1150 C   0  0  0  0  0  0  0  0  0  0  0  0
  193.1270  174.1490  136.8430 C   0  0  0  0  0  2  0  0  0  0  0  0
  191.7380  172.4470  135.9800 O   0  0  0  0  0  0  0  0  0  0  0  0
  192.7540  173.1100  135.8390 C   0  0  0  0  0  3  0  0  0  0  0  0
  182.7850  178.5980  144.8270 O   0  0  0  0  0  0  0  0  0  0  0  0
  183.7820  179.3010  145.4190 N   0  0  0  0  0  2  0  0  0  0  0  0
  184.3030  178.4930  146.4390 N   0  0  0  0  0  2  0  0  0  0  0  0
  186.1480  179.7400  147.3600 C   0  0  0  0  0  2  0  0  0  0  0  0
  185.6630  178.5960  146.8790 C   0  0  0  0  0  0  0  0  0  0  0  0
  186.5610  177.4150  146.7640 C   0  0  0  0  0  2  0  0  0  0  0  0
  187.3700  177.4990  145.4790 C   0  0  0  0  0  2  0  0  0  0  0  0
  188.7160  178.2030  145.6580 C   0  0  1  0  0  3  0  0  0  0  0  0
  190.6780  177.2130  144.3780 C   0  0  1  0  0  0  0  0  0  0  0  0
  191.2410  177.0520  145.6690 O   0  0  0  0  0  0  0  0  0  0  0  0
  189.4090  177.8320  146.8340 O   0  0  0  0  0  0  0  0  0  0  0  0
  190.2030  176.7030  146.5530 C   0  0  0  0  0  2  0  0  0  0  0  0
  190.1370  176.0160  143.9350 F   0  0  0  0  0  0  0  0  0  0  0  0
  189.5900  178.2940  144.3960 C   0  0  0  0  0  2  0  0  0  0  0  0
  192.0160  176.6420  142.4260 O   0  0  0  0  0  0  0  0  0  0  0  0
  191.2040  177.7000  141.9810 C   0  0  0  0  0  2  0  0  0  0  0  0
  191.7390  177.6580  143.3610 C   0  0  1  0  0  3  0  0  0  0  0  0
  1 17  1  6  0  0  0
  1 42  1  0  0  0  0
  2  7  1  6  0  0  0
  2  4  1  0  0  0  0
  2  5  1  0  0  0  0
  4  3  1  0  0  0  0
  4  6  1  0  0  0  0
  5  1  1  1  0  0  0
  5  6  1  0  0  0  0
  8 13  1  0  0  0  0
 10 11  1  0  0  0  0
 10  8  2  0  0  0  0
 11 12  2  0  0  0  0
 12  9  1  0  0  0  0
 13  9  2  0  0  0  0
 13  7  1  0  0  0  0
 14 16  1  0  0  0  0
 14 11  1  0  0  0  0
 15 16  1  0  0  0  0
 17 18  2  0  0  0  0
 19 17  1  0  0  0  0
 20 33  1  1  0  0  0
 20 30  1  0  0  0  0
 21 28  1  6  0  0  0
 21 30  1  0  0  0  0
 21 22  1  0  0  0  0
 22 23  1  0  0  0  0
 22 27  1  0  0  0  0
 23 27  1  0  0  0  0
 23 19  1  0  0  0  0
 24 25  1  0  0  0  0
 26 24  2  0  0  0  0
 27 25  1  0  0  0  0
 29 20  1  0  0  0  0
 29 28  1  0  0  0  0
 30 24  1  0  0  0  0
 31 33  2  0  0  0  0
 33 32  1  0  0  0  0
 34 38  1  0  0  0  0
 36 32  1  0  0  0  0
 36 34  1  0  0  0  0
 36 38  1  0  0  0  0
 37 36  1  0  0  0  0
 38 35  2  0  0  0  0
 39 34  1  0  0  0  0
 41 40  2  0  0  0  0
 41 39  1  0  0  0  0
 42 43  1  0  0  0  0
 43 44  1  0  0  0  0
 44 46  1  0  0  0  0
 46 45  2  0  0  0  0
 47 46  1  0  0  0  0
 48 49  1  0  0  0  0
 48 47  1  0  0  0  0
 49 52  1  0  0  0  0
 50 55  1  0  0  0  0
 50 51  1  0  0  0  0
 51 53  1  0  0  0  0
 53 52  1  0  0  0  0
 54 50  1  0  0  0  0
 55 49  1  0  0  0  0
 56 58  1  0  0  0  0
 57 56  1  0  0  0  0
 57 58  1  0  0  0  0
 58 50  1  0  0  0  0
M  END
>  <MODEL>
2

>  <REMARK>
 VINA RESULT:      -6.9      3.137      8.209
  Name = 
  19 active torsions:
  status: ('A' for Active; 'I' for Inactive)
    1  A    between atoms: N_1  and  N_6
    2  A    between atoms: N_1  and  C_57
    3  A    between atoms: C_2  and  C_46
    4  A    between atoms: C_3  and  C_5
    5  A    between atoms: C_3  and  C_22
    6  A    between atoms: N_6  and  O_56
    7  A    between atoms: C_7  and  C_38
    8  A    between atoms: C_9  and  C_51
    9  A    between atoms: C_14  and  C_35
   10  A    between atoms: C_17  and  N_54
   11  A    between atoms: C_22  and  C_57
   12  A    between atoms: C_27  and  C_43
   13  A    between atoms: C_28  and  C_43
   14  A    between atoms: C_30  and  N_42
   15  A    between atoms: C_32  and  C_35
   16  A    between atoms: C_37  and  C_39
   17  A    between atoms: C_37  and  O_45
   18  A    between atoms: C_38  and  C_49
   19  A    between atoms: C_43  and  O_56
                            x       y       z     vdW  Elec       q    Type
                         _______ _______ _______ _____ _____    ______ ____

>  <TORSDO>
F 19

$$$$
=
 OpenBabel10222418243D

 58 65  0  0  1  0  0  0  0  0999 V2000
  183.2550  179.2150  139.2480 C   0  0  2  0  0  3  0  0  0  0  0  0
  181.4680  179.8720  137.6280 C   0  0  1  0  0  3  0  0  0  0  0  0
  180.5190  181.3850  139.0770 N   0  0  0  0  0  1  0  0  0  0  0  0
  180.3020  180.1440  138.4600 N   0  0  0  0  0  0  0  0  0  0  0  0
  181.9740  178.7770  138.5470 C   0  0  2  0  0  3  0  0  0  0  0  0
  180.7660  179.1210  139.3910 C   0  0  0  0  0  2  0  0  0  0  0  0
  181.0360  179.2640  136.3010 C   0  0  0  0  0  2  0  0  0  0  0  0
  180.8680  176.7780  136.5280 C   0  0  0  0  0  3  0  0  0  0  0  0
  182.8860  177.7340  135.5860 C   0  0  0  0  0  3  0  0  0  0  0  0
  181.4140  175.4970  136.3980 C   0  0  0  0  0  3  0  0  0  0  0  0
  182.7000  175.3350  135.8680 C   0  0  0  0  0  0  0  0  0  0  0  0
  183.4300  176.4530  135.4540 C   0  0  0  0  0  3  0  0  0  0  0  0
  181.6060  177.8980  136.1300 C   0  0  0  0  0  0  0  0  0  0  0  0
  183.2870  173.9700  135.7380 C   0  0  0  0  0  2  0  0  0  0  0  0
  184.3190  173.5340  137.6380 C   0  0  0  0  0  1  0  0  0  0  0  0
  183.1410  173.2700  136.9380 O   0  0  0  0  0  0  0  0  0  0  0  0
  184.3850  178.2900  138.9210 C   0  0  0  0  0  0  0  0  0  0  0  0
  184.1980  177.0410  138.8860 O   0  0  0  0  0  0  0  0  0  0  0  0
  185.6770  178.8350  138.6640 N   0  0  0  0  0  2  0  0  0  0  0  0
  188.8510  174.4060  136.5150 C   0  0  2  0  0  3  0  0  0  0  0  0
  187.1120  175.8670  136.9650 C   0  0  1  0  0  3  0  0  0  0  0  0
  186.4720  177.2750  136.9960 C   0  0  1  0  0  3  0  0  0  0  0  0
  186.8030  177.9990  138.2870 C   0  0  1  0  0  3  0  0  0  0  0  0
  189.2600  176.9410  136.4650 C   0  0  0  0  0  0  0  0  0  0  0  0
  188.9090  178.2820  137.0000 C   0  0  0  0  0  2  0  0  0  0  0  0
  189.9870  176.8400  135.4880 O   0  0  0  0  0  0  0  0  0  0  0  0
  187.3950  178.5140  136.9800 C   0  0  1  0  0  3  0  0  0  0  0  0
  186.7250  175.1800  135.7940 O   0  0  0  0  0  0  0  0  0  0  0  0
  187.7950  174.3310  135.4360 C   0  0  0  0  0  2  0  0  0  0  0  0
  188.6180  175.7580  137.1430 C   0  0  2  0  0  3  0  0  0  0  0  0
  190.4640  173.7860  134.8720 O   0  0  0  0  0  0  0  0  0  0  0  0
  191.3440  174.1750  137.0010 N   0  0  0  0  0  2  0  0  0  0  0  0
  190.2550  174.1050  136.0740 C   0  0  0  0  0  0  0  0  0  0  0  0
  193.7430  174.6350  137.2400 C   0  0  2  0  0  3  0  0  0  0  0  0
  193.5460  175.4800  134.7050 O   0  0  0  0  0  0  0  0  0  0  0  0
  192.7120  173.8500  136.6280 C   0  0  1  0  0  0  0  0  0  0  0  0
  192.9790  172.5240  136.2790 O   0  0  0  0  0  1  0  0  0  0  0  0
  193.3910  174.8930  135.7590 C   0  0  0  0  0  0  0  0  0  0  0  0
  195.0870  173.9250  137.3140 C   0  0  0  0  0  2  0  0  0  0  0  0
  196.2510  173.8870  139.3670 O   0  0  0  0  0  0  0  0  0  0  0  0
  195.3380  173.4290  138.6990 C   0  0  0  0  0  3  0  0  0  0  0  0
  183.0500  179.2490  140.6310 O   0  0  0  0  0  0  0  0  0  0  0  0
  184.2840  179.0930  141.1710 N   0  0  0  0  0  2  0  0  0  0  0  0
  184.1460  178.2240  142.2620 N   0  0  0  0  0  2  0  0  0  0  0  0
  182.4340  179.0530  143.7420 C   0  0  0  0  0  2  0  0  0  0  0  0
  183.6960  178.6720  143.5460 C   0  0  0  0  0  0  0  0  0  0  0  0
  184.6630  178.7490  144.6750 C   0  0  0  0  0  2  0  0  0  0  0  0
  185.8190  177.7890  144.4380 C   0  0  0  0  0  2  0  0  0  0  0  0
  187.1870  178.4100  144.7220 C   0  0  1  0  0  3  0  0  0  0  0  0
  189.2070  177.0800  143.9360 C   0  0  1  0  0  0  0  0  0  0  0  0
  189.5570  177.0910  145.3090 O   0  0  0  0  0  0  0  0  0  0  0  0
  187.6610  178.1870  146.0350 O   0  0  0  0  0  0  0  0  0  0  0  0
  188.3720  176.9710  146.0580 C   0  0  0  0  0  2  0  0  0  0  0  0
  188.6210  175.8700  143.5970 F   0  0  0  0  0  0  0  0  0  0  0  0
  188.2410  178.2270  143.6160 C   0  0  0  0  0  2  0  0  0  0  0  0
  191.3290  176.1800  143.1480 O   0  0  0  0  0  0  0  0  0  0  0  0
  190.5350  176.2370  141.9890 C   0  0  0  0  0  2  0  0  0  0  0  0
  190.4440  177.2710  143.0450 C   0  0  1  0  0  3  0  0  0  0  0  0
  1 17  1  1  0  0  0
  1 42  1  0  0  0  0
  2  7  1  6  0  0  0
  2  4  1  0  0  0  0
  2  5  1  0  0  0  0
  4  3  1  0  0  0  0
  4  6  1  0  0  0  0
  5  1  1  1  0  0  0
  5  6  1  0  0  0  0
  9 13  1  0  0  0  0
 10  8  1  0  0  0  0
 11 10  2  0  0  0  0
 12  9  2  0  0  0  0
 12 11  1  0  0  0  0
 13  7  1  0  0  0  0
 13  8  2  0  0  0  0
 14 11  1  0  0  0  0
 14 16  1  0  0  0  0
 16 15  1  0  0  0  0
 18 17  2  0  0  0  0
 19 17  1  0  0  0  0
 20 33  1  6  0  0  0
 20 30  1  0  0  0  0
 21 28  1  6  0  0  0
 21 22  1  0  0  0  0
 21 30  1  0  0  0  0
 22 23  1  0  0  0  0
 23 19  1  0  0  0  0
 24 25  1  0  0  0  0
 24 30  1  0  0  0  0
 26 24  2  0  0  0  0
 27 22  1  0  0  0  0
 27 25  1  0  0  0  0
 27 23  1  0  0  0  0
 29 28  1  0  0  0  0
 29 20  1  0  0  0  0
 31 33  2  0  0  0  0
 33 32  1  0  0  0  0
 34 39  1  0  0  0  0
 35 38  2  0  0  0  0
 36 32  1  0  0  0  0
 36 34  1  0  0  0  0
 37 36  1  0  0  0  0
 38 36  1  0  0  0  0
 38 34  1  0  0  0  0
 39 41  1  0  0  0  0
 41 40  2  0  0  0  0
 42 43  1  0  0  0  0
 43 44  1  0  0  0  0
 44 46  1  0  0  0  0
 46 45  2  0  0  0  0
 46 47  1  0  0  0  0
 48 47  1  0  0  0  0
 48 49  1  0  0  0  0
 49 52  1  0  0  0  0
 50 51  1  0  0  0  0
 51 53  1  0  0  0  0
 52 53  1  0  0  0  0
 54 50  1  0  0  0  0
 55 50  1  0  0  0  0
 55 49  1  0  0  0  0
 57 58  1  0  0  0  0
 57 56  1  0  0  0  0
 58 56  1  0  0  0  0
 58 50  1  0  0  0  0
M  END
>  <MODEL>
3

>  <REMARK>
 VINA RESULT:      -6.5      2.476      7.577
  Name = 
  19 active torsions:
  status: ('A' for Active; 'I' for Inactive)
    1  A    between atoms: N_1  and  N_6
    2  A    between atoms: N_1  and  C_57
    3  A    between atoms: C_2  and  C_46
    4  A    between atoms: C_3  and  C_5
    5  A    between atoms: C_3  and  C_22
    6  A    between atoms: N_6  and  O_56
    7  A    between atoms: C_7  and  C_38
    8  A    between atoms: C_9  and  C_51
    9  A    between atoms: C_14  and  C_35
   10  A    between atoms: C_17  and  N_54
   11  A    between atoms: C_22  and  C_57
   12  A    between atoms: C_27  and  C_43
   13  A    between atoms: C_28  and  C_43
   14  A    between atoms: C_30  and  N_42
   15  A    between atoms: C_32  and  C_35
   16  A    between atoms: C_37  and  C_39
   17  A    between atoms: C_37  and  O_45
   18  A    between atoms: C_38  and  C_49
   19  A    between atoms: C_43  and  O_56
                            x       y       z     vdW  Elec       q    Type
                         _______ _______ _______ _____ _____    ______ ____

>  <TORSDO>
F 19

$$$$
=
 OpenBabel10222418243D

 58 65  0  0  1  0  0  0  0  0999 V2000
  185.9350  178.5890  141.2680 C   0  0  2  0  0  3  0  0  0  0  0  0
  185.3160  177.9420  143.6010 C   0  0  1  0  0  3  0  0  0  0  0  0
  183.1050  178.5060  143.3170 N   0  0  0  0  0  1  0  0  0  0  0  0
  184.2780  178.8930  143.9800 N   0  0  0  0  0  0  0  0  0  0  0  0
  186.0490  178.9550  142.7430 C   0  0  2  0  0  3  0  0  0  0  0  0
  184.9300  179.8920  143.1420 C   0  0  0  0  0  2  0  0  0  0  0  0
  186.1690  177.5860  144.8100 C   0  0  0  0  0  2  0  0  0  0  0  0
  188.6110  178.1130  144.9570 C   0  0  0  0  0  3  0  0  0  0  0  0
  187.8830  176.3390  143.4740 C   0  0  0  0  0  3  0  0  0  0  0  0
  189.9350  177.9020  144.5580 C   0  0  0  0  0  3  0  0  0  0  0  0
  190.2330  176.9140  143.6120 C   0  0  0  0  0  0  0  0  0  0  0  0
  189.2080  176.1270  143.0790 C   0  0  0  0  0  3  0  0  0  0  0  0
  187.5830  177.3370  144.4100 C   0  0  0  0  0  0  0  0  0  0  0  0
  191.6430  176.6960  143.1790 C   0  0  0  0  0  2  0  0  0  0  0  0
  192.1070  177.1240  141.0660 C   0  0  0  0  0  1  0  0  0  0  0  0
  192.0460  177.7250  142.3250 O   0  0  0  0  0  0  0  0  0  0  0  0
  187.2870  178.3380  140.6750 C   0  0  0  0  0  0  0  0  0  0  0  0
  188.3110  178.8900  141.1660 O   0  0  0  0  0  0  0  0  0  0  0  0
  187.4010  177.4810  139.5420 N   0  0  0  0  0  2  0  0  0  0  0  0
  191.8700  174.4570  137.2650 C   0  0  2  0  0  3  0  0  0  0  0  0
  189.7680  175.0650  138.0210 C   0  0  1  0  0  3  0  0  0  0  0  0
  188.5130  175.9700  138.0180 C   0  0  1  0  0  3  0  0  0  0  0  0
  188.6860  177.1510  138.9520 C   0  0  1  0  0  3  0  0  0  0  0  0
  190.8790  176.7350  136.6090 C   0  0  0  0  0  0  0  0  0  0  0  0
  190.0070  177.8790  136.9780 C   0  0  0  0  0  2  0  0  0  0  0  0
  191.3250  176.6420  135.4750 O   0  0  0  0  0  0  0  0  0  0  0  0
  188.6290  177.4020  137.4510 C   0  0  1  0  0  3  0  0  0  0  0  0
  189.5560  173.9300  137.2090 O   0  0  0  0  0  0  0  0  0  0  0  0
  190.8060  173.5710  136.6600 C   0  0  0  0  0  2  0  0  0  0  0  0
  191.1080  175.6940  137.6740 C   0  0  2  0  0  3  0  0  0  0  0  0
  193.0420  174.4120  135.1880 O   0  0  0  0  0  0  0  0  0  0  0  0
  194.3060  175.1660  137.0020 N   0  0  0  0  0  2  0  0  0  0  0  0
  193.0940  174.6730  136.4200 C   0  0  0  0  0  0  0  0  0  0  0  0
  196.2140  174.1560  135.8350 C   0  0  2  0  0  3  0  0  0  0  0  0
  197.6430  175.2330  137.8300 O   0  0  0  0  0  0  0  0  0  0  0  0
  195.5270  175.3490  136.2310 C   0  0  1  0  0  0  0  0  0  0  0  0
  195.6030  176.4830  135.4200 O   0  0  0  0  0  1  0  0  0  0  0  0
  196.8000  175.0080  136.9820 C   0  0  0  0  0  0  0  0  0  0  0  0
  197.0770  174.3340  134.5940 C   0  0  0  0  0  2  0  0  0  0  0  0
  198.0420  172.1890  134.7980 O   0  0  0  0  0  0  0  0  0  0  0  0
  198.2270  173.3830  134.6190 C   0  0  0  0  0  3  0  0  0  0  0  0
  185.2920  179.6180  140.5730 O   0  0  0  0  0  0  0  0  0  0  0  0
  184.7460  179.0180  139.4860 N   0  0  0  0  0  2  0  0  0  0  0  0
  183.5160  179.6460  139.2470 N   0  0  0  0  0  2  0  0  0  0  0  0
  181.4430  179.1840  140.3860 C   0  0  0  0  0  2  0  0  0  0  0  0
  182.2670  178.9540  139.3640 C   0  0  0  0  0  0  0  0  0  0  0  0
  181.8970  177.9340  138.3460 C   0  0  0  0  0  2  0  0  0  0  0  0
  182.5590  178.2600  137.0160 C   0  0  0  0  0  2  0  0  0  0  0  0
  182.4880  177.1120  136.0080 C   0  0  1  0  0  3  0  0  0  0  0  0
  184.1580  175.2230  136.3420 C   0  0  1  0  0  0  0  0  0  0  0  0
  184.5860  175.5770  135.0380 O   0  0  0  0  0  0  0  0  0  0  0  0
  183.1570  177.3700  134.7900 O   0  0  0  0  0  0  0  0  0  0  0  0
  184.5020  176.9770  134.9210 C   0  0  0  0  0  2  0  0  0  0  0  0
  185.0030  175.7720  137.2940 F   0  0  0  0  0  0  0  0  0  0  0  0
  182.7230  175.7070  136.5880 C   0  0  0  0  0  2  0  0  0  0  0  0
  185.4240  173.1440  136.2590 O   0  0  0  0  0  0  0  0  0  0  0  0
  185.0750  173.2740  137.6150 C   0  0  0  0  0  2  0  0  0  0  0  0
  184.1580  173.6990  136.5320 C   0  0  1  0  0  3  0  0  0  0  0  0
  1 42  1  6  0  0  0
  2  4  1  0  0  0  0
  2  7  1  1  0  0  0
  3  4  1  0  0  0  0
  5  1  1  6  0  0  0
  5  6  1  0  0  0  0
  5  2  1  0  0  0  0
  6  4  1  0  0  0  0
  9 13  1  0  0  0  0
 10  8  1  0  0  0  0
 11 10  2  0  0  0  0
 12  9  2  0  0  0  0
 12 11  1  0  0  0  0
 13  7  1  0  0  0  0
 13  8  2  0  0  0  0
 14 11  1  0  0  0  0
 15 16  1  0  0  0  0
 16 14  1  0  0  0  0
 17 18  2  0  0  0  0
 17  1  1  0  0  0  0
 19 17  1  0  0  0  0
 20 33  1  6  0  0  0
 20 30  1  0  0  0  0
 21 28  1  6  0  0  0
 22 21  1  0  0  0  0
 22 23  1  0  0  0  0
 23 19  1  0  0  0  0
 24 25  1  0  0  0  0
 24 30  1  0  0  0  0
 25 27  1  0  0  0  0
 26 24  2  0  0  0  0
 27 22  1  0  0  0  0
 27 23  1  0  0  0  0
 29 28  1  0  0  0  0
 29 20  1  0  0  0  0
 30 21  1  0  0  0  0
 31 33  2  0  0  0  0
 33 32  1  0  0  0  0
 34 36  1  0  0  0  0
 34 38  1  0  0  0  0
 36 38  1  0  0  0  0
 36 32  1  0  0  0  0
 37 36  1  0  0  0  0
 38 35  2  0  0  0  0
 39 41  1  0  0  0  0
 39 34  1  0  0  0  0
 41 40  2  0  0  0  0
 43 42  1  0  0  0  0
 44 46  1  0  0  0  0
 44 43  1  0  0  0  0
 46 45  2  0  0  0  0
 47 46  1  0  0  0  0
 48 47  1  0  0  0  0
 49 55  1  0  0  0  0
 49 48  1  0  0  0  0
 50 58  1  0  0  0  0
 50 55  1  0  0  0  0
 50 54  1  0  0  0  0
 51 50  1  0  0  0  0
 52 53  1  0  0  0  0
 52 49  1  0  0  0  0
 53 51  1  0  0  0  0
 56 58  1  0  0  0  0
 56 57  1  0  0  0  0
 58 57  1  0  0  0  0
M  END
>  <MODEL>
4

>  <REMARK>
 VINA RESULT:      -6.4      1.937      2.713
  Name = 
  19 active torsions:
  status: ('A' for Active; 'I' for Inactive)
    1  A    between atoms: N_1  and  N_6
    2  A    between atoms: N_1  and  C_57
    3  A    between atoms: C_2  and  C_46
    4  A    between atoms: C_3  and  C_5
    5  A    between atoms: C_3  and  C_22
    6  A    between atoms: N_6  and  O_56
    7  A    between atoms: C_7  and  C_38
    8  A    between atoms: C_9  and  C_51
    9  A    between atoms: C_14  and  C_35
   10  A    between atoms: C_17  and  N_54
   11  A    between atoms: C_22  and  C_57
   12  A    between atoms: C_27  and  C_43
   13  A    between atoms: C_28  and  C_43
   14  A    between atoms: C_30  and  N_42
   15  A    between atoms: C_32  and  C_35
   16  A    between atoms: C_37  and  C_39
   17  A    between atoms: C_37  and  O_45
   18  A    between atoms: C_38  and  C_49
   19  A    between atoms: C_43  and  O_56
                            x       y       z     vdW  Elec       q    Type
                         _______ _______ _______ _____ _____    ______ ____

>  <TORSDO>
F 19

$$$$
=
 OpenBabel10222418243D

 58 65  0  0  1  0  0  0  0  0999 V2000
  185.9530  177.6070  143.6820 C   0  0  2  0  0  3  0  0  0  0  0  0
  185.9750  178.3590  146.0650 C   0  0  1  0  0  3  0  0  0  0  0  0
  183.6860  178.5620  146.1650 N   0  0  0  0  0  1  0  0  0  0  0  0
  184.8720  179.3090  146.1580 N   0  0  0  0  0  0  0  0  0  0  0  0
  186.2990  178.7460  144.6350 C   0  0  2  0  0  3  0  0  0  0  0  0
  185.1260  179.6920  144.7740 C   0  0  0  0  0  2  0  0  0  0  0  0
  187.1140  178.7870  146.9790 C   0  0  0  0  0  2  0  0  0  0  0  0
  188.8280  177.0240  147.4400 C   0  0  0  0  0  3  0  0  0  0  0  0
  189.1130  178.4560  145.5040 C   0  0  0  0  0  3  0  0  0  0  0  0
  190.0270  176.3720  147.1330 C   0  0  0  0  0  3  0  0  0  0  0  0
  190.7730  176.7660  146.0150 C   0  0  0  0  0  0  0  0  0  0  0  0
  190.3100  177.8010  145.1970 C   0  0  0  0  0  3  0  0  0  0  0  0
  188.3740  178.0710  146.6300 C   0  0  0  0  0  0  0  0  0  0  0  0
  192.0560  176.0780  145.6930 C   0  0  0  0  0  2  0  0  0  0  0  0
  192.4290  174.1150  144.7590 C   0  0  0  0  0  1  0  0  0  0  0  0
  191.9420  175.3940  144.4810 O   0  0  0  0  0  0  0  0  0  0  0  0
  187.1930  177.0280  143.0730 C   0  0  0  0  0  0  0  0  0  0  0  0
  187.7290  175.9990  143.5730 O   0  0  0  0  0  0  0  0  0  0  0  0
  187.7670  177.6600  141.9320 N   0  0  0  0  0  2  0  0  0  0  0  0
  191.4780  175.9390  137.7400 C   0  0  2  0  0  3  0  0  0  0  0  0
  189.7330  176.9630  138.8660 C   0  0  1  0  0  3  0  0  0  0  0  0
  189.1590  177.8840  139.9680 C   0  0  1  0  0  3  0  0  0  0  0  0
  188.9350  177.1200  141.2590 C   0  0  1  0  0  3  0  0  0  0  0  0
  191.9100  177.1090  139.9860 C   0  0  0  0  0  0  0  0  0  0  0  0
  191.3900  177.4970  141.3220 C   0  0  0  0  0  2  0  0  0  0  0  0
  192.9760  177.5550  139.5880 O   0  0  0  0  0  0  0  0  0  0  0  0
  190.0240  178.1840  141.2120 C   0  0  1  0  0  3  0  0  0  0  0  0
  189.8580  177.6720  137.6510 O   0  0  0  0  0  0  0  0  0  0  0  0
  190.9670  177.1310  136.9640 C   0  0  0  0  0  2  0  0  0  0  0  0
  191.0260  176.2170  139.1530 C   0  0  2  0  0  3  0  0  0  0  0  0
  193.7140  176.5210  137.1470 O   0  0  0  0  0  0  0  0  0  0  0  0
  193.4340  174.3040  137.8290 N   0  0  0  0  0  2  0  0  0  0  0  0
  192.9330  175.6170  137.5530 C   0  0  0  0  0  0  0  0  0  0  0  0
  195.2970  172.7910  138.3420 C   0  0  2  0  0  3  0  0  0  0  0  0
  196.3340  174.9390  139.5630 O   0  0  0  0  0  0  0  0  0  0  0  0
  194.8260  173.9370  137.6210 C   0  0  1  0  0  0  0  0  0  0  0  0
  195.3860  174.2390  136.3780 O   0  0  0  0  0  1  0  0  0  0  0  0
  195.7290  174.1970  138.8130 C   0  0  0  0  0  0  0  0  0  0  0  0
  196.4840  172.1020  137.6830 C   0  0  0  0  0  2  0  0  0  0  0  0
  195.6240  169.9220  137.9680 O   0  0  0  0  0  0  0  0  0  0  0  0
  196.0940  170.7460  137.1980 C   0  0  0  0  0  3  0  0  0  0  0  0
  185.1010  178.0730  142.6760 O   0  0  0  0  0  0  0  0  0  0  0  0
  185.6700  179.2240  142.2410 N   0  0  0  0  0  2  0  0  0  0  0  0
  185.4570  179.2880  140.8570 N   0  0  0  0  0  2  0  0  0  0  0  0
  184.0020  177.5080  140.1350 C   0  0  0  0  0  2  0  0  0  0  0  0
  184.2530  178.8120  140.2450 C   0  0  0  0  0  0  0  0  0  0  0  0
  183.2790  179.7900  139.6870 C   0  0  0  0  0  2  0  0  0  0  0  0
  182.3200  179.0880  138.7390 C   0  0  0  0  0  2  0  0  0  0  0  0
  180.8500  179.2820  139.1150 C   0  0  1  0  0  3  0  0  0  0  0  0
  180.2020  178.6180  141.4830 C   0  0  1  0  0  0  0  0  0  0  0  0
  179.3200  177.7240  140.8270 O   0  0  0  0  0  0  0  0  0  0  0  0
  180.0000  178.2360  138.6840 O   0  0  0  0  0  0  0  0  0  0  0  0
  179.9710  177.2400  139.6770 C   0  0  0  0  0  2  0  0  0  0  0  0
  181.3440  177.9510  141.9000 F   0  0  0  0  0  0  0  0  0  0  0  0
  180.5920  179.7710  140.5500 C   0  0  0  0  0  2  0  0  0  0  0  0
  179.0310  178.2580  143.5870 O   0  0  0  0  0  0  0  0  0  0  0  0
  180.2370  178.8690  143.9730 C   0  0  0  0  0  2  0  0  0  0  0  0
  179.5410  179.2440  142.7200 C   0  0  1  0  0  3  0  0  0  0  0  0
  1 42  1  6  0  0  0
  2  4  1  0  0  0  0
  2  7  1  1  0  0  0
  4  3  1  0  0  0  0
  5  1  1  6  0  0  0
  5  6  1  0  0  0  0
  5  2  1  0  0  0  0
  6  4  1  0  0  0  0
  9 13  1  0  0  0  0
 10  8  1  0  0  0  0
 11 10  2  0  0  0  0
 12  9  2  0  0  0  0
 12 11  1  0  0  0  0
 13  7  1  0  0  0  0
 13  8  2  0  0  0  0
 14 11  1  0  0  0  0
 16 15  1  0  0  0  0
 16 14  1  0  0  0  0
 17 18  2  0  0  0  0
 17  1  1  0  0  0  0
 19 17  1  0  0  0  0
 20 33  1  1  0  0  0
 20 30  1  0  0  0  0
 21 28  1  6  0  0  0
 21 30  1  0  0  0  0
 21 22  1  0  0  0  0
 22 27  1  0  0  0  0
 22 23  1  0  0  0  0
 23 19  1  0  0  0  0
 24 25  1  0  0  0  0
 26 24  2  0  0  0  0
 27 23  1  0  0  0  0
 27 25  1  0  0  0  0
 29 28  1  0  0  0  0
 29 20  1  0  0  0  0
 30 24  1  0  0  0  0
 31 33  2  0  0  0  0
 33 32  1  0  0  0  0
 34 38  1  0  0  0  0
 36 32  1  0  0  0  0
 36 34  1  0  0  0  0
 36 38  1  0  0  0  0
 37 36  1  0  0  0  0
 38 35  2  0  0  0  0
 39 34  1  0  0  0  0
 41 39  1  0  0  0  0
 41 40  2  0  0  0  0
 43 42  1  0  0  0  0
 44 43  1  0  0  0  0
 45 46  2  0  0  0  0
 46 44  1  0  0  0  0
 47 46  1  0  0  0  0
 48 49  1  0  0  0  0
 48 47  1  0  0  0  0
 49 55  1  0  0  0  0
 50 54  1  0  0  0  0
 50 58  1  0  0  0  0
 51 50  1  0  0  0  0
 52 49  1  0  0  0  0
 52 53  1  0  0  0  0
 53 51  1  0  0  0  0
 55 50  1  0  0  0  0
 56 57  1  0  0  0  0
 58 56  1  0  0  0  0
 58 57  1  0  0  0  0
M  END
>  <MODEL>
5

>  <REMARK>
 VINA RESULT:      -6.4      2.045      3.467
  Name = 
  19 active torsions:
  status: ('A' for Active; 'I' for Inactive)
    1  A    between atoms: N_1  and  N_6
    2  A    between atoms: N_1  and  C_57
    3  A    between atoms: C_2  and  C_46
    4  A    between atoms: C_3  and  C_5
    5  A    between atoms: C_3  and  C_22
    6  A    between atoms: N_6  and  O_56
    7  A    between atoms: C_7  and  C_38
    8  A    between atoms: C_9  and  C_51
    9  A    between atoms: C_14  and  C_35
   10  A    between atoms: C_17  and  N_54
   11  A    between atoms: C_22  and  C_57
   12  A    between atoms: C_27  and  C_43
   13  A    between atoms: C_28  and  C_43
   14  A    between atoms: C_30  and  N_42
   15  A    between atoms: C_32  and  C_35
   16  A    between atoms: C_37  and  C_39
   17  A    between atoms: C_37  and  O_45
   18  A    between atoms: C_38  and  C_49
   19  A    between atoms: C_43  and  O_56
                            x       y       z     vdW  Elec       q    Type
                         _______ _______ _______ _____ _____    ______ ____

>  <TORSDO>
F 19

$$$$
=
 OpenBabel10222418243D

 58 65  0  0  1  0  0  0  0  0999 V2000
  184.4400  179.0850  140.2500 C   0  0  2  0  0  3  0  0  0  0  0  0
  182.3440  179.2100  138.8950 C   0  0  1  0  0  3  0  0  0  0  0  0
  181.0050  179.5040  140.7420 N   0  0  0  0  0  1  0  0  0  0  0  0
  181.3290  178.5840  139.7340 N   0  0  0  0  0  0  0  0  0  0  0  0
  183.4450  178.2990  139.4020 C   0  0  2  0  0  3  0  0  0  0  0  0
  182.3600  177.7070  140.2760 C   0  0  0  0  0  2  0  0  0  0  0  0
  182.0700  178.9090  137.4280 C   0  0  0  0  0  2  0  0  0  0  0  0
  183.7630  177.2790  136.5710 C   0  0  0  0  0  3  0  0  0  0  0  0
  181.5880  176.4560  137.2530 C   0  0  0  0  0  3  0  0  0  0  0  0
  184.1420  175.9810  136.2150 C   0  0  0  0  0  3  0  0  0  0  0  0
  183.2420  174.9200  136.3730 C   0  0  0  0  0  0  0  0  0  0  0  0
  181.9690  175.1580  136.9000 C   0  0  0  0  0  3  0  0  0  0  0  0
  182.4840  177.5200  137.0830 C   0  0  0  0  0  0  0  0  0  0  0  0
  183.6410  173.5370  135.9840 C   0  0  0  0  0  2  0  0  0  0  0  0
  184.9830  173.0440  137.6640 C   0  0  0  0  0  1  0  0  0  0  0  0
  183.7360  172.7300  137.1200 O   0  0  0  0  0  0  0  0  0  0  0  0
  185.8370  178.5960  140.0210 C   0  0  0  0  0  0  0  0  0  0  0  0
  186.6910  178.6480  140.9490 O   0  0  0  0  0  0  0  0  0  0  0  0
  186.1920  178.0830  138.7390 N   0  0  0  0  0  2  0  0  0  0  0  0
  190.5080  174.3880  137.3180 C   0  0  2  0  0  3  0  0  0  0  0  0
  188.4220  175.3580  137.5770 C   0  0  1  0  0  3  0  0  0  0  0  0
  187.4000  176.5000  137.3680 C   0  0  1  0  0  3  0  0  0  0  0  0
  187.5110  177.5420  138.4650 C   0  0  1  0  0  3  0  0  0  0  0  0
  190.1640  176.8670  136.7390 C   0  0  0  0  0  0  0  0  0  0  0  0
  189.4410  178.1340  137.0170 C   0  0  0  0  0  2  0  0  0  0  0  0
  190.8870  176.7740  135.7580 O   0  0  0  0  0  0  0  0  0  0  0  0
  187.9240  177.9180  137.0480 C   0  0  1  0  0  3  0  0  0  0  0  0
  188.2480  174.3600  136.5930 O   0  0  0  0  0  0  0  0  0  0  0  0
  189.5180  173.7930  136.3450 C   0  0  0  0  0  2  0  0  0  0  0  0
  189.8950  175.7200  137.6780 C   0  0  2  0  0  3  0  0  0  0  0  0
  192.2110  174.0350  135.6860 O   0  0  0  0  0  0  0  0  0  0  0  0
  192.9820  174.8530  137.7340 N   0  0  0  0  0  2  0  0  0  0  0  0
  191.9380  174.4120  136.8580 C   0  0  0  0  0  0  0  0  0  0  0  0
  195.0300  173.5740  137.2980 C   0  0  2  0  0  3  0  0  0  0  0  0
  195.9310  174.8030  139.5020 O   0  0  0  0  0  0  0  0  0  0  0  0
  194.3840  174.8520  137.3450 C   0  0  1  0  0  0  0  0  0  0  0  0
  194.8050  175.8630  136.4780 O   0  0  0  0  0  1  0  0  0  0  0  0
  195.3480  174.5270  138.4710 C   0  0  0  0  0  0  0  0  0  0  0  0
  196.2250  173.5300  136.3570 C   0  0  0  0  0  2  0  0  0  0  0  0
  197.0790  171.3290  136.3720 O   0  0  0  0  0  0  0  0  0  0  0  0
  197.1870  172.4720  136.7860 C   0  0  0  0  0  3  0  0  0  0  0  0
  184.1080  178.9650  141.6020 O   0  0  0  0  0  0  0  0  0  0  0  0
  185.0260  179.7210  142.2560 N   0  0  0  0  0  2  0  0  0  0  0  0
  184.6970  179.6770  143.6180 N   0  0  0  0  0  0  0  0  0  0  0  0
  185.2180  178.9140  145.8440 C   0  0  0  0  0  1  0  0  0  0  0  0
  185.3110  178.7520  144.5240 C   0  0  0  0  0  0  0  0  0  0  0  0
  186.0980  177.6110  143.9840 C   0  0  0  0  0  2  0  0  0  0  0  0
  187.5850  177.9190  144.0630 C   0  0  0  0  0  2  0  0  0  0  0  0
  188.4300  176.7110  144.4740 C   0  0  1  0  0  3  0  0  0  0  0  0
  190.8060  177.2110  145.2290 C   0  0  1  0  0  0  0  0  0  0  0  0
  191.1640  176.3680  144.1480 O   0  0  0  0  0  0  0  0  0  0  0  0
  189.0140  176.0190  143.3880 O   0  0  0  0  0  0  0  0  0  0  0  0
  190.2600  176.6070  143.0960 C   0  0  0  0  0  2  0  0  0  0  0  0
  190.9330  178.5430  144.8650 F   0  0  0  0  0  0  0  0  0  0  0  0
  189.3650  176.9350  145.6740 C   0  0  0  0  0  2  0  0  0  0  0  0
  191.1020  176.0980  147.3740 O   0  0  0  0  0  0  0  0  0  0  0  0
  192.1120  175.5460  146.5660 C   0  0  0  0  0  2  0  0  0  0  0  0
  191.7090  176.9670  146.4470 C   0  0  1  0  0  3  0  0  0  0  0  0
  1 17  1  1  0  0  0
  1 42  1  0  0  0  0
  2  7  1  6  0  0  0
  2  5  1  0  0  0  0
  2  4  1  0  0  0  0
  4  6  1  0  0  0  0
  4  3  1  0  0  0  0
  5  1  1  1  0  0  0
  5  6  1  0  0  0  0
  8 13  1  0  0  0  0
 10 11  1  0  0  0  0
 10  8  2  0  0  0  0
 11 12  2  0  0  0  0
 12  9  1  0  0  0  0
 13  9  2  0  0  0  0
 13  7  1  0  0  0  0
 14 11  1  0  0  0  0
 14 16  1  0  0  0  0
 16 15  1  0  0  0  0
 17 18  2  0  0  0  0
 19 17  1  0  0  0  0
 20 33  1  6  0  0  0
 20 30  1  0  0  0  0
 21 28  1  6  0  0  0
 21 30  1  0  0  0  0
 22 21  1  0  0  0  0
 22 23  1  0  0  0  0
 23 19  1  0  0  0  0
 24 25  1  0  0  0  0
 24 30  1  0  0  0  0
 25 27  1  0  0  0  0
 26 24  2  0  0  0  0
 27 22  1  0  0  0  0
 27 23  1  0  0  0  0
 29 28  1  0  0  0  0
 29 20  1  0  0  0  0
 31 33  2  0  0  0  0
 33 32  1  0  0  0  0
 34 36  1  0  0  0  0
 34 38  1  0  0  0  0
 36 32  1  0  0  0  0
 36 38  1  0  0  0  0
 37 36  1  0  0  0  0
 38 35  2  0  0  0  0
 39 41  1  0  0  0  0
 39 34  1  0  0  0  0
 40 41  2  0  0  0  0
 42 43  1  0  0  0  0
 43 44  1  0  0  0  0
 44 46  2  0  0  0  0
 46 45  1  0  0  0  0
 47 48  1  0  0  0  0
 47 46  1  0  0  0  0
 48 49  1  0  0  0  0
 49 55  1  0  0  0  0
 50 55  1  0  0  0  0
 50 58  1  0  0  0  0
 51 50  1  0  0  0  0
 52 49  1  0  0  0  0
 53 52  1  0  0  0  0
 53 51  1  0  0  0  0
 54 50  1  0  0  0  0
 57 56  1  0  0  0  0
 58 57  1  0  0  0  0
 58 56  1  0  0  0  0
M  END
>  <MODEL>
6

>  <REMARK>
 VINA RESULT:      -6.4      2.254      7.360
  Name = 
  19 active torsions:
  status: ('A' for Active; 'I' for Inactive)
    1  A    between atoms: N_1  and  N_6
    2  A    between atoms: N_1  and  C_57
    3  A    between atoms: C_2  and  C_46
    4  A    between atoms: C_3  and  C_5
    5  A    between atoms: C_3  and  C_22
    6  A    between atoms: N_6  and  O_56
    7  A    between atoms: C_7  and  C_38
    8  A    between atoms: C_9  and  C_51
    9  A    between atoms: C_14  and  C_35
   10  A    between atoms: C_17  and  N_54
   11  A    between atoms: C_22  and  C_57
   12  A    between atoms: C_27  and  C_43
   13  A    between atoms: C_28  and  C_43
   14  A    between atoms: C_30  and  N_42
   15  A    between atoms: C_32  and  C_35
   16  A    between atoms: C_37  and  C_39
   17  A    between atoms: C_37  and  O_45
   18  A    between atoms: C_38  and  C_49
   19  A    between atoms: C_43  and  O_56
                            x       y       z     vdW  Elec       q    Type
                         _______ _______ _______ _____ _____    ______ ____

>  <TORSDO>
F 19

$$$$
=
 OpenBabel10222418243D

 58 65  0  0  1  0  0  0  0  0999 V2000
  185.8660  178.7640  141.2340 C   0  0  2  0  0  3  0  0  0  0  0  0
  185.1940  178.0520  143.5350 C   0  0  1  0  0  3  0  0  0  0  0  0
  182.9650  178.4830  143.1660 N   0  0  0  0  0  1  0  0  0  0  0  0
  184.0850  178.9330  143.8800 N   0  0  0  0  0  0  0  0  0  0  0  0
  185.8970  179.1190  142.7170 C   0  0  2  0  0  3  0  0  0  0  0  0
  184.7070  179.9810  143.0790 C   0  0  0  0  0  2  0  0  0  0  0  0
  186.0180  177.7350  144.7740 C   0  0  0  0  0  2  0  0  0  0  0  0
  187.6510  176.3300  143.5020 C   0  0  0  0  0  3  0  0  0  0  0  0
  188.4950  178.0590  144.9780 C   0  0  0  0  0  3  0  0  0  0  0  0
  188.9630  175.9660  143.1800 C   0  0  0  0  0  3  0  0  0  0  0  0
  190.0410  176.6430  143.7630 C   0  0  0  0  0  0  0  0  0  0  0  0
  189.8060  177.6950  144.6530 C   0  0  0  0  0  3  0  0  0  0  0  0
  187.4160  177.3720  144.4060 C   0  0  0  0  0  0  0  0  0  0  0  0
  191.4400  176.2490  143.4280 C   0  0  0  0  0  2  0  0  0  0  0  0
  191.8320  177.3800  141.5760 C   0  0  0  0  0  1  0  0  0  0  0  0
  192.1430  177.3510  142.9370 O   0  0  0  0  0  0  0  0  0  0  0  0
  187.2260  178.3650  140.7530 C   0  0  0  0  0  0  0  0  0  0  0  0
  188.2610  178.8480  141.2930 O   0  0  0  0  0  0  0  0  0  0  0  0
  187.3380  177.4450  139.6700 N   0  0  0  0  0  2  0  0  0  0  0  0
  191.4820  174.1280  137.1950 C   0  0  2  0  0  3  0  0  0  0  0  0
  189.4350  175.0200  137.8070 C   0  0  1  0  0  3  0  0  0  0  0  0
  188.4170  176.1790  137.9160 C   0  0  1  0  0  3  0  0  0  0  0  0
  188.6250  176.9730  139.1910 C   0  0  1  0  0  3  0  0  0  0  0  0
  191.1290  176.6720  137.1640 C   0  0  0  0  0  0  0  0  0  0  0  0
  190.4480  177.8540  137.7510 C   0  0  0  0  0  2  0  0  0  0  0  0
  191.7740  176.7840  136.1320 O   0  0  0  0  0  0  0  0  0  0  0  0
  188.9350  177.6330  137.8530 C   0  0  1  0  0  3  0  0  0  0  0  0
  189.1730  174.2450  136.6560 O   0  0  0  0  0  0  0  0  0  0  0  0
  190.4120  173.7440  136.2000 C   0  0  0  0  0  2  0  0  0  0  0  0
  190.9160  175.3560  137.8660 C   0  0  2  0  0  3  0  0  0  0  0  0
  193.0630  174.0400  135.4110 O   0  0  0  0  0  0  0  0  0  0  0  0
  193.9730  174.5910  137.4920 N   0  0  0  0  0  2  0  0  0  0  0  0
  192.8730  174.2480  136.6410 C   0  0  0  0  0  0  0  0  0  0  0  0
  196.0460  173.4360  136.8680 C   0  0  2  0  0  3  0  0  0  0  0  0
  197.0390  174.6380  139.0480 O   0  0  0  0  0  0  0  0  0  0  0  0
  195.3420  174.6760  137.0060 C   0  0  1  0  0  0  0  0  0  0  0  0
  195.6490  175.7360  136.1500 O   0  0  0  0  0  1  0  0  0  0  0  0
  196.3990  174.3650  138.0500 C   0  0  0  0  0  0  0  0  0  0  0  0
  197.1720  173.4860  135.8440 C   0  0  0  0  0  2  0  0  0  0  0  0
  195.8210  172.0050  134.5970 O   0  0  0  0  0  0  0  0  0  0  0  0
  196.7730  172.7700  134.5970 C   0  0  0  0  0  3  0  0  0  0  0  0
  185.3990  179.8560  140.4960 O   0  0  0  0  0  0  0  0  0  0  0  0
  184.6670  179.3120  139.4920 N   0  0  0  0  0  2  0  0  0  0  0  0
  183.6710  180.2410  139.1610 N   0  0  0  0  0  2  0  0  0  0  0  0
  181.4240  179.7870  139.9050 C   0  0  0  0  0  2  0  0  0  0  0  0
  182.3140  179.8540  138.9150 C   0  0  0  0  0  0  0  0  0  0  0  0
  181.8980  179.4830  137.5350 C   0  0  0  0  0  2  0  0  0  0  0  0
  180.4030  179.2020  137.4990 C   0  0  0  0  0  2  0  0  0  0  0  0
  180.0670  177.7840  137.0350 C   0  0  1  0  0  3  0  0  0  0  0  0
  180.3420  175.9440  138.7690 C   0  0  1  0  0  0  0  0  0  0  0  0
  181.2650  175.4130  137.8350 O   0  0  0  0  0  0  0  0  0  0  0  0
  181.1090  177.1470  136.3220 O   0  0  0  0  0  0  0  0  0  0  0  0
  181.9490  176.4900  137.2420 C   0  0  0  0  0  2  0  0  0  0  0  0
  181.0110  176.6190  139.7780 F   0  0  0  0  0  0  0  0  0  0  0  0
  179.3610  176.8970  138.0750 C   0  0  0  0  0  2  0  0  0  0  0  0
  180.1600  174.2800  140.5380 O   0  0  0  0  0  0  0  0  0  0  0  0
  179.1050  175.1720  140.8030 C   0  0  0  0  0  2  0  0  0  0  0  0
  179.5060  174.8320  139.4190 C   0  0  1  0  0  3  0  0  0  0  0  0
  1 42  1  6  0  0  0
  2  4  1  0  0  0  0
  2  7  1  1  0  0  0
  3  4  1  0  0  0  0
  5  1  1  6  0  0  0
  5  6  1  0  0  0  0
  5  2  1  0  0  0  0
  6  4  1  0  0  0  0
  8 13  1  0  0  0  0
 10  8  2  0  0  0  0
 10 11  1  0  0  0  0
 11 12  2  0  0  0  0
 12  9  1  0  0  0  0
 13  7  1  0  0  0  0
 13  9  2  0  0  0  0
 14 11  1  0  0  0  0
 15 16  1  0  0  0  0
 16 14  1  0  0  0  0
 17  1  1  0  0  0  0
 17 18  2  0  0  0  0
 19 17  1  0  0  0  0
 20 33  1  6  0  0  0
 20 30  1  0  0  0  0
 21 28  1  6  0  0  0
 21 30  1  0  0  0  0
 21 22  1  0  0  0  0
 22 23  1  0  0  0  0
 23 19  1  0  0  0  0
 24 25  1  0  0  0  0
 24 30  1  0  0  0  0
 25 27  1  0  0  0  0
 26 24  2  0  0  0  0
 27 22  1  0  0  0  0
 27 23  1  0  0  0  0
 29 28  1  0  0  0  0
 29 20  1  0  0  0  0
 31 33  2  0  0  0  0
 33 32  1  0  0  0  0
 34 36  1  0  0  0  0
 34 38  1  0  0  0  0
 36 32  1  0  0  0  0
 36 38  1  0  0  0  0
 37 36  1  0  0  0  0
 38 35  2  0  0  0  0
 39 34  1  0  0  0  0
 40 41  2  0  0  0  0
 41 39  1  0  0  0  0
 43 42  1  0  0  0  0
 44 43  1  0  0  0  0
 46 44  1  0  0  0  0
 46 45  2  0  0  0  0
 47 46  1  0  0  0  0
 48 47  1  0  0  0  0
 49 48  1  0  0  0  0
 49 55  1  0  0  0  0
 50 58  1  0  0  0  0
 50 54  1  0  0  0  0
 51 50  1  0  0  0  0
 52 49  1  0  0  0  0
 52 53  1  0  0  0  0
 53 51  1  0  0  0  0
 55 50  1  0  0  0  0
 56 57  1  0  0  0  0
 58 56  1  0  0  0  0
 58 57  1  0  0  0  0
M  END
>  <MODEL>
7

>  <REMARK>
 VINA RESULT:      -6.3      2.170      3.305
  Name = 
  19 active torsions:
  status: ('A' for Active; 'I' for Inactive)
    1  A    between atoms: N_1  and  N_6
    2  A    between atoms: N_1  and  C_57
    3  A    between atoms: C_2  and  C_46
    4  A    between atoms: C_3  and  C_5
    5  A    between atoms: C_3  and  C_22
    6  A    between atoms: N_6  and  O_56
    7  A    between atoms: C_7  and  C_38
    8  A    between atoms: C_9  and  C_51
    9  A    between atoms: C_14  and  C_35
   10  A    between atoms: C_17  and  N_54
   11  A    between atoms: C_22  and  C_57
   12  A    between atoms: C_27  and  C_43
   13  A    between atoms: C_28  and  C_43
   14  A    between atoms: C_30  and  N_42
   15  A    between atoms: C_32  and  C_35
   16  A    between atoms: C_37  and  C_39
   17  A    between atoms: C_37  and  O_45
   18  A    between atoms: C_38  and  C_49
   19  A    between atoms: C_43  and  O_56
                            x       y       z     vdW  Elec       q    Type
                         _______ _______ _______ _____ _____    ______ ____

>  <TORSDO>
F 19

$$$$
=
 OpenBabel10222418243D

 58 65  0  0  1  0  0  0  0  0999 V2000
  185.9170  177.6010  143.7110 C   0  0  2  0  0  3  0  0  0  0  0  0
  185.9500  178.2920  146.1130 C   0  0  1  0  0  3  0  0  0  0  0  0
  183.6620  178.4840  146.2320 N   0  0  0  0  0  1  0  0  0  0  0  0
  184.8450  179.2350  146.2370 N   0  0  0  0  0  0  0  0  0  0  0  0
  186.2640  178.7160  144.6910 C   0  0  2  0  0  3  0  0  0  0  0  0
  185.0890  179.6540  144.8610 C   0  0  0  0  0  2  0  0  0  0  0  0
  187.0940  178.7000  147.0300 C   0  0  0  0  0  2  0  0  0  0  0  0
  188.8300  176.9390  147.4090 C   0  0  0  0  0  3  0  0  0  0  0  0
  189.0840  178.4480  145.5290 C   0  0  0  0  0  3  0  0  0  0  0  0
  190.0330  176.3130  147.0680 C   0  0  0  0  0  3  0  0  0  0  0  0
  190.7660  176.7580  145.9600 C   0  0  0  0  0  0  0  0  0  0  0  0
  190.2850  177.8190  145.1870 C   0  0  0  0  0  3  0  0  0  0  0  0
  188.3580  178.0120  146.6450 C   0  0  0  0  0  0  0  0  0  0  0  0
  192.0540  176.0970  145.6020 C   0  0  0  0  0  2  0  0  0  0  0  0
  192.4170  174.1000  144.7400 C   0  0  0  0  0  1  0  0  0  0  0  0
  191.9020  175.3590  144.4260 O   0  0  0  0  0  0  0  0  0  0  0  0
  187.1570  177.0200  143.1040 C   0  0  0  0  0  0  0  0  0  0  0  0
  187.6820  175.9820  143.5950 O   0  0  0  0  0  0  0  0  0  0  0  0
  187.7430  177.6620  141.9750 N   0  0  0  0  0  2  0  0  0  0  0  0
  191.4570  175.9350  137.7880 C   0  0  2  0  0  3  0  0  0  0  0  0
  189.7100  176.9590  138.9110 C   0  0  1  0  0  3  0  0  0  0  0  0
  189.1350  177.8820  140.0100 C   0  0  1  0  0  3  0  0  0  0  0  0
  188.9120  177.1230  141.3030 C   0  0  1  0  0  3  0  0  0  0  0  0
  191.8870  177.1130  140.0300 C   0  0  0  0  0  0  0  0  0  0  0  0
  191.3660  177.5040  141.3650 C   0  0  0  0  0  2  0  0  0  0  0  0
  192.9520  177.5590  139.6310 O   0  0  0  0  0  0  0  0  0  0  0  0
  189.9990  178.1880  141.2530 C   0  0  1  0  0  3  0  0  0  0  0  0
  189.8340  177.6650  137.6940 O   0  0  0  0  0  0  0  0  0  0  0  0
  190.9430  177.1230  137.0090 C   0  0  0  0  0  2  0  0  0  0  0  0
  191.0050  176.2170  139.2000 C   0  0  2  0  0  3  0  0  0  0  0  0
  193.6920  176.5200  137.1980 O   0  0  0  0  0  0  0  0  0  0  0  0
  193.4150  174.3020  137.8770 N   0  0  0  0  0  2  0  0  0  0  0  0
  192.9130  175.6150  137.6020 C   0  0  0  0  0  0  0  0  0  0  0  0
  195.2790  172.7900  138.3880 C   0  0  2  0  0  3  0  0  0  0  0  0
  196.3130  174.9350  139.6170 O   0  0  0  0  0  0  0  0  0  0  0  0
  194.8080  173.9370  137.6700 C   0  0  1  0  0  0  0  0  0  0  0  0
  195.3690  174.2440  136.4290 O   0  0  0  0  0  1  0  0  0  0  0  0
  195.7090  174.1950  138.8640 C   0  0  0  0  0  0  0  0  0  0  0  0
  196.4670  172.1040  137.7290 C   0  0  0  0  0  2  0  0  0  0  0  0
  195.5780  169.9270  137.9320 O   0  0  0  0  0  0  0  0  0  0  0  0
  196.0670  170.7690  137.1950 C   0  0  0  0  0  3  0  0  0  0  0  0
  185.0810  178.0970  142.7070 O   0  0  0  0  0  0  0  0  0  0  0  0
  185.7080  179.2070  142.2460 N   0  0  0  0  0  2  0  0  0  0  0  0
  185.4340  179.2930  140.8740 N   0  0  0  0  0  2  0  0  0  0  0  0
  183.5550  179.7890  139.4480 C   0  0  0  0  0  2  0  0  0  0  0  0
  184.1460  178.9820  140.3290 C   0  0  0  0  0  0  0  0  0  0  0  0
  183.4360  177.7550  140.7820 C   0  0  0  0  0  2  0  0  0  0  0  0
  181.9740  177.8150  140.3700 C   0  0  0  0  0  2  0  0  0  0  0  0
  181.5280  176.6040  139.5500 C   0  0  1  0  0  3  0  0  0  0  0  0
  182.8970  176.0940  137.4680 C   0  0  1  0  0  0  0  0  0  0  0  0
  181.6620  176.2790  136.7980 O   0  0  0  0  0  0  0  0  0  0  0  0
  180.4510  176.8660  138.6710 O   0  0  0  0  0  0  0  0  0  0  0  0
  180.9710  177.3200  137.4440 C   0  0  0  0  0  2  0  0  0  0  0  0
  183.6760  177.2360  137.3690 F   0  0  0  0  0  0  0  0  0  0  0  0
  182.6620  175.7580  138.9460 C   0  0  0  0  0  2  0  0  0  0  0  0
  183.9190  175.1180  135.4850 O   0  0  0  0  0  0  0  0  0  0  0  0
  185.0080  175.3590  136.3430 C   0  0  0  0  0  2  0  0  0  0  0  0
  183.6890  174.9270  136.8610 C   0  0  1  0  0  3  0  0  0  0  0  0
  1 42  1  6  0  0  0
  2  4  1  0  0  0  0
  2  7  1  1  0  0  0
  3  4  1  0  0  0  0
  5  1  1  6  0  0  0
  5  6  1  0  0  0  0
  5  2  1  0  0  0  0
  6  4  1  0  0  0  0
  9 13  1  0  0  0  0
 10  8  1  0  0  0  0
 11 10  2  0  0  0  0
 12  9  2  0  0  0  0
 12 11  1  0  0  0  0
 13  7  1  0  0  0  0
 13  8  2  0  0  0  0
 14 11  1  0  0  0  0
 16 15  1  0  0  0  0
 16 14  1  0  0  0  0
 17 18  2  0  0  0  0
 17  1  1  0  0  0  0
 19 17  1  0  0  0  0
 20 33  1  1  0  0  0
 20 30  1  0  0  0  0
 21 28  1  6  0  0  0
 21 30  1  0  0  0  0
 21 22  1  0  0  0  0
 22 27  1  0  0  0  0
 22 23  1  0  0  0  0
 23 19  1  0  0  0  0
 24 25  1  0  0  0  0
 26 24  2  0  0  0  0
 27 23  1  0  0  0  0
 27 25  1  0  0  0  0
 29 28  1  0  0  0  0
 29 20  1  0  0  0  0
 30 24  1  0  0  0  0
 31 33  2  0  0  0  0
 33 32  1  0  0  0  0
 34 38  1  0  0  0  0
 36 32  1  0  0  0  0
 36 34  1  0  0  0  0
 36 38  1  0  0  0  0
 37 36  1  0  0  0  0
 38 35  2  0  0  0  0
 39 34  1  0  0  0  0
 41 39  1  0  0  0  0
 41 40  2  0  0  0  0
 43 42  1  0  0  0  0
 44 43  1  0  0  0  0
 45 46  2  0  0  0  0
 46 47  1  0  0  0  0
 46 44  1  0  0  0  0
 48 47  1  0  0  0  0
 49 48  1  0  0  0  0
 50 55  1  0  0  0  0
 51 53  1  0  0  0  0
 51 50  1  0  0  0  0
 52 49  1  0  0  0  0
 53 52  1  0  0  0  0
 54 50  1  0  0  0  0
 55 49  1  0  0  0  0
 56 57  1  0  0  0  0
 56 58  1  0  0  0  0
 57 58  1  0  0  0  0
 58 50  1  0  0  0  0
M  END
>  <MODEL>
8

>  <REMARK>
 VINA RESULT:      -6.3      1.094      1.762
  Name = 
  19 active torsions:
  status: ('A' for Active; 'I' for Inactive)
    1  A    between atoms: N_1  and  N_6
    2  A    between atoms: N_1  and  C_57
    3  A    between atoms: C_2  and  C_46
    4  A    between atoms: C_3  and  C_5
    5  A    between atoms: C_3  and  C_22
    6  A    between atoms: N_6  and  O_56
    7  A    between atoms: C_7  and  C_38
    8  A    between atoms: C_9  and  C_51
    9  A    between atoms: C_14  and  C_35
   10  A    between atoms: C_17  and  N_54
   11  A    between atoms: C_22  and  C_57
   12  A    between atoms: C_27  and  C_43
   13  A    between atoms: C_28  and  C_43
   14  A    between atoms: C_30  and  N_42
   15  A    between atoms: C_32  and  C_35
   16  A    between atoms: C_37  and  C_39
   17  A    between atoms: C_37  and  O_45
   18  A    between atoms: C_38  and  C_49
   19  A    between atoms: C_43  and  O_56
                            x       y       z     vdW  Elec       q    Type
                         _______ _______ _______ _____ _____    ______ ____

>  <TORSDO>
F 19

$$$$
=
 OpenBabel10222418243D

 58 65  0  0  1  0  0  0  0  0999 V2000
  191.0940  176.9750  140.7390 C   0  0  2  0  0  3  0  0  0  0  0  0
  192.4830  176.3760  138.7500 C   0  0  1  0  0  3  0  0  0  0  0  0
  194.3770  176.0240  140.0070 N   0  0  0  0  0  1  0  0  0  0  0  0
  193.8100  176.8920  139.0630 N   0  0  0  0  0  0  0  0  0  0  0  0
  191.7800  177.5010  139.4830 C   0  0  2  0  0  3  0  0  0  0  0  0
  193.1800  177.9760  139.8070 C   0  0  0  0  0  2  0  0  0  0  0  0
  192.2130  176.4940  137.2570 C   0  0  0  0  0  2  0  0  0  0  0  0
  190.2260  176.0800  135.7940 C   0  0  0  0  0  3  0  0  0  0  0  0
  190.7190  174.5070  137.5710 C   0  0  0  0  0  3  0  0  0  0  0  0
  189.0980  175.3290  135.4430 C   0  0  0  0  0  3  0  0  0  0  0  0
  188.7770  174.1710  136.1610 C   0  0  0  0  0  0  0  0  0  0  0  0
  189.5930  173.7560  137.2180 C   0  0  0  0  0  3  0  0  0  0  0  0
  191.0320  175.6740  136.8630 C   0  0  0  0  0  0  0  0  0  0  0  0
  187.5700  173.3760  135.7940 C   0  0  0  0  0  2  0  0  0  0  0  0
  186.9330  171.4300  134.9740 C   0  0  0  0  0  1  0  0  0  0  0  0
  187.8990  172.4270  134.8230 O   0  0  0  0  0  0  0  0  0  0  0  0
  189.6360  176.7390  140.4900 C   0  0  0  0  0  0  0  0  0  0  0  0
  188.9410  176.1000  141.3290 O   0  0  0  0  0  0  0  0  0  0  0  0
  189.0480  177.2310  139.2890 N   0  0  0  0  0  2  0  0  0  0  0  0
  183.2660  178.1600  139.2120 C   0  0  2  0  0  3  0  0  0  0  0  0
  185.5500  178.4490  139.4580 C   0  0  1  0  0  3  0  0  0  0  0  0
  187.0000  178.4630  138.9220 C   0  0  1  0  0  3  0  0  0  0  0  0
  187.6310  177.0860  139.0100 C   0  0  1  0  0  3  0  0  0  0  0  0
  184.8650  177.3870  137.3570 C   0  0  0  0  0  0  0  0  0  0  0  0
  186.2020  176.8520  136.9910 C   0  0  0  0  0  2  0  0  0  0  0  0
  184.0990  177.7730  136.4870 O   0  0  0  0  0  0  0  0  0  0  0  0
  187.3260  177.6700  137.6360 C   0  0  1  0  0  3  0  0  0  0  0  0
  185.0100  179.7540  139.4430 O   0  0  0  0  0  0  0  0  0  0  0  0
  183.6220  179.6280  139.2140 C   0  0  0  0  0  2  0  0  0  0  0  0
  184.5590  177.4830  138.8290 C   0  0  2  0  0  3  0  0  0  0  0  0
  181.4500  178.6800  137.7560 O   0  0  0  0  0  0  0  0  0  0  0  0
  181.5760  176.4350  138.3890 N   0  0  0  0  0  2  0  0  0  0  0  0
  182.0510  177.7860  138.4110 C   0  0  0  0  0  0  0  0  0  0  0  0
  180.4430  174.7830  136.9700 C   0  0  2  0  0  3  0  0  0  0  0  0
  180.6080  176.6950  135.0990 O   0  0  0  0  0  0  0  0  0  0  0  0
  180.3800  176.0370  137.6620 C   0  0  1  0  0  0  0  0  0  0  0  0
  179.1540  176.4810  138.1610 O   0  0  0  0  0  1  0  0  0  0  0  0
  180.5170  176.0900  136.1510 C   0  0  0  0  0  0  0  0  0  0  0  0
  179.0820  174.1380  136.7540 C   0  0  0  0  0  2  0  0  0  0  0  0
  180.1530  172.6190  135.3000 O   0  0  0  0  0  0  0  0  0  0  0  0
  179.2340  172.8160  136.0790 C   0  0  0  0  0  3  0  0  0  0  0  0
  191.2580  177.8870  141.7860 O   0  0  0  0  0  0  0  0  0  0  0  0
  191.6090  177.1320  142.8560 N   0  0  0  0  0  2  0  0  0  0  0  0
  190.5340  177.1680  143.7550 N   0  0  0  0  0  2  0  0  0  0  0  0
  191.7330  176.3430  145.6750 C   0  0  0  0  0  2  0  0  0  0  0  0
  190.7130  177.0360  145.1700 C   0  0  0  0  0  0  0  0  0  0  0  0
  189.7220  177.6510  146.0930 C   0  0  0  0  0  2  0  0  0  0  0  0
  188.5120  178.1390  145.3110 C   0  0  0  0  0  2  0  0  0  0  0  0
  187.2120  177.4410  145.7120 C   0  0  1  0  0  3  0  0  0  0  0  0
  185.0730  178.7730  145.3710 C   0  0  1  0  0  0  0  0  0  0  0  0
  184.9240  178.6000  146.7690 O   0  0  0  0  0  0  0  0  0  0  0  0
  186.9260  177.5030  147.0960 O   0  0  0  0  0  0  0  0  0  0  0  0
  186.2010  178.6820  147.3540 C   0  0  0  0  0  2  0  0  0  0  0  0
  185.5790  180.0330  145.0920 F   0  0  0  0  0  0  0  0  0  0  0  0
  186.0080  177.7040  144.7920 C   0  0  0  0  0  2  0  0  0  0  0  0
  183.4140  179.7910  143.9070 O   0  0  0  0  0  0  0  0  0  0  0  0
  183.8770  178.6840  143.1740 C   0  0  0  0  0  2  0  0  0  0  0  0
  183.7260  178.6340  144.6470 C   0  0  1  0  0  3  0  0  0  0  0  0
  1 17  1  6  0  0  0
  1 42  1  0  0  0  0
  2  7  1  6  0  0  0
  2  4  1  0  0  0  0
  2  5  1  0  0  0  0
  4  6  1  0  0  0  0
  4  3  1  0  0  0  0
  5  6  1  0  0  0  0
  5  1  1  1  0  0  0
  8 13  1  0  0  0  0
 10  8  2  0  0  0  0
 10 11  1  0  0  0  0
 11 12  2  0  0  0  0
 12  9  1  0  0  0  0
 13  7  1  0  0  0  0
 13  9  2  0  0  0  0
 14 11  1  0  0  0  0
 16 15  1  0  0  0  0
 16 14  1  0  0  0  0
 17 18  2  0  0  0  0
 19 17  1  0  0  0  0
 20 33  1  6  0  0  0
 20 29  1  0  0  0  0
 21 28  1  6  0  0  0
 22 23  1  0  0  0  0
 22 21  1  0  0  0  0
 23 19  1  0  0  0  0
 24 30  1  0  0  0  0
 25 24  1  0  0  0  0
 25 27  1  0  0  0  0
 26 24  2  0  0  0  0
 27 22  1  0  0  0  0
 27 23  1  0  0  0  0
 29 28  1  0  0  0  0
 30 20  1  0  0  0  0
 30 21  1  0  0  0  0
 31 33  2  0  0  0  0
 32 33  1  0  0  0  0
 34 36  1  0  0  0  0
 35 38  2  0  0  0  0
 36 37  1  0  0  0  0
 36 32  1  0  0  0  0
 38 34  1  0  0  0  0
 38 36  1  0  0  0  0
 39 34  1  0  0  0  0
 40 41  2  0  0  0  0
 41 39  1  0  0  0  0
 42 43  1  0  0  0  0
 43 44  1  0  0  0  0
 44 46  1  0  0  0  0
 46 45  2  0  0  0  0
 46 47  1  0  0  0  0
 48 49  1  0  0  0  0
 48 47  1  0  0  0  0
 49 52  1  0  0  0  0
 50 51  1  0  0  0  0
 51 53  1  0  0  0  0
 52 53  1  0  0  0  0
 54 50  1  0  0  0  0
 55 50  1  0  0  0  0
 55 49  1  0  0  0  0
 56 58  1  0  0  0  0
 57 56  1  0  0  0  0
 57 58  1  0  0  0  0
 58 50  1  0  0  0  0
M  END
>  <MODEL>
9

>  <REMARK>
 VINA RESULT:      -6.2      3.480     10.549
  Name = 
  19 active torsions:
  status: ('A' for Active; 'I' for Inactive)
    1  A    between atoms: N_1  and  N_6
    2  A    between atoms: N_1  and  C_57
    3  A    between atoms: C_2  and  C_46
    4  A    between atoms: C_3  and  C_5
    5  A    between atoms: C_3  and  C_22
    6  A    between atoms: N_6  and  O_56
    7  A    between atoms: C_7  and  C_38
    8  A    between atoms: C_9  and  C_51
    9  A    between atoms: C_14  and  C_35
   10  A    between atoms: C_17  and  N_54
   11  A    between atoms: C_22  and  C_57
   12  A    between atoms: C_27  and  C_43
   13  A    between atoms: C_28  and  C_43
   14  A    between atoms: C_30  and  N_42
   15  A    between atoms: C_32  and  C_35
   16  A    between atoms: C_37  and  C_39
   17  A    between atoms: C_37  and  O_45
   18  A    between atoms: C_38  and  C_49
   19  A    between atoms: C_43  and  O_56
                            x       y       z     vdW  Elec       q    Type
                         _______ _______ _______ _____ _____    ______ ____

>  <TORSDO>
F 19

$$$$
