=
 OpenBabel10222418483D

 29 31  0  0  1  0  0  0  0  0999 V2000
  189.9800  176.9600  144.7980 C   0  0  0  0  0  0  0  0  0  0  0  0
  192.1010  176.8750  147.8060 N   0  0  0  0  0  1  0  0  0  0  0  0
  189.6850  177.1160  147.5720 C   0  0  0  0  0  3  0  0  0  0  0  0
  191.0570  176.8790  145.6370 N   0  0  0  0  0  0  0  0  0  0  0  0
  188.6890  177.1110  145.3660 C   0  0  0  0  0  0  0  0  0  0  0  0
  190.9410  176.9610  146.9870 C   0  0  0  0  0  0  0  0  0  0  0  0
  188.5590  177.1870  146.7540 C   0  0  0  0  0  3  0  0  0  0  0  0
  189.7020  175.5850  142.8700 O   0  0  0  0  0  1  0  0  0  0  0  0
  190.1920  176.8250  143.2980 C   0  0  2  0  0  0  0  0  0  0  0  0
  191.6680  176.9110  143.0220 C   0  0  0  0  0  3  0  0  0  0  0  0
  192.0910  177.2800  141.9360 O   0  0  0  0  0  0  0  0  0  0  0  0
  189.4480  177.9380  142.5420 C   0  0  0  0  0  2  0  0  0  0  0  0
  187.8090  178.4320  140.8760 C   0  0  0  0  0  2  0  0  0  0  0  0
  188.8600  177.6320  140.1860 N   0  0  0  0  0  0  0  0  0  0  0  0
  188.3910  177.4020  141.5850 C   0  0  1  0  0  3  0  0  0  0  0  0
  189.6920  177.3340  139.0710 C   0  0  0  0  0  0  0  0  0  0  0  0
  190.5530  176.4200  139.1570 O   0  0  0  0  0  0  0  0  0  0  0  0
  189.5320  178.0900  137.8000 C   0  0  0  0  0  2  0  0  0  0  0  0
  189.0790  179.3810  138.0780 O   0  0  0  0  0  1  0  0  0  0  0  0
  187.4460  177.1260  144.5350 C   0  0  0  0  0  2  0  0  0  0  0  0
  186.5800  178.2150  144.9650 N   0  0  0  0  0  2  0  0  0  0  0  0
  182.9420  178.9950  144.6870 C   0  0  0  0  0  3  0  0  0  0  0  0
  185.0930  178.3930  143.0070 C   0  0  0  0  0  3  0  0  0  0  0  0
  182.7510  178.9250  143.3030 C   0  0  0  0  0  3  0  0  0  0  0  0
  184.3810  178.8290  146.6110 O   0  0  0  0  0  1  0  0  0  0  0  0
  183.8260  178.6240  142.4640 C   0  0  0  0  0  0  0  0  0  0  0  0
  183.6210  178.5360  140.9950 C   0  0  0  0  0  1  0  0  0  0  0  0
  184.2090  178.7660  145.2340 C   0  0  0  0  0  0  0  0  0  0  0  0
  185.2920  178.4600  144.3950 C   0  0  0  0  0  0  0  0  0  0  0  0
  1  5  2  0  0  0  0
  1  4  1  0  0  0  0
  4  6  2  0  0  0  0
  5  7  1  0  0  0  0
  6  3  1  0  0  0  0
  6  2  1  0  0  0  0
  7  3  2  0  0  0  0
  9  8  1  6  0  0  0
  9  1  1  0  0  0  0
 10  9  1  0  0  0  0
 11 10  2  0  0  0  0
 12  9  1  0  0  0  0
 13 15  1  0  0  0  0
 14 13  1  0  0  0  0
 14 15  1  0  0  0  0
 15 12  1  1  0  0  0
 16 17  2  0  0  0  0
 16 14  1  0  0  0  0
 18 19  1  0  0  0  0
 18 16  1  0  0  0  0
 20 21  1  0  0  0  0
 20  5  1  0  0  0  0
 22 28  1  0  0  0  0
 23 29  1  0  0  0  0
 24 22  2  0  0  0  0
 26 23  2  0  0  0  0
 26 24  1  0  0  0  0
 27 26  1  0  0  0  0
 28 25  1  0  0  0  0
 29 21  1  0  0  0  0
 29 28  2  0  0  0  0
M  END
>  <MODEL>
1

>  <REMARK>
 VINA RESULT:      -9.3      0.000      0.000
  Name = 
  8 active torsions:
  status: ('A' for Active; 'I' for Inactive)
    1  A    between atoms: C_2  and  C_25
    2  A    between atoms: C_8  and  C_25
    3  A    between atoms: C_11  and  C_17
    4  A    between atoms: C_12  and  C_27
    5  A    between atoms: C_14  and  C_22
    6  A    between atoms: C_21  and  N_24
    7  A    between atoms: C_22  and  C_25
    8  A    between atoms: N_24  and  C_27
                            x       y       z     vdW  Elec       q    Type
                         _______ _______ _______ _____ _____    ______ ____

>  <TORSDO>
F 8

$$$$
=
 OpenBabel10222418483D

 29 31  0  0  1  0  0  0  0  0999 V2000
  187.0800  177.9500  143.2150 C   0  0  0  0  0  0  0  0  0  0  0  0
  183.5650  178.5550  144.1270 N   0  0  0  0  0  1  0  0  0  0  0  0
  184.7650  178.9910  142.0490 C   0  0  0  0  0  3  0  0  0  0  0  0
  185.8990  178.0080  143.9010 N   0  0  0  0  0  0  0  0  0  0  0  0
  187.1110  178.4190  141.8770 C   0  0  0  0  0  0  0  0  0  0  0  0
  184.7630  178.5180  143.3600 C   0  0  0  0  0  0  0  0  0  0  0  0
  185.9450  178.9350  141.3090 C   0  0  0  0  0  3  0  0  0  0  0  0
  189.3850  178.2100  143.7700 O   0  0  0  0  0  1  0  0  0  0  0  0
  188.3000  177.3330  143.8820 C   0  0  2  0  0  0  0  0  0  0  0  0
  188.6160  176.0400  143.1800 C   0  0  0  0  0  3  0  0  0  0  0  0
  189.7690  175.7090  142.9490 O   0  0  0  0  0  0  0  0  0  0  0  0
  188.0280  177.0700  145.3730 C   0  0  0  0  0  2  0  0  0  0  0  0
  188.9250  177.3750  147.5670 C   0  0  0  0  0  2  0  0  0  0  0  0
  190.0930  177.0820  146.6890 N   0  0  0  0  0  0  0  0  0  0  0  0
  188.9110  177.9040  146.2930 C   0  0  1  0  0  3  0  0  0  0  0  0
  191.3480  176.4680  146.4190 C   0  0  0  0  0  0  0  0  0  0  0  0
  191.8670  176.5760  145.2780 O   0  0  0  0  0  0  0  0  0  0  0  0
  192.0530  175.7150  147.4910 C   0  0  0  0  0  2  0  0  0  0  0  0
  192.6680  176.6120  148.3650 O   0  0  0  0  0  1  0  0  0  0  0  0
  188.3330  178.3200  141.0220 C   0  0  0  0  0  2  0  0  0  0  0  0
  187.9810  178.5630  139.6300 N   0  0  0  0  0  2  0  0  0  0  0  0
  189.0760  177.8250  136.1400 C   0  0  0  0  0  3  0  0  0  0  0  0
  189.6780  177.0100  138.7450 C   0  0  0  0  0  3  0  0  0  0  0  0
  190.0560  176.8530  136.3600 C   0  0  0  0  0  3  0  0  0  0  0  0
  187.4160  179.3510  136.9870 O   0  0  0  0  0  1  0  0  0  0  0  0
  190.3570  176.4460  137.6620 C   0  0  0  0  0  0  0  0  0  0  0  0
  191.3890  175.4020  137.8950 C   0  0  0  0  0  1  0  0  0  0  0  0
  188.3950  178.3930  137.2220 C   0  0  0  0  0  0  0  0  0  0  0  0
  188.6910  177.9860  138.5320 C   0  0  0  0  0  0  0  0  0  0  0  0
  1  9  1  0  0  0  0
  1  4  1  0  0  0  0
  3  6  1  0  0  0  0
  5  1  2  0  0  0  0
  6  4  2  0  0  0  0
  6  2  1  0  0  0  0
  7  5  1  0  0  0  0
  7  3  2  0  0  0  0
  9  8  1  6  0  0  0
  9 12  1  0  0  0  0
 10  9  1  0  0  0  0
 11 10  2  0  0  0  0
 14 13  1  0  0  0  0
 15 12  1  6  0  0  0
 15 14  1  0  0  0  0
 15 13  1  0  0  0  0
 16 14  1  0  0  0  0
 16 18  1  0  0  0  0
 17 16  2  0  0  0  0
 18 19  1  0  0  0  0
 20  5  1  0  0  0  0
 21 20  1  0  0  0  0
 22 24  2  0  0  0  0
 22 28  1  0  0  0  0
 24 26  1  0  0  0  0
 25 28  1  0  0  0  0
 26 27  1  0  0  0  0
 26 23  2  0  0  0  0
 28 29  2  0  0  0  0
 29 23  1  0  0  0  0
 29 21  1  0  0  0  0
M  END
>  <MODEL>
2

>  <REMARK>
 VINA RESULT:      -8.6      2.033      7.117
  Name = 
  8 active torsions:
  status: ('A' for Active; 'I' for Inactive)
    1  A    between atoms: C_2  and  C_25
    2  A    between atoms: C_8  and  C_25
    3  A    between atoms: C_11  and  C_17
    4  A    between atoms: C_12  and  C_27
    5  A    between atoms: C_14  and  C_22
    6  A    between atoms: C_21  and  N_24
    7  A    between atoms: C_22  and  C_25
    8  A    between atoms: N_24  and  C_27
                            x       y       z     vdW  Elec       q    Type
                         _______ _______ _______ _____ _____    ______ ____

>  <TORSDO>
F 8

$$$$
=
 OpenBabel10222418483D

 29 31  0  0  1  0  0  0  0  0999 V2000
  189.3830  177.3830  141.1150 C   0  0  0  0  0  0  0  0  0  0  0  0
  190.5700  176.0760  137.8850 N   0  0  0  0  0  1  0  0  0  0  0  0
  188.5970  177.3990  138.4340 C   0  0  0  0  0  3  0  0  0  0  0  0
  190.1240  176.7600  140.1490 N   0  0  0  0  0  0  0  0  0  0  0  0
  188.2000  178.0620  140.7290 C   0  0  0  0  0  0  0  0  0  0  0  0
  189.7580  176.7460  138.8420 C   0  0  0  0  0  0  0  0  0  0  0  0
  187.8210  178.0610  139.3850 C   0  0  0  0  0  3  0  0  0  0  0  0
  190.2950  178.6730  142.9020 O   0  0  0  0  0  1  0  0  0  0  0  0
  189.8800  177.3820  142.5530 C   0  0  2  0  0  0  0  0  0  0  0  0
  191.0420  176.4320  142.6470 C   0  0  0  0  0  3  0  0  0  0  0  0
  190.9400  175.3590  143.2230 O   0  0  0  0  0  0  0  0  0  0  0  0
  188.7620  176.9450  143.5130 C   0  0  0  0  0  2  0  0  0  0  0  0
  188.1810  177.0830  145.8260 C   0  0  0  0  0  2  0  0  0  0  0  0
  189.6570  177.2780  145.7670 N   0  0  0  0  0  0  0  0  0  0  0  0
  188.6840  177.8070  144.7660 C   0  0  1  0  0  3  0  0  0  0  0  0
  190.9770  177.0830  146.2600 C   0  0  0  0  0  0  0  0  0  0  0  0
  191.9610  177.5280  145.6140 O   0  0  0  0  0  0  0  0  0  0  0  0
  191.1930  176.3690  147.5480 C   0  0  0  0  0  2  0  0  0  0  0  0
  192.5350  176.0050  147.6610 O   0  0  0  0  0  1  0  0  0  0  0  0
  187.3690  178.8400  141.6990 C   0  0  0  0  0  2  0  0  0  0  0  0
  185.9610  178.5250  141.5050 N   0  0  0  0  0  2  0  0  0  0  0  0
  182.6750  178.8990  143.2320 C   0  0  0  0  0  3  0  0  0  0  0  0
  185.3690  178.5660  143.8970 C   0  0  0  0  0  3  0  0  0  0  0  0
  183.0620  178.8420  144.5740 C   0  0  0  0  0  3  0  0  0  0  0  0
  183.2340  178.8570  140.8890 O   0  0  0  0  0  1  0  0  0  0  0  0
  184.4080  178.6750  144.9060 C   0  0  0  0  0  0  0  0  0  0  0  0
  184.8220  178.6290  146.3330 C   0  0  0  0  0  1  0  0  0  0  0  0
  183.6330  178.7890  142.2190 C   0  0  0  0  0  0  0  0  0  0  0  0
  184.9880  178.6240  142.5470 C   0  0  0  0  0  0  0  0  0  0  0  0
  1  9  1  0  0  0  0
  2  6  1  0  0  0  0
  3  6  2  0  0  0  0
  3  7  1  0  0  0  0
  4  1  2  0  0  0  0
  5  1  1  0  0  0  0
  5 20  1  0  0  0  0
  6  4  1  0  0  0  0
  7  5  2  0  0  0  0
  9 10  1  0  0  0  0
  9  8  1  1  0  0  0
  9 12  1  0  0  0  0
 10 11  2  0  0  0  0
 14 13  1  0  0  0  0
 14 16  1  0  0  0  0
 15 12  1  6  0  0  0
 15 14  1  0  0  0  0
 15 13  1  0  0  0  0
 16 18  1  0  0  0  0
 17 16  2  0  0  0  0
 18 19  1  0  0  0  0
 21 20  1  0  0  0  0
 21 29  1  0  0  0  0
 22 24  1  0  0  0  0
 23 26  1  0  0  0  0
 24 26  2  0  0  0  0
 25 28  1  0  0  0  0
 26 27  1  0  0  0  0
 28 29  1  0  0  0  0
 28 22  2  0  0  0  0
 29 23  2  0  0  0  0
M  END
>  <MODEL>
3

>  <REMARK>
 VINA RESULT:      -8.4      2.104      5.548
  Name = 
  8 active torsions:
  status: ('A' for Active; 'I' for Inactive)
    1  A    between atoms: C_2  and  C_25
    2  A    between atoms: C_8  and  C_25
    3  A    between atoms: C_11  and  C_17
    4  A    between atoms: C_12  and  C_27
    5  A    between atoms: C_14  and  C_22
    6  A    between atoms: C_21  and  N_24
    7  A    between atoms: C_22  and  C_25
    8  A    between atoms: N_24  and  C_27
                            x       y       z     vdW  Elec       q    Type
                         _______ _______ _______ _____ _____    ______ ____

>  <TORSDO>
F 8

$$$$
=
 OpenBabel10222418483D

 29 31  0  0  1  0  0  0  0  0999 V2000
  189.4550  177.0440  141.1610 C   0  0  0  0  0  0  0  0  0  0  0  0
  191.2550  175.4830  138.3550 N   0  0  0  0  0  1  0  0  0  0  0  0
  189.3880  177.0520  138.3690 C   0  0  0  0  0  3  0  0  0  0  0  0
  190.3340  176.3000  140.4230 N   0  0  0  0  0  0  0  0  0  0  0  0
  188.5040  177.8430  140.4790 C   0  0  0  0  0  0  0  0  0  0  0  0
  190.3160  176.2810  139.0660 C   0  0  0  0  0  0  0  0  0  0  0  0
  188.4840  177.8370  139.0820 C   0  0  0  0  0  3  0  0  0  0  0  0
  189.9550  178.3060  143.1220 O   0  0  0  0  0  1  0  0  0  0  0  0
  189.5630  177.0370  142.6790 C   0  0  2  0  0  0  0  0  0  0  0  0
  190.5990  176.0190  143.0710 C   0  0  0  0  0  3  0  0  0  0  0  0
  191.6130  176.3440  143.6720 O   0  0  0  0  0  0  0  0  0  0  0  0
  188.2100  176.6850  143.3180 C   0  0  0  0  0  2  0  0  0  0  0  0
  186.6970  177.2730  145.0710 C   0  0  0  0  0  2  0  0  0  0  0  0
  188.0610  177.3760  145.6620 N   0  0  0  0  0  0  0  0  0  0  0  0
  187.7020  177.7640  144.2650 C   0  0  1  0  0  3  0  0  0  0  0  0
  188.9940  177.2060  146.7220 C   0  0  0  0  0  0  0  0  0  0  0  0
  190.2100  177.4750  146.5380 O   0  0  0  0  0  0  0  0  0  0  0  0
  188.5300  176.7290  148.0520 C   0  0  0  0  0  2  0  0  0  0  0  0
  187.8800  177.7670  148.7200 O   0  0  0  0  0  1  0  0  0  0  0  0
  187.5570  178.7510  141.1970 C   0  0  0  0  0  2  0  0  0  0  0  0
  186.3300  178.8910  140.4260 N   0  0  0  0  0  2  0  0  0  0  0  0
  182.6240  178.5990  140.7460 C   0  0  0  0  0  3  0  0  0  0  0  0
  184.8560  178.8960  142.4020 C   0  0  0  0  0  3  0  0  0  0  0  0
  182.4600  178.6830  142.1320 C   0  0  0  0  0  3  0  0  0  0  0  0
  184.0490  178.5880  138.8040 O   0  0  0  0  0  1  0  0  0  0  0  0
  183.5760  178.8310  142.9600 C   0  0  0  0  0  0  0  0  0  0  0  0
  183.4010  178.9340  144.4320 C   0  0  0  0  0  1  0  0  0  0  0  0
  183.9030  178.6630  140.1840 C   0  0  0  0  0  0  0  0  0  0  0  0
  185.0270  178.8150  141.0110 C   0  0  0  0  0  0  0  0  0  0  0  0
  1  9  1  0  0  0  0
  2  6  1  0  0  0  0
  3  6  2  0  0  0  0
  3  7  1  0  0  0  0
  4  1  2  0  0  0  0
  5  1  1  0  0  0  0
  5 20  1  0  0  0  0
  6  4  1  0  0  0  0
  7  5  2  0  0  0  0
  9 10  1  0  0  0  0
  9  8  1  1  0  0  0
  9 12  1  0  0  0  0
 10 11  2  0  0  0  0
 13 14  1  0  0  0  0
 14 16  1  0  0  0  0
 15 12  1  6  0  0  0
 15 13  1  0  0  0  0
 15 14  1  0  0  0  0
 16 18  1  0  0  0  0
 17 16  2  0  0  0  0
 18 19  1  0  0  0  0
 21 29  1  0  0  0  0
 21 20  1  0  0  0  0
 22 24  1  0  0  0  0
 23 26  1  0  0  0  0
 24 26  2  0  0  0  0
 25 28  1  0  0  0  0
 26 27  1  0  0  0  0
 28 22  2  0  0  0  0
 28 29  1  0  0  0  0
 29 23  2  0  0  0  0
M  END
>  <MODEL>
4

>  <REMARK>
 VINA RESULT:      -8.3      2.182      5.712
  Name = 
  8 active torsions:
  status: ('A' for Active; 'I' for Inactive)
    1  A    between atoms: C_2  and  C_25
    2  A    between atoms: C_8  and  C_25
    3  A    between atoms: C_11  and  C_17
    4  A    between atoms: C_12  and  C_27
    5  A    between atoms: C_14  and  C_22
    6  A    between atoms: C_21  and  N_24
    7  A    between atoms: C_22  and  C_25
    8  A    between atoms: N_24  and  C_27
                            x       y       z     vdW  Elec       q    Type
                         _______ _______ _______ _____ _____    ______ ____

>  <TORSDO>
F 8

$$$$
=
 OpenBabel10222418483D

 29 31  0  0  1  0  0  0  0  0999 V2000
  190.3550  177.1870  144.6670 C   0  0  0  0  0  0  0  0  0  0  0  0
  192.6520  175.2610  146.8030 N   0  0  0  0  0  1  0  0  0  0  0  0
  190.7000  176.6050  147.3770 C   0  0  0  0  0  3  0  0  0  0  0  0
  191.3750  176.3870  145.1020 N   0  0  0  0  0  0  0  0  0  0  0  0
  189.4510  177.7130  145.6250 C   0  0  0  0  0  0  0  0  0  0  0  0
  191.5690  176.0970  146.4130 C   0  0  0  0  0  0  0  0  0  0  0  0
  189.6370  177.4120  146.9750 C   0  0  0  0  0  3  0  0  0  0  0  0
  190.0590  178.8110  142.9460 O   0  0  0  0  0  1  0  0  0  0  0  0
  190.1860  177.4360  143.1760 C   0  0  2  0  0  0  0  0  0  0  0  0
  188.9410  176.7270  142.7190 C   0  0  0  0  0  3  0  0  0  0  0  0
  188.7460  175.5500  142.9850 O   0  0  0  0  0  0  0  0  0  0  0  0
  191.4060  176.9150  142.3970 C   0  0  0  0  0  2  0  0  0  0  0  0
  192.7180  177.1740  140.4180 C   0  0  0  0  0  2  0  0  0  0  0  0
  191.3020  177.1020  139.9580 N   0  0  0  0  0  0  0  0  0  0  0  0
  191.7640  177.7880  141.2020 C   0  0  1  0  0  3  0  0  0  0  0  0
  190.2860  176.6800  139.0560 C   0  0  0  0  0  0  0  0  0  0  0  0
  189.0800  176.9380  139.3020 O   0  0  0  0  0  0  0  0  0  0  0  0
  190.6530  175.9500  137.8130 C   0  0  0  0  0  2  0  0  0  0  0  0
  191.0990  174.6680  138.1380 O   0  0  0  0  0  1  0  0  0  0  0  0
  188.2590  178.5290  145.2380 C   0  0  0  0  0  2  0  0  0  0  0  0
  187.0460  177.7440  145.4170 N   0  0  0  0  0  2  0  0  0  0  0  0
  183.5350  178.9860  145.1870 C   0  0  0  0  0  3  0  0  0  0  0  0
  185.5250  177.9950  143.4930 C   0  0  0  0  0  3  0  0  0  0  0  0
  183.2860  178.8540  143.8180 C   0  0  0  0  0  3  0  0  0  0  0  0
  185.0090  178.7510  147.0780 O   0  0  0  0  0  1  0  0  0  0  0  0
  184.2810  178.3600  142.9710 C   0  0  0  0  0  0  0  0  0  0  0  0
  184.0120  178.2060  141.5180 C   0  0  0  0  0  1  0  0  0  0  0  0
  184.7790  178.6240  145.7130 C   0  0  0  0  0  0  0  0  0  0  0  0
  185.7820  178.1230  144.8680 C   0  0  0  0  0  0  0  0  0  0  0  0
  1  4  2  0  0  0  0
  1  5  1  0  0  0  0
  4  6  1  0  0  0  0
  5  7  2  0  0  0  0
  6  2  1  0  0  0  0
  6  3  2  0  0  0  0
  7  3  1  0  0  0  0
  9  8  1  6  0  0  0
  9  1  1  0  0  0  0
 10 11  2  0  0  0  0
 10  9  1  0  0  0  0
 12  9  1  0  0  0  0
 13 15  1  0  0  0  0
 14 13  1  0  0  0  0
 14 15  1  0  0  0  0
 15 12  1  1  0  0  0
 16 17  2  0  0  0  0
 16 14  1  0  0  0  0
 18 19  1  0  0  0  0
 18 16  1  0  0  0  0
 20 21  1  0  0  0  0
 20  5  1  0  0  0  0
 22 28  1  0  0  0  0
 23 29  1  0  0  0  0
 24 22  2  0  0  0  0
 26 23  2  0  0  0  0
 26 24  1  0  0  0  0
 27 26  1  0  0  0  0
 28 25  1  0  0  0  0
 29 21  1  0  0  0  0
 29 28  2  0  0  0  0
M  END
>  <MODEL>
5

>  <REMARK>
 VINA RESULT:      -8.3      1.406      2.166
  Name = 
  8 active torsions:
  status: ('A' for Active; 'I' for Inactive)
    1  A    between atoms: C_2  and  C_25
    2  A    between atoms: C_8  and  C_25
    3  A    between atoms: C_11  and  C_17
    4  A    between atoms: C_12  and  C_27
    5  A    between atoms: C_14  and  C_22
    6  A    between atoms: C_21  and  N_24
    7  A    between atoms: C_22  and  C_25
    8  A    between atoms: N_24  and  C_27
                            x       y       z     vdW  Elec       q    Type
                         _______ _______ _______ _____ _____    ______ ____

>  <TORSDO>
F 8

$$$$
=
 OpenBabel10222418483D

 29 31  0  0  1  0  0  0  0  0999 V2000
  184.1570  178.8090  142.4160 C   0  0  0  0  0  0  0  0  0  0  0  0
  180.5170  178.4700  141.9860 N   0  0  0  0  0  1  0  0  0  0  0  0
  181.8610  178.7180  144.0050 C   0  0  0  0  0  3  0  0  0  0  0  0
  182.9130  178.6730  141.8660 N   0  0  0  0  0  0  0  0  0  0  0  0
  184.2670  178.9210  143.8250 C   0  0  0  0  0  0  0  0  0  0  0  0
  181.7830  178.6170  142.6170 C   0  0  0  0  0  0  0  0  0  0  0  0
  183.1090  178.8740  144.6060 C   0  0  0  0  0  3  0  0  0  0  0  0
  186.0070  180.1300  141.6940 O   0  0  0  0  0  1  0  0  0  0  0  0
  185.3700  178.8980  141.5020 C   0  0  2  0  0  0  0  0  0  0  0  0
  184.8960  178.7870  140.0790 C   0  0  0  0  0  3  0  0  0  0  0  0
  184.9550  179.7380  139.3140 O   0  0  0  0  0  0  0  0  0  0  0  0
  186.3690  177.7720  141.8150 C   0  0  0  0  0  2  0  0  0  0  0  0
  188.6810  177.1890  141.9680 C   0  0  0  0  0  2  0  0  0  0  0  0
  188.5080  177.8130  140.6250 N   0  0  0  0  0  0  0  0  0  0  0  0
  187.8120  178.2560  141.8700 C   0  0  1  0  0  3  0  0  0  0  0  0
  188.7720  177.9020  139.2300 C   0  0  0  0  0  0  0  0  0  0  0  0
  188.1660  178.7520  138.5290 O   0  0  0  0  0  0  0  0  0  0  0  0
  189.7780  177.0010  138.6050 C   0  0  0  0  0  2  0  0  0  0  0  0
  190.1740  177.5260  137.3750 O   0  0  0  0  0  1  0  0  0  0  0  0
  185.5750  179.1550  144.5110 C   0  0  0  0  0  2  0  0  0  0  0  0
  186.0520  177.9110  145.0980 N   0  0  0  0  0  2  0  0  0  0  0  0
  187.8990  178.2850  148.3180 C   0  0  0  0  0  3  0  0  0  0  0  0
  188.3680  177.3480  145.7280 C   0  0  0  0  0  3  0  0  0  0  0  0
  189.1560  177.7800  147.9750 C   0  0  0  0  0  3  0  0  0  0  0  0
  185.6320  178.8380  147.7220 O   0  0  0  0  0  1  0  0  0  0  0  0
  189.3900  177.3110  146.6800 C   0  0  0  0  0  0  0  0  0  0  0  0
  190.7310  176.7860  146.3100 C   0  0  0  0  0  1  0  0  0  0  0  0
  186.8730  178.3230  147.3690 C   0  0  0  0  0  0  0  0  0  0  0  0
  187.1040  177.8560  146.0650 C   0  0  0  0  0  0  0  0  0  0  0  0
  1  5  1  0  0  0  0
  2  6  1  0  0  0  0
  3  7  1  0  0  0  0
  4  1  2  0  0  0  0
  4  6  1  0  0  0  0
  5 20  1  0  0  0  0
  5  7  2  0  0  0  0
  6  3  2  0  0  0  0
  9  8  1  1  0  0  0
  9 12  1  0  0  0  0
  9  1  1  0  0  0  0
 10  9  1  0  0  0  0
 11 10  2  0  0  0  0
 14 15  1  0  0  0  0
 14 13  1  0  0  0  0
 15 12  1  6  0  0  0
 15 13  1  0  0  0  0
 16 14  1  0  0  0  0
 17 16  2  0  0  0  0
 18 16  1  0  0  0  0
 19 18  1  0  0  0  0
 20 21  1  0  0  0  0
 21 29  1  0  0  0  0
 23 29  2  0  0  0  0
 23 26  1  0  0  0  0
 24 22  1  0  0  0  0
 26 24  2  0  0  0  0
 27 26  1  0  0  0  0
 28 25  1  0  0  0  0
 28 22  2  0  0  0  0
 29 28  1  0  0  0  0
M  END
>  <MODEL>
6

>  <REMARK>
 VINA RESULT:      -8.2      2.429      6.012
  Name = 
  8 active torsions:
  status: ('A' for Active; 'I' for Inactive)
    1  A    between atoms: C_2  and  C_25
    2  A    between atoms: C_8  and  C_25
    3  A    between atoms: C_11  and  C_17
    4  A    between atoms: C_12  and  C_27
    5  A    between atoms: C_14  and  C_22
    6  A    between atoms: C_21  and  N_24
    7  A    between atoms: C_22  and  C_25
    8  A    between atoms: N_24  and  C_27
                            x       y       z     vdW  Elec       q    Type
                         _______ _______ _______ _____ _____    ______ ____

>  <TORSDO>
F 8

$$$$
=
 OpenBabel10222418483D

 29 31  0  0  1  0  0  0  0  0999 V2000
  187.0700  178.2630  141.3510 C   0  0  0  0  0  0  0  0  0  0  0  0
  184.3410  179.8690  139.4720 N   0  0  0  0  0  1  0  0  0  0  0  0
  184.3510  178.8170  141.6720 C   0  0  0  0  0  3  0  0  0  0  0  0
  186.3550  178.9160  140.3850 N   0  0  0  0  0  0  0  0  0  0  0  0
  186.4050  177.8780  142.5430 C   0  0  0  0  0  0  0  0  0  0  0  0
  185.0320  179.1890  140.5140 C   0  0  0  0  0  0  0  0  0  0  0  0
  185.0460  178.1640  142.6880 C   0  0  0  0  0  3  0  0  0  0  0  0
  188.8130  176.6490  141.1390 O   0  0  0  0  0  1  0  0  0  0  0  0
  188.5580  178.0250  141.1430 C   0  0  2  0  0  0  0  0  0  0  0  0
  189.3010  178.6760  142.2780 C   0  0  0  0  0  3  0  0  0  0  0  0
  190.3090  178.1720  142.7490 O   0  0  0  0  0  0  0  0  0  0  0  0
  189.0200  178.6180  139.8020 C   0  0  0  0  0  2  0  0  0  0  0  0
  189.2110  178.2570  137.4480 C   0  0  0  0  0  2  0  0  0  0  0  0
  190.0530  177.2070  138.0880 N   0  0  0  0  0  0  0  0  0  0  0  0
  188.7470  177.6970  138.6200 C   0  0  1  0  0  3  0  0  0  0  0  0
  191.2160  176.3910  138.1610 C   0  0  0  0  0  0  0  0  0  0  0  0
  191.3850  175.6240  139.1440 O   0  0  0  0  0  0  0  0  0  0  0  0
  192.2230  176.4320  137.0660 C   0  0  0  0  0  2  0  0  0  0  0  0
  193.4910  176.6540  137.6050 O   0  0  0  0  0  1  0  0  0  0  0  0
  187.1210  177.2340  143.6860 C   0  0  0  0  0  2  0  0  0  0  0  0
  186.6620  177.8100  144.9420 N   0  0  0  0  0  2  0  0  0  0  0  0
  187.7140  178.4350  148.4670 C   0  0  0  0  0  3  0  0  0  0  0  0
  188.7500  177.2830  146.1410 C   0  0  0  0  0  3  0  0  0  0  0  0
  189.0030  177.8920  148.4690 C   0  0  0  0  0  3  0  0  0  0  0  0
  185.6650  178.9550  147.3130 O   0  0  0  0  0  1  0  0  0  0  0  0
  189.5200  177.3160  147.3070 C   0  0  0  0  0  0  0  0  0  0  0  0
  190.8950  176.7510  147.3050 C   0  0  0  0  0  1  0  0  0  0  0  0
  186.9400  178.4030  147.3020 C   0  0  0  0  0  0  0  0  0  0  0  0
  187.4560  177.8270  146.1310 C   0  0  0  0  0  0  0  0  0  0  0  0
  1  5  1  0  0  0  0
  2  6  1  0  0  0  0
  3  7  1  0  0  0  0
  4  6  1  0  0  0  0
  4  1  2  0  0  0  0
  5  7  2  0  0  0  0
  5 20  1  0  0  0  0
  6  3  2  0  0  0  0
  9  8  1  1  0  0  0
  9  1  1  0  0  0  0
  9 10  1  0  0  0  0
 10 11  2  0  0  0  0
 12  9  1  0  0  0  0
 13 14  1  0  0  0  0
 13 15  1  0  0  0  0
 14 16  1  0  0  0  0
 14 15  1  0  0  0  0
 15 12  1  1  0  0  0
 16 17  2  0  0  0  0
 18 19  1  0  0  0  0
 18 16  1  0  0  0  0
 20 21  1  0  0  0  0
 21 29  1  0  0  0  0
 22 24  1  0  0  0  0
 23 26  1  0  0  0  0
 26 24  2  0  0  0  0
 27 26  1  0  0  0  0
 28 25  1  0  0  0  0
 28 22  2  0  0  0  0
 29 23  2  0  0  0  0
 29 28  1  0  0  0  0
M  END
>  <MODEL>
7

>  <REMARK>
 VINA RESULT:      -8.1      2.245      5.314
  Name = 
  8 active torsions:
  status: ('A' for Active; 'I' for Inactive)
    1  A    between atoms: C_2  and  C_25
    2  A    between atoms: C_8  and  C_25
    3  A    between atoms: C_11  and  C_17
    4  A    between atoms: C_12  and  C_27
    5  A    between atoms: C_14  and  C_22
    6  A    between atoms: C_21  and  N_24
    7  A    between atoms: C_22  and  C_25
    8  A    between atoms: N_24  and  C_27
                            x       y       z     vdW  Elec       q    Type
                         _______ _______ _______ _____ _____    ______ ____

>  <TORSDO>
F 8

$$$$
=
 OpenBabel10222418483D

 29 31  0  0  1  0  0  0  0  0999 V2000
  187.1640  178.3890  139.8970 C   0  0  0  0  0  0  0  0  0  0  0  0
  183.5790  179.1560  140.2380 N   0  0  0  0  0  1  0  0  0  0  0  0
  185.2810  178.7320  141.9320 C   0  0  0  0  0  3  0  0  0  0  0  0
  185.8580  178.6880  139.6200 N   0  0  0  0  0  0  0  0  0  0  0  0
  187.5580  178.2690  141.2530 C   0  0  0  0  0  0  0  0  0  0  0  0
  184.9230  178.8500  140.5900 C   0  0  0  0  0  0  0  0  0  0  0  0
  186.6060  178.4440  142.2590 C   0  0  0  0  0  3  0  0  0  0  0  0
  189.0600  179.3260  138.7950 O   0  0  0  0  0  1  0  0  0  0  0  0
  188.1570  178.2570  138.7520 C   0  0  2  0  0  0  0  0  0  0  0  0
  187.3900  178.2910  137.4580 C   0  0  0  0  0  3  0  0  0  0  0  0
  187.4030  179.2780  136.7380 O   0  0  0  0  0  0  0  0  0  0  0  0
  188.9430  176.9400  138.8650 C   0  0  0  0  0  2  0  0  0  0  0  0
  191.1890  176.1280  138.8180 C   0  0  0  0  0  2  0  0  0  0  0  0
  190.5830  175.7190  137.5190 N   0  0  0  0  0  0  0  0  0  0  0  0
  190.3190  177.0130  138.2160 C   0  0  1  0  0  3  0  0  0  0  0  0
  190.3820  174.7980  136.4530 C   0  0  0  0  0  0  0  0  0  0  0  0
  189.5690  175.0710  135.5330 O   0  0  0  0  0  0  0  0  0  0  0  0
  191.1460  173.5220  136.4190 C   0  0  0  0  0  2  0  0  0  0  0  0
  190.5590  172.6510  135.5010 O   0  0  0  0  0  1  0  0  0  0  0  0
  188.9780  178.0270  141.6560 C   0  0  0  0  0  2  0  0  0  0  0  0
  189.0500  176.8650  142.5300 N   0  0  0  0  0  2  0  0  0  0  0  0
  191.3980  176.8170  145.4290 C   0  0  0  0  0  3  0  0  0  0  0  0
  188.6630  177.1320  144.9500 C   0  0  0  0  0  3  0  0  0  0  0  0
  190.5200  177.0210  146.4980 C   0  0  0  0  0  3  0  0  0  0  0  0
  191.7960  176.5570  143.0680 O   0  0  0  0  0  1  0  0  0  0  0  0
  189.1520  177.1790  146.2580 C   0  0  0  0  0  0  0  0  0  0  0  0
  188.2160  177.3820  147.3940 C   0  0  0  0  0  1  0  0  0  0  0  0
  190.9120  176.7710  144.1190 C   0  0  0  0  0  0  0  0  0  0  0  0
  189.5390  176.9260  143.8720 C   0  0  0  0  0  0  0  0  0  0  0  0
  1  5  1  0  0  0  0
  2  6  1  0  0  0  0
  3  7  1  0  0  0  0
  4  1  2  0  0  0  0
  4  6  1  0  0  0  0
  5 20  1  0  0  0  0
  5  7  2  0  0  0  0
  6  3  2  0  0  0  0
  9  8  1  1  0  0  0
  9 12  1  0  0  0  0
  9  1  1  0  0  0  0
 10  9  1  0  0  0  0
 11 10  2  0  0  0  0
 14 15  1  0  0  0  0
 14 13  1  0  0  0  0
 15 13  1  0  0  0  0
 15 12  1  1  0  0  0
 16 14  1  0  0  0  0
 17 16  2  0  0  0  0
 18 16  1  0  0  0  0
 19 18  1  0  0  0  0
 20 21  1  0  0  0  0
 21 29  1  0  0  0  0
 22 24  1  0  0  0  0
 23 26  1  0  0  0  0
 25 28  1  0  0  0  0
 26 24  2  0  0  0  0
 26 27  1  0  0  0  0
 28 22  2  0  0  0  0
 29 28  1  0  0  0  0
 29 23  2  0  0  0  0
M  END
>  <MODEL>
8

>  <REMARK>
 VINA RESULT:      -7.7      2.757      6.425
  Name = 
  8 active torsions:
  status: ('A' for Active; 'I' for Inactive)
    1  A    between atoms: C_2  and  C_25
    2  A    between atoms: C_8  and  C_25
    3  A    between atoms: C_11  and  C_17
    4  A    between atoms: C_12  and  C_27
    5  A    between atoms: C_14  and  C_22
    6  A    between atoms: C_21  and  N_24
    7  A    between atoms: C_22  and  C_25
    8  A    between atoms: N_24  and  C_27
                            x       y       z     vdW  Elec       q    Type
                         _______ _______ _______ _____ _____    ______ ____

>  <TORSDO>
F 8

$$$$
=
 OpenBabel10222418483D

 29 31  0  0  1  0  0  0  0  0999 V2000
  187.5140  178.2530  139.6260 C   0  0  0  0  0  0  0  0  0  0  0  0
  184.0520  179.1400  138.7420 N   0  0  0  0  0  1  0  0  0  0  0  0
  185.1510  179.0030  140.9140 C   0  0  0  0  0  3  0  0  0  0  0  0
  186.3710  178.5210  138.9240 N   0  0  0  0  0  0  0  0  0  0  0  0
  187.4870  178.3780  141.0380 C   0  0  0  0  0  0  0  0  0  0  0  0
  185.2090  178.8780  139.5270 C   0  0  0  0  0  0  0  0  0  0  0  0
  186.2980  178.7550  141.6670 C   0  0  0  0  0  3  0  0  0  0  0  0
  189.8980  178.2390  139.6450 O   0  0  0  0  0  1  0  0  0  0  0  0
  188.7840  177.8920  138.8710 C   0  0  2  0  0  0  0  0  0  0  0  0
  188.8000  178.6650  137.5810 C   0  0  0  0  0  3  0  0  0  0  0  0
  189.0560  179.8590  137.5590 O   0  0  0  0  0  0  0  0  0  0  0  0
  188.8330  176.3820  138.5820 C   0  0  0  0  0  2  0  0  0  0  0  0
  188.8350  174.7080  136.8780 C   0  0  0  0  0  2  0  0  0  0  0  0
  187.4270  175.1860  136.9740 N   0  0  0  0  0  0  0  0  0  0  0  0
  188.6350  176.0530  137.1080 C   0  0  1  0  0  3  0  0  0  0  0  0
  186.0190  174.9770  136.9750 C   0  0  0  0  0  0  0  0  0  0  0  0
  185.2420  175.9400  137.2050 O   0  0  0  0  0  0  0  0  0  0  0  0
  185.4680  173.6270  136.6850 C   0  0  0  0  0  2  0  0  0  0  0  0
  185.3580  172.9020  137.8730 O   0  0  0  0  0  1  0  0  0  0  0  0
  188.7050  178.1860  141.8820 C   0  0  0  0  0  2  0  0  0  0  0  0
  188.4920  177.0850  142.8110 N   0  0  0  0  0  2  0  0  0  0  0  0
  189.5910  177.1430  146.3770 C   0  0  0  0  0  3  0  0  0  0  0  0
  187.2910  177.6780  144.8810 C   0  0  0  0  0  3  0  0  0  0  0  0
  188.4210  177.5620  147.0180 C   0  0  0  0  0  3  0  0  0  0  0  0
  190.7820  176.5640  144.3640 O   0  0  0  0  0  1  0  0  0  0  0  0
  187.2720  177.8300  146.2700 C   0  0  0  0  0  0  0  0  0  0  0  0
  186.0250  178.2620  146.9530 C   0  0  0  0  0  1  0  0  0  0  0  0
  189.6150  176.9910  144.9870 C   0  0  0  0  0  0  0  0  0  0  0  0
  188.4620  177.2560  144.2310 C   0  0  0  0  0  0  0  0  0  0  0  0
  1  5  1  0  0  0  0
  2  6  1  0  0  0  0
  3  7  1  0  0  0  0
  4  6  1  0  0  0  0
  4  1  2  0  0  0  0
  5  7  2  0  0  0  0
  5 20  1  0  0  0  0
  6  3  2  0  0  0  0
  9  1  1  0  0  0  0
  9  8  1  1  0  0  0
 10  9  1  0  0  0  0
 11 10  2  0  0  0  0
 12  9  1  0  0  0  0
 13 14  1  0  0  0  0
 13 15  1  0  0  0  0
 14 16  1  0  0  0  0
 14 15  1  0  0  0  0
 15 12  1  1  0  0  0
 16 17  2  0  0  0  0
 18 16  1  0  0  0  0
 18 19  1  0  0  0  0
 20 21  1  0  0  0  0
 21 29  1  0  0  0  0
 22 24  1  0  0  0  0
 23 26  1  0  0  0  0
 25 28  1  0  0  0  0
 26 27  1  0  0  0  0
 26 24  2  0  0  0  0
 28 22  2  0  0  0  0
 29 23  2  0  0  0  0
 29 28  1  0  0  0  0
M  END
>  <MODEL>
9

>  <REMARK>
 VINA RESULT:      -7.6      2.911      6.206
  Name = 
  8 active torsions:
  status: ('A' for Active; 'I' for Inactive)
    1  A    between atoms: C_2  and  C_25
    2  A    between atoms: C_8  and  C_25
    3  A    between atoms: C_11  and  C_17
    4  A    between atoms: C_12  and  C_27
    5  A    between atoms: C_14  and  C_22
    6  A    between atoms: C_21  and  N_24
    7  A    between atoms: C_22  and  C_25
    8  A    between atoms: N_24  and  C_27
                            x       y       z     vdW  Elec       q    Type
                         _______ _______ _______ _____ _____    ______ ____

>  <TORSDO>
F 8

$$$$
