=
 OpenBabel10222421233D

 39 41  0  0  1  0  0  0  0  0999 V2000
  187.1880  178.6240  141.0560 C   0  0  0  0  0  3  0  0  0  0  0  0
  187.2030  178.5220  139.7710 N   0  0  0  0  0  0  0  0  0  0  0  0
  189.2990  177.1920  139.8200 C   0  0  0  0  0  0  0  0  0  0  0  0
  191.2110  175.8950  138.5980 C   0  0  0  0  0  3  0  0  0  0  0  0
  189.4450  177.6280  141.2630 C   0  0  1  0  0  3  0  0  0  0  0  0
  188.0680  177.7640  141.9120 C   0  0  0  0  0  2  0  0  0  0  0  0
  188.0520  177.5780  139.0460 C   0  0  2  0  0  3  0  0  0  0  0  0
  190.2580  176.5380  139.2110 C   0  0  0  0  0  0  0  0  0  0  0  0
  190.3260  176.7170  142.0800 C   0  0  0  0  0  0  0  0  0  0  0  0
  190.3790  175.4850  141.8150 O   0  0  0  0  0  0  0  0  0  0  0  0
  191.1580  177.2430  143.1160 N   0  0  0  0  0  2  0  0  0  0  0  0
  191.2090  178.6620  143.4310 C   0  0  0  0  0  2  0  0  0  0  0  0
  190.3820  178.9450  144.6700 C   0  0  0  0  0  2  0  0  0  0  0  0
  190.0360  177.6460  145.3790 C   0  0  0  0  0  2  0  0  0  0  0  0
  188.8110  177.8340  146.2620 C   0  0  0  0  0  2  0  0  0  0  0  0
  187.5400  177.3760  145.5580 C   0  0  0  0  0  2  0  0  0  0  0  0
  185.7820  178.6420  146.7490 C   0  0  0  0  0  2  0  0  0  0  0  0
  185.5890  178.2270  144.4570 O   0  0  0  0  0  0  0  0  0  0  0  0
  184.3870  178.7560  146.3930 N   0  0  0  0  0  2  0  0  0  0  0  0
  186.5310  178.5100  145.4520 C   0  0  2  0  0  3  0  0  0  0  0  0
  184.3860  178.7680  144.9380 C   0  0  0  0  0  2  0  0  0  0  0  0
  188.3830  178.0750  137.7000 N   0  0  0  0  0  0  0  0  0  0  0  0
  189.0050  179.3960  137.7720 C   0  0  0  0  0  1  0  0  0  0  0  0
  187.1530  178.1950  136.9310 C   0  0  0  0  0  2  0  0  0  0  0  0
  187.3580  177.6200  135.5440 C   0  0  0  0  0  2  0  0  0  0  0  0
  186.1200  177.0230  135.0730 N   0  0  0  0  0  2  0  0  0  0  0  0
  186.3560  175.6450  134.9580 N   0  0  0  0  0  2  0  0  0  0  0  0
  184.5190  172.7000  137.2850 C   0  0  0  0  0  2  0  0  0  0  0  0
  185.9680  173.0790  137.5750 C   0  0  0  0  0  2  0  0  0  0  0  0
  183.7080  173.9100  136.8290 C   0  0  1  0  0  3  0  0  0  0  0  0
  188.0040  174.1900  136.7450 C   0  0  0  0  0  1  0  0  0  0  0  0
  183.4280  174.8560  137.9850 C   0  0  0  0  0  1  0  0  0  0  0  0
  185.7880  175.0320  136.0880 N   0  0  0  0  0  0  0  0  0  0  0  0
  184.4330  174.6340  135.6940 C   0  0  0  0  0  2  0  0  0  0  0  0
  186.5740  173.8230  136.3850 C   0  0  2  0  0  3  0  0  0  0  0  0
  191.2460  176.1650  136.1610 C   0  0  0  0  0  1  0  0  0  0  0  0
  191.9270  176.5400  137.4650 C   0  0  2  0  0  3  0  0  0  0  0  0
  193.9420  176.2530  138.7120 O   0  0  0  0  0  1  0  0  0  0  0  0
  193.3720  176.0750  137.4510 C   0  0  0  0  0  2  0  0  0  0  0  0
  1  6  1  0  0  0  0
  2  1  2  0  0  0  0
  3  5  1  0  0  0  0
  4  8  2  0  0  0  0
  5  6  1  0  0  0  0
  5  9  1  1  0  0  0
  7 22  1  6  0  0  0
  7  2  1  0  0  0  0
  7  3  1  0  0  0  0
  8  3  2  0  0  0  0
  9 11  1  0  0  0  0
 10  9  2  0  0  0  0
 11 12  1  0  0  0  0
 12 13  1  0  0  0  0
 13 14  1  0  0  0  0
 14 15  1  0  0  0  0
 16 15  1  0  0  0  0
 18 21  1  0  0  0  0
 18 20  1  0  0  0  0
 19 17  1  0  0  0  0
 20 16  1  1  0  0  0
 20 17  1  0  0  0  0
 21 19  1  0  0  0  0
 22 23  1  0  0  0  0
 24 22  1  0  0  0  0
 25 24  1  0  0  0  0
 26 25  1  0  0  0  0
 27 26  1  0  0  0  0
 27 33  1  0  0  0  0
 28 29  1  0  0  0  0
 30 28  1  0  0  0  0
 30 32  1  1  0  0  0
 33 35  1  0  0  0  0
 34 33  1  0  0  0  0
 34 30  1  0  0  0  0
 35 31  1  1  0  0  0
 35 29  1  0  0  0  0
 37 36  1  6  0  0  0
 37  4  1  0  0  0  0
 39 37  1  0  0  0  0
 39 38  1  0  0  0  0
M  END
>  <MODEL>
1

>  <REMARK>
 VINA RESULT:      -6.9      0.000      0.000
  Name = 
  15 active torsions:
  status: ('A' for Active; 'I' for Inactive)
    1  A    between atoms: C_2  and  C_22
    2  A    between atoms: C_2  and  C_27
    3  A    between atoms: C_7  and  C_25
    4  A    between atoms: C_12  and  N_16
    5  A    between atoms: C_12  and  C_28
    6  A    between atoms: C_13  and  C_21
    7  A    between atoms: N_16  and  C_38
    8  A    between atoms: N_19  and  N_30
    9  A    between atoms: N_19  and  N_35
   10  A    between atoms: N_20  and  C_31
   11  A    between atoms: C_21  and  C_22
   12  A    between atoms: C_24  and  C_26
   13  A    between atoms: C_26  and  C_36
   14  A    between atoms: C_27  and  C_31
   15  A    between atoms: C_28  and  N_35
                            x       y       z     vdW  Elec       q    Type
                         _______ _______ _______ _____ _____    ______ ____

>  <TORSDO>
F 15

$$$$
=
 OpenBabel10222421233D

 39 41  0  0  1  0  0  0  0  0999 V2000
  187.2510  178.5880  141.0190 C   0  0  0  0  0  3  0  0  0  0  0  0
  187.2710  178.4700  139.7350 N   0  0  0  0  0  0  0  0  0  0  0  0
  189.3780  177.1590  139.8060 C   0  0  0  0  0  0  0  0  0  0  0  0
  191.3030  175.8630  138.6040 C   0  0  0  0  0  3  0  0  0  0  0  0
  189.5160  177.6140  141.2440 C   0  0  1  0  0  3  0  0  0  0  0  0
  188.1370  177.7460  141.8880 C   0  0  0  0  0  2  0  0  0  0  0  0
  188.1290  177.5250  139.0250 C   0  0  2  0  0  3  0  0  0  0  0  0
  190.3430  176.5060  139.2070 C   0  0  0  0  0  0  0  0  0  0  0  0
  190.4020  176.7200  142.0750 C   0  0  0  0  0  0  0  0  0  0  0  0
  190.4920  175.4920  141.8050 O   0  0  0  0  0  0  0  0  0  0  0  0
  191.2010  177.2610  143.1300 N   0  0  0  0  0  2  0  0  0  0  0  0
  191.2100  178.6790  143.4530 C   0  0  0  0  0  2  0  0  0  0  0  0
  190.4480  178.9190  144.7420 C   0  0  0  0  0  2  0  0  0  0  0  0
  189.9240  177.6050  145.2950 C   0  0  0  0  0  2  0  0  0  0  0  0
  188.7070  177.8480  146.1760 C   0  0  0  0  0  2  0  0  0  0  0  0
  187.4240  177.3900  145.4940 C   0  0  0  0  0  2  0  0  0  0  0  0
  185.6740  178.7040  146.6450 C   0  0  0  0  0  2  0  0  0  0  0  0
  185.4990  178.2530  144.3590 O   0  0  0  0  0  0  0  0  0  0  0  0
  184.2850  178.8320  146.2720 N   0  0  0  0  0  2  0  0  0  0  0  0
  186.4340  178.5370  145.3580 C   0  0  2  0  0  3  0  0  0  0  0  0
  184.2990  178.8200  144.8180 C   0  0  0  0  0  2  0  0  0  0  0  0
  188.4600  178.0090  137.6730 N   0  0  0  0  0  0  0  0  0  0  0  0
  189.0420  179.3480  137.7290 C   0  0  0  0  0  1  0  0  0  0  0  0
  187.2350  178.0790  136.8900 C   0  0  0  0  0  2  0  0  0  0  0  0
  186.8660  176.6950  136.3920 C   0  0  0  0  0  2  0  0  0  0  0  0
  185.4870  176.4000  136.7400 N   0  0  0  0  0  2  0  0  0  0  0  0
  184.8640  177.6310  136.9950 N   0  0  0  0  0  2  0  0  0  0  0  0
  182.1860  175.9860  139.7490 C   0  0  0  0  0  2  0  0  0  0  0  0
  182.4530  177.4880  139.7780 C   0  0  0  0  0  2  0  0  0  0  0  0
  182.2240  175.4420  138.3230 C   0  0  1  0  0  3  0  0  0  0  0  0
  183.9340  179.3240  139.0680 C   0  0  0  0  0  1  0  0  0  0  0  0
  180.9970  175.8680  137.5350 C   0  0  0  0  0  1  0  0  0  0  0  0
  183.6400  177.3510  137.6270 N   0  0  0  0  0  0  0  0  0  0  0  0
  183.5070  175.8910  137.6210 C   0  0  0  0  0  2  0  0  0  0  0  0
  183.7390  177.8170  139.0200 C   0  0  2  0  0  3  0  0  0  0  0  0
  191.3480  176.0970  136.1640 C   0  0  0  0  0  1  0  0  0  0  0  0
  192.0160  176.5000  137.4660 C   0  0  2  0  0  3  0  0  0  0  0  0
  194.0240  176.2410  138.7320 O   0  0  0  0  0  1  0  0  0  0  0  0
  193.4670  176.0530  137.4660 C   0  0  0  0  0  2  0  0  0  0  0  0
  1  6  1  0  0  0  0
  2  1  2  0  0  0  0
  3  5  1  0  0  0  0
  4  8  2  0  0  0  0
  5  6  1  0  0  0  0
  5  9  1  1  0  0  0
  7 22  1  6  0  0  0
  7  2  1  0  0  0  0
  7  3  1  0  0  0  0
  8  3  2  0  0  0  0
  9 11  1  0  0  0  0
 10  9  2  0  0  0  0
 11 12  1  0  0  0  0
 12 13  1  0  0  0  0
 13 14  1  0  0  0  0
 14 15  1  0  0  0  0
 16 15  1  0  0  0  0
 18 21  1  0  0  0  0
 18 20  1  0  0  0  0
 19 17  1  0  0  0  0
 20 16  1  1  0  0  0
 20 17  1  0  0  0  0
 21 19  1  0  0  0  0
 22 23  1  0  0  0  0
 24 22  1  0  0  0  0
 25 26  1  0  0  0  0
 25 24  1  0  0  0  0
 26 27  1  0  0  0  0
 27 33  1  0  0  0  0
 28 29  1  0  0  0  0
 30 32  1  6  0  0  0
 30 28  1  0  0  0  0
 33 35  1  0  0  0  0
 34 33  1  0  0  0  0
 34 30  1  0  0  0  0
 35 31  1  6  0  0  0
 35 29  1  0  0  0  0
 37 36  1  6  0  0  0
 37  4  1  0  0  0  0
 39 37  1  0  0  0  0
 39 38  1  0  0  0  0
M  END
>  <MODEL>
2

>  <REMARK>
 VINA RESULT:      -6.9      1.385      2.188
  Name = 
  15 active torsions:
  status: ('A' for Active; 'I' for Inactive)
    1  A    between atoms: C_2  and  C_22
    2  A    between atoms: C_2  and  C_27
    3  A    between atoms: C_7  and  C_25
    4  A    between atoms: C_12  and  N_16
    5  A    between atoms: C_12  and  C_28
    6  A    between atoms: C_13  and  C_21
    7  A    between atoms: N_16  and  C_38
    8  A    between atoms: N_19  and  N_30
    9  A    between atoms: N_19  and  N_35
   10  A    between atoms: N_20  and  C_31
   11  A    between atoms: C_21  and  C_22
   12  A    between atoms: C_24  and  C_26
   13  A    between atoms: C_26  and  C_36
   14  A    between atoms: C_27  and  C_31
   15  A    between atoms: C_28  and  N_35
                            x       y       z     vdW  Elec       q    Type
                         _______ _______ _______ _____ _____    ______ ____

>  <TORSDO>
F 15

$$$$
=
 OpenBabel10222421233D

 39 41  0  0  1  0  0  0  0  0999 V2000
  186.4650  178.5200  142.4400 C   0  0  0  0  0  3  0  0  0  0  0  0
  187.5470  177.8470  142.6410 N   0  0  0  0  0  0  0  0  0  0  0  0
  187.1260  177.7430  145.0850 C   0  0  0  0  0  0  0  0  0  0  0  0
  187.8140  176.9900  147.4920 C   0  0  0  0  0  3  0  0  0  0  0  0
  186.0800  178.8170  144.8680 C   0  0  1  0  0  3  0  0  0  0  0  0
  185.4150  178.6330  143.5050 C   0  0  0  0  0  2  0  0  0  0  0  0
  187.8400  177.1430  143.8870 C   0  0  2  0  0  3  0  0  0  0  0  0
  187.4660  177.3640  146.2930 C   0  0  0  0  0  0  0  0  0  0  0  0
  185.0400  178.8730  145.9590 C   0  0  0  0  0  0  0  0  0  0  0  0
  185.3940  179.0040  147.1620 O   0  0  0  0  0  0  0  0  0  0  0  0
  183.6470  178.8470  145.6410 N   0  0  0  0  0  2  0  0  0  0  0  0
  183.1610  178.7740  144.2710 C   0  0  0  0  0  2  0  0  0  0  0  0
  181.6450  178.7330  144.2640 C   0  0  0  0  0  2  0  0  0  0  0  0
  181.1230  178.8320  142.8410 C   0  0  0  0  0  2  0  0  0  0  0  0
  182.2660  178.6940  141.8460 C   0  0  0  0  0  2  0  0  0  0  0  0
  181.8270  177.9510  140.5910 C   0  0  0  0  0  2  0  0  0  0  0  0
  183.8330  178.8400  139.4520 C   0  0  0  0  0  2  0  0  0  0  0  0
  181.7660  179.8990  139.1960 O   0  0  0  0  0  0  0  0  0  0  0  0
  184.0790  180.2030  139.0430 N   0  0  0  0  0  2  0  0  0  0  0  0
  182.3480  178.6350  139.3360 C   0  0  2  0  0  3  0  0  0  0  0  0
  182.7740  180.6990  138.6370 C   0  0  0  0  0  2  0  0  0  0  0  0
  189.2920  177.0410  144.1200 N   0  0  0  0  0  0  0  0  0  0  0  0
  189.8980  178.3670  144.2080 C   0  0  0  0  0  1  0  0  0  0  0  0
  189.8950  176.3400  142.9950 C   0  0  0  0  0  2  0  0  0  0  0  0
  191.0400  177.1610  142.4350 C   0  0  0  0  0  2  0  0  0  0  0  0
  190.7940  177.4510  141.0330 N   0  0  0  0  0  2  0  0  0  0  0  0
  190.3220  176.2640  140.4530 N   0  0  0  0  0  2  0  0  0  0  0  0
  189.3050  178.5110  137.0800 C   0  0  0  0  0  2  0  0  0  0  0  0
  190.0190  177.1760  136.8950 C   0  0  0  0  0  2  0  0  0  0  0  0
  188.3500  178.4710  138.2710 C   0  0  1  0  0  3  0  0  0  0  0  0
  191.3450  175.3930  137.9590 C   0  0  0  0  0  1  0  0  0  0  0  0
  187.1170  177.6390  137.9640 C   0  0  0  0  0  1  0  0  0  0  0  0
  189.6590  176.6190  139.2660 N   0  0  0  0  0  0  0  0  0  0  0  0
  189.0740  177.9410  139.5100 C   0  0  0  0  0  2  0  0  0  0  0  0
  190.6730  176.7340  138.2040 C   0  0  2  0  0  3  0  0  0  0  0  0
  189.4430  178.7640  147.9550 C   0  0  0  0  0  1  0  0  0  0  0  0
  189.1910  177.2670  147.9810 C   0  0  2  0  0  3  0  0  0  0  0  0
  191.4920  176.9480  147.4270 O   0  0  0  0  0  1  0  0  0  0  0  0
  190.1950  176.5550  147.0920 C   0  0  0  0  0  2  0  0  0  0  0  0
  1  2  2  0  0  0  0
  1  6  1  0  0  0  0
  2  7  1  0  0  0  0
  3  8  2  0  0  0  0
  4 37  1  0  0  0  0
  5  3  1  0  0  0  0
  5  9  1  1  0  0  0
  6  5  1  0  0  0  0
  7 22  1  1  0  0  0
  7  3  1  0  0  0  0
  8  4  2  0  0  0  0
  9 10  2  0  0  0  0
 11  9  1  0  0  0  0
 12 11  1  0  0  0  0
 13 12  1  0  0  0  0
 14 13  1  0  0  0  0
 15 14  1  0  0  0  0
 16 15  1  0  0  0  0
 18 20  1  0  0  0  0
 19 17  1  0  0  0  0
 20 17  1  0  0  0  0
 20 16  1  1  0  0  0
 21 19  1  0  0  0  0
 21 18  1  0  0  0  0
 22 23  1  0  0  0  0
 24 22  1  0  0  0  0
 25 24  1  0  0  0  0
 26 25  1  0  0  0  0
 27 26  1  0  0  0  0
 28 30  1  0  0  0  0
 29 28  1  0  0  0  0
 29 35  1  0  0  0  0
 30 32  1  6  0  0  0
 30 34  1  0  0  0  0
 33 34  1  0  0  0  0
 33 27  1  0  0  0  0
 35 31  1  6  0  0  0
 35 33  1  0  0  0  0
 37 36  1  6  0  0  0
 39 38  1  0  0  0  0
 39 37  1  0  0  0  0
M  END
>  <MODEL>
3

>  <REMARK>
 VINA RESULT:      -6.7      3.309      7.283
  Name = 
  15 active torsions:
  status: ('A' for Active; 'I' for Inactive)
    1  A    between atoms: C_2  and  C_22
    2  A    between atoms: C_2  and  C_27
    3  A    between atoms: C_7  and  C_25
    4  A    between atoms: C_12  and  N_16
    5  A    between atoms: C_12  and  C_28
    6  A    between atoms: C_13  and  C_21
    7  A    between atoms: N_16  and  C_38
    8  A    between atoms: N_19  and  N_30
    9  A    between atoms: N_19  and  N_35
   10  A    between atoms: N_20  and  C_31
   11  A    between atoms: C_21  and  C_22
   12  A    between atoms: C_24  and  C_26
   13  A    between atoms: C_26  and  C_36
   14  A    between atoms: C_27  and  C_31
   15  A    between atoms: C_28  and  N_35
                            x       y       z     vdW  Elec       q    Type
                         _______ _______ _______ _____ _____    ______ ____

>  <TORSDO>
F 15

$$$$
=
 OpenBabel10222421233D

 39 41  0  0  1  0  0  0  0  0999 V2000
  186.6240  178.5020  141.2880 C   0  0  0  0  0  3  0  0  0  0  0  0
  187.7750  178.2380  141.8050 N   0  0  0  0  0  0  0  0  0  0  0  0
  188.7800  177.8430  139.5700 C   0  0  0  0  0  0  0  0  0  0  0  0
  190.8210  177.2210  138.0600 C   0  0  0  0  0  3  0  0  0  0  0  0
  187.3650  177.8040  139.0310 C   0  0  1  0  0  3  0  0  0  0  0  0
  186.4760  178.7650  139.8190 C   0  0  0  0  0  2  0  0  0  0  0  0
  189.0130  178.1790  141.0310 C   0  0  2  0  0  3  0  0  0  0  0  0
  189.8020  177.5350  138.8090 C   0  0  0  0  0  0  0  0  0  0  0  0
  187.2750  178.0940  137.5540 C   0  0  0  0  0  0  0  0  0  0  0  0
  187.6820  179.1980  137.1010 O   0  0  0  0  0  0  0  0  0  0  0  0
  186.7950  177.1020  136.6440 N   0  0  0  0  0  2  0  0  0  0  0  0
  186.3800  175.7780  137.0810 C   0  0  0  0  0  2  0  0  0  0  0  0
  185.3480  175.2190  136.1210 C   0  0  0  0  0  2  0  0  0  0  0  0
  183.9650  175.7410  136.4730 C   0  0  0  0  0  2  0  0  0  0  0  0
  183.8730  176.0350  137.9630 C   0  0  0  0  0  2  0  0  0  0  0  0
  183.2820  177.4140  138.2250 C   0  0  0  0  0  2  0  0  0  0  0  0
  181.4000  178.4940  139.4080 C   0  0  0  0  0  2  0  0  0  0  0  0
  183.2580  177.7290  140.6000 O   0  0  0  0  0  0  0  0  0  0  0  0
  181.4430  179.2030  140.6660 N   0  0  0  0  0  2  0  0  0  0  0  0
  182.4520  177.4240  139.4990 C   0  0  2  0  0  3  0  0  0  0  0  0
  182.4350  178.4840  141.4500 C   0  0  0  0  0  2  0  0  0  0  0  0
  189.9910  177.2640  141.6470 N   0  0  0  0  0  0  0  0  0  0  0  0
  189.3230  176.0890  142.2030 C   0  0  0  0  0  1  0  0  0  0  0  0
  190.6610  177.9620  142.7340 C   0  0  0  0  0  2  0  0  0  0  0  0
  190.4470  177.2100  144.0330 C   0  0  0  0  0  2  0  0  0  0  0  0
  189.7130  178.0460  144.9670 N   0  0  0  0  0  2  0  0  0  0  0  0
  188.7280  177.2330  145.5470 N   0  0  0  0  0  2  0  0  0  0  0  0
  184.8200  178.2670  146.6050 C   0  0  0  0  0  2  0  0  0  0  0  0
  185.9770  178.7460  147.4770 C   0  0  0  0  0  2  0  0  0  0  0  0
  185.2130  178.2300  145.1300 C   0  0  1  0  0  3  0  0  0  0  0  0
  188.3520  178.4700  148.0690 C   0  0  0  0  0  1  0  0  0  0  0  0
  185.3190  179.6300  144.5510 C   0  0  0  0  0  1  0  0  0  0  0  0
  187.6000  178.0420  145.7650 N   0  0  0  0  0  0  0  0  0  0  0  0
  186.5250  177.4640  144.9530 C   0  0  0  0  0  2  0  0  0  0  0  0
  187.2360  177.9300  147.1880 C   0  0  2  0  0  3  0  0  0  0  0  0
  193.0950  176.3610  138.3780 C   0  0  0  0  0  1  0  0  0  0  0  0
  191.6190  176.0060  138.3710 C   0  0  2  0  0  3  0  0  0  0  0  0
  190.2270  174.1910  137.6880 O   0  0  0  0  0  1  0  0  0  0  0  0
  191.3460  174.9410  137.3240 C   0  0  0  0  0  2  0  0  0  0  0  0
  1  2  2  0  0  0  0
  3  7  1  0  0  0  0
  4 37  1  0  0  0  0
  4  8  2  0  0  0  0
  5  9  1  6  0  0  0
  5  3  1  0  0  0  0
  5  6  1  0  0  0  0
  6  1  1  0  0  0  0
  7 22  1  1  0  0  0
  7  2  1  0  0  0  0
  8  3  2  0  0  0  0
 10  9  2  0  0  0  0
 11 12  1  0  0  0  0
 11  9  1  0  0  0  0
 13 14  1  0  0  0  0
 13 12  1  0  0  0  0
 14 15  1  0  0  0  0
 15 16  1  0  0  0  0
 17 20  1  0  0  0  0
 17 19  1  0  0  0  0
 18 21  1  0  0  0  0
 19 21  1  0  0  0  0
 20 16  1  6  0  0  0
 20 18  1  0  0  0  0
 22 23  1  0  0  0  0
 22 24  1  0  0  0  0
 24 25  1  0  0  0  0
 25 26  1  0  0  0  0
 26 27  1  0  0  0  0
 27 33  1  0  0  0  0
 28 29  1  0  0  0  0
 30 32  1  1  0  0  0
 30 28  1  0  0  0  0
 33 35  1  0  0  0  0
 34 30  1  0  0  0  0
 34 33  1  0  0  0  0
 35 29  1  0  0  0  0
 35 31  1  1  0  0  0
 37 36  1  6  0  0  0
 39 38  1  0  0  0  0
 39 37  1  0  0  0  0
M  END
>  <MODEL>
4

>  <REMARK>
 VINA RESULT:      -6.5      2.520      7.477
  Name = 
  15 active torsions:
  status: ('A' for Active; 'I' for Inactive)
    1  A    between atoms: C_2  and  C_22
    2  A    between atoms: C_2  and  C_27
    3  A    between atoms: C_7  and  C_25
    4  A    between atoms: C_12  and  N_16
    5  A    between atoms: C_12  and  C_28
    6  A    between atoms: C_13  and  C_21
    7  A    between atoms: N_16  and  C_38
    8  A    between atoms: N_19  and  N_30
    9  A    between atoms: N_19  and  N_35
   10  A    between atoms: N_20  and  C_31
   11  A    between atoms: C_21  and  C_22
   12  A    between atoms: C_24  and  C_26
   13  A    between atoms: C_26  and  C_36
   14  A    between atoms: C_27  and  C_31
   15  A    between atoms: C_28  and  N_35
                            x       y       z     vdW  Elec       q    Type
                         _______ _______ _______ _____ _____    ______ ____

>  <TORSDO>
F 15

$$$$
=
 OpenBabel10222421233D

 39 41  0  0  1  0  0  0  0  0999 V2000
  185.9860  178.4950  141.8940 C   0  0  0  0  0  3  0  0  0  0  0  0
  187.1240  177.9090  142.0500 N   0  0  0  0  0  0  0  0  0  0  0  0
  186.8850  177.9220  144.5210 C   0  0  0  0  0  0  0  0  0  0  0  0
  187.7930  177.3610  146.9060 C   0  0  0  0  0  3  0  0  0  0  0  0
  185.7530  178.9090  144.3240 C   0  0  1  0  0  3  0  0  0  0  0  0
  185.0080  178.6020  143.0260 C   0  0  0  0  0  2  0  0  0  0  0  0
  187.5540  177.3020  143.3070 C   0  0  2  0  0  3  0  0  0  0  0  0
  187.3360  177.6390  145.7180 C   0  0  0  0  0  0  0  0  0  0  0  0
  184.7920  178.9610  145.4850 C   0  0  0  0  0  0  0  0  0  0  0  0
  185.2290  179.0660  146.6620 O   0  0  0  0  0  0  0  0  0  0  0  0
  183.3800  178.9590  145.2630 N   0  0  0  0  0  2  0  0  0  0  0  0
  182.8000  178.9160  143.9290 C   0  0  0  0  0  2  0  0  0  0  0  0
  181.3060  178.6760  144.0250 C   0  0  0  0  0  2  0  0  0  0  0  0
  180.5730  179.5020  142.9810 C   0  0  0  0  0  2  0  0  0  0  0  0
  180.3650  178.6880  141.7120 C   0  0  0  0  0  2  0  0  0  0  0  0
  180.9200  179.4090  140.4900 C   0  0  0  0  0  2  0  0  0  0  0  0
  182.8130  179.5600  138.9070 C   0  0  0  0  0  2  0  0  0  0  0  0
  182.5370  177.6600  140.2390 O   0  0  0  0  0  0  0  0  0  0  0  0
  183.5200  178.4700  138.2770 N   0  0  0  0  0  2  0  0  0  0  0  0
  182.3780  179.0490  140.2520 C   0  0  2  0  0  3  0  0  0  0  0  0
  183.5410  177.4230  139.2860 C   0  0  0  0  0  2  0  0  0  0  0  0
  189.0210  177.3100  143.4360 N   0  0  0  0  0  0  0  0  0  0  0  0
  189.5750  178.5850  142.9860 C   0  0  0  0  0  1  0  0  0  0  0  0
  189.5690  176.2560  142.5940 C   0  0  0  0  0  2  0  0  0  0  0  0
  190.6140  176.8360  141.6620 C   0  0  0  0  0  2  0  0  0  0  0  0
  190.3860  176.3560  140.3100 N   0  0  0  0  0  2  0  0  0  0  0  0
  190.1960  177.4900  139.5070 N   0  0  0  0  0  2  0  0  0  0  0  0
  188.8350  174.9150  136.5100 C   0  0  0  0  0  2  0  0  0  0  0  0
  188.0330  176.1730  136.8300 C   0  0  0  0  0  2  0  0  0  0  0  0
  190.3340  175.1570  136.6690 C   0  0  1  0  0  3  0  0  0  0  0  0
  187.6180  177.9890  138.4420 C   0  0  0  0  0  1  0  0  0  0  0  0
  190.8780  176.0180  135.5420 C   0  0  0  0  0  1  0  0  0  0  0  0
  189.8750  177.0340  138.2170 N   0  0  0  0  0  0  0  0  0  0  0  0
  190.6260  175.7890  138.0300 C   0  0  0  0  0  2  0  0  0  0  0  0
  188.4340  176.7300  138.1950 C   0  0  2  0  0  3  0  0  0  0  0  0
  190.1040  176.5650  147.1100 C   0  0  0  0  0  1  0  0  0  0  0  0
  189.1780  177.7570  147.2760 C   0  0  2  0  0  3  0  0  0  0  0  0
  187.9250  178.1240  149.2740 O   0  0  0  0  0  1  0  0  0  0  0  0
  189.1990  178.2360  148.7160 C   0  0  0  0  0  2  0  0  0  0  0  0
  1  2  2  0  0  0  0
  1  6  1  0  0  0  0
  2  7  1  0  0  0  0
  3  8  2  0  0  0  0
  4 37  1  0  0  0  0
  5  3  1  0  0  0  0
  5  9  1  1  0  0  0
  6  5  1  0  0  0  0
  7 22  1  1  0  0  0
  7  3  1  0  0  0  0
  8  4  2  0  0  0  0
  9 10  2  0  0  0  0
 11  9  1  0  0  0  0
 12 13  1  0  0  0  0
 12 11  1  0  0  0  0
 14 13  1  0  0  0  0
 15 14  1  0  0  0  0
 16 15  1  0  0  0  0
 17 20  1  0  0  0  0
 18 20  1  0  0  0  0
 19 17  1  0  0  0  0
 19 21  1  0  0  0  0
 20 16  1  6  0  0  0
 21 18  1  0  0  0  0
 23 22  1  0  0  0  0
 24 22  1  0  0  0  0
 25 24  1  0  0  0  0
 26 25  1  0  0  0  0
 27 26  1  0  0  0  0
 28 30  1  0  0  0  0
 28 29  1  0  0  0  0
 29 35  1  0  0  0  0
 30 32  1  6  0  0  0
 30 34  1  0  0  0  0
 33 27  1  0  0  0  0
 34 33  1  0  0  0  0
 35 33  1  0  0  0  0
 35 31  1  6  0  0  0
 37 36  1  1  0  0  0
 37 39  1  0  0  0  0
 39 38  1  0  0  0  0
M  END
>  <MODEL>
5

>  <REMARK>
 VINA RESULT:      -6.5      3.303      7.305
  Name = 
  15 active torsions:
  status: ('A' for Active; 'I' for Inactive)
    1  A    between atoms: C_2  and  C_22
    2  A    between atoms: C_2  and  C_27
    3  A    between atoms: C_7  and  C_25
    4  A    between atoms: C_12  and  N_16
    5  A    between atoms: C_12  and  C_28
    6  A    between atoms: C_13  and  C_21
    7  A    between atoms: N_16  and  C_38
    8  A    between atoms: N_19  and  N_30
    9  A    between atoms: N_19  and  N_35
   10  A    between atoms: N_20  and  C_31
   11  A    between atoms: C_21  and  C_22
   12  A    between atoms: C_24  and  C_26
   13  A    between atoms: C_26  and  C_36
   14  A    between atoms: C_27  and  C_31
   15  A    between atoms: C_28  and  N_35
                            x       y       z     vdW  Elec       q    Type
                         _______ _______ _______ _____ _____    ______ ____

>  <TORSDO>
F 15

$$$$
=
 OpenBabel10222421233D

 39 41  0  0  1  0  0  0  0  0999 V2000
  186.8710  178.2730  142.5310 C   0  0  0  0  0  3  0  0  0  0  0  0
  186.0700  178.5660  141.5640 N   0  0  0  0  0  0  0  0  0  0  0  0
  184.1790  178.9270  143.1310 C   0  0  0  0  0  0  0  0  0  0  0  0
  181.6800  179.5380  143.5940 C   0  0  0  0  0  3  0  0  0  0  0  0
  185.0270  178.2430  144.1840 C   0  0  1  0  0  3  0  0  0  0  0  0
  186.5040  178.5630  143.9560 C   0  0  0  0  0  2  0  0  0  0  0  0
  184.7670  179.1990  141.7590 C   0  0  2  0  0  3  0  0  0  0  0  0
  182.9270  179.2360  143.3680 C   0  0  0  0  0  0  0  0  0  0  0  0
  184.6250  178.5850  145.5960 C   0  0  0  0  0  0  0  0  0  0  0  0
  183.4600  179.0020  145.8380 O   0  0  0  0  0  0  0  0  0  0  0  0
  185.5310  178.3790  146.6820 N   0  0  0  0  0  2  0  0  0  0  0  0
  186.8650  177.8310  146.4930 C   0  0  0  0  0  2  0  0  0  0  0  0
  187.5530  177.6730  147.8350 C   0  0  0  0  0  2  0  0  0  0  0  0
  189.0280  178.0160  147.7140 C   0  0  0  0  0  2  0  0  0  0  0  0
  189.7210  177.0470  146.7670 C   0  0  0  0  0  2  0  0  0  0  0  0
  190.3530  177.7750  145.5870 C   0  0  0  0  0  2  0  0  0  0  0  0
  191.6810  177.4870  143.5220 C   0  0  0  0  0  2  0  0  0  0  0  0
  189.6380  176.3810  143.7750 O   0  0  0  0  0  0  0  0  0  0  0  0
  191.1940  177.1450  142.2050 N   0  0  0  0  0  2  0  0  0  0  0  0
  190.7620  176.8000  144.4930 C   0  0  2  0  0  3  0  0  0  0  0  0
  190.0910  176.2310  142.4550 C   0  0  0  0  0  2  0  0  0  0  0  0
  183.8260  178.8340  140.6860 N   0  0  0  0  0  0  0  0  0  0  0  0
  183.5790  177.3940  140.6780 C   0  0  0  0  0  1  0  0  0  0  0  0
  184.4140  179.2010  139.4060 C   0  0  0  0  0  2  0  0  0  0  0  0
  184.3760  178.0120  138.4660 C   0  0  0  0  0  2  0  0  0  0  0  0
  185.4130  178.1510  137.4580 N   0  0  0  0  0  2  0  0  0  0  0  0
  186.5790  178.5430  138.1320 N   0  0  0  0  0  2  0  0  0  0  0  0
  189.8540  176.7120  136.2930 C   0  0  0  0  0  2  0  0  0  0  0  0
  189.9870  177.2000  137.7330 C   0  0  0  0  0  2  0  0  0  0  0  0
  188.4470  176.1920  136.0100 C   0  0  1  0  0  3  0  0  0  0  0  0
  189.0520  178.6230  139.5120 C   0  0  0  0  0  1  0  0  0  0  0  0
  188.2060  174.8530  136.6860 C   0  0  0  0  0  1  0  0  0  0  0  0
  187.5570  177.5710  137.8650 N   0  0  0  0  0  0  0  0  0  0  0  0
  187.4050  177.2220  136.4490 C   0  0  0  0  0  2  0  0  0  0  0  0
  188.8760  178.1950  138.0640 C   0  0  2  0  0  3  0  0  0  0  0  0
  180.5000  179.4700  141.4460 C   0  0  0  0  0  1  0  0  0  0  0  0
  180.6040  178.8530  142.8290 C   0  0  2  0  0  3  0  0  0  0  0  0
  179.2910  178.2130  144.7170 O   0  0  0  0  0  1  0  0  0  0  0  0
  179.2860  179.0030  143.5670 C   0  0  0  0  0  2  0  0  0  0  0  0
  1  6  1  0  0  0  0
  2  7  1  0  0  0  0
  2  1  2  0  0  0  0
  3  8  2  0  0  0  0
  3  5  1  0  0  0  0
  5  9  1  1  0  0  0
  6  5  1  0  0  0  0
  7 22  1  6  0  0  0
  7  3  1  0  0  0  0
  8  4  2  0  0  0  0
  9 10  2  0  0  0  0
  9 11  1  0  0  0  0
 12 11  1  0  0  0  0
 12 13  1  0  0  0  0
 14 13  1  0  0  0  0
 15 14  1  0  0  0  0
 16 15  1  0  0  0  0
 17 20  1  0  0  0  0
 18 20  1  0  0  0  0
 19 21  1  0  0  0  0
 19 17  1  0  0  0  0
 20 16  1  1  0  0  0
 21 18  1  0  0  0  0
 23 22  1  0  0  0  0
 24 22  1  0  0  0  0
 25 24  1  0  0  0  0
 26 27  1  0  0  0  0
 26 25  1  0  0  0  0
 28 29  1  0  0  0  0
 29 35  1  0  0  0  0
 30 28  1  0  0  0  0
 30 34  1  0  0  0  0
 30 32  1  1  0  0  0
 33 35  1  0  0  0  0
 33 27  1  0  0  0  0
 34 33  1  0  0  0  0
 35 31  1  1  0  0  0
 37 36  1  6  0  0  0
 37 39  1  0  0  0  0
 37  4  1  0  0  0  0
 39 38  1  0  0  0  0
M  END
>  <MODEL>
6

>  <REMARK>
 VINA RESULT:      -6.4      2.531      6.995
  Name = 
  15 active torsions:
  status: ('A' for Active; 'I' for Inactive)
    1  A    between atoms: C_2  and  C_22
    2  A    between atoms: C_2  and  C_27
    3  A    between atoms: C_7  and  C_25
    4  A    between atoms: C_12  and  N_16
    5  A    between atoms: C_12  and  C_28
    6  A    between atoms: C_13  and  C_21
    7  A    between atoms: N_16  and  C_38
    8  A    between atoms: N_19  and  N_30
    9  A    between atoms: N_19  and  N_35
   10  A    between atoms: N_20  and  C_31
   11  A    between atoms: C_21  and  C_22
   12  A    between atoms: C_24  and  C_26
   13  A    between atoms: C_26  and  C_36
   14  A    between atoms: C_27  and  C_31
   15  A    between atoms: C_28  and  N_35
                            x       y       z     vdW  Elec       q    Type
                         _______ _______ _______ _____ _____    ______ ____

>  <TORSDO>
F 15

$$$$
=
 OpenBabel10222421233D

 39 41  0  0  1  0  0  0  0  0999 V2000
  192.3090  173.3030  135.7120 C   0  0  0  0  0  3  0  0  0  0  0  0
  192.8130  174.1930  136.4970 N   0  0  0  0  0  0  0  0  0  0  0  0
  190.5610  174.9690  137.1970 C   0  0  0  0  0  0  0  0  0  0  0  0
  189.0230  176.5500  138.6000 C   0  0  0  0  0  3  0  0  0  0  0  0
  190.0150  174.1800  136.0250 C   0  0  1  0  0  3  0  0  0  0  0  0
  190.8600  172.9280  135.7960 C   0  0  0  0  0  2  0  0  0  0  0  0
  192.0420  174.8960  137.5210 C   0  0  2  0  0  3  0  0  0  0  0  0
  189.7860  175.7570  137.9010 C   0  0  0  0  0  0  0  0  0  0  0  0
  188.5590  173.8150  136.1710 C   0  0  0  0  0  0  0  0  0  0  0  0
  188.2210  172.8530  136.9120 O   0  0  0  0  0  0  0  0  0  0  0  0
  187.5440  174.5910  135.5310 N   0  0  0  0  0  2  0  0  0  0  0  0
  187.8510  175.7610  134.7220 C   0  0  0  0  0  2  0  0  0  0  0  0
  186.8480  176.8620  135.0070 C   0  0  0  0  0  2  0  0  0  0  0  0
  185.7130  176.3300  135.8660 C   0  0  0  0  0  2  0  0  0  0  0  0
  185.4210  177.2880  137.0120 C   0  0  0  0  0  2  0  0  0  0  0  0
  184.2450  176.8100  137.8530 C   0  0  0  0  0  2  0  0  0  0  0  0
  184.6380  179.1000  138.6970 C   0  0  0  0  0  2  0  0  0  0  0  0
  183.5560  177.5200  140.0350 O   0  0  0  0  0  0  0  0  0  0  0  0
  184.7690  179.5190  140.0730 N   0  0  0  0  0  2  0  0  0  0  0  0
  183.6850  177.9380  138.7070 C   0  0  2  0  0  3  0  0  0  0  0  0
  183.8480  178.6600  140.8000 C   0  0  0  0  0  2  0  0  0  0  0  0
  192.6010  176.2320  137.7940 N   0  0  0  0  0  0  0  0  0  0  0  0
  193.5960  176.5950  136.7870 C   0  0  0  0  0  1  0  0  0  0  0  0
  193.2590  176.2050  139.0920 C   0  0  0  0  0  2  0  0  0  0  0  0
  192.8360  177.4120  139.9050 C   0  0  0  0  0  2  0  0  0  0  0  0
  191.6520  177.0890  140.6820 N   0  0  0  0  0  2  0  0  0  0  0  0
  191.9410  177.4220  142.0140 N   0  0  0  0  0  2  0  0  0  0  0  0
  188.8790  176.8780  144.8050 C   0  0  0  0  0  2  0  0  0  0  0  0
  189.6980  178.1650  144.8420 C   0  0  0  0  0  2  0  0  0  0  0  0
  188.6870  176.3820  143.3740 C   0  0  1  0  0  3  0  0  0  0  0  0
  191.7560  179.3100  144.1180 C   0  0  0  0  0  1  0  0  0  0  0  0
  187.7020  177.2540  142.6140 C   0  0  0  0  0  1  0  0  0  0  0  0
  190.7120  177.6190  142.6670 N   0  0  0  0  0  0  0  0  0  0  0  0
  190.0330  176.3200  142.6520 C   0  0  0  0  0  2  0  0  0  0  0  0
  191.0010  177.9920  144.0620 C   0  0  2  0  0  3  0  0  0  0  0  0
  188.2490  178.7080  139.4680 C   0  0  0  0  0  1  0  0  0  0  0  0
  189.2570  178.0180  138.5680 C   0  0  2  0  0  3  0  0  0  0  0  0
  188.0730  179.4480  137.0680 O   0  0  0  0  0  1  0  0  0  0  0  0
  189.1150  178.5220  137.1440 C   0  0  0  0  0  2  0  0  0  0  0  0
  1  6  1  0  0  0  0
  1  2  2  0  0  0  0
  2  7  1  0  0  0  0
  3  7  1  0  0  0  0
  3  8  2  0  0  0  0
  5  9  1  1  0  0  0
  5  3  1  0  0  0  0
  6  5  1  0  0  0  0
  7 22  1  6  0  0  0
  8  4  2  0  0  0  0
  9 10  2  0  0  0  0
 11  9  1  0  0  0  0
 12 13  1  0  0  0  0
 12 11  1  0  0  0  0
 13 14  1  0  0  0  0
 14 15  1  0  0  0  0
 15 16  1  0  0  0  0
 17 20  1  0  0  0  0
 17 19  1  0  0  0  0
 18 21  1  0  0  0  0
 19 21  1  0  0  0  0
 20 16  1  6  0  0  0
 20 18  1  0  0  0  0
 22 24  1  0  0  0  0
 23 22  1  0  0  0  0
 24 25  1  0  0  0  0
 25 26  1  0  0  0  0
 26 27  1  0  0  0  0
 27 33  1  0  0  0  0
 28 29  1  0  0  0  0
 30 32  1  6  0  0  0
 30 28  1  0  0  0  0
 33 35  1  0  0  0  0
 34 33  1  0  0  0  0
 34 30  1  0  0  0  0
 35 31  1  6  0  0  0
 35 29  1  0  0  0  0
 37  4  1  0  0  0  0
 37 36  1  1  0  0  0
 38 39  1  0  0  0  0
 39 37  1  0  0  0  0
M  END
>  <MODEL>
7

>  <REMARK>
 VINA RESULT:      -6.3      2.852      7.508
  Name = 
  15 active torsions:
  status: ('A' for Active; 'I' for Inactive)
    1  A    between atoms: C_2  and  C_22
    2  A    between atoms: C_2  and  C_27
    3  A    between atoms: C_7  and  C_25
    4  A    between atoms: C_12  and  N_16
    5  A    between atoms: C_12  and  C_28
    6  A    between atoms: C_13  and  C_21
    7  A    between atoms: N_16  and  C_38
    8  A    between atoms: N_19  and  N_30
    9  A    between atoms: N_19  and  N_35
   10  A    between atoms: N_20  and  C_31
   11  A    between atoms: C_21  and  C_22
   12  A    between atoms: C_24  and  C_26
   13  A    between atoms: C_26  and  C_36
   14  A    between atoms: C_27  and  C_31
   15  A    between atoms: C_28  and  N_35
                            x       y       z     vdW  Elec       q    Type
                         _______ _______ _______ _____ _____    ______ ____

>  <TORSDO>
F 15

$$$$
=
 OpenBabel10222421233D

 39 41  0  0  1  0  0  0  0  0999 V2000
  192.9850  177.2370  139.5220 C   0  0  0  0  0  3  0  0  0  0  0  0
  191.7300  177.3280  139.8040 N   0  0  0  0  0  0  0  0  0  0  0  0
  191.1270  175.7220  138.0090 C   0  0  0  0  0  0  0  0  0  0  0  0
  189.3450  174.3650  136.6610 C   0  0  0  0  0  3  0  0  0  0  0  0
  192.5340  175.9100  137.4810 C   0  0  1  0  0  3  0  0  0  0  0  0
  193.5030  176.1410  138.6390 C   0  0  0  0  0  2  0  0  0  0  0  0
  190.7220  176.3930  139.3090 C   0  0  2  0  0  3  0  0  0  0  0  0
  190.2370  175.0370  137.3330 C   0  0  0  0  0  0  0  0  0  0  0  0
  193.0090  174.7700  136.6150 C   0  0  0  0  0  0  0  0  0  0  0  0
  192.9130  173.5830  137.0260 O   0  0  0  0  0  0  0  0  0  0  0  0
  193.5080  175.0130  135.2980 N   0  0  0  0  0  2  0  0  0  0  0  0
  193.5790  176.3490  134.7250 C   0  0  0  0  0  2  0  0  0  0  0  0
  194.9540  176.9410  134.9670 C   0  0  0  0  0  2  0  0  0  0  0  0
  196.0320  175.9290  134.6170 C   0  0  0  0  0  2  0  0  0  0  0  0
  196.9330  175.6780  135.8180 C   0  0  0  0  0  2  0  0  0  0  0  0
  196.9080  174.2140  136.2390 C   0  0  0  0  0  2  0  0  0  0  0  0
  196.2890  173.9240  138.6140 C   0  0  0  0  0  2  0  0  0  0  0  0
  198.1850  175.1590  138.0320 O   0  0  0  0  0  0  0  0  0  0  0  0
  196.6040  174.8020  139.7170 N   0  0  0  0  0  2  0  0  0  0  0  0
  197.4390  174.0390  137.6530 C   0  0  2  0  0  3  0  0  0  0  0  0
  197.9280  175.3150  139.4030 C   0  0  0  0  0  2  0  0  0  0  0  0
  189.4000  177.0350  139.1950 N   0  0  0  0  0  0  0  0  0  0  0  0
  189.5230  178.3820  138.6410 C   0  0  0  0  0  1  0  0  0  0  0  0
  188.8200  177.1440  140.5260 C   0  0  0  0  0  2  0  0  0  0  0  0
  187.7940  178.2590  140.5470 C   0  0  0  0  0  2  0  0  0  0  0  0
  187.4420  178.5750  141.9210 N   0  0  0  0  0  2  0  0  0  0  0  0
  188.1980  177.7210  142.7370 N   0  0  0  0  0  2  0  0  0  0  0  0
  187.4290  177.1930  146.8100 C   0  0  0  0  0  2  0  0  0  0  0  0
  188.7310  177.8620  146.3800 C   0  0  0  0  0  2  0  0  0  0  0  0
  186.2810  177.5550  145.8700 C   0  0  1  0  0  3  0  0  0  0  0  0
  190.3100  178.2860  144.5380 C   0  0  0  0  0  1  0  0  0  0  0  0
  185.8310  178.9910  146.0740 C   0  0  0  0  0  1  0  0  0  0  0  0
  187.9060  178.0570  144.0690 N   0  0  0  0  0  0  0  0  0  0  0  0
  186.6920  177.3110  144.4170 C   0  0  0  0  0  2  0  0  0  0  0  0
  189.0170  177.5760  144.9070 C   0  0  2  0  0  3  0  0  0  0  0  0
  188.4990  176.5230  135.8610 C   0  0  0  0  0  1  0  0  0  0  0  0
  188.1560  175.0650  136.1070 C   0  0  2  0  0  3  0  0  0  0  0  0
  186.2610  176.1410  137.0820 O   0  0  0  0  0  1  0  0  0  0  0  0
  187.0050  174.9600  137.0920 C   0  0  0  0  0  2  0  0  0  0  0  0
  1  2  2  0  0  0  0
  3  7  1  0  0  0  0
  4  8  2  0  0  0  0
  5  9  1  1  0  0  0
  5  3  1  0  0  0  0
  5  6  1  0  0  0  0
  6  1  1  0  0  0  0
  7 22  1  6  0  0  0
  7  2  1  0  0  0  0
  8  3  2  0  0  0  0
  9 10  2  0  0  0  0
 11  9  1  0  0  0  0
 12 13  1  0  0  0  0
 12 11  1  0  0  0  0
 14 13  1  0  0  0  0
 14 15  1  0  0  0  0
 15 16  1  0  0  0  0
 17 19  1  0  0  0  0
 18 21  1  0  0  0  0
 20 16  1  6  0  0  0
 20 18  1  0  0  0  0
 20 17  1  0  0  0  0
 21 19  1  0  0  0  0
 22 24  1  0  0  0  0
 23 22  1  0  0  0  0
 24 25  1  0  0  0  0
 25 26  1  0  0  0  0
 26 27  1  0  0  0  0
 27 33  1  0  0  0  0
 29 28  1  0  0  0  0
 30 32  1  6  0  0  0
 30 28  1  0  0  0  0
 33 34  1  0  0  0  0
 33 35  1  0  0  0  0
 34 30  1  0  0  0  0
 35 31  1  6  0  0  0
 35 29  1  0  0  0  0
 37 36  1  1  0  0  0
 37  4  1  0  0  0  0
 37 39  1  0  0  0  0
 38 39  1  0  0  0  0
M  END
>  <MODEL>
8

>  <REMARK>
 VINA RESULT:      -6.3      3.032      8.962
  Name = 
  15 active torsions:
  status: ('A' for Active; 'I' for Inactive)
    1  A    between atoms: C_2  and  C_22
    2  A    between atoms: C_2  and  C_27
    3  A    between atoms: C_7  and  C_25
    4  A    between atoms: C_12  and  N_16
    5  A    between atoms: C_12  and  C_28
    6  A    between atoms: C_13  and  C_21
    7  A    between atoms: N_16  and  C_38
    8  A    between atoms: N_19  and  N_30
    9  A    between atoms: N_19  and  N_35
   10  A    between atoms: N_20  and  C_31
   11  A    between atoms: C_21  and  C_22
   12  A    between atoms: C_24  and  C_26
   13  A    between atoms: C_26  and  C_36
   14  A    between atoms: C_27  and  C_31
   15  A    between atoms: C_28  and  N_35
                            x       y       z     vdW  Elec       q    Type
                         _______ _______ _______ _____ _____    ______ ____

>  <TORSDO>
F 15

$$$$
=
 OpenBabel10222421233D

 39 41  0  0  1  0  0  0  0  0999 V2000
  185.7980  177.2970  137.0990 C   0  0  0  0  0  3  0  0  0  0  0  0
  184.7100  177.5250  137.7530 N   0  0  0  0  0  0  0  0  0  0  0  0
  185.9720  178.3830  139.7120 C   0  0  0  0  0  0  0  0  0  0  0  0
  186.0400  179.3780  142.1280 C   0  0  0  0  0  3  0  0  0  0  0  0
  187.2080  177.7800  139.0760 C   0  0  1  0  0  3  0  0  0  0  0  0
  187.1090  177.8650  137.5540 C   0  0  0  0  0  2  0  0  0  0  0  0
  184.6520  178.3440  138.9620 C   0  0  2  0  0  3  0  0  0  0  0  0
  186.0100  178.8850  140.9220 C   0  0  0  0  0  0  0  0  0  0  0  0
  188.4950  178.4020  139.5570 C   0  0  0  0  0  0  0  0  0  0  0  0
  188.9780  179.3980  138.9550 O   0  0  0  0  0  0  0  0  0  0  0  0
  189.1450  177.9160  140.7330 N   0  0  0  0  0  2  0  0  0  0  0  0
  188.6080  176.8190  141.5250 C   0  0  0  0  0  2  0  0  0  0  0  0
  189.7190  176.1730  142.3300 C   0  0  0  0  0  2  0  0  0  0  0  0
  191.0460  176.8540  142.0350 C   0  0  0  0  0  2  0  0  0  0  0  0
  191.6230  177.4610  143.3060 C   0  0  0  0  0  2  0  0  0  0  0  0
  191.2940  176.6150  144.5290 C   0  0  0  0  0  2  0  0  0  0  0  0
  191.0150  176.7060  146.9840 C   0  0  0  0  0  2  0  0  0  0  0  0
  189.5380  177.8560  145.5850 O   0  0  0  0  0  0  0  0  0  0  0  0
  189.7940  176.9370  147.7210 N   0  0  0  0  0  2  0  0  0  0  0  0
  190.8800  177.4860  145.7060 C   0  0  2  0  0  3  0  0  0  0  0  0
  189.0530  177.8850  146.9020 C   0  0  0  0  0  2  0  0  0  0  0  0
  183.5440  177.9300  139.8410 N   0  0  0  0  0  0  0  0  0  0  0  0
  182.9570  176.6730  139.3800 C   0  0  0  0  0  1  0  0  0  0  0  0
  182.5110  178.9540  139.8010 C   0  0  0  0  0  2  0  0  0  0  0  0
  182.8280  179.9600  138.7120 C   0  0  0  0  0  2  0  0  0  0  0  0
  181.8070  180.9920  138.6860 N   0  0  0  0  0  2  0  0  0  0  0  0
  181.0370  180.7690  137.5350 N   0  0  0  0  0  2  0  0  0  0  0  0
  180.8300  184.5210  135.7070 C   0  0  0  0  0  2  0  0  0  0  0  0
  179.9450  183.3910  135.1880 C   0  0  0  0  0  2  0  0  0  0  0  0
  181.0150  184.4320  137.2200 C   0  0  1  0  0  3  0  0  0  0  0  0
  179.5290  180.9640  135.1440 C   0  0  0  0  0  1  0  0  0  0  0  0
  179.7480  184.8330  137.9560 C   0  0  0  0  0  1  0  0  0  0  0  0
  180.5040  182.0100  137.1470 N   0  0  0  0  0  0  0  0  0  0  0  0
  181.4550  183.0220  137.6170 C   0  0  0  0  0  2  0  0  0  0  0  0
  180.4640  182.0390  135.6750 C   0  0  2  0  0  3  0  0  0  0  0  0
  184.4150  179.7550  143.9250 C   0  0  0  0  0  1  0  0  0  0  0  0
  185.2670  178.7190  143.2140 C   0  0  2  0  0  3  0  0  0  0  0  0
  186.0390  178.6100  145.4700 O   0  0  0  0  0  1  0  0  0  0  0  0
  186.2270  178.0720  144.1960 C   0  0  0  0  0  2  0  0  0  0  0  0
  1  6  1  0  0  0  0
  1  2  2  0  0  0  0
  2  7  1  0  0  0  0
  3  8  2  0  0  0  0
  4 37  1  0  0  0  0
  5  9  1  1  0  0  0
  5  3  1  0  0  0  0
  6  5  1  0  0  0  0
  7  3  1  0  0  0  0
  7 22  1  1  0  0  0
  8  4  2  0  0  0  0
  9 11  1  0  0  0  0
 10  9  2  0  0  0  0
 11 12  1  0  0  0  0
 12 13  1  0  0  0  0
 14 13  1  0  0  0  0
 14 15  1  0  0  0  0
 15 16  1  0  0  0  0
 17 19  1  0  0  0  0
 18 20  1  0  0  0  0
 18 21  1  0  0  0  0
 20 16  1  6  0  0  0
 20 17  1  0  0  0  0
 21 19  1  0  0  0  0
 23 22  1  0  0  0  0
 24 22  1  0  0  0  0
 25 24  1  0  0  0  0
 26 25  1  0  0  0  0
 27 26  1  0  0  0  0
 28 30  1  0  0  0  0
 29 35  1  0  0  0  0
 29 28  1  0  0  0  0
 30 34  1  0  0  0  0
 30 32  1  1  0  0  0
 33 27  1  0  0  0  0
 33 34  1  0  0  0  0
 35 31  1  1  0  0  0
 35 33  1  0  0  0  0
 37 36  1  1  0  0  0
 37 39  1  0  0  0  0
 39 38  1  0  0  0  0
M  END
>  <MODEL>
9

>  <REMARK>
 VINA RESULT:      -6.3      4.674      7.161
  Name = 
  15 active torsions:
  status: ('A' for Active; 'I' for Inactive)
    1  A    between atoms: C_2  and  C_22
    2  A    between atoms: C_2  and  C_27
    3  A    between atoms: C_7  and  C_25
    4  A    between atoms: C_12  and  N_16
    5  A    between atoms: C_12  and  C_28
    6  A    between atoms: C_13  and  C_21
    7  A    between atoms: N_16  and  C_38
    8  A    between atoms: N_19  and  N_30
    9  A    between atoms: N_19  and  N_35
   10  A    between atoms: N_20  and  C_31
   11  A    between atoms: C_21  and  C_22
   12  A    between atoms: C_24  and  C_26
   13  A    between atoms: C_26  and  C_36
   14  A    between atoms: C_27  and  C_31
   15  A    between atoms: C_28  and  N_35
                            x       y       z     vdW  Elec       q    Type
                         _______ _______ _______ _____ _____    ______ ____

>  <TORSDO>
F 15

$$$$
