=
 OpenBabel10222421073D

 29 32  0  0  1  0  0  0  0  0999 V2000
  185.6280  178.6190  143.2020 C   0  0  2  0  0  3  0  0  0  0  0  0
  187.2090  177.6330  146.1010 C   0  0  0  0  0  2  0  0  0  0  0  0
  185.6120  179.1830  145.3990 O   0  0  0  0  0  0  0  0  0  0  0  0
  186.7910  177.8980  142.5450 C   0  0  2  0  0  3  0  0  0  0  0  0
  186.2550  178.6970  146.5470 C   0  0  0  0  0  2  0  0  0  0  0  0
  187.5800  177.3010  143.6840 C   0  0  1  0  0  3  0  0  0  0  0  0
  186.5840  177.1920  144.8180 C   0  0  2  0  0  3  0  0  0  0  0  0
  185.4720  178.1110  144.5640 N   0  0  2  0  0  0  0  0  0  0  0  0
  179.2080  178.8600  142.1140 S   0  0  0  0  0  0  0  0  0  0  0  0
  181.6550  178.2650  141.2550 N   0  0  0  0  0  0  0  0  0  0  0  0
  184.3600  178.4410  142.4320 C   0  0  0  0  0  0  0  0  0  0  0  0
  181.8470  178.8520  142.3860 C   0  0  0  0  0  0  0  0  0  0  0  0
  183.1480  178.9770  142.9700 N   0  0  0  0  0  2  0  0  0  0  0  0
  184.3590  177.7880  141.3530 O   0  0  0  0  0  0  0  0  0  0  0  0
  180.2820  178.1990  140.7960 C   0  0  1  0  0  3  0  0  0  0  0  0
  180.6550  179.3810  143.0810 C   0  0  0  0  0  2  0  0  0  0  0  0
  179.8980  176.7920  140.4830 C   0  0  0  0  0  0  0  0  0  0  0  0
  179.6780  174.4730  139.6570 C   0  0  0  0  0  3  0  0  0  0  0  0
  178.9830  174.7670  140.8320 C   0  0  0  0  0  3  0  0  0  0  0  0
  179.1160  176.0430  141.2870 N   0  0  0  0  0  0  0  0  0  0  0  0
  180.4790  175.8830  139.1970 S   0  0  0  0  0  0  0  0  0  0  0  0
  188.0270  178.2060  140.3490 C   0  0  0  0  0  1  0  0  0  0  0  0
  187.6340  178.8330  141.6800 C   0  0  0  0  0  2  0  0  0  0  0  0
  188.0630  175.9800  143.3230 N   0  0  0  0  0  2  0  0  0  0  0  0
  189.4830  176.1060  143.0270 C   0  0  0  0  0  2  0  0  0  0  0  0
  190.1920  176.8190  144.1680 C   0  0  0  0  0  2  0  0  0  0  0  0
  191.4570  177.5120  142.1590 C   0  0  0  0  0  1  0  0  0  0  0  0
  191.3110  177.7090  143.6510 C   0  0  0  0  0  3  0  0  0  0  0  0
  190.9940  179.1630  143.9330 C   0  0  0  0  0  1  0  0  0  0  0  0
  1 11  1  6  0  0  0
  1  8  1  0  0  0  0
  2  5  1  0  0  0  0
  3  5  1  0  0  0  0
  4 23  1  1  0  0  0
  4  1  1  0  0  0  0
  4  6  1  0  0  0  0
  6 24  1  6  0  0  0
  6  7  1  0  0  0  0
  7  2  1  1  0  0  0
  8  7  1  0  0  0  0
  8  3  1  1  0  0  0
  9 16  1  0  0  0  0
 10 12  2  0  0  0  0
 11 13  1  0  0  0  0
 12 13  1  0  0  0  0
 12 16  1  0  0  0  0
 14 11  2  0  0  0  0
 15 17  1  1  0  0  0
 15 10  1  0  0  0  0
 15  9  1  0  0  0  0
 17 20  2  0  0  0  0
 18 19  2  0  0  0  0
 19 20  1  0  0  0  0
 21 18  1  0  0  0  0
 21 17  1  0  0  0  0
 22 23  1  0  0  0  0
 25 24  1  0  0  0  0
 25 26  1  0  0  0  0
 27 28  1  0  0  0  0
 28 29  1  0  0  0  0
 28 26  1  0  0  0  0
M  END
>  <MODEL>
1

>  <REMARK>
 VINA RESULT:      -7.5      0.000      0.000
  Name = 
  7 active torsions:
  status: ('A' for Active; 'I' for Inactive)
    1  A    between atoms: C_1  and  C_27
    2  A    between atoms: C_4  and  C_5
    3  A    between atoms: N_6  and  C_10
    4  A    between atoms: N_6  and  C_21
    5  A    between atoms: C_10  and  C_19
    6  A    between atoms: C_13  and  C_18
    7  A    between atoms: C_19  and  C_22
                            x       y       z     vdW  Elec       q    Type
                         _______ _______ _______ _____ _____    ______ ____

>  <TORSDO>
F 7

$$$$
=
 OpenBabel10222421073D

 29 32  0  0  1  0  0  0  0  0999 V2000
  190.3510  177.9470  141.3570 C   0  0  2  0  0  3  0  0  0  0  0  0
  187.1970  177.8490  142.7430 C   0  0  0  0  0  2  0  0  0  0  0  0
  188.2820  178.7430  140.8790 O   0  0  0  0  0  0  0  0  0  0  0  0
  190.7740  177.5380  142.7560 C   0  0  2  0  0  3  0  0  0  0  0  0
  187.0160  178.6190  141.4710 C   0  0  0  0  0  2  0  0  0  0  0  0
  189.4870  177.3530  143.5200 C   0  0  1  0  0  3  0  0  0  0  0  0
  188.4480  177.0860  142.4520 C   0  0  2  0  0  3  0  0  0  0  0  0
  188.9470  177.5860  141.1690 N   0  0  2  0  0  0  0  0  0  0  0  0
  191.7790  173.8050  136.5330 S   0  0  0  0  0  0  0  0  0  0  0  0
  192.5260  175.7820  138.1500 N   0  0  0  0  0  0  0  0  0  0  0  0
  191.1990  177.3000  140.3110 C   0  0  0  0  0  0  0  0  0  0  0  0
  191.2670  175.6350  138.3850 C   0  0  0  0  0  0  0  0  0  0  0  0
  190.5900  176.3740  139.4060 N   0  0  0  0  0  2  0  0  0  0  0  0
  192.4370  177.5340  140.2640 O   0  0  0  0  0  0  0  0  0  0  0  0
  193.0780  174.9540  137.0960 C   0  0  1  0  0  3  0  0  0  0  0  0
  190.5400  174.6440  137.5650 C   0  0  0  0  0  2  0  0  0  0  0  0
  194.2570  174.1870  137.5920 C   0  0  0  0  0  0  0  0  0  0  0  0
  196.1360  172.6310  137.9910 C   0  0  0  0  0  3  0  0  0  0  0  0
  196.1870  173.8370  138.6930 C   0  0  0  0  0  3  0  0  0  0  0  0
  195.1550  174.6940  138.4620 N   0  0  0  0  0  0  0  0  0  0  0  0
  194.7340  172.6700  137.0550 S   0  0  0  0  0  0  0  0  0  0  0  0
  190.9270  179.7470  144.0010 C   0  0  0  0  0  1  0  0  0  0  0  0
  191.6930  178.5730  143.4060 C   0  0  0  0  0  2  0  0  0  0  0  0
  189.5880  176.2070  144.4070 N   0  0  0  0  0  2  0  0  0  0  0  0
  189.6650  176.7210  145.7670 C   0  0  0  0  0  2  0  0  0  0  0  0
  188.6400  177.8260  145.9660 C   0  0  0  0  0  2  0  0  0  0  0  0
  188.5640  178.0900  148.4230 C   0  0  0  0  0  1  0  0  0  0  0  0
  187.8060  177.5880  147.2140 C   0  0  0  0  0  3  0  0  0  0  0  0
  186.4880  178.3260  147.1110 C   0  0  0  0  0  1  0  0  0  0  0  0
  1 11  1  6  0  0  0
  1  4  1  0  0  0  0
  3  5  1  0  0  0  0
  4 23  1  1  0  0  0
  4  6  1  0  0  0  0
  5  2  1  0  0  0  0
  6 24  1  1  0  0  0
  7  2  1  1  0  0  0
  7  6  1  0  0  0  0
  8  3  1  1  0  0  0
  8  1  1  0  0  0  0
  8  7  1  0  0  0  0
  9 15  1  0  0  0  0
  9 16  1  0  0  0  0
 10 12  2  0  0  0  0
 12 13  1  0  0  0  0
 13 11  1  0  0  0  0
 14 11  2  0  0  0  0
 15 17  1  1  0  0  0
 15 10  1  0  0  0  0
 16 12  1  0  0  0  0
 17 20  2  0  0  0  0
 18 19  2  0  0  0  0
 20 19  1  0  0  0  0
 21 17  1  0  0  0  0
 21 18  1  0  0  0  0
 23 22  1  0  0  0  0
 24 25  1  0  0  0  0
 25 26  1  0  0  0  0
 26 28  1  0  0  0  0
 28 27  1  0  0  0  0
 29 28  1  0  0  0  0
M  END
>  <MODEL>
2

>  <REMARK>
 VINA RESULT:      -7.0      5.778      9.453
  Name = 
  7 active torsions:
  status: ('A' for Active; 'I' for Inactive)
    1  A    between atoms: C_1  and  C_27
    2  A    between atoms: C_4  and  C_5
    3  A    between atoms: N_6  and  C_10
    4  A    between atoms: N_6  and  C_21
    5  A    between atoms: C_10  and  C_19
    6  A    between atoms: C_13  and  C_18
    7  A    between atoms: C_19  and  C_22
                            x       y       z     vdW  Elec       q    Type
                         _______ _______ _______ _____ _____    ______ ____

>  <TORSDO>
F 7

$$$$
=
 OpenBabel10222421073D

 29 32  0  0  1  0  0  0  0  0999 V2000
  185.8520  178.6780  143.2410 C   0  0  2  0  0  3  0  0  0  0  0  0
  187.3370  177.4690  146.1070 C   0  0  0  0  0  2  0  0  0  0  0  0
  185.8340  179.1350  145.4630 O   0  0  0  0  0  0  0  0  0  0  0  0
  186.9840  177.9290  142.5630 C   0  0  2  0  0  3  0  0  0  0  0  0
  186.4340  178.5600  146.5930 C   0  0  0  0  0  2  0  0  0  0  0  0
  187.7240  177.2360  143.6800 C   0  0  1  0  0  3  0  0  0  0  0  0
  186.7080  177.1250  144.7960 C   0  0  2  0  0  3  0  0  0  0  0  0
  185.6500  178.1140  144.5740 N   0  0  2  0  0  0  0  0  0  0  0  0
  182.1430  178.6950  137.8840 S   0  0  0  0  0  0  0  0  0  0  0  0
  182.3420  178.5040  140.5300 N   0  0  0  0  0  0  0  0  0  0  0  0
  184.5880  178.6060  142.4490 C   0  0  0  0  0  0  0  0  0  0  0  0
  183.5630  178.5230  140.1190 C   0  0  0  0  0  0  0  0  0  0  0  0
  184.6720  178.5460  141.0210 N   0  0  0  0  0  2  0  0  0  0  0  0
  183.4700  178.6460  143.0320 O   0  0  0  0  0  0  0  0  0  0  0  0
  181.3220  178.4990  139.5000 C   0  0  1  0  0  3  0  0  0  0  0  0
  183.7800  178.5450  138.6570 C   0  0  0  0  0  2  0  0  0  0  0  0
  180.3500  179.6100  139.7170 C   0  0  0  0  0  0  0  0  0  0  0  0
  178.9310  181.4510  140.5560 C   0  0  0  0  0  3  0  0  0  0  0  0
  179.0390  181.3520  139.1680 C   0  0  0  0  0  3  0  0  0  0  0  0
  179.8290  180.3420  138.7120 N   0  0  0  0  0  0  0  0  0  0  0  0
  179.8720  180.2150  141.2080 S   0  0  0  0  0  0  0  0  0  0  0  0
  188.2510  178.2860  140.3910 C   0  0  0  0  0  1  0  0  0  0  0  0
  187.8880  178.8590  141.7550 C   0  0  0  0  0  2  0  0  0  0  0  0
  188.1420  175.9100  143.2600 N   0  0  0  0  0  2  0  0  0  0  0  0
  189.5690  175.9780  142.9770 C   0  0  0  0  0  2  0  0  0  0  0  0
  190.2940  176.6770  144.1160 C   0  0  0  0  0  2  0  0  0  0  0  0
  191.5230  177.4090  142.0970 C   0  0  0  0  0  1  0  0  0  0  0  0
  191.3860  177.5970  143.5920 C   0  0  0  0  0  3  0  0  0  0  0  0
  191.0360  179.0410  143.8820 C   0  0  0  0  0  1  0  0  0  0  0  0
  1 11  1  6  0  0  0
  1  8  1  0  0  0  0
  2  5  1  0  0  0  0
  3  5  1  0  0  0  0
  4 23  1  1  0  0  0
  4  1  1  0  0  0  0
  4  6  1  0  0  0  0
  6 24  1  6  0  0  0
  6  7  1  0  0  0  0
  7  2  1  1  0  0  0
  8  7  1  0  0  0  0
  8  3  1  1  0  0  0
  9 16  1  0  0  0  0
  9 15  1  0  0  0  0
 11 14  2  0  0  0  0
 12 10  2  0  0  0  0
 12 13  1  0  0  0  0
 13 11  1  0  0  0  0
 15 17  1  1  0  0  0
 15 10  1  0  0  0  0
 16 12  1  0  0  0  0
 17 21  1  0  0  0  0
 18 21  1  0  0  0  0
 19 18  2  0  0  0  0
 20 19  1  0  0  0  0
 20 17  2  0  0  0  0
 22 23  1  0  0  0  0
 25 24  1  0  0  0  0
 25 26  1  0  0  0  0
 27 28  1  0  0  0  0
 28 29  1  0  0  0  0
 28 26  1  0  0  0  0
M  END
>  <MODEL>
3

>  <REMARK>
 VINA RESULT:      -7.0      1.972      2.839
  Name = 
  7 active torsions:
  status: ('A' for Active; 'I' for Inactive)
    1  A    between atoms: C_1  and  C_27
    2  A    between atoms: C_4  and  C_5
    3  A    between atoms: N_6  and  C_10
    4  A    between atoms: N_6  and  C_21
    5  A    between atoms: C_10  and  C_19
    6  A    between atoms: C_13  and  C_18
    7  A    between atoms: C_19  and  C_22
                            x       y       z     vdW  Elec       q    Type
                         _______ _______ _______ _____ _____    ______ ____

>  <TORSDO>
F 7

$$$$
=
 OpenBabel10222421073D

 29 32  0  0  1  0  0  0  0  0999 V2000
  188.7120  178.2770  142.2270 C   0  0  2  0  0  3  0  0  0  0  0  0
  186.3920  177.5740  144.6770 C   0  0  0  0  0  2  0  0  0  0  0  0
  186.4980  178.6130  142.5890 O   0  0  0  0  0  0  0  0  0  0  0  0
  189.6990  178.0100  143.3480 C   0  0  2  0  0  3  0  0  0  0  0  0
  185.5980  178.2490  143.6010 C   0  0  0  0  0  2  0  0  0  0  0  0
  188.8550  177.5870  144.5250 C   0  0  1  0  0  3  0  0  0  0  0  0
  187.5710  177.0770  143.9060 C   0  0  2  0  0  3  0  0  0  0  0  0
  187.4440  177.6280  142.5550 N   0  0  2  0  0  0  0  0  0  0  0  0
  189.0560  177.8320  135.7350 S   0  0  0  0  0  0  0  0  0  0  0  0
  189.9440  177.0910  138.1310 N   0  0  0  0  0  0  0  0  0  0  0  0
  189.2220  177.7870  140.9110 C   0  0  0  0  0  0  0  0  0  0  0  0
  189.1090  178.0400  138.3800 C   0  0  0  0  0  0  0  0  0  0  0  0
  188.7580  178.4190  139.7140 N   0  0  0  0  0  2  0  0  0  0  0  0
  190.0090  176.8030  140.8630 O   0  0  0  0  0  0  0  0  0  0  0  0
  190.1890  176.8080  136.7310 C   0  0  1  0  0  3  0  0  0  0  0  0
  188.4980  178.7210  137.2190 C   0  0  0  0  0  2  0  0  0  0  0  0
  189.9610  175.3630  136.4380 C   0  0  0  0  0  0  0  0  0  0  0  0
  190.0550  172.9930  135.7420 C   0  0  0  0  0  3  0  0  0  0  0  0
  189.1060  173.3020  136.7170 C   0  0  0  0  0  3  0  0  0  0  0  0
  189.0650  174.6070  137.1040 N   0  0  0  0  0  0  0  0  0  0  0  0
  190.8580  174.4280  135.3710 S   0  0  0  0  0  0  0  0  0  0  0  0
  191.9540  178.8580  144.1510 C   0  0  0  0  0  1  0  0  0  0  0  0
  190.5620  179.2320  143.6600 C   0  0  0  0  0  2  0  0  0  0  0  0
  189.5110  176.5160  145.2540 N   0  0  0  0  0  2  0  0  0  0  0  0
  189.7720  177.0080  146.5990 C   0  0  0  0  0  2  0  0  0  0  0  0
  188.6260  176.6320  147.5240 C   0  0  0  0  0  2  0  0  0  0  0  0
  189.5090  178.6280  148.6880 C   0  0  0  0  0  1  0  0  0  0  0  0
  188.2800  177.7740  148.4670 C   0  0  0  0  0  3  0  0  0  0  0  0
  187.1810  178.6280  147.8710 C   0  0  0  0  0  1  0  0  0  0  0  0
  1 11  1  6  0  0  0
  1  8  1  0  0  0  0
  1  4  1  0  0  0  0
  3  5  1  0  0  0  0
  4 23  1  1  0  0  0
  4  6  1  0  0  0  0
  5  2  1  0  0  0  0
  6 24  1  6  0  0  0
  7  6  1  0  0  0  0
  7  2  1  1  0  0  0
  8  3  1  1  0  0  0
  8  7  1  0  0  0  0
  9 15  1  0  0  0  0
  9 16  1  0  0  0  0
 10 12  2  0  0  0  0
 12 13  1  0  0  0  0
 13 11  1  0  0  0  0
 14 11  2  0  0  0  0
 15 17  1  1  0  0  0
 15 10  1  0  0  0  0
 16 12  1  0  0  0  0
 17 20  2  0  0  0  0
 18 19  2  0  0  0  0
 19 20  1  0  0  0  0
 21 18  1  0  0  0  0
 21 17  1  0  0  0  0
 23 22  1  0  0  0  0
 24 25  1  0  0  0  0
 25 26  1  0  0  0  0
 26 28  1  0  0  0  0
 28 27  1  0  0  0  0
 29 28  1  0  0  0  0
M  END
>  <MODEL>
4

>  <REMARK>
 VINA RESULT:      -6.9      4.786      7.076
  Name = 
  7 active torsions:
  status: ('A' for Active; 'I' for Inactive)
    1  A    between atoms: C_1  and  C_27
    2  A    between atoms: C_4  and  C_5
    3  A    between atoms: N_6  and  C_10
    4  A    between atoms: N_6  and  C_21
    5  A    between atoms: C_10  and  C_19
    6  A    between atoms: C_13  and  C_18
    7  A    between atoms: C_19  and  C_22
                            x       y       z     vdW  Elec       q    Type
                         _______ _______ _______ _____ _____    ______ ____

>  <TORSDO>
F 7

$$$$
=
 OpenBabel10222421073D

 29 32  0  0  1  0  0  0  0  0999 V2000
  188.3390  178.1730  143.0230 C   0  0  2  0  0  3  0  0  0  0  0  0
  186.0390  177.8750  145.5720 C   0  0  0  0  0  2  0  0  0  0  0  0
  186.1830  178.7570  143.4160 O   0  0  0  0  0  0  0  0  0  0  0  0
  189.3290  177.8820  144.1360 C   0  0  2  0  0  3  0  0  0  0  0  0
  185.2830  178.5550  144.4730 C   0  0  0  0  0  2  0  0  0  0  0  0
  188.4850  177.6260  145.3590 C   0  0  1  0  0  3  0  0  0  0  0  0
  187.1380  177.2100  144.8090 C   0  0  2  0  0  3  0  0  0  0  0  0
  187.0240  177.6800  143.4270 N   0  0  2  0  0  0  0  0  0  0  0  0
  189.2360  177.7800  136.5810 S   0  0  0  0  0  0  0  0  0  0  0  0
  189.4540  176.6810  138.9940 N   0  0  0  0  0  0  0  0  0  0  0  0
  188.7560  177.5470  141.7330 C   0  0  0  0  0  0  0  0  0  0  0  0
  189.0570  177.8850  139.2260 C   0  0  0  0  0  0  0  0  0  0  0  0
  188.7370  178.3430  140.5430 N   0  0  0  0  0  2  0  0  0  0  0  0
  189.0710  176.3270  141.6920 O   0  0  0  0  0  0  0  0  0  0  0  0
  189.7250  176.3550  137.6080 C   0  0  1  0  0  3  0  0  0  0  0  0
  188.9200  178.7850  138.0620 C   0  0  0  0  0  2  0  0  0  0  0  0
  188.9620  175.1420  137.1930 C   0  0  0  0  0  0  0  0  0  0  0  0
  188.1380  172.8840  136.6190 C   0  0  0  0  0  3  0  0  0  0  0  0
  187.1560  173.8490  136.8430 C   0  0  0  0  0  3  0  0  0  0  0  0
  187.6150  175.0890  137.1690 N   0  0  0  0  0  0  0  0  0  0  0  0
  189.6270  173.6400  136.8450 S   0  0  0  0  0  0  0  0  0  0  0  0
  191.7110  178.7020  143.8120 C   0  0  0  0  0  1  0  0  0  0  0  0
  190.3200  179.0270  144.3400 C   0  0  0  0  0  2  0  0  0  0  0  0
  189.0530  176.5440  146.1450 N   0  0  0  0  0  2  0  0  0  0  0  0
  189.4680  177.1100  147.4200 C   0  0  0  0  0  2  0  0  0  0  0  0
  190.9840  177.1790  147.4930 C   0  0  0  0  0  2  0  0  0  0  0  0
  192.0570  175.7070  145.8200 C   0  0  0  0  0  1  0  0  0  0  0  0
  191.6110  175.8130  147.2610 C   0  0  0  0  0  3  0  0  0  0  0  0
  192.8090  175.6270  148.1690 C   0  0  0  0  0  1  0  0  0  0  0  0
  1 11  1  6  0  0  0
  1  8  1  0  0  0  0
  1  4  1  0  0  0  0
  3  5  1  0  0  0  0
  4 23  1  1  0  0  0
  4  6  1  0  0  0  0
  5  2  1  0  0  0  0
  6 24  1  1  0  0  0
  7  6  1  0  0  0  0
  7  2  1  1  0  0  0
  8  3  1  1  0  0  0
  8  7  1  0  0  0  0
  9 15  1  0  0  0  0
  9 16  1  0  0  0  0
 10 12  2  0  0  0  0
 12 13  1  0  0  0  0
 13 11  1  0  0  0  0
 14 11  2  0  0  0  0
 15 17  1  6  0  0  0
 15 10  1  0  0  0  0
 16 12  1  0  0  0  0
 18 19  2  0  0  0  0
 18 21  1  0  0  0  0
 19 20  1  0  0  0  0
 20 17  2  0  0  0  0
 21 17  1  0  0  0  0
 22 23  1  0  0  0  0
 24 25  1  0  0  0  0
 25 26  1  0  0  0  0
 27 28  1  0  0  0  0
 28 26  1  0  0  0  0
 28 29  1  0  0  0  0
M  END
>  <MODEL>
5

>  <REMARK>
 VINA RESULT:      -6.9      4.739      6.364
  Name = 
  7 active torsions:
  status: ('A' for Active; 'I' for Inactive)
    1  A    between atoms: C_1  and  C_27
    2  A    between atoms: C_4  and  C_5
    3  A    between atoms: N_6  and  C_10
    4  A    between atoms: N_6  and  C_21
    5  A    between atoms: C_10  and  C_19
    6  A    between atoms: C_13  and  C_18
    7  A    between atoms: C_19  and  C_22
                            x       y       z     vdW  Elec       q    Type
                         _______ _______ _______ _____ _____    ______ ____

>  <TORSDO>
F 7

$$$$
=
 OpenBabel10222421073D

 29 32  0  0  1  0  0  0  0  0999 V2000
  185.8820  179.0600  142.4230 C   0  0  2  0  0  3  0  0  0  0  0  0
  186.4320  177.9220  145.6290 C   0  0  0  0  0  2  0  0  0  0  0  0
  185.3250  179.6630  144.5380 O   0  0  0  0  0  0  0  0  0  0  0  0
  187.0730  178.1750  142.1060 C   0  0  2  0  0  3  0  0  0  0  0  0
  185.5460  179.1150  145.8100 C   0  0  0  0  0  2  0  0  0  0  0  0
  187.4200  177.4970  143.4080 C   0  0  1  0  0  3  0  0  0  0  0  0
  186.1400  177.5470  144.2130 C   0  0  2  0  0  3  0  0  0  0  0  0
  185.2810  178.6040  143.6750 N   0  0  2  0  0  0  0  0  0  0  0  0
  180.1420  177.8310  139.5960 S   0  0  0  0  0  0  0  0  0  0  0  0
  182.6040  178.8270  139.4400 N   0  0  0  0  0  0  0  0  0  0  0  0
  184.8710  179.0440  141.3240 C   0  0  0  0  0  0  0  0  0  0  0  0
  182.4640  178.5150  140.6830 C   0  0  0  0  0  0  0  0  0  0  0  0
  183.5340  178.6330  141.6250 N   0  0  0  0  0  2  0  0  0  0  0  0
  185.2090  179.3400  140.1460 O   0  0  0  0  0  0  0  0  0  0  0  0
  181.4380  178.6390  138.6010 C   0  0  1  0  0  3  0  0  0  0  0  0
  181.1440  178.0000  141.1030 C   0  0  0  0  0  2  0  0  0  0  0  0
  181.7720  177.7950  137.4160 C   0  0  0  0  0  0  0  0  0  0  0  0
  182.2350  176.0030  135.7780 C   0  0  0  0  0  3  0  0  0  0  0  0
  181.9740  177.2640  135.2400 C   0  0  0  0  0  3  0  0  0  0  0  0
  181.7100  178.2450  136.1470 N   0  0  0  0  0  0  0  0  0  0  0  0
  182.1240  176.1540  137.4530 S   0  0  0  0  0  0  0  0  0  0  0  0
  188.7660  178.3870  140.2250 C   0  0  0  0  0  1  0  0  0  0  0  0
  188.2460  178.9690  141.5320 C   0  0  0  0  0  2  0  0  0  0  0  0
  187.8000  176.1150  143.1700 N   0  0  0  0  0  2  0  0  0  0  0  0
  189.2550  176.0610  143.1810 C   0  0  0  0  0  2  0  0  0  0  0  0
  189.8010  176.9090  144.3180 C   0  0  0  0  0  2  0  0  0  0  0  0
  191.4850  177.1610  142.5250 C   0  0  0  0  0  1  0  0  0  0  0  0
  191.1150  177.5690  143.9330 C   0  0  0  0  0  3  0  0  0  0  0  0
  190.9800  179.0770  143.9950 C   0  0  0  0  0  1  0  0  0  0  0  0
  1 11  1  6  0  0  0
  1  8  1  0  0  0  0
  2  5  1  0  0  0  0
  3  5  1  0  0  0  0
  4 23  1  1  0  0  0
  4  1  1  0  0  0  0
  4  6  1  0  0  0  0
  6 24  1  6  0  0  0
  6  7  1  0  0  0  0
  7  2  1  1  0  0  0
  8  7  1  0  0  0  0
  8  3  1  1  0  0  0
  9 16  1  0  0  0  0
 10 12  2  0  0  0  0
 11 13  1  0  0  0  0
 12 16  1  0  0  0  0
 12 13  1  0  0  0  0
 14 11  2  0  0  0  0
 15 17  1  6  0  0  0
 15 10  1  0  0  0  0
 15  9  1  0  0  0  0
 17 21  1  0  0  0  0
 18 21  1  0  0  0  0
 19 18  2  0  0  0  0
 19 20  1  0  0  0  0
 20 17  2  0  0  0  0
 22 23  1  0  0  0  0
 24 25  1  0  0  0  0
 25 26  1  0  0  0  0
 27 28  1  0  0  0  0
 28 29  1  0  0  0  0
 28 26  1  0  0  0  0
M  END
>  <MODEL>
6

>  <REMARK>
 VINA RESULT:      -6.8      2.177      2.445
  Name = 
  7 active torsions:
  status: ('A' for Active; 'I' for Inactive)
    1  A    between atoms: C_1  and  C_27
    2  A    between atoms: C_4  and  C_5
    3  A    between atoms: N_6  and  C_10
    4  A    between atoms: N_6  and  C_21
    5  A    between atoms: C_10  and  C_19
    6  A    between atoms: C_13  and  C_18
    7  A    between atoms: C_19  and  C_22
                            x       y       z     vdW  Elec       q    Type
                         _______ _______ _______ _____ _____    ______ ____

>  <TORSDO>
F 7

$$$$
=
 OpenBabel10222421073D

 29 32  0  0  1  0  0  0  0  0999 V2000
  189.7590  177.3590  139.9140 C   0  0  2  0  0  3  0  0  0  0  0  0
  191.9040  175.8940  137.6490 C   0  0  0  0  0  2  0  0  0  0  0  0
  191.9980  177.1890  139.5890 O   0  0  0  0  0  0  0  0  0  0  0  0
  188.7480  177.1590  138.8010 C   0  0  2  0  0  3  0  0  0  0  0  0
  192.8110  176.5240  138.6600 C   0  0  0  0  0  2  0  0  0  0  0  0
  189.4950  176.4280  137.7150 C   0  0  1  0  0  3  0  0  0  0  0  0
  190.6410  175.7490  138.4340 C   0  0  2  0  0  3  0  0  0  0  0  0
  190.8690  176.4300  139.7110 N   0  0  2  0  0  0  0  0  0  0  0  0
  185.5420  178.3470  144.7820 S   0  0  0  0  0  0  0  0  0  0  0  0
  187.6480  177.0470  143.8060 N   0  0  0  0  0  0  0  0  0  0  0  0
  189.1480  177.1540  141.2620 C   0  0  0  0  0  0  0  0  0  0  0  0
  187.2220  177.7540  142.8160 C   0  0  0  0  0  0  0  0  0  0  0  0
  187.9110  177.8060  141.5640 N   0  0  0  0  0  2  0  0  0  0  0  0
  189.7420  176.4560  142.1280 O   0  0  0  0  0  0  0  0  0  0  0  0
  186.8550  177.1050  145.0180 C   0  0  1  0  0  3  0  0  0  0  0  0
  185.9900  178.5400  143.0320 C   0  0  0  0  0  2  0  0  0  0  0  0
  187.7060  177.4770  146.1860 C   0  0  0  0  0  0  0  0  0  0  0  0
  188.6620  178.1530  148.3630 C   0  0  0  0  0  3  0  0  0  0  0  0
  189.5370  177.5030  147.4910 C   0  0  0  0  0  3  0  0  0  0  0  0
  189.0030  177.1250  146.2980 N   0  0  0  0  0  0  0  0  0  0  0  0
  187.1710  178.2410  147.5820 S   0  0  0  0  0  0  0  0  0  0  0  0
  189.0570  179.1910  137.3100 C   0  0  0  0  0  1  0  0  0  0  0  0
  188.1580  178.4820  138.3130 C   0  0  0  0  0  2  0  0  0  0  0  0
  188.6380  175.4280  137.1000 N   0  0  0  0  0  2  0  0  0  0  0  0
  188.4240  175.8370  135.7190 C   0  0  0  0  0  2  0  0  0  0  0  0
  187.0280  175.4380  135.2680 C   0  0  0  0  0  2  0  0  0  0  0  0
  185.4080  177.0010  136.2930 C   0  0  0  0  0  1  0  0  0  0  0  0
  186.1570  176.6600  135.0240 C   0  0  0  0  0  3  0  0  0  0  0  0
  187.0150  177.8410  134.6200 C   0  0  0  0  0  1  0  0  0  0  0  0
  1 11  1  1  0  0  0
  2  5  1  0  0  0  0
  4 23  1  6  0  0  0
  4  1  1  0  0  0  0
  5  3  1  0  0  0  0
  6 24  1  1  0  0  0
  6  7  1  0  0  0  0
  6  4  1  0  0  0  0
  7  2  1  6  0  0  0
  7  8  1  0  0  0  0
  8  3  1  6  0  0  0
  8  1  1  0  0  0  0
  9 15  1  0  0  0  0
 10 15  1  0  0  0  0
 11 13  1  0  0  0  0
 11 14  2  0  0  0  0
 12 16  1  0  0  0  0
 12 10  2  0  0  0  0
 13 12  1  0  0  0  0
 15 17  1  1  0  0  0
 16  9  1  0  0  0  0
 17 20  2  0  0  0  0
 17 21  1  0  0  0  0
 19 18  2  0  0  0  0
 20 19  1  0  0  0  0
 21 18  1  0  0  0  0
 22 23  1  0  0  0  0
 25 24  1  0  0  0  0
 26 25  1  0  0  0  0
 28 26  1  0  0  0  0
 28 27  1  0  0  0  0
 29 28  1  0  0  0  0
M  END
>  <MODEL>
7

>  <REMARK>
 VINA RESULT:      -6.6      4.690      8.183
  Name = 
  7 active torsions:
  status: ('A' for Active; 'I' for Inactive)
    1  A    between atoms: C_1  and  C_27
    2  A    between atoms: C_4  and  C_5
    3  A    between atoms: N_6  and  C_10
    4  A    between atoms: N_6  and  C_21
    5  A    between atoms: C_10  and  C_19
    6  A    between atoms: C_13  and  C_18
    7  A    between atoms: C_19  and  C_22
                            x       y       z     vdW  Elec       q    Type
                         _______ _______ _______ _____ _____    ______ ____

>  <TORSDO>
F 7

$$$$
=
 OpenBabel10222421073D

 29 32  0  0  1  0  0  0  0  0999 V2000
  183.5040  178.2540  138.5630 C   0  0  2  0  0  3  0  0  0  0  0  0
  180.8580  176.1820  139.3260 C   0  0  0  0  0  2  0  0  0  0  0  0
  182.5570  176.3660  137.7360 O   0  0  0  0  0  0  0  0  0  0  0  0
  182.7580  179.2250  139.4590 C   0  0  2  0  0  3  0  0  0  0  0  0
  181.4970  175.5390  138.1340 C   0  0  0  0  0  2  0  0  0  0  0  0
  181.5730  178.4520  139.9810 C   0  0  1  0  0  3  0  0  0  0  0  0
  181.9870  177.0000  139.8620 C   0  0  2  0  0  3  0  0  0  0  0  0
  183.0730  176.8950  138.8850 N   0  0  2  0  0  0  0  0  0  0  0  0
  189.7760  176.8970  137.4310 S   0  0  0  0  0  0  0  0  0  0  0  0
  187.9390  178.3260  138.7210 N   0  0  0  0  0  0  0  0  0  0  0  0
  184.9840  178.3810  138.7190 C   0  0  0  0  0  0  0  0  0  0  0  0
  187.2660  177.6380  137.8650 C   0  0  0  0  0  0  0  0  0  0  0  0
  185.8360  177.6630  137.8210 N   0  0  0  0  0  2  0  0  0  0  0  0
  185.4660  179.0720  139.6580 O   0  0  0  0  0  0  0  0  0  0  0  0
  189.3810  178.1870  138.6570 C   0  0  1  0  0  3  0  0  0  0  0  0
  188.0330  176.7900  136.9290 C   0  0  0  0  0  2  0  0  0  0  0  0
  189.9330  177.8100  139.9910 C   0  0  0  0  0  0  0  0  0  0  0  0
  190.3560  177.0640  142.3090 C   0  0  0  0  0  3  0  0  0  0  0  0
  191.4740  177.1190  141.4750 C   0  0  0  0  0  3  0  0  0  0  0  0
  191.2340  177.5210  140.1970 N   0  0  0  0  0  0  0  0  0  0  0  0
  189.0320  177.5420  141.3820 S   0  0  0  0  0  0  0  0  0  0  0  0
  181.1490  180.2720  137.7960 C   0  0  0  0  0  1  0  0  0  0  0  0
  182.3430  180.4940  138.7150 C   0  0  0  0  0  2  0  0  0  0  0  0
  181.3300  178.7830  141.3740 N   0  0  0  0  0  2  0  0  0  0  0  0
  182.5940  178.6240  142.0800 C   0  0  0  0  0  2  0  0  0  0  0  0
  182.4250  179.0020  143.5430 C   0  0  0  0  0  2  0  0  0  0  0  0
  183.9440  178.6330  145.4600 C   0  0  0  0  0  1  0  0  0  0  0  0
  183.7540  179.3960  144.1680 C   0  0  0  0  0  3  0  0  0  0  0  0
  184.8920  179.0680  143.2240 C   0  0  0  0  0  1  0  0  0  0  0  0
  1 11  1  1  0  0  0
  1  8  1  0  0  0  0
  1  4  1  0  0  0  0
  3  5  1  0  0  0  0
  4 23  1  6  0  0  0
  4  6  1  0  0  0  0
  5  2  1  0  0  0  0
  6 24  1  1  0  0  0
  7  2  1  6  0  0  0
  7  6  1  0  0  0  0
  8  3  1  6  0  0  0
  8  7  1  0  0  0  0
  9 15  1  0  0  0  0
 11 14  2  0  0  0  0
 12 10  2  0  0  0  0
 13 12  1  0  0  0  0
 13 11  1  0  0  0  0
 15 10  1  0  0  0  0
 15 17  1  1  0  0  0
 16  9  1  0  0  0  0
 16 12  1  0  0  0  0
 17 20  2  0  0  0  0
 17 21  1  0  0  0  0
 19 18  2  0  0  0  0
 20 19  1  0  0  0  0
 21 18  1  0  0  0  0
 22 23  1  0  0  0  0
 24 25  1  0  0  0  0
 25 26  1  0  0  0  0
 26 28  1  0  0  0  0
 28 27  1  0  0  0  0
 29 28  1  0  0  0  0
M  END
>  <MODEL>
8

>  <REMARK>
 VINA RESULT:      -6.5      3.760      8.301
  Name = 
  7 active torsions:
  status: ('A' for Active; 'I' for Inactive)
    1  A    between atoms: C_1  and  C_27
    2  A    between atoms: C_4  and  C_5
    3  A    between atoms: N_6  and  C_10
    4  A    between atoms: N_6  and  C_21
    5  A    between atoms: C_10  and  C_19
    6  A    between atoms: C_13  and  C_18
    7  A    between atoms: C_19  and  C_22
                            x       y       z     vdW  Elec       q    Type
                         _______ _______ _______ _____ _____    ______ ____

>  <TORSDO>
F 7

$$$$
=
 OpenBabel10222421073D

 29 32  0  0  1  0  0  0  0  0999 V2000
  185.8740  178.9330  141.9800 C   0  0  2  0  0  3  0  0  0  0  0  0
  186.0080  178.2890  145.3630 C   0  0  0  0  0  2  0  0  0  0  0  0
  184.9270  179.7320  143.8800 O   0  0  0  0  0  0  0  0  0  0  0  0
  187.1810  178.1620  141.9720 C   0  0  2  0  0  3  0  0  0  0  0  0
  184.9920  179.3820  145.2360 C   0  0  0  0  0  2  0  0  0  0  0  0
  187.3780  177.7030  143.3950 C   0  0  1  0  0  3  0  0  0  0  0  0
  185.9850  177.7030  143.9890 C   0  0  2  0  0  3  0  0  0  0  0  0
  185.1260  178.5740  143.1830 N   0  0  2  0  0  0  0  0  0  0  0  0
  180.8340  176.6360  138.5470 S   0  0  0  0  0  0  0  0  0  0  0  0
  183.1620  177.9230  138.6140 N   0  0  0  0  0  0  0  0  0  0  0  0
  185.0600  178.6550  140.7590 C   0  0  0  0  0  0  0  0  0  0  0  0
  182.8610  177.7420  139.8540 C   0  0  0  0  0  0  0  0  0  0  0  0
  183.7460  178.1090  140.9160 N   0  0  0  0  0  2  0  0  0  0  0  0
  185.5460  178.8550  139.6130 O   0  0  0  0  0  0  0  0  0  0  0  0
  182.1730  177.4870  137.6490 C   0  0  1  0  0  3  0  0  0  0  0  0
  181.5570  177.1100  140.1450 C   0  0  0  0  0  2  0  0  0  0  0  0
  182.7860  176.5620  136.6500 C   0  0  0  0  0  0  0  0  0  0  0  0
  183.3190  174.8440  134.9550 C   0  0  0  0  0  3  0  0  0  0  0  0
  184.2520  175.8740  135.0910 C   0  0  0  0  0  3  0  0  0  0  0  0
  183.9480  176.8220  136.0190 N   0  0  0  0  0  0  0  0  0  0  0  0
  182.0790  175.1620  136.0510 S   0  0  0  0  0  0  0  0  0  0  0  0
  189.0500  178.3870  140.2670 C   0  0  0  0  0  1  0  0  0  0  0  0
  188.3480  179.0100  141.4670 C   0  0  0  0  0  2  0  0  0  0  0  0
  187.9240  176.3570  143.4190 N   0  0  0  0  0  2  0  0  0  0  0  0
  189.3250  176.4680  143.8000 C   0  0  0  0  0  2  0  0  0  0  0  0
  189.4930  177.5390  144.8650 C   0  0  0  0  0  2  0  0  0  0  0  0
  191.2040  176.7460  146.4650 C   0  0  0  0  0  1  0  0  0  0  0  0
  189.7190  176.9230  146.2370 C   0  0  0  0  0  3  0  0  0  0  0  0
  189.1540  177.8250  147.3140 C   0  0  0  0  0  1  0  0  0  0  0  0
  1 11  1  6  0  0  0
  1  8  1  0  0  0  0
  3  5  1  0  0  0  0
  4 23  1  1  0  0  0
  4  1  1  0  0  0  0
  4  6  1  0  0  0  0
  5  2  1  0  0  0  0
  6 24  1  6  0  0  0
  6  7  1  0  0  0  0
  7  2  1  1  0  0  0
  8  3  1  1  0  0  0
  8  7  1  0  0  0  0
  9 16  1  0  0  0  0
 10 12  2  0  0  0  0
 11 13  1  0  0  0  0
 12 16  1  0  0  0  0
 12 13  1  0  0  0  0
 14 11  2  0  0  0  0
 15 17  1  6  0  0  0
 15  9  1  0  0  0  0
 15 10  1  0  0  0  0
 18 19  2  0  0  0  0
 18 21  1  0  0  0  0
 19 20  1  0  0  0  0
 20 17  2  0  0  0  0
 21 17  1  0  0  0  0
 22 23  1  0  0  0  0
 24 25  1  0  0  0  0
 25 26  1  0  0  0  0
 26 28  1  0  0  0  0
 28 27  1  0  0  0  0
 28 29  1  0  0  0  0
M  END
>  <MODEL>
9

>  <REMARK>
 VINA RESULT:      -6.3      2.835      3.381
  Name = 
  7 active torsions:
  status: ('A' for Active; 'I' for Inactive)
    1  A    between atoms: C_1  and  C_27
    2  A    between atoms: C_4  and  C_5
    3  A    between atoms: N_6  and  C_10
    4  A    between atoms: N_6  and  C_21
    5  A    between atoms: C_10  and  C_19
    6  A    between atoms: C_13  and  C_18
    7  A    between atoms: C_19  and  C_22
                            x       y       z     vdW  Elec       q    Type
                         _______ _______ _______ _____ _____    ______ ____

>  <TORSDO>
F 7

$$$$
