=
 OpenBabel10222415353D

 54 61  0  0  1  0  0  0  0  0999 V2000
  182.9720  178.8370  143.3260 C   0  0  0  0  0  0  0  0  0  0  0  0
  184.1430  178.5540  145.4480 C   0  0  0  0  0  3  0  0  0  0  0  0
  184.1910  178.6130  142.6800 C   0  0  0  0  0  0  0  0  0  0  0  0
  184.4070  178.6310  141.3570 N   0  0  0  0  0  0  0  0  0  0  0  0
  186.3580  178.1910  142.4530 C   0  0  0  0  0  3  0  0  0  0  0  0
  185.3460  178.3580  143.3770 C   0  0  0  0  0  0  0  0  0  0  0  0
  185.3710  178.3210  144.7870 C   0  0  0  0  0  0  0  0  0  0  0  0
  182.9600  178.8080  144.7280 C   0  0  0  0  0  2  0  0  0  0  0  0
  185.7290  178.3760  141.2200 C   0  0  0  0  0  0  0  0  0  0  0  0
  186.4120  178.2750  139.9080 C   0  0  0  0  0  0  0  0  0  0  0  0
  189.7200  177.1680  138.1210 C   0  0  2  0  0  3  0  0  0  0  0  0
  188.4040  177.4740  140.9870 O   0  0  0  0  0  0  0  0  0  0  0  0
  187.7520  177.8190  139.7880 C   0  0  0  0  0  0  0  0  0  0  0  0
  190.5060  175.1730  136.8330 C   0  0  0  0  0  0  0  0  0  0  0  0
  188.3410  177.7310  138.4790 C   0  0  0  0  0  0  0  0  0  0  0  0
  189.5960  176.1430  137.0110 C   0  0  0  0  0  3  0  0  0  0  0  0
  186.2980  178.6570  137.5180 C   0  0  0  0  0  3  0  0  0  0  0  0
  185.7060  178.6840  138.7720 C   0  0  0  0  0  3  0  0  0  0  0  0
  190.7530  177.6840  140.1710 C   0  0  0  0  0  2  0  0  0  0  0  0
  190.1950  177.4130  142.5020 C   0  0  0  0  0  2  0  0  0  0  0  0
  187.5970  178.1880  137.3800 C   0  0  0  0  0  3  0  0  0  0  0  0
  191.7910  176.1920  138.7370 C   0  0  0  0  0  2  0  0  0  0  0  0
  190.4870  176.6130  139.2400 N   0  0  2  0  0  0  0  0  0  0  0  0
  189.7700  177.5450  141.2560 C   0  0  0  0  0  0  0  0  0  0  0  0
  191.6270  174.9760  137.8280 C   0  0  0  0  0  2  0  0  0  0  0  0
  190.2870  174.1680  135.7350 C   0  0  1  0  0  3  0  0  0  0  0  0
  191.1090  173.0500  135.9000 O   0  0  0  0  0  1  0  0  0  0  0  0
  188.8900  173.7550  135.6730 N   0  0  0  0  0  0  0  0  0  0  0  0
  187.3230  172.5760  137.1230 C   0  0  0  0  0  3  0  0  0  0  0  0
  186.6000  174.8890  136.5190 N   0  0  0  0  0  2  0  0  0  0  0  0
  188.0330  174.2800  134.6030 C   0  0  0  0  0  2  0  0  0  0  0  0
  188.4960  172.6410  136.4830 C   0  0  0  0  0  3  0  0  0  0  0  0
  186.3600  173.6420  137.1230 N   0  0  0  0  0  2  0  0  0  0  0  0
  186.6310  174.6670  135.0820 C   0  0  0  0  0  2  0  0  0  0  0  0
  186.6830  178.4350  146.9440 C   0  0  0  0  0  3  0  0  0  0  0  0
  188.9430  177.5750  147.0750 C   0  0  0  0  0  3  0  0  0  0  0  0
  186.6050  178.0750  145.5870 C   0  0  0  0  0  0  0  0  0  0  0  0
  187.7220  177.4680  144.9890 C   0  0  0  0  0  3  0  0  0  0  0  0
  188.8830  177.2190  145.7260 C   0  0  0  0  0  3  0  0  0  0  0  0
  187.8430  178.1870  147.6830 C   0  0  0  0  0  3  0  0  0  0  0  0
  181.7730  179.1000  142.5890 N   0  0  0  0  0  0  0  0  0  0  0  0
  180.6540  179.5220  143.2430 O   0  0  0  0  0  0  0  0  0  0  0  0
  179.9330  178.3610  143.5520 C   0  0  0  0  0  2  0  0  0  0  0  0
  178.9800  178.6450  144.6080 N   0  0  0  0  0  1  0  0  0  0  0  0
  181.7950  178.9930  141.1250 C   0  0  0  0  0  2  0  0  0  0  0  0
  178.9570  178.1150  138.8090 C   0  0  0  0  0  2  0  0  0  0  0  0
  179.8890  176.6920  140.5910 C   0  0  0  0  0  1  0  0  0  0  0  0
  179.8540  180.3440  138.4410 C   0  0  0  0  0  0  0  0  0  0  0  0
  180.3070  180.3990  139.8750 C   0  0  1  0  0  3  0  0  0  0  0  0
  180.1710  177.8890  139.6990 C   0  0  2  0  0  3  0  0  0  0  0  0
  179.2160  179.2090  137.9470 O   0  0  0  0  0  0  0  0  0  0  0  0
  180.0340  181.3340  137.6870 O   0  0  0  0  0  0  0  0  0  0  0  0
  179.3500  181.2580  140.6850 C   0  0  0  0  0  1  0  0  0  0  0  0
  180.4530  179.0790  140.5290 N   0  0  0  0  0  0  0  0  0  0  0  0
  1  8  1  0  0  0  0
  3  1  2  0  0  0  0
  3  6  1  0  0  0  0
  4  3  1  0  0  0  0
  5  6  2  0  0  0  0
  6  7  1  0  0  0  0
  7  2  2  0  0  0  0
  7 37  1  0  0  0  0
  8  2  1  0  0  0  0
  9  4  2  0  0  0  0
  9  5  1  0  0  0  0
 10  9  1  0  0  0  0
 11 16  1  6  0  0  0
 11 15  1  0  0  0  0
 11 23  1  0  0  0  0
 12 24  1  0  0  0  0
 13 10  1  0  0  0  0
 13 12  1  0  0  0  0
 14 16  2  0  0  0  0
 14 25  1  0  0  0  0
 15 13  2  0  0  0  0
 17 18  1  0  0  0  0
 18 10  2  0  0  0  0
 19 24  1  0  0  0  0
 21 17  2  0  0  0  0
 21 15  1  0  0  0  0
 23 22  1  6  0  0  0
 23 19  1  0  0  0  0
 24 20  2  0  0  0  0
 25 22  1  0  0  0  0
 26 27  1  1  0  0  0
 26 14  1  0  0  0  0
 28 26  1  0  0  0  0
 28 32  1  0  0  0  0
 29 33  1  0  0  0  0
 30 33  1  0  0  0  0
 31 34  1  0  0  0  0
 31 28  1  0  0  0  0
 32 29  2  0  0  0  0
 34 30  1  0  0  0  0
 35 40  1  0  0  0  0
 36 40  2  0  0  0  0
 37 35  2  0  0  0  0
 38 37  1  0  0  0  0
 38 39  2  0  0  0  0
 39 36  1  0  0  0  0
 41 42  1  0  0  0  0
 41  1  1  0  0  0  0
 42 43  1  0  0  0  0
 43 44  1  0  0  0  0
 45 41  1  0  0  0  0
 46 50  1  0  0  0  0
 48 49  1  0  0  0  0
 49 54  1  0  0  0  0
 49 53  1  1  0  0  0
 50 54  1  0  0  0  0
 50 47  1  1  0  0  0
 51 48  1  0  0  0  0
 51 46  1  0  0  0  0
 52 48  2  0  0  0  0
 54 45  1  0  0  0  0
M  END
>  <MODEL>
1

>  <REMARK>
 VINA RESULT:     -10.5      0.000      0.000
  Name = 
  9 active torsions:
  status: ('A' for Active; 'I' for Inactive)
    1  A    between atoms: N_1  and  C_14
    2  A    between atoms: C_3  and  N_19
    3  A    between atoms: C_5  and  C_52
    4  A    between atoms: C_14  and  C_20
    5  A    between atoms: N_19  and  O_29
    6  A    between atoms: N_19  and  C_38
    7  A    between atoms: C_23  and  O_29
    8  A    between atoms: C_28  and  C_42
    9  A    between atoms: C_38  and  N_51
                            x       y       z     vdW  Elec       q    Type
                         _______ _______ _______ _____ _____    ______ ____

>  <TORSDO>
F 9

$$$$
=
 OpenBabel10222415353D

 54 61  0  0  1  0  0  0  0  0999 V2000
  181.9810  178.8690  142.0520 C   0  0  0  0  0  0  0  0  0  0  0  0
  182.8420  178.7250  144.3310 C   0  0  0  0  0  3  0  0  0  0  0  0
  183.2850  178.6590  141.5980 C   0  0  0  0  0  0  0  0  0  0  0  0
  183.6890  178.6250  140.3210 N   0  0  0  0  0  0  0  0  0  0  0  0
  185.4740  178.3040  141.7030 C   0  0  0  0  0  3  0  0  0  0  0  0
  184.3350  178.4770  142.4640 C   0  0  0  0  0  0  0  0  0  0  0  0
  184.1580  178.5050  143.8640 C   0  0  0  0  0  0  0  0  0  0  0  0
  181.7680  178.9040  143.4380 C   0  0  0  0  0  2  0  0  0  0  0  0
  185.0230  178.4100  140.3850 C   0  0  0  0  0  0  0  0  0  0  0  0
  185.8910  178.2740  139.1910 C   0  0  0  0  0  0  0  0  0  0  0  0
  189.4850  177.3080  137.9630 C   0  0  2  0  0  3  0  0  0  0  0  0
  187.7600  177.7060  140.5910 O   0  0  0  0  0  0  0  0  0  0  0  0
  187.2620  177.9160  139.2900 C   0  0  0  0  0  0  0  0  0  0  0  0
  190.5800  175.2970  136.9540 C   0  0  0  0  0  0  0  0  0  0  0  0
  188.0350  177.7850  138.0860 C   0  0  0  0  0  0  0  0  0  0  0  0
  189.5900  176.2030  136.9300 C   0  0  0  0  0  3  0  0  0  0  0  0
  186.0910  178.4810  136.7850 C   0  0  0  0  0  3  0  0  0  0  0  0
  185.3270  178.5470  137.9410 C   0  0  0  0  0  3  0  0  0  0  0  0
  190.1800  178.0420  140.0880 C   0  0  0  0  0  2  0  0  0  0  0  0
  189.3180  177.8870  142.3360 C   0  0  0  0  0  2  0  0  0  0  0  0
  187.4250  178.1070  136.8630 C   0  0  0  0  0  3  0  0  0  0  0  0
  191.5100  176.5410  138.9300 C   0  0  0  0  0  2  0  0  0  0  0  0
  190.1220  176.8920  139.2170 N   0  0  2  0  0  0  0  0  0  0  0  0
  189.0660  177.9010  141.0370 C   0  0  0  0  0  0  0  0  0  0  0  0
  191.5590  175.2560  138.1050 C   0  0  0  0  0  2  0  0  0  0  0  0
  190.5860  174.2060  135.9190 C   0  0  1  0  0  3  0  0  0  0  0  0
  189.7110  174.4990  134.8700 O   0  0  0  0  0  1  0  0  0  0  0  0
  191.9300  173.9820  135.3990 N   0  0  0  0  0  0  0  0  0  0  0  0
  193.8010  175.3640  134.6670 C   0  0  0  0  0  3  0  0  0  0  0  0
  194.3510  173.8400  136.5690 N   0  0  0  0  0  2  0  0  0  0  0  0
  192.5060  172.6330  135.4570 C   0  0  0  0  0  2  0  0  0  0  0  0
  192.5090  175.0220  134.6030 C   0  0  0  0  0  3  0  0  0  0  0  0
  194.7320  174.7740  135.5880 N   0  0  0  0  0  2  0  0  0  0  0  0
  193.9800  172.6190  135.8720 C   0  0  0  0  0  2  0  0  0  0  0  0
  186.4670  177.6890  144.4890 C   0  0  0  0  0  3  0  0  0  0  0  0
  187.3620  178.0610  146.7080 C   0  0  0  0  0  3  0  0  0  0  0  0
  185.2710  178.3380  144.8430 C   0  0  0  0  0  0  0  0  0  0  0  0
  185.1400  178.8380  146.1490 C   0  0  0  0  0  3  0  0  0  0  0  0
  186.1770  178.7010  147.0760 C   0  0  0  0  0  3  0  0  0  0  0  0
  187.5050  177.5520  145.4140 C   0  0  0  0  0  3  0  0  0  0  0  0
  180.8930  179.0560  141.1400 N   0  0  0  0  0  0  0  0  0  0  0  0
  180.7840  180.2230  140.4440 O   0  0  0  0  0  0  0  0  0  0  0  0
  179.6490  180.8670  140.9550 C   0  0  0  0  0  2  0  0  0  0  0  0
  179.2810  181.9690  140.0860 N   0  0  0  0  0  1  0  0  0  0  0  0
  179.9580  177.9490  140.9060 C   0  0  0  0  0  2  0  0  0  0  0  0
  179.0860  176.4360  137.5680 C   0  0  0  0  0  2  0  0  0  0  0  0
  178.9320  178.8160  138.1850 C   0  0  0  0  0  1  0  0  0  0  0  0
  179.9050  174.8140  139.1830 C   0  0  0  0  0  0  0  0  0  0  0  0
  180.6750  175.9010  139.8840 C   0  0  1  0  0  3  0  0  0  0  0  0
  179.0080  177.4050  138.7400 C   0  0  2  0  0  3  0  0  0  0  0  0
  179.1240  175.1110  138.0690 O   0  0  0  0  0  0  0  0  0  0  0  0
  179.9800  173.6270  139.5920 O   0  0  0  0  0  0  0  0  0  0  0  0
  182.1460  175.8090  139.5160 C   0  0  0  0  0  1  0  0  0  0  0  0
  180.1880  177.2740  139.6200 N   0  0  0  0  0  0  0  0  0  0  0  0
  1  8  1  0  0  0  0
  3  1  2  0  0  0  0
  3  6  1  0  0  0  0
  4  9  2  0  0  0  0
  4  3  1  0  0  0  0
  5  6  2  0  0  0  0
  6  7  1  0  0  0  0
  7  2  2  0  0  0  0
  7 37  1  0  0  0  0
  8  2  1  0  0  0  0
  9  5  1  0  0  0  0
 10 13  1  0  0  0  0
 10  9  1  0  0  0  0
 11 16  1  6  0  0  0
 11 15  1  0  0  0  0
 11 23  1  0  0  0  0
 12 24  1  0  0  0  0
 13 12  1  0  0  0  0
 14 25  1  0  0  0  0
 15 13  2  0  0  0  0
 16 14  2  0  0  0  0
 17 21  2  0  0  0  0
 17 18  1  0  0  0  0
 18 10  2  0  0  0  0
 19 24  1  0  0  0  0
 21 15  1  0  0  0  0
 23 22  1  6  0  0  0
 23 19  1  0  0  0  0
 24 20  2  0  0  0  0
 25 22  1  0  0  0  0
 26 27  1  6  0  0  0
 26 14  1  0  0  0  0
 28 31  1  0  0  0  0
 28 26  1  0  0  0  0
 29 33  1  0  0  0  0
 31 34  1  0  0  0  0
 32 29  2  0  0  0  0
 32 28  1  0  0  0  0
 33 30  1  0  0  0  0
 34 30  1  0  0  0  0
 35 37  2  0  0  0  0
 35 40  1  0  0  0  0
 36 39  1  0  0  0  0
 37 38  1  0  0  0  0
 38 39  2  0  0  0  0
 40 36  2  0  0  0  0
 41  1  1  0  0  0  0
 42 43  1  0  0  0  0
 42 41  1  0  0  0  0
 44 43  1  0  0  0  0
 45 41  1  0  0  0  0
 46 51  1  0  0  0  0
 46 50  1  0  0  0  0
 48 52  2  0  0  0  0
 48 49  1  0  0  0  0
 49 53  1  6  0  0  0
 50 47  1  6  0  0  0
 50 54  1  0  0  0  0
 51 48  1  0  0  0  0
 54 49  1  0  0  0  0
 54 45  1  0  0  0  0
M  END
>  <MODEL>
2

>  <REMARK>
 VINA RESULT:     -10.4      2.104      3.417
  Name = 
  9 active torsions:
  status: ('A' for Active; 'I' for Inactive)
    1  A    between atoms: N_1  and  C_14
    2  A    between atoms: C_3  and  N_19
    3  A    between atoms: C_5  and  C_52
    4  A    between atoms: C_14  and  C_20
    5  A    between atoms: N_19  and  O_29
    6  A    between atoms: N_19  and  C_38
    7  A    between atoms: C_23  and  O_29
    8  A    between atoms: C_28  and  C_42
    9  A    between atoms: C_38  and  N_51
                            x       y       z     vdW  Elec       q    Type
                         _______ _______ _______ _____ _____    ______ ____

>  <TORSDO>
F 9

$$$$
=
 OpenBabel10222415353D

 54 61  0  0  1  0  0  0  0  0999 V2000
  182.1510  178.9270  141.7410 C   0  0  0  0  0  0  0  0  0  0  0  0
  182.9250  178.7530  144.0480 C   0  0  0  0  0  3  0  0  0  0  0  0
  183.4720  178.7260  141.3340 C   0  0  0  0  0  0  0  0  0  0  0  0
  183.9240  178.7110  140.0720 N   0  0  0  0  0  0  0  0  0  0  0  0
  185.6560  178.3740  141.5170 C   0  0  0  0  0  3  0  0  0  0  0  0
  184.4890  178.5340  142.2370 C   0  0  0  0  0  0  0  0  0  0  0  0
  184.2590  178.5420  143.6290 C   0  0  0  0  0  0  0  0  0  0  0  0
  181.8860  178.9420  143.1180 C   0  0  0  0  0  2  0  0  0  0  0  0
  185.2560  178.4980  140.1850 C   0  0  0  0  0  0  0  0  0  0  0  0
  186.1680  178.3800  139.0220 C   0  0  0  0  0  0  0  0  0  0  0  0
  189.7570  177.2820  137.8920 C   0  0  2  0  0  3  0  0  0  0  0  0
  187.9370  177.6270  140.4640 O   0  0  0  0  0  0  0  0  0  0  0  0
  187.5120  177.9400  139.1580 C   0  0  0  0  0  0  0  0  0  0  0  0
  190.7840  175.2720  136.8130 C   0  0  0  0  0  0  0  0  0  0  0  0
  188.3310  177.8330  137.9820 C   0  0  0  0  0  0  0  0  0  0  0  0
  189.8480  176.2330  136.8010 C   0  0  0  0  0  3  0  0  0  0  0  0
  186.4890  178.7130  136.6440 C   0  0  0  0  0  3  0  0  0  0  0  0
  185.6780  178.7570  137.7680 C   0  0  0  0  0  3  0  0  0  0  0  0
  190.3930  177.8520  140.0850 C   0  0  0  0  0  2  0  0  0  0  0  0
  189.4210  177.6190  142.2810 C   0  0  0  0  0  2  0  0  0  0  0  0
  187.7960  178.2590  136.7550 C   0  0  0  0  0  3  0  0  0  0  0  0
  191.6900  176.3460  138.8970 C   0  0  0  0  0  2  0  0  0  0  0  0
  190.3120  176.7590  139.1450 N   0  0  2  0  0  0  0  0  0  0  0  0
  189.2300  177.7210  140.9760 C   0  0  0  0  0  0  0  0  0  0  0  0
  191.7050  175.1090  138.0000 C   0  0  0  0  0  2  0  0  0  0  0  0
  190.7780  174.2430  135.7160 C   0  0  1  0  0  3  0  0  0  0  0  0
  191.6060  173.1630  136.0310 O   0  0  0  0  0  1  0  0  0  0  0  0
  189.4250  173.7720  135.4450 N   0  0  0  0  0  0  0  0  0  0  0  0
  187.9610  172.0070  136.2780 C   0  0  0  0  0  3  0  0  0  0  0  0
  187.0350  174.3100  136.5620 N   0  0  0  0  0  2  0  0  0  0  0  0
  188.5320  174.5920  134.6180 C   0  0  0  0  0  2  0  0  0  0  0  0
  189.1290  172.4060  135.7590 C   0  0  0  0  0  3  0  0  0  0  0  0
  186.9060  172.9110  136.6400 N   0  0  0  0  0  2  0  0  0  0  0  0
  187.0960  174.6530  135.1500 C   0  0  0  0  0  2  0  0  0  0  0  0
  185.2470  178.9610  145.9170 C   0  0  0  0  0  3  0  0  0  0  0  0
  187.3730  177.9920  146.5530 C   0  0  0  0  0  3  0  0  0  0  0  0
  185.3340  178.3650  144.6460 C   0  0  0  0  0  0  0  0  0  0  0  0
  186.4650  177.5860  144.3480 C   0  0  0  0  0  3  0  0  0  0  0  0
  187.4770  177.4000  145.2930 C   0  0  0  0  0  3  0  0  0  0  0  0
  186.2590  178.7760  146.8640 C   0  0  0  0  0  3  0  0  0  0  0  0
  181.0980  179.1250  140.7910 N   0  0  0  0  0  0  0  0  0  0  0  0
  180.9600  180.3310  140.1720 O   0  0  0  0  0  0  0  0  0  0  0  0
  179.7170  180.8300  140.5830 C   0  0  0  0  0  2  0  0  0  0  0  0
  179.3730  181.9960  139.7910 N   0  0  0  0  0  1  0  0  0  0  0  0
  180.2340  177.9920  140.4360 C   0  0  0  0  0  2  0  0  0  0  0  0
  179.9050  176.6210  136.9430 C   0  0  0  0  0  2  0  0  0  0  0  0
  179.8200  178.9940  137.6020 C   0  0  0  0  0  1  0  0  0  0  0  0
  180.2710  174.9060  138.6260 C   0  0  0  0  0  0  0  0  0  0  0  0
  180.9730  175.9120  139.4980 C   0  0  1  0  0  3  0  0  0  0  0  0
  179.6780  177.5700  138.1120 C   0  0  2  0  0  3  0  0  0  0  0  0
  179.7440  175.2880  137.3950 O   0  0  0  0  0  0  0  0  0  0  0  0
  180.1740  173.7100  139.0000 O   0  0  0  0  0  0  0  0  0  0  0  0
  182.4770  175.7060  139.4120 C   0  0  0  0  0  1  0  0  0  0  0  0
  180.6540  177.3250  139.1940 N   0  0  0  0  0  0  0  0  0  0  0  0
  1  8  1  0  0  0  0
  3  1  2  0  0  0  0
  3  6  1  0  0  0  0
  4  9  2  0  0  0  0
  4  3  1  0  0  0  0
  5  6  2  0  0  0  0
  6  7  1  0  0  0  0
  7  2  2  0  0  0  0
  7 37  1  0  0  0  0
  8  2  1  0  0  0  0
  9  5  1  0  0  0  0
 10 13  1  0  0  0  0
 10  9  1  0  0  0  0
 11 16  1  6  0  0  0
 11 15  1  0  0  0  0
 11 23  1  0  0  0  0
 12 24  1  0  0  0  0
 13 12  1  0  0  0  0
 14 25  1  0  0  0  0
 15 13  2  0  0  0  0
 16 14  2  0  0  0  0
 17 21  2  0  0  0  0
 17 18  1  0  0  0  0
 18 10  2  0  0  0  0
 19 24  1  0  0  0  0
 21 15  1  0  0  0  0
 23 22  1  6  0  0  0
 23 19  1  0  0  0  0
 24 20  2  0  0  0  0
 25 22  1  0  0  0  0
 26 27  1  1  0  0  0
 26 14  1  0  0  0  0
 28 26  1  0  0  0  0
 28 32  1  0  0  0  0
 29 33  1  0  0  0  0
 30 33  1  0  0  0  0
 31 34  1  0  0  0  0
 31 28  1  0  0  0  0
 32 29  2  0  0  0  0
 34 30  1  0  0  0  0
 35 40  1  0  0  0  0
 36 40  2  0  0  0  0
 37 35  2  0  0  0  0
 38 37  1  0  0  0  0
 38 39  2  0  0  0  0
 39 36  1  0  0  0  0
 41  1  1  0  0  0  0
 42 43  1  0  0  0  0
 42 41  1  0  0  0  0
 44 43  1  0  0  0  0
 45 41  1  0  0  0  0
 46 51  1  0  0  0  0
 46 50  1  0  0  0  0
 48 52  2  0  0  0  0
 48 49  1  0  0  0  0
 49 53  1  6  0  0  0
 50 47  1  6  0  0  0
 50 54  1  0  0  0  0
 51 48  1  0  0  0  0
 54 49  1  0  0  0  0
 54 45  1  0  0  0  0
M  END
>  <MODEL>
3

>  <REMARK>
 VINA RESULT:     -10.2      1.527      2.414
  Name = 
  9 active torsions:
  status: ('A' for Active; 'I' for Inactive)
    1  A    between atoms: N_1  and  C_14
    2  A    between atoms: C_3  and  N_19
    3  A    between atoms: C_5  and  C_52
    4  A    between atoms: C_14  and  C_20
    5  A    between atoms: N_19  and  O_29
    6  A    between atoms: N_19  and  C_38
    7  A    between atoms: C_23  and  O_29
    8  A    between atoms: C_28  and  C_42
    9  A    between atoms: C_38  and  N_51
                            x       y       z     vdW  Elec       q    Type
                         _______ _______ _______ _____ _____    ______ ____

>  <TORSDO>
F 9

$$$$
=
 OpenBabel10222415353D

 54 61  0  0  1  0  0  0  0  0999 V2000
  183.1690  178.6580  142.5530 C   0  0  0  0  0  0  0  0  0  0  0  0
  184.1170  178.4550  144.7920 C   0  0  0  0  0  3  0  0  0  0  0  0
  184.4590  178.4920  142.0440 C   0  0  0  0  0  0  0  0  0  0  0  0
  184.8150  178.5110  140.7520 N   0  0  0  0  0  0  0  0  0  0  0  0
  186.6570  178.1840  142.0560 C   0  0  0  0  0  3  0  0  0  0  0  0
  185.5440  178.3050  142.8640 C   0  0  0  0  0  0  0  0  0  0  0  0
  185.4190  178.2810  144.2700 C   0  0  0  0  0  0  0  0  0  0  0  0
  183.0070  178.6400  143.9460 C   0  0  0  0  0  2  0  0  0  0  0  0
  186.1550  178.3250  140.7600 C   0  0  0  0  0  0  0  0  0  0  0  0
  186.9810  178.2490  139.5310 C   0  0  0  0  0  0  0  0  0  0  0  0
  190.4530  177.1380  138.0930 C   0  0  2  0  0  3  0  0  0  0  0  0
  188.8290  177.3870  140.8020 O   0  0  0  0  0  0  0  0  0  0  0  0
  188.3190  177.7750  139.5480 C   0  0  0  0  0  0  0  0  0  0  0  0
  191.3540  175.1660  136.8440 C   0  0  0  0  0  0  0  0  0  0  0  0
  189.0500  177.7120  138.3120 C   0  0  0  0  0  0  0  0  0  0  0  0
  190.4420  176.1450  136.9470 C   0  0  0  0  0  3  0  0  0  0  0  0
  187.1400  178.6970  137.1550 C   0  0  0  0  0  3  0  0  0  0  0  0
  186.4120  178.6990  138.3350 C   0  0  0  0  0  3  0  0  0  0  0  0
  191.2560  177.5820  140.2600 C   0  0  0  0  0  2  0  0  0  0  0  0
  190.4370  177.2560  142.5050 C   0  0  0  0  0  2  0  0  0  0  0  0
  188.4400  178.2120  137.1500 C   0  0  0  0  0  3  0  0  0  0  0  0
  192.4300  176.1130  138.9080 C   0  0  0  0  0  2  0  0  0  0  0  0
  191.0830  176.5410  139.2750 N   0  0  2  0  0  0  0  0  0  0  0  0
  190.1560  177.4290  141.2240 C   0  0  0  0  0  0  0  0  0  0  0  0
  192.3520  174.9240  137.9520 C   0  0  0  0  0  2  0  0  0  0  0  0
  191.2450  174.1960  135.7000 C   0  0  1  0  0  3  0  0  0  0  0  0
  190.4830  174.7260  134.6560 O   0  0  0  0  0  1  0  0  0  0  0  0
  192.5640  173.8110  135.2090 N   0  0  0  0  0  0  0  0  0  0  0  0
  194.6830  174.9310  134.7590 C   0  0  0  0  0  3  0  0  0  0  0  0
  194.8460  173.0960  136.4460 N   0  0  0  0  0  2  0  0  0  0  0  0
  192.9010  172.3870  135.0980 C   0  0  0  0  0  2  0  0  0  0  0  0
  193.3590  174.8310  134.5940 C   0  0  0  0  0  3  0  0  0  0  0  0
  195.4400  174.0700  135.6240 N   0  0  0  0  0  2  0  0  0  0  0  0
  194.3220  172.0610  135.5670 C   0  0  0  0  0  2  0  0  0  0  0  0
  187.8150  177.6340  144.7460 C   0  0  0  0  0  3  0  0  0  0  0  0
  188.7330  177.8110  146.9800 C   0  0  0  0  0  3  0  0  0  0  0  0
  186.5710  178.1070  145.2000 C   0  0  0  0  0  0  0  0  0  0  0  0
  186.4300  178.4200  146.5620 C   0  0  0  0  0  3  0  0  0  0  0  0
  187.5020  178.2740  147.4470 C   0  0  0  0  0  3  0  0  0  0  0  0
  188.8890  177.4870  145.6290 C   0  0  0  0  0  3  0  0  0  0  0  0
  182.0430  178.8510  141.6880 N   0  0  0  0  0  0  0  0  0  0  0  0
  180.7820  178.6500  142.1620 O   0  0  0  0  0  0  0  0  0  0  0  0
  180.3220  179.9090  142.5710 C   0  0  0  0  0  2  0  0  0  0  0  0
  178.9340  179.8120  142.9810 N   0  0  0  0  0  1  0  0  0  0  0  0
  182.2660  179.3480  140.3250 C   0  0  0  0  0  2  0  0  0  0  0  0
  181.2650  177.3120  137.3180 C   0  0  0  0  0  2  0  0  0  0  0  0
  182.2760  176.4590  139.3960 C   0  0  0  0  0  1  0  0  0  0  0  0
  180.7840  179.6840  137.0860 C   0  0  0  0  0  0  0  0  0  0  0  0
  180.6840  179.8100  138.5830 C   0  0  1  0  0  3  0  0  0  0  0  0
  182.0670  177.7040  138.5510 C   0  0  2  0  0  3  0  0  0  0  0  0
  181.0880  178.4570  136.5020 O   0  0  0  0  0  0  0  0  0  0  0  0
  180.5750  180.6860  136.3560 O   0  0  0  0  0  0  0  0  0  0  0  0
  179.2230  179.8750  138.9970 C   0  0  0  0  0  1  0  0  0  0  0  0
  181.3610  178.7340  139.3420 N   0  0  0  0  0  0  0  0  0  0  0  0
  1  8  1  0  0  0  0
  3  1  2  0  0  0  0
  3  6  1  0  0  0  0
  4  9  2  0  0  0  0
  4  3  1  0  0  0  0
  5  6  2  0  0  0  0
  6  7  1  0  0  0  0
  7  2  2  0  0  0  0
  7 37  1  0  0  0  0
  8  2  1  0  0  0  0
  9  5  1  0  0  0  0
 10 13  1  0  0  0  0
 10  9  1  0  0  0  0
 11 16  1  6  0  0  0
 11 15  1  0  0  0  0
 11 23  1  0  0  0  0
 12 24  1  0  0  0  0
 13 12  1  0  0  0  0
 14 16  2  0  0  0  0
 14 25  1  0  0  0  0
 15 13  2  0  0  0  0
 17 18  1  0  0  0  0
 18 10  2  0  0  0  0
 19 24  1  0  0  0  0
 21 17  2  0  0  0  0
 21 15  1  0  0  0  0
 23 22  1  6  0  0  0
 23 19  1  0  0  0  0
 24 20  2  0  0  0  0
 25 22  1  0  0  0  0
 26 27  1  6  0  0  0
 26 14  1  0  0  0  0
 28 26  1  0  0  0  0
 29 33  1  0  0  0  0
 31 28  1  0  0  0  0
 31 34  1  0  0  0  0
 32 29  2  0  0  0  0
 32 28  1  0  0  0  0
 33 30  1  0  0  0  0
 34 30  1  0  0  0  0
 35 37  2  0  0  0  0
 35 40  1  0  0  0  0
 36 39  1  0  0  0  0
 37 38  1  0  0  0  0
 38 39  2  0  0  0  0
 40 36  2  0  0  0  0
 41 42  1  0  0  0  0
 41  1  1  0  0  0  0
 42 43  1  0  0  0  0
 43 44  1  0  0  0  0
 45 41  1  0  0  0  0
 46 50  1  0  0  0  0
 48 49  1  0  0  0  0
 49 53  1  6  0  0  0
 49 54  1  0  0  0  0
 50 54  1  0  0  0  0
 50 47  1  1  0  0  0
 51 48  1  0  0  0  0
 51 46  1  0  0  0  0
 52 48  2  0  0  0  0
 54 45  1  0  0  0  0
M  END
>  <MODEL>
4

>  <REMARK>
 VINA RESULT:      -9.7      2.010      2.902
  Name = 
  9 active torsions:
  status: ('A' for Active; 'I' for Inactive)
    1  A    between atoms: N_1  and  C_14
    2  A    between atoms: C_3  and  N_19
    3  A    between atoms: C_5  and  C_52
    4  A    between atoms: C_14  and  C_20
    5  A    between atoms: N_19  and  O_29
    6  A    between atoms: N_19  and  C_38
    7  A    between atoms: C_23  and  O_29
    8  A    between atoms: C_28  and  C_42
    9  A    between atoms: C_38  and  N_51
                            x       y       z     vdW  Elec       q    Type
                         _______ _______ _______ _____ _____    ______ ____

>  <TORSDO>
F 9

$$$$
=
 OpenBabel10222415353D

 54 61  0  0  1  0  0  0  0  0999 V2000
  183.7130  178.9550  141.0630 C   0  0  0  0  0  0  0  0  0  0  0  0
  184.2800  178.5870  143.4080 C   0  0  0  0  0  3  0  0  0  0  0  0
  185.0330  178.6260  140.7430 C   0  0  0  0  0  0  0  0  0  0  0  0
  185.5780  178.6190  139.5190 N   0  0  0  0  0  0  0  0  0  0  0  0
  187.1440  178.0230  141.0650 C   0  0  0  0  0  3  0  0  0  0  0  0
  185.9480  178.2790  141.7060 C   0  0  0  0  0  0  0  0  0  0  0  0
  185.6110  178.2470  143.0760 C   0  0  0  0  0  0  0  0  0  0  0  0
  183.3430  178.9350  142.4160 C   0  0  0  0  0  2  0  0  0  0  0  0
  186.8660  178.2530  139.7170 C   0  0  0  0  0  0  0  0  0  0  0  0
  187.8490  178.0870  138.6190 C   0  0  0  0  0  0  0  0  0  0  0  0
  191.4900  176.9210  137.7580 C   0  0  2  0  0  3  0  0  0  0  0  0
  189.5150  177.3700  140.1950 O   0  0  0  0  0  0  0  0  0  0  0  0
  189.1760  177.6410  138.8550 C   0  0  0  0  0  0  0  0  0  0  0  0
  192.5630  174.8670  136.8150 C   0  0  0  0  0  0  0  0  0  0  0  0
  190.0670  177.4870  137.7380 C   0  0  0  0  0  0  0  0  0  0  0  0
  191.6390  175.8350  136.7110 C   0  0  0  0  0  3  0  0  0  0  0  0
  188.3230  178.3350  136.2560 C   0  0  0  0  0  3  0  0  0  0  0  0
  187.4430  178.4240  137.3240 C   0  0  0  0  0  3  0  0  0  0  0  0
  191.9920  177.5610  139.9660 C   0  0  0  0  0  2  0  0  0  0  0  0
  190.8810  177.4120  142.1020 C   0  0  0  0  0  2  0  0  0  0  0  0
  189.6150  177.8750  136.4660 C   0  0  0  0  0  3  0  0  0  0  0  0
  193.3460  176.0040  138.9150 C   0  0  0  0  0  2  0  0  0  0  0  0
  191.9590  176.4380  139.0610 N   0  0  2  0  0  0  0  0  0  0  0  0
  190.7740  177.4710  140.7850 C   0  0  0  0  0  0  0  0  0  0  0  0
  193.4050  174.7380  138.0630 C   0  0  0  0  0  2  0  0  0  0  0  0
  192.6150  173.8010  135.7550 C   0  0  1  0  0  3  0  0  0  0  0  0
  191.9540  174.2090  134.5940 O   0  0  0  0  0  1  0  0  0  0  0  0
  193.9920  173.4360  135.4440 N   0  0  0  0  0  0  0  0  0  0  0  0
  196.0300  174.6030  134.7840 C   0  0  0  0  0  3  0  0  0  0  0  0
  196.2410  173.3250  136.9200 N   0  0  0  0  0  2  0  0  0  0  0  0
  194.4610  172.0790  135.7470 C   0  0  0  0  0  2  0  0  0  0  0  0
  194.7330  174.3260  134.6010 C   0  0  0  0  0  3  0  0  0  0  0  0
  196.8000  174.0950  135.8840 N   0  0  0  0  0  2  0  0  0  0  0  0
  195.8710  172.0420  136.3440 C   0  0  0  0  0  2  0  0  0  0  0  0
  186.3240  178.2340  145.5010 C   0  0  0  0  0  3  0  0  0  0  0  0
  188.4140  177.2180  146.1800 C   0  0  0  0  0  3  0  0  0  0  0  0
  186.5780  177.9030  144.1580 C   0  0  0  0  0  0  0  0  0  0  0  0
  187.7710  177.2310  143.8480 C   0  0  0  0  0  3  0  0  0  0  0  0
  188.6840  176.8890  144.8510 C   0  0  0  0  0  3  0  0  0  0  0  0
  187.2340  177.8940  146.5050 C   0  0  0  0  0  3  0  0  0  0  0  0
  182.7660  179.3140  140.0510 N   0  0  0  0  0  0  0  0  0  0  0  0
  183.1680  180.0430  138.9730 O   0  0  0  0  0  0  0  0  0  0  0  0
  182.1460  180.9730  138.7380 C   0  0  0  0  0  2  0  0  0  0  0  0
  182.7010  182.3130  138.7180 N   0  0  0  0  0  1  0  0  0  0  0  0
  181.3890  178.8140  140.1520 C   0  0  0  0  0  2  0  0  0  0  0  0
  179.3250  176.6800  137.8320 C   0  0  0  0  0  2  0  0  0  0  0  0
  179.8670  179.0650  137.5380 C   0  0  0  0  0  1  0  0  0  0  0  0
  180.1850  175.4680  139.7570 C   0  0  0  0  0  0  0  0  0  0  0  0
  181.3350  176.4350  139.8520 C   0  0  1  0  0  3  0  0  0  0  0  0
  179.7850  177.9390  138.5540 C   0  0  2  0  0  3  0  0  0  0  0  0
  179.2120  175.6270  138.7730 O   0  0  0  0  0  0  0  0  0  0  0  0
  180.1100  174.5010  140.5560 O   0  0  0  0  0  0  0  0  0  0  0  0
  182.5920  175.7970  139.2830 C   0  0  0  0  0  1  0  0  0  0  0  0
  181.1040  177.7380  139.1890 N   0  0  0  0  0  0  0  0  0  0  0  0
  1  8  1  0  0  0  0
  3  1  2  0  0  0  0
  3  6  1  0  0  0  0
  4  9  2  0  0  0  0
  4  3  1  0  0  0  0
  5  6  2  0  0  0  0
  6  7  1  0  0  0  0
  7  2  2  0  0  0  0
  7 37  1  0  0  0  0
  8  2  1  0  0  0  0
  9  5  1  0  0  0  0
 10 13  1  0  0  0  0
 10  9  1  0  0  0  0
 11 16  1  6  0  0  0
 11 23  1  0  0  0  0
 12 24  1  0  0  0  0
 13 12  1  0  0  0  0
 14 25  1  0  0  0  0
 15 11  1  0  0  0  0
 15 13  2  0  0  0  0
 16 14  2  0  0  0  0
 17 21  2  0  0  0  0
 17 18  1  0  0  0  0
 18 10  2  0  0  0  0
 19 24  1  0  0  0  0
 21 15  1  0  0  0  0
 23 22  1  6  0  0  0
 23 19  1  0  0  0  0
 24 20  2  0  0  0  0
 25 22  1  0  0  0  0
 26 27  1  6  0  0  0
 26 14  1  0  0  0  0
 28 31  1  0  0  0  0
 28 26  1  0  0  0  0
 29 33  1  0  0  0  0
 31 34  1  0  0  0  0
 32 29  2  0  0  0  0
 32 28  1  0  0  0  0
 33 30  1  0  0  0  0
 34 30  1  0  0  0  0
 35 40  1  0  0  0  0
 36 40  2  0  0  0  0
 37 35  2  0  0  0  0
 38 37  1  0  0  0  0
 38 39  2  0  0  0  0
 39 36  1  0  0  0  0
 41 45  1  0  0  0  0
 41  1  1  0  0  0  0
 42 41  1  0  0  0  0
 43 42  1  0  0  0  0
 44 43  1  0  0  0  0
 46 50  1  0  0  0  0
 46 51  1  0  0  0  0
 48 49  1  0  0  0  0
 48 52  2  0  0  0  0
 49 53  1  6  0  0  0
 50 47  1  6  0  0  0
 50 54  1  0  0  0  0
 51 48  1  0  0  0  0
 54 49  1  0  0  0  0
 54 45  1  0  0  0  0
M  END
>  <MODEL>
5

>  <REMARK>
 VINA RESULT:      -9.3      2.705      4.125
  Name = 
  9 active torsions:
  status: ('A' for Active; 'I' for Inactive)
    1  A    between atoms: N_1  and  C_14
    2  A    between atoms: C_3  and  N_19
    3  A    between atoms: C_5  and  C_52
    4  A    between atoms: C_14  and  C_20
    5  A    between atoms: N_19  and  O_29
    6  A    between atoms: N_19  and  C_38
    7  A    between atoms: C_23  and  O_29
    8  A    between atoms: C_28  and  C_42
    9  A    between atoms: C_38  and  N_51
                            x       y       z     vdW  Elec       q    Type
                         _______ _______ _______ _____ _____    ______ ____

>  <TORSDO>
F 9

$$$$
=
 OpenBabel10222415353D

 54 61  0  0  1  0  0  0  0  0999 V2000
  189.8890  177.4110  140.5350 C   0  0  0  0  0  0  0  0  0  0  0  0
  192.1580  176.7950  139.8840 C   0  0  0  0  0  3  0  0  0  0  0  0
  189.4680  177.0140  139.2640 C   0  0  0  0  0  0  0  0  0  0  0  0
  188.2180  177.0750  138.7830 N   0  0  0  0  0  0  0  0  0  0  0  0
  189.6180  176.2280  137.1940 C   0  0  0  0  0  3  0  0  0  0  0  0
  190.3440  176.5150  138.3320 C   0  0  0  0  0  0  0  0  0  0  0  0
  191.7240  176.3870  138.6010 C   0  0  0  0  0  0  0  0  0  0  0  0
  191.2540  177.2990  140.8380 C   0  0  0  0  0  2  0  0  0  0  0  0
  188.3110  176.5970  137.5200 C   0  0  0  0  0  0  0  0  0  0  0  0
  187.1490  176.4570  136.6090 C   0  0  0  0  0  0  0  0  0  0  0  0
  184.3760  173.9920  135.3460 C   0  0  2  0  0  3  0  0  0  0  0  0
  186.9300  174.1420  137.2170 O   0  0  0  0  0  0  0  0  0  0  0  0
  186.4520  175.2280  136.4580 C   0  0  0  0  0  0  0  0  0  0  0  0
  181.9560  173.5820  135.8280 C   0  0  0  0  0  0  0  0  0  0  0  0
  185.3230  175.1750  135.5700 C   0  0  0  0  0  0  0  0  0  0  0  0
  182.9350  174.4370  135.4960 C   0  0  0  0  0  3  0  0  0  0  0  0
  185.7220  177.5030  134.9550 C   0  0  0  0  0  3  0  0  0  0  0  0
  186.7720  177.5740  135.8580 C   0  0  0  0  0  3  0  0  0  0  0  0
  185.9420  172.3080  135.8440 C   0  0  0  0  0  2  0  0  0  0  0  0
  187.5560  171.9120  137.5920 C   0  0  0  0  0  2  0  0  0  0  0  0
  185.0130  176.3170  134.8150 C   0  0  0  0  0  3  0  0  0  0  0  0
  183.6920  171.7650  135.7860 C   0  0  0  0  0  2  0  0  0  0  0  0
  184.6310  172.8120  136.1780 N   0  0  2  0  0  0  0  0  0  0  0  0
  186.8520  172.7880  136.8940 C   0  0  0  0  0  0  0  0  0  0  0  0
  182.2770  172.1550  136.2100 C   0  0  0  0  0  2  0  0  0  0  0  0
  180.5590  174.1130  136.0000 C   0  0  1  0  0  3  0  0  0  0  0  0
  179.6570  173.0830  136.2800 O   0  0  0  0  0  1  0  0  0  0  0  0
  180.5060  175.1220  137.0520 N   0  0  0  0  0  0  0  0  0  0  0  0
  181.0250  175.2320  139.4330 C   0  0  0  0  0  3  0  0  0  0  0  0
  182.3260  176.8450  138.0370 N   0  0  0  0  0  2  0  0  0  0  0  0
  180.2820  176.5260  136.6880 C   0  0  0  0  0  2  0  0  0  0  0  0
  180.3910  174.6590  138.4020 C   0  0  0  0  0  3  0  0  0  0  0  0
  181.9430  176.3270  139.2880 N   0  0  0  0  0  2  0  0  0  0  0  0
  181.1580  177.5060  137.4750 C   0  0  0  0  0  2  0  0  0  0  0  0
  193.5060  176.7530  136.8470 C   0  0  0  0  0  3  0  0  0  0  0  0
  194.5970  174.8790  135.7700 C   0  0  0  0  0  3  0  0  0  0  0  0
  192.7160  175.8770  137.6130 C   0  0  0  0  0  0  0  0  0  0  0  0
  192.8810  174.4940  137.4310 C   0  0  0  0  0  3  0  0  0  0  0  0
  193.8150  173.9970  136.5170 C   0  0  0  0  0  3  0  0  0  0  0  0
  194.4400  176.2580  135.9330 C   0  0  0  0  0  3  0  0  0  0  0  0
  188.9660  177.9290  141.5010 N   0  0  0  0  0  0  0  0  0  0  0  0
  187.6280  177.9020  141.2430 O   0  0  0  0  0  0  0  0  0  0  0  0
  187.1940  179.2300  141.3440 C   0  0  0  0  0  2  0  0  0  0  0  0
  185.7970  179.3160  140.9610 N   0  0  0  0  0  1  0  0  0  0  0  0
  189.4750  178.4030  142.7940 C   0  0  0  0  0  2  0  0  0  0  0  0
  188.4830  177.0330  146.1600 C   0  0  0  0  0  2  0  0  0  0  0  0
  186.9600  177.7890  144.3770 C   0  0  0  0  0  1  0  0  0  0  0  0
  190.8880  177.0960  145.8100 C   0  0  0  0  0  0  0  0  0  0  0  0
  190.6740  176.9970  144.3230 C   0  0  1  0  0  3  0  0  0  0  0  0
  188.3840  177.8780  144.8970 C   0  0  2  0  0  3  0  0  0  0  0  0
  189.7990  177.1310  146.6760 O   0  0  0  0  0  0  0  0  0  0  0  0
  192.0560  177.1280  146.2750 O   0  0  0  0  0  0  0  0  0  0  0  0
  190.9590  175.5790  143.8560 C   0  0  0  0  0  1  0  0  0  0  0  0
  189.3270  177.4030  143.8630 N   0  0  0  0  0  0  0  0  0  0  0  0
  1  8  1  0  0  0  0
  1 41  1  0  0  0  0
  2  8  1  0  0  0  0
  3  1  2  0  0  0  0
  4  3  1  0  0  0  0
  5  9  1  0  0  0  0
  5  6  2  0  0  0  0
  6  7  1  0  0  0  0
  6  3  1  0  0  0  0
  7  2  2  0  0  0  0
  9  4  2  0  0  0  0
 10  9  1  0  0  0  0
 11 16  1  1  0  0  0
 11 15  1  0  0  0  0
 11 23  1  0  0  0  0
 13 10  1  0  0  0  0
 13 12  1  0  0  0  0
 14 26  1  0  0  0  0
 14 25  1  0  0  0  0
 15 13  2  0  0  0  0
 16 14  2  0  0  0  0
 17 18  1  0  0  0  0
 18 10  2  0  0  0  0
 19 23  1  0  0  0  0
 19 24  1  0  0  0  0
 21 17  2  0  0  0  0
 21 15  1  0  0  0  0
 22 25  1  0  0  0  0
 23 22  1  6  0  0  0
 24 12  1  0  0  0  0
 24 20  2  0  0  0  0
 26 27  1  1  0  0  0
 26 28  1  0  0  0  0
 28 32  1  0  0  0  0
 30 33  1  0  0  0  0
 31 28  1  0  0  0  0
 31 34  1  0  0  0  0
 32 29  2  0  0  0  0
 33 29  1  0  0  0  0
 34 30  1  0  0  0  0
 35 37  1  0  0  0  0
 36 40  1  0  0  0  0
 36 39  2  0  0  0  0
 37  7  1  0  0  0  0
 38 37  2  0  0  0  0
 39 38  1  0  0  0  0
 40 35  2  0  0  0  0
 41 45  1  0  0  0  0
 42 43  1  0  0  0  0
 42 41  1  0  0  0  0
 44 43  1  0  0  0  0
 45 54  1  0  0  0  0
 46 51  1  0  0  0  0
 48 52  2  0  0  0  0
 48 51  1  0  0  0  0
 49 53  1  1  0  0  0
 49 48  1  0  0  0  0
 50 47  1  6  0  0  0
 50 46  1  0  0  0  0
 54 49  1  0  0  0  0
 54 50  1  0  0  0  0
M  END
>  <MODEL>
6

>  <REMARK>
 VINA RESULT:      -9.2      3.193      8.895
  Name = 
  9 active torsions:
  status: ('A' for Active; 'I' for Inactive)
    1  A    between atoms: N_1  and  C_14
    2  A    between atoms: C_3  and  N_19
    3  A    between atoms: C_5  and  C_52
    4  A    between atoms: C_14  and  C_20
    5  A    between atoms: N_19  and  O_29
    6  A    between atoms: N_19  and  C_38
    7  A    between atoms: C_23  and  O_29
    8  A    between atoms: C_28  and  C_42
    9  A    between atoms: C_38  and  N_51
                            x       y       z     vdW  Elec       q    Type
                         _______ _______ _______ _____ _____    ______ ____

>  <TORSDO>
F 9

$$$$
=
 OpenBabel10222415353D

 54 61  0  0  1  0  0  0  0  0999 V2000
  189.3070  177.6220  141.4520 C   0  0  0  0  0  0  0  0  0  0  0  0
  189.2780  177.7030  143.8910 C   0  0  0  0  0  3  0  0  0  0  0  0
  187.9330  177.8700  141.4760 C   0  0  0  0  0  0  0  0  0  0  0  0
  187.1200  177.9540  140.4140 N   0  0  0  0  0  0  0  0  0  0  0  0
  185.9210  178.2580  142.3300 C   0  0  0  0  0  3  0  0  0  0  0  0
  187.2460  178.0400  142.6530 C   0  0  0  0  0  0  0  0  0  0  0  0
  187.8880  177.9610  143.9070 C   0  0  0  0  0  0  0  0  0  0  0  0
  189.9780  177.5370  142.6810 C   0  0  0  0  0  2  0  0  0  0  0  0
  185.8930  178.1890  140.9360 C   0  0  0  0  0  0  0  0  0  0  0  0
  184.6750  178.3810  140.1130 C   0  0  0  0  0  0  0  0  0  0  0  0
  180.8990  179.4260  140.2140 C   0  0  2  0  0  3  0  0  0  0  0  0
  183.4050  178.9080  142.0840 O   0  0  0  0  0  0  0  0  0  0  0  0
  183.4270  178.7460  140.6850 C   0  0  0  0  0  0  0  0  0  0  0  0
  179.5710  181.4850  139.7090 C   0  0  0  0  0  0  0  0  0  0  0  0
  182.2940  178.9320  139.8200 C   0  0  0  0  0  0  0  0  0  0  0  0
  180.4740  180.5730  139.3180 C   0  0  0  0  0  3  0  0  0  0  0  0
  183.6670  178.2720  137.9130 C   0  0  0  0  0  3  0  0  0  0  0  0
  184.7750  178.1530  138.7370 C   0  0  0  0  0  3  0  0  0  0  0  0
  180.9510  178.6130  142.4220 C   0  0  0  0  0  2  0  0  0  0  0  0
  182.5280  178.6700  144.2470 C   0  0  0  0  0  2  0  0  0  0  0  0
  182.4460  178.6540  138.4520 C   0  0  0  0  0  3  0  0  0  0  0  0
  179.3400  180.1710  141.8380 C   0  0  0  0  0  2  0  0  0  0  0  0
  180.7350  179.7970  141.6240 N   0  0  2  0  0  0  0  0  0  0  0  0
  182.3240  178.7070  142.9400 C   0  0  0  0  0  0  0  0  0  0  0  0
  179.0420  181.4880  141.1240 C   0  0  0  0  0  2  0  0  0  0  0  0
  179.2380  182.6170  138.7760 C   0  0  1  0  0  3  0  0  0  0  0  0
  178.9320  183.7830  139.4830 O   0  0  0  0  0  1  0  0  0  0  0  0
  180.3310  182.8710  137.8450 N   0  0  0  0  0  0  0  0  0  0  0  0
  180.6500  182.8200  135.4270 C   0  0  0  0  0  3  0  0  0  0  0  0
  181.0960  185.0500  136.4610 N   0  0  0  0  0  2  0  0  0  0  0  0
  181.5580  183.5100  138.3360 C   0  0  0  0  0  2  0  0  0  0  0  0
  180.2680  182.2290  136.5660 C   0  0  0  0  0  2  0  0  0  0  0  0
  181.0980  184.1830  135.3540 N   0  0  0  0  0  0  0  0  0  0  0  0
  182.1170  184.5690  137.3800 C   0  0  0  0  0  2  0  0  0  0  0  0
  185.8020  178.3870  145.2680 C   0  0  0  0  0  3  0  0  0  0  0  0
  185.8680  178.3710  147.6880 C   0  0  0  0  0  3  0  0  0  0  0  0
  187.1800  178.1130  145.2100 C   0  0  0  0  0  0  0  0  0  0  0  0
  187.8880  177.9790  146.4160 C   0  0  0  0  0  3  0  0  0  0  0  0
  187.2380  178.1060  147.6470 C   0  0  0  0  0  3  0  0  0  0  0  0
  185.1500  178.5150  146.4980 C   0  0  0  0  0  3  0  0  0  0  0  0
  190.0150  177.4480  140.2190 N   0  0  0  0  0  0  0  0  0  0  0  0
  191.1520  178.1590  139.9830 O   0  0  0  0  0  0  0  0  0  0  0  0
  192.1670  177.5020  140.6920 C   0  0  0  0  0  2  0  0  0  0  0  0
  193.2260  177.1140  139.7800 N   0  0  0  0  0  1  0  0  0  0  0  0
  189.5450  176.4370  139.2630 C   0  0  0  0  0  2  0  0  0  0  0  0
  188.7760  177.3570  135.6920 C   0  0  0  0  0  2  0  0  0  0  0  0
  188.2790  178.7050  137.6930 C   0  0  0  0  0  1  0  0  0  0  0  0
  189.9070  175.2180  135.9190 C   0  0  0  0  0  0  0  0  0  0  0  0
  190.5280  175.6830  137.2090 C   0  0  1  0  0  3  0  0  0  0  0  0
  188.5980  177.3040  137.2030 C   0  0  2  0  0  3  0  0  0  0  0  0
  189.0420  176.0500  135.2140 O   0  0  0  0  0  0  0  0  0  0  0  0
  190.1840  174.0790  135.4640 O   0  0  0  0  0  0  0  0  0  0  0  0
  191.9780  176.0700  136.9720 C   0  0  0  0  0  1  0  0  0  0  0  0
  189.8220  176.8070  137.8660 N   0  0  0  0  0  0  0  0  0  0  0  0
  1  3  2  0  0  0  0
  1  8  1  0  0  0  0
  2  7  2  0  0  0  0
  3  6  1  0  0  0  0
  4  9  2  0  0  0  0
  4  3  1  0  0  0  0
  5  6  2  0  0  0  0
  6  7  1  0  0  0  0
  7 37  1  0  0  0  0
  8  2  1  0  0  0  0
  9  5  1  0  0  0  0
 10 13  1  0  0  0  0
 10  9  1  0  0  0  0
 11 16  1  6  0  0  0
 11 23  1  0  0  0  0
 12 24  1  0  0  0  0
 13 12  1  0  0  0  0
 14 25  1  0  0  0  0
 15 11  1  0  0  0  0
 15 13  2  0  0  0  0
 16 14  2  0  0  0  0
 17 21  2  0  0  0  0
 17 18  1  0  0  0  0
 18 10  2  0  0  0  0
 19 24  1  0  0  0  0
 21 15  1  0  0  0  0
 23 22  1  6  0  0  0
 23 19  1  0  0  0  0
 24 20  2  0  0  0  0
 25 22  1  0  0  0  0
 26 27  1  1  0  0  0
 26 14  1  0  0  0  0
 28 31  1  0  0  0  0
 28 26  1  0  0  0  0
 29 32  1  0  0  0  0
 30 34  1  0  0  0  0
 32 28  1  0  0  0  0
 33 29  2  0  0  0  0
 33 30  1  0  0  0  0
 34 31  1  0  0  0  0
 35 40  1  0  0  0  0
 37 35  2  0  0  0  0
 37 38  1  0  0  0  0
 38 39  2  0  0  0  0
 39 36  1  0  0  0  0
 40 36  2  0  0  0  0
 41  1  1  0  0  0  0
 42 41  1  0  0  0  0
 42 43  1  0  0  0  0
 44 43  1  0  0  0  0
 45 41  1  0  0  0  0
 46 50  1  0  0  0  0
 48 49  1  0  0  0  0
 49 53  1  6  0  0  0
 49 54  1  0  0  0  0
 50 47  1  1  0  0  0
 50 54  1  0  0  0  0
 51 46  1  0  0  0  0
 51 48  1  0  0  0  0
 52 48  2  0  0  0  0
 54 45  1  0  0  0  0
M  END
>  <MODEL>
7

>  <REMARK>
 VINA RESULT:      -8.9      2.433      9.306
  Name = 
  9 active torsions:
  status: ('A' for Active; 'I' for Inactive)
    1  A    between atoms: N_1  and  C_14
    2  A    between atoms: C_3  and  N_19
    3  A    between atoms: C_5  and  C_52
    4  A    between atoms: C_14  and  C_20
    5  A    between atoms: N_19  and  O_29
    6  A    between atoms: N_19  and  C_38
    7  A    between atoms: C_23  and  O_29
    8  A    between atoms: C_28  and  C_42
    9  A    between atoms: C_38  and  N_51
                            x       y       z     vdW  Elec       q    Type
                         _______ _______ _______ _____ _____    ______ ____

>  <TORSDO>
F 9

$$$$
=
 OpenBabel10222415353D

 54 61  0  0  1  0  0  0  0  0999 V2000
  184.8810  178.8130  139.8640 C   0  0  0  0  0  0  0  0  0  0  0  0
  185.4420  178.8590  142.2380 C   0  0  0  0  0  3  0  0  0  0  0  0
  186.1790  178.3570  139.6160 C   0  0  0  0  0  0  0  0  0  0  0  0
  186.7140  178.0920  138.4170 N   0  0  0  0  0  0  0  0  0  0  0  0
  188.2560  177.7100  140.0540 C   0  0  0  0  0  3  0  0  0  0  0  0
  187.0800  178.1470  140.6310 C   0  0  0  0  0  0  0  0  0  0  0  0
  186.7510  178.3910  141.9810 C   0  0  0  0  0  0  0  0  0  0  0  0
  184.5200  179.0660  141.1960 C   0  0  0  0  0  2  0  0  0  0  0  0
  187.9820  177.6990  138.6850 C   0  0  0  0  0  0  0  0  0  0  0  0
  188.9470  177.2770  137.6410 C   0  0  0  0  0  0  0  0  0  0  0  0
  192.5860  175.9630  137.0180 C   0  0  2  0  0  3  0  0  0  0  0  0
  190.6500  176.9800  139.3110 O   0  0  0  0  0  0  0  0  0  0  0  0
  190.2840  176.9120  137.9530 C   0  0  0  0  0  0  0  0  0  0  0  0
  193.6670  173.7490  136.5850 C   0  0  0  0  0  0  0  0  0  0  0  0
  191.1560  176.4960  136.8890 C   0  0  0  0  0  0  0  0  0  0  0  0
  192.7300  174.6550  136.2660 C   0  0  0  0  0  3  0  0  0  0  0  0
  189.3760  176.9430  135.2800 C   0  0  0  0  0  3  0  0  0  0  0  0
  188.5140  177.2840  136.3120 C   0  0  0  0  0  3  0  0  0  0  0  0
  193.1190  177.1280  138.9920 C   0  0  0  0  0  2  0  0  0  0  0  0
  192.0490  177.4980  141.1220 C   0  0  0  0  0  2  0  0  0  0  0  0
  190.6780  176.5580  135.5700 C   0  0  0  0  0  3  0  0  0  0  0  0
  194.4740  175.3710  138.3260 C   0  0  0  0  0  2  0  0  0  0  0  0
  193.0840  175.8160  138.3900 N   0  0  2  0  0  0  0  0  0  0  0  0
  191.9170  177.2310  139.8330 C   0  0  0  0  0  0  0  0  0  0  0  0
  194.5330  173.9350  137.8090 C   0  0  0  0  0  2  0  0  0  0  0  0
  193.7140  172.4560  135.8170 C   0  0  1  0  0  3  0  0  0  0  0  0
  193.0470  172.5700  134.5940 O   0  0  0  0  0  1  0  0  0  0  0  0
  195.0890  172.0240  135.5980 N   0  0  0  0  0  0  0  0  0  0  0  0
  197.1780  173.0550  134.8740 C   0  0  0  0  0  3  0  0  0  0  0  0
  197.2870  172.0350  137.1520 N   0  0  0  0  0  2  0  0  0  0  0  0
  195.5100  170.7010  136.0750 C   0  0  0  0  0  2  0  0  0  0  0  0
  195.8800  172.7890  134.6810 C   0  0  0  0  0  3  0  0  0  0  0  0
  197.9000  172.6630  136.0520 N   0  0  0  0  0  2  0  0  0  0  0  0
  196.8990  170.7020  136.7200 C   0  0  0  0  0  2  0  0  0  0  0  0
  187.2710  177.7350  144.3660 C   0  0  0  0  0  3  0  0  0  0  0  0
  189.5340  177.8350  145.2210 C   0  0  0  0  0  3  0  0  0  0  0  0
  187.7040  178.2020  143.1120 C   0  0  0  0  0  0  0  0  0  0  0  0
  189.0680  178.4890  142.9390 C   0  0  0  0  0  3  0  0  0  0  0  0
  189.9780  178.3070  143.9840 C   0  0  0  0  0  3  0  0  0  0  0  0
  188.1790  177.5520  145.4120 C   0  0  0  0  0  3  0  0  0  0  0  0
  183.9480  179.0280  138.7990 N   0  0  0  0  0  0  0  0  0  0  0  0
  183.7830  178.0740  137.8400 O   0  0  0  0  0  0  0  0  0  0  0  0
  183.5210  176.8820  138.5280 C   0  0  0  0  0  2  0  0  0  0  0  0
  182.3220  176.2640  137.9930 N   0  0  0  0  0  1  0  0  0  0  0  0
  183.1200  180.2400  138.8090 C   0  0  0  0  0  2  0  0  0  0  0  0
  179.4620  180.7660  138.0760 C   0  0  0  0  0  2  0  0  0  0  0  0
  181.2420  180.3450  136.4260 C   0  0  0  0  0  1  0  0  0  0  0  0
  179.9950  180.8340  140.4470 C   0  0  0  0  0  0  0  0  0  0  0  0
  181.1910  179.9510  140.2030 C   0  0  1  0  0  3  0  0  0  0  0  0
  180.9660  180.8100  137.8460 C   0  0  2  0  0  3  0  0  0  0  0  0
  179.1850  181.2290  139.3860 O   0  0  0  0  0  0  0  0  0  0  0  0
  179.7150  181.2010  141.6160 O   0  0  0  0  0  0  0  0  0  0  0  0
  180.8750  178.5280  140.6350 C   0  0  0  0  0  1  0  0  0  0  0  0
  181.6790  179.9420  138.8060 N   0  0  0  0  0  0  0  0  0  0  0  0
  1  8  1  0  0  0  0
  3  1  2  0  0  0  0
  3  6  1  0  0  0  0
  4  9  2  0  0  0  0
  4  3  1  0  0  0  0
  5  6  2  0  0  0  0
  6  7  1  0  0  0  0
  7  2  2  0  0  0  0
  7 37  1  0  0  0  0
  8  2  1  0  0  0  0
  9  5  1  0  0  0  0
 10 13  1  0  0  0  0
 10  9  1  0  0  0  0
 11 16  1  1  0  0  0
 11 23  1  0  0  0  0
 12 24  1  0  0  0  0
 13 12  1  0  0  0  0
 14 25  1  0  0  0  0
 15 11  1  0  0  0  0
 15 13  2  0  0  0  0
 16 14  2  0  0  0  0
 17 21  2  0  0  0  0
 17 18  1  0  0  0  0
 18 10  2  0  0  0  0
 19 24  1  0  0  0  0
 21 15  1  0  0  0  0
 23 22  1  6  0  0  0
 23 19  1  0  0  0  0
 24 20  2  0  0  0  0
 25 22  1  0  0  0  0
 26 27  1  6  0  0  0
 26 14  1  0  0  0  0
 28 26  1  0  0  0  0
 28 31  1  0  0  0  0
 29 33  1  0  0  0  0
 31 34  1  0  0  0  0
 32 29  2  0  0  0  0
 32 28  1  0  0  0  0
 33 30  1  0  0  0  0
 34 30  1  0  0  0  0
 35 40  1  0  0  0  0
 36 40  2  0  0  0  0
 37 35  2  0  0  0  0
 38 37  1  0  0  0  0
 38 39  2  0  0  0  0
 39 36  1  0  0  0  0
 41 45  1  0  0  0  0
 41  1  1  0  0  0  0
 42 43  1  0  0  0  0
 42 41  1  0  0  0  0
 44 43  1  0  0  0  0
 46 51  1  0  0  0  0
 48 52  2  0  0  0  0
 49 48  1  0  0  0  0
 49 53  1  6  0  0  0
 50 47  1  6  0  0  0
 50 46  1  0  0  0  0
 50 54  1  0  0  0  0
 51 48  1  0  0  0  0
 54 45  1  0  0  0  0
 54 49  1  0  0  0  0
M  END
>  <MODEL>
8

>  <REMARK>
 VINA RESULT:      -8.8      3.228      4.833
  Name = 
  9 active torsions:
  status: ('A' for Active; 'I' for Inactive)
    1  A    between atoms: N_1  and  C_14
    2  A    between atoms: C_3  and  N_19
    3  A    between atoms: C_5  and  C_52
    4  A    between atoms: C_14  and  C_20
    5  A    between atoms: N_19  and  O_29
    6  A    between atoms: N_19  and  C_38
    7  A    between atoms: C_23  and  O_29
    8  A    between atoms: C_28  and  C_42
    9  A    between atoms: C_38  and  N_51
                            x       y       z     vdW  Elec       q    Type
                         _______ _______ _______ _____ _____    ______ ____

>  <TORSDO>
F 9

$$$$
=
 OpenBabel10222415353D

 54 61  0  0  1  0  0  0  0  0999 V2000
  192.9450  176.5720  137.8350 C   0  0  0  0  0  0  0  0  0  0  0  0
  192.8830  176.9550  140.2430 C   0  0  0  0  0  3  0  0  0  0  0  0
  191.5560  176.7260  137.8230 C   0  0  0  0  0  0  0  0  0  0  0  0
  190.7510  176.6210  136.7580 N   0  0  0  0  0  0  0  0  0  0  0  0
  189.5140  177.0790  138.6180 C   0  0  0  0  0  3  0  0  0  0  0  0
  190.8470  176.9940  138.9680 C   0  0  0  0  0  0  0  0  0  0  0  0
  191.4790  177.1170  140.2240 C   0  0  0  0  0  0  0  0  0  0  0  0
  193.6060  176.6870  139.0660 C   0  0  0  0  0  2  0  0  0  0  0  0
  189.5060  176.8350  137.2430 C   0  0  0  0  0  0  0  0  0  0  0  0
  188.2860  176.8380  136.3990 C   0  0  0  0  0  0  0  0  0  0  0  0
  185.2200  174.6960  135.2310 C   0  0  2  0  0  3  0  0  0  0  0  0
  187.8780  174.5350  136.9480 O   0  0  0  0  0  0  0  0  0  0  0  0
  187.4660  175.6880  136.2530 C   0  0  0  0  0  0  0  0  0  0  0  0
  182.8030  174.5000  135.8450 C   0  0  0  0  0  0  0  0  0  0  0  0
  186.2880  175.7740  135.4330 C   0  0  0  0  0  0  0  0  0  0  0  0
  183.8390  175.2700  135.4800 C   0  0  0  0  0  3  0  0  0  0  0  0
  186.8750  178.0740  134.8660 C   0  0  0  0  0  3  0  0  0  0  0  0
  187.9770  178.0130  135.7060 C   0  0  0  0  0  3  0  0  0  0  0  0
  186.6410  172.8530  135.5820 C   0  0  0  0  0  2  0  0  0  0  0  0
  188.3050  172.2430  137.2180 C   0  0  0  0  0  2  0  0  0  0  0  0
  186.0480  176.9680  134.7330 C   0  0  0  0  0  3  0  0  0  0  0  0
  184.3490  172.5290  135.6430 C   0  0  0  0  0  2  0  0  0  0  0  0
  185.4060  173.4680  136.0090 N   0  0  2  0  0  0  0  0  0  0  0  0
  187.6510  173.2070  136.5900 C   0  0  0  0  0  0  0  0  0  0  0  0
  183.0050  173.0370  136.1630 C   0  0  0  0  0  2  0  0  0  0  0  0
  181.4760  175.1560  136.1170 C   0  0  1  0  0  3  0  0  0  0  0  0
  180.4910  174.2060  136.3990 O   0  0  0  0  0  1  0  0  0  0  0  0
  181.5760  176.1110  137.2140 N   0  0  0  0  0  0  0  0  0  0  0  0
  182.4450  176.1100  139.4930 C   0  0  0  0  0  3  0  0  0  0  0  0
  183.5140  177.8050  138.0020 N   0  0  0  0  0  2  0  0  0  0  0  0
  181.2930  177.5280  136.9590 C   0  0  0  0  0  2  0  0  0  0  0  0
  181.6670  175.5810  138.5410 C   0  0  0  0  0  3  0  0  0  0  0  0
  183.3260  177.2220  139.2680 N   0  0  0  0  0  2  0  0  0  0  0  0
  182.2730  178.4790  137.6540 C   0  0  0  0  0  2  0  0  0  0  0  0
  189.4680  176.8470  141.7300 C   0  0  0  0  0  3  0  0  0  0  0  0
  189.4030  177.8790  143.9190 C   0  0  0  0  0  3  0  0  0  0  0  0
  190.7470  177.3800  141.4960 C   0  0  0  0  0  0  0  0  0  0  0  0
  191.3360  178.1730  142.4950 C   0  0  0  0  0  3  0  0  0  0  0  0
  190.6700  178.4210  143.6990 C   0  0  0  0  0  3  0  0  0  0  0  0
  188.8000  177.0940  142.9330 C   0  0  0  0  0  3  0  0  0  0  0  0
  193.6760  176.2950  136.6340 N   0  0  0  0  0  0  0  0  0  0  0  0
  193.4490  177.0370  135.5150 O   0  0  0  0  0  0  0  0  0  0  0  0
  194.6800  177.1130  134.8510 C   0  0  0  0  0  2  0  0  0  0  0  0
  195.4310  178.2520  135.3440 N   0  0  0  0  0  1  0  0  0  0  0  0
  194.7230  175.2660  136.6570 C   0  0  0  0  0  2  0  0  0  0  0  0
  194.9360  171.7300  137.9390 C   0  0  0  0  0  2  0  0  0  0  0  0
  195.7250  173.7590  139.0940 C   0  0  0  0  0  1  0  0  0  0  0  0
  193.8620  171.9100  135.7660 C   0  0  0  0  0  0  0  0  0  0  0  0
  193.4430  173.3190  136.0890 C   0  0  1  0  0  3  0  0  0  0  0  0
  195.3410  173.1840  137.7410 C   0  0  2  0  0  3  0  0  0  0  0  0
  194.6060  171.1690  136.6810 O   0  0  0  0  0  0  0  0  0  0  0  0
  193.5240  171.3900  134.6720 O   0  0  0  0  0  0  0  0  0  0  0  0
  191.9710  173.3430  136.4690 C   0  0  0  0  0  1  0  0  0  0  0  0
  194.2350  173.9710  137.1570 N   0  0  0  0  0  0  0  0  0  0  0  0
  1  8  1  0  0  0  0
  3  1  2  0  0  0  0
  3  6  1  0  0  0  0
  4  9  2  0  0  0  0
  4  3  1  0  0  0  0
  5  6  2  0  0  0  0
  6  7  1  0  0  0  0
  7  2  2  0  0  0  0
  7 37  1  0  0  0  0
  8  2  1  0  0  0  0
  9  5  1  0  0  0  0
 10  9  1  0  0  0  0
 11 15  1  0  0  0  0
 11 16  1  1  0  0  0
 11 23  1  0  0  0  0
 13 10  1  0  0  0  0
 13 12  1  0  0  0  0
 14 26  1  0  0  0  0
 14 25  1  0  0  0  0
 15 13  2  0  0  0  0
 16 14  2  0  0  0  0
 17 18  1  0  0  0  0
 18 10  2  0  0  0  0
 19 24  1  0  0  0  0
 21 17  2  0  0  0  0
 21 15  1  0  0  0  0
 22 23  1  0  0  0  0
 22 25  1  0  0  0  0
 23 19  1  6  0  0  0
 24 12  1  0  0  0  0
 24 20  2  0  0  0  0
 26 27  1  1  0  0  0
 26 28  1  0  0  0  0
 28 32  1  0  0  0  0
 30 33  1  0  0  0  0
 31 28  1  0  0  0  0
 31 34  1  0  0  0  0
 32 29  2  0  0  0  0
 33 29  1  0  0  0  0
 34 30  1  0  0  0  0
 35 40  1  0  0  0  0
 37 35  2  0  0  0  0
 37 38  1  0  0  0  0
 38 39  2  0  0  0  0
 39 36  1  0  0  0  0
 40 36  2  0  0  0  0
 41 45  1  0  0  0  0
 41  1  1  0  0  0  0
 42 41  1  0  0  0  0
 43 44  1  0  0  0  0
 43 42  1  0  0  0  0
 45 54  1  0  0  0  0
 48 49  1  0  0  0  0
 48 51  1  0  0  0  0
 49 53  1  1  0  0  0
 49 54  1  0  0  0  0
 50 46  1  0  0  0  0
 50 47  1  1  0  0  0
 51 46  1  0  0  0  0
 52 48  2  0  0  0  0
 54 50  1  0  0  0  0
M  END
>  <MODEL>
9

>  <REMARK>
 VINA RESULT:      -8.7      3.611     10.195
  Name = 
  9 active torsions:
  status: ('A' for Active; 'I' for Inactive)
    1  A    between atoms: N_1  and  C_14
    2  A    between atoms: C_3  and  N_19
    3  A    between atoms: C_5  and  C_52
    4  A    between atoms: C_14  and  C_20
    5  A    between atoms: N_19  and  O_29
    6  A    between atoms: N_19  and  C_38
    7  A    between atoms: C_23  and  O_29
    8  A    between atoms: C_28  and  C_42
    9  A    between atoms: C_38  and  N_51
                            x       y       z     vdW  Elec       q    Type
                         _______ _______ _______ _____ _____    ______ ____

>  <TORSDO>
F 9

$$$$
