=
 OpenBabel10222419583D

 36 38  0  0  1  0  0  0  0  0999 V2000
  183.2130  174.7600  136.3270 C   0  0  2  0  0  3  0  0  0  0  0  0
  182.2450  179.2220  140.7730 O   0  0  0  0  0  0  0  0  0  0  0  0
  179.5070  179.7910  140.2300 O   0  0  0  0  0  1  0  0  0  0  0  0
  181.9560  177.3370  136.7030 C   0  0  2  0  0  3  0  0  0  0  0  0
  181.7020  176.9700  140.4850 F   0  0  0  0  0  0  0  0  0  0  0  0
  179.6350  178.0440  136.7150 O   0  0  0  0  0  0  0  0  0  0  0  0
  184.6790  178.6910  139.2360 C   0  0  0  0  0  0  0  0  0  0  0  0
  182.9430  175.6570  135.2070 N   0  0  0  0  0  2  0  0  0  0  0  0
  180.6820  178.1850  142.0840 F   0  0  0  0  0  0  0  0  0  0  0  0
  184.2660  178.0650  140.3350 C   0  0  0  0  0  3  0  0  0  0  0  0
  180.2650  176.3870  138.1900 O   0  0  0  0  0  1  0  0  0  0  0  0
  181.2290  178.2360  140.8130 C   0  0  0  0  0  0  0  0  0  0  0  0
  185.3160  177.8820  138.1530 C   0  0  1  0  0  3  0  0  0  0  0  0
  183.0970  176.9660  137.5610 N   0  0  2  0  0  0  0  0  0  0  0  0
  183.4180  178.7290  141.3740 C   0  0  0  0  0  2  0  0  0  0  0  0
  180.1350  178.6120  139.8110 C   0  0  2  0  0  3  0  0  0  0  0  0
  180.6720  177.5480  137.5210 C   0  0  1  0  0  0  0  0  0  0  0  0
  180.7020  178.7970  138.3890 C   0  0  1  0  0  3  0  0  0  0  0  0
  184.3020  177.6140  137.0410 C   0  0  0  0  0  2  0  0  0  0  0  0
  184.4160  180.0450  139.0400 O   0  0  0  0  0  1  0  0  0  0  0  0
  183.3200  175.5140  137.6680 C   0  0  0  0  0  2  0  0  0  0  0  0
  181.7200  176.3750  135.5270 C   0  0  0  0  0  2  0  0  0  0  0  0
  179.6060  179.2440  137.4490 C   0  0  0  0  0  2  0  0  0  0  0  0
  184.4430  173.8860  136.0750 C   0  0  1  0  0  3  0  0  0  0  0  0
  185.7030  174.7290  135.9860 C   0  0  0  0  0  1  0  0  0  0  0  0
  184.6080  172.7870  137.0800 C   0  0  0  0  0  0  0  0  0  0  0  0
  185.6060  172.8520  138.0460 O   0  0  0  0  0  1  0  0  0  0  0  0
  183.7900  171.7470  137.0530 C   0  0  0  0  0  2  0  0  0  0  0  0
  186.5290  178.5960  137.5720 C   0  0  0  0  0  2  0  0  0  0  0  0
  187.7160  177.6500  137.4340 C   0  0  0  0  0  2  0  0  0  0  0  0
  188.1710  177.1420  138.7920 C   0  0  0  0  0  2  0  0  0  0  0  0
  188.7240  178.2890  139.6200 C   0  0  0  0  0  2  0  0  0  0  0  0
  188.0130  178.3620  140.9600 C   0  0  0  0  0  2  0  0  0  0  0  0
  188.9430  178.3100  141.9990 O   0  0  0  0  0  0  0  0  0  0  0  0
  187.9860  176.5400  143.2610 C   0  0  0  0  0  1  0  0  0  0  0  0
  189.0690  176.9520  142.2880 C   0  0  0  0  0  2  0  0  0  0  0  0
  1 24  1  6  0  0  0
  1 21  1  0  0  0  0
  2 12  1  0  0  0  0
  2 15  1  0  0  0  0
  4 22  1  6  0  0  0
  4 17  1  0  0  0  0
  4 14  1  0  0  0  0
  5 12  1  0  0  0  0
  6 23  1  0  0  0  0
  6 17  1  0  0  0  0
  7 10  2  0  0  0  0
  8 22  1  0  0  0  0
  8  1  1  0  0  0  0
 10 15  1  0  0  0  0
 12  9  1  0  0  0  0
 13 29  1  6  0  0  0
 13  7  1  0  0  0  0
 14 19  1  6  0  0  0
 14 21  1  0  0  0  0
 16  3  1  1  0  0  0
 16 12  1  0  0  0  0
 17 11  1  1  0  0  0
 17 18  1  0  0  0  0
 18 23  1  6  0  0  0
 18 16  1  0  0  0  0
 19 13  1  0  0  0  0
 20  7  1  0  0  0  0
 24 25  1  1  0  0  0
 24 26  1  0  0  0  0
 26 27  1  0  0  0  0
 28 26  2  0  0  0  0
 30 29  1  0  0  0  0
 30 31  1  0  0  0  0
 31 32  1  0  0  0  0
 32 33  1  0  0  0  0
 33 34  1  0  0  0  0
 34 36  1  0  0  0  0
 36 35  1  0  0  0  0
M  END
>  <MODEL>
1

>  <REMARK>
 VINA RESULT:      -5.6      0.000      0.000
  Name = 
  9 active torsions:
  status: ('A' for Active; 'I' for Inactive)
    1  A    between atoms: C_1  and  C_21
    2  A    between atoms: C_1  and  C_30
    3  A    between atoms: C_2  and  C_5
    4  A    between atoms: C_2  and  C_30
    5  A    between atoms: C_3  and  C_15
    6  A    between atoms: C_5  and  C_22
    7  A    between atoms: C_7  and  C_15
    8  A    between atoms: C_22  and  O_24
    9  A    between atoms: O_24  and  C_34
                            x       y       z     vdW  Elec       q    Type
                         _______ _______ _______ _____ _____    ______ ____

>  <TORSDO>
F 9

$$$$
=
 OpenBabel10222419583D

 36 38  0  0  1  0  0  0  0  0999 V2000
  191.1660  176.8330  140.7300 C   0  0  2  0  0  3  0  0  0  0  0  0
  190.6100  174.1540  134.9750 O   0  0  0  0  0  0  0  0  0  0  0  0
  193.3230  173.3770  134.5940 O   0  0  0  0  0  1  0  0  0  0  0  0
  192.4970  176.6930  138.1670 C   0  0  2  0  0  3  0  0  0  0  0  0
  190.8400  173.4110  137.1760 F   0  0  0  0  0  0  0  0  0  0  0  0
  194.6090  175.7240  137.4680 O   0  0  0  0  0  0  0  0  0  0  0  0
  189.1620  176.4600  136.0500 C   0  0  0  0  0  0  0  0  0  0  0  0
  192.0850  177.8750  140.2820 N   0  0  0  0  0  2  0  0  0  0  0  0
  191.1530  171.9850  135.4610 F   0  0  0  0  0  0  0  0  0  0  0  0
  188.8860  175.1730  136.2420 C   0  0  0  0  0  3  0  0  0  0  0  0
  193.0820  174.3440  138.5090 O   0  0  0  0  0  1  0  0  0  0  0  0
  191.3010  173.3000  135.8690 C   0  0  0  0  0  0  0  0  0  0  0  0
  188.9980  177.4030  137.1980 C   0  0  1  0  0  3  0  0  0  0  0  0
  191.0410  176.4680  138.2300 N   0  0  2  0  0  0  0  0  0  0  0  0
  189.2290  174.1140  135.2420 C   0  0  0  0  0  2  0  0  0  0  0  0
  192.7880  173.6660  135.8530 C   0  0  2  0  0  3  0  0  0  0  0  0
  193.2460  175.4490  137.6640 C   0  0  1  0  0  0  0  0  0  0  0  0
  193.0120  175.1540  136.1890 C   0  0  1  0  0  3  0  0  0  0  0  0
  190.3610  177.6990  137.8240 C   0  0  0  0  0  2  0  0  0  0  0  0
  189.7090  176.9050  134.8480 O   0  0  0  0  0  1  0  0  0  0  0  0
  190.5550  176.0450  139.5550 C   0  0  0  0  0  2  0  0  0  0  0  0
  193.1040  177.2190  139.4780 C   0  0  0  0  0  2  0  0  0  0  0  0
  194.4820  175.4910  136.0860 C   0  0  0  0  0  2  0  0  0  0  0  0
  190.0810  177.3890  141.6560 C   0  0  1  0  0  3  0  0  0  0  0  0
  188.9250  177.9660  140.8570 C   0  0  0  0  0  1  0  0  0  0  0  0
  189.5890  176.3930  142.6610 C   0  0  0  0  0  0  0  0  0  0  0  0
  190.4710  175.5140  143.2790 O   0  0  0  0  0  1  0  0  0  0  0  0
  188.3030  176.3540  142.9690 C   0  0  0  0  0  2  0  0  0  0  0  0
  188.3520  178.7080  136.7520 C   0  0  0  0  0  2  0  0  0  0  0  0
  186.8330  178.6350  136.8500 C   0  0  0  0  0  2  0  0  0  0  0  0
  186.3890  178.3510  138.2750 C   0  0  0  0  0  2  0  0  0  0  0  0
  184.8970  178.0650  138.3100 C   0  0  0  0  0  2  0  0  0  0  0  0
  184.1750  179.1300  139.1160 C   0  0  0  0  0  2  0  0  0  0  0  0
  184.9900  179.5770  140.1580 O   0  0  0  0  0  0  0  0  0  0  0  0
  185.5160  178.8430  142.3550 C   0  0  0  0  0  1  0  0  0  0  0  0
  184.4400  179.0010  141.3030 C   0  0  0  0  0  2  0  0  0  0  0  0
  1 24  1  6  0  0  0
  2 15  1  0  0  0  0
  2 12  1  0  0  0  0
  4 14  1  0  0  0  0
  4 22  1  1  0  0  0
  6 17  1  0  0  0  0
  7 10  2  0  0  0  0
  7 13  1  0  0  0  0
  8  1  1  0  0  0  0
  9 12  1  0  0  0  0
 12  5  1  0  0  0  0
 13 29  1  6  0  0  0
 13 19  1  0  0  0  0
 14 19  1  1  0  0  0
 14 21  1  0  0  0  0
 15 10  1  0  0  0  0
 16  3  1  6  0  0  0
 16 12  1  0  0  0  0
 16 18  1  0  0  0  0
 17  4  1  0  0  0  0
 17 11  1  1  0  0  0
 18 23  1  6  0  0  0
 18 17  1  0  0  0  0
 20  7  1  0  0  0  0
 21  1  1  0  0  0  0
 22  8  1  0  0  0  0
 23  6  1  0  0  0  0
 24 25  1  6  0  0  0
 24 26  1  0  0  0  0
 26 28  2  0  0  0  0
 26 27  1  0  0  0  0
 29 30  1  0  0  0  0
 30 31  1  0  0  0  0
 31 32  1  0  0  0  0
 32 33  1  0  0  0  0
 33 34  1  0  0  0  0
 34 36  1  0  0  0  0
 36 35  1  0  0  0  0
M  END
>  <MODEL>
2

>  <REMARK>
 VINA RESULT:      -5.4      5.166      9.578
  Name = 
  9 active torsions:
  status: ('A' for Active; 'I' for Inactive)
    1  A    between atoms: C_1  and  C_21
    2  A    between atoms: C_1  and  C_30
    3  A    between atoms: C_2  and  C_5
    4  A    between atoms: C_2  and  C_30
    5  A    between atoms: C_3  and  C_15
    6  A    between atoms: C_5  and  C_22
    7  A    between atoms: C_7  and  C_15
    8  A    between atoms: C_22  and  O_24
    9  A    between atoms: O_24  and  C_34
                            x       y       z     vdW  Elec       q    Type
                         _______ _______ _______ _____ _____    ______ ____

>  <TORSDO>
F 9

$$$$
=
 OpenBabel10222419583D

 36 38  0  0  1  0  0  0  0  0999 V2000
  182.5780  174.7210  136.7340 C   0  0  2  0  0  3  0  0  0  0  0  0
  182.4590  179.4270  141.0290 O   0  0  0  0  0  0  0  0  0  0  0  0
  179.7670  180.2820  140.6640 O   0  0  0  0  0  1  0  0  0  0  0  0
  181.6460  177.4370  137.0830 C   0  0  2  0  0  3  0  0  0  0  0  0
  181.6510  177.2420  140.8860 F   0  0  0  0  0  0  0  0  0  0  0  0
  179.4250  178.4020  137.2330 O   0  0  0  0  0  0  0  0  0  0  0  0
  184.6920  178.5660  139.3440 C   0  0  0  0  0  0  0  0  0  0  0  0
  182.3210  175.6010  135.5960 N   0  0  0  0  0  2  0  0  0  0  0  0
  180.9000  178.6240  142.4990 F   0  0  0  0  0  0  0  0  0  0  0  0
  184.3000  178.0330  140.4970 C   0  0  0  0  0  3  0  0  0  0  0  0
  179.9820  176.7400  138.7320 O   0  0  0  0  0  1  0  0  0  0  0  0
  181.3480  178.5650  141.1890 C   0  0  0  0  0  0  0  0  0  0  0  0
  185.1490  177.6500  138.2540 C   0  0  1  0  0  3  0  0  0  0  0  0
  182.8030  176.9710  137.8710 N   0  0  2  0  0  0  0  0  0  0  0  0
  183.6150  178.8270  141.5640 C   0  0  0  0  0  2  0  0  0  0  0  0
  180.2260  179.0250  140.2550 C   0  0  2  0  0  3  0  0  0  0  0  0
  180.4620  177.8220  137.9830 C   0  0  1  0  0  0  0  0  0  0  0  0
  180.6970  179.0910  138.7880 C   0  0  1  0  0  3  0  0  0  0  0  0
  184.0280  177.4580  137.2330 C   0  0  0  0  0  2  0  0  0  0  0  0
  184.5660  179.9320  139.1050 O   0  0  0  0  0  1  0  0  0  0  0  0
  182.8730  175.5070  138.0270 C   0  0  0  0  0  2  0  0  0  0  0  0
  181.2140  176.4650  135.9730 C   0  0  0  0  0  2  0  0  0  0  0  0
  179.5870  179.6240  137.9120 C   0  0  0  0  0  2  0  0  0  0  0  0
  183.6810  173.7040  136.4320 C   0  0  1  0  0  3  0  0  0  0  0  0
  184.6580  173.6010  137.5900 C   0  0  0  0  0  1  0  0  0  0  0  0
  183.1560  172.3520  136.0560 C   0  0  0  0  0  0  0  0  0  0  0  0
  182.5000  172.1570  134.8460 O   0  0  0  0  0  1  0  0  0  0  0  0
  183.3240  171.3320  136.8810 C   0  0  0  0  0  2  0  0  0  0  0  0
  186.3850  178.1990  137.5530 C   0  0  0  0  0  2  0  0  0  0  0  0
  187.6340  177.4170  137.9380 C   0  0  0  0  0  2  0  0  0  0  0  0
  188.7080  178.3370  138.4920 C   0  0  0  0  0  2  0  0  0  0  0  0
  189.0740  177.9200  139.9070 C   0  0  0  0  0  2  0  0  0  0  0  0
  188.1870  178.6320  140.9130 C   0  0  0  0  0  2  0  0  0  0  0  0
  188.5330  178.2520  142.2100 O   0  0  0  0  0  0  0  0  0  0  0  0
  187.7650  176.5220  143.6470 C   0  0  0  0  0  1  0  0  0  0  0  0
  187.3790  177.6540  142.7170 C   0  0  0  0  0  2  0  0  0  0  0  0
  1 24  1  6  0  0  0
  1 21  1  0  0  0  0
  2 12  1  0  0  0  0
  2 15  1  0  0  0  0
  4 22  1  6  0  0  0
  4 14  1  0  0  0  0
  4 17  1  0  0  0  0
  5 12  1  0  0  0  0
  6 23  1  0  0  0  0
  6 17  1  0  0  0  0
  7 10  2  0  0  0  0
  8 22  1  0  0  0  0
  8  1  1  0  0  0  0
 10 15  1  0  0  0  0
 12  9  1  0  0  0  0
 13 29  1  6  0  0  0
 13  7  1  0  0  0  0
 14 19  1  6  0  0  0
 14 21  1  0  0  0  0
 16  3  1  1  0  0  0
 16 12  1  0  0  0  0
 17 11  1  1  0  0  0
 17 18  1  0  0  0  0
 18 23  1  6  0  0  0
 18 16  1  0  0  0  0
 19 13  1  0  0  0  0
 20  7  1  0  0  0  0
 24 25  1  1  0  0  0
 26 24  1  0  0  0  0
 26 28  2  0  0  0  0
 27 26  1  0  0  0  0
 29 30  1  0  0  0  0
 30 31  1  0  0  0  0
 31 32  1  0  0  0  0
 32 33  1  0  0  0  0
 33 34  1  0  0  0  0
 34 36  1  0  0  0  0
 36 35  1  0  0  0  0
M  END
>  <MODEL>
3

>  <REMARK>
 VINA RESULT:      -5.4      1.053      1.094
  Name = 
  9 active torsions:
  status: ('A' for Active; 'I' for Inactive)
    1  A    between atoms: C_1  and  C_21
    2  A    between atoms: C_1  and  C_30
    3  A    between atoms: C_2  and  C_5
    4  A    between atoms: C_2  and  C_30
    5  A    between atoms: C_3  and  C_15
    6  A    between atoms: C_5  and  C_22
    7  A    between atoms: C_7  and  C_15
    8  A    between atoms: C_22  and  O_24
    9  A    between atoms: O_24  and  C_34
                            x       y       z     vdW  Elec       q    Type
                         _______ _______ _______ _____ _____    ______ ____

>  <TORSDO>
F 9

$$$$
=
 OpenBabel10222419583D

 36 38  0  0  1  0  0  0  0  0999 V2000
  184.4970  178.4220  141.2690 C   0  0  2  0  0  3  0  0  0  0  0  0
  179.5880  175.8290  138.1410 O   0  0  0  0  0  0  0  0  0  0  0  0
  180.9630  174.9880  135.7930 O   0  0  0  0  0  1  0  0  0  0  0  0
  183.3230  178.2800  138.6300 C   0  0  2  0  0  3  0  0  0  0  0  0
  181.4310  175.0540  139.3450 F   0  0  0  0  0  0  0  0  0  0  0  0
  184.0700  177.2660  136.5560 O   0  0  0  0  0  0  0  0  0  0  0  0
  179.5820  178.1580  139.9150 C   0  0  0  0  0  0  0  0  0  0  0  0
  184.7470  179.4460  140.2580 N   0  0  0  0  0  2  0  0  0  0  0  0
  180.2510  173.6410  138.0460 F   0  0  0  0  0  0  0  0  0  0  0  0
  179.5270  176.8760  140.2660 C   0  0  0  0  0  3  0  0  0  0  0  0
  183.8950  175.9130  138.4150 O   0  0  0  0  0  1  0  0  0  0  0  0
  180.6950  174.9470  138.1700 C   0  0  0  0  0  0  0  0  0  0  0  0
  180.4010  179.0900  140.7480 C   0  0  1  0  0  3  0  0  0  0  0  0
  182.4570  178.0910  139.8090 N   0  0  2  0  0  0  0  0  0  0  0  0
  178.9330  175.8210  139.3870 C   0  0  0  0  0  2  0  0  0  0  0  0
  181.6200  175.2750  136.9950 C   0  0  2  0  0  3  0  0  0  0  0  0
  183.3650  177.0230  137.7460 C   0  0  1  0  0  0  0  0  0  0  0  0
  182.0600  176.7530  137.0120 C   0  0  1  0  0  3  0  0  0  0  0  0
  181.7480  179.3440  140.0720 C   0  0  0  0  0  2  0  0  0  0  0  0
  178.9960  178.6030  138.7320 O   0  0  0  0  0  1  0  0  0  0  0  0
  183.1780  177.6640  141.0210 C   0  0  0  0  0  2  0  0  0  0  0  0
  184.7390  178.7740  138.9680 C   0  0  0  0  0  2  0  0  0  0  0  0
  182.9050  177.0540  135.7950 C   0  0  0  0  0  2  0  0  0  0  0  0
  184.5570  178.9940  142.6880 C   0  0  1  0  0  3  0  0  0  0  0  0
  183.2010  178.9100  143.3670 C   0  0  0  0  0  1  0  0  0  0  0  0
  185.6190  178.3660  143.5370 C   0  0  0  0  0  0  0  0  0  0  0  0
  185.5360  178.4090  144.9240 O   0  0  0  0  0  1  0  0  0  0  0  0
  186.6430  177.7570  142.9610 C   0  0  0  0  0  2  0  0  0  0  0  0
  179.6820  180.4170  140.9600 C   0  0  0  0  0  2  0  0  0  0  0  0
  180.1080  181.4490  139.9230 C   0  0  0  0  0  2  0  0  0  0  0  0
  178.9340  182.3120  139.4940 C   0  0  0  0  0  2  0  0  0  0  0  0
  179.0240  182.6170  138.0090 C   0  0  0  0  0  2  0  0  0  0  0  0
  180.4050  182.2700  137.4820 C   0  0  0  0  0  2  0  0  0  0  0  0
  180.4920  182.5800  136.1240 O   0  0  0  0  0  0  0  0  0  0  0  0
  180.7210  184.9250  135.8130 C   0  0  0  0  0  1  0  0  0  0  0  0
  179.7660  183.7640  135.9890 C   0  0  0  0  0  2  0  0  0  0  0  0
  1 24  1  1  0  0  0
  2 12  1  0  0  0  0
  2 15  1  0  0  0  0
  4 22  1  1  0  0  0
  4 14  1  0  0  0  0
  6 17  1  0  0  0  0
  7 10  2  0  0  0  0
  7 13  1  0  0  0  0
  8  1  1  0  0  0  0
  9 12  1  0  0  0  0
 12  5  1  0  0  0  0
 13 29  1  6  0  0  0
 14 19  1  1  0  0  0
 14 21  1  0  0  0  0
 15 10  1  0  0  0  0
 16  3  1  6  0  0  0
 16 18  1  0  0  0  0
 16 12  1  0  0  0  0
 17 11  1  1  0  0  0
 17  4  1  0  0  0  0
 18 23  1  6  0  0  0
 18 17  1  0  0  0  0
 19 13  1  0  0  0  0
 20  7  1  0  0  0  0
 21  1  1  0  0  0  0
 22  8  1  0  0  0  0
 23  6  1  0  0  0  0
 24 25  1  1  0  0  0
 24 26  1  0  0  0  0
 26 27  1  0  0  0  0
 28 26  2  0  0  0  0
 30 29  1  0  0  0  0
 31 30  1  0  0  0  0
 32 31  1  0  0  0  0
 33 32  1  0  0  0  0
 34 33  1  0  0  0  0
 35 36  1  0  0  0  0
 36 34  1  0  0  0  0
M  END
>  <MODEL>
4

>  <REMARK>
 VINA RESULT:      -5.4      2.844      7.133
  Name = 
  9 active torsions:
  status: ('A' for Active; 'I' for Inactive)
    1  A    between atoms: C_1  and  C_21
    2  A    between atoms: C_1  and  C_30
    3  A    between atoms: C_2  and  C_5
    4  A    between atoms: C_2  and  C_30
    5  A    between atoms: C_3  and  C_15
    6  A    between atoms: C_5  and  C_22
    7  A    between atoms: C_7  and  C_15
    8  A    between atoms: C_22  and  O_24
    9  A    between atoms: O_24  and  C_34
                            x       y       z     vdW  Elec       q    Type
                         _______ _______ _______ _____ _____    ______ ____

>  <TORSDO>
F 9

$$$$
=
 OpenBabel10222419583D

 36 38  0  0  1  0  0  0  0  0999 V2000
  191.1950  176.8060  140.7110 C   0  0  2  0  0  3  0  0  0  0  0  0
  190.6680  174.1200  134.9570 O   0  0  0  0  0  0  0  0  0  0  0  0
  193.3800  173.3300  134.5950 O   0  0  0  0  0  1  0  0  0  0  0  0
  192.5440  176.6560  138.1580 C   0  0  2  0  0  3  0  0  0  0  0  0
  190.8790  173.3800  137.1600 F   0  0  0  0  0  0  0  0  0  0  0  0
  194.6560  175.6770  137.4740 O   0  0  0  0  0  0  0  0  0  0  0  0
  189.2230  176.4340  136.0180 C   0  0  0  0  0  0  0  0  0  0  0  0
  192.1230  177.8430  140.2670 N   0  0  0  0  0  2  0  0  0  0  0  0
  191.1980  171.9490  135.4500 F   0  0  0  0  0  0  0  0  0  0  0  0
  188.9390  175.1490  136.2100 C   0  0  0  0  0  3  0  0  0  0  0  0
  193.1160  174.3050  138.5070 O   0  0  0  0  0  1  0  0  0  0  0  0
  191.3490  173.2650  135.8570 C   0  0  0  0  0  0  0  0  0  0  0  0
  189.0550  177.3800  137.1630 C   0  0  1  0  0  3  0  0  0  0  0  0
  191.0860  176.4370  138.2100 N   0  0  2  0  0  0  0  0  0  0  0  0
  189.2840  174.0860  135.2150 C   0  0  0  0  0  2  0  0  0  0  0  0
  192.8370  173.6240  135.8510 C   0  0  2  0  0  3  0  0  0  0  0  0
  193.2910  175.4080  137.6610 C   0  0  1  0  0  0  0  0  0  0  0  0
  193.0650  175.1120  136.1860 C   0  0  1  0  0  3  0  0  0  0  0  0
  190.4140  177.6710  137.7980 C   0  0  0  0  0  2  0  0  0  0  0  0
  189.7790  176.8740  134.8190 O   0  0  0  0  0  1  0  0  0  0  0  0
  190.5900  176.0180  139.5330 C   0  0  0  0  0  2  0  0  0  0  0  0
  193.1440  177.1820  139.4720 C   0  0  0  0  0  2  0  0  0  0  0  0
  194.5370  175.4420  136.0920 C   0  0  0  0  0  2  0  0  0  0  0  0
  190.1070  177.3690  141.6290 C   0  0  1  0  0  3  0  0  0  0  0  0
  188.7930  177.5250  140.8830 C   0  0  0  0  0  1  0  0  0  0  0  0
  189.9170  176.5720  142.8830 C   0  0  0  0  0  0  0  0  0  0  0  0
  191.0050  176.2260  143.6760 O   0  0  0  0  0  1  0  0  0  0  0  0
  188.6990  176.2000  143.2430 C   0  0  0  0  0  2  0  0  0  0  0  0
  188.4170  178.6870  136.7110 C   0  0  0  0  0  2  0  0  0  0  0  0
  186.8990  178.6350  136.8360 C   0  0  0  0  0  2  0  0  0  0  0  0
  186.4800  178.0130  138.1580 C   0  0  0  0  0  2  0  0  0  0  0  0
  184.9710  178.0930  138.3180 C   0  0  0  0  0  2  0  0  0  0  0  0
  184.6130  178.9510  139.5170 C   0  0  0  0  0  2  0  0  0  0  0  0
  184.1460  180.1960  139.0930 O   0  0  0  0  0  0  0  0  0  0  0  0
  182.0670  181.2720  138.6860 C   0  0  0  0  0  1  0  0  0  0  0  0
  182.8240  179.9620  138.7140 C   0  0  0  0  0  2  0  0  0  0  0  0
  1 24  1  6  0  0  0
  2 15  1  0  0  0  0
  2 12  1  0  0  0  0
  4 14  1  0  0  0  0
  4 22  1  1  0  0  0
  6 17  1  0  0  0  0
  7 10  2  0  0  0  0
  7 13  1  0  0  0  0
  8  1  1  0  0  0  0
  9 12  1  0  0  0  0
 12  5  1  0  0  0  0
 13 29  1  6  0  0  0
 13 19  1  0  0  0  0
 14 19  1  1  0  0  0
 14 21  1  0  0  0  0
 15 10  1  0  0  0  0
 16  3  1  6  0  0  0
 16 12  1  0  0  0  0
 16 18  1  0  0  0  0
 17  4  1  0  0  0  0
 17 11  1  1  0  0  0
 18 23  1  6  0  0  0
 18 17  1  0  0  0  0
 20  7  1  0  0  0  0
 21  1  1  0  0  0  0
 22  8  1  0  0  0  0
 23  6  1  0  0  0  0
 24 25  1  6  0  0  0
 24 26  1  0  0  0  0
 26 28  2  0  0  0  0
 26 27  1  0  0  0  0
 29 30  1  0  0  0  0
 30 31  1  0  0  0  0
 31 32  1  0  0  0  0
 32 33  1  0  0  0  0
 34 33  1  0  0  0  0
 35 36  1  0  0  0  0
 36 34  1  0  0  0  0
M  END
>  <MODEL>
5

>  <REMARK>
 VINA RESULT:      -5.2      5.218      9.804
  Name = 
  9 active torsions:
  status: ('A' for Active; 'I' for Inactive)
    1  A    between atoms: C_1  and  C_21
    2  A    between atoms: C_1  and  C_30
    3  A    between atoms: C_2  and  C_5
    4  A    between atoms: C_2  and  C_30
    5  A    between atoms: C_3  and  C_15
    6  A    between atoms: C_5  and  C_22
    7  A    between atoms: C_7  and  C_15
    8  A    between atoms: C_22  and  O_24
    9  A    between atoms: O_24  and  C_34
                            x       y       z     vdW  Elec       q    Type
                         _______ _______ _______ _____ _____    ______ ____

>  <TORSDO>
F 9

$$$$
=
 OpenBabel10222419583D

 36 38  0  0  1  0  0  0  0  0999 V2000
  181.5470  176.5590  136.5550 C   0  0  2  0  0  3  0  0  0  0  0  0
  187.9060  176.9330  136.7600 O   0  0  0  0  0  0  0  0  0  0  0  0
  188.5200  174.2090  136.1970 O   0  0  0  0  0  1  0  0  0  0  0  0
  183.8610  175.1460  137.5630 C   0  0  2  0  0  3  0  0  0  0  0  0
  186.2690  176.7730  135.1030 F   0  0  0  0  0  0  0  0  0  0  0  0
  184.8620  173.0140  136.9810 O   0  0  0  0  0  0  0  0  0  0  0  0
  185.9490  178.4120  138.3570 C   0  0  0  0  0  0  0  0  0  0  0  0
  181.4530  175.6250  137.6730 N   0  0  0  0  0  2  0  0  0  0  0  0
  188.4330  176.4060  134.5970 F   0  0  0  0  0  0  0  0  0  0  0  0
  186.3650  178.6950  137.1260 C   0  0  0  0  0  3  0  0  0  0  0  0
  184.5970  174.5740  135.3030 O   0  0  0  0  0  1  0  0  0  0  0  0
  187.4730  176.2710  135.5850 C   0  0  0  0  0  0  0  0  0  0  0  0
  184.5040  178.6120  138.6850 C   0  0  1  0  0  3  0  0  0  0  0  0
  183.9470  176.6040  137.3550 N   0  0  2  0  0  0  0  0  0  0  0  0
  187.7240  178.3220  136.6250 C   0  0  0  0  0  2  0  0  0  0  0  0
  187.2800  174.7840  135.8970 C   0  0  2  0  0  3  0  0  0  0  0  0
  184.8490  174.3830  136.6680 C   0  0  1  0  0  0  0  0  0  0  0  0
  186.3040  174.5700  137.0710 C   0  0  1  0  0  3  0  0  0  0  0  0
  183.7740  177.2700  138.6480 C   0  0  0  0  0  2  0  0  0  0  0  0
  186.8060  177.8280  139.2870 O   0  0  0  0  0  1  0  0  0  0  0  0
  182.9690  177.1320  136.3890 C   0  0  0  0  0  2  0  0  0  0  0  0
  182.4370  174.5810  137.4340 C   0  0  0  0  0  2  0  0  0  0  0  0
  186.2040  173.0980  137.3970 C   0  0  0  0  0  2  0  0  0  0  0  0
  180.5010  177.6720  136.6510 C   0  0  1  0  0  3  0  0  0  0  0  0
  179.8120  177.6570  138.0040 C   0  0  0  0  0  1  0  0  0  0  0  0
  181.0520  179.0320  136.3490 C   0  0  0  0  0  0  0  0  0  0  0  0
  181.3220  179.4140  135.0400 O   0  0  0  0  0  1  0  0  0  0  0  0
  181.2770  179.8820  137.3380 C   0  0  0  0  0  2  0  0  0  0  0  0
  184.3330  179.2440  140.0610 C   0  0  0  0  0  2  0  0  0  0  0  0
  183.7780  178.2410  141.0650 C   0  0  0  0  0  2  0  0  0  0  0  0
  184.5120  178.3310  142.3920 C   0  0  0  0  0  2  0  0  0  0  0  0
  183.5270  178.5910  143.5190 C   0  0  0  0  0  2  0  0  0  0  0  0
  184.1440  179.5120  144.5560 C   0  0  0  0  0  2  0  0  0  0  0  0
  184.2440  178.8520  145.7820 O   0  0  0  0  0  0  0  0  0  0  0  0
  186.2580  177.5940  145.8320 C   0  0  0  0  0  1  0  0  0  0  0  0
  185.5980  178.9270  146.1100 C   0  0  0  0  0  2  0  0  0  0  0  0
  1 24  1  1  0  0  0
  1  8  1  0  0  0  0
  4 22  1  6  0  0  0
  5 12  1  0  0  0  0
  6 23  1  0  0  0  0
  7 13  1  0  0  0  0
  7 20  1  0  0  0  0
  9 12  1  0  0  0  0
 10  7  2  0  0  0  0
 12 16  1  0  0  0  0
 12  2  1  0  0  0  0
 13 29  1  1  0  0  0
 14 21  1  6  0  0  0
 14  4  1  0  0  0  0
 14 19  1  0  0  0  0
 15  2  1  0  0  0  0
 15 10  1  0  0  0  0
 16  3  1  1  0  0  0
 16 18  1  0  0  0  0
 17 11  1  6  0  0  0
 17  6  1  0  0  0  0
 17 18  1  0  0  0  0
 17  4  1  0  0  0  0
 18 23  1  6  0  0  0
 19 13  1  0  0  0  0
 21  1  1  0  0  0  0
 22  8  1  0  0  0  0
 24 25  1  1  0  0  0
 26 24  1  0  0  0  0
 26 28  2  0  0  0  0
 27 26  1  0  0  0  0
 29 30  1  0  0  0  0
 30 31  1  0  0  0  0
 31 32  1  0  0  0  0
 32 33  1  0  0  0  0
 33 34  1  0  0  0  0
 34 36  1  0  0  0  0
 35 36  1  0  0  0  0
M  END
>  <MODEL>
6

>  <REMARK>
 VINA RESULT:      -5.2      3.094      6.116
  Name = 
  9 active torsions:
  status: ('A' for Active; 'I' for Inactive)
    1  A    between atoms: C_1  and  C_21
    2  A    between atoms: C_1  and  C_30
    3  A    between atoms: C_2  and  C_5
    4  A    between atoms: C_2  and  C_30
    5  A    between atoms: C_3  and  C_15
    6  A    between atoms: C_5  and  C_22
    7  A    between atoms: C_7  and  C_15
    8  A    between atoms: C_22  and  O_24
    9  A    between atoms: O_24  and  C_34
                            x       y       z     vdW  Elec       q    Type
                         _______ _______ _______ _____ _____    ______ ____

>  <TORSDO>
F 9

$$$$
=
 OpenBabel10222419583D

 36 38  0  0  1  0  0  0  0  0999 V2000
  190.8090  176.8050  141.3730 C   0  0  2  0  0  3  0  0  0  0  0  0
  189.4350  174.5750  135.5640 O   0  0  0  0  0  0  0  0  0  0  0  0
  192.0890  174.1930  134.6060 O   0  0  0  0  0  1  0  0  0  0  0  0
  191.6180  177.0570  138.6090 C   0  0  2  0  0  3  0  0  0  0  0  0
  190.1740  173.6840  137.5900 F   0  0  0  0  0  0  0  0  0  0  0  0
  193.6460  176.4340  137.4300 O   0  0  0  0  0  0  0  0  0  0  0  0
  187.9790  176.5740  137.1310 C   0  0  0  0  0  0  0  0  0  0  0  0
  191.5000  177.9910  140.8780 N   0  0  0  0  0  2  0  0  0  0  0  0
  190.3010  172.4620  135.7030 F   0  0  0  0  0  0  0  0  0  0  0  0
  187.8910  175.2500  137.2300 C   0  0  0  0  0  3  0  0  0  0  0  0
  192.5160  174.7840  138.5790 O   0  0  0  0  0  1  0  0  0  0  0  0
  190.3790  173.7460  136.2170 C   0  0  0  0  0  0  0  0  0  0  0  0
  187.9400  177.3860  138.3850 C   0  0  1  0  0  3  0  0  0  0  0  0
  190.2360  176.6400  138.9140 N   0  0  2  0  0  0  0  0  0  0  0  0
  188.1460  174.3330  136.0760 C   0  0  0  0  0  2  0  0  0  0  0  0
  191.7830  174.3020  135.9670 C   0  0  2  0  0  3  0  0  0  0  0  0
  192.3870  175.9680  137.8430 C   0  0  1  0  0  0  0  0  0  0  0  0
  191.9010  175.7720  136.4150 C   0  0  1  0  0  3  0  0  0  0  0  0
  189.3570  177.8030  138.7770 C   0  0  0  0  0  2  0  0  0  0  0  0
  188.2250  177.1860  135.9040 O   0  0  0  0  0  1  0  0  0  0  0  0
  190.0710  176.0460  140.2520 C   0  0  0  0  0  2  0  0  0  0  0  0
  192.4080  177.5450  139.8340 C   0  0  0  0  0  2  0  0  0  0  0  0
  193.2760  176.3050  136.0790 C   0  0  0  0  0  2  0  0  0  0  0  0
  189.8720  177.1340  142.5380 C   0  0  1  0  0  3  0  0  0  0  0  0
  188.9580  175.9620  142.8510 C   0  0  0  0  0  1  0  0  0  0  0  0
  190.5920  177.5920  143.7690 C   0  0  0  0  0  0  0  0  0  0  0  0
  190.5130  178.9160  144.1870 O   0  0  0  0  0  1  0  0  0  0  0  0
  191.3060  176.7260  144.4700 C   0  0  0  0  0  2  0  0  0  0  0  0
  187.0770  178.6290  138.2110 C   0  0  0  0  0  2  0  0  0  0  0  0
  185.6170  178.2610  137.9740 C   0  0  0  0  0  2  0  0  0  0  0  0
  184.6950  179.0850  138.8570 C   0  0  0  0  0  2  0  0  0  0  0  0
  183.9570  178.1800  139.8290 C   0  0  0  0  0  2  0  0  0  0  0  0
  184.1990  178.6330  141.2580 C   0  0  0  0  0  2  0  0  0  0  0  0
  185.3780  179.3750  141.3330 O   0  0  0  0  0  0  0  0  0  0  0  0
  185.7850  178.2520  143.3860 C   0  0  0  0  0  1  0  0  0  0  0  0
  186.2800  178.5330  141.9840 C   0  0  0  0  0  2  0  0  0  0  0  0
  1 24  1  1  0  0  0
  2 15  1  0  0  0  0
  2 12  1  0  0  0  0
  4 14  1  0  0  0  0
  4 22  1  1  0  0  0
  6 17  1  0  0  0  0
  7 10  2  0  0  0  0
  7 13  1  0  0  0  0
  8  1  1  0  0  0  0
  9 12  1  0  0  0  0
 12  5  1  0  0  0  0
 13 29  1  6  0  0  0
 13 19  1  0  0  0  0
 14 19  1  1  0  0  0
 14 21  1  0  0  0  0
 15 10  1  0  0  0  0
 16  3  1  6  0  0  0
 16 12  1  0  0  0  0
 16 18  1  0  0  0  0
 17 11  1  1  0  0  0
 17  4  1  0  0  0  0
 18 23  1  6  0  0  0
 18 17  1  0  0  0  0
 20  7  1  0  0  0  0
 21  1  1  0  0  0  0
 22  8  1  0  0  0  0
 23  6  1  0  0  0  0
 24 25  1  1  0  0  0
 24 26  1  0  0  0  0
 26 27  1  0  0  0  0
 26 28  2  0  0  0  0
 30 29  1  0  0  0  0
 30 31  1  0  0  0  0
 31 32  1  0  0  0  0
 32 33  1  0  0  0  0
 33 34  1  0  0  0  0
 34 36  1  0  0  0  0
 36 35  1  0  0  0  0
M  END
>  <MODEL>
7

>  <REMARK>
 VINA RESULT:      -5.1      4.593      9.121
  Name = 
  9 active torsions:
  status: ('A' for Active; 'I' for Inactive)
    1  A    between atoms: C_1  and  C_21
    2  A    between atoms: C_1  and  C_30
    3  A    between atoms: C_2  and  C_5
    4  A    between atoms: C_2  and  C_30
    5  A    between atoms: C_3  and  C_15
    6  A    between atoms: C_5  and  C_22
    7  A    between atoms: C_7  and  C_15
    8  A    between atoms: C_22  and  O_24
    9  A    between atoms: O_24  and  C_34
                            x       y       z     vdW  Elec       q    Type
                         _______ _______ _______ _____ _____    ______ ____

>  <TORSDO>
F 9

$$$$
=
 OpenBabel10222419583D

 36 38  0  0  1  0  0  0  0  0999 V2000
  181.3480  177.5920  137.7530 C   0  0  2  0  0  3  0  0  0  0  0  0
  187.5790  176.6110  136.8490 O   0  0  0  0  0  0  0  0  0  0  0  0
  187.4810  173.8700  136.0800 O   0  0  0  0  0  1  0  0  0  0  0  0
  183.4280  175.6540  138.2810 C   0  0  2  0  0  3  0  0  0  0  0  0
  185.6990  176.9240  135.5020 F   0  0  0  0  0  0  0  0  0  0  0  0
  183.8280  173.4100  137.4480 O   0  0  0  0  0  0  0  0  0  0  0  0
  186.2830  178.3400  138.8230 C   0  0  0  0  0  0  0  0  0  0  0  0
  181.2350  176.6160  138.8330 N   0  0  0  0  0  2  0  0  0  0  0  0
  187.6180  176.1530  134.6070 F   0  0  0  0  0  0  0  0  0  0  0  0
  186.5430  178.6240  137.5500 C   0  0  0  0  0  3  0  0  0  0  0  0
  183.6410  175.1150  135.9060 O   0  0  0  0  0  1  0  0  0  0  0  0
  186.8260  176.1460  135.7440 C   0  0  0  0  0  0  0  0  0  0  0  0
  184.9910  178.8120  139.4080 C   0  0  1  0  0  3  0  0  0  0  0  0
  183.7970  177.0730  138.1190 N   0  0  2  0  0  0  0  0  0  0  0  0
  187.6870  178.0130  136.8030 C   0  0  0  0  0  2  0  0  0  0  0  0
  186.3650  174.7140  136.0260 C   0  0  2  0  0  3  0  0  0  0  0  0
  184.0650  174.7720  137.1960 C   0  0  1  0  0  0  0  0  0  0  0  0
  185.5720  174.6190  137.3440 C   0  0  1  0  0  3  0  0  0  0  0  0
  183.9870  177.6600  139.4470 C   0  0  0  0  0  2  0  0  0  0  0  0
  187.1310  177.5200  139.5630 O   0  0  0  0  0  1  0  0  0  0  0  0
  182.8130  177.8660  137.3610 C   0  0  0  0  0  2  0  0  0  0  0  0
  181.9130  175.4110  138.3830 C   0  0  0  0  0  2  0  0  0  0  0  0
  185.2050  173.1790  137.6240 C   0  0  0  0  0  2  0  0  0  0  0  0
  180.6010  178.8890  138.0760 C   0  0  1  0  0  3  0  0  0  0  0  0
  179.1410  178.6140  138.3870 C   0  0  0  0  0  1  0  0  0  0  0  0
  181.2400  179.6850  139.1720 C   0  0  0  0  0  0  0  0  0  0  0  0
  181.1210  179.2880  140.4990 O   0  0  0  0  0  1  0  0  0  0  0  0
  181.9300  180.7740  138.8740 C   0  0  0  0  0  2  0  0  0  0  0  0
  185.1890  179.3590  140.8160 C   0  0  0  0  0  2  0  0  0  0  0  0
  184.2530  178.6820  141.8100 C   0  0  0  0  0  2  0  0  0  0  0  0
  185.0330  177.8790  142.8370 C   0  0  0  0  0  2  0  0  0  0  0  0
  184.9810  178.5690  144.1890 C   0  0  0  0  0  2  0  0  0  0  0  0
  186.2520  178.2900  144.9720 C   0  0  0  0  0  2  0  0  0  0  0  0
  186.7890  177.0600  144.5910 O   0  0  0  0  0  0  0  0  0  0  0  0
  188.4970  177.5610  146.1650 C   0  0  0  0  0  1  0  0  0  0  0  0
  188.1670  177.2240  144.7260 C   0  0  0  0  0  2  0  0  0  0  0  0
  1 24  1  1  0  0  0
  1  8  1  0  0  0  0
  4 22  1  6  0  0  0
  5 12  1  0  0  0  0
  6 23  1  0  0  0  0
  7 13  1  0  0  0  0
  7 20  1  0  0  0  0
  9 12  1  0  0  0  0
 10  7  2  0  0  0  0
 12 16  1  0  0  0  0
 12  2  1  0  0  0  0
 13 19  1  0  0  0  0
 13 29  1  1  0  0  0
 14 21  1  1  0  0  0
 14  4  1  0  0  0  0
 14 19  1  0  0  0  0
 15  2  1  0  0  0  0
 15 10  1  0  0  0  0
 16  3  1  1  0  0  0
 16 18  1  0  0  0  0
 17 11  1  6  0  0  0
 17 18  1  0  0  0  0
 17  6  1  0  0  0  0
 17  4  1  0  0  0  0
 18 23  1  6  0  0  0
 21  1  1  0  0  0  0
 22  8  1  0  0  0  0
 24 25  1  1  0  0  0
 24 26  1  0  0  0  0
 26 27  1  0  0  0  0
 28 26  2  0  0  0  0
 29 30  1  0  0  0  0
 30 31  1  0  0  0  0
 31 32  1  0  0  0  0
 32 33  1  0  0  0  0
 34 36  1  0  0  0  0
 34 33  1  0  0  0  0
 36 35  1  0  0  0  0
M  END
>  <MODEL>
8

>  <REMARK>
 VINA RESULT:      -4.8      2.647      5.886
  Name = 
  9 active torsions:
  status: ('A' for Active; 'I' for Inactive)
    1  A    between atoms: C_1  and  C_21
    2  A    between atoms: C_1  and  C_30
    3  A    between atoms: C_2  and  C_5
    4  A    between atoms: C_2  and  C_30
    5  A    between atoms: C_3  and  C_15
    6  A    between atoms: C_5  and  C_22
    7  A    between atoms: C_7  and  C_15
    8  A    between atoms: C_22  and  O_24
    9  A    between atoms: O_24  and  C_34
                            x       y       z     vdW  Elec       q    Type
                         _______ _______ _______ _____ _____    ______ ____

>  <TORSDO>
F 9

$$$$
=
 OpenBabel10222419583D

 36 38  0  0  1  0  0  0  0  0999 V2000
  181.6900  176.8430  136.6480 C   0  0  2  0  0  3  0  0  0  0  0  0
  188.0560  176.6450  136.8670 O   0  0  0  0  0  0  0  0  0  0  0  0
  188.4240  173.8750  136.3170 O   0  0  0  0  0  1  0  0  0  0  0  0
  183.8650  175.2330  137.6670 C   0  0  2  0  0  3  0  0  0  0  0  0
  186.4150  176.6260  135.2070 F   0  0  0  0  0  0  0  0  0  0  0  0
  184.6720  173.0170  137.0970 O   0  0  0  0  0  0  0  0  0  0  0  0
  186.2370  178.3020  138.4530 C   0  0  0  0  0  0  0  0  0  0  0  0
  181.5100  175.9260  137.7700 N   0  0  0  0  0  2  0  0  0  0  0  0
  188.5380  176.0640  134.7070 F   0  0  0  0  0  0  0  0  0  0  0  0
  186.6780  178.5410  137.2210 C   0  0  0  0  0  3  0  0  0  0  0  0
  184.5510  174.5870  135.4120 O   0  0  0  0  0  1  0  0  0  0  0  0
  187.5670  176.0200  135.6940 C   0  0  0  0  0  0  0  0  0  0  0  0
  184.8150  178.6320  138.7770 C   0  0  1  0  0  3  0  0  0  0  0  0
  184.0830  176.6760  137.4540 N   0  0  2  0  0  0  0  0  0  0  0  0
  188.0000  178.0440  136.7250 C   0  0  0  0  0  2  0  0  0  0  0  0
  187.2410  174.5580  136.0110 C   0  0  2  0  0  3  0  0  0  0  0  0
  184.7830  174.3800  136.7780 C   0  0  1  0  0  0  0  0  0  0  0  0
  186.2480  174.4370  137.1840 C   0  0  1  0  0  3  0  0  0  0  0  0
  183.9670  177.3610  138.7430 C   0  0  0  0  0  2  0  0  0  0  0  0
  187.0360  177.6470  139.3870 O   0  0  0  0  0  1  0  0  0  0  0  0
  183.1570  177.2860  136.4820 C   0  0  0  0  0  2  0  0  0  0  0  0
  182.3960  174.7970  137.5380 C   0  0  0  0  0  2  0  0  0  0  0  0
  186.0150  172.9810  137.5160 C   0  0  0  0  0  2  0  0  0  0  0  0
  180.7480  178.0470  136.7370 C   0  0  1  0  0  3  0  0  0  0  0  0
  179.2960  177.6110  136.6400 C   0  0  0  0  0  1  0  0  0  0  0  0
  180.9720  178.8880  137.9550 C   0  0  0  0  0  0  0  0  0  0  0  0
  180.5920  178.4330  139.2130 O   0  0  0  0  0  1  0  0  0  0  0  0
  181.5450  180.0750  137.8350 C   0  0  0  0  0  2  0  0  0  0  0  0
  184.6980  179.2820  140.1490 C   0  0  0  0  0  2  0  0  0  0  0  0
  183.8880  178.4160  141.1050 C   0  0  0  0  0  2  0  0  0  0  0  0
  184.3790  178.5720  142.5340 C   0  0  0  0  0  2  0  0  0  0  0  0
  183.2480  179.0520  143.4270 C   0  0  0  0  0  2  0  0  0  0  0  0
  181.9220  178.9580  142.6930 C   0  0  0  0  0  2  0  0  0  0  0  0
  181.1750  180.1190  142.9020 O   0  0  0  0  0  0  0  0  0  0  0  0
  179.6830  178.6250  143.9920 C   0  0  0  0  0  1  0  0  0  0  0  0
  179.8500  179.6830  142.9220 C   0  0  0  0  0  2  0  0  0  0  0  0
  1 24  1  1  0  0  0
  1  8  1  0  0  0  0
  4 22  1  6  0  0  0
  5 12  1  0  0  0  0
  6 23  1  0  0  0  0
  7 13  1  0  0  0  0
  7 20  1  0  0  0  0
  9 12  1  0  0  0  0
 10  7  2  0  0  0  0
 12 16  1  0  0  0  0
 12  2  1  0  0  0  0
 13 29  1  1  0  0  0
 14 21  1  6  0  0  0
 14  4  1  0  0  0  0
 14 19  1  0  0  0  0
 15  2  1  0  0  0  0
 15 10  1  0  0  0  0
 16  3  1  1  0  0  0
 16 18  1  0  0  0  0
 17 11  1  6  0  0  0
 17  6  1  0  0  0  0
 17 18  1  0  0  0  0
 17  4  1  0  0  0  0
 18 23  1  6  0  0  0
 19 13  1  0  0  0  0
 21  1  1  0  0  0  0
 22  8  1  0  0  0  0
 24 25  1  1  0  0  0
 24 26  1  0  0  0  0
 26 27  1  0  0  0  0
 28 26  2  0  0  0  0
 29 30  1  0  0  0  0
 30 31  1  0  0  0  0
 31 32  1  0  0  0  0
 33 34  1  0  0  0  0
 33 32  1  0  0  0  0
 34 36  1  0  0  0  0
 36 35  1  0  0  0  0
M  END
>  <MODEL>
9

>  <REMARK>
 VINA RESULT:      -4.8      2.821      6.488
  Name = 
  9 active torsions:
  status: ('A' for Active; 'I' for Inactive)
    1  A    between atoms: C_1  and  C_21
    2  A    between atoms: C_1  and  C_30
    3  A    between atoms: C_2  and  C_5
    4  A    between atoms: C_2  and  C_30
    5  A    between atoms: C_3  and  C_15
    6  A    between atoms: C_5  and  C_22
    7  A    between atoms: C_7  and  C_15
    8  A    between atoms: C_22  and  O_24
    9  A    between atoms: O_24  and  C_34
                            x       y       z     vdW  Elec       q    Type
                         _______ _______ _______ _____ _____    ______ ____

>  <TORSDO>
F 9

$$$$
