=
 OpenBabel10222421113D

 34 39  0  0  0  0  0  0  0  0999 V2000
  190.0410  177.1800  146.7650 C   0  0  0  0  0  0  0  0  0  0  0  0
  191.6030  176.0250  145.3570 C   0  0  0  0  0  0  0  0  0  0  0  0
  189.5580  177.1570  144.3660 C   0  0  0  0  0  0  0  0  0  0  0  0
  189.1050  177.4860  142.0410 C   0  0  0  0  0  0  0  0  0  0  0  0
  192.0520  176.3690  147.6330 N   0  0  0  0  0  0  0  0  0  0  0  0
  192.3930  175.8670  146.4490 N   0  0  0  0  0  0  0  0  0  0  0  0
  191.1860  177.1550  142.5120 C   0  0  0  0  0  3  0  0  0  0  0  0
  190.4220  176.8020  145.4560 C   0  0  0  0  0  0  0  0  0  0  0  0
  189.7430  177.5540  140.8200 C   0  0  0  0  0  3  0  0  0  0  0  0
  190.8880  176.9880  147.8040 N   0  0  0  0  0  0  0  0  0  0  0  0
  188.2260  177.5890  144.6570 C   0  0  0  0  0  0  0  0  0  0  0  0
  188.7790  177.7060  147.0160 C   0  0  0  0  0  3  0  0  0  0  0  0
  191.8820  175.2140  144.2200 N   0  0  0  0  0  1  0  0  0  0  0  0
  187.7690  177.7710  142.2720 C   0  0  0  0  0  3  0  0  0  0  0  0
  187.3060  177.8210  143.5940 C   0  0  0  0  0  0  0  0  0  0  0  0
  191.0700  177.3430  141.1480 C   0  0  0  0  0  0  0  0  0  0  0  0
  189.9530  177.2080  143.0500 N   0  0  0  0  0  0  0  0  0  0  0  0
  187.8720  177.8740  145.9800 C   0  0  0  0  0  3  0  0  0  0  0  0
  183.6380  178.6010  142.9580 C   0  0  0  0  0  0  0  0  0  0  0  0
  183.1830  178.8500  144.2530 C   0  0  0  0  0  3  0  0  0  0  0  0
  185.8730  178.1530  143.8160 C   0  0  0  0  0  0  0  0  0  0  0  0
  184.0650  178.7600  145.3320 C   0  0  0  0  0  3  0  0  0  0  0  0
  184.9770  178.2610  142.7400 C   0  0  0  0  0  3  0  0  0  0  0  0
  185.4030  178.4180  145.1140 C   0  0  0  0  0  3  0  0  0  0  0  0
  182.7030  178.7020  141.8080 C   0  0  0  0  0  1  0  0  0  0  0  0
  192.1960  177.2940  140.1770 C   0  0  0  0  0  2  0  0  0  0  0  0
  191.6940  176.9160  138.8650 N   0  0  0  0  0  2  0  0  0  0  0  0
  190.8270  176.2960  136.2190 O   0  0  0  0  0  0  0  0  0  0  0  0
  192.4930  176.2070  137.9160 C   0  0  0  0  0  0  0  0  0  0  0  0
  191.9280  175.8290  136.6110 C   0  0  0  0  0  0  0  0  0  0  0  0
  193.7700  174.2430  136.3340 C   0  0  0  0  0  2  0  0  0  0  0  0
  194.5830  175.1720  137.2400 C   0  0  0  0  0  2  0  0  0  0  0  0
  193.7090  175.8450  138.2080 N   0  0  0  0  0  0  0  0  0  0  0  0
  192.6450  174.9430  135.8050 O   0  0  0  0  0  0  0  0  0  0  0  0
  1 12  1  0  0  0  0
  1 10  2  0  0  0  0
  2  8  2  0  0  0  0
  2  6  1  0  0  0  0
  3 11  2  0  0  0  0
  3  8  1  0  0  0  0
  4 14  1  0  0  0  0
  4 17  1  0  0  0  0
  5 10  1  0  0  0  0
  6  5  2  0  0  0  0
  7 17  1  0  0  0  0
  8  1  1  0  0  0  0
  9 16  1  0  0  0  0
  9  4  2  0  0  0  0
 11 18  1  0  0  0  0
 13  2  1  0  0  0  0
 14 15  2  0  0  0  0
 15 21  1  0  0  0  0
 15 11  1  0  0  0  0
 16  7  2  0  0  0  0
 17  3  1  0  0  0  0
 18 12  2  0  0  0  0
 19 20  1  0  0  0  0
 20 22  2  0  0  0  0
 21 24  2  0  0  0  0
 23 19  2  0  0  0  0
 23 21  1  0  0  0  0
 24 22  1  0  0  0  0
 25 19  1  0  0  0  0
 26 16  1  0  0  0  0
 27 26  1  0  0  0  0
 28 30  2  0  0  0  0
 29 33  2  0  0  0  0
 29 27  1  0  0  0  0
 30 29  1  0  0  0  0
 31 32  1  0  0  0  0
 32 33  1  0  0  0  0
 34 31  1  0  0  0  0
 34 30  1  0  0  0  0
M  END
>  <MODEL>
1

>  <REMARK>
 VINA RESULT:     -12.2      0.000      0.000
  Name = 
  3 active torsions:
  status: ('A' for Active; 'I' for Inactive)
    1  A    between atoms: N_3  and  C_17
    2  A    between atoms: C_12  and  C_28
    3  A    between atoms: C_17  and  C_29
                            x       y       z     vdW  Elec       q    Type
                         _______ _______ _______ _____ _____    ______ ____

>  <TORSDO>
F 3

$$$$
=
 OpenBabel10222421113D

 34 39  0  0  0  0  0  0  0  0999 V2000
  186.0270  178.2890  145.9660 C   0  0  0  0  0  0  0  0  0  0  0  0
  187.6390  177.2080  144.5550 C   0  0  0  0  0  0  0  0  0  0  0  0
  185.5180  178.2010  143.5730 C   0  0  0  0  0  0  0  0  0  0  0  0
  185.0190  178.4680  141.2500 C   0  0  0  0  0  0  0  0  0  0  0  0
  188.0930  177.6130  146.8200 N   0  0  0  0  0  0  0  0  0  0  0  0
  188.4490  177.1140  145.6390 N   0  0  0  0  0  0  0  0  0  0  0  0
  187.1220  178.2680  141.6990 C   0  0  0  0  0  3  0  0  0  0  0  0
  186.4140  177.9140  144.6580 C   0  0  0  0  0  0  0  0  0  0  0  0
  185.6380  178.5550  140.0200 C   0  0  0  0  0  3  0  0  0  0  0  0
  186.8960  178.1630  146.9970 N   0  0  0  0  0  0  0  0  0  0  0  0
  184.1670  178.5560  143.8740 C   0  0  0  0  0  0  0  0  0  0  0  0
  184.7380  178.7410  146.2250 C   0  0  0  0  0  3  0  0  0  0  0  0
  187.9530  176.3990  143.4260 N   0  0  0  0  0  1  0  0  0  0  0  0
  183.6720  178.6750  141.4930 C   0  0  0  0  0  3  0  0  0  0  0  0
  183.2210  178.7170  142.8200 C   0  0  0  0  0  0  0  0  0  0  0  0
  186.9790  178.4290  140.3340 C   0  0  0  0  0  0  0  0  0  0  0  0
  185.8940  178.2560  142.2520 N   0  0  0  0  0  0  0  0  0  0  0  0
  183.8110  178.8400  145.1980 C   0  0  0  0  0  3  0  0  0  0  0  0
  179.6900  180.0850  142.4760 C   0  0  0  0  0  0  0  0  0  0  0  0
  179.0540  179.4770  143.5600 C   0  0  0  0  0  3  0  0  0  0  0  0
  181.7740  178.9660  143.0550 C   0  0  0  0  0  0  0  0  0  0  0  0
  179.7710  178.6200  144.3980 C   0  0  0  0  0  3  0  0  0  0  0  0
  181.0430  179.8360  142.2290 C   0  0  0  0  0  3  0  0  0  0  0  0
  181.1240  178.3700  144.1490 C   0  0  0  0  0  3  0  0  0  0  0  0
  178.9310  181.0010  141.5870 C   0  0  0  0  0  1  0  0  0  0  0  0
  188.0950  178.4330  139.3500 C   0  0  0  0  0  2  0  0  0  0  0  0
  189.3530  178.1880  140.0370 N   0  0  0  0  0  2  0  0  0  0  0  0
  191.7770  177.5280  141.3900 O   0  0  0  0  0  0  0  0  0  0  0  0
  190.4320  177.4760  139.4280 C   0  0  0  0  0  0  0  0  0  0  0  0
  191.6920  177.2760  140.1590 C   0  0  0  0  0  0  0  0  0  0  0  0
  192.7720  176.7150  138.0380 C   0  0  0  0  0  2  0  0  0  0  0  0
  191.3920  176.2500  137.5650 C   0  0  0  0  0  2  0  0  0  0  0  0
  190.3330  177.0390  138.2050 N   0  0  0  0  0  0  0  0  0  0  0  0
  192.7980  176.7880  139.4630 O   0  0  0  0  0  0  0  0  0  0  0  0
  1 12  1  0  0  0  0
  1 10  2  0  0  0  0
  2  8  2  0  0  0  0
  2  6  1  0  0  0  0
  3 11  2  0  0  0  0
  3  8  1  0  0  0  0
  4 14  1  0  0  0  0
  4 17  1  0  0  0  0
  5 10  1  0  0  0  0
  6  5  2  0  0  0  0
  7 17  1  0  0  0  0
  8  1  1  0  0  0  0
  9 16  1  0  0  0  0
  9  4  2  0  0  0  0
 11 18  1  0  0  0  0
 13  2  1  0  0  0  0
 14 15  2  0  0  0  0
 15 21  1  0  0  0  0
 15 11  1  0  0  0  0
 16  7  2  0  0  0  0
 17  3  1  0  0  0  0
 18 12  2  0  0  0  0
 19 20  1  0  0  0  0
 20 22  2  0  0  0  0
 21 24  2  0  0  0  0
 23 19  2  0  0  0  0
 23 21  1  0  0  0  0
 24 22  1  0  0  0  0
 25 19  1  0  0  0  0
 26 27  1  0  0  0  0
 26 16  1  0  0  0  0
 29 27  1  0  0  0  0
 29 30  1  0  0  0  0
 30 28  2  0  0  0  0
 31 34  1  0  0  0  0
 32 31  1  0  0  0  0
 32 33  1  0  0  0  0
 33 29  2  0  0  0  0
 34 30  1  0  0  0  0
M  END
>  <MODEL>
2

>  <REMARK>
 VINA RESULT:     -11.1      2.527      4.151
  Name = 
  3 active torsions:
  status: ('A' for Active; 'I' for Inactive)
    1  A    between atoms: N_3  and  C_17
    2  A    between atoms: C_12  and  C_28
    3  A    between atoms: C_17  and  C_29
                            x       y       z     vdW  Elec       q    Type
                         _______ _______ _______ _____ _____    ______ ____

>  <TORSDO>
F 3

$$$$
=
 OpenBabel10222421113D

 34 39  0  0  0  0  0  0  0  0999 V2000
  187.0990  178.4810  140.4550 C   0  0  0  0  0  0  0  0  0  0  0  0
  184.7790  178.0930  139.9800 C   0  0  0  0  0  0  0  0  0  0  0  0
  185.5910  178.3130  142.3760 C   0  0  0  0  0  0  0  0  0  0  0  0
  184.2210  178.4780  144.3290 C   0  0  0  0  0  0  0  0  0  0  0  0
  186.3080  178.5420  138.2580 N   0  0  0  0  0  0  0  0  0  0  0  0
  185.0750  178.2480  138.6650 N   0  0  0  0  0  0  0  0  0  0  0  0
  183.2280  179.0150  142.4880 C   0  0  0  0  0  3  0  0  0  0  0  0
  185.7850  178.3180  140.9530 C   0  0  0  0  0  0  0  0  0  0  0  0
  182.9460  178.8270  144.7220 C   0  0  0  0  0  3  0  0  0  0  0  0
  187.3110  178.6280  139.1260 N   0  0  0  0  0  0  0  0  0  0  0  0
  186.7310  178.1580  143.2240 C   0  0  0  0  0  0  0  0  0  0  0  0
  188.1950  178.4400  141.3100 C   0  0  0  0  0  3  0  0  0  0  0  0
  183.5320  177.4910  140.3080 N   0  0  0  0  0  1  0  0  0  0  0  0
  185.2770  178.1880  145.1770 C   0  0  0  0  0  3  0  0  0  0  0  0
  186.5570  178.0170  144.6320 C   0  0  0  0  0  0  0  0  0  0  0  0
  182.3330  179.1690  143.5300 C   0  0  0  0  0  0  0  0  0  0  0  0
  184.3860  178.5490  142.9940 N   0  0  0  0  0  0  0  0  0  0  0  0
  188.0140  178.2460  142.6720 C   0  0  0  0  0  3  0  0  0  0  0  0
  189.9960  177.1030  145.9730 C   0  0  0  0  0  0  0  0  0  0  0  0
  189.7680  177.1280  147.3500 C   0  0  0  0  0  3  0  0  0  0  0  0
  187.6780  177.7310  145.5660 C   0  0  0  0  0  0  0  0  0  0  0  0
  188.5000  177.4450  147.8410 C   0  0  0  0  0  3  0  0  0  0  0  0
  188.9560  177.3970  145.0870 C   0  0  0  0  0  3  0  0  0  0  0  0
  187.4610  177.7410  146.9550 C   0  0  0  0  0  3  0  0  0  0  0  0
  191.3430  176.7610  145.4480 C   0  0  0  0  0  1  0  0  0  0  0  0
  180.9180  179.6040  143.3860 C   0  0  0  0  0  2  0  0  0  0  0  0
  180.3050  178.9110  142.2640 N   0  0  0  0  0  2  0  0  0  0  0  0
  178.9450  177.6360  140.1040 O   0  0  0  0  0  0  0  0  0  0  0  0
  179.8810  179.5930  141.0820 C   0  0  0  0  0  0  0  0  0  0  0  0
  179.2870  178.8400  139.9670 C   0  0  0  0  0  0  0  0  0  0  0  0
  179.6850  180.7730  138.5220 C   0  0  0  0  0  2  0  0  0  0  0  0
  179.5780  181.6250  139.7890 C   0  0  0  0  0  2  0  0  0  0  0  0
  180.0550  180.8780  140.9570 N   0  0  0  0  0  0  0  0  0  0  0  0
  179.0990  179.4920  138.7470 O   0  0  0  0  0  0  0  0  0  0  0  0
  1  8  2  0  0  0  0
  1 12  1  0  0  0  0
  2 13  1  0  0  0  0
  2  8  1  0  0  0  0
  3 17  1  0  0  0  0
  3 11  2  0  0  0  0
  4  9  2  0  0  0  0
  4 14  1  0  0  0  0
  5  6  1  0  0  0  0
  5 10  2  0  0  0  0
  6  2  2  0  0  0  0
  7 17  1  0  0  0  0
  7 16  2  0  0  0  0
  8  3  1  0  0  0  0
 10  1  1  0  0  0  0
 11 15  1  0  0  0  0
 12 18  2  0  0  0  0
 15 14  2  0  0  0  0
 15 21  1  0  0  0  0
 16  9  1  0  0  0  0
 17  4  1  0  0  0  0
 18 11  1  0  0  0  0
 19 20  1  0  0  0  0
 20 22  2  0  0  0  0
 21 24  2  0  0  0  0
 23 21  1  0  0  0  0
 23 19  2  0  0  0  0
 24 22  1  0  0  0  0
 25 19  1  0  0  0  0
 26 16  1  0  0  0  0
 27 26  1  0  0  0  0
 29 27  1  0  0  0  0
 30 28  2  0  0  0  0
 30 29  1  0  0  0  0
 31 34  1  0  0  0  0
 31 32  1  0  0  0  0
 32 33  1  0  0  0  0
 33 29  2  0  0  0  0
 34 30  1  0  0  0  0
M  END
>  <MODEL>
3

>  <REMARK>
 VINA RESULT:     -11.0      5.502      9.373
  Name = 
  3 active torsions:
  status: ('A' for Active; 'I' for Inactive)
    1  A    between atoms: N_3  and  C_17
    2  A    between atoms: C_12  and  C_28
    3  A    between atoms: C_17  and  C_29
                            x       y       z     vdW  Elec       q    Type
                         _______ _______ _______ _____ _____    ______ ____

>  <TORSDO>
F 3

$$$$
=
 OpenBabel10222421113D

 34 39  0  0  0  0  0  0  0  0999 V2000
  188.6530  177.1330  146.1590 C   0  0  0  0  0  0  0  0  0  0  0  0
  186.8340  178.4430  147.0150 C   0  0  0  0  0  0  0  0  0  0  0  0
  187.0770  178.0390  144.5200 C   0  0  0  0  0  0  0  0  0  0  0  0
  185.4760  178.5880  142.8310 C   0  0  0  0  0  0  0  0  0  0  0  0
  188.2750  177.2860  148.4590 N   0  0  0  0  0  0  0  0  0  0  0  0
  187.2410  178.1010  148.2620 N   0  0  0  0  0  0  0  0  0  0  0  0
  184.6580  178.4200  144.8220 C   0  0  0  0  0  3  0  0  0  0  0  0
  187.4750  177.8690  145.8890 C   0  0  0  0  0  0  0  0  0  0  0  0
  184.1300  178.8400  142.6650 C   0  0  0  0  0  3  0  0  0  0  0  0
  188.9910  176.8320  147.4350 N   0  0  0  0  0  0  0  0  0  0  0  0
  188.0220  177.7440  143.4880 C   0  0  0  0  0  0  0  0  0  0  0  0
  189.5080  176.7530  145.1300 C   0  0  0  0  0  3  0  0  0  0  0  0
  185.9320  179.5380  146.8940 N   0  0  0  0  0  1  0  0  0  0  0  0
  186.4040  178.4500  141.8110 C   0  0  0  0  0  3  0  0  0  0  0  0
  187.7020  178.0280  142.1280 C   0  0  0  0  0  0  0  0  0  0  0  0
  183.6300  178.7230  143.9500 C   0  0  0  0  0  0  0  0  0  0  0  0
  185.8060  178.3760  144.1190 N   0  0  0  0  0  0  0  0  0  0  0  0
  189.2120  177.0860  143.8160 C   0  0  0  0  0  3  0  0  0  0  0  0
  189.3190  178.2160  138.6910 C   0  0  0  0  0  0  0  0  0  0  0  0
  190.4880  177.4810  138.8980 C   0  0  0  0  0  3  0  0  0  0  0  0
  188.6720  177.8630  141.0130 C   0  0  0  0  0  0  0  0  0  0  0  0
  190.7520  176.9290  140.1540 C   0  0  0  0  0  3  0  0  0  0  0  0
  188.4140  178.4000  139.7410 C   0  0  0  0  0  3  0  0  0  0  0  0
  189.8470  177.1160  141.2040 C   0  0  0  0  0  3  0  0  0  0  0  0
  189.0340  178.7980  137.3560 C   0  0  0  0  0  1  0  0  0  0  0  0
  182.2080  178.9250  144.3380 C   0  0  0  0  0  2  0  0  0  0  0  0
  181.3430  178.1970  143.4220 N   0  0  0  0  0  2  0  0  0  0  0  0
  179.5040  176.8280  141.7250 O   0  0  0  0  0  0  0  0  0  0  0  0
  180.4510  178.8600  142.5240 C   0  0  0  0  0  0  0  0  0  0  0  0
  179.6150  178.0760  141.6020 C   0  0  0  0  0  0  0  0  0  0  0  0
  179.2310  180.1140  140.3050 C   0  0  0  0  0  2  0  0  0  0  0  0
  179.4550  180.8780  141.6130 C   0  0  0  0  0  2  0  0  0  0  0  0
  180.4010  180.1600  142.4750 N   0  0  0  0  0  0  0  0  0  0  0  0
  178.9330  178.7470  140.5860 O   0  0  0  0  0  0  0  0  0  0  0  0
  1 10  2  0  0  0  0
  2  6  1  0  0  0  0
  3  8  1  0  0  0  0
  4 17  1  0  0  0  0
  6  5  2  0  0  0  0
  8  1  1  0  0  0  0
  8  2  2  0  0  0  0
  9  4  2  0  0  0  0
  9 16  1  0  0  0  0
 10  5  1  0  0  0  0
 11 18  1  0  0  0  0
 11  3  2  0  0  0  0
 12  1  1  0  0  0  0
 13  2  1  0  0  0  0
 14 15  2  0  0  0  0
 14  4  1  0  0  0  0
 15 11  1  0  0  0  0
 16 26  1  0  0  0  0
 16  7  2  0  0  0  0
 17  3  1  0  0  0  0
 17  7  1  0  0  0  0
 18 12  2  0  0  0  0
 19 20  2  0  0  0  0
 19 23  1  0  0  0  0
 20 22  1  0  0  0  0
 21 24  1  0  0  0  0
 21 15  1  0  0  0  0
 22 24  2  0  0  0  0
 23 21  2  0  0  0  0
 25 19  1  0  0  0  0
 27 26  1  0  0  0  0
 29 27  1  0  0  0  0
 30 28  2  0  0  0  0
 30 29  1  0  0  0  0
 31 34  1  0  0  0  0
 31 32  1  0  0  0  0
 32 33  1  0  0  0  0
 33 29  2  0  0  0  0
 34 30  1  0  0  0  0
M  END
>  <MODEL>
4

>  <REMARK>
 VINA RESULT:     -10.9      4.546      8.502
  Name = 
  3 active torsions:
  status: ('A' for Active; 'I' for Inactive)
    1  A    between atoms: N_3  and  C_17
    2  A    between atoms: C_12  and  C_28
    3  A    between atoms: C_17  and  C_29
                            x       y       z     vdW  Elec       q    Type
                         _______ _______ _______ _____ _____    ______ ____

>  <TORSDO>
F 3

$$$$
=
 OpenBabel10222421113D

 34 39  0  0  0  0  0  0  0  0999 V2000
  187.9880  178.3180  139.7360 C   0  0  0  0  0  0  0  0  0  0  0  0
  185.5910  178.3420  139.8550 C   0  0  0  0  0  0  0  0  0  0  0  0
  186.9900  178.0930  141.9590 C   0  0  0  0  0  0  0  0  0  0  0  0
  186.1910  178.1690  144.2120 C   0  0  0  0  0  0  0  0  0  0  0  0
  186.7070  178.8110  137.8460 N   0  0  0  0  0  0  0  0  0  0  0  0
  185.5790  178.6410  138.5320 N   0  0  0  0  0  0  0  0  0  0  0  0
  184.8880  179.1040  142.7660 C   0  0  0  0  0  3  0  0  0  0  0  0
  186.8280  178.2760  140.5450 C   0  0  0  0  0  0  0  0  0  0  0  0
  185.1320  178.6360  144.9620 C   0  0  0  0  0  3  0  0  0  0  0  0
  187.8910  178.6250  138.4200 N   0  0  0  0  0  0  0  0  0  0  0  0
  188.2570  177.6540  142.4550 C   0  0  0  0  0  0  0  0  0  0  0  0
  189.2340  177.9970  140.2600 C   0  0  0  0  0  3  0  0  0  0  0  0
  184.3750  177.8850  140.4380 N   0  0  0  0  0  1  0  0  0  0  0  0
  187.3530  177.6100  144.7150 C   0  0  0  0  0  3  0  0  0  0  0  0
  188.4100  177.3370  143.8360 C   0  0  0  0  0  0  0  0  0  0  0  0
  184.3160  179.2320  144.0170 C   0  0  0  0  0  0  0  0  0  0  0  0
  186.0330  178.4080  142.8950 N   0  0  0  0  0  0  0  0  0  0  0  0
  189.3600  177.6350  141.5940 C   0  0  0  0  0  3  0  0  0  0  0  0
  191.2200  176.4860  146.2530 C   0  0  0  0  0  0  0  0  0  0  0  0
  192.0550  175.7160  145.4410 C   0  0  0  0  0  3  0  0  0  0  0  0
  189.6570  176.7600  144.4050 C   0  0  0  0  0  0  0  0  0  0  0  0
  191.7030  175.4700  144.1120 C   0  0  0  0  0  3  0  0  0  0  0  0
  190.0320  177.0100  145.7350 C   0  0  0  0  0  3  0  0  0  0  0  0
  190.5130  175.9920  143.5960 C   0  0  0  0  0  3  0  0  0  0  0  0
  191.5960  176.7530  147.6640 C   0  0  0  0  0  1  0  0  0  0  0  0
  183.0090  179.8830  144.2990 C   0  0  0  0  0  2  0  0  0  0  0  0
  181.9410  178.9010  144.1890 N   0  0  0  0  0  2  0  0  0  0  0  0
  179.7320  177.1030  144.0390 O   0  0  0  0  0  0  0  0  0  0  0  0
  180.8710  179.0370  143.2510 C   0  0  0  0  0  0  0  0  0  0  0  0
  179.8280  178.0040  143.1650 C   0  0  0  0  0  0  0  0  0  0  0  0
  179.1780  178.9190  140.9920 C   0  0  0  0  0  2  0  0  0  0  0  0
  179.7170  180.2590  141.4990 C   0  0  0  0  0  2  0  0  0  0  0  0
  180.8290  180.0490  142.4320 N   0  0  0  0  0  0  0  0  0  0  0  0
  178.9350  178.0440  142.0940 O   0  0  0  0  0  0  0  0  0  0  0  0
  1 12  2  0  0  0  0
  1  8  1  0  0  0  0
  2 13  1  0  0  0  0
  2  8  1  0  0  0  0
  3 11  1  0  0  0  0
  3 17  1  0  0  0  0
  4 14  1  0  0  0  0
  4  9  2  0  0  0  0
  5 10  2  0  0  0  0
  5  6  1  0  0  0  0
  6  2  2  0  0  0  0
  7 17  1  0  0  0  0
  7 16  2  0  0  0  0
  8  3  2  0  0  0  0
 10  1  1  0  0  0  0
 11 15  1  0  0  0  0
 12 18  1  0  0  0  0
 15 21  1  0  0  0  0
 15 14  2  0  0  0  0
 16 26  1  0  0  0  0
 16  9  1  0  0  0  0
 17  4  1  0  0  0  0
 18 11  2  0  0  0  0
 19 25  1  0  0  0  0
 20 19  2  0  0  0  0
 21 23  2  0  0  0  0
 22 20  1  0  0  0  0
 23 19  1  0  0  0  0
 24 22  2  0  0  0  0
 24 21  1  0  0  0  0
 27 26  1  0  0  0  0
 29 27  1  0  0  0  0
 30 29  1  0  0  0  0
 30 28  2  0  0  0  0
 31 32  1  0  0  0  0
 31 34  1  0  0  0  0
 32 33  1  0  0  0  0
 33 29  2  0  0  0  0
 34 30  1  0  0  0  0
M  END
>  <MODEL>
5

>  <REMARK>
 VINA RESULT:     -10.7      5.110      9.453
  Name = 
  3 active torsions:
  status: ('A' for Active; 'I' for Inactive)
    1  A    between atoms: N_3  and  C_17
    2  A    between atoms: C_12  and  C_28
    3  A    between atoms: C_17  and  C_29
                            x       y       z     vdW  Elec       q    Type
                         _______ _______ _______ _____ _____    ______ ____

>  <TORSDO>
F 3

$$$$
=
 OpenBabel10222421113D

 34 39  0  0  0  0  0  0  0  0999 V2000
  186.1690  178.2380  146.2230 C   0  0  0  0  0  0  0  0  0  0  0  0
  187.9270  177.2570  144.9150 C   0  0  0  0  0  0  0  0  0  0  0  0
  185.8450  178.1860  143.7970 C   0  0  0  0  0  0  0  0  0  0  0  0
  185.5110  178.4870  141.4480 C   0  0  0  0  0  0  0  0  0  0  0  0
  188.1920  177.6260  147.2170 N   0  0  0  0  0  0  0  0  0  0  0  0
  188.6560  177.1700  146.0560 N   0  0  0  0  0  0  0  0  0  0  0  0
  187.5800  178.3620  142.0510 C   0  0  0  0  0  3  0  0  0  0  0  0
  186.6690  177.9100  144.9400 C   0  0  0  0  0  0  0  0  0  0  0  0
  186.2150  178.6290  140.2710 C   0  0  0  0  0  3  0  0  0  0  0  0
  186.9630  178.1230  147.3130 N   0  0  0  0  0  0  0  0  0  0  0  0
  184.4610  178.4790  144.0020 C   0  0  0  0  0  0  0  0  0  0  0  0
  184.8470  178.6310  146.3930 C   0  0  0  0  0  3  0  0  0  0  0  0
  188.3570  176.4880  143.7980 N   0  0  0  0  0  1  0  0  0  0  0  0
  184.1410  178.6340  141.5930 C   0  0  0  0  0  3  0  0  0  0  0  0
  183.5910  178.6260  142.8820 C   0  0  0  0  0  0  0  0  0  0  0  0
  187.5330  178.5500  140.6830 C   0  0  0  0  0  0  0  0  0  0  0  0
  186.3160  178.2870  142.5090 N   0  0  0  0  0  0  0  0  0  0  0  0
  183.9960  178.7160  145.3000 C   0  0  0  0  0  3  0  0  0  0  0  0
  179.9930  179.6010  142.1300 C   0  0  0  0  0  0  0  0  0  0  0  0
  179.3520  179.2130  143.3080 C   0  0  0  0  0  3  0  0  0  0  0  0
  182.1210  178.8110  143.0130 C   0  0  0  0  0  0  0  0  0  0  0  0
  180.0880  178.6310  144.3430 C   0  0  0  0  0  3  0  0  0  0  0  0
  181.3700  179.4070  141.9860 C   0  0  0  0  0  3  0  0  0  0  0  0
  181.4640  178.4350  144.1970 C   0  0  0  0  0  3  0  0  0  0  0  0
  179.2140  180.2250  141.0300 C   0  0  0  0  0  1  0  0  0  0  0  0
  188.7180  178.6220  139.7870 C   0  0  0  0  0  2  0  0  0  0  0  0
  188.2960  178.4640  138.4040 N   0  0  0  0  0  2  0  0  0  0  0  0
  187.6090  178.2590  135.6430 O   0  0  0  0  0  0  0  0  0  0  0  0
  189.0530  177.7130  137.4530 C   0  0  0  0  0  0  0  0  0  0  0  0
  188.5680  177.5660  136.0730 C   0  0  0  0  0  0  0  0  0  0  0  0
  190.1290  175.7060  135.7800 C   0  0  0  0  0  2  0  0  0  0  0  0
  190.9920  176.3840  136.8470 C   0  0  0  0  0  2  0  0  0  0  0  0
  190.1530  177.1120  137.8060 N   0  0  0  0  0  0  0  0  0  0  0  0
  189.2010  176.6440  135.2380 O   0  0  0  0  0  0  0  0  0  0  0  0
  1 12  1  0  0  0  0
  1 10  2  0  0  0  0
  2  8  2  0  0  0  0
  2  6  1  0  0  0  0
  3 11  2  0  0  0  0
  3  8  1  0  0  0  0
  4 14  1  0  0  0  0
  4 17  1  0  0  0  0
  5 10  1  0  0  0  0
  6  5  2  0  0  0  0
  7 17  1  0  0  0  0
  8  1  1  0  0  0  0
  9 16  1  0  0  0  0
  9  4  2  0  0  0  0
 11 18  1  0  0  0  0
 13  2  1  0  0  0  0
 14 15  2  0  0  0  0
 15 21  1  0  0  0  0
 15 11  1  0  0  0  0
 16  7  2  0  0  0  0
 17  3  1  0  0  0  0
 18 12  2  0  0  0  0
 19 20  1  0  0  0  0
 20 22  2  0  0  0  0
 21 24  2  0  0  0  0
 23 19  2  0  0  0  0
 23 21  1  0  0  0  0
 24 22  1  0  0  0  0
 25 19  1  0  0  0  0
 26 16  1  0  0  0  0
 27 26  1  0  0  0  0
 28 30  2  0  0  0  0
 29 33  2  0  0  0  0
 29 27  1  0  0  0  0
 30 29  1  0  0  0  0
 31 32  1  0  0  0  0
 32 33  1  0  0  0  0
 34 31  1  0  0  0  0
 34 30  1  0  0  0  0
M  END
>  <MODEL>
6

>  <REMARK>
 VINA RESULT:     -10.7      2.533      3.894
  Name = 
  3 active torsions:
  status: ('A' for Active; 'I' for Inactive)
    1  A    between atoms: N_3  and  C_17
    2  A    between atoms: C_12  and  C_28
    3  A    between atoms: C_17  and  C_29
                            x       y       z     vdW  Elec       q    Type
                         _______ _______ _______ _____ _____    ______ ____

>  <TORSDO>
F 3

$$$$
=
 OpenBabel10222421113D

 34 39  0  0  0  0  0  0  0  0999 V2000
  182.7360  178.7380  141.9060 C   0  0  0  0  0  0  0  0  0  0  0  0
  183.5410  179.5240  139.7860 C   0  0  0  0  0  0  0  0  0  0  0  0
  185.1560  178.6660  141.5470 C   0  0  0  0  0  0  0  0  0  0  0  0
  187.4920  178.2480  141.2470 C   0  0  0  0  0  0  0  0  0  0  0  0
  181.2440  179.2770  140.1920 N   0  0  0  0  0  0  0  0  0  0  0  0
  182.2470  179.6310  139.3930 N   0  0  0  0  0  0  0  0  0  0  0  0
  186.3430  178.2750  139.4190 C   0  0  0  0  0  3  0  0  0  0  0  0
  183.8410  178.9560  141.0500 C   0  0  0  0  0  0  0  0  0  0  0  0
  188.4200  177.9910  140.2600 C   0  0  0  0  0  3  0  0  0  0  0  0
  181.4730  178.8670  141.4360 N   0  0  0  0  0  0  0  0  0  0  0  0
  185.3330  178.4760  142.9530 C   0  0  0  0  0  0  0  0  0  0  0  0
  182.9250  178.4420  143.2510 C   0  0  0  0  0  3  0  0  0  0  0  0
  184.5240  180.1960  139.0060 N   0  0  0  0  0  1  0  0  0  0  0  0
  187.7280  178.1990  142.6110 C   0  0  0  0  0  3  0  0  0  0  0  0
  186.6430  178.3190  143.4910 C   0  0  0  0  0  0  0  0  0  0  0  0
  187.6610  178.0100  139.1030 C   0  0  0  0  0  0  0  0  0  0  0  0
  186.2570  178.4590  140.7500 N   0  0  0  0  0  0  0  0  0  0  0  0
  184.2070  178.3470  143.7740 C   0  0  0  0  0  3  0  0  0  0  0  0
  188.3220  177.5260  146.8100 C   0  0  0  0  0  0  0  0  0  0  0  0
  187.3900  178.0340  147.7170 C   0  0  0  0  0  3  0  0  0  0  0  0
  186.9200  178.2370  144.9500 C   0  0  0  0  0  0  0  0  0  0  0  0
  186.2210  178.6370  147.2490 C   0  0  0  0  0  3  0  0  0  0  0  0
  188.0850  177.6220  145.4360 C   0  0  0  0  0  3  0  0  0  0  0  0
  185.9850  178.7350  145.8750 C   0  0  0  0  0  3  0  0  0  0  0  0
  189.5640  176.8790  147.3040 C   0  0  0  0  0  1  0  0  0  0  0  0
  188.1890  177.8080  137.7270 C   0  0  0  0  0  2  0  0  0  0  0  0
  188.4520  176.3940  137.5070 N   0  0  0  0  0  2  0  0  0  0  0  0
  189.0250  173.6650  136.9070 O   0  0  0  0  0  0  0  0  0  0  0  0
  189.7760  175.8730  137.3780 C   0  0  0  0  0  0  0  0  0  0  0  0
  189.9870  174.4310  137.1790 C   0  0  0  0  0  0  0  0  0  0  0  0
  192.3290  174.7410  137.8120 C   0  0  0  0  0  2  0  0  0  0  0  0
  192.1840  176.1730  137.2900 C   0  0  0  0  0  2  0  0  0  0  0  0
  190.8120  176.6560  137.4800 N   0  0  0  0  0  0  0  0  0  0  0  0
  191.2820  173.9250  137.2880 O   0  0  0  0  0  0  0  0  0  0  0  0
  1 12  1  0  0  0  0
  2  8  1  0  0  0  0
  3 11  2  0  0  0  0
  4 14  1  0  0  0  0
  5 10  2  0  0  0  0
  6  2  2  0  0  0  0
  6  5  1  0  0  0  0
  7 17  1  0  0  0  0
  8  3  1  0  0  0  0
  8  1  2  0  0  0  0
  9  4  2  0  0  0  0
 10  1  1  0  0  0  0
 11 15  1  0  0  0  0
 11 18  1  0  0  0  0
 12 18  2  0  0  0  0
 13  2  1  0  0  0  0
 14 15  2  0  0  0  0
 15 21  1  0  0  0  0
 16  7  2  0  0  0  0
 16  9  1  0  0  0  0
 17  4  1  0  0  0  0
 17  3  1  0  0  0  0
 19 25  1  0  0  0  0
 19 20  1  0  0  0  0
 21 23  1  0  0  0  0
 21 24  2  0  0  0  0
 22 20  2  0  0  0  0
 23 19  2  0  0  0  0
 24 22  1  0  0  0  0
 26 16  1  0  0  0  0
 27 26  1  0  0  0  0
 28 30  2  0  0  0  0
 29 33  2  0  0  0  0
 29 27  1  0  0  0  0
 30 34  1  0  0  0  0
 30 29  1  0  0  0  0
 32 33  1  0  0  0  0
 32 31  1  0  0  0  0
 34 31  1  0  0  0  0
M  END
>  <MODEL>
7

>  <REMARK>
 VINA RESULT:     -10.7      3.523      6.165
  Name = 
  3 active torsions:
  status: ('A' for Active; 'I' for Inactive)
    1  A    between atoms: N_3  and  C_17
    2  A    between atoms: C_12  and  C_28
    3  A    between atoms: C_17  and  C_29
                            x       y       z     vdW  Elec       q    Type
                         _______ _______ _______ _____ _____    ______ ____

>  <TORSDO>
F 3

$$$$
=
 OpenBabel10222421113D

 34 39  0  0  0  0  0  0  0  0999 V2000
  182.8250  178.6280  141.9000 C   0  0  0  0  0  0  0  0  0  0  0  0
  183.5930  179.4440  139.7780 C   0  0  0  0  0  0  0  0  0  0  0  0
  185.2420  178.6060  141.5170 C   0  0  0  0  0  0  0  0  0  0  0  0
  187.5820  178.2370  141.1920 C   0  0  0  0  0  0  0  0  0  0  0  0
  181.3050  179.1480  140.2030 N   0  0  0  0  0  0  0  0  0  0  0  0
  182.2940  179.5280  139.3970 N   0  0  0  0  0  0  0  0  0  0  0  0
  186.4160  178.2530  139.3750 C   0  0  0  0  0  3  0  0  0  0  0  0
  183.9170  178.8730  141.0340 C   0  0  0  0  0  0  0  0  0  0  0  0
  188.5060  178.0050  140.1950 C   0  0  0  0  0  3  0  0  0  0  0  0
  181.5550  178.7340  141.4420 N   0  0  0  0  0  0  0  0  0  0  0  0
  185.4360  178.4100  142.9200 C   0  0  0  0  0  0  0  0  0  0  0  0
  183.0320  178.3260  143.2410 C   0  0  0  0  0  3  0  0  0  0  0  0
  184.5550  180.1400  138.9930 N   0  0  0  0  0  1  0  0  0  0  0  0
  187.8320  178.1830  142.5530 C   0  0  0  0  0  3  0  0  0  0  0  0
  186.7540  178.2750  143.4450 C   0  0  0  0  0  0  0  0  0  0  0  0
  187.7360  178.0160  139.0450 C   0  0  0  0  0  0  0  0  0  0  0  0
  186.3390  178.4260  140.7090 N   0  0  0  0  0  0  0  0  0  0  0  0
  184.3210  178.2530  143.7500 C   0  0  0  0  0  3  0  0  0  0  0  0
  188.4610  177.4590  146.7440 C   0  0  0  0  0  0  0  0  0  0  0  0
  187.5450  177.9770  147.6610 C   0  0  0  0  0  3  0  0  0  0  0  0
  187.0460  178.1890  144.9000 C   0  0  0  0  0  0  0  0  0  0  0  0
  186.3780  178.5950  147.2080 C   0  0  0  0  0  3  0  0  0  0  0  0
  188.2100  177.5600  145.3720 C   0  0  0  0  0  3  0  0  0  0  0  0
  186.1280  178.6970  145.8360 C   0  0  0  0  0  3  0  0  0  0  0  0
  189.7010  176.7970  147.2230 C   0  0  0  0  0  1  0  0  0  0  0  0
  188.2550  177.8350  137.6630 C   0  0  0  0  0  2  0  0  0  0  0  0
  189.0750  176.6350  137.6030 N   0  0  0  0  0  2  0  0  0  0  0  0
  190.5940  174.2200  137.6320 O   0  0  0  0  0  0  0  0  0  0  0  0
  188.5400  175.3590  137.2460 C   0  0  0  0  0  0  0  0  0  0  0  0
  189.4190  174.1820  137.1790 C   0  0  0  0  0  0  0  0  0  0  0  0
  187.6850  173.0280  135.8970 C   0  0  0  0  0  2  0  0  0  0  0  0
  186.6810  173.9280  136.6220 C   0  0  0  0  0  2  0  0  0  0  0  0
  187.2830  175.2300  136.9320 N   0  0  0  0  0  0  0  0  0  0  0  0
  188.9220  173.0100  136.6080 O   0  0  0  0  0  0  0  0  0  0  0  0
  1 12  1  0  0  0  0
  2  8  1  0  0  0  0
  3 11  2  0  0  0  0
  4 14  1  0  0  0  0
  5 10  2  0  0  0  0
  6  2  2  0  0  0  0
  6  5  1  0  0  0  0
  7 17  1  0  0  0  0
  8  3  1  0  0  0  0
  8  1  2  0  0  0  0
  9  4  2  0  0  0  0
 10  1  1  0  0  0  0
 11 15  1  0  0  0  0
 11 18  1  0  0  0  0
 12 18  2  0  0  0  0
 13  2  1  0  0  0  0
 14 15  2  0  0  0  0
 15 21  1  0  0  0  0
 16  7  2  0  0  0  0
 16  9  1  0  0  0  0
 17  4  1  0  0  0  0
 17  3  1  0  0  0  0
 19 25  1  0  0  0  0
 19 20  1  0  0  0  0
 21 23  1  0  0  0  0
 21 24  2  0  0  0  0
 22 20  2  0  0  0  0
 23 19  2  0  0  0  0
 24 22  1  0  0  0  0
 26 16  1  0  0  0  0
 27 26  1  0  0  0  0
 29 27  1  0  0  0  0
 30 29  1  0  0  0  0
 30 28  2  0  0  0  0
 31 34  1  0  0  0  0
 31 32  1  0  0  0  0
 32 33  1  0  0  0  0
 33 29  2  0  0  0  0
 34 30  1  0  0  0  0
M  END
>  <MODEL>
8

>  <REMARK>
 VINA RESULT:     -10.5      3.851      6.469
  Name = 
  3 active torsions:
  status: ('A' for Active; 'I' for Inactive)
    1  A    between atoms: N_3  and  C_17
    2  A    between atoms: C_12  and  C_28
    3  A    between atoms: C_17  and  C_29
                            x       y       z     vdW  Elec       q    Type
                         _______ _______ _______ _____ _____    ______ ____

>  <TORSDO>
F 3

$$$$
=
 OpenBabel10222421113D

 34 39  0  0  0  0  0  0  0  0999 V2000
  186.2660  178.1960  146.1420 C   0  0  0  0  0  0  0  0  0  0  0  0
  188.1070  177.2350  144.9390 C   0  0  0  0  0  0  0  0  0  0  0  0
  186.0800  178.1350  143.7020 C   0  0  0  0  0  0  0  0  0  0  0  0
  185.8740  178.4260  141.3370 C   0  0  0  0  0  0  0  0  0  0  0  0
  188.2380  177.6120  147.2500 N   0  0  0  0  0  0  0  0  0  0  0  0
  188.7720  177.1600  146.1180 N   0  0  0  0  0  0  0  0  0  0  0  0
  187.9080  178.3300  142.0560 C   0  0  0  0  0  3  0  0  0  0  0  0
  186.8410  177.8720  144.8900 C   0  0  0  0  0  0  0  0  0  0  0  0
  186.6420  178.5750  140.2010 C   0  0  0  0  0  3  0  0  0  0  0  0
  186.9990  178.0940  147.2760 N   0  0  0  0  0  0  0  0  0  0  0  0
  184.6830  178.4100  143.8280 C   0  0  0  0  0  0  0  0  0  0  0  0
  184.9310  178.5730  146.2360 C   0  0  0  0  0  3  0  0  0  0  0  0
  188.6090  176.4690  143.8490 N   0  0  0  0  0  1  0  0  0  0  0  0
  184.4970  178.5560  141.4040 C   0  0  0  0  0  3  0  0  0  0  0  0
  183.8760  178.5440  142.6610 C   0  0  0  0  0  0  0  0  0  0  0  0
  187.9360  178.5130  140.6870 C   0  0  0  0  0  0  0  0  0  0  0  0
  186.6210  178.2390  142.4430 N   0  0  0  0  0  0  0  0  0  0  0  0
  184.1420  178.6450  145.0970 C   0  0  0  0  0  3  0  0  0  0  0  0
  180.2770  179.1750  141.6050 C   0  0  0  0  0  0  0  0  0  0  0  0
  179.6130  179.0880  142.8290 C   0  0  0  0  0  3  0  0  0  0  0  0
  182.3980  178.7100  142.7080 C   0  0  0  0  0  0  0  0  0  0  0  0
  180.3330  178.8200  143.9960 C   0  0  0  0  0  3  0  0  0  0  0  0
  181.6620  178.9930  141.5460 C   0  0  0  0  0  3  0  0  0  0  0  0
  181.7180  178.6360  143.9350 C   0  0  0  0  0  3  0  0  0  0  0  0
  179.5140  179.4660  140.3640 C   0  0  0  0  0  1  0  0  0  0  0  0
  189.1690  178.5990  139.8590 C   0  0  0  0  0  2  0  0  0  0  0  0
  189.4280  177.3110  139.2340 N   0  0  0  0  0  2  0  0  0  0  0  0
  189.7560  174.7680  137.9840 O   0  0  0  0  0  0  0  0  0  0  0  0
  189.2300  177.0840  137.8380 C   0  0  0  0  0  0  0  0  0  0  0  0
  189.5290  175.7680  137.2530 C   0  0  0  0  0  0  0  0  0  0  0  0
  189.5160  176.8090  135.0400 C   0  0  0  0  0  2  0  0  0  0  0  0
  188.5520  177.8390  135.6320 C   0  0  0  0  0  2  0  0  0  0  0  0
  188.8280  178.0470  137.0580 N   0  0  0  0  0  0  0  0  0  0  0  0
  189.5490  175.6440  135.8630 O   0  0  0  0  0  0  0  0  0  0  0  0
  1 12  1  0  0  0  0
  1 10  2  0  0  0  0
  2  6  1  0  0  0  0
  3 11  2  0  0  0  0
  3  8  1  0  0  0  0
  4 14  1  0  0  0  0
  4 17  1  0  0  0  0
  5 10  1  0  0  0  0
  6  5  2  0  0  0  0
  7 17  1  0  0  0  0
  8  2  2  0  0  0  0
  8  1  1  0  0  0  0
  9 16  1  0  0  0  0
  9  4  2  0  0  0  0
 11 18  1  0  0  0  0
 13  2  1  0  0  0  0
 14 15  2  0  0  0  0
 15 21  1  0  0  0  0
 15 11  1  0  0  0  0
 16  7  2  0  0  0  0
 17  3  1  0  0  0  0
 18 12  2  0  0  0  0
 19 20  1  0  0  0  0
 20 22  2  0  0  0  0
 21 24  2  0  0  0  0
 23 19  2  0  0  0  0
 23 21  1  0  0  0  0
 24 22  1  0  0  0  0
 25 19  1  0  0  0  0
 26 16  1  0  0  0  0
 27 26  1  0  0  0  0
 29 27  1  0  0  0  0
 30 29  1  0  0  0  0
 30 28  2  0  0  0  0
 31 32  1  0  0  0  0
 31 34  1  0  0  0  0
 32 33  1  0  0  0  0
 33 29  2  0  0  0  0
 34 30  1  0  0  0  0
M  END
>  <MODEL>
9

>  <REMARK>
 VINA RESULT:     -10.5      2.609      3.830
  Name = 
  3 active torsions:
  status: ('A' for Active; 'I' for Inactive)
    1  A    between atoms: N_3  and  C_17
    2  A    between atoms: C_12  and  C_28
    3  A    between atoms: C_17  and  C_29
                            x       y       z     vdW  Elec       q    Type
                         _______ _______ _______ _____ _____    ______ ____

>  <TORSDO>
F 3

$$$$
