=
 OpenBabel10222417143D

 56 61  0  0  1  0  0  0  0  0999 V2000
  185.0920  178.3140  142.4940 C   0  0  2  0  0  3  0  0  0  0  0  0
  186.1580  177.8140  143.4490 C   0  0  0  0  0  2  0  0  0  0  0  0
  185.6080  177.7960  144.8640 C   0  0  0  0  0  2  0  0  0  0  0  0
  186.3320  178.6970  145.6930 O   0  0  0  0  0  0  0  0  0  0  0  0
  189.4680  177.4960  148.2120 C   0  0  0  0  0  3  0  0  0  0  0  0
  188.5530  177.8320  146.0010 C   0  0  0  0  0  3  0  0  0  0  0  0
  188.2780  177.9640  148.7750 C   0  0  0  0  0  3  0  0  0  0  0  0
  187.2250  178.3650  147.9500 C   0  0  0  0  0  3  0  0  0  0  0  0
  189.6210  177.4290  146.8150 C   0  0  0  0  0  0  0  0  0  0  0  0
  187.3590  178.3000  146.5530 C   0  0  0  0  0  0  0  0  0  0  0  0
  191.7300  176.2230  146.9710 C   0  0  0  0  0  2  0  0  0  0  0  0
  190.8700  176.8990  146.2070 C   0  0  0  0  0  0  0  0  0  0  0  0
  191.8510  178.0760  142.7830 N   0  0  2  0  0  0  0  0  0  0  0  0
  191.5920  178.3280  144.2160 C   0  0  2  0  0  3  0  0  0  0  0  0
  191.1610  177.0760  144.8040 N   0  0  0  0  0  0  0  0  0  0  0  0
  190.6330  178.7860  143.2130 C   0  0  0  0  0  2  0  0  0  0  0  0
  191.4920  176.6770  142.5310 C   0  0  0  0  0  2  0  0  0  0  0  0
  191.2260  175.9910  143.8520 C   0  0  0  0  0  2  0  0  0  0  0  0
  185.7170  179.2430  141.4700 C   0  0  0  0  0  2  0  0  0  0  0  0
  185.8040  178.5640  140.2250 O   0  0  0  0  0  0  0  0  0  0  0  0
  184.3990  180.0210  139.1530 O   0  0  0  0  0  0  0  0  0  0  0  0
  184.9900  178.9110  139.1420 C   0  0  0  0  0  0  0  0  0  0  0  0
  184.9000  178.0350  137.9280 C   0  0  2  0  0  3  0  0  0  0  0  0
  183.8010  177.0000  138.1570 C   0  0  0  0  0  1  0  0  0  0  0  0
  186.1360  177.4130  137.7010 O   0  0  0  0  0  0  0  0  0  0  0  0
  186.9390  178.3370  137.0180 C   0  0  0  0  0  2  0  0  0  0  0  0
  189.5430  176.3760  137.1530 C   0  0  1  0  0  3  0  0  0  0  0  0
  187.5110  173.8150  135.1970 C   0  0  2  0  0  3  0  0  0  0  0  0
  189.9120  174.0280  137.5350 O   0  0  0  0  0  1  0  0  0  0  0  0
  189.1570  177.4530  136.1130 C   0  0  0  0  0  2  0  0  0  0  0  0
  189.4420  174.9440  136.5880 C   0  0  1  0  0  3  0  0  0  0  0  0
  186.8300  176.4300  135.3280 C   0  0  0  0  0  2  0  0  0  0  0  0
  187.6390  177.6410  135.8600 C   0  0  1  0  0  3  0  0  0  0  0  0
  187.9810  174.6870  136.3340 C   0  0  1  0  0  3  0  0  0  0  0  0
  187.7710  175.2990  134.9610 C   0  0  1  0  0  3  0  0  0  0  0  0
  190.8450  176.6180  137.5980 O   0  0  0  0  0  0  0  0  0  0  0  0
  190.6970  177.0860  138.9040 C   0  0  0  0  0  1  0  0  0  0  0  0
  186.0350  173.5010  135.3980 C   0  0  0  0  0  2  0  0  0  0  0  0
  185.8280  172.4610  136.4820 C   0  0  0  0  0  2  0  0  0  0  0  0
  184.4110  172.1750  136.6160 N   0  0  0  0  0  2  0  0  0  0  0  0
  183.6960  173.2760  135.9910 C   0  0  0  0  0  2  0  0  0  0  0  0
  182.4690  172.7360  135.2820 C   0  0  0  0  0  2  0  0  0  0  0  0
  181.0890  172.6620  137.3600 O   0  0  0  0  0  1  0  0  0  0  0  0
  181.6050  172.0060  136.2490 C   0  0  0  0  0  0  0  0  0  0  0  0
  181.3280  170.7940  136.0510 O   0  0  0  0  0  0  0  0  0  0  0  0
  184.0740  178.9960  143.2260 O   0  0  0  0  0  0  0  0  0  0  0  0
  182.7080  178.7870  143.0100 C   0  0  0  0  0  0  0  0  0  0  0  0
  179.9790  178.3970  142.5100 C   0  0  0  0  0  3  0  0  0  0  0  0
  180.4350  178.5460  143.8220 C   0  0  0  0  0  3  0  0  0  0  0  0
  181.7930  178.7420  144.0720 C   0  0  0  0  0  3  0  0  0  0  0  0
  182.2480  178.6280  141.7000 C   0  0  0  0  0  3  0  0  0  0  0  0
  180.8800  178.4350  141.4400 C   0  0  0  0  0  0  0  0  0  0  0  0
  180.3930  178.3020  140.1370 O   0  0  0  0  0  0  0  0  0  0  0  0
  179.3430  177.4060  139.8000 C   0  0  0  0  0  2  0  0  0  0  0  0
  180.5390  175.2130  139.7810 C   0  0  0  0  0  1  0  0  0  0  0  0
  179.8790  176.2820  138.9290 C   0  0  0  0  0  2  0  0  0  0  0  0
  1 19  1  6  0  0  0
  1 46  1  0  0  0  0
  1  2  1  0  0  0  0
  2  3  1  0  0  0  0
  3  4  1  0  0  0  0
  4 10  1  0  0  0  0
  5  7  1  0  0  0  0
  6 10  2  0  0  0  0
  6  9  1  0  0  0  0
  8  7  2  0  0  0  0
  9  5  2  0  0  0  0
 10  8  1  0  0  0  0
 12  9  1  0  0  0  0
 12 11  2  0  0  0  0
 13 17  1  1  0  0  0
 13 16  1  0  0  0  0
 13 14  1  0  0  0  0
 14 16  1  6  0  0  0
 14 15  1  0  0  0  0
 15 12  1  0  0  0  0
 17 18  1  0  0  0  0
 18 15  1  0  0  0  0
 20 19  1  0  0  0  0
 22 21  2  0  0  0  0
 22 20  1  0  0  0  0
 23 24  1  1  0  0  0
 23 22  1  0  0  0  0
 25 23  1  0  0  0  0
 26 25  1  0  0  0  0
 27 36  1  6  0  0  0
 28 38  1  1  0  0  0
 28 34  1  0  0  0  0
 30 27  1  0  0  0  0
 31 27  1  0  0  0  0
 31 29  1  1  0  0  0
 32 33  1  0  0  0  0
 33 30  1  0  0  0  0
 33 26  1  1  0  0  0
 34 31  1  0  0  0  0
 35 28  1  0  0  0  0
 35 32  1  0  0  0  0
 35 34  1  0  0  0  0
 36 37  1  0  0  0  0
 38 39  1  0  0  0  0
 39 40  1  0  0  0  0
 41 40  1  0  0  0  0
 42 41  1  0  0  0  0
 42 44  1  0  0  0  0
 44 43  1  0  0  0  0
 45 44  2  0  0  0  0
 47 46  1  0  0  0  0
 47 50  1  0  0  0  0
 48 49  1  0  0  0  0
 49 50  2  0  0  0  0
 51 47  2  0  0  0  0
 52 51  1  0  0  0  0
 52 48  2  0  0  0  0
 53 52  1  0  0  0  0
 54 53  1  0  0  0  0
 56 55  1  0  0  0  0
 56 54  1  0  0  0  0
M  END
>  <MODEL>
1

>  <REMARK>
 VINA RESULT:      -7.2      0.000      0.000
  Name = 
  25 active torsions:
  status: ('A' for Active; 'I' for Inactive)
    1  A    between atoms: C_1  and  O_5
    2  A    between atoms: C_3  and  C_30
    3  A    between atoms: C_6  and  C_28
    4  A    between atoms: C_6  and  C_45
    5  A    between atoms: O_8  and  C_18
    6  A    between atoms: O_8  and  C_51
    7  A    between atoms: C_9  and  O_22
    8  A    between atoms: C_11  and  C_30
    9  A    between atoms: C_11  and  N_43
   10  A    between atoms: C_13  and  O_33
   11  A    between atoms: C_13  and  C_45
   12  A    between atoms: C_15  and  C_25
   13  A    between atoms: O_16  and  C_28
   14  A    between atoms: O_16  and  C_47
   15  A    between atoms: C_18  and  C_49
   16  A    between atoms: C_21  and  O_27
   17  A    between atoms: C_21  and  C_55
   18  A    between atoms: O_22  and  C_45
   19  A    between atoms: C_25  and  C_29
   20  A    between atoms: N_26  and  C_44
   21  A    between atoms: O_27  and  C_37
   22  A    between atoms: C_29  and  N_43
   23  A    between atoms: O_33  and  C_55
   24  A    between atoms: C_37  and  C_41
   25  A    between atoms: C_40  and  C_44
                            x       y       z     vdW  Elec       q    Type
                         _______ _______ _______ _____ _____    ______ ____

>  <TORSDO>
F 25

$$$$
=
 OpenBabel10222417143D

 56 61  0  0  1  0  0  0  0  0999 V2000
  189.2900  177.4090  141.2440 C   0  0  2  0  0  3  0  0  0  0  0  0
  190.1320  176.8650  140.1060 C   0  0  0  0  0  2  0  0  0  0  0  0
  189.8670  177.6690  138.8460 C   0  0  0  0  0  2  0  0  0  0  0  0
  189.5030  176.8110  137.7730 O   0  0  0  0  0  0  0  0  0  0  0  0
  192.0450  173.8090  136.3050 C   0  0  0  0  0  3  0  0  0  0  0  0
  191.6700  176.0830  137.0300 C   0  0  0  0  0  3  0  0  0  0  0  0
  190.7030  173.5090  136.5550 C   0  0  0  0  0  3  0  0  0  0  0  0
  189.8450  174.4980  137.0410 C   0  0  0  0  0  3  0  0  0  0  0  0
  192.5460  175.1010  136.5460 C   0  0  0  0  0  0  0  0  0  0  0  0
  190.3280  175.7950  137.2820 C   0  0  0  0  0  0  0  0  0  0  0  0
  194.2360  176.2950  135.2630 C   0  0  0  0  0  2  0  0  0  0  0  0
  193.9630  175.4390  136.2500 C   0  0  0  0  0  0  0  0  0  0  0  0
  197.2270  174.2340  137.6530 N   0  0  2  0  0  0  0  0  0  0  0  0
  196.4170  174.7910  136.5500 C   0  0  2  0  0  3  0  0  0  0  0  0
  195.0490  174.8840  137.0220 N   0  0  0  0  0  0  0  0  0  0  0  0
  196.8530  173.3980  136.4990 C   0  0  0  0  0  2  0  0  0  0  0  0
  196.2980  173.9350  138.7470 C   0  0  0  0  0  2  0  0  0  0  0  0
  194.9410  174.5160  138.4150 C   0  0  0  0  0  2  0  0  0  0  0  0
  188.2210  178.3340  140.6910 C   0  0  0  0  0  2  0  0  0  0  0  0
  187.1560  178.4180  141.6260 O   0  0  0  0  0  0  0  0  0  0  0  0
  185.6660  179.1450  140.0470 O   0  0  0  0  0  0  0  0  0  0  0  0
  185.8870  178.8730  141.2540 C   0  0  0  0  0  0  0  0  0  0  0  0
  184.7630  178.9350  142.2460 C   0  0  2  0  0  3  0  0  0  0  0  0
  185.3420  178.7560  143.6470 C   0  0  0  0  0  1  0  0  0  0  0  0
  183.8240  177.9340  141.9590 O   0  0  0  0  0  0  0  0  0  0  0  0
  182.6190  178.5810  141.6500 C   0  0  0  0  0  2  0  0  0  0  0  0
  180.7810  179.7160  139.2050 C   0  0  1  0  0  3  0  0  0  0  0  0
  182.8720  177.5660  136.8550 C   0  0  2  0  0  3  0  0  0  0  0  0
  181.1850  180.4690  136.9540 O   0  0  0  0  0  1  0  0  0  0  0  0
  180.5760  178.4880  140.1210 C   0  0  0  0  0  2  0  0  0  0  0  0
  181.1260  179.3230  137.7530 C   0  0  1  0  0  3  0  0  0  0  0  0
  182.8140  177.1760  139.5310 C   0  0  0  0  0  2  0  0  0  0  0  0
  181.8670  177.7760  140.6010 C   0  0  1  0  0  3  0  0  0  0  0  0
  182.4860  178.6780  137.7970 C   0  0  1  0  0  3  0  0  0  0  0  0
  182.1610  177.2430  138.1640 C   0  0  1  0  0  3  0  0  0  0  0  0
  179.6220  180.4960  139.2210 O   0  0  0  0  0  0  0  0  0  0  0  0
  179.5680  181.0340  140.5070 C   0  0  0  0  0  1  0  0  0  0  0  0
  184.3770  177.3560  136.9340 C   0  0  0  0  0  2  0  0  0  0  0  0
  184.8720  176.4390  135.8330 C   0  0  0  0  0  2  0  0  0  0  0  0
  186.2240  176.0040  136.1340 N   0  0  0  0  0  2  0  0  0  0  0  0
  186.1660  174.5720  136.3710 C   0  0  0  0  0  2  0  0  0  0  0  0
  184.7740  174.0670  136.0430 C   0  0  0  0  0  2  0  0  0  0  0  0
  183.0000  172.6630  137.0940 O   0  0  0  0  0  0  0  0  0  0  0  0
  184.3000  173.1510  137.1160 C   0  0  0  0  0  0  0  0  0  0  0  0
  185.0860  172.8070  138.0380 O   0  0  0  0  0  1  0  0  0  0  0  0
  190.1240  178.1080  142.1670 O   0  0  0  0  0  0  0  0  0  0  0  0
  190.2930  177.7100  143.4970 C   0  0  0  0  0  0  0  0  0  0  0  0
  190.5680  176.9480  146.1790 C   0  0  0  0  0  3  0  0  0  0  0  0
  191.6960  177.0460  145.3610 C   0  0  0  0  0  3  0  0  0  0  0  0
  191.5600  177.4270  144.0260 C   0  0  0  0  0  3  0  0  0  0  0  0
  189.1660  177.6030  144.3180 C   0  0  0  0  0  3  0  0  0  0  0  0
  189.2960  177.2240  145.6650 C   0  0  0  0  0  0  0  0  0  0  0  0
  188.1880  177.1360  146.5120 O   0  0  0  0  0  0  0  0  0  0  0  0
  188.3100  176.9750  147.9180 C   0  0  0  0  0  2  0  0  0  0  0  0
  186.7280  178.9030  147.7790 C   0  0  0  0  0  1  0  0  0  0  0  0
  187.7720  178.2050  148.6310 C   0  0  0  0  0  2  0  0  0  0  0  0
  1  2  1  6  0  0  0
  1 46  1  0  0  0  0
  3  2  1  0  0  0  0
  4  3  1  0  0  0  0
  5  9  2  0  0  0  0
  5  7  1  0  0  0  0
  6 10  2  0  0  0  0
  7  8  2  0  0  0  0
  8 10  1  0  0  0  0
  9  6  1  0  0  0  0
 10  4  1  0  0  0  0
 11 12  2  0  0  0  0
 12  9  1  0  0  0  0
 12 15  1  0  0  0  0
 13 16  1  6  0  0  0
 13 17  1  0  0  0  0
 14 16  1  6  0  0  0
 14 15  1  0  0  0  0
 14 13  1  0  0  0  0
 15 18  1  0  0  0  0
 18 17  1  0  0  0  0
 19  1  1  0  0  0  0
 19 20  1  0  0  0  0
 21 22  2  0  0  0  0
 22 20  1  0  0  0  0
 22 23  1  0  0  0  0
 23 24  1  1  0  0  0
 25 23  1  0  0  0  0
 26 25  1  0  0  0  0
 27 36  1  6  0  0  0
 27 30  1  0  0  0  0
 28 38  1  1  0  0  0
 28 34  1  0  0  0  0
 28 35  1  0  0  0  0
 30 33  1  0  0  0  0
 31 29  1  6  0  0  0
 31 34  1  0  0  0  0
 31 27  1  0  0  0  0
 32 33  1  0  0  0  0
 33 26  1  6  0  0  0
 34 35  1  0  0  0  0
 35 32  1  0  0  0  0
 36 37  1  0  0  0  0
 39 40  1  0  0  0  0
 39 38  1  0  0  0  0
 40 41  1  0  0  0  0
 42 41  1  0  0  0  0
 42 44  1  0  0  0  0
 43 44  2  0  0  0  0
 44 45  1  0  0  0  0
 46 47  1  0  0  0  0
 47 50  2  0  0  0  0
 47 51  1  0  0  0  0
 49 48  2  0  0  0  0
 50 49  1  0  0  0  0
 51 52  2  0  0  0  0
 52 48  1  0  0  0  0
 52 53  1  0  0  0  0
 53 54  1  0  0  0  0
 54 56  1  0  0  0  0
 55 56  1  0  0  0  0
M  END
>  <MODEL>
2

>  <REMARK>
 VINA RESULT:      -6.7      3.130      8.389
  Name = 
  25 active torsions:
  status: ('A' for Active; 'I' for Inactive)
    1  A    between atoms: C_1  and  O_5
    2  A    between atoms: C_3  and  C_30
    3  A    between atoms: C_6  and  C_28
    4  A    between atoms: C_6  and  C_45
    5  A    between atoms: O_8  and  C_18
    6  A    between atoms: O_8  and  C_51
    7  A    between atoms: C_9  and  O_22
    8  A    between atoms: C_11  and  C_30
    9  A    between atoms: C_11  and  N_43
   10  A    between atoms: C_13  and  O_33
   11  A    between atoms: C_13  and  C_45
   12  A    between atoms: C_15  and  C_25
   13  A    between atoms: O_16  and  C_28
   14  A    between atoms: O_16  and  C_47
   15  A    between atoms: C_18  and  C_49
   16  A    between atoms: C_21  and  O_27
   17  A    between atoms: C_21  and  C_55
   18  A    between atoms: O_22  and  C_45
   19  A    between atoms: C_25  and  C_29
   20  A    between atoms: N_26  and  C_44
   21  A    between atoms: O_27  and  C_37
   22  A    between atoms: C_29  and  N_43
   23  A    between atoms: O_33  and  C_55
   24  A    between atoms: C_37  and  C_41
   25  A    between atoms: C_40  and  C_44
                            x       y       z     vdW  Elec       q    Type
                         _______ _______ _______ _____ _____    ______ ____

>  <TORSDO>
F 25

$$$$
=
 OpenBabel10222417143D

 56 61  0  0  1  0  0  0  0  0999 V2000
  186.8840  178.2200  139.7680 C   0  0  2  0  0  3  0  0  0  0  0  0
  185.6550  179.0750  140.0040 C   0  0  0  0  0  2  0  0  0  0  0  0
  184.8300  178.4820  141.1320 C   0  0  0  0  0  2  0  0  0  0  0  0
  183.7120  177.7720  140.6140 O   0  0  0  0  0  0  0  0  0  0  0  0
  181.5990  178.8700  137.1560 C   0  0  0  0  0  3  0  0  0  0  0  0
  182.7330  177.2070  138.4930 C   0  0  0  0  0  3  0  0  0  0  0  0
  181.8700  179.8360  138.1300 C   0  0  0  0  0  3  0  0  0  0  0  0
  182.5740  179.4860  139.2840 C   0  0  0  0  0  3  0  0  0  0  0  0
  182.0240  177.5400  137.3300 C   0  0  0  0  0  0  0  0  0  0  0  0
  183.0100  178.1640  139.4710 C   0  0  0  0  0  0  0  0  0  0  0  0
  181.6740  176.8950  135.0090 C   0  0  0  0  0  2  0  0  0  0  0  0
  181.7720  176.5140  136.2840 C   0  0  0  0  0  0  0  0  0  0  0  0
  182.2370  172.8510  136.9440 N   0  0  2  0  0  0  0  0  0  0  0  0
  182.7230  174.1460  136.4250 C   0  0  2  0  0  3  0  0  0  0  0  0
  181.6590  175.1130  136.6130 N   0  0  0  0  0  0  0  0  0  0  0  0
  182.3110  173.0990  135.4940 C   0  0  0  0  0  2  0  0  0  0  0  0
  180.8500  173.0610  137.3680 C   0  0  0  0  0  2  0  0  0  0  0  0
  180.5400  174.5410  137.3260 C   0  0  0  0  0  2  0  0  0  0  0  0
  187.9830  178.6270  140.7340 C   0  0  0  0  0  2  0  0  0  0  0  0
  189.1970  178.0080  140.3380 O   0  0  0  0  0  0  0  0  0  0  0  0
  190.3860  176.1140  140.8320 O   0  0  0  0  0  0  0  0  0  0  0  0
  189.9450  177.2240  141.2230 C   0  0  0  0  0  0  0  0  0  0  0  0
  190.3180  177.7320  142.5840 C   0  0  2  0  0  3  0  0  0  0  0  0
  191.8170  177.5250  142.7850 C   0  0  0  0  0  1  0  0  0  0  0  0
  189.5810  177.0480  143.5620 O   0  0  0  0  0  0  0  0  0  0  0  0
  188.7270  177.9850  144.1590 C   0  0  0  0  0  2  0  0  0  0  0  0
  187.5630  178.6900  147.1250 C   0  0  1  0  0  3  0  0  0  0  0  0
  184.0810  178.6850  145.5780 C   0  0  2  0  0  3  0  0  0  0  0  0
  185.8720  180.1610  148.0050 O   0  0  0  0  0  1  0  0  0  0  0  0
  187.8420  177.3220  146.4620 C   0  0  0  0  0  2  0  0  0  0  0  0
  186.0550  178.9680  147.2990 C   0  0  1  0  0  3  0  0  0  0  0  0
  186.2210  177.5590  144.3660 C   0  0  0  0  0  2  0  0  0  0  0  0
  187.6340  177.2560  144.9260 C   0  0  1  0  0  3  0  0  0  0  0  0
  185.4850  179.1190  145.9140 C   0  0  1  0  0  3  0  0  0  0  0  0
  185.2270  177.6820  145.5030 C   0  0  1  0  0  3  0  0  0  0  0  0
  188.1990  178.7330  148.3680 O   0  0  0  0  0  0  0  0  0  0  0  0
  189.1740  177.7370  148.3080 C   0  0  0  0  0  1  0  0  0  0  0  0
  183.7050  179.2520  144.2160 C   0  0  0  0  0  2  0  0  0  0  0  0
  182.3300  178.7870  143.7780 C   0  0  0  0  0  2  0  0  0  0  0  0
  181.6210  179.8900  143.1550 N   0  0  0  0  0  2  0  0  0  0  0  0
  180.2530  179.4480  142.9420 C   0  0  0  0  0  2  0  0  0  0  0  0
  179.9570  179.4360  141.4550 C   0  0  0  0  0  2  0  0  0  0  0  0
  179.3810  177.0660  141.9770 O   0  0  0  0  0  1  0  0  0  0  0  0
  179.5280  178.0750  141.0340 C   0  0  0  0  0  0  0  0  0  0  0  0
  179.2820  177.8430  139.8210 O   0  0  0  0  0  0  0  0  0  0  0  0
  187.3260  178.3760  138.4200 O   0  0  0  0  0  0  0  0  0  0  0  0
  186.9080  177.5410  137.3790 C   0  0  0  0  0  0  0  0  0  0  0  0
  186.1400  175.8480  135.2830 C   0  0  0  0  0  3  0  0  0  0  0  0
  185.3730  176.9730  135.5890 C   0  0  0  0  0  3  0  0  0  0  0  0
  185.7540  177.8180  136.6310 C   0  0  0  0  0  3  0  0  0  0  0  0
  187.6690  176.4080  137.0740 C   0  0  0  0  0  3  0  0  0  0  0  0
  187.2920  175.5550  136.0230 C   0  0  0  0  0  0  0  0  0  0  0  0
  188.0510  174.4330  135.6810 O   0  0  0  0  0  0  0  0  0  0  0  0
  187.4770  173.1460  135.5000 C   0  0  0  0  0  2  0  0  0  0  0  0
  185.9540  172.7270  137.4360 C   0  0  0  0  0  1  0  0  0  0  0  0
  187.3240  172.4520  136.8440 C   0  0  0  0  0  2  0  0  0  0  0  0
  1  2  1  6  0  0  0
  1 19  1  0  0  0  0
  2  3  1  0  0  0  0
  4  3  1  0  0  0  0
  5  9  2  0  0  0  0
  5  7  1  0  0  0  0
  6 10  2  0  0  0  0
  7  8  2  0  0  0  0
  8 10  1  0  0  0  0
  9  6  1  0  0  0  0
 10  4  1  0  0  0  0
 11 12  2  0  0  0  0
 12 15  1  0  0  0  0
 12  9  1  0  0  0  0
 13 16  1  6  0  0  0
 13 17  1  0  0  0  0
 14 16  1  6  0  0  0
 14 15  1  0  0  0  0
 14 13  1  0  0  0  0
 15 18  1  0  0  0  0
 18 17  1  0  0  0  0
 20 19  1  0  0  0  0
 20 22  1  0  0  0  0
 21 22  2  0  0  0  0
 22 23  1  0  0  0  0
 23 24  1  1  0  0  0
 23 25  1  0  0  0  0
 25 26  1  0  0  0  0
 27 31  1  0  0  0  0
 27 36  1  1  0  0  0
 28 38  1  6  0  0  0
 28 34  1  0  0  0  0
 30 27  1  0  0  0  0
 31 29  1  1  0  0  0
 32 33  1  0  0  0  0
 32 35  1  0  0  0  0
 33 26  1  6  0  0  0
 33 30  1  0  0  0  0
 34 31  1  0  0  0  0
 35 28  1  0  0  0  0
 35 34  1  0  0  0  0
 37 36  1  0  0  0  0
 39 38  1  0  0  0  0
 40 39  1  0  0  0  0
 41 40  1  0  0  0  0
 42 41  1  0  0  0  0
 44 42  1  0  0  0  0
 44 43  1  0  0  0  0
 45 44  2  0  0  0  0
 46  1  1  0  0  0  0
 47 46  1  0  0  0  0
 48 49  2  0  0  0  0
 48 52  1  0  0  0  0
 49 50  1  0  0  0  0
 50 47  2  0  0  0  0
 51 47  1  0  0  0  0
 52 51  2  0  0  0  0
 53 52  1  0  0  0  0
 54 53  1  0  0  0  0
 54 56  1  0  0  0  0
 56 55  1  0  0  0  0
M  END
>  <MODEL>
3

>  <REMARK>
 VINA RESULT:      -6.6      2.878      9.743
  Name = 
  25 active torsions:
  status: ('A' for Active; 'I' for Inactive)
    1  A    between atoms: C_1  and  O_5
    2  A    between atoms: C_3  and  C_30
    3  A    between atoms: C_6  and  C_28
    4  A    between atoms: C_6  and  C_45
    5  A    between atoms: O_8  and  C_18
    6  A    between atoms: O_8  and  C_51
    7  A    between atoms: C_9  and  O_22
    8  A    between atoms: C_11  and  C_30
    9  A    between atoms: C_11  and  N_43
   10  A    between atoms: C_13  and  O_33
   11  A    between atoms: C_13  and  C_45
   12  A    between atoms: C_15  and  C_25
   13  A    between atoms: O_16  and  C_28
   14  A    between atoms: O_16  and  C_47
   15  A    between atoms: C_18  and  C_49
   16  A    between atoms: C_21  and  O_27
   17  A    between atoms: C_21  and  C_55
   18  A    between atoms: O_22  and  C_45
   19  A    between atoms: C_25  and  C_29
   20  A    between atoms: N_26  and  C_44
   21  A    between atoms: O_27  and  C_37
   22  A    between atoms: C_29  and  N_43
   23  A    between atoms: O_33  and  C_55
   24  A    between atoms: C_37  and  C_41
   25  A    between atoms: C_40  and  C_44
                            x       y       z     vdW  Elec       q    Type
                         _______ _______ _______ _____ _____    ______ ____

>  <TORSDO>
F 25

$$$$
=
 OpenBabel10222417143D

 56 61  0  0  1  0  0  0  0  0999 V2000
  186.6650  178.1480  138.8390 C   0  0  2  0  0  3  0  0  0  0  0  0
  185.4220  179.0040  138.9790 C   0  0  0  0  0  2  0  0  0  0  0  0
  184.2360  178.1270  139.3400 C   0  0  0  0  0  2  0  0  0  0  0  0
  183.9710  177.1940  138.3000 O   0  0  0  0  0  0  0  0  0  0  0  0
  181.8750  178.2170  134.8100 C   0  0  0  0  0  3  0  0  0  0  0  0
  182.1140  178.2650  137.2140 C   0  0  0  0  0  3  0  0  0  0  0  0
  183.0510  177.4690  134.7080 C   0  0  0  0  0  3  0  0  0  0  0  0
  183.7580  177.1200  135.8610 C   0  0  0  0  0  3  0  0  0  0  0  0
  181.3940  178.6280  136.0670 C   0  0  0  0  0  0  0  0  0  0  0  0
  183.2900  177.5190  137.1240 C   0  0  0  0  0  0  0  0  0  0  0  0
  179.0710  179.0240  135.4560 C   0  0  0  0  0  2  0  0  0  0  0  0
  180.1250  179.3920  136.1870 C   0  0  0  0  0  0  0  0  0  0  0  0
  180.3260  182.6230  138.0840 N   0  0  2  0  0  0  0  0  0  0  0  0
  180.8120  181.7040  137.0340 C   0  0  2  0  0  3  0  0  0  0  0  0
  179.9970  180.5060  137.0970 N   0  0  0  0  0  0  0  0  0  0  0  0
  181.5810  181.8710  138.2650 C   0  0  0  0  0  2  0  0  0  0  0  0
  179.2670  181.9130  138.8080 C   0  0  0  0  0  2  0  0  0  0  0  0
  178.9330  180.6370  138.0650 C   0  0  0  0  0  2  0  0  0  0  0  0
  187.5330  178.3020  140.0750 C   0  0  0  0  0  2  0  0  0  0  0  0
  188.8840  178.4640  139.6710 O   0  0  0  0  0  0  0  0  0  0  0  0
  190.0300  176.5130  139.3130 O   0  0  0  0  0  0  0  0  0  0  0  0
  189.8720  177.5380  140.0240 C   0  0  0  0  0  0  0  0  0  0  0  0
  190.8110  177.8010  141.1640 C   0  0  2  0  0  3  0  0  0  0  0  0
  192.2310  177.4790  140.7070 C   0  0  0  0  0  1  0  0  0  0  0  0
  190.4470  177.0140  142.2660 O   0  0  0  0  0  0  0  0  0  0  0  0
  189.5910  177.7920  143.0580 C   0  0  0  0  0  2  0  0  0  0  0  0
  189.5930  177.4680  146.3050 C   0  0  1  0  0  3  0  0  0  0  0  0
  185.8380  178.1090  146.2050 C   0  0  2  0  0  3  0  0  0  0  0  0
  188.5330  178.5990  148.1480 O   0  0  0  0  0  1  0  0  0  0  0  0
  189.4250  176.4050  145.1960 C   0  0  0  0  0  2  0  0  0  0  0  0
  188.2880  177.7170  147.0910 C   0  0  1  0  0  3  0  0  0  0  0  0
  187.2600  177.4010  144.0150 C   0  0  0  0  0  2  0  0  0  0  0  0
  188.7140  176.8790  143.9020 C   0  0  1  0  0  3  0  0  0  0  0  0
  187.3240  178.3550  146.1270 C   0  0  1  0  0  3  0  0  0  0  0  0
  186.7270  177.1560  145.4130 C   0  0  1  0  0  3  0  0  0  0  0  0
  190.6020  177.0600  147.1810 O   0  0  0  0  0  0  0  0  0  0  0  0
  191.5940  176.5230  146.3600 C   0  0  0  0  0  1  0  0  0  0  0  0
  185.1260  179.1220  145.3210 C   0  0  0  0  0  2  0  0  0  0  0  0
  183.8660  178.5410  144.7100 C   0  0  0  0  0  2  0  0  0  0  0  0
  183.8910  178.7350  143.2710 N   0  0  0  0  0  2  0  0  0  0  0  0
  182.5400  179.0850  142.8670 C   0  0  0  0  0  2  0  0  0  0  0  0
  181.6050  178.9140  144.0480 C   0  0  0  0  0  2  0  0  0  0  0  0
  179.7360  178.9190  142.3950 O   0  0  0  0  0  0  0  0  0  0  0  0
  180.2770  178.4330  143.5780 C   0  0  0  0  0  0  0  0  0  0  0  0
  179.6500  177.5710  144.2490 O   0  0  0  0  0  1  0  0  0  0  0  0
  187.3870  178.5370  137.6720 O   0  0  0  0  0  0  0  0  0  0  0  0
  187.8810  177.6210  136.7380 C   0  0  0  0  0  0  0  0  0  0  0  0
  188.8410  175.7300  134.9070 C   0  0  0  0  0  3  0  0  0  0  0  0
  189.4780  176.9670  135.0330 C   0  0  0  0  0  3  0  0  0  0  0  0
  189.0020  177.9080  135.9460 C   0  0  0  0  0  3  0  0  0  0  0  0
  187.2420  176.3840  136.6020 C   0  0  0  0  0  3  0  0  0  0  0  0
  187.7190  175.4300  135.6880 C   0  0  0  0  0  0  0  0  0  0  0  0
  187.1140  174.1770  135.5540 O   0  0  0  0  0  0  0  0  0  0  0  0
  187.2090  173.1700  136.5510 C   0  0  0  0  0  2  0  0  0  0  0  0
  185.0110  173.1390  137.7380 C   0  0  0  0  0  1  0  0  0  0  0  0
  185.8760  172.4550  136.6950 C   0  0  0  0  0  2  0  0  0  0  0  0
  1  2  1  1  0  0  0
  1 19  1  0  0  0  0
  2  3  1  0  0  0  0
  4  3  1  0  0  0  0
  5  9  1  0  0  0  0
  7  5  2  0  0  0  0
  7  8  1  0  0  0  0
  8 10  2  0  0  0  0
  9 12  1  0  0  0  0
  9  6  2  0  0  0  0
 10  6  1  0  0  0  0
 10  4  1  0  0  0  0
 11 12  2  0  0  0  0
 12 15  1  0  0  0  0
 13 16  1  1  0  0  0
 13 17  1  0  0  0  0
 14 15  1  0  0  0  0
 14 13  1  0  0  0  0
 14 16  1  1  0  0  0
 15 18  1  0  0  0  0
 18 17  1  0  0  0  0
 20 22  1  0  0  0  0
 20 19  1  0  0  0  0
 21 22  2  0  0  0  0
 22 23  1  0  0  0  0
 23 24  1  6  0  0  0
 23 25  1  0  0  0  0
 25 26  1  0  0  0  0
 27 31  1  0  0  0  0
 27 36  1  1  0  0  0
 28 38  1  6  0  0  0
 30 27  1  0  0  0  0
 31 29  1  1  0  0  0
 32 35  1  0  0  0  0
 33 26  1  1  0  0  0
 33 32  1  0  0  0  0
 33 30  1  0  0  0  0
 34 28  1  0  0  0  0
 34 31  1  0  0  0  0
 35 34  1  0  0  0  0
 35 28  1  0  0  0  0
 37 36  1  0  0  0  0
 39 38  1  0  0  0  0
 40 39  1  0  0  0  0
 41 40  1  0  0  0  0
 41 42  1  0  0  0  0
 43 44  2  0  0  0  0
 44 42  1  0  0  0  0
 44 45  1  0  0  0  0
 46  1  1  0  0  0  0
 47 46  1  0  0  0  0
 48 49  2  0  0  0  0
 48 52  1  0  0  0  0
 49 50  1  0  0  0  0
 50 47  2  0  0  0  0
 51 47  1  0  0  0  0
 52 51  2  0  0  0  0
 53 52  1  0  0  0  0
 53 54  1  0  0  0  0
 54 56  1  0  0  0  0
 56 55  1  0  0  0  0
M  END
>  <MODEL>
4

>  <REMARK>
 VINA RESULT:      -6.6      3.331     10.234
  Name = 
  25 active torsions:
  status: ('A' for Active; 'I' for Inactive)
    1  A    between atoms: C_1  and  O_5
    2  A    between atoms: C_3  and  C_30
    3  A    between atoms: C_6  and  C_28
    4  A    between atoms: C_6  and  C_45
    5  A    between atoms: O_8  and  C_18
    6  A    between atoms: O_8  and  C_51
    7  A    between atoms: C_9  and  O_22
    8  A    between atoms: C_11  and  C_30
    9  A    between atoms: C_11  and  N_43
   10  A    between atoms: C_13  and  O_33
   11  A    between atoms: C_13  and  C_45
   12  A    between atoms: C_15  and  C_25
   13  A    between atoms: O_16  and  C_28
   14  A    between atoms: O_16  and  C_47
   15  A    between atoms: C_18  and  C_49
   16  A    between atoms: C_21  and  O_27
   17  A    between atoms: C_21  and  C_55
   18  A    between atoms: O_22  and  C_45
   19  A    between atoms: C_25  and  C_29
   20  A    between atoms: N_26  and  C_44
   21  A    between atoms: O_27  and  C_37
   22  A    between atoms: C_29  and  N_43
   23  A    between atoms: O_33  and  C_55
   24  A    between atoms: C_37  and  C_41
   25  A    between atoms: C_40  and  C_44
                            x       y       z     vdW  Elec       q    Type
                         _______ _______ _______ _____ _____    ______ ____

>  <TORSDO>
F 25

$$$$
=
 OpenBabel10222417143D

 56 61  0  0  1  0  0  0  0  0999 V2000
  190.0490  177.8750  142.6720 C   0  0  2  0  0  3  0  0  0  0  0  0
  189.5240  176.4730  142.9130 C   0  0  0  0  0  2  0  0  0  0  0  0
  188.0070  176.4960  142.9490 C   0  0  0  0  0  2  0  0  0  0  0  0
  187.5190  177.7910  142.6230 O   0  0  0  0  0  0  0  0  0  0  0  0
  183.4760  178.8950  142.8740 C   0  0  0  0  0  3  0  0  0  0  0  0
  185.4230  178.3110  141.5680 C   0  0  0  0  0  3  0  0  0  0  0  0
  184.2200  178.7480  144.0480 C   0  0  0  0  0  3  0  0  0  0  0  0
  185.5670  178.3830  143.9800 C   0  0  0  0  0  3  0  0  0  0  0  0
  184.0690  178.6720  141.6180 C   0  0  0  0  0  0  0  0  0  0  0  0
  186.1760  178.1620  142.7340 C   0  0  0  0  0  0  0  0  0  0  0  0
  183.9430  179.1800  139.2400 C   0  0  0  0  0  2  0  0  0  0  0  0
  183.2960  178.8610  140.3630 C   0  0  0  0  0  0  0  0  0  0  0  0
  179.5660  179.1610  140.0860 N   0  0  2  0  0  0  0  0  0  0  0  0
  180.9150  179.7630  140.1360 C   0  0  2  0  0  3  0  0  0  0  0  0
  181.8630  178.6830  140.3240 N   0  0  0  0  0  0  0  0  0  0  0  0
  180.0260  179.8770  141.2890 C   0  0  0  0  0  2  0  0  0  0  0  0
  179.7370  177.7250  140.3230 C   0  0  0  0  0  2  0  0  0  0  0  0
  181.2130  177.3930  140.2940 C   0  0  0  0  0  2  0  0  0  0  0  0
  191.2620  177.8170  141.7620 C   0  0  0  0  0  2  0  0  0  0  0  0
  191.0870  176.7640  140.8260 O   0  0  0  0  0  0  0  0  0  0  0  0
  192.9060  177.1270  139.4840 O   0  0  0  0  0  0  0  0  0  0  0  0
  191.6980  176.7900  139.5680 C   0  0  0  0  0  0  0  0  0  0  0  0
  190.9720  176.3220  138.3420 C   0  0  2  0  0  3  0  0  0  0  0  0
  192.0010  175.8420  137.3220 C   0  0  0  0  0  1  0  0  0  0  0  0
  190.2000  177.3700  137.8210 O   0  0  0  0  0  0  0  0  0  0  0  0
  188.8580  177.0590  138.0830 C   0  0  0  0  0  2  0  0  0  0  0  0
  188.2950  174.6630  135.9400 C   0  0  1  0  0  3  0  0  0  0  0  0
  184.5870  175.4800  136.2520 C   0  0  2  0  0  3  0  0  0  0  0  0
  186.6700  172.9010  135.7170 O   0  0  0  0  0  1  0  0  0  0  0  0
  188.5900  176.1630  135.7070 C   0  0  0  0  0  2  0  0  0  0  0  0
  186.8410  174.2840  135.5950 C   0  0  1  0  0  3  0  0  0  0  0  0
  186.5320  177.1850  137.0470 C   0  0  0  0  0  2  0  0  0  0  0  0
  188.0590  177.1370  136.7910 C   0  0  1  0  0  3  0  0  0  0  0  0
  185.9660  174.9810  136.6020 C   0  0  1  0  0  3  0  0  0  0  0  0
  185.8040  176.3640  136.0000 C   0  0  1  0  0  3  0  0  0  0  0  0
  189.1790  173.9000  135.1720 O   0  0  0  0  0  0  0  0  0  0  0  0
  190.0460  174.8270  134.5940 C   0  0  0  0  0  1  0  0  0  0  0  0
  183.8540  175.8390  137.5370 C   0  0  0  0  0  2  0  0  0  0  0  0
  182.5740  175.0410  137.6910 C   0  0  0  0  0  2  0  0  0  0  0  0
  181.4450  175.8490  137.2680 N   0  0  0  0  0  2  0  0  0  0  0  0
  180.6740  175.0450  136.3340 C   0  0  0  0  0  2  0  0  0  0  0  0
  181.0660  173.5880  136.4870 C   0  0  0  0  0  2  0  0  0  0  0  0
  180.5010  171.7580  138.0860 O   0  0  0  0  0  1  0  0  0  0  0  0
  180.1110  172.8990  137.3980 C   0  0  0  0  0  0  0  0  0  0  0  0
  178.9500  173.3620  137.5550 O   0  0  0  0  0  0  0  0  0  0  0  0
  190.3910  178.4790  143.9190 O   0  0  0  0  0  0  0  0  0  0  0  0
  190.5880  177.7480  145.0940 C   0  0  0  0  0  0  0  0  0  0  0  0
  190.9420  176.3330  147.4860 C   0  0  0  0  0  3  0  0  0  0  0  0
  191.8760  176.2090  146.4560 C   0  0  0  0  0  3  0  0  0  0  0  0
  191.7020  176.9140  145.2650 C   0  0  0  0  0  3  0  0  0  0  0  0
  189.6510  177.8620  146.1260 C   0  0  0  0  0  3  0  0  0  0  0  0
  189.8220  177.1580  147.3290 C   0  0  0  0  0  0  0  0  0  0  0  0
  188.9140  177.2770  148.3850 O   0  0  0  0  0  0  0  0  0  0  0  0
  187.9050  178.2770  148.4170 C   0  0  0  0  0  2  0  0  0  0  0  0
  185.7440  179.0220  147.4070 C   0  0  0  0  0  1  0  0  0  0  0  0
  186.8000  177.9310  147.4320 C   0  0  0  0  0  2  0  0  0  0  0  0
  1 19  1  6  0  0  0
  1  2  1  0  0  0  0
  1 46  1  0  0  0  0
  2  3  1  0  0  0  0
  4 10  1  0  0  0  0
  4  3  1  0  0  0  0
  5  7  1  0  0  0  0
  6  9  1  0  0  0  0
  6 10  2  0  0  0  0
  8  7  2  0  0  0  0
  9  5  2  0  0  0  0
 10  8  1  0  0  0  0
 11 12  2  0  0  0  0
 12  9  1  0  0  0  0
 13 14  1  0  0  0  0
 13 17  1  1  0  0  0
 13 16  1  0  0  0  0
 14 15  1  0  0  0  0
 14 16  1  1  0  0  0
 15 12  1  0  0  0  0
 18 17  1  0  0  0  0
 18 15  1  0  0  0  0
 20 19  1  0  0  0  0
 21 22  2  0  0  0  0
 22 20  1  0  0  0  0
 23 24  1  6  0  0  0
 23 22  1  0  0  0  0
 25 26  1  0  0  0  0
 25 23  1  0  0  0  0
 27 36  1  6  0  0  0
 28 34  1  0  0  0  0
 28 38  1  1  0  0  0
 30 27  1  0  0  0  0
 30 33  1  0  0  0  0
 31 29  1  1  0  0  0
 31 27  1  0  0  0  0
 31 34  1  0  0  0  0
 33 32  1  0  0  0  0
 33 26  1  1  0  0  0
 35 28  1  0  0  0  0
 35 34  1  0  0  0  0
 35 32  1  0  0  0  0
 37 36  1  0  0  0  0
 38 39  1  0  0  0  0
 40 39  1  0  0  0  0
 41 42  1  0  0  0  0
 41 40  1  0  0  0  0
 42 44  1  0  0  0  0
 44 45  2  0  0  0  0
 44 43  1  0  0  0  0
 46 47  1  0  0  0  0
 47 50  2  0  0  0  0
 47 51  1  0  0  0  0
 49 48  2  0  0  0  0
 50 49  1  0  0  0  0
 51 52  2  0  0  0  0
 52 48  1  0  0  0  0
 52 53  1  0  0  0  0
 53 54  1  0  0  0  0
 55 56  1  0  0  0  0
 56 54  1  0  0  0  0
M  END
>  <MODEL>
5

>  <REMARK>
 VINA RESULT:      -6.5      2.849      7.343
  Name = 
  25 active torsions:
  status: ('A' for Active; 'I' for Inactive)
    1  A    between atoms: C_1  and  O_5
    2  A    between atoms: C_3  and  C_30
    3  A    between atoms: C_6  and  C_28
    4  A    between atoms: C_6  and  C_45
    5  A    between atoms: O_8  and  C_18
    6  A    between atoms: O_8  and  C_51
    7  A    between atoms: C_9  and  O_22
    8  A    between atoms: C_11  and  C_30
    9  A    between atoms: C_11  and  N_43
   10  A    between atoms: C_13  and  O_33
   11  A    between atoms: C_13  and  C_45
   12  A    between atoms: C_15  and  C_25
   13  A    between atoms: O_16  and  C_28
   14  A    between atoms: O_16  and  C_47
   15  A    between atoms: C_18  and  C_49
   16  A    between atoms: C_21  and  O_27
   17  A    between atoms: C_21  and  C_55
   18  A    between atoms: O_22  and  C_45
   19  A    between atoms: C_25  and  C_29
   20  A    between atoms: N_26  and  C_44
   21  A    between atoms: O_27  and  C_37
   22  A    between atoms: C_29  and  N_43
   23  A    between atoms: O_33  and  C_55
   24  A    between atoms: C_37  and  C_41
   25  A    between atoms: C_40  and  C_44
                            x       y       z     vdW  Elec       q    Type
                         _______ _______ _______ _____ _____    ______ ____

>  <TORSDO>
F 25

$$$$
=
 OpenBabel10222417143D

 56 61  0  0  1  0  0  0  0  0999 V2000
  191.0410  175.7440  137.0810 C   0  0  2  0  0  3  0  0  0  0  0  0
  189.8430  174.8370  136.8810 C   0  0  0  0  0  2  0  0  0  0  0  0
  188.9890  175.3630  135.7420 C   0  0  0  0  0  2  0  0  0  0  0  0
  187.9770  174.4240  135.4000 O   0  0  0  0  0  0  0  0  0  0  0  0
  184.4770  173.8660  137.6500 C   0  0  0  0  0  3  0  0  0  0  0  0
  185.7660  175.1180  136.0350 C   0  0  0  0  0  3  0  0  0  0  0  0
  185.5300  172.9580  137.7850 C   0  0  0  0  0  3  0  0  0  0  0  0
  186.7020  173.1320  137.0450 C   0  0  0  0  0  3  0  0  0  0  0  0
  184.5810  174.9570  136.7670 C   0  0  0  0  0  0  0  0  0  0  0  0
  186.8240  174.2180  136.1630 C   0  0  0  0  0  0  0  0  0  0  0  0
  183.6210  176.9750  135.8030 C   0  0  0  0  0  2  0  0  0  0  0  0
  183.4800  175.9480  136.6430 C   0  0  0  0  0  0  0  0  0  0  0  0
  180.5170  176.2600  138.9230 N   0  0  2  0  0  0  0  0  0  0  0  0
  181.8570  176.6900  138.4720 C   0  0  2  0  0  3  0  0  0  0  0  0
  182.2520  175.8100  137.3900 N   0  0  0  0  0  0  0  0  0  0  0  0
  181.7160  175.9440  139.7200 C   0  0  0  0  0  2  0  0  0  0  0  0
  180.1710  175.0720  138.1380 C   0  0  0  0  0  2  0  0  0  0  0  0
  181.1940  174.8930  137.0370 C   0  0  0  0  0  2  0  0  0  0  0  0
  190.5760  177.1820  137.2190 C   0  0  0  0  0  2  0  0  0  0  0  0
  189.9210  177.3370  138.4700 O   0  0  0  0  0  0  0  0  0  0  0  0
  189.0190  179.4130  138.1220 O   0  0  0  0  0  0  0  0  0  0  0  0
  188.9050  178.2800  138.6550 C   0  0  0  0  0  0  0  0  0  0  0  0
  187.6410  177.9260  139.3810 C   0  0  2  0  0  3  0  0  0  0  0  0
  186.4690  178.0760  138.4150 C   0  0  0  0  0  1  0  0  0  0  0  0
  187.4850  178.7660  140.4930 O   0  0  0  0  0  0  0  0  0  0  0  0
  188.5210  178.4590  141.3860 C   0  0  0  0  0  2  0  0  0  0  0  0
  190.1580  177.1640  143.8940 C   0  0  1  0  0  3  0  0  0  0  0  0
  187.0110  177.6480  145.9850 C   0  0  2  0  0  3  0  0  0  0  0  0
  190.3590  177.6360  146.2460 O   0  0  0  0  0  1  0  0  0  0  0  0
  189.3070  176.4820  142.7980 C   0  0  0  0  0  2  0  0  0  0  0  0
  189.4920  177.1070  145.2840 C   0  0  1  0  0  3  0  0  0  0  0  0
  186.9910  177.7000  143.2800 C   0  0  0  0  0  2  0  0  0  0  0  0
  188.0970  177.2970  142.2720 C   0  0  1  0  0  3  0  0  0  0  0  0
  188.2590  177.9670  145.2030 C   0  0  1  0  0  3  0  0  0  0  0  0
  187.2320  177.0200  144.6140 C   0  0  1  0  0  3  0  0  0  0  0  0
  191.4130  176.5500  143.9450 O   0  0  0  0  0  0  0  0  0  0  0  0
  191.1950  175.2500  143.4870 C   0  0  0  0  0  1  0  0  0  0  0  0
  186.0810  178.8520  145.9380 C   0  0  0  0  0  2  0  0  0  0  0  0
  184.7990  178.5970  146.7070 C   0  0  0  0  0  2  0  0  0  0  0  0
  183.7070  178.3860  145.7730 N   0  0  0  0  0  2  0  0  0  0  0  0
  183.9750  179.2190  144.6130 C   0  0  0  0  0  2  0  0  0  0  0  0
  182.6780  179.4740  143.8700 C   0  0  0  0  0  2  0  0  0  0  0  0
  181.5560  178.6890  141.7840 O   0  0  0  0  0  0  0  0  0  0  0  0
  182.7160  178.8070  142.5400 C   0  0  0  0  0  0  0  0  0  0  0  0
  183.8050  178.3610  142.0940 O   0  0  0  0  0  1  0  0  0  0  0  0
  191.9310  175.6140  135.9730 O   0  0  0  0  0  0  0  0  0  0  0  0
  193.2680  175.2250  136.1090 C   0  0  0  0  0  0  0  0  0  0  0  0
  195.9280  174.4150  136.4450 C   0  0  0  0  0  3  0  0  0  0  0  0
  195.6310  175.5280  135.6560 C   0  0  0  0  0  3  0  0  0  0  0  0
  194.3070  175.9340  135.4890 C   0  0  0  0  0  3  0  0  0  0  0  0
  193.5700  174.1070  136.8910 C   0  0  0  0  0  3  0  0  0  0  0  0
  194.9010  173.6950  137.0670 C   0  0  0  0  0  0  0  0  0  0  0  0
  195.2300  172.5970  137.8660 O   0  0  0  0  0  0  0  0  0  0  0  0
  195.0440  171.2550  137.4380 C   0  0  0  0  0  2  0  0  0  0  0  0
  197.5290  171.3500  137.1930 C   0  0  0  0  0  1  0  0  0  0  0  0
  196.3450  170.4810  137.5770 C   0  0  0  0  0  2  0  0  0  0  0  0
  1  2  1  6  0  0  0
  1 19  1  0  0  0  0
  3  2  1  0  0  0  0
  4  3  1  0  0  0  0
  4 10  1  0  0  0  0
  5  7  1  0  0  0  0
  6 10  2  0  0  0  0
  6  9  1  0  0  0  0
  8  7  2  0  0  0  0
  9  5  2  0  0  0  0
 10  8  1  0  0  0  0
 11 12  2  0  0  0  0
 12  9  1  0  0  0  0
 12 15  1  0  0  0  0
 13 17  1  6  0  0  0
 13 16  1  0  0  0  0
 14 13  1  0  0  0  0
 14 16  1  1  0  0  0
 15 14  1  0  0  0  0
 18 15  1  0  0  0  0
 18 17  1  0  0  0  0
 19 20  1  0  0  0  0
 20 22  1  0  0  0  0
 21 22  2  0  0  0  0
 22 23  1  0  0  0  0
 23 24  1  6  0  0  0
 23 25  1  0  0  0  0
 25 26  1  0  0  0  0
 27 36  1  1  0  0  0
 27 31  1  0  0  0  0
 28 38  1  6  0  0  0
 30 27  1  0  0  0  0
 31 29  1  1  0  0  0
 32 35  1  0  0  0  0
 33 26  1  1  0  0  0
 33 30  1  0  0  0  0
 33 32  1  0  0  0  0
 34 31  1  0  0  0  0
 34 28  1  0  0  0  0
 35 34  1  0  0  0  0
 35 28  1  0  0  0  0
 37 36  1  0  0  0  0
 38 39  1  0  0  0  0
 40 39  1  0  0  0  0
 41 40  1  0  0  0  0
 42 41  1  0  0  0  0
 43 44  2  0  0  0  0
 44 42  1  0  0  0  0
 45 44  1  0  0  0  0
 46 47  1  0  0  0  0
 46  1  1  0  0  0  0
 47 51  1  0  0  0  0
 48 52  1  0  0  0  0
 49 48  2  0  0  0  0
 50 49  1  0  0  0  0
 50 47  2  0  0  0  0
 51 52  2  0  0  0  0
 52 53  1  0  0  0  0
 54 56  1  0  0  0  0
 54 53  1  0  0  0  0
 55 56  1  0  0  0  0
M  END
>  <MODEL>
6

>  <REMARK>
 VINA RESULT:      -6.4      3.518     11.056
  Name = 
  25 active torsions:
  status: ('A' for Active; 'I' for Inactive)
    1  A    between atoms: C_1  and  O_5
    2  A    between atoms: C_3  and  C_30
    3  A    between atoms: C_6  and  C_28
    4  A    between atoms: C_6  and  C_45
    5  A    between atoms: O_8  and  C_18
    6  A    between atoms: O_8  and  C_51
    7  A    between atoms: C_9  and  O_22
    8  A    between atoms: C_11  and  C_30
    9  A    between atoms: C_11  and  N_43
   10  A    between atoms: C_13  and  O_33
   11  A    between atoms: C_13  and  C_45
   12  A    between atoms: C_15  and  C_25
   13  A    between atoms: O_16  and  C_28
   14  A    between atoms: O_16  and  C_47
   15  A    between atoms: C_18  and  C_49
   16  A    between atoms: C_21  and  O_27
   17  A    between atoms: C_21  and  C_55
   18  A    between atoms: O_22  and  C_45
   19  A    between atoms: C_25  and  C_29
   20  A    between atoms: N_26  and  C_44
   21  A    between atoms: O_27  and  C_37
   22  A    between atoms: C_29  and  N_43
   23  A    between atoms: O_33  and  C_55
   24  A    between atoms: C_37  and  C_41
   25  A    between atoms: C_40  and  C_44
                            x       y       z     vdW  Elec       q    Type
                         _______ _______ _______ _____ _____    ______ ____

>  <TORSDO>
F 25

$$$$
=
 OpenBabel10222417143D

 56 61  0  0  1  0  0  0  0  0999 V2000
  188.8700  176.4630  137.2860 C   0  0  2  0  0  3  0  0  0  0  0  0
  187.3850  176.5540  137.5790 C   0  0  0  0  0  2  0  0  0  0  0  0
  186.8900  177.9550  137.2730 C   0  0  0  0  0  2  0  0  0  0  0  0
  185.5580  177.9170  136.7750 O   0  0  0  0  0  0  0  0  0  0  0  0
  183.6470  174.4450  135.3900 C   0  0  0  0  0  3  0  0  0  0  0  0
  183.7170  176.3740  136.8430 C   0  0  0  0  0  3  0  0  0  0  0  0
  184.8750  174.8180  134.8370 C   0  0  0  0  0  3  0  0  0  0  0  0
  185.5230  175.9690  135.2890 C   0  0  0  0  0  3  0  0  0  0  0  0
  183.0500  175.2240  136.3980 C   0  0  0  0  0  0  0  0  0  0  0  0
  184.9440  176.7550  136.2990 C   0  0  0  0  0  0  0  0  0  0  0  0
  181.1890  173.6720  136.6360 C   0  0  0  0  0  2  0  0  0  0  0  0
  181.7620  174.8150  137.0180 C   0  0  0  0  0  0  0  0  0  0  0  0
  179.6310  177.0930  139.1020 N   0  0  2  0  0  0  0  0  0  0  0  0
  180.0350  176.5310  137.7970 C   0  0  2  0  0  3  0  0  0  0  0  0
  181.1300  175.6130  138.0420 N   0  0  0  0  0  0  0  0  0  0  0  0
  180.4160  177.8960  138.1480 C   0  0  0  0  0  2  0  0  0  0  0  0
  180.5550  176.5470  140.1000 C   0  0  0  0  0  2  0  0  0  0  0  0
  181.3940  175.4660  139.4550 C   0  0  0  0  0  2  0  0  0  0  0  0
  189.5130  177.8240  137.4820 C   0  0  0  0  0  2  0  0  0  0  0  0
  190.4800  177.7320  138.5180 O   0  0  0  0  0  0  0  0  0  0  0  0
  190.8540  175.6520  139.4010 O   0  0  0  0  0  0  0  0  0  0  0  0
  190.3600  176.7980  139.5530 C   0  0  0  0  0  0  0  0  0  0  0  0
  189.7540  177.1750  140.8720 C   0  0  2  0  0  3  0  0  0  0  0  0
  188.8060  178.3510  140.6520 C   0  0  0  0  0  1  0  0  0  0  0  0
  190.7680  177.5110  141.7800 O   0  0  0  0  0  0  0  0  0  0  0  0
  190.1470  178.1160  142.8810 C   0  0  0  0  0  2  0  0  0  0  0  0
  190.3820  177.5050  146.0770 C   0  0  1  0  0  3  0  0  0  0  0  0
  186.5900  177.8330  146.2520 C   0  0  2  0  0  3  0  0  0  0  0  0
  189.3580  178.3730  148.0760 O   0  0  0  0  0  1  0  0  0  0  0  0
  190.2270  176.5340  144.8840 C   0  0  0  0  0  2  0  0  0  0  0  0
  189.1150  177.5710  146.9560 C   0  0  1  0  0  3  0  0  0  0  0  0
  187.9190  177.4470  143.9270 C   0  0  0  0  0  2  0  0  0  0  0  0
  189.4000  177.0600  143.6830 C   0  0  1  0  0  3  0  0  0  0  0  0
  188.0440  178.2090  146.1130 C   0  0  1  0  0  3  0  0  0  0  0  0
  187.4990  177.0340  145.3240 C   0  0  1  0  0  3  0  0  0  0  0  0
  191.4740  177.1050  146.8520 O   0  0  0  0  0  0  0  0  0  0  0  0
  191.9300  175.9310  146.2520 C   0  0  0  0  0  1  0  0  0  0  0  0
  185.7450  178.8580  145.5090 C   0  0  0  0  0  2  0  0  0  0  0  0
  184.2720  178.7080  145.8340 C   0  0  0  0  0  2  0  0  0  0  0  0
  183.5090  178.6270  144.6020 N   0  0  0  0  0  2  0  0  0  0  0  0
  184.3060  179.2640  143.5670 C   0  0  0  0  0  2  0  0  0  0  0  0
  184.5590  178.2710  142.4500 C   0  0  0  0  0  2  0  0  0  0  0  0
  185.3170  179.3740  140.3440 O   0  0  0  0  0  0  0  0  0  0  0  0
  184.2750  178.9040  141.1340 C   0  0  0  0  0  0  0  0  0  0  0  0
  183.0870  179.0010  140.7290 O   0  0  0  0  0  1  0  0  0  0  0  0
  189.0690  176.0080  135.9490 O   0  0  0  0  0  0  0  0  0  0  0  0
  189.4860  174.7090  135.6380 C   0  0  0  0  0  0  0  0  0  0  0  0
  190.3920  172.1330  135.0110 C   0  0  0  0  0  3  0  0  0  0  0  0
  189.0810  172.5060  134.7080 C   0  0  0  0  0  3  0  0  0  0  0  0
  188.6290  173.7890  135.0180 C   0  0  0  0  0  3  0  0  0  0  0  0
  190.7950  174.3290  135.9470 C   0  0  0  0  0  3  0  0  0  0  0  0
  191.2580  173.0390  135.6340 C   0  0  0  0  0  0  0  0  0  0  0  0
  192.5700  172.6440  135.9080 O   0  0  0  0  0  0  0  0  0  0  0  0
  193.3860  173.3080  136.8630 C   0  0  0  0  0  2  0  0  0  0  0  0
  194.6910  175.3890  136.4050 C   0  0  0  0  0  1  0  0  0  0  0  0
  194.6150  173.8890  136.1830 C   0  0  0  0  0  2  0  0  0  0  0  0
  1 19  1  6  0  0  0
  1  2  1  0  0  0  0
  3  2  1  0  0  0  0
  4  3  1  0  0  0  0
  5  9  1  0  0  0  0
  7  8  1  0  0  0  0
  7  5  2  0  0  0  0
  8 10  2  0  0  0  0
  9  6  2  0  0  0  0
  9 12  1  0  0  0  0
 10  4  1  0  0  0  0
 10  6  1  0  0  0  0
 11 12  2  0  0  0  0
 12 15  1  0  0  0  0
 13 16  1  6  0  0  0
 13 17  1  0  0  0  0
 14 15  1  0  0  0  0
 14 16  1  6  0  0  0
 14 13  1  0  0  0  0
 15 18  1  0  0  0  0
 18 17  1  0  0  0  0
 19 20  1  0  0  0  0
 20 22  1  0  0  0  0
 21 22  2  0  0  0  0
 22 23  1  0  0  0  0
 23 24  1  6  0  0  0
 23 25  1  0  0  0  0
 25 26  1  0  0  0  0
 27 36  1  1  0  0  0
 27 31  1  0  0  0  0
 28 38  1  6  0  0  0
 30 27  1  0  0  0  0
 31 29  1  1  0  0  0
 32 35  1  0  0  0  0
 33 26  1  1  0  0  0
 33 32  1  0  0  0  0
 33 30  1  0  0  0  0
 34 28  1  0  0  0  0
 34 31  1  0  0  0  0
 35 34  1  0  0  0  0
 35 28  1  0  0  0  0
 37 36  1  0  0  0  0
 38 39  1  0  0  0  0
 40 39  1  0  0  0  0
 41 40  1  0  0  0  0
 42 41  1  0  0  0  0
 43 44  2  0  0  0  0
 44 42  1  0  0  0  0
 45 44  1  0  0  0  0
 46  1  1  0  0  0  0
 47 51  1  0  0  0  0
 47 46  1  0  0  0  0
 48 52  1  0  0  0  0
 49 48  2  0  0  0  0
 49 50  1  0  0  0  0
 50 47  2  0  0  0  0
 52 53  1  0  0  0  0
 52 51  2  0  0  0  0
 53 54  1  0  0  0  0
 56 55  1  0  0  0  0
 56 54  1  0  0  0  0
M  END
>  <MODEL>
7

>  <REMARK>
 VINA RESULT:      -6.1      2.833     10.776
  Name = 
  25 active torsions:
  status: ('A' for Active; 'I' for Inactive)
    1  A    between atoms: C_1  and  O_5
    2  A    between atoms: C_3  and  C_30
    3  A    between atoms: C_6  and  C_28
    4  A    between atoms: C_6  and  C_45
    5  A    between atoms: O_8  and  C_18
    6  A    between atoms: O_8  and  C_51
    7  A    between atoms: C_9  and  O_22
    8  A    between atoms: C_11  and  C_30
    9  A    between atoms: C_11  and  N_43
   10  A    between atoms: C_13  and  O_33
   11  A    between atoms: C_13  and  C_45
   12  A    between atoms: C_15  and  C_25
   13  A    between atoms: O_16  and  C_28
   14  A    between atoms: O_16  and  C_47
   15  A    between atoms: C_18  and  C_49
   16  A    between atoms: C_21  and  O_27
   17  A    between atoms: C_21  and  C_55
   18  A    between atoms: O_22  and  C_45
   19  A    between atoms: C_25  and  C_29
   20  A    between atoms: N_26  and  C_44
   21  A    between atoms: O_27  and  C_37
   22  A    between atoms: C_29  and  N_43
   23  A    between atoms: O_33  and  C_55
   24  A    between atoms: C_37  and  C_41
   25  A    between atoms: C_40  and  C_44
                            x       y       z     vdW  Elec       q    Type
                         _______ _______ _______ _____ _____    ______ ____

>  <TORSDO>
F 25

$$$$
=
 OpenBabel10222417143D

 56 61  0  0  1  0  0  0  0  0999 V2000
  182.5060  177.4750  140.3930 C   0  0  2  0  0  3  0  0  0  0  0  0
  183.7210  178.3810  140.4330 C   0  0  0  0  0  2  0  0  0  0  0  0
  184.6920  177.8850  141.4890 C   0  0  0  0  0  2  0  0  0  0  0  0
  184.9880  178.9180  142.4200 O   0  0  0  0  0  0  0  0  0  0  0  0
  186.2000  178.1920  146.3730 C   0  0  0  0  0  3  0  0  0  0  0  0
  186.6680  178.2500  144.0040 C   0  0  0  0  0  3  0  0  0  0  0  0
  184.8940  178.6240  146.1260 C   0  0  0  0  0  3  0  0  0  0  0  0
  184.4760  178.8670  144.8150 C   0  0  0  0  0  3  0  0  0  0  0  0
  187.1060  178.0040  145.3130 C   0  0  0  0  0  0  0  0  0  0  0  0
  185.3660  178.6800  143.7450 C   0  0  0  0  0  0  0  0  0  0  0  0
  188.7920  177.0160  146.7650 C   0  0  0  0  0  2  0  0  0  0  0  0
  188.4850  177.5110  145.5640 C   0  0  0  0  0  0  0  0  0  0  0  0
  190.8710  176.8210  142.7520 N   0  0  2  0  0  0  0  0  0  0  0  0
  189.8650  176.3740  143.7380 C   0  0  2  0  0  3  0  0  0  0  0  0
  189.4930  177.5290  144.5300 N   0  0  0  0  0  0  0  0  0  0  0  0
  191.2740  176.0430  143.9360 C   0  0  0  0  0  2  0  0  0  0  0  0
  191.1340  178.2360  143.0320 C   0  0  0  0  0  2  0  0  0  0  0  0
  190.1260  178.7340  144.0440 C   0  0  0  0  0  2  0  0  0  0  0  0
  182.3830  176.8440  139.0180 C   0  0  0  0  0  2  0  0  0  0  0  0
  183.6830  176.5520  138.5270 O   0  0  0  0  0  0  0  0  0  0  0  0
  183.8050  177.5050  136.4490 O   0  0  0  0  0  0  0  0  0  0  0  0
  183.9510  176.4760  137.1560 C   0  0  0  0  0  0  0  0  0  0  0  0
  184.5080  175.2270  136.5420 C   0  0  2  0  0  3  0  0  0  0  0  0
  184.7300  174.2000  137.6500 C   0  0  0  0  0  1  0  0  0  0  0  0
  185.7110  175.5210  135.8830 O   0  0  0  0  0  0  0  0  0  0  0  0
  186.6570  175.8200  136.8730 C   0  0  0  0  0  2  0  0  0  0  0  0
  188.7260  177.7540  138.4930 C   0  0  1  0  0  3  0  0  0  0  0  0
  191.5470  176.0830  136.5550 C   0  0  2  0  0  3  0  0  0  0  0  0
  190.8800  177.4820  139.5340 O   0  0  0  0  0  1  0  0  0  0  0  0
  187.9730  177.9900  137.1640 C   0  0  0  0  0  2  0  0  0  0  0  0
  190.2450  177.5760  138.2910 C   0  0  1  0  0  3  0  0  0  0  0  0
  188.9590  175.9410  135.7820 C   0  0  0  0  0  2  0  0  0  0  0  0
  187.7260  176.7320  136.2900 C   0  0  1  0  0  3  0  0  0  0  0  0
  190.4270  176.2820  137.5430 C   0  0  1  0  0  3  0  0  0  0  0  0
  190.2310  176.7030  136.0990 C   0  0  1  0  0  3  0  0  0  0  0  0
  188.4860  178.8320  139.3500 O   0  0  0  0  0  0  0  0  0  0  0  0
  188.2700  178.2540  140.6020 C   0  0  0  0  0  1  0  0  0  0  0  0
  191.6490  174.6020  136.2190 C   0  0  0  0  0  2  0  0  0  0  0  0
  192.9800  174.2650  135.5770 C   0  0  0  0  0  2  0  0  0  0  0  0
  193.9160  173.8330  136.6000 N   0  0  0  0  0  2  0  0  0  0  0  0
  195.0270  174.7690  136.5820 C   0  0  0  0  0  2  0  0  0  0  0  0
  196.2410  174.1170  137.2110 C   0  0  0  0  0  2  0  0  0  0  0  0
  198.4240  174.9370  138.1000 O   0  0  0  0  0  1  0  0  0  0  0  0
  197.3980  175.0520  137.1700 C   0  0  0  0  0  0  0  0  0  0  0  0
  197.4540  175.9410  136.2800 O   0  0  0  0  0  0  0  0  0  0  0  0
  181.3340  178.2290  140.7000 O   0  0  0  0  0  0  0  0  0  0  0  0
  180.5920  178.9160  139.7330 C   0  0  0  0  0  0  0  0  0  0  0  0
  179.1130  180.3520  137.8370 C   0  0  0  0  0  3  0  0  0  0  0  0
  178.9310  178.9740  137.9670 C   0  0  0  0  0  3  0  0  0  0  0  0
  179.6650  178.2580  138.9120 C   0  0  0  0  0  3  0  0  0  0  0  0
  180.7770  180.2950  139.5930 C   0  0  0  0  0  3  0  0  0  0  0  0
  180.0380  181.0230  138.6460 C   0  0  0  0  0  0  0  0  0  0  0  0
  180.1850  182.4050  138.5060 O   0  0  0  0  0  0  0  0  0  0  0  0
  181.0260  182.9900  137.5220 C   0  0  0  0  0  2  0  0  0  0  0  0
  180.7870  184.4880  135.5360 C   0  0  0  0  0  1  0  0  0  0  0  0
  180.2270  183.2780  136.2610 C   0  0  0  0  0  2  0  0  0  0  0  0
  1 19  1  6  0  0  0
  1  2  1  0  0  0  0
  1 46  1  0  0  0  0
  2  3  1  0  0  0  0
  3  4  1  0  0  0  0
  4 10  1  0  0  0  0
  6  9  1  0  0  0  0
  7  5  1  0  0  0  0
  8  7  2  0  0  0  0
  9 12  1  0  0  0  0
  9  5  2  0  0  0  0
 10  6  2  0  0  0  0
 10  8  1  0  0  0  0
 12 11  2  0  0  0  0
 13 17  1  1  0  0  0
 13 14  1  0  0  0  0
 13 16  1  0  0  0  0
 14 16  1  1  0  0  0
 14 15  1  0  0  0  0
 15 12  1  0  0  0  0
 17 18  1  0  0  0  0
 18 15  1  0  0  0  0
 20 19  1  0  0  0  0
 21 22  2  0  0  0  0
 22 20  1  0  0  0  0
 23 22  1  0  0  0  0
 23 24  1  1  0  0  0
 25 23  1  0  0  0  0
 25 26  1  0  0  0  0
 27 36  1  1  0  0  0
 28 38  1  6  0  0  0
 28 34  1  0  0  0  0
 30 27  1  0  0  0  0
 31 27  1  0  0  0  0
 31 29  1  1  0  0  0
 32 35  1  0  0  0  0
 32 33  1  0  0  0  0
 33 26  1  1  0  0  0
 33 30  1  0  0  0  0
 34 31  1  0  0  0  0
 35 28  1  0  0  0  0
 35 34  1  0  0  0  0
 36 37  1  0  0  0  0
 39 38  1  0  0  0  0
 39 40  1  0  0  0  0
 41 40  1  0  0  0  0
 41 42  1  0  0  0  0
 44 42  1  0  0  0  0
 44 43  1  0  0  0  0
 45 44  2  0  0  0  0
 47 46  1  0  0  0  0
 48 49  2  0  0  0  0
 48 52  1  0  0  0  0
 49 50  1  0  0  0  0
 50 47  2  0  0  0  0
 51 47  1  0  0  0  0
 52 51  2  0  0  0  0
 53 52  1  0  0  0  0
 54 53  1  0  0  0  0
 55 56  1  0  0  0  0
 56 54  1  0  0  0  0
M  END
>  <MODEL>
8

>  <REMARK>
 VINA RESULT:      -6.1      3.343      6.134
  Name = 
  25 active torsions:
  status: ('A' for Active; 'I' for Inactive)
    1  A    between atoms: C_1  and  O_5
    2  A    between atoms: C_3  and  C_30
    3  A    between atoms: C_6  and  C_28
    4  A    between atoms: C_6  and  C_45
    5  A    between atoms: O_8  and  C_18
    6  A    between atoms: O_8  and  C_51
    7  A    between atoms: C_9  and  O_22
    8  A    between atoms: C_11  and  C_30
    9  A    between atoms: C_11  and  N_43
   10  A    between atoms: C_13  and  O_33
   11  A    between atoms: C_13  and  C_45
   12  A    between atoms: C_15  and  C_25
   13  A    between atoms: O_16  and  C_28
   14  A    between atoms: O_16  and  C_47
   15  A    between atoms: C_18  and  C_49
   16  A    between atoms: C_21  and  O_27
   17  A    between atoms: C_21  and  C_55
   18  A    between atoms: O_22  and  C_45
   19  A    between atoms: C_25  and  C_29
   20  A    between atoms: N_26  and  C_44
   21  A    between atoms: O_27  and  C_37
   22  A    between atoms: C_29  and  N_43
   23  A    between atoms: O_33  and  C_55
   24  A    between atoms: C_37  and  C_41
   25  A    between atoms: C_40  and  C_44
                            x       y       z     vdW  Elec       q    Type
                         _______ _______ _______ _____ _____    ______ ____

>  <TORSDO>
F 25

$$$$
=
 OpenBabel10222417143D

 56 61  0  0  1  0  0  0  0  0999 V2000
  189.6120  177.5300  140.8690 C   0  0  2  0  0  3  0  0  0  0  0  0
  190.9560  177.0440  140.3630 C   0  0  0  0  0  2  0  0  0  0  0  0
  190.8620  176.7400  138.8780 C   0  0  0  0  0  2  0  0  0  0  0  0
  190.8350  175.3360  138.6570 O   0  0  0  0  0  0  0  0  0  0  0  0
  192.9110  173.4830  135.5130 C   0  0  0  0  0  3  0  0  0  0  0  0
  192.8250  175.0670  137.3350 C   0  0  0  0  0  3  0  0  0  0  0  0
  191.5880  173.1140  135.7720 C   0  0  0  0  0  3  0  0  0  0  0  0
  190.8850  173.7230  136.8130 C   0  0  0  0  0  3  0  0  0  0  0  0
  193.5480  174.4630  136.2970 C   0  0  0  0  0  0  0  0  0  0  0  0
  191.5030  174.7070  137.6030 C   0  0  0  0  0  0  0  0  0  0  0  0
  195.1530  176.0570  135.3960 C   0  0  0  0  0  2  0  0  0  0  0  0
  194.9420  174.8880  136.0060 C   0  0  0  0  0  0  0  0  0  0  0  0
  197.6860  172.3580  136.3820 N   0  0  2  0  0  0  0  0  0  0  0  0
  196.4400  172.8350  135.7460 C   0  0  2  0  0  3  0  0  0  0  0  0
  196.0740  174.0800  136.3920 N   0  0  0  0  0  0  0  0  0  0  0  0
  196.3920  171.7260  136.6950 C   0  0  0  0  0  2  0  0  0  0  0  0
  197.9980  173.3040  137.4570 C   0  0  0  0  0  2  0  0  0  0  0  0
  197.0740  174.4980  137.3460 C   0  0  0  0  0  2  0  0  0  0  0  0
  188.8710  178.2400  139.7510 C   0  0  0  0  0  2  0  0  0  0  0  0
  187.5020  177.8670  139.7950 O   0  0  0  0  0  0  0  0  0  0  0  0
  186.7120  178.6800  137.8050 O   0  0  0  0  0  0  0  0  0  0  0  0
  186.5330  178.5380  139.0420 C   0  0  0  0  0  0  0  0  0  0  0  0
  185.2440  178.9910  139.6610 C   0  0  2  0  0  3  0  0  0  0  0  0
  185.4160  179.0120  141.1780 C   0  0  0  0  0  1  0  0  0  0  0  0
  184.2090  178.1220  139.2860 O   0  0  0  0  0  0  0  0  0  0  0  0
  183.1010  178.4380  140.0850 C   0  0  0  0  0  2  0  0  0  0  0  0
  180.1320  178.0020  138.8030 C   0  0  1  0  0  3  0  0  0  0  0  0
  181.4340  174.7450  137.3170 C   0  0  2  0  0  3  0  0  0  0  0  0
  179.2640  177.2310  136.6940 O   0  0  0  0  0  1  0  0  0  0  0  0
  180.6970  177.5810  140.1790 C   0  0  0  0  0  2  0  0  0  0  0  0
  179.8790  176.7980  137.8730 C   0  0  1  0  0  3  0  0  0  0  0  0
  182.6910  176.0360  139.3340 C   0  0  0  0  0  2  0  0  0  0  0  0
  182.2040  177.2160  140.2120 C   0  0  1  0  0  3  0  0  0  0  0  0
  181.2300  176.2210  137.5430 C   0  0  1  0  0  3  0  0  0  0  0  0
  181.5020  175.3150  138.7290 C   0  0  1  0  0  3  0  0  0  0  0  0
  178.9420  178.7090  138.9950 O   0  0  0  0  0  0  0  0  0  0  0  0
  179.3160  180.0530  138.9750 C   0  0  0  0  0  1  0  0  0  0  0  0
  182.8090  174.5270  136.7020 C   0  0  0  0  0  2  0  0  0  0  0  0
  183.2910  173.1040  136.9020 C   0  0  0  0  0  2  0  0  0  0  0  0
  184.5230  173.1120  137.6700 N   0  0  0  0  0  2  0  0  0  0  0  0
  185.5910  172.7270  136.7630 C   0  0  0  0  0  2  0  0  0  0  0  0
  186.8980  173.3230  137.2470 C   0  0  0  0  0  2  0  0  0  0  0  0
  187.8470  175.6220  137.4420 O   0  0  0  0  0  1  0  0  0  0  0  0
  187.0200  174.7280  136.7730 C   0  0  0  0  0  0  0  0  0  0  0  0
  186.3840  175.1040  135.7530 O   0  0  0  0  0  0  0  0  0  0  0  0
  189.8050  178.4100  141.9750 O   0  0  0  0  0  0  0  0  0  0  0  0
  189.4730  178.0690  143.2900 C   0  0  0  0  0  0  0  0  0  0  0  0
  188.7400  177.4140  145.9130 C   0  0  0  0  0  3  0  0  0  0  0  0
  190.0830  177.6230  145.5950 C   0  0  0  0  0  3  0  0  0  0  0  0
  190.4490  177.9510  144.2890 C   0  0  0  0  0  3  0  0  0  0  0  0
  188.1300  177.8510  143.6130 C   0  0  0  0  0  3  0  0  0  0  0  0
  187.7530  177.5240  144.9260 C   0  0  0  0  0  0  0  0  0  0  0  0
  186.4150  177.3290  145.2790 O   0  0  0  0  0  0  0  0  0  0  0  0
  185.8720  177.7900  146.5080 C   0  0  0  0  0  2  0  0  0  0  0  0
  184.5220  178.9760  144.7730 C   0  0  0  0  0  1  0  0  0  0  0  0
  184.6310  178.6270  146.2460 C   0  0  0  0  0  2  0  0  0  0  0  0
  1 19  1  6  0  0  0
  1 46  1  0  0  0  0
  2  1  1  0  0  0  0
  3  2  1  0  0  0  0
  4  3  1  0  0  0  0
  5  7  2  0  0  0  0
  5  9  1  0  0  0  0
  6 10  1  0  0  0  0
  7  8  1  0  0  0  0
  8 10  2  0  0  0  0
  9  6  2  0  0  0  0
 10  4  1  0  0  0  0
 11 12  2  0  0  0  0
 12  9  1  0  0  0  0
 12 15  1  0  0  0  0
 13 16  1  1  0  0  0
 13 17  1  0  0  0  0
 14 13  1  0  0  0  0
 14 15  1  0  0  0  0
 14 16  1  1  0  0  0
 15 18  1  0  0  0  0
 18 17  1  0  0  0  0
 19 20  1  0  0  0  0
 21 22  2  0  0  0  0
 22 23  1  0  0  0  0
 22 20  1  0  0  0  0
 23 24  1  1  0  0  0
 25 23  1  0  0  0  0
 25 26  1  0  0  0  0
 27 36  1  1  0  0  0
 27 30  1  0  0  0  0
 28 38  1  6  0  0  0
 28 34  1  0  0  0  0
 28 35  1  0  0  0  0
 30 33  1  0  0  0  0
 31 29  1  6  0  0  0
 31 27  1  0  0  0  0
 32 33  1  0  0  0  0
 33 26  1  6  0  0  0
 34 31  1  0  0  0  0
 34 35  1  0  0  0  0
 35 32  1  0  0  0  0
 37 36  1  0  0  0  0
 38 39  1  0  0  0  0
 39 40  1  0  0  0  0
 41 42  1  0  0  0  0
 41 40  1  0  0  0  0
 44 42  1  0  0  0  0
 44 43  1  0  0  0  0
 45 44  2  0  0  0  0
 46 47  1  0  0  0  0
 47 51  2  0  0  0  0
 47 50  1  0  0  0  0
 49 48  1  0  0  0  0
 50 49  2  0  0  0  0
 51 52  1  0  0  0  0
 52 53  1  0  0  0  0
 52 48  2  0  0  0  0
 53 54  1  0  0  0  0
 55 56  1  0  0  0  0
 56 54  1  0  0  0  0
M  END
>  <MODEL>
9

>  <REMARK>
 VINA RESULT:      -6.0      3.506      8.349
  Name = 
  25 active torsions:
  status: ('A' for Active; 'I' for Inactive)
    1  A    between atoms: C_1  and  O_5
    2  A    between atoms: C_3  and  C_30
    3  A    between atoms: C_6  and  C_28
    4  A    between atoms: C_6  and  C_45
    5  A    between atoms: O_8  and  C_18
    6  A    between atoms: O_8  and  C_51
    7  A    between atoms: C_9  and  O_22
    8  A    between atoms: C_11  and  C_30
    9  A    between atoms: C_11  and  N_43
   10  A    between atoms: C_13  and  O_33
   11  A    between atoms: C_13  and  C_45
   12  A    between atoms: C_15  and  C_25
   13  A    between atoms: O_16  and  C_28
   14  A    between atoms: O_16  and  C_47
   15  A    between atoms: C_18  and  C_49
   16  A    between atoms: C_21  and  O_27
   17  A    between atoms: C_21  and  C_55
   18  A    between atoms: O_22  and  C_45
   19  A    between atoms: C_25  and  C_29
   20  A    between atoms: N_26  and  C_44
   21  A    between atoms: O_27  and  C_37
   22  A    between atoms: C_29  and  N_43
   23  A    between atoms: O_33  and  C_55
   24  A    between atoms: C_37  and  C_41
   25  A    between atoms: C_40  and  C_44
                            x       y       z     vdW  Elec       q    Type
                         _______ _______ _______ _____ _____    ______ ____

>  <TORSDO>
F 25

$$$$
