=
 OpenBabel10222419223D

 49 54  0  0  1  0  0  0  0  0999 V2000
  190.9720  176.9570  138.9740 C   0  0  2  0  0  3  0  0  0  0  0  0
  189.8420  177.3620  141.1000 C   0  0  0  0  0  2  0  0  0  0  0  0
  191.3180  177.2290  141.1980 C   0  0  0  0  0  0  0  0  0  0  0  0
  192.0470  177.3130  142.4270 N   0  0  0  0  0  2  0  0  0  0  0  0
  191.9210  177.0280  140.0770 N   0  0  0  0  0  0  0  0  0  0  0  0
  189.5920  177.2090  139.5990 C   0  0  1  0  0  3  0  0  0  0  0  0
  190.0360  175.1710  137.5190 C   0  0  0  0  0  3  0  0  0  0  0  0
  191.0210  175.6050  138.3120 C   0  0  0  0  0  3  0  0  0  0  0  0
  190.1100  173.8360  136.8540 C   0  0  0  0  0  2  0  0  0  0  0  0
  188.8540  173.1200  137.0290 N   0  0  0  0  0  2  0  0  0  0  0  0
  187.7920  174.0690  136.7390 C   0  0  0  0  0  1  0  0  0  0  0  0
  191.3670  177.4770  143.7080 C   0  0  2  0  0  3  0  0  0  0  0  0
  190.6530  179.8490  143.9260 C   0  0  0  0  0  1  0  0  0  0  0  0
  191.7130  178.8260  144.3110 C   0  0  0  0  0  2  0  0  0  0  0  0
  191.7460  176.4050  144.6340 N   0  0  0  0  0  2  0  0  0  0  0  0
  191.7640  176.9380  145.9360 N   0  0  0  0  0  2  0  0  0  0  0  0
  190.7570  176.2340  146.7200 C   0  0  0  0  0  2  0  0  0  0  0  0
  190.1740  177.8370  148.3710 O   0  0  0  0  0  0  0  0  0  0  0  0
  189.8200  177.2310  147.3240 C   0  0  0  0  0  0  0  0  0  0  0  0
  187.5230  178.2070  147.4160 C   0  0  0  0  0  3  0  0  0  0  0  0
  186.0560  178.1810  145.4760 C   0  0  0  0  0  0  0  0  0  0  0  0
  186.2980  178.5180  146.8160 C   0  0  0  0  0  3  0  0  0  0  0  0
  188.5280  177.5560  146.6830 C   0  0  0  0  0  0  0  0  0  0  0  0
  187.0590  177.5250  144.7430 C   0  0  0  0  0  3  0  0  0  0  0  0
  188.2870  177.2150  145.3410 C   0  0  0  0  0  3  0  0  0  0  0  0
  184.7980  178.5120  144.8700 N   0  0  0  0  0  0  0  0  0  0  0  0
  183.8040  179.0270  145.6260 O   0  0  0  0  0  1  0  0  0  0  0  0
  184.5360  178.2150  143.4660 C   0  0  0  0  0  2  0  0  0  0  0  0
  184.5040  179.1920  141.1930 C   0  0  0  0  0  2  0  0  0  0  0  0
  185.9100  178.7290  141.4920 C   0  0  0  0  0  2  0  0  0  0  0  0
  185.0660  179.3370  142.5890 C   0  0  0  0  0  3  0  0  0  0  0  0
  188.9150  178.4420  138.9900 C   0  0  0  0  0  2  0  0  0  0  0  0
  188.5190  178.2480  137.5300 C   0  0  0  0  0  2  0  0  0  0  0  0
  187.3370  178.9420  137.2690 O   0  0  0  0  0  0  0  0  0  0  0  0
  186.3470  178.2840  137.9990 C   0  0  0  0  0  2  0  0  0  0  0  0
  185.8100  177.1220  137.1820 C   0  0  0  0  0  2  0  0  0  0  0  0
  184.3630  177.3760  136.7880 C   0  0  0  0  0  2  0  0  0  0  0  0
  182.8190  175.2960  138.5730 C   0  0  0  0  0  2  0  0  0  0  0  0
  183.5640  177.7800  138.0130 C   0  0  2  0  0  3  0  0  0  0  0  0
  182.5040  176.7550  138.3230 C   0  0  0  0  0  0  0  0  0  0  0  0
  181.3280  178.5910  137.3650 C   0  0  1  0  0  3  0  0  0  0  0  0
  182.7530  179.0340  137.7230 C   0  0  0  0  0  2  0  0  0  0  0  0
  181.1120  177.2310  138.0150 C   0  0  0  0  0  2  0  0  0  0  0  0
  182.6140  176.2400  139.7440 C   0  0  0  0  0  2  0  0  0  0  0  0
  180.8140  181.0180  137.7050 C   0  0  0  0  0  2  0  0  0  0  0  0
  180.3030  180.7500  139.8380 C   0  0  0  0  0  2  0  0  0  0  0  0
  180.0470  179.4300  139.2680 N   0  0  0  0  0  2  0  0  0  0  0  0
  181.1640  181.4590  138.9870 O   0  0  0  0  0  0  0  0  0  0  0  0
  180.2900  179.6030  137.8490 C   0  0  2  0  0  3  0  0  0  0  0  0
  1  8  1  1  0  0  0
  1  6  1  0  0  0  0
  1  5  1  0  0  0  0
  2  3  1  0  0  0  0
  3  4  1  0  0  0  0
  4 12  1  0  0  0  0
  5  3  2  0  0  0  0
  6 32  1  6  0  0  0
  6  2  1  0  0  0  0
  7  8  2  0  0  0  0
  9 10  1  0  0  0  0
  9  7  1  0  0  0  0
 11 10  1  0  0  0  0
 12 14  1  1  0  0  0
 12 15  1  0  0  0  0
 13 14  1  0  0  0  0
 15 16  1  0  0  0  0
 16 17  1  0  0  0  0
 17 19  1  0  0  0  0
 19 18  2  0  0  0  0
 21 22  2  0  0  0  0
 22 20  1  0  0  0  0
 23 19  1  0  0  0  0
 23 20  2  0  0  0  0
 24 25  2  0  0  0  0
 24 21  1  0  0  0  0
 25 23  1  0  0  0  0
 26 21  1  0  0  0  0
 26 27  1  0  0  0  0
 28 26  1  0  0  0  0
 29 30  1  0  0  0  0
 29 31  1  0  0  0  0
 30 31  1  0  0  0  0
 31 28  1  0  0  0  0
 33 32  1  0  0  0  0
 34 33  1  0  0  0  0
 34 35  1  0  0  0  0
 36 35  1  0  0  0  0
 37 36  1  0  0  0  0
 38 44  1  0  0  0  0
 39 37  1  6  0  0  0
 39 40  1  0  0  0  0
 40 38  1  0  0  0  0
 40 44  1  0  0  0  0
 41 42  1  1  0  0  0
 41 49  1  0  0  0  0
 41 43  1  0  0  0  0
 42 39  1  0  0  0  0
 43 40  1  0  0  0  0
 45 48  1  0  0  0  0
 47 46  1  0  0  0  0
 48 46  1  0  0  0  0
 49 45  1  1  0  0  0
 49 47  1  0  0  0  0
M  END
>  <MODEL>
1

>  <REMARK>
 VINA RESULT:      -7.4      0.000      0.000
  Name = 
  21 active torsions:
  status: ('A' for Active; 'I' for Inactive)
    1  A    between atoms: C_1  and  N_9
    2  A    between atoms: C_1  and  C_35
    3  A    between atoms: C_4  and  O_23
    4  A    between atoms: C_4  and  C_31
    5  A    between atoms: C_7  and  C_38
    6  A    between atoms: C_8  and  C_12
    7  A    between atoms: N_9  and  N_24
    8  A    between atoms: C_11  and  N_13
    9  A    between atoms: N_13  and  C_33
   10  A    between atoms: C_16  and  C_21
   11  A    between atoms: C_17  and  C_35
   12  A    between atoms: C_20  and  C_21
   13  A    between atoms: C_20  and  C_22
   14  A    between atoms: C_22  and  O_23
   15  A    between atoms: N_24  and  C_48
   16  A    between atoms: C_25  and  C_47
   17  A    between atoms: N_29  and  C_48
   18  A    between atoms: C_31  and  C_45
   19  A    between atoms: C_33  and  C_41
   20  A    between atoms: N_36  and  C_38
   21  A    between atoms: C_46  and  C_48
                            x       y       z     vdW  Elec       q    Type
                         _______ _______ _______ _____ _____    ______ ____

>  <TORSDO>
F 21

$$$$
=
 OpenBabel10222419223D

 49 54  0  0  1  0  0  0  0  0999 V2000
  190.8690  176.9680  138.9650 C   0  0  2  0  0  3  0  0  0  0  0  0
  189.7490  177.0640  141.1320 C   0  0  0  0  0  2  0  0  0  0  0  0
  191.2210  177.2580  141.1860 C   0  0  0  0  0  0  0  0  0  0  0  0
  191.9530  177.4710  142.3980 N   0  0  0  0  0  2  0  0  0  0  0  0
  191.8150  177.2200  140.0440 N   0  0  0  0  0  0  0  0  0  0  0  0
  189.4890  176.8950  139.6350 C   0  0  1  0  0  3  0  0  0  0  0  0
  190.3000  175.0540  137.4850 C   0  0  0  0  0  3  0  0  0  0  0  0
  191.1920  175.6750  138.2620 C   0  0  0  0  0  3  0  0  0  0  0  0
  190.6440  173.7830  136.7780 C   0  0  0  0  0  2  0  0  0  0  0  0
  190.5850  173.9820  135.3360 N   0  0  0  0  0  2  0  0  0  0  0  0
  189.8100  172.8780  134.7950 C   0  0  0  0  0  1  0  0  0  0  0  0
  191.2960  177.4520  143.7010 C   0  0  2  0  0  3  0  0  0  0  0  0
  190.8660  179.8960  143.8450 C   0  0  0  0  0  1  0  0  0  0  0  0
  191.6160  178.7240  144.4630 C   0  0  0  0  0  2  0  0  0  0  0  0
  191.7250  176.2830  144.4770 N   0  0  0  0  0  2  0  0  0  0  0  0
  191.7300  176.6410  145.8380 N   0  0  0  0  0  2  0  0  0  0  0  0
  190.5790  176.0070  146.4690 C   0  0  0  0  0  2  0  0  0  0  0  0
  190.2020  177.5620  148.2220 O   0  0  0  0  0  0  0  0  0  0  0  0
  189.7600  177.0520  147.1580 C   0  0  0  0  0  0  0  0  0  0  0  0
  187.5590  178.2080  147.3900 C   0  0  0  0  0  3  0  0  0  0  0  0
  186.0480  178.4480  145.4990 C   0  0  0  0  0  0  0  0  0  0  0  0
  186.3500  178.6640  146.8510 C   0  0  0  0  0  3  0  0  0  0  0  0
  188.4850  177.5300  146.5820 C   0  0  0  0  0  0  0  0  0  0  0  0
  186.9720  177.7650  144.6910 C   0  0  0  0  0  3  0  0  0  0  0  0
  188.1820  177.3100  145.2270 C   0  0  0  0  0  3  0  0  0  0  0  0
  184.8080  178.9270  144.9570 N   0  0  0  0  0  0  0  0  0  0  0  0
  183.6680  178.7930  145.6700 O   0  0  0  0  0  1  0  0  0  0  0  0
  184.7360  179.4740  143.6070 C   0  0  0  0  0  2  0  0  0  0  0  0
  185.6720  178.7650  141.4290 C   0  0  0  0  0  2  0  0  0  0  0  0
  184.1690  178.8450  141.2980 C   0  0  0  0  0  2  0  0  0  0  0  0
  184.7900  178.3510  142.5860 C   0  0  0  0  0  3  0  0  0  0  0  0
  188.5390  177.9630  139.0810 C   0  0  0  0  0  2  0  0  0  0  0  0
  189.2470  179.0070  138.2230 C   0  0  0  0  0  2  0  0  0  0  0  0
  188.8430  178.8750  136.8940 O   0  0  0  0  0  0  0  0  0  0  0  0
  187.6620  178.1340  136.9340 C   0  0  0  0  0  2  0  0  0  0  0  0
  187.0320  178.1200  135.5530 C   0  0  0  0  0  2  0  0  0  0  0  0
  185.7010  177.3840  135.5840 C   0  0  0  0  0  2  0  0  0  0  0  0
  186.6360  174.3820  135.6920 C   0  0  0  0  0  2  0  0  0  0  0  0
  185.6150  176.5420  136.8440 C   0  0  2  0  0  3  0  0  0  0  0  0
  185.5650  175.0750  136.5050 C   0  0  0  0  0  0  0  0  0  0  0  0
  183.3380  175.6420  137.1320 C   0  0  1  0  0  3  0  0  0  0  0  0
  184.2840  176.7770  137.5430 C   0  0  0  0  0  2  0  0  0  0  0  0
  184.2130  174.4590  136.7360 C   0  0  0  0  0  2  0  0  0  0  0  0
  186.6580  174.2950  137.2080 C   0  0  0  0  0  2  0  0  0  0  0  0
  180.9570  175.6140  137.9090 C   0  0  0  0  0  2  0  0  0  0  0  0
  181.4140  176.6900  139.7830 C   0  0  0  0  0  2  0  0  0  0  0  0
  182.6850  176.0530  139.4510 N   0  0  0  0  0  2  0  0  0  0  0  0
  180.6220  176.7670  138.6280 O   0  0  0  0  0  0  0  0  0  0  0  0
  182.3880  175.2660  138.2690 C   0  0  2  0  0  3  0  0  0  0  0  0
  1  8  1  1  0  0  0
  1  6  1  0  0  0  0
  1  5  1  0  0  0  0
  2  3  1  0  0  0  0
  3  4  1  0  0  0  0
  4 12  1  0  0  0  0
  5  3  2  0  0  0  0
  6 32  1  6  0  0  0
  6  2  1  0  0  0  0
  7  8  2  0  0  0  0
  9  7  1  0  0  0  0
 10  9  1  0  0  0  0
 11 10  1  0  0  0  0
 12 14  1  1  0  0  0
 12 15  1  0  0  0  0
 13 14  1  0  0  0  0
 15 16  1  0  0  0  0
 16 17  1  0  0  0  0
 17 19  1  0  0  0  0
 19 18  2  0  0  0  0
 21 22  2  0  0  0  0
 22 20  1  0  0  0  0
 23 19  1  0  0  0  0
 23 20  2  0  0  0  0
 24 25  2  0  0  0  0
 24 21  1  0  0  0  0
 25 23  1  0  0  0  0
 26 21  1  0  0  0  0
 26 27  1  0  0  0  0
 28 26  1  0  0  0  0
 29 31  1  0  0  0  0
 30 29  1  0  0  0  0
 30 31  1  0  0  0  0
 31 28  1  0  0  0  0
 33 32  1  0  0  0  0
 34 35  1  0  0  0  0
 34 33  1  0  0  0  0
 36 37  1  0  0  0  0
 36 35  1  0  0  0  0
 38 40  1  0  0  0  0
 38 44  1  0  0  0  0
 39 37  1  6  0  0  0
 39 42  1  0  0  0  0
 40 43  1  0  0  0  0
 40 39  1  0  0  0  0
 40 44  1  0  0  0  0
 41 43  1  1  0  0  0
 41 42  1  0  0  0  0
 41 49  1  0  0  0  0
 45 48  1  0  0  0  0
 47 46  1  0  0  0  0
 48 46  1  0  0  0  0
 49 45  1  6  0  0  0
 49 47  1  0  0  0  0
M  END
>  <MODEL>
2

>  <REMARK>
 VINA RESULT:      -7.2      1.697      2.321
  Name = 
  21 active torsions:
  status: ('A' for Active; 'I' for Inactive)
    1  A    between atoms: C_1  and  N_9
    2  A    between atoms: C_1  and  C_35
    3  A    between atoms: C_4  and  O_23
    4  A    between atoms: C_4  and  C_31
    5  A    between atoms: C_7  and  C_38
    6  A    between atoms: C_8  and  C_12
    7  A    between atoms: N_9  and  N_24
    8  A    between atoms: C_11  and  N_13
    9  A    between atoms: N_13  and  C_33
   10  A    between atoms: C_16  and  C_21
   11  A    between atoms: C_17  and  C_35
   12  A    between atoms: C_20  and  C_21
   13  A    between atoms: C_20  and  C_22
   14  A    between atoms: C_22  and  O_23
   15  A    between atoms: N_24  and  C_48
   16  A    between atoms: C_25  and  C_47
   17  A    between atoms: N_29  and  C_48
   18  A    between atoms: C_31  and  C_45
   19  A    between atoms: C_33  and  C_41
   20  A    between atoms: N_36  and  C_38
   21  A    between atoms: C_46  and  C_48
                            x       y       z     vdW  Elec       q    Type
                         _______ _______ _______ _____ _____    ______ ____

>  <TORSDO>
F 21

$$$$
=
 OpenBabel10222419223D

 49 54  0  0  1  0  0  0  0  0999 V2000
  191.1860  177.2820  139.1520 C   0  0  2  0  0  3  0  0  0  0  0  0
  189.9890  176.7790  141.2200 C   0  0  0  0  0  2  0  0  0  0  0  0
  191.3370  177.3740  141.4130 C   0  0  0  0  0  0  0  0  0  0  0  0
  191.9190  177.6300  142.6950 N   0  0  0  0  0  2  0  0  0  0  0  0
  191.9680  177.6520  140.3240 N   0  0  0  0  0  0  0  0  0  0  0  0
  189.8580  176.7360  139.6970 C   0  0  1  0  0  3  0  0  0  0  0  0
  193.1980  176.3510  138.0270 C   0  0  0  0  0  3  0  0  0  0  0  0
  191.9030  176.2350  138.3410 C   0  0  0  0  0  3  0  0  0  0  0  0
  193.9000  175.2920  137.2400 C   0  0  0  0  0  2  0  0  0  0  0  0
  194.2060  175.7850  135.9040 N   0  0  0  0  0  2  0  0  0  0  0  0
  194.9100  174.7160  135.2170 C   0  0  0  0  0  1  0  0  0  0  0  0
  191.2380  177.2580  143.9310 C   0  0  2  0  0  3  0  0  0  0  0  0
  192.0810  175.4660  145.4340 C   0  0  0  0  0  1  0  0  0  0  0  0
  191.3280  175.7580  144.1430 C   0  0  0  0  0  2  0  0  0  0  0  0
  189.8320  177.6730  143.8900 N   0  0  0  0  0  2  0  0  0  0  0  0
  189.4860  178.1700  145.1590 N   0  0  0  0  0  2  0  0  0  0  0  0
  188.5820  177.2120  145.7820 C   0  0  0  0  0  2  0  0  0  0  0  0
  187.1790  178.3480  147.3230 O   0  0  0  0  0  0  0  0  0  0  0  0
  187.3090  177.9040  146.1500 C   0  0  0  0  0  0  0  0  0  0  0  0
  185.0230  178.7050  145.5440 C   0  0  0  0  0  3  0  0  0  0  0  0
  184.1900  178.5540  143.2640 C   0  0  0  0  0  0  0  0  0  0  0  0
  184.0060  178.9180  144.6060 C   0  0  0  0  0  3  0  0  0  0  0  0
  186.2400  178.1250  145.1530 C   0  0  0  0  0  0  0  0  0  0  0  0
  185.4060  177.9700  142.8730 C   0  0  0  0  0  3  0  0  0  0  0  0
  186.4240  177.7580  143.8100 C   0  0  0  0  0  3  0  0  0  0  0  0
  183.1420  178.7840  142.3100 N   0  0  0  0  0  0  0  0  0  0  0  0
  181.8590  178.8530  142.7260 O   0  0  0  0  0  1  0  0  0  0  0  0
  183.4260  178.8540  140.8810 C   0  0  0  0  0  2  0  0  0  0  0  0
  183.1980  177.6980  138.7050 C   0  0  0  0  0  2  0  0  0  0  0  0
  181.8160  177.9390  139.2630 C   0  0  0  0  0  2  0  0  0  0  0  0
  182.9540  177.5840  140.1930 C   0  0  0  0  0  3  0  0  0  0  0  0
  188.6640  177.5520  139.1880 C   0  0  0  0  0  2  0  0  0  0  0  0
  189.0730  178.8690  138.5380 C   0  0  0  0  0  2  0  0  0  0  0  0
  188.8390  178.8060  137.1630 O   0  0  0  0  0  0  0  0  0  0  0  0
  187.6050  178.1730  137.0230 C   0  0  0  0  0  2  0  0  0  0  0  0
  187.3070  177.9770  135.5460 C   0  0  0  0  0  2  0  0  0  0  0  0
  186.3630  176.8010  135.3470 C   0  0  0  0  0  2  0  0  0  0  0  0
  188.6120  174.6010  135.3390 C   0  0  0  0  0  2  0  0  0  0  0  0
  186.5420  175.8070  136.4790 C   0  0  2  0  0  3  0  0  0  0  0  0
  187.2490  174.5680  135.9960 C   0  0  0  0  0  0  0  0  0  0  0  0
  184.9680  173.9240  136.2390 C   0  0  1  0  0  3  0  0  0  0  0  0
  185.1900  175.2760  136.9310 C   0  0  0  0  0  2  0  0  0  0  0  0
  186.3460  173.3690  135.9040 C   0  0  0  0  0  2  0  0  0  0  0  0
  188.4880  174.2680  136.8160 C   0  0  0  0  0  2  0  0  0  0  0  0
  184.2560  171.5480  136.5800 C   0  0  0  0  0  2  0  0  0  0  0  0
  182.1130  172.0690  136.7200 C   0  0  0  0  0  2  0  0  0  0  0  0
  182.7790  173.3020  137.1290 N   0  0  0  0  0  2  0  0  0  0  0  0
  183.0140  171.2780  135.9920 O   0  0  0  0  0  0  0  0  0  0  0  0
  184.1890  172.9590  137.1310 C   0  0  2  0  0  3  0  0  0  0  0  0
  1  8  1  1  0  0  0
  1  6  1  0  0  0  0
  1  5  1  0  0  0  0
  2  3  1  0  0  0  0
  3  4  1  0  0  0  0
  4 12  1  0  0  0  0
  5  3  2  0  0  0  0
  6 32  1  1  0  0  0
  6  2  1  0  0  0  0
  7  8  2  0  0  0  0
  9  7  1  0  0  0  0
 10  9  1  0  0  0  0
 11 10  1  0  0  0  0
 12 14  1  6  0  0  0
 14 13  1  0  0  0  0
 15 12  1  0  0  0  0
 15 16  1  0  0  0  0
 16 17  1  0  0  0  0
 17 19  1  0  0  0  0
 19 18  2  0  0  0  0
 21 22  1  0  0  0  0
 22 20  2  0  0  0  0
 23 20  1  0  0  0  0
 23 19  1  0  0  0  0
 24 21  2  0  0  0  0
 24 25  1  0  0  0  0
 25 23  2  0  0  0  0
 26 27  1  0  0  0  0
 26 21  1  0  0  0  0
 28 26  1  0  0  0  0
 29 30  1  0  0  0  0
 29 31  1  0  0  0  0
 30 31  1  0  0  0  0
 31 28  1  0  0  0  0
 33 32  1  0  0  0  0
 34 33  1  0  0  0  0
 35 34  1  0  0  0  0
 36 35  1  0  0  0  0
 37 36  1  0  0  0  0
 38 40  1  0  0  0  0
 38 44  1  0  0  0  0
 39 37  1  6  0  0  0
 39 42  1  0  0  0  0
 40 39  1  0  0  0  0
 40 44  1  0  0  0  0
 41 43  1  1  0  0  0
 41 42  1  0  0  0  0
 41 49  1  0  0  0  0
 43 40  1  0  0  0  0
 46 47  1  0  0  0  0
 47 49  1  0  0  0  0
 48 45  1  0  0  0  0
 48 46  1  0  0  0  0
 49 45  1  6  0  0  0
M  END
>  <MODEL>
3

>  <REMARK>
 VINA RESULT:      -6.1      2.595      4.511
  Name = 
  21 active torsions:
  status: ('A' for Active; 'I' for Inactive)
    1  A    between atoms: C_1  and  N_9
    2  A    between atoms: C_1  and  C_35
    3  A    between atoms: C_4  and  O_23
    4  A    between atoms: C_4  and  C_31
    5  A    between atoms: C_7  and  C_38
    6  A    between atoms: C_8  and  C_12
    7  A    between atoms: N_9  and  N_24
    8  A    between atoms: C_11  and  N_13
    9  A    between atoms: N_13  and  C_33
   10  A    between atoms: C_16  and  C_21
   11  A    between atoms: C_17  and  C_35
   12  A    between atoms: C_20  and  C_21
   13  A    between atoms: C_20  and  C_22
   14  A    between atoms: C_22  and  O_23
   15  A    between atoms: N_24  and  C_48
   16  A    between atoms: C_25  and  C_47
   17  A    between atoms: N_29  and  C_48
   18  A    between atoms: C_31  and  C_45
   19  A    between atoms: C_33  and  C_41
   20  A    between atoms: N_36  and  C_38
   21  A    between atoms: C_46  and  C_48
                            x       y       z     vdW  Elec       q    Type
                         _______ _______ _______ _____ _____    ______ ____

>  <TORSDO>
F 21

$$$$
=
 OpenBabel10222419223D

 49 54  0  0  1  0  0  0  0  0999 V2000
  187.8480  176.8870  137.1250 C   0  0  2  0  0  3  0  0  0  0  0  0
  185.7890  175.6320  136.7440 C   0  0  0  0  0  2  0  0  0  0  0  0
  185.5870  177.0240  137.2220 C   0  0  0  0  0  0  0  0  0  0  0  0
  184.3020  177.6060  137.4640 N   0  0  0  0  0  2  0  0  0  0  0  0
  186.6710  177.6950  137.4130 N   0  0  0  0  0  0  0  0  0  0  0  0
  187.3110  175.5300  136.6440 C   0  0  1  0  0  3  0  0  0  0  0  0
  190.0240  176.5770  138.2860 C   0  0  0  0  0  3  0  0  0  0  0  0
  188.6970  176.7200  138.3580 C   0  0  0  0  0  3  0  0  0  0  0  0
  190.8550  176.4350  139.5200 C   0  0  0  0  0  2  0  0  0  0  0  0
  190.3860  177.3560  140.5460 N   0  0  0  0  0  2  0  0  0  0  0  0
  191.5150  177.6080  141.4250 C   0  0  0  0  0  1  0  0  0  0  0  0
  183.0730  176.8340  137.3110 C   0  0  2  0  0  3  0  0  0  0  0  0
  181.4310  178.5500  136.5770 C   0  0  0  0  0  1  0  0  0  0  0  0
  182.2710  177.3600  136.1350 C   0  0  0  0  0  2  0  0  0  0  0  0
  182.2660  176.9010  138.5350 N   0  0  0  0  0  2  0  0  0  0  0  0
  183.1430  177.0010  139.6300 N   0  0  0  0  0  2  0  0  0  0  0  0
  182.8120  178.2200  140.3580 C   0  0  0  0  0  2  0  0  0  0  0  0
  184.7100  179.6010  140.0040 O   0  0  0  0  0  0  0  0  0  0  0  0
  184.0750  178.8760  140.8170 C   0  0  0  0  0  0  0  0  0  0  0  0
  185.8460  178.2690  142.4690 C   0  0  0  0  0  3  0  0  0  0  0  0
  185.4680  178.4670  144.8630 C   0  0  0  0  0  0  0  0  0  0  0  0
  186.3020  178.1360  143.7850 C   0  0  0  0  0  3  0  0  0  0  0  0
  184.5480  178.7380  142.2100 C   0  0  0  0  0  0  0  0  0  0  0  0
  184.1670  178.9310  144.6060 C   0  0  0  0  0  3  0  0  0  0  0  0
  183.7110  179.0670  143.2890 C   0  0  0  0  0  3  0  0  0  0  0  0
  185.9500  178.3320  146.2090 N   0  0  0  0  0  0  0  0  0  0  0  0
  185.5300  179.1940  147.1600 O   0  0  0  0  0  1  0  0  0  0  0  0
  186.9580  177.3360  146.5520 C   0  0  0  0  0  2  0  0  0  0  0  0
  189.1780  177.0400  147.6050 C   0  0  0  0  0  2  0  0  0  0  0  0
  188.4060  178.0650  148.4020 C   0  0  0  0  0  2  0  0  0  0  0  0
  188.2700  178.0200  146.8960 C   0  0  0  0  0  3  0  0  0  0  0  0
  187.7850  175.2100  135.2220 C   0  0  0  0  0  2  0  0  0  0  0  0
  188.9490  176.0850  134.7680 C   0  0  0  0  0  2  0  0  0  0  0  0
  190.1560  175.4570  135.0740 O   0  0  0  0  0  0  0  0  0  0  0  0
  189.8630  174.0950  135.1410 C   0  0  0  0  0  2  0  0  0  0  0  0
  190.8160  173.4240  136.1140 C   0  0  0  0  0  2  0  0  0  0  0  0
  192.2430  173.4920  135.5900 C   0  0  0  0  0  2  0  0  0  0  0  0
  193.8760  176.0110  134.6490 C   0  0  0  0  0  2  0  0  0  0  0  0
  193.0940  174.3190  136.5360 C   0  0  2  0  0  3  0  0  0  0  0  0
  194.1720  175.0530  135.7830 C   0  0  0  0  0  0  0  0  0  0  0  0
  195.2940  173.2590  136.8760 C   0  0  1  0  0  3  0  0  0  0  0  0
  193.8850  173.4080  137.4640 C   0  0  0  0  0  2  0  0  0  0  0  0
  195.5460  174.4910  136.0170 C   0  0  0  0  0  2  0  0  0  0  0  0
  194.1290  176.5450  136.0480 C   0  0  0  0  0  2  0  0  0  0  0  0
  196.1060  174.1510  139.0700 C   0  0  0  0  0  2  0  0  0  0  0  0
  198.1550  174.5040  138.3220 C   0  0  0  0  0  2  0  0  0  0  0  0
  197.6630  173.4440  137.4470 N   0  0  0  0  0  2  0  0  0  0  0  0
  197.0630  175.1600  138.9100 O   0  0  0  0  0  0  0  0  0  0  0  0
  196.3480  173.1310  137.9750 C   0  0  2  0  0  3  0  0  0  0  0  0
  1  5  1  0  0  0  0
  1  8  1  1  0  0  0
  2  3  1  0  0  0  0
  3  5  2  0  0  0  0
  3  4  1  0  0  0  0
  6 32  1  6  0  0  0
  6  2  1  0  0  0  0
  6  1  1  0  0  0  0
  7  8  2  0  0  0  0
  7  9  1  0  0  0  0
  9 10  1  0  0  0  0
 10 11  1  0  0  0  0
 12 14  1  6  0  0  0
 12  4  1  0  0  0  0
 12 15  1  0  0  0  0
 14 13  1  0  0  0  0
 15 16  1  0  0  0  0
 16 17  1  0  0  0  0
 17 19  1  0  0  0  0
 18 19  2  0  0  0  0
 19 23  1  0  0  0  0
 20 22  1  0  0  0  0
 21 26  1  0  0  0  0
 22 21  2  0  0  0  0
 23 20  2  0  0  0  0
 23 25  1  0  0  0  0
 24 21  1  0  0  0  0
 25 24  2  0  0  0  0
 26 28  1  0  0  0  0
 26 27  1  0  0  0  0
 28 31  1  0  0  0  0
 29 30  1  0  0  0  0
 31 29  1  0  0  0  0
 31 30  1  0  0  0  0
 33 34  1  0  0  0  0
 33 32  1  0  0  0  0
 34 35  1  0  0  0  0
 35 36  1  0  0  0  0
 37 36  1  0  0  0  0
 38 40  1  0  0  0  0
 38 44  1  0  0  0  0
 39 37  1  6  0  0  0
 39 42  1  0  0  0  0
 40 43  1  0  0  0  0
 40 44  1  0  0  0  0
 40 39  1  0  0  0  0
 41 43  1  1  0  0  0
 41 42  1  0  0  0  0
 41 49  1  0  0  0  0
 46 48  1  0  0  0  0
 47 49  1  0  0  0  0
 47 46  1  0  0  0  0
 48 45  1  0  0  0  0
 49 45  1  1  0  0  0
M  END
>  <MODEL>
4

>  <REMARK>
 VINA RESULT:      -6.1      3.490      9.594
  Name = 
  21 active torsions:
  status: ('A' for Active; 'I' for Inactive)
    1  A    between atoms: C_1  and  N_9
    2  A    between atoms: C_1  and  C_35
    3  A    between atoms: C_4  and  O_23
    4  A    between atoms: C_4  and  C_31
    5  A    between atoms: C_7  and  C_38
    6  A    between atoms: C_8  and  C_12
    7  A    between atoms: N_9  and  N_24
    8  A    between atoms: C_11  and  N_13
    9  A    between atoms: N_13  and  C_33
   10  A    between atoms: C_16  and  C_21
   11  A    between atoms: C_17  and  C_35
   12  A    between atoms: C_20  and  C_21
   13  A    between atoms: C_20  and  C_22
   14  A    between atoms: C_22  and  O_23
   15  A    between atoms: N_24  and  C_48
   16  A    between atoms: C_25  and  C_47
   17  A    between atoms: N_29  and  C_48
   18  A    between atoms: C_31  and  C_45
   19  A    between atoms: C_33  and  C_41
   20  A    between atoms: N_36  and  C_38
   21  A    between atoms: C_46  and  C_48
                            x       y       z     vdW  Elec       q    Type
                         _______ _______ _______ _____ _____    ______ ____

>  <TORSDO>
F 21

$$$$
=
 OpenBabel10222419223D

 49 54  0  0  1  0  0  0  0  0999 V2000
  182.9290  178.3840  141.0060 C   0  0  2  0  0  3  0  0  0  0  0  0
  183.6240  179.4030  138.8990 C   0  0  0  0  0  2  0  0  0  0  0  0
  184.2100  178.0640  139.1630 C   0  0  0  0  0  0  0  0  0  0  0  0
  185.1230  177.4040  138.2790 N   0  0  0  0  0  2  0  0  0  0  0  0
  183.8370  177.5160  140.2680 N   0  0  0  0  0  0  0  0  0  0  0  0
  182.7320  179.6240  140.1210 C   0  0  1  0  0  3  0  0  0  0  0  0
  182.7900  178.7600  143.4590 C   0  0  0  0  0  3  0  0  0  0  0  0
  183.5190  178.7650  142.3380 C   0  0  0  0  0  3  0  0  0  0  0  0
  183.3970  179.1200  144.7770 C   0  0  0  0  0  2  0  0  0  0  0  0
  184.8420  179.2410  144.6440 N   0  0  0  0  0  2  0  0  0  0  0  0
  185.4240  178.4870  145.7420 C   0  0  0  0  0  1  0  0  0  0  0  0
  185.6000  178.0450  137.0570 C   0  0  2  0  0  3  0  0  0  0  0  0
  186.4160  176.4240  135.3560 C   0  0  0  0  0  1  0  0  0  0  0  0
  185.2100  177.2140  135.8490 C   0  0  0  0  0  2  0  0  0  0  0  0
  187.0570  178.2120  137.0980 N   0  0  0  0  0  2  0  0  0  0  0  0
  187.4530  178.2580  138.4470 N   0  0  0  0  0  2  0  0  0  0  0  0
  188.2220  177.0520  138.7270 C   0  0  0  0  0  2  0  0  0  0  0  0
  190.4550  177.8510  138.6420 O   0  0  0  0  0  0  0  0  0  0  0  0
  189.5160  177.4340  139.3720 C   0  0  0  0  0  0  0  0  0  0  0  0
  190.9730  177.3840  141.3990 C   0  0  0  0  0  3  0  0  0  0  0  0
  190.0270  177.2930  143.6380 C   0  0  0  0  0  0  0  0  0  0  0  0
  191.1410  177.3390  142.7880 C   0  0  0  0  0  3  0  0  0  0  0  0
  189.6850  177.3860  140.8400 C   0  0  0  0  0  0  0  0  0  0  0  0
  188.7380  177.2890  143.0790 C   0  0  0  0  0  3  0  0  0  0  0  0
  188.5680  177.3360  141.6900 C   0  0  0  0  0  3  0  0  0  0  0  0
  190.2120  177.2540  145.0610 N   0  0  0  0  0  0  0  0  0  0  0  0
  191.3090  176.6580  145.5780 O   0  0  0  0  0  1  0  0  0  0  0  0
  189.1920  177.7660  145.9690 C   0  0  0  0  0  2  0  0  0  0  0  0
  188.0420  177.2860  148.1070 C   0  0  0  0  0  2  0  0  0  0  0  0
  189.2270  178.1790  148.3930 C   0  0  0  0  0  2  0  0  0  0  0  0
  189.3280  177.1070  147.3310 C   0  0  0  0  0  3  0  0  0  0  0  0
  181.2590  179.8170  139.7440 C   0  0  0  0  0  2  0  0  0  0  0  0
  181.0500  180.8870  138.6780 C   0  0  0  0  0  2  0  0  0  0  0  0
  180.1330  180.4310  137.7290 O   0  0  0  0  0  0  0  0  0  0  0  0
  180.8570  180.2940  136.5450 C   0  0  0  0  0  2  0  0  0  0  0  0
  180.5460  178.9450  135.9210 C   0  0  0  0  0  2  0  0  0  0  0  0
  181.6050  177.9240  136.3100 C   0  0  0  0  0  2  0  0  0  0  0  0
  180.4500  176.4990  138.8650 C   0  0  0  0  0  2  0  0  0  0  0  0
  181.0070  176.5300  136.2720 C   0  0  2  0  0  3  0  0  0  0  0  0
  181.0710  175.8830  137.6300 C   0  0  0  0  0  0  0  0  0  0  0  0
  182.7810  174.8200  136.3570 C   0  0  1  0  0  3  0  0  0  0  0  0
  181.8650  175.6120  135.4140 C   0  0  0  0  0  2  0  0  0  0  0  0
  182.0890  174.7790  137.7130 C   0  0  0  0  0  2  0  0  0  0  0  0
  179.7070  175.4170  138.1000 C   0  0  0  0  0  2  0  0  0  0  0  0
  182.8320  172.3820  136.9260 C   0  0  0  0  0  2  0  0  0  0  0  0
  184.9030  172.1190  136.2020 C   0  0  0  0  0  2  0  0  0  0  0  0
  184.4310  173.2700  135.4390 N   0  0  0  0  0  2  0  0  0  0  0  0
  184.1020  171.9620  137.3420 O   0  0  0  0  0  0  0  0  0  0  0  0
  183.0410  173.4100  135.8300 C   0  0  2  0  0  3  0  0  0  0  0  0
  1  8  1  1  0  0  0
  2  3  1  0  0  0  0
  2  6  1  0  0  0  0
  3  5  2  0  0  0  0
  4  3  1  0  0  0  0
  5  1  1  0  0  0  0
  6 32  1  6  0  0  0
  6  1  1  0  0  0  0
  7  9  1  0  0  0  0
  8  7  2  0  0  0  0
 10  9  1  0  0  0  0
 10 11  1  0  0  0  0
 12 14  1  6  0  0  0
 12 15  1  0  0  0  0
 12  4  1  0  0  0  0
 13 14  1  0  0  0  0
 15 16  1  0  0  0  0
 16 17  1  0  0  0  0
 17 19  1  0  0  0  0
 18 19  2  0  0  0  0
 19 23  1  0  0  0  0
 20 22  1  0  0  0  0
 21 26  1  0  0  0  0
 22 21  2  0  0  0  0
 23 20  2  0  0  0  0
 23 25  1  0  0  0  0
 24 21  1  0  0  0  0
 25 24  2  0  0  0  0
 26 27  1  0  0  0  0
 26 28  1  0  0  0  0
 28 31  1  0  0  0  0
 29 30  1  0  0  0  0
 31 29  1  0  0  0  0
 31 30  1  0  0  0  0
 33 32  1  0  0  0  0
 34 33  1  0  0  0  0
 35 34  1  0  0  0  0
 36 37  1  0  0  0  0
 36 35  1  0  0  0  0
 39 37  1  1  0  0  0
 39 40  1  0  0  0  0
 40 43  1  0  0  0  0
 40 44  1  0  0  0  0
 40 38  1  0  0  0  0
 41 42  1  6  0  0  0
 41 43  1  0  0  0  0
 42 39  1  0  0  0  0
 44 38  1  0  0  0  0
 45 48  1  0  0  0  0
 46 48  1  0  0  0  0
 47 49  1  0  0  0  0
 47 46  1  0  0  0  0
 49 41  1  0  0  0  0
 49 45  1  1  0  0  0
M  END
>  <MODEL>
5

>  <REMARK>
 VINA RESULT:      -5.9      2.614      7.528
  Name = 
  21 active torsions:
  status: ('A' for Active; 'I' for Inactive)
    1  A    between atoms: C_1  and  N_9
    2  A    between atoms: C_1  and  C_35
    3  A    between atoms: C_4  and  O_23
    4  A    between atoms: C_4  and  C_31
    5  A    between atoms: C_7  and  C_38
    6  A    between atoms: C_8  and  C_12
    7  A    between atoms: N_9  and  N_24
    8  A    between atoms: C_11  and  N_13
    9  A    between atoms: N_13  and  C_33
   10  A    between atoms: C_16  and  C_21
   11  A    between atoms: C_17  and  C_35
   12  A    between atoms: C_20  and  C_21
   13  A    between atoms: C_20  and  C_22
   14  A    between atoms: C_22  and  O_23
   15  A    between atoms: N_24  and  C_48
   16  A    between atoms: C_25  and  C_47
   17  A    between atoms: N_29  and  C_48
   18  A    between atoms: C_31  and  C_45
   19  A    between atoms: C_33  and  C_41
   20  A    between atoms: N_36  and  C_38
   21  A    between atoms: C_46  and  C_48
                            x       y       z     vdW  Elec       q    Type
                         _______ _______ _______ _____ _____    ______ ____

>  <TORSDO>
F 21

$$$$
=
 OpenBabel10222419223D

 49 54  0  0  1  0  0  0  0  0999 V2000
  191.5180  175.8580  138.5180 C   0  0  2  0  0  3  0  0  0  0  0  0
  189.2090  176.3860  137.9260 C   0  0  0  0  0  2  0  0  0  0  0  0
  189.6480  175.0180  137.5490 C   0  0  0  0  0  0  0  0  0  0  0  0
  188.8120  174.0680  136.8790 N   0  0  0  0  0  2  0  0  0  0  0  0
  190.8620  174.7300  137.8700 N   0  0  0  0  0  0  0  0  0  0  0  0
  190.4510  176.9600  138.6080 C   0  0  1  0  0  3  0  0  0  0  0  0
  192.9570  175.8400  136.4910 C   0  0  0  0  0  3  0  0  0  0  0  0
  192.7010  176.3240  137.7100 C   0  0  0  0  0  3  0  0  0  0  0  0
  194.1230  176.3290  135.6940 C   0  0  0  0  0  2  0  0  0  0  0  0
  194.9490  175.2040  135.2780 N   0  0  0  0  0  2  0  0  0  0  0  0
  195.9280  174.9940  136.3310 C   0  0  0  0  0  1  0  0  0  0  0  0
  187.4570  174.4080  136.4560 C   0  0  2  0  0  3  0  0  0  0  0  0
  185.7540  172.8590  135.5170 C   0  0  0  0  0  1  0  0  0  0  0  0
  187.0680  173.5790  135.2460 C   0  0  0  0  0  2  0  0  0  0  0  0
  187.3610  175.8360  136.1340 N   0  0  0  0  0  2  0  0  0  0  0  0
  186.0880  176.2870  136.5260 N   0  0  0  0  0  2  0  0  0  0  0  0
  186.1070  177.7440  136.5140 C   0  0  0  0  0  2  0  0  0  0  0  0
  186.6780  178.6090  138.6490 O   0  0  0  0  0  0  0  0  0  0  0  0
  185.7500  178.2510  137.8750 C   0  0  0  0  0  0  0  0  0  0  0  0
  183.9420  179.5030  139.0580 C   0  0  0  0  0  3  0  0  0  0  0  0
  181.6530  178.6810  139.1050 C   0  0  0  0  0  0  0  0  0  0  0  0
  182.6090  179.6450  139.4590 C   0  0  0  0  0  3  0  0  0  0  0  0
  184.3400  178.3940  138.2950 C   0  0  0  0  0  0  0  0  0  0  0  0
  182.0520  177.5680  138.3460 C   0  0  0  0  0  3  0  0  0  0  0  0
  183.3840  177.4260  137.9430 C   0  0  0  0  0  3  0  0  0  0  0  0
  180.2880  178.8420  139.5170 N   0  0  0  0  0  0  0  0  0  0  0  0
  179.4990  179.7410  138.8890 O   0  0  0  0  0  1  0  0  0  0  0  0
  179.7560  178.1170  140.6650 C   0  0  0  0  0  2  0  0  0  0  0  0
  179.8980  178.3700  143.1230 C   0  0  0  0  0  2  0  0  0  0  0  0
  180.4890  179.6040  142.4820 C   0  0  0  0  0  2  0  0  0  0  0  0
  180.7010  178.2480  141.8470 C   0  0  0  0  0  3  0  0  0  0  0  0
  190.1860  177.3670  140.0620 C   0  0  0  0  0  2  0  0  0  0  0  0
  191.4220  177.2600  140.9490 C   0  0  0  0  0  2  0  0  0  0  0  0
  191.1080  177.6740  142.2440 O   0  0  0  0  0  0  0  0  0  0  0  0
  191.6140  176.6840  143.0860 C   0  0  0  0  0  2  0  0  0  0  0  0
  191.2710  177.0270  144.5250 C   0  0  0  0  0  2  0  0  0  0  0  0
  189.8250  176.6620  144.8270 C   0  0  0  0  0  2  0  0  0  0  0  0
  188.6750  176.7360  147.7540 C   0  0  0  0  0  2  0  0  0  0  0  0
  189.1030  177.8700  145.3940 C   0  0  2  0  0  3  0  0  0  0  0  0
  188.1880  177.4660  146.5200 C   0  0  0  0  0  0  0  0  0  0  0  0
  186.7450  177.8890  144.6730 C   0  0  1  0  0  3  0  0  0  0  0  0
  188.1420  178.4410  144.3610 C   0  0  0  0  0  2  0  0  0  0  0  0
  186.7310  177.5330  146.1540 C   0  0  0  0  0  2  0  0  0  0  0  0
  188.4780  178.2420  147.7900 C   0  0  0  0  0  2  0  0  0  0  0  0
  185.1180  179.5470  145.6090 C   0  0  0  0  0  2  0  0  0  0  0  0
  183.3880  178.6300  144.5860 C   0  0  0  0  0  2  0  0  0  0  0  0
  184.5130  178.2420  143.7420 N   0  0  0  0  0  2  0  0  0  0  0  0
  183.8650  178.9750  145.8590 O   0  0  0  0  0  0  0  0  0  0  0  0
  185.6540  178.9070  144.3430 C   0  0  2  0  0  3  0  0  0  0  0  0
  1  8  1  6  0  0  0
  1  6  1  0  0  0  0
  2  6  1  0  0  0  0
  3  5  2  0  0  0  0
  3  2  1  0  0  0  0
  4  3  1  0  0  0  0
  5  1  1  0  0  0  0
  6 32  1  1  0  0  0
  7  8  2  0  0  0  0
  9  7  1  0  0  0  0
 10  9  1  0  0  0  0
 10 11  1  0  0  0  0
 12 14  1  6  0  0  0
 12  4  1  0  0  0  0
 14 13  1  0  0  0  0
 15 12  1  0  0  0  0
 15 16  1  0  0  0  0
 17 16  1  0  0  0  0
 17 19  1  0  0  0  0
 19 23  1  0  0  0  0
 19 18  2  0  0  0  0
 20 22  1  0  0  0  0
 21 22  2  0  0  0  0
 21 26  1  0  0  0  0
 23 20  2  0  0  0  0
 24 21  1  0  0  0  0
 25 23  1  0  0  0  0
 25 24  2  0  0  0  0
 26 28  1  0  0  0  0
 27 26  1  0  0  0  0
 28 31  1  0  0  0  0
 30 29  1  0  0  0  0
 31 30  1  0  0  0  0
 31 29  1  0  0  0  0
 32 33  1  0  0  0  0
 33 34  1  0  0  0  0
 34 35  1  0  0  0  0
 35 36  1  0  0  0  0
 36 37  1  0  0  0  0
 38 44  1  0  0  0  0
 39 37  1  6  0  0  0
 39 40  1  0  0  0  0
 40 38  1  0  0  0  0
 40 44  1  0  0  0  0
 41 42  1  1  0  0  0
 41 43  1  0  0  0  0
 42 39  1  0  0  0  0
 43 40  1  0  0  0  0
 45 48  1  0  0  0  0
 46 48  1  0  0  0  0
 47 49  1  0  0  0  0
 47 46  1  0  0  0  0
 49 41  1  0  0  0  0
 49 45  1  1  0  0  0
M  END
>  <MODEL>
6

>  <REMARK>
 VINA RESULT:      -5.8      2.453      7.930
  Name = 
  21 active torsions:
  status: ('A' for Active; 'I' for Inactive)
    1  A    between atoms: C_1  and  N_9
    2  A    between atoms: C_1  and  C_35
    3  A    between atoms: C_4  and  O_23
    4  A    between atoms: C_4  and  C_31
    5  A    between atoms: C_7  and  C_38
    6  A    between atoms: C_8  and  C_12
    7  A    between atoms: N_9  and  N_24
    8  A    between atoms: C_11  and  N_13
    9  A    between atoms: N_13  and  C_33
   10  A    between atoms: C_16  and  C_21
   11  A    between atoms: C_17  and  C_35
   12  A    between atoms: C_20  and  C_21
   13  A    between atoms: C_20  and  C_22
   14  A    between atoms: C_22  and  O_23
   15  A    between atoms: N_24  and  C_48
   16  A    between atoms: C_25  and  C_47
   17  A    between atoms: N_29  and  C_48
   18  A    between atoms: C_31  and  C_45
   19  A    between atoms: C_33  and  C_41
   20  A    between atoms: N_36  and  C_38
   21  A    between atoms: C_46  and  C_48
                            x       y       z     vdW  Elec       q    Type
                         _______ _______ _______ _____ _____    ______ ____

>  <TORSDO>
F 21

$$$$
=
 OpenBabel10222419223D

 49 54  0  0  1  0  0  0  0  0999 V2000
  184.8570  177.4890  138.6460 C   0  0  2  0  0  3  0  0  0  0  0  0
  182.5300  178.2040  138.8370 C   0  0  0  0  0  2  0  0  0  0  0  0
  182.7120  176.7610  138.5340 C   0  0  0  0  0  0  0  0  0  0  0  0
  181.6300  175.8430  138.3480 N   0  0  0  0  0  2  0  0  0  0  0  0
  183.9380  176.3760  138.4440 N   0  0  0  0  0  0  0  0  0  0  0  0
  183.9710  178.7070  138.9450 C   0  0  1  0  0  3  0  0  0  0  0  0
  185.4340  177.1020  136.2600 C   0  0  0  0  0  3  0  0  0  0  0  0
  185.6920  177.7230  137.4150 C   0  0  0  0  0  3  0  0  0  0  0  0
  186.2590  177.3610  135.0410 C   0  0  0  0  0  2  0  0  0  0  0  0
  187.2090  178.4340  135.3020 N   0  0  0  0  0  2  0  0  0  0  0  0
  188.5250  177.8200  135.3550 C   0  0  0  0  0  1  0  0  0  0  0  0
  180.2390  176.2840  138.3850 C   0  0  2  0  0  3  0  0  0  0  0  0
  179.4560  176.6570  140.7150 C   0  0  0  0  0  1  0  0  0  0  0  0
  179.5260  175.6570  139.5680 C   0  0  0  0  0  2  0  0  0  0  0  0
  179.5510  175.9230  137.1400 N   0  0  0  0  0  2  0  0  0  0  0  0
  178.9310  174.6750  137.3300 N   0  0  0  0  0  2  0  0  0  0  0  0
  179.3740  173.7900  136.2600 C   0  0  0  0  0  2  0  0  0  0  0  0
  179.7110  171.8660  137.6090 O   0  0  0  0  0  0  0  0  0  0  0  0
  180.2370  172.7140  136.8390 C   0  0  0  0  0  0  0  0  0  0  0  0
  182.3820  171.4360  136.8050 C   0  0  0  0  0  3  0  0  0  0  0  0
  184.3920  172.3600  135.7930 C   0  0  0  0  0  0  0  0  0  0  0  0
  183.7340  171.3190  136.4650 C   0  0  0  0  0  3  0  0  0  0  0  0
  181.6650  172.5980  136.4760 C   0  0  0  0  0  0  0  0  0  0  0  0
  183.6760  173.5250  135.4680 C   0  0  0  0  0  3  0  0  0  0  0  0
  182.3230  173.6430  135.8060 C   0  0  0  0  0  3  0  0  0  0  0  0
  185.7770  172.2250  135.4430 N   0  0  0  0  0  0  0  0  0  0  0  0
  186.2740  171.0080  135.1290 O   0  0  0  0  0  1  0  0  0  0  0  0
  186.6860  173.3630  135.5090 C   0  0  0  0  0  2  0  0  0  0  0  0
  188.2830  174.6080  136.9310 C   0  0  0  0  0  2  0  0  0  0  0  0
  188.7640  173.1810  136.8110 C   0  0  0  0  0  2  0  0  0  0  0  0
  187.2830  173.4740  136.9010 C   0  0  0  0  0  3  0  0  0  0  0  0
  184.2810  179.3030  140.3230 C   0  0  0  0  0  2  0  0  0  0  0  0
  183.8490  178.4030  141.4760 C   0  0  0  0  0  2  0  0  0  0  0  0
  183.8030  179.1430  142.6580 O   0  0  0  0  0  0  0  0  0  0  0  0
  185.0390  178.9460  143.2710 C   0  0  0  0  0  2  0  0  0  0  0  0
  184.8250  178.3250  144.6410 C   0  0  0  0  0  2  0  0  0  0  0  0
  185.9790  178.6770  145.5680 C   0  0  0  0  0  2  0  0  0  0  0  0
  188.0250  178.4180  147.9440 C   0  0  0  0  0  2  0  0  0  0  0  0
  186.8720  177.4650  145.7520 C   0  0  2  0  0  3  0  0  0  0  0  0
  188.0960  177.8200  146.5550 C   0  0  0  0  0  0  0  0  0  0  0  0
  188.8650  177.6260  144.3090 C   0  0  1  0  0  3  0  0  0  0  0  0
  187.4540  177.0320  144.4150 C   0  0  0  0  0  2  0  0  0  0  0  0
  189.3540  177.8570  145.7330 C   0  0  0  0  0  2  0  0  0  0  0  0
  188.2540  176.9270  147.7700 C   0  0  0  0  0  2  0  0  0  0  0  0
  191.2410  177.1830  143.6530 C   0  0  0  0  0  2  0  0  0  0  0  0
  190.7670  177.0780  141.4970 C   0  0  0  0  0  2  0  0  0  0  0  0
  189.5020  176.7210  142.1310 N   0  0  0  0  0  2  0  0  0  0  0  0
  191.5670  177.7650  142.4220 O   0  0  0  0  0  0  0  0  0  0  0  0
  189.8080  176.6960  143.5480 C   0  0  2  0  0  3  0  0  0  0  0  0
  1  8  1  6  0  0  0
  1  6  1  0  0  0  0
  2  6  1  0  0  0  0
  3  2  1  0  0  0  0
  4 12  1  0  0  0  0
  4  3  1  0  0  0  0
  5  3  2  0  0  0  0
  5  1  1  0  0  0  0
  6 32  1  1  0  0  0
  7  8  2  0  0  0  0
  9 10  1  0  0  0  0
  9  7  1  0  0  0  0
 10 11  1  0  0  0  0
 12 14  1  1  0  0  0
 14 13  1  0  0  0  0
 15 16  1  0  0  0  0
 15 12  1  0  0  0  0
 17 19  1  0  0  0  0
 17 16  1  0  0  0  0
 19 18  2  0  0  0  0
 21 22  1  0  0  0  0
 22 20  2  0  0  0  0
 23 20  1  0  0  0  0
 23 19  1  0  0  0  0
 24 21  2  0  0  0  0
 24 25  1  0  0  0  0
 25 23  2  0  0  0  0
 26 28  1  0  0  0  0
 26 21  1  0  0  0  0
 27 26  1  0  0  0  0
 28 31  1  0  0  0  0
 30 31  1  0  0  0  0
 30 29  1  0  0  0  0
 31 29  1  0  0  0  0
 32 33  1  0  0  0  0
 33 34  1  0  0  0  0
 34 35  1  0  0  0  0
 35 36  1  0  0  0  0
 36 37  1  0  0  0  0
 39 37  1  6  0  0  0
 39 40  1  0  0  0  0
 40 44  1  0  0  0  0
 40 38  1  0  0  0  0
 41 42  1  1  0  0  0
 41 43  1  0  0  0  0
 42 39  1  0  0  0  0
 43 40  1  0  0  0  0
 44 38  1  0  0  0  0
 46 47  1  0  0  0  0
 46 48  1  0  0  0  0
 47 49  1  0  0  0  0
 48 45  1  0  0  0  0
 49 45  1  6  0  0  0
 49 41  1  0  0  0  0
M  END
>  <MODEL>
7

>  <REMARK>
 VINA RESULT:      -5.8      3.304     10.426
  Name = 
  21 active torsions:
  status: ('A' for Active; 'I' for Inactive)
    1  A    between atoms: C_1  and  N_9
    2  A    between atoms: C_1  and  C_35
    3  A    between atoms: C_4  and  O_23
    4  A    between atoms: C_4  and  C_31
    5  A    between atoms: C_7  and  C_38
    6  A    between atoms: C_8  and  C_12
    7  A    between atoms: N_9  and  N_24
    8  A    between atoms: C_11  and  N_13
    9  A    between atoms: N_13  and  C_33
   10  A    between atoms: C_16  and  C_21
   11  A    between atoms: C_17  and  C_35
   12  A    between atoms: C_20  and  C_21
   13  A    between atoms: C_20  and  C_22
   14  A    between atoms: C_22  and  O_23
   15  A    between atoms: N_24  and  C_48
   16  A    between atoms: C_25  and  C_47
   17  A    between atoms: N_29  and  C_48
   18  A    between atoms: C_31  and  C_45
   19  A    between atoms: C_33  and  C_41
   20  A    between atoms: N_36  and  C_38
   21  A    between atoms: C_46  and  C_48
                            x       y       z     vdW  Elec       q    Type
                         _______ _______ _______ _____ _____    ______ ____

>  <TORSDO>
F 21

$$$$
=
 OpenBabel10222419223D

 49 54  0  0  1  0  0  0  0  0999 V2000
  186.9100  177.3870  143.9260 C   0  0  2  0  0  3  0  0  0  0  0  0
  187.8930  178.1100  141.8110 C   0  0  0  0  0  2  0  0  0  0  0  0
  188.5550  176.9340  142.4330 C   0  0  0  0  0  0  0  0  0  0  0  0
  189.6890  176.2670  141.8690 N   0  0  0  0  0  2  0  0  0  0  0  0
  188.0330  176.5420  143.5430 N   0  0  0  0  0  0  0  0  0  0  0  0
  186.7600  178.4130  142.7920 C   0  0  1  0  0  3  0  0  0  0  0  0
  186.9840  177.4640  146.4090 C   0  0  0  0  0  3  0  0  0  0  0  0
  187.1830  178.0760  145.2380 C   0  0  0  0  0  3  0  0  0  0  0  0
  187.2790  178.1540  147.7020 C   0  0  0  0  0  2  0  0  0  0  0  0
  188.2750  177.4020  148.4520 N   0  0  0  0  0  2  0  0  0  0  0  0
  189.4390  178.2620  148.5760 C   0  0  0  0  0  1  0  0  0  0  0  0
  190.3260  176.7440  140.6450 C   0  0  2  0  0  3  0  0  0  0  0  0
  191.9890  177.2490  142.4240 C   0  0  0  0  0  1  0  0  0  0  0  0
  191.5780  177.5310  140.9840 C   0  0  0  0  0  2  0  0  0  0  0  0
  189.4010  177.5850  139.8770 N   0  0  0  0  0  2  0  0  0  0  0  0
  189.0990  176.9180  138.6760 N   0  0  0  0  0  2  0  0  0  0  0  0
  189.8680  177.5480  137.6100 C   0  0  0  0  0  2  0  0  0  0  0  0
  189.6780  176.3960  135.5440 O   0  0  0  0  0  0  0  0  0  0  0  0
  190.3020  176.5020  136.6340 C   0  0  0  0  0  0  0  0  0  0  0  0
  191.5090  174.3270  136.4130 C   0  0  0  0  0  3  0  0  0  0  0  0
  193.7060  173.9900  137.4020 C   0  0  0  0  0  0  0  0  0  0  0  0
  192.6160  173.5080  136.6610 C   0  0  0  0  0  3  0  0  0  0  0  0
  191.4750  175.6430  136.9010 C   0  0  0  0  0  0  0  0  0  0  0  0
  193.6700  175.3050  137.8950 C   0  0  0  0  0  3  0  0  0  0  0  0
  192.5640  176.1260  137.6460 C   0  0  0  0  0  3  0  0  0  0  0  0
  194.8390  173.1420  137.6440 N   0  0  0  0  0  0  0  0  0  0  0  0
  194.8610  171.8910  137.1350 O   0  0  0  0  0  1  0  0  0  0  0  0
  195.9310  173.5720  138.5090 C   0  0  0  0  0  2  0  0  0  0  0  0
  198.1880  174.5650  138.3040 C   0  0  0  0  0  2  0  0  0  0  0  0
  197.4340  174.8270  137.0210 C   0  0  0  0  0  2  0  0  0  0  0  0
  197.2470  173.5170  137.7530 C   0  0  0  0  0  3  0  0  0  0  0  0
  185.3780  178.3250  142.1350 C   0  0  0  0  0  2  0  0  0  0  0  0
  184.2980  179.0750  142.9100 C   0  0  0  0  0  2  0  0  0  0  0  0
  183.1540  178.2830  143.0050 O   0  0  0  0  0  0  0  0  0  0  0  0
  182.1660  179.1140  143.5310 C   0  0  0  0  0  2  0  0  0  0  0  0
  181.0740  179.3140  142.4940 C   0  0  0  0  0  2  0  0  0  0  0  0
  180.6140  177.9720  141.9440 C   0  0  0  0  0  2  0  0  0  0  0  0
  180.1170  175.4250  140.1670 C   0  0  0  0  0  2  0  0  0  0  0  0
  180.6060  178.0190  140.4280 C   0  0  2  0  0  3  0  0  0  0  0  0
  180.9240  176.6650  139.8490 C   0  0  0  0  0  0  0  0  0  0  0  0
  182.9070  177.9490  139.5440 C   0  0  1  0  0  3  0  0  0  0  0  0
  181.7510  178.8850  139.9220 C   0  0  0  0  0  2  0  0  0  0  0  0
  182.2920  176.5920  139.2290 C   0  0  0  0  0  2  0  0  0  0  0  0
  179.8520  176.1960  138.8860 C   0  0  0  0  0  2  0  0  0  0  0  0
  184.0070  177.3720  137.3700 C   0  0  0  0  0  2  0  0  0  0  0  0
  185.9450  178.2530  137.9620 C   0  0  0  0  0  2  0  0  0  0  0  0
  184.9860  178.9840  138.7840 N   0  0  0  0  0  2  0  0  0  0  0  0
  185.3610  177.0530  137.5300 O   0  0  0  0  0  0  0  0  0  0  0  0
  183.6940  178.4860  138.3500 C   0  0  2  0  0  3  0  0  0  0  0  0
  1  8  1  1  0  0  0
  2  3  1  0  0  0  0
  2  6  1  0  0  0  0
  3  5  2  0  0  0  0
  4  3  1  0  0  0  0
  5  1  1  0  0  0  0
  6 32  1  6  0  0  0
  6  1  1  0  0  0  0
  7  9  1  0  0  0  0
  8  7  2  0  0  0  0
  9 10  1  0  0  0  0
 10 11  1  0  0  0  0
 12 14  1  1  0  0  0
 12  4  1  0  0  0  0
 14 13  1  0  0  0  0
 15 12  1  0  0  0  0
 16 15  1  0  0  0  0
 17 16  1  0  0  0  0
 18 19  2  0  0  0  0
 19 23  1  0  0  0  0
 19 17  1  0  0  0  0
 20 22  2  0  0  0  0
 20 23  1  0  0  0  0
 21 26  1  0  0  0  0
 21 24  2  0  0  0  0
 22 21  1  0  0  0  0
 23 25  2  0  0  0  0
 25 24  1  0  0  0  0
 26 28  1  0  0  0  0
 27 26  1  0  0  0  0
 30 31  1  0  0  0  0
 30 29  1  0  0  0  0
 31 29  1  0  0  0  0
 31 28  1  0  0  0  0
 32 33  1  0  0  0  0
 33 34  1  0  0  0  0
 34 35  1  0  0  0  0
 36 35  1  0  0  0  0
 37 36  1  0  0  0  0
 39 37  1  1  0  0  0
 40 38  1  0  0  0  0
 40 39  1  0  0  0  0
 41 43  1  6  0  0  0
 41 42  1  0  0  0  0
 42 39  1  0  0  0  0
 43 40  1  0  0  0  0
 44 40  1  0  0  0  0
 44 38  1  0  0  0  0
 45 48  1  0  0  0  0
 46 47  1  0  0  0  0
 48 46  1  0  0  0  0
 49 45  1  6  0  0  0
 49 47  1  0  0  0  0
 49 41  1  0  0  0  0
M  END
>  <MODEL>
8

>  <REMARK>
 VINA RESULT:      -5.7      3.296      8.592
  Name = 
  21 active torsions:
  status: ('A' for Active; 'I' for Inactive)
    1  A    between atoms: C_1  and  N_9
    2  A    between atoms: C_1  and  C_35
    3  A    between atoms: C_4  and  O_23
    4  A    between atoms: C_4  and  C_31
    5  A    between atoms: C_7  and  C_38
    6  A    between atoms: C_8  and  C_12
    7  A    between atoms: N_9  and  N_24
    8  A    between atoms: C_11  and  N_13
    9  A    between atoms: N_13  and  C_33
   10  A    between atoms: C_16  and  C_21
   11  A    between atoms: C_17  and  C_35
   12  A    between atoms: C_20  and  C_21
   13  A    between atoms: C_20  and  C_22
   14  A    between atoms: C_22  and  O_23
   15  A    between atoms: N_24  and  C_48
   16  A    between atoms: C_25  and  C_47
   17  A    between atoms: N_29  and  C_48
   18  A    between atoms: C_31  and  C_45
   19  A    between atoms: C_33  and  C_41
   20  A    between atoms: N_36  and  C_38
   21  A    between atoms: C_46  and  C_48
                            x       y       z     vdW  Elec       q    Type
                         _______ _______ _______ _____ _____    ______ ____

>  <TORSDO>
F 21

$$$$
=
 OpenBabel10222419223D

 49 54  0  0  1  0  0  0  0  0999 V2000
  182.0330  178.9180  138.6480 C   0  0  2  0  0  3  0  0  0  0  0  0
  181.4990  176.5910  139.1610 C   0  0  0  0  0  2  0  0  0  0  0  0
  181.2930  176.9760  137.7410 C   0  0  0  0  0  0  0  0  0  0  0  0
  180.8090  176.0810  136.7340 N   0  0  0  0  0  2  0  0  0  0  0  0
  181.5850  178.2000  137.4620 N   0  0  0  0  0  0  0  0  0  0  0  0
  182.0260  177.8840  139.7840 C   0  0  1  0  0  3  0  0  0  0  0  0
  180.9790  181.1120  138.1410 C   0  0  0  0  0  3  0  0  0  0  0  0
  181.1060  180.0630  138.9610 C   0  0  0  0  0  3  0  0  0  0  0  0
  180.0390  182.2300  138.4560 C   0  0  0  0  0  2  0  0  0  0  0  0
  179.7910  183.0230  137.2610 N   0  0  0  0  0  2  0  0  0  0  0  0
  180.1470  184.3930  137.5900 C   0  0  0  0  0  1  0  0  0  0  0  0
  180.4150  174.7120  137.0540 C   0  0  2  0  0  3  0  0  0  0  0  0
  179.6580  173.6260  139.1590 C   0  0  0  0  0  1  0  0  0  0  0  0
  179.3550  174.7170  138.1400 C   0  0  0  0  0  2  0  0  0  0  0  0
  181.5770  173.9320  137.4940 N   0  0  0  0  0  2  0  0  0  0  0  0
  181.7530  172.8660  136.5940 N   0  0  0  0  0  2  0  0  0  0  0  0
  182.6640  171.9090  137.2080 C   0  0  0  0  0  2  0  0  0  0  0  0
  183.6890  170.8720  135.3340 O   0  0  0  0  0  0  0  0  0  0  0  0
  183.8250  171.6790  136.2930 C   0  0  0  0  0  0  0  0  0  0  0  0
  186.3000  171.8600  136.0190 C   0  0  0  0  0  3  0  0  0  0  0  0
  187.5190  173.8240  136.7740 C   0  0  0  0  0  0  0  0  0  0  0  0
  187.5040  172.5570  136.1740 C   0  0  0  0  0  3  0  0  0  0  0  0
  185.0920  172.4220  136.4610 C   0  0  0  0  0  0  0  0  0  0  0  0
  186.3120  174.3850  137.2210 C   0  0  0  0  0  3  0  0  0  0  0  0
  185.1070  173.6900  137.0650 C   0  0  0  0  0  3  0  0  0  0  0  0
  188.7600  174.5320  136.9210 N   0  0  0  0  0  0  0  0  0  0  0  0
  189.8500  173.8850  137.3870 O   0  0  0  0  0  1  0  0  0  0  0  0
  188.8450  175.9650  136.6630 C   0  0  0  0  0  2  0  0  0  0  0  0
  189.0430  178.2030  137.7020 C   0  0  0  0  0  2  0  0  0  0  0  0
  190.1760  177.3410  138.2070 C   0  0  0  0  0  2  0  0  0  0  0  0
  188.8110  176.7330  137.9740 C   0  0  0  0  0  3  0  0  0  0  0  0
  183.4220  177.7130  140.3960 C   0  0  0  0  0  2  0  0  0  0  0  0
  183.5640  178.3830  141.7590 C   0  0  0  0  0  2  0  0  0  0  0  0
  184.8590  178.8820  141.9020 O   0  0  0  0  0  0  0  0  0  0  0  0
  184.9200  179.3990  143.1960 C   0  0  0  0  0  2  0  0  0  0  0  0
  184.9360  178.2550  144.1940 C   0  0  0  0  0  2  0  0  0  0  0  0
  185.9090  178.5510  145.3240 C   0  0  0  0  0  2  0  0  0  0  0  0
  187.9180  178.3570  147.7370 C   0  0  0  0  0  2  0  0  0  0  0  0
  186.8200  177.3570  145.5390 C   0  0  2  0  0  3  0  0  0  0  0  0
  188.0240  177.7430  146.3580 C   0  0  0  0  0  0  0  0  0  0  0  0
  188.8340  177.5360  144.1280 C   0  0  1  0  0  3  0  0  0  0  0  0
  187.4320  176.9190  144.2170 C   0  0  0  0  0  2  0  0  0  0  0  0
  189.2950  177.7930  145.5570 C   0  0  0  0  0  2  0  0  0  0  0  0
  188.1760  176.8680  147.5860 C   0  0  0  0  0  2  0  0  0  0  0  0
  191.2130  176.7780  143.9370 C   0  0  0  0  0  2  0  0  0  0  0  0
  191.3190  177.2100  141.7730 C   0  0  0  0  0  2  0  0  0  0  0  0
  189.8940  176.9880  141.9950 N   0  0  0  0  0  2  0  0  0  0  0  0
  191.9320  177.5230  142.9950 O   0  0  0  0  0  0  0  0  0  0  0  0
  189.8070  176.6140  143.3940 C   0  0  2  0  0  3  0  0  0  0  0  0
  1  8  1  1  0  0  0
  1  6  1  0  0  0  0
  2  6  1  0  0  0  0
  3  2  1  0  0  0  0
  4 12  1  0  0  0  0
  4  3  1  0  0  0  0
  5  3  2  0  0  0  0
  5  1  1  0  0  0  0
  6 32  1  6  0  0  0
  7  9  1  0  0  0  0
  7  8  2  0  0  0  0
 10 11  1  0  0  0  0
 10  9  1  0  0  0  0
 12 15  1  0  0  0  0
 12 14  1  1  0  0  0
 14 13  1  0  0  0  0
 16 17  1  0  0  0  0
 16 15  1  0  0  0  0
 18 19  2  0  0  0  0
 19 23  1  0  0  0  0
 19 17  1  0  0  0  0
 20 22  2  0  0  0  0
 20 23  1  0  0  0  0
 21 26  1  0  0  0  0
 21 24  2  0  0  0  0
 22 21  1  0  0  0  0
 23 25  2  0  0  0  0
 25 24  1  0  0  0  0
 26 27  1  0  0  0  0
 28 26  1  0  0  0  0
 28 31  1  0  0  0  0
 29 31  1  0  0  0  0
 29 30  1  0  0  0  0
 31 30  1  0  0  0  0
 32 33  1  0  0  0  0
 33 34  1  0  0  0  0
 34 35  1  0  0  0  0
 35 36  1  0  0  0  0
 36 37  1  0  0  0  0
 39 37  1  6  0  0  0
 39 40  1  0  0  0  0
 40 44  1  0  0  0  0
 40 38  1  0  0  0  0
 41 42  1  1  0  0  0
 41 43  1  0  0  0  0
 42 39  1  0  0  0  0
 43 40  1  0  0  0  0
 44 38  1  0  0  0  0
 46 47  1  0  0  0  0
 46 48  1  0  0  0  0
 47 49  1  0  0  0  0
 48 45  1  0  0  0  0
 49 45  1  1  0  0  0
 49 41  1  0  0  0  0
M  END
>  <MODEL>
9

>  <REMARK>
 VINA RESULT:      -5.7      2.989     10.743
  Name = 
  21 active torsions:
  status: ('A' for Active; 'I' for Inactive)
    1  A    between atoms: C_1  and  N_9
    2  A    between atoms: C_1  and  C_35
    3  A    between atoms: C_4  and  O_23
    4  A    between atoms: C_4  and  C_31
    5  A    between atoms: C_7  and  C_38
    6  A    between atoms: C_8  and  C_12
    7  A    between atoms: N_9  and  N_24
    8  A    between atoms: C_11  and  N_13
    9  A    between atoms: N_13  and  C_33
   10  A    between atoms: C_16  and  C_21
   11  A    between atoms: C_17  and  C_35
   12  A    between atoms: C_20  and  C_21
   13  A    between atoms: C_20  and  C_22
   14  A    between atoms: C_22  and  O_23
   15  A    between atoms: N_24  and  C_48
   16  A    between atoms: C_25  and  C_47
   17  A    between atoms: N_29  and  C_48
   18  A    between atoms: C_31  and  C_45
   19  A    between atoms: C_33  and  C_41
   20  A    between atoms: N_36  and  C_38
   21  A    between atoms: C_46  and  C_48
                            x       y       z     vdW  Elec       q    Type
                         _______ _______ _______ _____ _____    ______ ____

>  <TORSDO>
F 21

$$$$
