=
 OpenBabel10222420203D

 27 28  0  0  0  0  0  0  0  0999 V2000
  190.3540  176.5220  139.0740 C   0  0  0  0  0  2  0  0  0  0  0  0
  189.1070  176.9900  138.3330 C   0  0  0  0  0  2  0  0  0  0  0  0
  189.2320  178.3840  137.9140 N   0  0  0  0  0  2  0  0  0  0  0  0
  188.1290  178.6650  137.0040 C   0  0  0  0  0  2  0  0  0  0  0  0
  186.8640  177.9400  137.4350 C   0  0  0  0  0  2  0  0  0  0  0  0
  185.9500  178.8640  138.0910 N   0  0  0  0  0  2  0  0  0  0  0  0
  185.7730  178.4000  139.4530 C   0  0  0  0  0  2  0  0  0  0  0  0
  183.6860  179.1490  140.1980 C   0  0  0  0  0  1  0  0  0  0  0  0
  185.1100  179.4280  140.2420 N   0  0  0  0  0  0  0  0  0  0  0  0
  185.5190  179.2320  141.6210 C   0  0  0  0  0  2  0  0  0  0  0  0
  184.4860  178.3950  142.3550 C   0  0  0  0  0  2  0  0  0  0  0  0
  184.7240  178.4520  143.8570 C   0  0  0  0  0  2  0  0  0  0  0  0
  183.4450  178.7920  144.6100 C   0  0  0  0  0  2  0  0  0  0  0  0
  182.3000  179.0360  143.6400 C   0  0  0  0  0  1  0  0  0  0  0  0
  190.5900  177.2890  140.3730 C   0  0  0  0  0  2  0  0  0  0  0  0
  189.9350  176.6160  141.5710 C   0  0  0  0  0  2  0  0  0  0  0  0
  189.8760  177.2850  146.6480 C   0  0  0  0  0  0  0  0  0  0  0  0
  189.6500  177.5910  147.9530 N   0  0  0  0  0  0  0  0  0  0  0  0
  190.8560  176.5570  142.6990 N   0  0  0  0  0  0  0  0  0  0  0  0
  188.4210  177.9620  148.3940 C   0  0  0  0  0  3  0  0  0  0  0  0
  188.8240  177.3510  145.7200 C   0  0  0  0  0  0  0  0  0  0  0  0
  187.3490  178.0350  147.5030 C   0  0  0  0  0  3  0  0  0  0  0  0
  187.5570  177.7250  146.1590 C   0  0  0  0  0  3  0  0  0  0  0  0
  189.0290  177.0040  144.2750 C   0  0  0  0  0  2  0  0  0  0  0  0
  191.4910  176.6510  144.9910 C   0  0  0  0  0  3  0  0  0  0  0  0
  191.1930  176.9050  146.2290 N   0  0  0  0  0  0  0  0  0  0  0  0
  190.4790  176.7350  143.9280 C   0  0  0  0  0  0  0  0  0  0  0  0
  1 15  1  0  0  0  0
  2  1  1  0  0  0  0
  3  2  1  0  0  0  0
  4  5  1  0  0  0  0
  4  3  1  0  0  0  0
  5  6  1  0  0  0  0
  6  7  1  0  0  0  0
  7  9  1  0  0  0  0
  8  9  1  0  0  0  0
  9 10  1  0  0  0  0
 10 11  1  0  0  0  0
 11 12  1  0  0  0  0
 12 13  1  0  0  0  0
 14 13  1  0  0  0  0
 15 16  1  0  0  0  0
 16 19  1  0  0  0  0
 17 18  2  0  0  0  0
 18 20  1  0  0  0  0
 19 27  2  0  0  0  0
 21 23  2  0  0  0  0
 21 17  1  0  0  0  0
 22 20  2  0  0  0  0
 23 22  1  0  0  0  0
 24 21  1  0  0  0  0
 25 26  2  0  0  0  0
 26 17  1  0  0  0  0
 27 24  1  0  0  0  0
 27 25  1  0  0  0  0
M  END
>  <MODEL>
1

>  <REMARK>
 VINA RESULT:      -7.0      0.000      0.000
  Name = 
  14 active torsions:
  status: ('A' for Active; 'I' for Inactive)
    1  A    between atoms: C_1  and  C_3
    2  A    between atoms: C_1  and  N_14
    3  A    between atoms: C_3  and  N_13
    4  A    between atoms: C_5  and  C_8
    5  A    between atoms: C_5  and  C_15
    6  A    between atoms: C_6  and  N_14
    7  A    between atoms: C_6  and  C_17
    8  A    between atoms: C_7  and  N_11
    9  A    between atoms: C_7  and  C_20
   10  A    between atoms: C_9  and  N_13
   11  A    between atoms: C_9  and  N_25
   12  A    between atoms: C_15  and  C_21
   13  A    between atoms: C_17  and  C_20
   14  A    between atoms: C_21  and  N_25
                            x       y       z     vdW  Elec       q    Type
                         _______ _______ _______ _____ _____    ______ ____

>  <TORSDO>
F 14

$$$$
=
 OpenBabel10222420203D

 27 28  0  0  0  0  0  0  0  0999 V2000
  184.5740  178.7950  138.7630 C   0  0  0  0  0  2  0  0  0  0  0  0
  185.8870  178.1100  138.4030 C   0  0  0  0  0  2  0  0  0  0  0  0
  186.1090  178.1180  136.9600 N   0  0  0  0  0  2  0  0  0  0  0  0
  187.4830  178.5500  136.7340 C   0  0  0  0  0  2  0  0  0  0  0  0
  188.4620  177.4130  136.9770 C   0  0  0  0  0  2  0  0  0  0  0  0
  189.4970  177.8270  137.9120 N   0  0  0  0  0  2  0  0  0  0  0  0
  189.3680  176.9940  139.0930 C   0  0  0  0  0  2  0  0  0  0  0  0
  188.5840  178.0180  141.0440 C   0  0  0  0  0  1  0  0  0  0  0  0
  189.7820  177.7420  140.2710 N   0  0  0  0  0  0  0  0  0  0  0  0
  190.5880  176.8450  141.0790 C   0  0  0  0  0  2  0  0  0  0  0  0
  190.0890  176.8480  142.5140 C   0  0  0  0  0  2  0  0  0  0  0  0
  191.2290  176.5400  143.4740 C   0  0  0  0  0  2  0  0  0  0  0  0
  191.4290  177.6650  144.4790 C   0  0  0  0  0  2  0  0  0  0  0  0
  190.8470  178.9660  143.9500 C   0  0  0  0  0  1  0  0  0  0  0  0
  184.5020  179.1950  140.2360 C   0  0  0  0  0  2  0  0  0  0  0  0
  184.0970  178.0330  141.1330 C   0  0  0  0  0  2  0  0  0  0  0  0
  185.5760  178.5080  146.0130 C   0  0  0  0  0  0  0  0  0  0  0  0
  186.1400  178.4610  147.2490 N   0  0  0  0  0  0  0  0  0  0  0  0
  183.5670  178.5190  142.4000 N   0  0  0  0  0  0  0  0  0  0  0  0
  187.3880  177.9620  147.4430 C   0  0  0  0  0  3  0  0  0  0  0  0
  186.2880  178.0330  144.8990 C   0  0  0  0  0  0  0  0  0  0  0  0
  188.1280  177.4850  146.3610 C   0  0  0  0  0  3  0  0  0  0  0  0
  187.5710  177.5240  145.0830 C   0  0  0  0  0  3  0  0  0  0  0  0
  185.7090  178.0830  143.5160 C   0  0  0  0  0  2  0  0  0  0  0  0
  183.6350  179.0620  144.7170 C   0  0  0  0  0  3  0  0  0  0  0  0
  184.2530  179.0360  145.8580 N   0  0  0  0  0  0  0  0  0  0  0  0
  184.2670  178.5470  143.4930 C   0  0  0  0  0  0  0  0  0  0  0  0
  1 15  1  0  0  0  0
  2  1  1  0  0  0  0
  3  2  1  0  0  0  0
  4  3  1  0  0  0  0
  4  5  1  0  0  0  0
  5  6  1  0  0  0  0
  6  7  1  0  0  0  0
  7  9  1  0  0  0  0
  9  8  1  0  0  0  0
  9 10  1  0  0  0  0
 10 11  1  0  0  0  0
 11 12  1  0  0  0  0
 12 13  1  0  0  0  0
 14 13  1  0  0  0  0
 15 16  1  0  0  0  0
 16 19  1  0  0  0  0
 17 18  2  0  0  0  0
 18 20  1  0  0  0  0
 19 27  2  0  0  0  0
 21 23  2  0  0  0  0
 21 17  1  0  0  0  0
 22 20  2  0  0  0  0
 23 22  1  0  0  0  0
 24 21  1  0  0  0  0
 25 26  2  0  0  0  0
 26 17  1  0  0  0  0
 27 24  1  0  0  0  0
 27 25  1  0  0  0  0
M  END
>  <MODEL>
2

>  <REMARK>
 VINA RESULT:      -6.7      1.876      5.270
  Name = 
  14 active torsions:
  status: ('A' for Active; 'I' for Inactive)
    1  A    between atoms: C_1  and  C_3
    2  A    between atoms: C_1  and  N_14
    3  A    between atoms: C_3  and  N_13
    4  A    between atoms: C_5  and  C_8
    5  A    between atoms: C_5  and  C_15
    6  A    between atoms: C_6  and  N_14
    7  A    between atoms: C_6  and  C_17
    8  A    between atoms: C_7  and  N_11
    9  A    between atoms: C_7  and  C_20
   10  A    between atoms: C_9  and  N_13
   11  A    between atoms: C_9  and  N_25
   12  A    between atoms: C_15  and  C_21
   13  A    between atoms: C_17  and  C_20
   14  A    between atoms: C_21  and  N_25
                            x       y       z     vdW  Elec       q    Type
                         _______ _______ _______ _____ _____    ______ ____

>  <TORSDO>
F 14

$$$$
=
 OpenBabel10222420203D

 27 28  0  0  0  0  0  0  0  0999 V2000
  184.2400  178.4530  138.4280 C   0  0  0  0  0  2  0  0  0  0  0  0
  185.4770  178.0410  137.6390 C   0  0  0  0  0  2  0  0  0  0  0  0
  186.6660  178.7430  138.1160 N   0  0  0  0  0  2  0  0  0  0  0  0
  187.8180  177.9030  137.8110 C   0  0  0  0  0  2  0  0  0  0  0  0
  188.9480  178.1410  138.8000 C   0  0  0  0  0  2  0  0  0  0  0  0
  189.3400  176.8910  139.4330 N   0  0  0  0  0  2  0  0  0  0  0  0
  189.3610  177.1210  140.8640 C   0  0  0  0  0  2  0  0  0  0  0  0
  191.5460  177.3480  141.6690 C   0  0  0  0  0  1  0  0  0  0  0  0
  190.4710  176.3940  141.4640 N   0  0  0  0  0  0  0  0  0  0  0  0
  190.0390  175.9800  142.7860 C   0  0  0  0  0  2  0  0  0  0  0  0
  191.1810  176.1300  143.7760 C   0  0  0  0  0  2  0  0  0  0  0  0
  190.7570  176.9980  144.9520 C   0  0  0  0  0  2  0  0  0  0  0  0
  191.7420  176.8900  146.1080 C   0  0  0  0  0  2  0  0  0  0  0  0
  191.1160  176.1470  147.2770 C   0  0  0  0  0  1  0  0  0  0  0  0
  184.5650  178.8560  139.8650 C   0  0  0  0  0  2  0  0  0  0  0  0
  184.1270  177.8050  140.8750 C   0  0  0  0  0  2  0  0  0  0  0  0
  185.1000  178.7420  145.8150 C   0  0  0  0  0  0  0  0  0  0  0  0
  185.5280  178.8090  147.1030 N   0  0  0  0  0  0  0  0  0  0  0  0
  183.4820  178.4290  142.0240 N   0  0  0  0  0  0  0  0  0  0  0  0
  186.7320  178.3060  147.4790 C   0  0  0  0  0  3  0  0  0  0  0  0
  185.9090  178.1410  144.8370 C   0  0  0  0  0  0  0  0  0  0  0  0
  187.5670  177.7060  146.5360 C   0  0  0  0  0  3  0  0  0  0  0  0
  187.1490  177.6260  145.2080 C   0  0  0  0  0  3  0  0  0  0  0  0
  185.4800  178.0630  143.4020 C   0  0  0  0  0  2  0  0  0  0  0  0
  183.3240  179.2030  144.2690 C   0  0  0  0  0  3  0  0  0  0  0  0
  183.8170  179.2800  145.4680 N   0  0  0  0  0  0  0  0  0  0  0  0
  184.0640  178.5530  143.1770 C   0  0  0  0  0  0  0  0  0  0  0  0
  1 15  1  0  0  0  0
  2  3  1  0  0  0  0
  2  1  1  0  0  0  0
  4  3  1  0  0  0  0
  4  5  1  0  0  0  0
  5  6  1  0  0  0  0
  6  7  1  0  0  0  0
  7  9  1  0  0  0  0
  9  8  1  0  0  0  0
  9 10  1  0  0  0  0
 10 11  1  0  0  0  0
 11 12  1  0  0  0  0
 12 13  1  0  0  0  0
 13 14  1  0  0  0  0
 15 16  1  0  0  0  0
 16 19  1  0  0  0  0
 17 18  2  0  0  0  0
 18 20  1  0  0  0  0
 19 27  2  0  0  0  0
 21 23  2  0  0  0  0
 21 17  1  0  0  0  0
 22 20  2  0  0  0  0
 23 22  1  0  0  0  0
 24 21  1  0  0  0  0
 25 26  2  0  0  0  0
 26 17  1  0  0  0  0
 27 24  1  0  0  0  0
 27 25  1  0  0  0  0
M  END
>  <MODEL>
3

>  <REMARK>
 VINA RESULT:      -6.7      1.878      5.762
  Name = 
  14 active torsions:
  status: ('A' for Active; 'I' for Inactive)
    1  A    between atoms: C_1  and  C_3
    2  A    between atoms: C_1  and  N_14
    3  A    between atoms: C_3  and  N_13
    4  A    between atoms: C_5  and  C_8
    5  A    between atoms: C_5  and  C_15
    6  A    between atoms: C_6  and  N_14
    7  A    between atoms: C_6  and  C_17
    8  A    between atoms: C_7  and  N_11
    9  A    between atoms: C_7  and  C_20
   10  A    between atoms: C_9  and  N_13
   11  A    between atoms: C_9  and  N_25
   12  A    between atoms: C_15  and  C_21
   13  A    between atoms: C_17  and  C_20
   14  A    between atoms: C_21  and  N_25
                            x       y       z     vdW  Elec       q    Type
                         _______ _______ _______ _____ _____    ______ ____

>  <TORSDO>
F 14

$$$$
=
 OpenBabel10222420203D

 27 28  0  0  0  0  0  0  0  0999 V2000
  187.2270  177.7810  146.9600 C   0  0  0  0  0  2  0  0  0  0  0  0
  187.8960  178.3740  148.1950 C   0  0  0  0  0  2  0  0  0  0  0  0
  189.2860  177.9380  148.3040 N   0  0  0  0  0  2  0  0  0  0  0  0
  189.5680  177.0930  147.1500 C   0  0  0  0  0  2  0  0  0  0  0  0
  191.0090  176.6090  147.1650 C   0  0  0  0  0  2  0  0  0  0  0  0
  191.7440  177.1720  146.0420 N   0  0  0  0  0  2  0  0  0  0  0  0
  191.5350  176.2940  144.9070 C   0  0  0  0  0  2  0  0  0  0  0  0
  191.9000  177.2230  142.7910 C   0  0  0  0  0  1  0  0  0  0  0  0
  190.8980  177.0310  143.8250 N   0  0  0  0  0  0  0  0  0  0  0  0
  189.8900  176.1580  143.2540 C   0  0  0  0  0  2  0  0  0  0  0  0
  188.5080  176.5880  143.7160 C   0  0  0  0  0  2  0  0  0  0  0  0
  187.6970  177.1230  142.5440 C   0  0  0  0  0  2  0  0  0  0  0  0
  188.3560  178.3480  141.9250 C   0  0  0  0  0  2  0  0  0  0  0  0
  188.5440  178.1560  140.4290 C   0  0  0  0  0  1  0  0  0  0  0  0
  185.7300  178.0760  146.9020 C   0  0  0  0  0  2  0  0  0  0  0  0
  185.3970  179.1900  145.9180 C   0  0  0  0  0  2  0  0  0  0  0  0
  182.6700  178.8140  141.5990 C   0  0  0  0  0  0  0  0  0  0  0  0
  182.1540  178.8000  140.3420 N   0  0  0  0  0  0  0  0  0  0  0  0
  184.0020  179.1110  145.5010 N   0  0  0  0  0  0  0  0  0  0  0  0
  182.9530  178.8040  139.2440 C   0  0  0  0  0  3  0  0  0  0  0  0
  184.0620  178.8340  141.7860 C   0  0  0  0  0  0  0  0  0  0  0  0
  184.3410  178.8180  139.3890 C   0  0  0  0  0  3  0  0  0  0  0  0
  184.8940  178.8320  140.6690 C   0  0  0  0  0  3  0  0  0  0  0  0
  184.6710  178.8320  143.1560 C   0  0  0  0  0  2  0  0  0  0  0  0
  182.2090  178.8850  143.9520 C   0  0  0  0  0  3  0  0  0  0  0  0
  181.7850  178.8180  142.7270 N   0  0  0  0  0  0  0  0  0  0  0  0
  183.6440  178.9570  144.2630 C   0  0  0  0  0  0  0  0  0  0  0  0
  1  2  1  0  0  0  0
  2  3  1  0  0  0  0
  4  5  1  0  0  0  0
  4  3  1  0  0  0  0
  6  5  1  0  0  0  0
  7  6  1  0  0  0  0
  8  9  1  0  0  0  0
  9  7  1  0  0  0  0
 10 11  1  0  0  0  0
 10  9  1  0  0  0  0
 12 11  1  0  0  0  0
 13 12  1  0  0  0  0
 14 13  1  0  0  0  0
 15  1  1  0  0  0  0
 16 15  1  0  0  0  0
 17 21  1  0  0  0  0
 17 26  1  0  0  0  0
 18 17  2  0  0  0  0
 19 16  1  0  0  0  0
 20 22  2  0  0  0  0
 20 18  1  0  0  0  0
 21 24  1  0  0  0  0
 22 23  1  0  0  0  0
 23 21  2  0  0  0  0
 24 27  1  0  0  0  0
 25 27  1  0  0  0  0
 26 25  2  0  0  0  0
 27 19  2  0  0  0  0
M  END
>  <MODEL>
4

>  <REMARK>
 VINA RESULT:      -6.7      2.182      8.294
  Name = 
  14 active torsions:
  status: ('A' for Active; 'I' for Inactive)
    1  A    between atoms: C_1  and  C_3
    2  A    between atoms: C_1  and  N_14
    3  A    between atoms: C_3  and  N_13
    4  A    between atoms: C_5  and  C_8
    5  A    between atoms: C_5  and  C_15
    6  A    between atoms: C_6  and  N_14
    7  A    between atoms: C_6  and  C_17
    8  A    between atoms: C_7  and  N_11
    9  A    between atoms: C_7  and  C_20
   10  A    between atoms: C_9  and  N_13
   11  A    between atoms: C_9  and  N_25
   12  A    between atoms: C_15  and  C_21
   13  A    between atoms: C_17  and  C_20
   14  A    between atoms: C_21  and  N_25
                            x       y       z     vdW  Elec       q    Type
                         _______ _______ _______ _____ _____    ______ ____

>  <TORSDO>
F 14

$$$$
=
 OpenBabel10222420203D

 27 28  0  0  0  0  0  0  0  0999 V2000
  190.9760  178.3470  143.1690 C   0  0  0  0  0  2  0  0  0  0  0  0
  190.9660  177.1230  142.2610 C   0  0  0  0  0  2  0  0  0  0  0  0
  190.0310  177.2940  141.1520 N   0  0  0  0  0  2  0  0  0  0  0  0
  188.6940  177.4010  141.7250 C   0  0  0  0  0  2  0  0  0  0  0  0
  187.8430  178.3930  140.9480 C   0  0  0  0  0  2  0  0  0  0  0  0
  188.4090  178.6220  139.6280 N   0  0  0  0  0  2  0  0  0  0  0  0
  187.4610  178.1100  138.6580 C   0  0  0  0  0  2  0  0  0  0  0  0
  189.0510  178.7480  137.0660 C   0  0  0  0  0  1  0  0  0  0  0  0
  188.1660  177.6680  137.4640 N   0  0  0  0  0  0  0  0  0  0  0  0
  189.0240  176.5670  137.8630 C   0  0  0  0  0  2  0  0  0  0  0  0
  190.4430  176.8130  137.3800 C   0  0  0  0  0  2  0  0  0  0  0  0
  191.4040  175.8240  138.0250 C   0  0  0  0  0  2  0  0  0  0  0  0
  192.7880  176.4310  138.2060 C   0  0  0  0  0  2  0  0  0  0  0  0
  193.6600  176.1470  136.9930 C   0  0  0  0  0  1  0  0  0  0  0  0
  191.5010  178.0380  144.5700 C   0  0  0  0  0  2  0  0  0  0  0  0
  190.7970  176.8440  145.2020 C   0  0  0  0  0  2  0  0  0  0  0  0
  186.0550  178.3710  146.3880 C   0  0  0  0  0  0  0  0  0  0  0  0
  184.7770  178.8300  146.4580 N   0  0  0  0  0  0  0  0  0  0  0  0
  190.0350  177.2560  146.3740 N   0  0  0  0  0  0  0  0  0  0  0  0
  183.9870  178.9080  145.3570 C   0  0  0  0  0  3  0  0  0  0  0  0
  186.5870  177.9660  145.1530 C   0  0  0  0  0  0  0  0  0  0  0  0
  184.4790  178.5100  144.1130 C   0  0  0  0  0  3  0  0  0  0  0  0
  185.7860  178.0360  144.0160 C   0  0  0  0  0  3  0  0  0  0  0  0
  187.9860  177.4390  145.0350 C   0  0  0  0  0  2  0  0  0  0  0  0
  188.0950  177.9380  147.5730 C   0  0  0  0  0  3  0  0  0  0  0  0
  186.8520  178.3140  147.5770 N   0  0  0  0  0  0  0  0  0  0  0  0
  188.7690  177.5370  146.3290 C   0  0  0  0  0  0  0  0  0  0  0  0
  1 15  1  0  0  0  0
  2  1  1  0  0  0  0
  3  4  1  0  0  0  0
  3  2  1  0  0  0  0
  5  4  1  0  0  0  0
  6  5  1  0  0  0  0
  7  6  1  0  0  0  0
  8  9  1  0  0  0  0
  9 10  1  0  0  0  0
  9  7  1  0  0  0  0
 11 10  1  0  0  0  0
 11 12  1  0  0  0  0
 12 13  1  0  0  0  0
 14 13  1  0  0  0  0
 15 16  1  0  0  0  0
 16 19  1  0  0  0  0
 17 18  2  0  0  0  0
 17 26  1  0  0  0  0
 20 18  1  0  0  0  0
 21 17  1  0  0  0  0
 22 20  2  0  0  0  0
 23 22  1  0  0  0  0
 23 21  2  0  0  0  0
 24 21  1  0  0  0  0
 24 27  1  0  0  0  0
 25 26  2  0  0  0  0
 27 19  2  0  0  0  0
 27 25  1  0  0  0  0
M  END
>  <MODEL>
5

>  <REMARK>
 VINA RESULT:      -6.6      1.954      5.662
  Name = 
  14 active torsions:
  status: ('A' for Active; 'I' for Inactive)
    1  A    between atoms: C_1  and  C_3
    2  A    between atoms: C_1  and  N_14
    3  A    between atoms: C_3  and  N_13
    4  A    between atoms: C_5  and  C_8
    5  A    between atoms: C_5  and  C_15
    6  A    between atoms: C_6  and  N_14
    7  A    between atoms: C_6  and  C_17
    8  A    between atoms: C_7  and  N_11
    9  A    between atoms: C_7  and  C_20
   10  A    between atoms: C_9  and  N_13
   11  A    between atoms: C_9  and  N_25
   12  A    between atoms: C_15  and  C_21
   13  A    between atoms: C_17  and  C_20
   14  A    between atoms: C_21  and  N_25
                            x       y       z     vdW  Elec       q    Type
                         _______ _______ _______ _____ _____    ______ ____

>  <TORSDO>
F 14

$$$$
=
 OpenBabel10222420203D

 27 28  0  0  0  0  0  0  0  0999 V2000
  191.4950  177.9360  143.3650 C   0  0  0  0  0  2  0  0  0  0  0  0
  190.6010  177.3890  142.2580 C   0  0  0  0  0  2  0  0  0  0  0  0
  191.3130  177.3320  140.9840 N   0  0  0  0  0  2  0  0  0  0  0  0
  190.3110  177.3330  139.9260 C   0  0  0  0  0  2  0  0  0  0  0  0
  188.9110  177.4970  140.4970 C   0  0  0  0  0  2  0  0  0  0  0  0
  188.1690  178.4940  139.7410 N   0  0  0  0  0  2  0  0  0  0  0  0
  188.1280  178.0450  138.3620 C   0  0  0  0  0  2  0  0  0  0  0  0
  187.2390  178.9240  136.3850 C   0  0  0  0  0  1  0  0  0  0  0  0
  186.8970  178.5010  137.7320 N   0  0  0  0  0  0  0  0  0  0  0  0
  186.0410  177.3390  137.5870 C   0  0  0  0  0  2  0  0  0  0  0  0
  184.6440  177.6570  138.0920 C   0  0  0  0  0  2  0  0  0  0  0  0
  184.6370  178.9820  138.8420 C   0  0  0  0  0  2  0  0  0  0  0  0
  183.5910  178.9900  139.9470 C   0  0  0  0  0  2  0  0  0  0  0  0
  182.9610  177.6150  140.0990 C   0  0  0  0  0  1  0  0  0  0  0  0
  190.7170  178.2880  144.6320 C   0  0  0  0  0  2  0  0  0  0  0  0
  190.1470  177.0560  145.3230 C   0  0  0  0  0  2  0  0  0  0  0  0
  185.2830  178.5170  145.9760 C   0  0  0  0  0  0  0  0  0  0  0  0
  184.0000  178.9620  145.9060 N   0  0  0  0  0  0  0  0  0  0  0  0
  189.2500  177.4400  146.4050 N   0  0  0  0  0  0  0  0  0  0  0  0
  183.3420  179.0520  144.7210 C   0  0  0  0  0  3  0  0  0  0  0  0
  185.9590  178.1380  144.8040 C   0  0  0  0  0  0  0  0  0  0  0  0
  183.9780  178.6800  143.5360 C   0  0  0  0  0  3  0  0  0  0  0  0
  185.2940  178.2200  143.5840 C   0  0  0  0  0  3  0  0  0  0  0  0
  187.3680  177.6260  144.8410 C   0  0  0  0  0  2  0  0  0  0  0  0
  187.1770  178.0830  147.3820 C   0  0  0  0  0  3  0  0  0  0  0  0
  185.9380  178.4470  147.2490 N   0  0  0  0  0  0  0  0  0  0  0  0
  187.9940  177.7090  146.2180 C   0  0  0  0  0  0  0  0  0  0  0  0
  1 15  1  0  0  0  0
  2  1  1  0  0  0  0
  3  2  1  0  0  0  0
  4  5  1  0  0  0  0
  4  3  1  0  0  0  0
  6  5  1  0  0  0  0
  7  6  1  0  0  0  0
  8  9  1  0  0  0  0
  9  7  1  0  0  0  0
 10  9  1  0  0  0  0
 10 11  1  0  0  0  0
 11 12  1  0  0  0  0
 12 13  1  0  0  0  0
 13 14  1  0  0  0  0
 15 16  1  0  0  0  0
 16 19  1  0  0  0  0
 17 26  1  0  0  0  0
 18 17  2  0  0  0  0
 20 18  1  0  0  0  0
 21 24  1  0  0  0  0
 21 17  1  0  0  0  0
 22 23  1  0  0  0  0
 22 20  2  0  0  0  0
 23 21  2  0  0  0  0
 24 27  1  0  0  0  0
 26 25  2  0  0  0  0
 27 19  2  0  0  0  0
 27 25  1  0  0  0  0
M  END
>  <MODEL>
6

>  <REMARK>
 VINA RESULT:      -6.6      1.890      4.351
  Name = 
  14 active torsions:
  status: ('A' for Active; 'I' for Inactive)
    1  A    between atoms: C_1  and  C_3
    2  A    between atoms: C_1  and  N_14
    3  A    between atoms: C_3  and  N_13
    4  A    between atoms: C_5  and  C_8
    5  A    between atoms: C_5  and  C_15
    6  A    between atoms: C_6  and  N_14
    7  A    between atoms: C_6  and  C_17
    8  A    between atoms: C_7  and  N_11
    9  A    between atoms: C_7  and  C_20
   10  A    between atoms: C_9  and  N_13
   11  A    between atoms: C_9  and  N_25
   12  A    between atoms: C_15  and  C_21
   13  A    between atoms: C_17  and  C_20
   14  A    between atoms: C_21  and  N_25
                            x       y       z     vdW  Elec       q    Type
                         _______ _______ _______ _____ _____    ______ ____

>  <TORSDO>
F 14

$$$$
=
 OpenBabel10222420203D

 27 28  0  0  0  0  0  0  0  0999 V2000
  185.7570  178.1980  137.9530 C   0  0  0  0  0  2  0  0  0  0  0  0
  186.8710  178.2910  138.9880 C   0  0  0  0  0  2  0  0  0  0  0  0
  188.0700  177.5860  138.5390 N   0  0  0  0  0  2  0  0  0  0  0  0
  189.0290  177.6190  139.6360 C   0  0  0  0  0  2  0  0  0  0  0  0
  188.3660  178.0600  140.9320 C   0  0  0  0  0  2  0  0  0  0  0  0
  189.3100  177.9800  142.0360 N   0  0  0  0  0  2  0  0  0  0  0  0
  189.4120  176.5830  142.4140 C   0  0  0  0  0  2  0  0  0  0  0  0
  191.2060  175.5660  143.5180 C   0  0  0  0  0  1  0  0  0  0  0  0
  190.0820  176.4680  143.7010 N   0  0  0  0  0  0  0  0  0  0  0  0
  190.6510  177.7690  143.9990 C   0  0  0  0  0  2  0  0  0  0  0  0
  190.0790  178.3000  145.3030 C   0  0  0  0  0  2  0  0  0  0  0  0
  189.1020  177.2990  145.9020 C   0  0  0  0  0  2  0  0  0  0  0  0
  189.4990  176.9150  147.3210 C   0  0  0  0  0  2  0  0  0  0  0  0
  188.8720  177.8660  148.3280 C   0  0  0  0  0  1  0  0  0  0  0  0
  184.4010  178.6340  138.5050 C   0  0  0  0  0  2  0  0  0  0  0  0
  183.7210  177.5330  139.3070 C   0  0  0  0  0  2  0  0  0  0  0  0
  183.6090  178.8110  144.2660 C   0  0  0  0  0  0  0  0  0  0  0  0
  183.7750  178.9950  145.6020 N   0  0  0  0  0  0  0  0  0  0  0  0
  182.7910  178.0990  140.2770 N   0  0  0  0  0  0  0  0  0  0  0  0
  184.9460  178.6970  146.2220 C   0  0  0  0  0  3  0  0  0  0  0  0
  184.6640  178.2990  143.4920 C   0  0  0  0  0  0  0  0  0  0  0  0
  186.0190  178.1920  145.4860 C   0  0  0  0  0  3  0  0  0  0  0  0
  185.8720  177.9940  144.1130 C   0  0  0  0  0  3  0  0  0  0  0  0
  184.5270  178.0980  142.0120 C   0  0  0  0  0  2  0  0  0  0  0  0
  182.1070  178.9320  142.3990 C   0  0  0  0  0  3  0  0  0  0  0  0
  182.3520  179.1330  143.6580 N   0  0  0  0  0  0  0  0  0  0  0  0
  183.1230  178.3580  141.5050 C   0  0  0  0  0  0  0  0  0  0  0  0
  1 15  1  0  0  0  0
  1  2  1  0  0  0  0
  3  2  1  0  0  0  0
  3  4  1  0  0  0  0
  4  5  1  0  0  0  0
  5  6  1  0  0  0  0
  6  7  1  0  0  0  0
  7  9  1  0  0  0  0
  8  9  1  0  0  0  0
  9 10  1  0  0  0  0
 10 11  1  0  0  0  0
 11 12  1  0  0  0  0
 12 13  1  0  0  0  0
 13 14  1  0  0  0  0
 15 16  1  0  0  0  0
 16 19  1  0  0  0  0
 17 18  2  0  0  0  0
 18 20  1  0  0  0  0
 19 27  2  0  0  0  0
 21 23  2  0  0  0  0
 21 17  1  0  0  0  0
 22 20  2  0  0  0  0
 23 22  1  0  0  0  0
 24 21  1  0  0  0  0
 25 26  2  0  0  0  0
 26 17  1  0  0  0  0
 27 24  1  0  0  0  0
 27 25  1  0  0  0  0
M  END
>  <MODEL>
7

>  <REMARK>
 VINA RESULT:      -6.3      1.966      6.185
  Name = 
  14 active torsions:
  status: ('A' for Active; 'I' for Inactive)
    1  A    between atoms: C_1  and  C_3
    2  A    between atoms: C_1  and  N_14
    3  A    between atoms: C_3  and  N_13
    4  A    between atoms: C_5  and  C_8
    5  A    between atoms: C_5  and  C_15
    6  A    between atoms: C_6  and  N_14
    7  A    between atoms: C_6  and  C_17
    8  A    between atoms: C_7  and  N_11
    9  A    between atoms: C_7  and  C_20
   10  A    between atoms: C_9  and  N_13
   11  A    between atoms: C_9  and  N_25
   12  A    between atoms: C_15  and  C_21
   13  A    between atoms: C_17  and  C_20
   14  A    between atoms: C_21  and  N_25
                            x       y       z     vdW  Elec       q    Type
                         _______ _______ _______ _____ _____    ______ ____

>  <TORSDO>
F 14

$$$$
=
 OpenBabel10222420203D

 27 28  0  0  0  0  0  0  0  0999 V2000
  186.7720  177.2640  145.1440 C   0  0  0  0  0  2  0  0  0  0  0  0
  187.2180  177.8410  143.8060 C   0  0  0  0  0  2  0  0  0  0  0  0
  187.9560  176.8520  143.0240 N   0  0  0  0  0  2  0  0  0  0  0  0
  188.3400  177.4890  141.7700 C   0  0  0  0  0  2  0  0  0  0  0  0
  189.7090  177.0120  141.3090 C   0  0  0  0  0  2  0  0  0  0  0  0
  190.7520  177.8670  141.8550 N   0  0  0  0  0  2  0  0  0  0  0  0
  191.5380  177.0580  142.7670 C   0  0  0  0  0  2  0  0  0  0  0  0
  191.1260  179.0810  143.8670 C   0  0  0  0  0  1  0  0  0  0  0  0
  191.6860  177.7520  144.0380 N   0  0  0  0  0  0  0  0  0  0  0  0
  190.8330  177.0720  144.9940 C   0  0  0  0  0  2  0  0  0  0  0  0
  191.6780  176.4310  146.0810 C   0  0  0  0  0  2  0  0  0  0  0  0
  191.0330  176.6320  147.4450 C   0  0  0  0  0  2  0  0  0  0  0  0
  189.5210  176.7610  147.3320 C   0  0  0  0  0  2  0  0  0  0  0  0
  189.0140  177.9020  148.1990 C   0  0  0  0  0  1  0  0  0  0  0  0
  185.7460  178.1450  145.8530 C   0  0  0  0  0  2  0  0  0  0  0  0
  185.2470  179.2800  144.9680 C   0  0  0  0  0  2  0  0  0  0  0  0
  181.6200  178.6620  141.4050 C   0  0  0  0  0  0  0  0  0  0  0  0
  180.8400  178.5570  140.2970 N   0  0  0  0  0  0  0  0  0  0  0  0
  183.7920  179.2570  144.8710 N   0  0  0  0  0  0  0  0  0  0  0  0
  181.3770  178.3920  139.0610 C   0  0  0  0  0  3  0  0  0  0  0  0
  183.0190  178.6020  141.2860 C   0  0  0  0  0  0  0  0  0  0  0  0
  182.7620  178.3230  138.9020 C   0  0  0  0  0  3  0  0  0  0  0  0
  183.5830  178.4270  140.0240 C   0  0  0  0  0  3  0  0  0  0  0  0
  183.9140  178.6960  142.4850 C   0  0  0  0  0  2  0  0  0  0  0  0
  181.6930  179.0030  143.7780 C   0  0  0  0  0  3  0  0  0  0  0  0
  181.0070  178.8420  142.6870 N   0  0  0  0  0  0  0  0  0  0  0  0
  183.1630  179.0040  143.7640 C   0  0  0  0  0  0  0  0  0  0  0  0
  1 15  1  0  0  0  0
  2  1  1  0  0  0  0
  3  2  1  0  0  0  0
  4  3  1  0  0  0  0
  5  4  1  0  0  0  0
  5  6  1  0  0  0  0
  6  7  1  0  0  0  0
  7  9  1  0  0  0  0
  8  9  1  0  0  0  0
  9 10  1  0  0  0  0
 10 11  1  0  0  0  0
 11 12  1  0  0  0  0
 13 12  1  0  0  0  0
 13 14  1  0  0  0  0
 16 15  1  0  0  0  0
 17 26  1  0  0  0  0
 18 17  2  0  0  0  0
 19 16  1  0  0  0  0
 20 18  1  0  0  0  0
 21 17  1  0  0  0  0
 21 24  1  0  0  0  0
 22 20  2  0  0  0  0
 22 23  1  0  0  0  0
 23 21  2  0  0  0  0
 24 27  1  0  0  0  0
 26 25  2  0  0  0  0
 27 25  1  0  0  0  0
 27 19  2  0  0  0  0
M  END
>  <MODEL>
8

>  <REMARK>
 VINA RESULT:      -6.3      2.603      7.953
  Name = 
  14 active torsions:
  status: ('A' for Active; 'I' for Inactive)
    1  A    between atoms: C_1  and  C_3
    2  A    between atoms: C_1  and  N_14
    3  A    between atoms: C_3  and  N_13
    4  A    between atoms: C_5  and  C_8
    5  A    between atoms: C_5  and  C_15
    6  A    between atoms: C_6  and  N_14
    7  A    between atoms: C_6  and  C_17
    8  A    between atoms: C_7  and  N_11
    9  A    between atoms: C_7  and  C_20
   10  A    between atoms: C_9  and  N_13
   11  A    between atoms: C_9  and  N_25
   12  A    between atoms: C_15  and  C_21
   13  A    between atoms: C_17  and  C_20
   14  A    between atoms: C_21  and  N_25
                            x       y       z     vdW  Elec       q    Type
                         _______ _______ _______ _____ _____    ______ ____

>  <TORSDO>
F 14

$$$$
=
 OpenBabel10222420203D

 27 28  0  0  0  0  0  0  0  0999 V2000
  189.3830  177.9040  147.4460 C   0  0  0  0  0  2  0  0  0  0  0  0
  190.1690  176.6090  147.2750 C   0  0  0  0  0  2  0  0  0  0  0  0
  191.2500  176.7720  146.3050 N   0  0  0  0  0  2  0  0  0  0  0  0
  190.6510  177.2420  145.0620 C   0  0  0  0  0  2  0  0  0  0  0  0
  191.6860  177.9170  144.1760 C   0  0  0  0  0  2  0  0  0  0  0  0
  191.4940  177.5300  142.7870 N   0  0  0  0  0  2  0  0  0  0  0  0
  190.0660  177.5370  142.5320 C   0  0  0  0  0  2  0  0  0  0  0  0
  188.7530  177.8390  140.6200 C   0  0  0  0  0  1  0  0  0  0  0  0
  189.8010  177.0170  141.1980 N   0  0  0  0  0  0  0  0  0  0  0  0
  190.9920  177.2600  140.4050 C   0  0  0  0  0  2  0  0  0  0  0  0
  190.7480  176.8490  138.9630 C   0  0  0  0  0  2  0  0  0  0  0  0
  191.9440  176.0800  138.4190 C   0  0  0  0  0  2  0  0  0  0  0  0
  192.0860  176.2650  136.9150 C   0  0  0  0  0  2  0  0  0  0  0  0
  193.4590  175.8100  136.4470 C   0  0  0  0  0  1  0  0  0  0  0  0
  188.0200  177.6830  148.1000 C   0  0  0  0  0  2  0  0  0  0  0  0
  186.8760  178.2240  147.2540 C   0  0  0  0  0  2  0  0  0  0  0  0
  184.3210  178.3250  142.8160 C   0  0  0  0  0  0  0  0  0  0  0  0
  183.4380  178.3360  141.7830 N   0  0  0  0  0  0  0  0  0  0  0  0
  187.1200  177.9760  145.8380 N   0  0  0  0  0  0  0  0  0  0  0  0
  182.1330  178.6630  141.9650 C   0  0  0  0  0  3  0  0  0  0  0  0
  183.8880  178.6550  144.1120 C   0  0  0  0  0  0  0  0  0  0  0  0
  181.6660  179.0010  143.2360 C   0  0  0  0  0  3  0  0  0  0  0  0
  182.5530  178.9970  144.3120 C   0  0  0  0  0  3  0  0  0  0  0  0
  184.8340  178.6710  145.2750 C   0  0  0  0  0  2  0  0  0  0  0  0
  186.5700  177.8830  143.5240 C   0  0  0  0  0  3  0  0  0  0  0  0
  185.6870  177.9660  142.5750 N   0  0  0  0  0  0  0  0  0  0  0  0
  186.2170  178.1610  144.9240 C   0  0  0  0  0  0  0  0  0  0  0  0
  1 15  1  0  0  0  0
  2  1  1  0  0  0  0
  3  2  1  0  0  0  0
  4  3  1  0  0  0  0
  5  4  1  0  0  0  0
  6  5  1  0  0  0  0
  7  6  1  0  0  0  0
  8  9  1  0  0  0  0
  9  7  1  0  0  0  0
 10  9  1  0  0  0  0
 11 10  1  0  0  0  0
 12 11  1  0  0  0  0
 13 12  1  0  0  0  0
 14 13  1  0  0  0  0
 16 15  1  0  0  0  0
 17 21  1  0  0  0  0
 18 20  1  0  0  0  0
 18 17  2  0  0  0  0
 19 16  1  0  0  0  0
 20 22  2  0  0  0  0
 21 23  2  0  0  0  0
 21 24  1  0  0  0  0
 22 23  1  0  0  0  0
 25 27  1  0  0  0  0
 26 17  1  0  0  0  0
 26 25  2  0  0  0  0
 27 24  1  0  0  0  0
 27 19  2  0  0  0  0
M  END
>  <MODEL>
9

>  <REMARK>
 VINA RESULT:      -6.2      2.064      7.656
  Name = 
  14 active torsions:
  status: ('A' for Active; 'I' for Inactive)
    1  A    between atoms: C_1  and  C_3
    2  A    between atoms: C_1  and  N_14
    3  A    between atoms: C_3  and  N_13
    4  A    between atoms: C_5  and  C_8
    5  A    between atoms: C_5  and  C_15
    6  A    between atoms: C_6  and  N_14
    7  A    between atoms: C_6  and  C_17
    8  A    between atoms: C_7  and  N_11
    9  A    between atoms: C_7  and  C_20
   10  A    between atoms: C_9  and  N_13
   11  A    between atoms: C_9  and  N_25
   12  A    between atoms: C_15  and  C_21
   13  A    between atoms: C_17  and  C_20
   14  A    between atoms: C_21  and  N_25
                            x       y       z     vdW  Elec       q    Type
                         _______ _______ _______ _____ _____    ______ ____

>  <TORSDO>
F 14

$$$$
