=
 OpenBabel10222419253D

 49 56  0  0  1  0  0  0  0  0999 V2000
  183.2980  175.5910  136.8670 C   0  0  1  0  0  3  0  0  0  0  0  0
  185.6310  178.6180  138.6690 C   0  0  0  0  0  2  0  0  0  0  0  0
  184.6120  177.9100  139.5680 C   0  0  2  0  0  3  0  0  0  0  0  0
  183.9120  174.7870  134.5940 C   0  0  0  0  0  1  0  0  0  0  0  0
  185.1910  176.6350  135.7060 C   0  0  0  0  0  2  0  0  0  0  0  0
  190.3100  175.1710  137.9800 C   0  0  0  0  0  2  0  0  0  0  0  0
  183.7980  176.0090  135.4850 C   0  0  2  0  0  3  0  0  0  0  0  0
  184.1490  176.3520  137.8000 C   0  0  0  0  0  0  0  0  0  0  0  0
  191.5320  177.8150  140.2910 O   0  0  0  0  0  0  0  0  0  0  0  0
  188.8790  177.2070  137.8840 C   0  0  0  0  0  0  0  0  0  0  0  0
  190.9970  177.3880  139.2310 C   0  0  0  0  0  0  0  0  0  0  0  0
  189.7080  177.8810  138.8430 N   0  0  0  0  0  2  0  0  0  0  0  0
  191.8410  176.1130  138.2690 S   0  0  0  0  0  0  0  0  0  0  0  0
  186.3030  177.6200  137.7770 C   0  0  0  0  0  0  0  0  0  0  0  0
  183.7220  177.0600  138.7890 N   0  0  0  0  0  0  0  0  0  0  0  0
  185.4960  176.4960  137.1950 C   0  0  2  0  0  3  0  0  0  0  0  0
  189.3820  176.0200  137.1170 C   0  0  0  0  0  2  0  0  0  0  0  0
  187.5990  177.4580  137.8470 C   0  0  0  0  0  0  0  0  0  0  0  0
  180.6310  172.2740  137.7100 C   0  0  0  0  0  3  0  0  0  0  0  0
  179.4610  176.6380  137.0300 C   0  0  0  0  0  3  0  0  0  0  0  0
  181.4360  177.9690  136.9060 O   0  0  0  0  0  0  0  0  0  0  0  0
  181.2050  174.4520  137.4070 C   0  0  0  0  0  0  0  0  0  0  0  0
  179.4260  173.1090  137.5490 N   0  0  0  0  0  0  0  0  0  0  0  0
  181.7820  173.1700  137.5510 N   0  0  0  0  0  0  0  0  0  0  0  0
  181.8180  175.6020  137.1260 C   0  0  0  0  0  0  0  0  0  0  0  0
  180.9450  176.8120  137.0210 C   0  0  0  0  0  0  0  0  0  0  0  0
  178.9310  175.4510  137.2010 N   0  0  0  0  0  0  0  0  0  0  0  0
  179.7930  174.3380  137.4560 C   0  0  0  0  0  0  0  0  0  0  0  0
  182.4980  178.7840  142.4130 O   0  0  0  0  0  0  0  0  0  0  0  0
  183.8160  178.9080  140.4210 C   0  0  2  0  0  3  0  0  0  0  0  0
  183.7530  178.4610  141.8710 C   0  0  1  0  0  3  0  0  0  0  0  0
  181.6040  178.9450  141.3290 C   0  0  0  0  0  2  0  0  0  0  0  0
  182.3640  178.8820  140.0220 C   0  0  0  0  0  2  0  0  0  0  0  0
  184.8450  179.1380  142.6960 C   0  0  0  0  0  2  0  0  0  0  0  0
  185.1890  178.2990  143.8360 N   0  0  0  0  0  2  0  0  0  0  0  0
  186.4540  177.6360  143.5220 C   0  0  0  0  0  2  0  0  0  0  0  0
  189.3940  177.7880  143.1300 C   0  0  0  0  0  2  0  0  0  0  0  0
  190.5870  175.6870  143.1280 N   0  0  0  0  0  1  0  0  0  0  0  0
  189.8060  177.9140  145.4960 C   0  0  1  0  0  3  0  0  0  0  0  0
  190.1630  176.5050  147.5100 C   0  0  0  0  0  2  0  0  0  0  0  0
  187.0000  177.3330  145.8670 N   0  0  0  0  0  0  0  0  0  0  0  0
  190.7290  177.1160  143.3690 C   0  0  2  0  0  3  0  0  0  0  0  0
  187.8640  177.2790  147.0540 C   0  0  1  0  0  3  0  0  0  0  0  0
  189.3090  177.0800  146.6530 C   0  0  0  0  0  0  0  0  0  0  0  0
  191.0630  177.3490  144.8390 C   0  0  0  0  0  2  0  0  0  0  0  0
  188.8030  177.9560  144.4440 N   0  0  0  0  0  0  0  0  0  0  0  0
  187.4050  177.7040  144.6840 C   0  0  0  0  0  0  0  0  0  0  0  0
  186.2940  179.1240  147.6830 C   0  0  0  0  0  1  0  0  0  0  0  0
  187.6920  178.5660  147.8570 C   0  0  0  0  0  2  0  0  0  0  0  0
  1 25  1  6  0  0  0
  1  8  1  0  0  0  0
  3  2  1  6  0  0  0
  3 30  1  0  0  0  0
  6 13  1  0  0  0  0
  7  4  1  6  0  0  0
  7  5  1  0  0  0  0
  7  1  1  0  0  0  0
  8 15  2  0  0  0  0
 10 12  1  0  0  0  0
 11  9  2  0  0  0  0
 12 11  1  0  0  0  0
 13 11  1  0  0  0  0
 14 18  2  0  0  0  0
 14  2  1  0  0  0  0
 15  3  1  0  0  0  0
 16  5  1  6  0  0  0
 16 14  1  0  0  0  0
 16  8  1  0  0  0  0
 17 10  1  0  0  0  0
 17  6  1  0  0  0  0
 18 10  2  0  0  0  0
 20 27  2  0  0  0  0
 21 26  2  0  0  0  0
 22 28  1  0  0  0  0
 22 24  1  0  0  0  0
 23 19  1  0  0  0  0
 24 19  2  0  0  0  0
 25 22  2  0  0  0  0
 26 20  1  0  0  0  0
 26 25  1  0  0  0  0
 27 28  1  0  0  0  0
 28 23  2  0  0  0  0
 30 33  1  6  0  0  0
 30 31  1  0  0  0  0
 31 29  1  0  0  0  0
 31 34  1  1  0  0  0
 32 29  1  0  0  0  0
 33 32  1  0  0  0  0
 34 35  1  0  0  0  0
 36 35  1  0  0  0  0
 36 47  1  0  0  0  0
 37 42  1  0  0  0  0
 37 46  1  0  0  0  0
 39 45  1  6  0  0  0
 39 44  1  0  0  0  0
 41 43  1  0  0  0  0
 42 38  1  1  0  0  0
 42 45  1  0  0  0  0
 43 49  1  6  0  0  0
 44 43  1  0  0  0  0
 44 40  2  0  0  0  0
 46 47  1  0  0  0  0
 46 39  1  0  0  0  0
 47 41  2  0  0  0  0
 48 49  1  0  0  0  0
M  END
>  <MODEL>
1

>  <REMARK>
 VINA RESULT:      -9.0      0.000      0.000
  Name = 
  7 active torsions:
  status: ('A' for Active; 'I' for Inactive)
    1  A    between atoms: C_3  and  C_42
    2  A    between atoms: C_8  and  C_14
    3  A    between atoms: C_13  and  N_39
    4  A    between atoms: C_13  and  C_41
    5  A    between atoms: C_18  and  C_47
    6  A    between atoms: C_20  and  C_31
    7  A    between atoms: N_39  and  C_47
                            x       y       z     vdW  Elec       q    Type
                         _______ _______ _______ _____ _____    ______ ____

>  <TORSDO>
F 7

$$$$
=
 OpenBabel10222419253D

 49 56  0  0  1  0  0  0  0  0999 V2000
  186.5210  177.4980  144.7860 C   0  0  1  0  0  3  0  0  0  0  0  0
  186.3430  179.2840  140.9620 C   0  0  0  0  0  2  0  0  0  0  0  0
  187.3090  178.1050  141.1250 C   0  0  2  0  0  3  0  0  0  0  0  0
  184.8140  178.1160  146.4870 C   0  0  0  0  0  1  0  0  0  0  0  0
  184.8330  179.1860  144.2200 C   0  0  0  0  0  2  0  0  0  0  0  0
  180.8810  177.2440  140.4610 C   0  0  0  0  0  2  0  0  0  0  0  0
  185.7000  178.6440  145.3760 C   0  0  2  0  0  3  0  0  0  0  0  0
  186.4430  177.7130  143.3300 C   0  0  0  0  0  0  0  0  0  0  0  0
  181.7080  178.3240  137.0010 O   0  0  0  0  0  0  0  0  0  0  0  0
  182.7810  178.8530  140.4310 C   0  0  0  0  0  0  0  0  0  0  0  0
  181.5880  178.4870  138.2460 C   0  0  0  0  0  0  0  0  0  0  0  0
  182.7010  178.9810  139.0030 N   0  0  0  0  0  2  0  0  0  0  0  0
  180.0370  178.0270  139.0510 S   0  0  0  0  0  0  0  0  0  0  0  0
  185.0650  179.0000  141.6880 C   0  0  0  0  0  0  0  0  0  0  0  0
  187.4490  177.7270  142.5250 N   0  0  0  0  0  0  0  0  0  0  0  0
  185.1150  178.2950  143.0130 C   0  0  2  0  0  3  0  0  0  0  0  0
  181.6280  178.3270  141.2330 C   0  0  0  0  0  2  0  0  0  0  0  0
  183.9390  178.9560  141.0250 C   0  0  0  0  0  0  0  0  0  0  0  0
  188.1110  178.5320  148.6890 C   0  0  0  0  0  3  0  0  0  0  0  0
  190.3830  176.6320  145.2100 C   0  0  0  0  0  3  0  0  0  0  0  0
  188.8410  176.0740  143.4780 O   0  0  0  0  0  0  0  0  0  0  0  0
  188.1370  177.5980  146.6170 C   0  0  0  0  0  0  0  0  0  0  0  0
  189.4860  178.1550  148.3080 N   0  0  0  0  0  0  0  0  0  0  0  0
  187.2580  178.2120  147.5390 N   0  0  0  0  0  0  0  0  0  0  0  0
  187.8790  177.2190  145.3660 C   0  0  0  0  0  0  0  0  0  0  0  0
  189.0140  176.6020  144.6120 C   0  0  0  0  0  0  0  0  0  0  0  0
  190.5750  177.1270  146.4090 N   0  0  0  0  0  0  0  0  0  0  0  0
  189.4430  177.5670  147.1660 C   0  0  0  0  0  0  0  0  0  0  0  0
  190.1710  177.2300  139.0350 O   0  0  0  0  0  0  0  0  0  0  0  0
  188.6760  178.3980  140.4910 C   0  0  2  0  0  3  0  0  0  0  0  0
  188.8410  177.6580  139.1760 C   0  0  1  0  0  3  0  0  0  0  0  0
  190.7390  177.1980  140.3300 C   0  0  0  0  0  2  0  0  0  0  0  0
  189.7710  177.7930  141.3300 C   0  0  0  0  0  2  0  0  0  0  0  0
  188.4760  178.5570  137.9970 C   0  0  0  0  0  2  0  0  0  0  0  0
  187.0740  178.3670  137.6520 N   0  0  0  0  0  2  0  0  0  0  0  0
  187.0280  177.4750  136.4940 C   0  0  0  0  0  2  0  0  0  0  0  0
  188.3210  174.8370  136.9270 C   0  0  0  0  0  2  0  0  0  0  0  0
  188.5470  173.4200  134.9830 N   0  0  0  0  0  1  0  0  0  0  0  0
  186.2140  173.7580  137.3530 C   0  0  1  0  0  3  0  0  0  0  0  0
  184.3170  172.6260  136.2180 C   0  0  0  0  0  2  0  0  0  0  0  0
  184.9530  176.2180  136.5080 N   0  0  0  0  0  0  0  0  0  0  0  0
  188.4620  173.4120  136.4360 C   0  0  2  0  0  3  0  0  0  0  0  0
  184.0910  175.0400  136.6790 C   0  0  1  0  0  3  0  0  0  0  0  0
  184.9050  173.7680  136.5990 C   0  0  0  0  0  0  0  0  0  0  0  0
  187.1870  172.6890  136.8630 C   0  0  0  0  0  2  0  0  0  0  0  0
  186.9040  175.0250  137.1700 N   0  0  0  0  0  0  0  0  0  0  0  0
  186.2250  176.2400  136.7920 C   0  0  0  0  0  0  0  0  0  0  0  0
  181.8970  174.8030  137.8610 C   0  0  0  0  0  1  0  0  0  0  0  0
  183.3650  175.1410  138.0180 C   0  0  0  0  0  2  0  0  0  0  0  0
  1 25  1  1  0  0  0
  1  7  1  0  0  0  0
  2 14  1  0  0  0  0
  3  2  1  1  0  0  0
  3 15  1  0  0  0  0
  5  7  1  0  0  0  0
  6 17  1  0  0  0  0
  7  4  1  1  0  0  0
  8  1  1  0  0  0  0
  9 11  2  0  0  0  0
 10 18  2  0  0  0  0
 10 17  1  0  0  0  0
 11 12  1  0  0  0  0
 11 13  1  0  0  0  0
 12 10  1  0  0  0  0
 13  6  1  0  0  0  0
 14 16  1  0  0  0  0
 15  8  2  0  0  0  0
 16  8  1  0  0  0  0
 16  5  1  1  0  0  0
 18 14  2  0  0  0  0
 20 27  2  0  0  0  0
 21 26  2  0  0  0  0
 22 28  1  0  0  0  0
 22 24  1  0  0  0  0
 23 19  1  0  0  0  0
 24 19  2  0  0  0  0
 25 22  2  0  0  0  0
 26 20  1  0  0  0  0
 26 25  1  0  0  0  0
 27 28  1  0  0  0  0
 28 23  2  0  0  0  0
 29 31  1  0  0  0  0
 29 32  1  0  0  0  0
 30  3  1  0  0  0  0
 30 33  1  1  0  0  0
 31 34  1  6  0  0  0
 31 30  1  0  0  0  0
 32 33  1  0  0  0  0
 35 34  1  0  0  0  0
 36 47  1  0  0  0  0
 36 35  1  0  0  0  0
 37 46  1  0  0  0  0
 39 45  1  6  0  0  0
 40 44  2  0  0  0  0
 41 43  1  0  0  0  0
 41 47  2  0  0  0  0
 42 38  1  6  0  0  0
 42 45  1  0  0  0  0
 42 37  1  0  0  0  0
 43 49  1  1  0  0  0
 44 43  1  0  0  0  0
 44 39  1  0  0  0  0
 46 39  1  0  0  0  0
 47 46  1  0  0  0  0
 48 49  1  0  0  0  0
M  END
>  <MODEL>
2

>  <REMARK>
 VINA RESULT:      -8.4      2.862      9.697
  Name = 
  7 active torsions:
  status: ('A' for Active; 'I' for Inactive)
    1  A    between atoms: C_3  and  C_42
    2  A    between atoms: C_8  and  C_14
    3  A    between atoms: C_13  and  N_39
    4  A    between atoms: C_13  and  C_41
    5  A    between atoms: C_18  and  C_47
    6  A    between atoms: C_20  and  C_31
    7  A    between atoms: N_39  and  C_47
                            x       y       z     vdW  Elec       q    Type
                         _______ _______ _______ _____ _____    ______ ____

>  <TORSDO>
F 7

$$$$
=
 OpenBabel10222419253D

 49 56  0  0  1  0  0  0  0  0999 V2000
  181.4690  174.7520  137.2720 C   0  0  1  0  0  3  0  0  0  0  0  0
  183.8750  178.1230  138.1080 C   0  0  0  0  0  2  0  0  0  0  0  0
  184.1520  177.3910  136.7900 C   0  0  2  0  0  3  0  0  0  0  0  0
  179.4700  174.3150  138.6860 C   0  0  0  0  0  1  0  0  0  0  0  0
  180.9980  176.2450  139.1600 C   0  0  0  0  0  2  0  0  0  0  0  0
  179.1040  181.4550  137.4900 C   0  0  0  0  0  2  0  0  0  0  0  0
  180.9140  174.7760  138.6950 C   0  0  2  0  0  3  0  0  0  0  0  0
  182.2180  176.0170  137.1570 C   0  0  0  0  0  0  0  0  0  0  0  0
  181.8780  183.9300  137.4900 O   0  0  0  0  0  0  0  0  0  0  0  0
  181.1740  180.5130  138.5020 C   0  0  0  0  0  0  0  0  0  0  0  0
  181.2090  182.9700  137.9620 C   0  0  0  0  0  0  0  0  0  0  0  0
  181.8760  181.7510  138.3120 N   0  0  0  0  0  2  0  0  0  0  0  0
  179.4160  183.1350  138.1170 S   0  0  0  0  0  0  0  0  0  0  0  0
  182.3980  178.2120  138.3400 C   0  0  0  0  0  0  0  0  0  0  0  0
  183.4260  176.1300  136.7240 N   0  0  0  0  0  0  0  0  0  0  0  0
  181.5260  177.0460  137.9720 C   0  0  2  0  0  3  0  0  0  0  0  0
  179.6760  180.4570  138.4920 C   0  0  0  0  0  2  0  0  0  0  0  0
  181.8260  179.3830  138.4370 C   0  0  0  0  0  0  0  0  0  0  0  0
  180.0100  171.6640  134.5940 C   0  0  0  0  0  3  0  0  0  0  0  0
  183.9370  171.6460  136.9310 C   0  0  0  0  0  3  0  0  0  0  0  0
  184.2380  173.7700  137.9730 O   0  0  0  0  0  0  0  0  0  0  0  0
  181.5240  172.7110  135.9280 C   0  0  0  0  0  0  0  0  0  0  0  0
  181.1410  170.7660  134.8980 N   0  0  0  0  0  0  0  0  0  0  0  0
  180.2580  172.9090  135.3300 N   0  0  0  0  0  0  0  0  0  0  0  0
  182.1570  173.5040  136.7920 C   0  0  0  0  0  0  0  0  0  0  0  0
  183.4920  173.0320  137.2730 C   0  0  0  0  0  0  0  0  0  0  0  0
  183.2010  170.8820  136.1610 N   0  0  0  0  0  0  0  0  0  0  0  0
  182.0040  171.4210  135.5910 C   0  0  0  0  0  0  0  0  0  0  0  0
  187.6060  178.5590  136.6120 O   0  0  0  0  0  0  0  0  0  0  0  0
  185.6560  177.1770  136.5650 C   0  0  2  0  0  3  0  0  0  0  0  0
  186.4770  178.1790  137.3560 C   0  0  1  0  0  3  0  0  0  0  0  0
  187.3270  178.2770  135.2550 C   0  0  0  0  0  2  0  0  0  0  0  0
  186.0170  177.5260  135.1450 C   0  0  0  0  0  2  0  0  0  0  0  0
  186.9310  177.5810  138.6850 C   0  0  0  0  0  2  0  0  0  0  0  0
  187.4680  178.6320  139.5380 N   0  0  0  0  0  2  0  0  0  0  0  0
  186.6360  178.6860  140.7390 C   0  0  0  0  0  2  0  0  0  0  0  0
  185.2170  178.0400  143.2670 C   0  0  0  0  0  2  0  0  0  0  0  0
  185.2070  179.7620  144.9620 N   0  0  0  0  0  1  0  0  0  0  0  0
  187.2160  177.1760  144.2890 C   0  0  1  0  0  3  0  0  0  0  0  0
  189.2100  177.8610  145.6010 C   0  0  0  0  0  2  0  0  0  0  0  0
  188.6520  178.2020  142.0000 N   0  0  0  0  0  0  0  0  0  0  0  0
  185.0990  178.3250  144.7490 C   0  0  2  0  0  3  0  0  0  0  0  0
  189.4470  177.7410  143.1470 C   0  0  1  0  0  3  0  0  0  0  0  0
  188.6120  177.7390  144.4080 C   0  0  0  0  0  0  0  0  0  0  0  0
  186.2830  177.6270  145.4100 C   0  0  0  0  0  2  0  0  0  0  0  0
  186.5950  177.6390  143.0580 N   0  0  0  0  0  0  0  0  0  0  0  0
  187.3540  178.0990  141.9230 C   0  0  0  0  0  0  0  0  0  0  0  0
  191.4570  176.2510  143.2240 C   0  0  0  0  0  1  0  0  0  0  0  0
  189.9920  176.3470  142.8490 C   0  0  0  0  0  2  0  0  0  0  0  0
  1 25  1  1  0  0  0
  1  7  1  0  0  0  0
  2 14  1  0  0  0  0
  3  2  1  1  0  0  0
  6 13  1  0  0  0  0
  6 17  1  0  0  0  0
  7  4  1  6  0  0  0
  7  5  1  0  0  0  0
  8  1  1  0  0  0  0
  8 16  1  0  0  0  0
  9 11  2  0  0  0  0
 11 13  1  0  0  0  0
 11 12  1  0  0  0  0
 12 10  1  0  0  0  0
 14 18  2  0  0  0  0
 15  3  1  0  0  0  0
 15  8  2  0  0  0  0
 16 14  1  0  0  0  0
 16  5  1  1  0  0  0
 17 10  1  0  0  0  0
 18 10  2  0  0  0  0
 19 23  1  0  0  0  0
 19 24  2  0  0  0  0
 20 26  1  0  0  0  0
 22 25  2  0  0  0  0
 23 28  2  0  0  0  0
 24 22  1  0  0  0  0
 25 26  1  0  0  0  0
 26 21  2  0  0  0  0
 27 20  2  0  0  0  0
 28 22  1  0  0  0  0
 28 27  1  0  0  0  0
 29 31  1  0  0  0  0
 30 33  1  6  0  0  0
 30  3  1  0  0  0  0
 30 31  1  0  0  0  0
 31 34  1  1  0  0  0
 32 29  1  0  0  0  0
 33 32  1  0  0  0  0
 34 35  1  0  0  0  0
 35 36  1  0  0  0  0
 36 47  1  0  0  0  0
 37 42  1  0  0  0  0
 39 44  1  0  0  0  0
 39 45  1  1  0  0  0
 41 43  1  0  0  0  0
 42 38  1  6  0  0  0
 42 45  1  0  0  0  0
 43 49  1  6  0  0  0
 43 44  1  0  0  0  0
 44 40  2  0  0  0  0
 46 37  1  0  0  0  0
 46 39  1  0  0  0  0
 47 41  2  0  0  0  0
 47 46  1  0  0  0  0
 49 48  1  0  0  0  0
M  END
>  <MODEL>
3

>  <REMARK>
 VINA RESULT:      -8.1      3.303      6.118
  Name = 
  7 active torsions:
  status: ('A' for Active; 'I' for Inactive)
    1  A    between atoms: C_3  and  C_42
    2  A    between atoms: C_8  and  C_14
    3  A    between atoms: C_13  and  N_39
    4  A    between atoms: C_13  and  C_41
    5  A    between atoms: C_18  and  C_47
    6  A    between atoms: C_20  and  C_31
    7  A    between atoms: N_39  and  C_47
                            x       y       z     vdW  Elec       q    Type
                         _______ _______ _______ _____ _____    ______ ____

>  <TORSDO>
F 7

$$$$
=
 OpenBabel10222419253D

 49 56  0  0  1  0  0  0  0  0999 V2000
  181.4530  174.9660  137.7720 C   0  0  1  0  0  3  0  0  0  0  0  0
  185.1130  176.4890  136.3090 C   0  0  0  0  0  2  0  0  0  0  0  0
  184.8100  176.7350  137.7920 C   0  0  2  0  0  3  0  0  0  0  0  0
  180.1370  173.4110  136.3450 C   0  0  0  0  0  1  0  0  0  0  0  0
  182.2780  174.4260  135.5250 C   0  0  0  0  0  2  0  0  0  0  0  0
  186.9210  170.9680  135.6050 C   0  0  0  0  0  2  0  0  0  0  0  0
  180.9940  174.6620  136.3470 C   0  0  2  0  0  3  0  0  0  0  0  0
  182.8760  175.3220  137.6210 C   0  0  0  0  0  0  0  0  0  0  0  0
  190.0460  172.9450  135.2130 O   0  0  0  0  0  0  0  0  0  0  0  0
  186.4380  173.3500  135.0650 C   0  0  0  0  0  0  0  0  0  0  0  0
  188.8500  172.6410  134.9490 C   0  0  0  0  0  0  0  0  0  0  0  0
  187.8390  173.6570  134.9890 N   0  0  0  0  0  2  0  0  0  0  0  0
  188.4340  170.9180  134.5940 S   0  0  0  0  0  0  0  0  0  0  0  0
  184.7040  175.0990  135.9300 C   0  0  0  0  0  0  0  0  0  0  0  0
  183.4380  176.3700  138.1170 N   0  0  0  0  0  0  0  0  0  0  0  0
  183.4430  174.5220  136.5070 C   0  0  2  0  0  3  0  0  0  0  0  0
  185.9420  171.9400  134.9530 C   0  0  0  0  0  2  0  0  0  0  0  0
  185.5990  174.2600  135.4800 C   0  0  0  0  0  0  0  0  0  0  0  0
  180.2660  179.0780  137.0560 C   0  0  0  0  0  3  0  0  0  0  0  0
  179.5050  176.6130  140.8270 C   0  0  0  0  0  3  0  0  0  0  0  0
  180.1660  174.3560  140.4350 O   0  0  0  0  0  0  0  0  0  0  0  0
  180.3340  177.1010  138.1750 C   0  0  0  0  0  0  0  0  0  0  0  0
  179.7400  179.2400  138.4250 N   0  0  0  0  0  0  0  0  0  0  0  0
  180.7040  177.6830  136.9410 N   0  0  0  0  0  0  0  0  0  0  0  0
  180.6070  175.8740  138.6190 C   0  0  0  0  0  0  0  0  0  0  0  0
  180.0940  175.5310  139.9820 C   0  0  0  0  0  0  0  0  0  0  0  0
  179.3720  177.8290  140.3550 N   0  0  0  0  0  0  0  0  0  0  0  0
  179.7280  178.0860  138.9940 C   0  0  0  0  0  0  0  0  0  0  0  0
  185.2970  179.3730  140.2660 O   0  0  0  0  0  0  0  0  0  0  0  0
  185.1090  178.1840  138.2000 C   0  0  2  0  0  3  0  0  0  0  0  0
  185.7600  178.2440  139.5710 C   0  0  1  0  0  3  0  0  0  0  0  0
  184.0720  179.7570  139.6730 C   0  0  0  0  0  2  0  0  0  0  0  0
  183.8210  178.9280  138.4320 C   0  0  0  0  0  2  0  0  0  0  0  0
  187.2790  178.3180  139.4480 C   0  0  0  0  0  2  0  0  0  0  0  0
  187.8540  178.7380  140.7190 N   0  0  0  0  0  2  0  0  0  0  0  0
  188.2820  177.5300  141.4240 C   0  0  0  0  0  2  0  0  0  0  0  0
  190.7510  177.8770  143.0370 C   0  0  0  0  0  2  0  0  0  0  0  0
  191.6980  175.8720  143.9950 N   0  0  0  0  0  1  0  0  0  0  0  0
  189.5050  178.1500  145.0760 C   0  0  1  0  0  3  0  0  0  0  0  0
  188.4820  176.8730  146.9440 C   0  0  0  0  0  2  0  0  0  0  0  0
  187.1600  177.3850  143.5700 N   0  0  0  0  0  0  0  0  0  0  0  0
  191.6150  177.3170  144.1460 C   0  0  2  0  0  3  0  0  0  0  0  0
  187.0320  177.4530  145.0320 C   0  0  1  0  0  3  0  0  0  0  0  0
  188.3880  177.3410  145.6910 C   0  0  0  0  0  0  0  0  0  0  0  0
  190.8960  177.6470  145.4510 C   0  0  0  0  0  2  0  0  0  0  0  0
  189.4390  178.0670  143.6250 N   0  0  0  0  0  0  0  0  0  0  0  0
  188.2340  177.7260  142.9130 C   0  0  0  0  0  0  0  0  0  0  0  0
  185.1900  178.5080  146.3600 C   0  0  0  0  0  1  0  0  0  0  0  0
  186.3450  178.7620  145.4130 C   0  0  0  0  0  2  0  0  0  0  0  0
  1 25  1  6  0  0  0
  3  2  1  6  0  0  0
  3 15  1  0  0  0  0
  3 30  1  0  0  0  0
  5  7  1  0  0  0  0
  7  4  1  1  0  0  0
  7  1  1  0  0  0  0
  8  1  1  0  0  0  0
  8 15  2  0  0  0  0
 10 18  2  0  0  0  0
 11 12  1  0  0  0  0
 11  9  2  0  0  0  0
 12 10  1  0  0  0  0
 13 11  1  0  0  0  0
 13  6  1  0  0  0  0
 14  2  1  0  0  0  0
 14 16  1  0  0  0  0
 16  5  1  6  0  0  0
 16  8  1  0  0  0  0
 17 10  1  0  0  0  0
 17  6  1  0  0  0  0
 18 14  2  0  0  0  0
 19 23  1  0  0  0  0
 22 25  2  0  0  0  0
 22 28  1  0  0  0  0
 23 28  2  0  0  0  0
 24 19  2  0  0  0  0
 24 22  1  0  0  0  0
 25 26  1  0  0  0  0
 26 21  2  0  0  0  0
 26 20  1  0  0  0  0
 27 20  2  0  0  0  0
 28 27  1  0  0  0  0
 30 33  1  1  0  0  0
 30 31  1  0  0  0  0
 31 34  1  6  0  0  0
 31 29  1  0  0  0  0
 32 29  1  0  0  0  0
 33 32  1  0  0  0  0
 34 35  1  0  0  0  0
 35 36  1  0  0  0  0
 36 47  1  0  0  0  0
 37 46  1  0  0  0  0
 37 42  1  0  0  0  0
 39 45  1  1  0  0  0
 39 44  1  0  0  0  0
 41 43  1  0  0  0  0
 42 38  1  6  0  0  0
 42 45  1  0  0  0  0
 43 49  1  6  0  0  0
 43 44  1  0  0  0  0
 44 40  2  0  0  0  0
 46 39  1  0  0  0  0
 47 41  2  0  0  0  0
 47 46  1  0  0  0  0
 49 48  1  0  0  0  0
M  END
>  <MODEL>
4

>  <REMARK>
 VINA RESULT:      -8.0      2.768      3.823
  Name = 
  7 active torsions:
  status: ('A' for Active; 'I' for Inactive)
    1  A    between atoms: C_3  and  C_42
    2  A    between atoms: C_8  and  C_14
    3  A    between atoms: C_13  and  N_39
    4  A    between atoms: C_13  and  C_41
    5  A    between atoms: C_18  and  C_47
    6  A    between atoms: C_20  and  C_31
    7  A    between atoms: N_39  and  C_47
                            x       y       z     vdW  Elec       q    Type
                         _______ _______ _______ _____ _____    ______ ____

>  <TORSDO>
F 7

$$$$
=
 OpenBabel10222419253D

 49 56  0  0  1  0  0  0  0  0999 V2000
  186.3860  177.5030  144.8440 C   0  0  1  0  0  3  0  0  0  0  0  0
  186.1090  179.3540  141.0560 C   0  0  0  0  0  2  0  0  0  0  0  0
  187.0850  178.1790  141.1760 C   0  0  2  0  0  3  0  0  0  0  0  0
  184.7150  178.0800  146.5940 C   0  0  0  0  0  1  0  0  0  0  0  0
  184.6750  179.1890  144.3460 C   0  0  0  0  0  2  0  0  0  0  0  0
  180.6500  177.2850  140.6450 C   0  0  0  0  0  2  0  0  0  0  0  0
  185.5710  178.6320  145.4720 C   0  0  2  0  0  3  0  0  0  0  0  0
  186.2730  177.7430  143.3940 C   0  0  0  0  0  0  0  0  0  0  0  0
  181.3900  178.4320  137.1860 O   0  0  0  0  0  0  0  0  0  0  0  0
  182.5380  178.9080  140.6000 C   0  0  0  0  0  0  0  0  0  0  0  0
  181.2980  178.5720  138.4370 C   0  0  0  0  0  0  0  0  0  0  0  0
  182.4250  179.0600  139.1770 N   0  0  0  0  0  2  0  0  0  0  0  0
  179.7690  178.0870  139.2680 S   0  0  0  0  0  0  0  0  0  0  0  0
  184.8490  179.0480  141.8070 C   0  0  0  0  0  0  0  0  0  0  0  0
  187.2600  177.7780  142.5660 N   0  0  0  0  0  0  0  0  0  0  0  0
  184.9340  178.3210  143.1180 C   0  0  2  0  0  3  0  0  0  0  0  0
  181.4070  178.3600  141.4180 C   0  0  0  0  0  2  0  0  0  0  0  0
  183.7090  179.0080  141.1690 C   0  0  0  0  0  0  0  0  0  0  0  0
  188.0980  178.5850  148.6810 C   0  0  0  0  0  3  0  0  0  0  0  0
  190.2530  176.6160  145.1660 C   0  0  0  0  0  3  0  0  0  0  0  0
  188.6570  176.0430  143.4900 O   0  0  0  0  0  0  0  0  0  0  0  0
  188.0560  177.6200  146.6240 C   0  0  0  0  0  0  0  0  0  0  0  0
  189.4590  178.1930  148.2650 N   0  0  0  0  0  0  0  0  0  0  0  0
  187.2090  178.2540  147.5620 N   0  0  0  0  0  0  0  0  0  0  0  0
  187.7590  177.2230  145.3870 C   0  0  0  0  0  0  0  0  0  0  0  0
  188.8670  176.5860  144.6090 C   0  0  0  0  0  0  0  0  0  0  0  0
  190.4840  177.1280  146.3510 N   0  0  0  0  0  0  0  0  0  0  0  0
  189.3780  177.5870  147.1340 C   0  0  0  0  0  0  0  0  0  0  0  0
  190.0850  177.2410  139.3190 O   0  0  0  0  0  0  0  0  0  0  0  0
  188.4360  178.4920  140.5170 C   0  0  2  0  0  3  0  0  0  0  0  0
  188.7150  177.5460  139.3620 C   0  0  1  0  0  3  0  0  0  0  0  0
  190.6120  177.5030  140.6050 C   0  0  0  0  0  2  0  0  0  0  0  0
  189.5590  178.1660  141.4670 C   0  0  0  0  0  2  0  0  0  0  0  0
  188.2990  178.1740  138.0340 C   0  0  0  0  0  2  0  0  0  0  0  0
  189.3730  178.0200  137.0620 N   0  0  0  0  0  2  0  0  0  0  0  0
  188.7640  177.5900  135.8050 C   0  0  0  0  0  2  0  0  0  0  0  0
  185.8420  177.1280  135.5440 C   0  0  0  0  0  2  0  0  0  0  0  0
  184.5630  177.1590  137.5940 N   0  0  0  0  0  1  0  0  0  0  0  0
  186.0860  174.7540  135.8420 C   0  0  1  0  0  3  0  0  0  0  0  0
  186.1940  172.9890  137.5860 C   0  0  0  0  0  2  0  0  0  0  0  0
  188.8470  175.2720  136.5180 N   0  0  0  0  0  0  0  0  0  0  0  0
  184.5800  176.6500  136.2300 C   0  0  2  0  0  3  0  0  0  0  0  0
  188.3310  173.9210  136.7740 C   0  0  1  0  0  3  0  0  0  0  0  0
  186.8220  173.9370  136.8770 C   0  0  0  0  0  0  0  0  0  0  0  0
  184.6660  175.1270  136.2610 C   0  0  0  0  0  2  0  0  0  0  0  0
  186.7710  176.0180  135.6240 N   0  0  0  0  0  0  0  0  0  0  0  0
  188.1650  176.2170  135.9340 C   0  0  0  0  0  0  0  0  0  0  0  0
  190.3020  173.0030  135.5330 C   0  0  0  0  0  1  0  0  0  0  0  0
  188.7920  172.9890  135.6560 C   0  0  0  0  0  2  0  0  0  0  0  0
  1 25  1  1  0  0  0
  1  7  1  0  0  0  0
  2 14  1  0  0  0  0
  3  2  1  1  0  0  0
  3 15  1  0  0  0  0
  5  7  1  0  0  0  0
  6 17  1  0  0  0  0
  7  4  1  1  0  0  0
  8  1  1  0  0  0  0
  9 11  2  0  0  0  0
 10 18  2  0  0  0  0
 10 17  1  0  0  0  0
 11 12  1  0  0  0  0
 11 13  1  0  0  0  0
 12 10  1  0  0  0  0
 13  6  1  0  0  0  0
 14 16  1  0  0  0  0
 15  8  2  0  0  0  0
 16  8  1  0  0  0  0
 16  5  1  1  0  0  0
 18 14  2  0  0  0  0
 20 27  2  0  0  0  0
 21 26  2  0  0  0  0
 22 28  1  0  0  0  0
 22 24  1  0  0  0  0
 23 19  1  0  0  0  0
 24 19  2  0  0  0  0
 25 22  2  0  0  0  0
 26 20  1  0  0  0  0
 26 25  1  0  0  0  0
 27 28  1  0  0  0  0
 28 23  2  0  0  0  0
 29 31  1  0  0  0  0
 29 32  1  0  0  0  0
 30  3  1  0  0  0  0
 30 33  1  1  0  0  0
 31 34  1  6  0  0  0
 31 30  1  0  0  0  0
 32 33  1  0  0  0  0
 35 34  1  0  0  0  0
 36 47  1  0  0  0  0
 36 35  1  0  0  0  0
 37 46  1  0  0  0  0
 37 42  1  0  0  0  0
 39 45  1  1  0  0  0
 39 44  1  0  0  0  0
 41 43  1  0  0  0  0
 42 45  1  0  0  0  0
 42 38  1  1  0  0  0
 43 49  1  6  0  0  0
 43 44  1  0  0  0  0
 44 40  2  0  0  0  0
 46 39  1  0  0  0  0
 46 47  1  0  0  0  0
 47 41  2  0  0  0  0
 48 49  1  0  0  0  0
M  END
>  <MODEL>
5

>  <REMARK>
 VINA RESULT:      -8.0      3.064      9.913
  Name = 
  7 active torsions:
  status: ('A' for Active; 'I' for Inactive)
    1  A    between atoms: C_3  and  C_42
    2  A    between atoms: C_8  and  C_14
    3  A    between atoms: C_13  and  N_39
    4  A    between atoms: C_13  and  C_41
    5  A    between atoms: C_18  and  C_47
    6  A    between atoms: C_20  and  C_31
    7  A    between atoms: N_39  and  C_47
                            x       y       z     vdW  Elec       q    Type
                         _______ _______ _______ _____ _____    ______ ____

>  <TORSDO>
F 7

$$$$
=
 OpenBabel10222419253D

 49 56  0  0  1  0  0  0  0  0999 V2000
  188.7080  173.3970  136.3440 C   0  0  1  0  0  3  0  0  0  0  0  0
  191.7010  176.3130  136.9750 C   0  0  0  0  0  2  0  0  0  0  0  0
  190.5790  176.2430  138.0180 C   0  0  2  0  0  3  0  0  0  0  0  0
  189.0620  171.6650  134.5950 C   0  0  0  0  0  1  0  0  0  0  0  0
  190.7470  173.4800  134.9820 C   0  0  0  0  0  2  0  0  0  0  0  0
  195.4890  171.9570  137.9330 C   0  0  0  0  0  2  0  0  0  0  0  0
  189.2450  173.1300  134.9390 C   0  0  2  0  0  3  0  0  0  0  0  0
  189.7330  174.2600  136.9610 C   0  0  0  0  0  0  0  0  0  0  0  0
  197.3290  174.9620  139.1170 O   0  0  0  0  0  0  0  0  0  0  0  0
  194.5360  174.0500  136.9810 C   0  0  0  0  0  0  0  0  0  0  0  0
  196.6820  174.2830  138.2740 C   0  0  0  0  0  0  0  0  0  0  0  0
  195.5210  174.8500  137.6530 N   0  0  0  0  0  2  0  0  0  0  0  0
  197.1970  172.5860  137.9250 S   0  0  0  0  0  0  0  0  0  0  0  0
  192.1110  174.9290  136.5760 C   0  0  0  0  0  0  0  0  0  0  0  0
  189.5010  175.3680  137.5750 N   0  0  0  0  0  0  0  0  0  0  0  0
  191.0600  173.8660  136.4250 C   0  0  2  0  0  3  0  0  0  0  0  0
  194.7430  172.5820  136.7590 C   0  0  0  0  0  2  0  0  0  0  0  0
  193.3410  174.5340  136.7760 C   0  0  0  0  0  0  0  0  0  0  0  0
  186.6510  176.7940  134.5960 C   0  0  0  0  0  3  0  0  0  0  0  0
  184.9850  173.8580  137.6750 C   0  0  0  0  0  3  0  0  0  0  0  0
  186.5400  172.0760  137.9800 O   0  0  0  0  0  0  0  0  0  0  0  0
  186.8450  174.8910  135.8220 C   0  0  0  0  0  0  0  0  0  0  0  0
  185.4610  176.6030  135.4480 N   0  0  0  0  0  0  0  0  0  0  0  0
  187.5670  175.6910  134.9070 N   0  0  0  0  0  0  0  0  0  0  0  0
  187.2740  173.8230  136.4950 C   0  0  0  0  0  0  0  0  0  0  0  0
  186.2880  173.1740  137.4120 C   0  0  0  0  0  0  0  0  0  0  0  0
  184.6800  174.9720  137.0540 N   0  0  0  0  0  0  0  0  0  0  0  0
  185.5810  175.4820  136.0660 C   0  0  0  0  0  0  0  0  0  0  0  0
  187.9410  178.5430  139.0550 O   0  0  0  0  0  0  0  0  0  0  0  0
  190.0470  177.6380  138.3750 C   0  0  2  0  0  3  0  0  0  0  0  0
  188.8880  177.5500  139.3520 C   0  0  1  0  0  3  0  0  0  0  0  0
  188.1460  178.9270  137.7090 C   0  0  0  0  0  2  0  0  0  0  0  0
  189.3950  178.2630  137.1700 C   0  0  0  0  0  2  0  0  0  0  0  0
  189.3730  177.7330  140.7880 C   0  0  0  0  0  2  0  0  0  0  0  0
  189.5370  176.4310  141.4190 N   0  0  0  0  0  2  0  0  0  0  0  0
  190.0020  176.6660  142.7860 C   0  0  0  0  0  2  0  0  0  0  0  0
  190.5030  177.6270  145.5500 C   0  0  0  0  0  2  0  0  0  0  0  0
  190.2060  176.0100  147.3200 N   0  0  0  0  0  1  0  0  0  0  0  0
  188.2010  178.2520  145.8610 C   0  0  1  0  0  3  0  0  0  0  0  0
  186.0000  177.3590  146.5870 C   0  0  0  0  0  2  0  0  0  0  0  0
  187.6570  176.9230  143.3530 N   0  0  0  0  0  0  0  0  0  0  0  0
  190.2010  177.4350  147.0210 C   0  0  2  0  0  3  0  0  0  0  0  0
  186.5030  177.3240  144.1710 C   0  0  1  0  0  3  0  0  0  0  0  0
  186.9120  177.5050  145.6150 C   0  0  0  0  0  0  0  0  0  0  0  0
  188.7980  177.9920  147.2420 C   0  0  0  0  0  2  0  0  0  0  0  0
  189.2150  177.8210  144.9120 N   0  0  0  0  0  0  0  0  0  0  0  0
  188.8950  177.2030  143.6500 C   0  0  0  0  0  0  0  0  0  0  0  0
  184.8670  178.3050  142.5500 C   0  0  0  0  0  1  0  0  0  0  0  0
  185.9110  178.6110  143.6040 C   0  0  0  0  0  2  0  0  0  0  0  0
  1 25  1  6  0  0  0
  1  8  1  0  0  0  0
  3  2  1  6  0  0  0
  3 30  1  0  0  0  0
  7  4  1  1  0  0  0
  7  5  1  0  0  0  0
  7  1  1  0  0  0  0
  8 15  2  0  0  0  0
 10 12  1  0  0  0  0
 11  9  2  0  0  0  0
 12 11  1  0  0  0  0
 13  6  1  0  0  0  0
 13 11  1  0  0  0  0
 14 18  2  0  0  0  0
 14  2  1  0  0  0  0
 15  3  1  0  0  0  0
 16  5  1  6  0  0  0
 16 14  1  0  0  0  0
 16  8  1  0  0  0  0
 17 10  1  0  0  0  0
 17  6  1  0  0  0  0
 18 10  2  0  0  0  0
 19 24  2  0  0  0  0
 19 23  1  0  0  0  0
 22 28  1  0  0  0  0
 22 25  2  0  0  0  0
 23 28  2  0  0  0  0
 24 22  1  0  0  0  0
 25 26  1  0  0  0  0
 26 20  1  0  0  0  0
 26 21  2  0  0  0  0
 27 20  2  0  0  0  0
 28 27  1  0  0  0  0
 29 31  1  0  0  0  0
 30 33  1  6  0  0  0
 30 31  1  0  0  0  0
 31 34  1  1  0  0  0
 32 29  1  0  0  0  0
 33 32  1  0  0  0  0
 34 35  1  0  0  0  0
 35 36  1  0  0  0  0
 36 47  1  0  0  0  0
 37 42  1  0  0  0  0
 39 45  1  1  0  0  0
 41 47  2  0  0  0  0
 41 43  1  0  0  0  0
 42 45  1  0  0  0  0
 42 38  1  6  0  0  0
 43 49  1  6  0  0  0
 43 44  1  0  0  0  0
 44 39  1  0  0  0  0
 44 40  2  0  0  0  0
 46 37  1  0  0  0  0
 46 39  1  0  0  0  0
 47 46  1  0  0  0  0
 48 49  1  0  0  0  0
M  END
>  <MODEL>
6

>  <REMARK>
 VINA RESULT:      -8.0      3.393      5.757
  Name = 
  7 active torsions:
  status: ('A' for Active; 'I' for Inactive)
    1  A    between atoms: C_3  and  C_42
    2  A    between atoms: C_8  and  C_14
    3  A    between atoms: C_13  and  N_39
    4  A    between atoms: C_13  and  C_41
    5  A    between atoms: C_18  and  C_47
    6  A    between atoms: C_20  and  C_31
    7  A    between atoms: N_39  and  C_47
                            x       y       z     vdW  Elec       q    Type
                         _______ _______ _______ _____ _____    ______ ____

>  <TORSDO>
F 7

$$$$
=
 OpenBabel10222419253D

 49 56  0  0  1  0  0  0  0  0999 V2000
  181.1050  180.5340  138.9060 C   0  0  1  0  0  3  0  0  0  0  0  0
  183.5240  177.2510  140.0100 C   0  0  0  0  0  2  0  0  0  0  0  0
  183.9910  178.0730  138.8030 C   0  0  2  0  0  3  0  0  0  0  0  0
  179.2890  181.2650  140.4410 C   0  0  0  0  0  1  0  0  0  0  0  0
  180.7200  179.2780  140.9780 C   0  0  0  0  0  2  0  0  0  0  0  0
  184.8680  180.1260  144.9270 C   0  0  0  0  0  2  0  0  0  0  0  0
  180.0070  180.0640  139.8570 C   0  0  2  0  0  3  0  0  0  0  0  0
  182.2580  179.6770  139.2370 C   0  0  0  0  0  0  0  0  0  0  0  0
  187.3430  177.3530  144.8570 O   0  0  0  0  0  0  0  0  0  0  0  0
  184.1280  178.2730  143.4380 C   0  0  0  0  0  0  0  0  0  0  0  0
  186.1800  177.8420  144.8280 C   0  0  0  0  0  0  0  0  0  0  0  0
  185.3000  177.5040  143.7480 N   0  0  0  0  0  2  0  0  0  0  0  0
  185.6820  179.0110  146.1130 S   0  0  0  0  0  0  0  0  0  0  0  0
  183.0120  178.1650  141.0800 C   0  0  0  0  0  0  0  0  0  0  0  0
  182.9690  179.0230  138.3850 N   0  0  0  0  0  0  0  0  0  0  0  0
  182.2160  179.3780  140.6900 C   0  0  2  0  0  3  0  0  0  0  0  0
  183.6740  179.3940  144.3240 C   0  0  0  0  0  2  0  0  0  0  0  0
  183.5850  178.1740  142.2540 C   0  0  0  0  0  0  0  0  0  0  0  0
  181.1800  184.1110  136.4500 C   0  0  0  0  0  3  0  0  0  0  0  0
  179.6660  179.9750  135.2360 C   0  0  0  0  0  3  0  0  0  0  0  0
  180.1820  178.4130  136.9630 O   0  0  0  0  0  0  0  0  0  0  0  0
  180.9060  181.8980  136.8880 C   0  0  0  0  0  0  0  0  0  0  0  0
  180.4830  183.4460  135.3330 N   0  0  0  0  0  0  0  0  0  0  0  0
  181.3900  183.0870  137.4800 N   0  0  0  0  0  0  0  0  0  0  0  0
  180.7690  180.6970  137.4500 C   0  0  0  0  0  0  0  0  0  0  0  0
  180.2140  179.6150  136.5800 C   0  0  0  0  0  0  0  0  0  0  0  0
  179.7370  181.2080  134.7970 N   0  0  0  0  0  0  0  0  0  0  0  0
  180.4160  182.1880  135.5900 C   0  0  0  0  0  0  0  0  0  0  0  0
  185.3120  177.5260  135.4440 O   0  0  0  0  0  0  0  0  0  0  0  0
  184.4210  177.1730  137.6350 C   0  0  2  0  0  3  0  0  0  0  0  0
  185.5010  177.8380  136.8000 C   0  0  1  0  0  3  0  0  0  0  0  0
  183.9600  177.1410  135.2880 C   0  0  0  0  0  2  0  0  0  0  0  0
  183.2940  177.0450  136.6440 C   0  0  0  0  0  2  0  0  0  0  0  0
  186.8880  177.3680  137.2350 C   0  0  0  0  0  2  0  0  0  0  0  0
  187.5620  178.4370  137.9600 N   0  0  0  0  0  2  0  0  0  0  0  0
  187.8040  177.9550  139.3190 C   0  0  0  0  0  2  0  0  0  0  0  0
  188.9650  177.3020  141.9730 C   0  0  0  0  0  2  0  0  0  0  0  0
  190.2490  179.0480  143.0410 N   0  0  0  0  0  1  0  0  0  0  0  0
  191.0190  176.5180  140.9960 C   0  0  1  0  0  3  0  0  0  0  0  0
  193.2510  177.2870  140.2250 C   0  0  0  0  0  2  0  0  0  0  0  0
  190.0450  177.5560  138.4800 N   0  0  0  0  0  0  0  0  0  0  0  0
  190.0600  177.6050  142.9730 C   0  0  2  0  0  3  0  0  0  0  0  0
  191.4530  177.1380  138.5400 C   0  0  1  0  0  3  0  0  0  0  0  0
  191.9450  177.1280  139.9700 C   0  0  0  0  0  0  0  0  0  0  0  0
  191.3270  176.9560  142.4260 C   0  0  0  0  0  2  0  0  0  0  0  0
  189.6510  176.9420  140.7460 N   0  0  0  0  0  0  0  0  0  0  0  0
  189.1980  177.4100  139.4600 C   0  0  0  0  0  0  0  0  0  0  0  0
  192.0790  175.8720  136.4740 C   0  0  0  0  0  1  0  0  0  0  0  0
  191.5930  175.7580  137.9040 C   0  0  0  0  0  2  0  0  0  0  0  0
  1 25  1  6  0  0  0
  1  8  1  0  0  0  0
  1  7  1  0  0  0  0
  2 14  1  0  0  0  0
  3  2  1  1  0  0  0
  6 13  1  0  0  0  0
  7  4  1  1  0  0  0
  7  5  1  0  0  0  0
  8 16  1  0  0  0  0
 10 12  1  0  0  0  0
 10 17  1  0  0  0  0
 11  9  2  0  0  0  0
 11 13  1  0  0  0  0
 12 11  1  0  0  0  0
 14 18  2  0  0  0  0
 15  3  1  0  0  0  0
 15  8  2  0  0  0  0
 16  5  1  6  0  0  0
 16 14  1  0  0  0  0
 17  6  1  0  0  0  0
 18 10  2  0  0  0  0
 19 24  2  0  0  0  0
 20 26  1  0  0  0  0
 22 25  2  0  0  0  0
 22 24  1  0  0  0  0
 23 28  2  0  0  0  0
 23 19  1  0  0  0  0
 26 21  2  0  0  0  0
 26 25  1  0  0  0  0
 27 20  2  0  0  0  0
 27 28  1  0  0  0  0
 28 22  1  0  0  0  0
 29 31  1  0  0  0  0
 30 33  1  6  0  0  0
 30  3  1  0  0  0  0
 31 34  1  1  0  0  0
 31 30  1  0  0  0  0
 32 29  1  0  0  0  0
 32 33  1  0  0  0  0
 34 35  1  0  0  0  0
 35 36  1  0  0  0  0
 36 47  1  0  0  0  0
 37 42  1  0  0  0  0
 39 45  1  1  0  0  0
 41 43  1  0  0  0  0
 41 47  2  0  0  0  0
 42 38  1  6  0  0  0
 43 49  1  1  0  0  0
 43 44  1  0  0  0  0
 44 40  2  0  0  0  0
 44 39  1  0  0  0  0
 45 42  1  0  0  0  0
 46 39  1  0  0  0  0
 46 37  1  0  0  0  0
 47 46  1  0  0  0  0
 48 49  1  0  0  0  0
M  END
>  <MODEL>
7

>  <REMARK>
 VINA RESULT:      -7.9      3.302      6.883
  Name = 
  7 active torsions:
  status: ('A' for Active; 'I' for Inactive)
    1  A    between atoms: C_3  and  C_42
    2  A    between atoms: C_8  and  C_14
    3  A    between atoms: C_13  and  N_39
    4  A    between atoms: C_13  and  C_41
    5  A    between atoms: C_18  and  C_47
    6  A    between atoms: C_20  and  C_31
    7  A    between atoms: N_39  and  C_47
                            x       y       z     vdW  Elec       q    Type
                         _______ _______ _______ _____ _____    ______ ____

>  <TORSDO>
F 7

$$$$
=
 OpenBabel10222419253D

 49 56  0  0  1  0  0  0  0  0999 V2000
  180.8850  180.6260  138.7060 C   0  0  1  0  0  3  0  0  0  0  0  0
  183.2550  177.2720  139.6980 C   0  0  0  0  0  2  0  0  0  0  0  0
  183.6760  178.0680  138.4570 C   0  0  2  0  0  3  0  0  0  0  0  0
  179.1880  181.4290  140.3380 C   0  0  0  0  0  1  0  0  0  0  0  0
  180.5810  179.3990  140.8090 C   0  0  0  0  0  2  0  0  0  0  0  0
  184.9800  180.1370  144.5000 C   0  0  0  0  0  2  0  0  0  0  0  0
  179.8290  180.2000  139.7250 C   0  0  2  0  0  3  0  0  0  0  0  0
  182.0260  179.7330  138.9780 C   0  0  0  0  0  0  0  0  0  0  0  0
  187.3530  177.2810  144.3120 O   0  0  0  0  0  0  0  0  0  0  0  0
  184.0930  178.2980  143.0740 C   0  0  0  0  0  0  0  0  0  0  0  0
  186.2080  177.8090  144.3460 C   0  0  0  0  0  0  0  0  0  0  0  0
  185.2550  177.4930  143.3230 N   0  0  0  0  0  2  0  0  0  0  0  0
  185.8250  179.0040  145.6470 S   0  0  0  0  0  0  0  0  0  0  0  0
  182.8360  178.2100  140.7870 C   0  0  0  0  0  0  0  0  0  0  0  0
  182.6640  179.0490  138.0910 N   0  0  0  0  0  0  0  0  0  0  0  0
  182.0600  179.4460  140.4330 C   0  0  2  0  0  3  0  0  0  0  0  0
  183.7280  179.4400  143.9750 C   0  0  0  0  0  2  0  0  0  0  0  0
  183.4780  178.2080  141.9260 C   0  0  0  0  0  0  0  0  0  0  0  0
  181.0590  184.1480  136.1770 C   0  0  0  0  0  3  0  0  0  0  0  0
  179.1790  180.1130  135.1460 C   0  0  0  0  0  3  0  0  0  0  0  0
  179.6920  178.5460  136.8690 O   0  0  0  0  0  0  0  0  0  0  0  0
  180.6550  181.9680  136.6760 C   0  0  0  0  0  0  0  0  0  0  0  0
  180.2460  183.5170  135.1200 N   0  0  0  0  0  0  0  0  0  0  0  0
  181.2600  183.1280  137.2120 N   0  0  0  0  0  0  0  0  0  0  0  0
  180.4700  180.7890  137.2710 C   0  0  0  0  0  0  0  0  0  0  0  0
  179.7840  179.7360  136.4590 C   0  0  0  0  0  0  0  0  0  0  0  0
  179.3100  181.3310  134.6770 N   0  0  0  0  0  0  0  0  0  0  0  0
  180.1060  182.2710  135.4060 C   0  0  0  0  0  0  0  0  0  0  0  0
  185.2790  177.3400  135.2600 O   0  0  0  0  0  0  0  0  0  0  0  0
  184.0070  177.1460  137.2750 C   0  0  2  0  0  3  0  0  0  0  0  0
  185.3420  177.5110  136.6520 C   0  0  1  0  0  3  0  0  0  0  0  0
  183.9120  177.3740  134.8960 C   0  0  0  0  0  2  0  0  0  0  0  0
  183.0510  177.4040  136.1400 C   0  0  0  0  0  2  0  0  0  0  0  0
  186.4600  176.6360  137.2140 C   0  0  0  0  0  2  0  0  0  0  0  0
  187.7390  177.0580  136.6580 N   0  0  0  0  0  2  0  0  0  0  0  0
  188.7650  176.1690  137.2010 C   0  0  0  0  0  2  0  0  0  0  0  0
  191.6680  176.7520  137.4220 C   0  0  0  0  0  2  0  0  0  0  0  0
  193.0480  174.9970  138.3450 N   0  0  0  0  0  1  0  0  0  0  0  0
  191.4310  177.6120  139.6550 C   0  0  1  0  0  3  0  0  0  0  0  0
  191.4040  176.9190  142.0400 C   0  0  0  0  0  2  0  0  0  0  0  0
  188.7090  176.6440  139.5800 N   0  0  0  0  0  0  0  0  0  0  0  0
  192.9610  176.4360  138.1430 C   0  0  2  0  0  3  0  0  0  0  0  0
  189.2330  177.0890  140.8790 C   0  0  1  0  0  3  0  0  0  0  0  0
  190.7450  177.0590  140.8820 C   0  0  0  0  0  0  0  0  0  0  0  0
  192.8710  177.1310  139.4980 C   0  0  0  0  0  2  0  0  0  0  0  0
  190.7400  177.1690  138.4550 N   0  0  0  0  0  0  0  0  0  0  0  0
  189.3640  176.7380  138.4570 C   0  0  0  0  0  0  0  0  0  0  0  0
  187.2610  178.6270  140.7610 C   0  0  0  0  0  1  0  0  0  0  0  0
  188.7130  178.4930  141.1740 C   0  0  0  0  0  2  0  0  0  0  0  0
  1 25  1  6  0  0  0
  1  8  1  0  0  0  0
  1  7  1  0  0  0  0
  2 14  1  0  0  0  0
  3  2  1  1  0  0  0
  6 13  1  0  0  0  0
  7  4  1  1  0  0  0
  7  5  1  0  0  0  0
  8 16  1  0  0  0  0
  9 11  2  0  0  0  0
 10 12  1  0  0  0  0
 10 17  1  0  0  0  0
 11 13  1  0  0  0  0
 12 11  1  0  0  0  0
 14 18  2  0  0  0  0
 15  3  1  0  0  0  0
 15  8  2  0  0  0  0
 16 14  1  0  0  0  0
 16  5  1  6  0  0  0
 17  6  1  0  0  0  0
 18 10  2  0  0  0  0
 19 24  2  0  0  0  0
 20 26  1  0  0  0  0
 22 24  1  0  0  0  0
 22 25  2  0  0  0  0
 23 28  2  0  0  0  0
 23 19  1  0  0  0  0
 26 21  2  0  0  0  0
 26 25  1  0  0  0  0
 27 20  2  0  0  0  0
 27 28  1  0  0  0  0
 28 22  1  0  0  0  0
 29 31  1  0  0  0  0
 30 33  1  6  0  0  0
 30  3  1  0  0  0  0
 31 34  1  1  0  0  0
 31 30  1  0  0  0  0
 32 29  1  0  0  0  0
 32 33  1  0  0  0  0
 35 36  1  0  0  0  0
 35 34  1  0  0  0  0
 36 47  1  0  0  0  0
 37 42  1  0  0  0  0
 37 46  1  0  0  0  0
 39 45  1  6  0  0  0
 39 44  1  0  0  0  0
 41 43  1  0  0  0  0
 42 38  1  1  0  0  0
 42 45  1  0  0  0  0
 43 44  1  0  0  0  0
 43 49  1  6  0  0  0
 44 40  2  0  0  0  0
 46 47  1  0  0  0  0
 46 39  1  0  0  0  0
 47 41  2  0  0  0  0
 48 49  1  0  0  0  0
M  END
>  <MODEL>
8

>  <REMARK>
 VINA RESULT:      -7.6      3.435      6.727
  Name = 
  7 active torsions:
  status: ('A' for Active; 'I' for Inactive)
    1  A    between atoms: C_3  and  C_42
    2  A    between atoms: C_8  and  C_14
    3  A    between atoms: C_13  and  N_39
    4  A    between atoms: C_13  and  C_41
    5  A    between atoms: C_18  and  C_47
    6  A    between atoms: C_20  and  C_31
    7  A    between atoms: N_39  and  C_47
                            x       y       z     vdW  Elec       q    Type
                         _______ _______ _______ _____ _____    ______ ____

>  <TORSDO>
F 7

$$$$
=
 OpenBabel10222419253D

 49 56  0  0  1  0  0  0  0  0999 V2000
  180.5850  176.9100  138.8970 C   0  0  1  0  0  3  0  0  0  0  0  0
  184.6810  177.5540  138.0880 C   0  0  0  0  0  2  0  0  0  0  0  0
  184.2650  177.5500  139.5630 C   0  0  2  0  0  3  0  0  0  0  0  0
  179.0930  176.1670  137.0510 C   0  0  0  0  0  1  0  0  0  0  0  0
  181.5190  176.6510  136.6430 C   0  0  0  0  0  2  0  0  0  0  0  0
  184.9830  172.0370  136.1590 C   0  0  0  0  0  2  0  0  0  0  0  0
  180.2510  177.0740  137.4150 C   0  0  2  0  0  3  0  0  0  0  0  0
  182.0580  176.8500  138.9280 C   0  0  0  0  0  0  0  0  0  0  0  0
  188.5530  173.0300  136.4640 O   0  0  0  0  0  0  0  0  0  0  0  0
  185.2470  174.5130  136.1940 C   0  0  0  0  0  0  0  0  0  0  0  0
  187.3650  173.1620  136.0590 C   0  0  0  0  0  0  0  0  0  0  0  0
  186.6760  174.3980  136.2840 N   0  0  0  0  0  2  0  0  0  0  0  0
  186.5440  171.7610  135.2650 S   0  0  0  0  0  0  0  0  0  0  0  0
  183.9600  176.4670  137.3520 C   0  0  0  0  0  0  0  0  0  0  0  0
  182.8150  177.5480  139.7020 N   0  0  0  0  0  0  0  0  0  0  0  0
  182.5250  176.1800  137.6890 C   0  0  2  0  0  3  0  0  0  0  0  0
  184.4030  173.3740  135.7070 C   0  0  0  0  0  2  0  0  0  0  0  0
  184.6430  175.5180  136.7670 C   0  0  0  0  0  0  0  0  0  0  0  0
  180.2060  181.2320  138.8340 C   0  0  0  0  0  3  0  0  0  0  0  0
  178.9480  178.4100  142.2010 C   0  0  0  0  0  3  0  0  0  0  0  0
  179.1750  176.1550  141.4590 O   0  0  0  0  0  0  0  0  0  0  0  0
  179.8850  179.1310  139.6390 C   0  0  0  0  0  0  0  0  0  0  0  0
  179.7040  181.2800  140.2210 N   0  0  0  0  0  0  0  0  0  0  0  0
  180.3730  179.8130  138.5010 N   0  0  0  0  0  0  0  0  0  0  0  0
  179.9150  177.8220  139.8870 C   0  0  0  0  0  0  0  0  0  0  0  0
  179.3320  177.3780  141.1900 C   0  0  0  0  0  0  0  0  0  0  0  0
  179.0530  179.6870  141.9210 N   0  0  0  0  0  0  0  0  0  0  0  0
  179.4670  180.0770  140.6080 C   0  0  0  0  0  0  0  0  0  0  0  0
  185.9470  178.9940  142.4630 O   0  0  0  0  0  0  0  0  0  0  0  0
  184.8930  178.7200  140.3340 C   0  0  2  0  0  3  0  0  0  0  0  0
  185.9740  178.2330  141.2830 C   0  0  1  0  0  3  0  0  0  0  0  0
  184.6620  179.5780  142.5540 C   0  0  0  0  0  2  0  0  0  0  0  0
  183.8840  179.3090  141.2840 C   0  0  0  0  0  2  0  0  0  0  0  0
  187.3540  178.3520  140.6410 C   0  0  0  0  0  2  0  0  0  0  0  0
  188.3500  178.6230  141.6690 N   0  0  0  0  0  2  0  0  0  0  0  0
  188.5940  177.3690  142.3810 C   0  0  0  0  0  2  0  0  0  0  0  0
  190.9620  177.6330  144.1530 C   0  0  0  0  0  2  0  0  0  0  0  0
  191.7890  175.5940  145.1490 N   0  0  0  0  0  1  0  0  0  0  0  0
  189.5950  177.9250  146.1100 C   0  0  1  0  0  3  0  0  0  0  0  0
  188.4180  176.6620  147.8950 C   0  0  0  0  0  2  0  0  0  0  0  0
  187.3310  177.2380  144.4490 N   0  0  0  0  0  0  0  0  0  0  0  0
  191.7370  177.0400  145.3100 C   0  0  2  0  0  3  0  0  0  0  0  0
  187.1110  177.2990  145.9010 C   0  0  1  0  0  3  0  0  0  0  0  0
  188.4190  177.1420  146.6450 C   0  0  0  0  0  0  0  0  0  0  0  0
  190.9440  177.3790  146.5690 C   0  0  0  0  0  2  0  0  0  0  0  0
  189.6210  177.8550  144.6570 N   0  0  0  0  0  0  0  0  0  0  0  0
  188.4540  177.5540  143.8660 C   0  0  0  0  0  0  0  0  0  0  0  0
  184.9400  178.5370  146.0400 C   0  0  0  0  0  1  0  0  0  0  0  0
  186.4380  178.6230  146.2500 C   0  0  0  0  0  2  0  0  0  0  0  0
  1  8  1  0  0  0  0
  1 25  1  1  0  0  0
  3  2  1  6  0  0  0
  3 15  1  0  0  0  0
  3 30  1  0  0  0  0
  5  7  1  0  0  0  0
  7  4  1  6  0  0  0
  7  1  1  0  0  0  0
  8 15  2  0  0  0  0
 10 12  1  0  0  0  0
 10 18  2  0  0  0  0
 11 12  1  0  0  0  0
 11  9  2  0  0  0  0
 13 11  1  0  0  0  0
 13  6  1  0  0  0  0
 14 16  1  0  0  0  0
 14  2  1  0  0  0  0
 16  5  1  6  0  0  0
 16  8  1  0  0  0  0
 17  6  1  0  0  0  0
 17 10  1  0  0  0  0
 18 14  2  0  0  0  0
 19 23  1  0  0  0  0
 22 25  2  0  0  0  0
 22 28  1  0  0  0  0
 23 28  2  0  0  0  0
 24 19  2  0  0  0  0
 24 22  1  0  0  0  0
 25 26  1  0  0  0  0
 26 21  2  0  0  0  0
 26 20  1  0  0  0  0
 27 20  2  0  0  0  0
 28 27  1  0  0  0  0
 29 32  1  0  0  0  0
 30 31  1  0  0  0  0
 30 33  1  1  0  0  0
 31 34  1  6  0  0  0
 31 29  1  0  0  0  0
 33 32  1  0  0  0  0
 34 35  1  0  0  0  0
 35 36  1  0  0  0  0
 36 47  1  0  0  0  0
 37 46  1  0  0  0  0
 37 42  1  0  0  0  0
 39 45  1  1  0  0  0
 39 44  1  0  0  0  0
 41 43  1  0  0  0  0
 42 38  1  6  0  0  0
 42 45  1  0  0  0  0
 43 49  1  6  0  0  0
 43 44  1  0  0  0  0
 44 40  2  0  0  0  0
 46 39  1  0  0  0  0
 47 41  2  0  0  0  0
 47 46  1  0  0  0  0
 48 49  1  0  0  0  0
M  END
>  <MODEL>
9

>  <REMARK>
 VINA RESULT:      -7.5      2.828      4.284
  Name = 
  7 active torsions:
  status: ('A' for Active; 'I' for Inactive)
    1  A    between atoms: C_3  and  C_42
    2  A    between atoms: C_8  and  C_14
    3  A    between atoms: C_13  and  N_39
    4  A    between atoms: C_13  and  C_41
    5  A    between atoms: C_18  and  C_47
    6  A    between atoms: C_20  and  C_31
    7  A    between atoms: N_39  and  C_47
                            x       y       z     vdW  Elec       q    Type
                         _______ _______ _______ _____ _____    ______ ____

>  <TORSDO>
F 7

$$$$
