=
 OpenBabel10222418533D

 70 80  0  0  1  0  0  0  0  0999 V2000
  187.4920  178.2150  138.7560 C   0  0  1  0  0  3  0  0  0  0  0  0
  189.4770  177.4280  137.7940 C   0  0  2  0  0  3  0  0  0  0  0  0
  185.0160  178.6870  138.1380 C   0  0  0  0  0  2  0  0  0  0  0  0
  189.8070  177.8490  139.2280 C   0  0  0  0  0  2  0  0  0  0  0  0
  186.0080  178.1020  139.1650 C   0  0  0  0  0  0  0  0  0  0  0  0
  186.0240  177.6980  136.0720 C   0  0  0  0  0  0  0  0  0  0  0  0
  185.7170  176.7470  139.4070 O   0  0  0  0  0  1  0  0  0  0  0  0
  188.6100  178.7370  139.6070 C   0  0  2  0  0  3  0  0  0  0  0  0
  185.5930  178.9620  136.7490 C   0  0  0  0  0  2  0  0  0  0  0  0
  185.3120  177.1990  135.0470 C   0  0  0  0  0  3  0  0  0  0  0  0
  187.9930  177.5730  137.6940 C   0  0  1  0  0  3  0  0  0  0  0  0
  187.1750  176.8720  136.6250 C   0  0  0  0  0  2  0  0  0  0  0  0
  185.7620  178.7960  140.3490 O   0  0  0  0  0  1  0  0  0  0  0  0
  193.4310  173.9980  136.9720 C   0  0  0  0  0  0  0  0  0  0  0  0
  194.6400  173.4460  136.8440 N   0  0  0  0  0  0  0  0  0  0  0  0
  189.1400  172.6450  136.9670 N   0  0  0  0  0  2  0  0  0  0  0  0
  191.0820  174.1920  137.1040 C   0  0  0  0  0  0  0  0  0  0  0  0
  191.1760  175.5600  137.3090 C   0  0  0  0  0  0  0  0  0  0  0  0
  189.7410  173.9290  137.1270 C   0  0  0  0  0  0  0  0  0  0  0  0
  193.5580  175.3590  137.1750 C   0  0  0  0  0  0  0  0  0  0  0  0
  192.4330  176.1950  137.3500 C   0  0  0  0  0  3  0  0  0  0  0  0
  192.1890  173.3620  136.9350 C   0  0  0  0  0  3  0  0  0  0  0  0
  189.0510  175.0710  137.3440 N   0  0  0  0  0  0  0  0  0  0  0  0
  194.8570  175.7090  137.1410 N   0  0  0  0  0  2  0  0  0  0  0  0
  195.4870  174.5160  136.9610 C   0  0  0  0  0  0  0  0  0  0  0  0
  187.6980  172.4970  137.0990 C   0  0  0  0  0  1  0  0  0  0  0  0
  189.9180  176.0640  137.4640 N   0  0  0  0  0  0  0  0  0  0  0  0
  197.6660  175.2040  137.7300 N   0  0  0  0  0  1  0  0  0  0  0  0
  196.9720  174.4070  136.7470 C   0  0  2  0  0  3  0  0  0  0  0  0
  197.4030  174.8370  135.3430 C   0  0  0  0  0  2  0  0  0  0  0  0
  197.8490  176.1670  135.3300 O   0  0  0  0  0  1  0  0  0  0  0  0
  183.9530  177.7200  134.5960 C   0  0  0  0  0  2  0  0  0  0  0  0
  181.3390  175.1060  135.4730 C   0  0  0  0  0  2  0  0  0  0  0  0
  180.1700  178.1600  135.3110 C   0  0  1  0  0  3  0  0  0  0  0  0
  180.8180  178.3200  136.7030 C   0  0  2  0  0  3  0  0  0  0  0  0
  181.7010  178.3700  135.4480 C   0  0  1  0  0  3  0  0  0  0  0  0
  179.8660  176.8960  134.6170 N   0  0  0  0  0  2  0  0  0  0  0  0
  182.7460  177.2200  135.3730 C   0  0  1  0  0  3  0  0  0  0  0  0
  182.3250  175.9350  134.6600 C   0  0  0  0  0  2  0  0  0  0  0  0
  179.9050  175.6750  135.4150 C   0  0  0  0  0  2  0  0  0  0  0  0
  180.7680  177.0930  137.6260 C   0  0  0  0  0  2  0  0  0  0  0  0
  179.6010  177.1140  138.5060 N   0  0  0  0  0  2  0  0  0  0  0  0
  181.5600  176.9470  140.2350 O   0  0  0  0  0  0  0  0  0  0  0  0
  180.0590  176.9530  140.1660 S   0  0  0  0  0  0  0  0  0  0  0  0
  179.5480  175.6540  140.7150 O   0  0  0  0  0  0  0  0  0  0  0  0
  179.4480  178.2720  141.2370 C   0  0  2  0  0  3  0  0  0  0  0  0
  179.5960  179.6130  140.5070 C   0  0  0  0  0  2  0  0  0  0  0  0
  180.4410  179.3960  143.2180 C   0  0  0  0  0  3  0  0  0  0  0  0
  180.1820  178.2700  142.5600 C   0  0  0  0  0  3  0  0  0  0  0  0
  179.2320  180.7420  141.4720 C   0  0  0  0  0  2  0  0  0  0  0  0
  180.0840  180.6620  142.6730 N   0  0  0  0  0  2  0  0  0  0  0  0
  188.3350  178.6450  140.9830 O   0  0  0  0  0  0  0  0  0  0  0  0
  188.8780  177.4170  141.3580 C   0  0  0  0  0  2  0  0  0  0  0  0
  188.2780  176.8970  142.5170 O   0  0  0  0  0  0  0  0  0  0  0  0
  191.1780  177.0840  143.0070 O   0  0  0  0  0  0  0  0  0  0  0  0
  191.1030  176.4600  146.5020 C   0  0  0  0  0  0  0  0  0  0  0  0
  188.4380  177.8260  143.5570 C   0  0  2  0  0  3  0  0  0  0  0  0
  188.9880  177.2860  145.7400 C   0  0  0  0  0  0  0  0  0  0  0  0
  187.5860  177.6980  145.8620 C   0  0  0  0  0  2  0  0  0  0  0  0
  190.7510  177.0090  144.1830 C   0  0  0  0  0  0  0  0  0  0  0  0
  191.5880  176.5390  145.1850 C   0  0  0  0  0  3  0  0  0  0  0  0
  189.4650  177.3590  144.4860 N   0  0  0  0  0  0  0  0  0  0  0  0
  191.9630  175.9380  147.5690 C   0  0  0  0  0  1  0  0  0  0  0  0
  187.1380  177.8070  144.3930 C   0  0  1  0  0  3  0  0  0  0  0  0
  189.7870  176.8360  146.7880 C   0  0  0  0  0  3  0  0  0  0  0  0
  184.2460  178.9630  145.4540 C   0  0  0  0  0  2  0  0  0  0  0  0
  184.0730  178.0660  144.2650 C   0  0  0  0  0  2  0  0  0  0  0  0
  185.7020  179.3820  145.4280 C   0  0  0  0  0  2  0  0  0  0  0  0
  185.1440  178.5640  143.3290 C   0  0  0  0  0  2  0  0  0  0  0  0
  186.2870  178.9930  144.1460 N   0  0  0  0  0  0  0  0  0  0  0  0
  1  5  1  1  0  0  0
  1  8  1  0  0  0  0
  2 27  1  1  0  0  0
  2  4  1  0  0  0  0
  3  5  1  0  0  0  0
  4  8  1  0  0  0  0
  5  7  1  0  0  0  0
  5 13  1  0  0  0  0
  6 12  1  0  0  0  0
  6  9  1  0  0  0  0
  8 52  1  1  0  0  0
  9  3  1  0  0  0  0
 10  6  2  0  0  0  0
 11 12  1  1  0  0  0
 11  2  1  0  0  0  0
 11  1  1  0  0  0  0
 14 20  1  0  0  0  0
 15 25  2  0  0  0  0
 15 14  1  0  0  0  0
 16 26  1  0  0  0  0
 16 19  1  0  0  0  0
 17 19  1  0  0  0  0
 17 18  2  0  0  0  0
 18 21  1  0  0  0  0
 18 27  1  0  0  0  0
 19 23  2  0  0  0  0
 20 21  2  0  0  0  0
 22 14  2  0  0  0  0
 22 17  1  0  0  0  0
 23 27  1  0  0  0  0
 24 20  1  0  0  0  0
 25 24  1  0  0  0  0
 29 25  1  0  0  0  0
 29 28  1  1  0  0  0
 30 29  1  0  0  0  0
 31 30  1  0  0  0  0
 32 10  1  0  0  0  0
 32 38  1  0  0  0  0
 34 37  1  1  0  0  0
 34 36  1  0  0  0  0
 34 35  1  0  0  0  0
 35 41  1  1  0  0  0
 36 35  1  0  0  0  0
 37 40  1  0  0  0  0
 38 36  1  0  0  0  0
 39 38  1  0  0  0  0
 39 33  1  0  0  0  0
 40 33  1  0  0  0  0
 41 42  1  0  0  0  0
 42 44  1  0  0  0  0
 44 43  2  0  0  0  0
 44 45  2  0  0  0  0
 44 46  1  0  0  0  0
 46 49  1  0  0  0  0
 47 46  1  0  0  0  0
 47 50  1  0  0  0  0
 49 48  2  0  0  0  0
 50 51  1  0  0  0  0
 51 48  1  0  0  0  0
 52 53  1  0  0  0  0
 53 54  1  0  0  0  0
 54 57  1  0  0  0  0
 55 60  2  0  0  0  0
 56 65  1  0  0  0  0
 56 63  1  0  0  0  0
 57 64  1  0  0  0  0
 57 62  1  0  0  0  0
 58 59  1  0  0  0  0
 58 65  2  0  0  0  0
 60 62  1  0  0  0  0
 60 61  1  0  0  0  0
 61 56  2  0  0  0  0
 62 58  1  0  0  0  0
 64 59  1  0  0  0  0
 67 66  1  0  0  0  0
 68 66  1  0  0  0  0
 69 70  1  0  0  0  0
 69 67  1  0  0  0  0
 70 64  1  0  0  0  0
 70 68  1  0  0  0  0
M  END
>  <MODEL>
1

>  <REMARK>
 VINA RESULT:      -7.4      0.000      0.000
  Name = 
  14 active torsions:
  status: ('A' for Active; 'I' for Inactive)
    1  A    between atoms: C_1  and  CA_43
    2  A    between atoms: O_4  and  C_25
    3  A    between atoms: O_4  and  C_65
    4  A    between atoms: C_5  and  S_42
    5  A    between atoms: C_17  and  N_68
    6  A    between atoms: C_26  and  C_69
    7  A    between atoms: C_30  and  C_36
    8  A    between atoms: C_30  and  C_51
    9  A    between atoms: N_32  and  S_42
   10  A    between atoms: N_32  and  C_69
   11  A    between atoms: C_40  and  O_44
   12  A    between atoms: CA_43  and  C_60
   13  A    between atoms: O_44  and  C_65
   14  A    between atoms: N_61  and  C_62
                            x       y       z     vdW  Elec       q    Type
                         _______ _______ _______ _____ _____    ______ ____

>  <TORSDO>
F 14

$$$$
=
 OpenBabel10222418533D

 70 80  0  0  1  0  0  0  0  0999 V2000
  187.7720  176.7530  137.0080 C   0  0  1  0  0  3  0  0  0  0  0  0
  187.9710  174.4450  136.6610 C   0  0  2  0  0  3  0  0  0  0  0  0
  188.7340  178.6450  138.5020 C   0  0  0  0  0  2  0  0  0  0  0  0
  186.8600  174.9460  135.7350 C   0  0  0  0  0  2  0  0  0  0  0  0
  188.3130  178.1970  137.0870 C   0  0  0  0  0  0  0  0  0  0  0  0
  190.0000  176.5900  139.1600 C   0  0  0  0  0  0  0  0  0  0  0  0
  189.3970  178.3120  136.1960 O   0  0  0  0  0  1  0  0  0  0  0  0
  186.5050  176.3160  136.3380 C   0  0  2  0  0  3  0  0  0  0  0  0
  188.8890  177.5230  139.5280 C   0  0  0  0  0  2  0  0  0  0  0  0
  191.1530  176.6000  139.8510 C   0  0  0  0  0  3  0  0  0  0  0  0
  188.5350  175.6860  137.2730 C   0  0  1  0  0  3  0  0  0  0  0  0
  189.9120  175.7280  137.9110 C   0  0  0  0  0  2  0  0  0  0  0  0
  187.3450  179.1150  136.6830 O   0  0  0  0  0  1  0  0  0  0  0  0
  192.9440  174.0130  134.8860 C   0  0  0  0  0  0  0  0  0  0  0  0
  194.2240  174.2560  134.5940 N   0  0  0  0  0  0  0  0  0  0  0  0
  190.0640  170.5680  134.5980 N   0  0  0  0  0  2  0  0  0  0  0  0
  190.8990  172.8540  135.1070 C   0  0  0  0  0  0  0  0  0  0  0  0
  190.2930  173.9690  135.6660 C   0  0  0  0  0  0  0  0  0  0  0  0
  189.9190  171.9020  135.0830 C   0  0  0  0  0  0  0  0  0  0  0  0
  192.3690  175.1400  135.4420 C   0  0  0  0  0  0  0  0  0  0  0  0
  191.0180  175.1630  135.8520 C   0  0  0  0  0  3  0  0  0  0  0  0
  192.2330  172.8250  134.7040 C   0  0  0  0  0  3  0  0  0  0  0  0
  188.7780  172.4010  135.6080 N   0  0  0  0  0  0  0  0  0  0  0  0
  193.2670  176.1420  135.4780 N   0  0  0  0  0  2  0  0  0  0  0  0
  194.3900  175.5600  134.9760 C   0  0  0  0  0  0  0  0  0  0  0  0
  188.9560  169.6300  134.7120 C   0  0  0  0  0  1  0  0  0  0  0  0
  189.0020  173.6550  135.9720 N   0  0  0  0  0  0  0  0  0  0  0  0
  196.6370  176.0140  135.7230 N   0  0  0  0  0  1  0  0  0  0  0  0
  195.6550  176.3310  134.7140 C   0  0  2  0  0  3  0  0  0  0  0  0
  195.4320  177.8450  134.6760 C   0  0  0  0  0  2  0  0  0  0  0  0
  195.1420  178.3510  135.9520 O   0  0  0  0  0  1  0  0  0  0  0  0
  191.5250  177.6330  140.9090 C   0  0  0  0  0  2  0  0  0  0  0  0
  190.6360  178.8630  144.3920 C   0  0  0  0  0  2  0  0  0  0  0  0
  189.9680  175.6990  143.8840 C   0  0  1  0  0  3  0  0  0  0  0  0
  188.7370  176.2360  143.1230 C   0  0  2  0  0  3  0  0  0  0  0  0
  190.1150  176.2670  142.4480 C   0  0  1  0  0  3  0  0  0  0  0  0
  190.8110  176.4390  144.8390 N   0  0  0  0  0  2  0  0  0  0  0  0
  190.6240  177.7030  142.1300 C   0  0  1  0  0  3  0  0  0  0  0  0
  191.4640  178.4020  143.1990 C   0  0  0  0  0  2  0  0  0  0  0  0
  190.2860  177.7010  145.3470 C   0  0  0  0  0  2  0  0  0  0  0  0
  188.0740  177.4970  143.7000 C   0  0  0  0  0  2  0  0  0  0  0  0
  186.7980  177.1990  144.3480 N   0  0  0  0  0  2  0  0  0  0  0  0
  186.0930  179.6940  143.9820 O   0  0  0  0  0  0  0  0  0  0  0  0
  185.5610  178.2950  143.8400 S   0  0  0  0  0  0  0  0  0  0  0  0
  184.3530  178.1490  144.7170 O   0  0  0  0  0  0  0  0  0  0  0  0
  185.0210  178.0670  142.1320 C   0  0  2  0  0  3  0  0  0  0  0  0
  185.9150  178.9070  141.2120 C   0  0  0  0  0  2  0  0  0  0  0  0
  183.0890  178.9830  140.8640 C   0  0  0  0  0  3  0  0  0  0  0  0
  183.5600  178.4310  141.9790 C   0  0  0  0  0  3  0  0  0  0  0  0
  185.3580  178.8420  139.7890 C   0  0  0  0  0  2  0  0  0  0  0  0
  183.9580  179.3050  139.7830 N   0  0  0  0  0  2  0  0  0  0  0  0
  186.0830  177.2080  135.3370 O   0  0  0  0  0  0  0  0  0  0  0  0
  184.7060  177.0070  135.2570 C   0  0  0  0  0  2  0  0  0  0  0  0
  184.0730  177.1250  136.5050 O   0  0  0  0  0  0  0  0  0  0  0  0
  181.9860  179.2020  136.6280 O   0  0  0  0  0  0  0  0  0  0  0  0
  180.1310  177.8420  139.3340 C   0  0  0  0  0  0  0  0  0  0  0  0
  182.8450  176.4470  136.4480 C   0  0  2  0  0  3  0  0  0  0  0  0
  181.4190  176.1410  138.2440 C   0  0  0  0  0  0  0  0  0  0  0  0
  181.9420  174.7890  138.0260 C   0  0  0  0  0  2  0  0  0  0  0  0
  181.5260  178.3660  137.4400 C   0  0  0  0  0  0  0  0  0  0  0  0
  180.6450  178.7860  138.4270 C   0  0  0  0  0  3  0  0  0  0  0  0
  181.9000  177.0530  137.3830 N   0  0  0  0  0  0  0  0  0  0  0  0
  179.2230  178.2720  140.4010 C   0  0  0  0  0  1  0  0  0  0  0  0
  183.0780  175.0280  137.0150 C   0  0  1  0  0  3  0  0  0  0  0  0
  180.5200  176.5030  139.2450 C   0  0  0  0  0  3  0  0  0  0  0  0
  182.6700  171.7690  136.8070 C   0  0  0  0  0  2  0  0  0  0  0  0
  184.0950  172.1230  137.1090 C   0  0  0  0  0  2  0  0  0  0  0  0
  182.0550  173.0350  136.2420 C   0  0  0  0  0  2  0  0  0  0  0  0
  184.3660  173.2300  136.1230 C   0  0  0  0  0  2  0  0  0  0  0  0
  183.1210  173.9940  135.9560 N   0  0  0  0  0  0  0  0  0  0  0  0
  1  5  1  6  0  0  0
  1 11  1  0  0  0  0
  2  4  1  6  0  0  0
  2 11  1  0  0  0  0
  3  9  1  0  0  0  0
  4  8  1  0  0  0  0
  5  3  1  0  0  0  0
  6  9  1  0  0  0  0
  6 10  2  0  0  0  0
  7  5  1  0  0  0  0
  8 52  1  6  0  0  0
  8  1  1  0  0  0  0
 10 32  1  0  0  0  0
 11 12  1  6  0  0  0
 12  6  1  0  0  0  0
 13  5  1  0  0  0  0
 14 20  1  0  0  0  0
 15 14  1  0  0  0  0
 15 25  2  0  0  0  0
 16 26  1  0  0  0  0
 16 19  1  0  0  0  0
 17 18  2  0  0  0  0
 18 21  1  0  0  0  0
 18 27  1  0  0  0  0
 19 17  1  0  0  0  0
 19 23  2  0  0  0  0
 20 24  1  0  0  0  0
 20 21  2  0  0  0  0
 22 14  2  0  0  0  0
 22 17  1  0  0  0  0
 23 27  1  0  0  0  0
 25 24  1  0  0  0  0
 27  2  1  0  0  0  0
 29 25  1  0  0  0  0
 29 28  1  1  0  0  0
 30 29  1  0  0  0  0
 30 31  1  0  0  0  0
 32 38  1  0  0  0  0
 33 40  1  0  0  0  0
 34 37  1  1  0  0  0
 35 41  1  1  0  0  0
 35 34  1  0  0  0  0
 36 35  1  0  0  0  0
 36 34  1  0  0  0  0
 37 40  1  0  0  0  0
 38 36  1  0  0  0  0
 38 39  1  0  0  0  0
 39 33  1  0  0  0  0
 41 42  1  0  0  0  0
 44 43  2  0  0  0  0
 44 42  1  0  0  0  0
 44 45  2  0  0  0  0
 46 44  1  0  0  0  0
 47 46  1  0  0  0  0
 48 49  2  0  0  0  0
 49 46  1  0  0  0  0
 50 47  1  0  0  0  0
 51 50  1  0  0  0  0
 51 48  1  0  0  0  0
 53 52  1  0  0  0  0
 53 54  1  0  0  0  0
 55 60  2  0  0  0  0
 56 63  1  0  0  0  0
 57 54  1  0  0  0  0
 57 64  1  0  0  0  0
 57 62  1  0  0  0  0
 58 65  2  0  0  0  0
 59 58  1  0  0  0  0
 60 61  1  0  0  0  0
 61 56  2  0  0  0  0
 62 60  1  0  0  0  0
 62 58  1  0  0  0  0
 64 59  1  0  0  0  0
 65 56  1  0  0  0  0
 66 67  1  0  0  0  0
 68 66  1  0  0  0  0
 69 67  1  0  0  0  0
 70 69  1  0  0  0  0
 70 68  1  0  0  0  0
 70 64  1  0  0  0  0
M  END
>  <MODEL>
2

>  <REMARK>
 VINA RESULT:      -7.2      2.648      7.931
  Name = 
  14 active torsions:
  status: ('A' for Active; 'I' for Inactive)
    1  A    between atoms: C_1  and  CA_43
    2  A    between atoms: O_4  and  C_25
    3  A    between atoms: O_4  and  C_65
    4  A    between atoms: C_5  and  S_42
    5  A    between atoms: C_17  and  N_68
    6  A    between atoms: C_26  and  C_69
    7  A    between atoms: C_30  and  C_36
    8  A    between atoms: C_30  and  C_51
    9  A    between atoms: N_32  and  S_42
   10  A    between atoms: N_32  and  C_69
   11  A    between atoms: C_40  and  O_44
   12  A    between atoms: CA_43  and  C_60
   13  A    between atoms: O_44  and  C_65
   14  A    between atoms: N_61  and  C_62
                            x       y       z     vdW  Elec       q    Type
                         _______ _______ _______ _____ _____    ______ ____

>  <TORSDO>
F 14

$$$$
=
 OpenBabel10222418533D

 70 80  0  0  1  0  0  0  0  0999 V2000
  189.4830  176.4840  136.2350 C   0  0  1  0  0  3  0  0  0  0  0  0
  188.9060  174.9080  134.6020 C   0  0  2  0  0  3  0  0  0  0  0  0
  188.3790  178.1670  137.8750 C   0  0  0  0  0  2  0  0  0  0  0  0
  190.4340  174.9860  134.6340 C   0  0  0  0  0  2  0  0  0  0  0  0
  189.4560  177.0830  137.6580 C   0  0  0  0  0  0  0  0  0  0  0  0
  186.4690  176.9930  136.7640 C   0  0  0  0  0  0  0  0  0  0  0  0
  189.2800  176.0310  138.5770 O   0  0  0  0  0  1  0  0  0  0  0  0
  190.6940  176.3110  135.3690 C   0  0  2  0  0  3  0  0  0  0  0  0
  187.2950  178.2410  136.7990 C   0  0  0  0  0  2  0  0  0  0  0  0
  185.2060  177.0010  137.2230 C   0  0  0  0  0  3  0  0  0  0  0  0
  188.4640  175.7740  135.7370 C   0  0  1  0  0  3  0  0  0  0  0  0
  187.0840  175.6640  136.3580 C   0  0  0  0  0  2  0  0  0  0  0  0
  190.6670  177.7020  137.9630 O   0  0  0  0  0  1  0  0  0  0  0  0
  184.7510  171.6290  134.8390 C   0  0  0  0  0  0  0  0  0  0  0  0
  183.5110  171.1350  134.8620 N   0  0  0  0  0  0  0  0  0  0  0  0
  188.9610  170.0440  134.7200 N   0  0  0  0  0  2  0  0  0  0  0  0
  187.1100  171.7040  134.7780 C   0  0  0  0  0  0  0  0  0  0  0  0
  187.0960  173.0910  134.7770 C   0  0  0  0  0  0  0  0  0  0  0  0
  188.4350  171.3710  134.7410 C   0  0  0  0  0  0  0  0  0  0  0  0
  184.7050  173.0100  134.8360 C   0  0  0  0  0  0  0  0  0  0  0  0
  185.8770  173.7960  134.8070 C   0  0  0  0  0  3  0  0  0  0  0  0
  185.9560  170.9230  134.8030 C   0  0  0  0  0  3  0  0  0  0  0  0
  189.1910  172.4900  134.7070 N   0  0  0  0  0  0  0  0  0  0  0  0
  183.4250  173.4250  134.8990 N   0  0  0  0  0  2  0  0  0  0  0  0
  182.7270  172.2570  134.8890 C   0  0  0  0  0  0  0  0  0  0  0  0
  190.3960  169.8350  134.5940 C   0  0  0  0  0  1  0  0  0  0  0  0
  188.3830  173.5390  134.7200 N   0  0  0  0  0  0  0  0  0  0  0  0
  180.6960  173.5430  135.0650 N   0  0  0  0  0  1  0  0  0  0  0  0
  181.2340  172.2040  135.0590 C   0  0  2  0  0  3  0  0  0  0  0  0
  180.8050  171.4750  136.3340 C   0  0  0  0  0  2  0  0  0  0  0  0
  179.6630  172.0610  136.8990 O   0  0  0  0  0  1  0  0  0  0  0  0
  184.5580  178.1620  137.9700 C   0  0  0  0  0  2  0  0  0  0  0  0
  181.9740  175.9860  139.7080 C   0  0  0  0  0  2  0  0  0  0  0  0
  180.7690  177.7860  137.2540 C   0  0  1  0  0  3  0  0  0  0  0  0
  180.8270  178.9420  138.2750 C   0  0  2  0  0  3  0  0  0  0  0  0
  182.1160  178.4830  137.5800 C   0  0  1  0  0  3  0  0  0  0  0  0
  180.8310  176.3430  137.5470 N   0  0  0  0  0  2  0  0  0  0  0  0
  183.1810  177.9030  138.5560 C   0  0  1  0  0  3  0  0  0  0  0  0
  183.1430  176.3980  138.8220 C   0  0  0  0  0  2  0  0  0  0  0  0
  180.6390  175.9400  138.9360 C   0  0  0  0  0  2  0  0  0  0  0  0
  180.5050  178.5840  139.7340 C   0  0  0  0  0  2  0  0  0  0  0  0
  180.6710  179.7270  140.6310 N   0  0  0  0  0  2  0  0  0  0  0  0
  179.5830  178.1960  142.4550 O   0  0  0  0  0  0  0  0  0  0  0  0
  180.6550  179.2350  142.2880 S   0  0  0  0  0  0  0  0  0  0  0  0
  180.3310  180.4060  143.1680 O   0  0  0  0  0  0  0  0  0  0  0  0
  182.2150  178.5370  142.8710 C   0  0  2  0  0  3  0  0  0  0  0  0
  182.5540  179.1490  144.2370 C   0  0  0  0  0  2  0  0  0  0  0  0
  184.5760  178.9870  142.2380 C   0  0  0  0  0  3  0  0  0  0  0  0
  183.3180  178.7740  141.8630 C   0  0  0  0  0  3  0  0  0  0  0  0
  183.9490  178.6830  144.6540 C   0  0  0  0  0  2  0  0  0  0  0  0
  184.9280  179.0560  143.6160 N   0  0  0  0  0  2  0  0  0  0  0  0
  191.8880  176.2470  136.1090 O   0  0  0  0  0  0  0  0  0  0  0  0
  192.5410  175.1230  135.6080 C   0  0  0  0  0  2  0  0  0  0  0  0
  193.9310  175.1810  135.7960 O   0  0  0  0  0  0  0  0  0  0  0  0
  193.4790  175.7130  138.6590 O   0  0  0  0  0  0  0  0  0  0  0  0
  196.7420  174.9050  139.8050 C   0  0  0  0  0  0  0  0  0  0  0  0
  194.3380  174.0230  136.4760 C   0  0  2  0  0  3  0  0  0  0  0  0
  196.2850  173.8310  137.7130 C   0  0  0  0  0  0  0  0  0  0  0  0
  196.5750  172.9980  136.5420 C   0  0  0  0  0  2  0  0  0  0  0  0
  194.6220  175.2010  138.6980 C   0  0  0  0  0  0  0  0  0  0  0  0
  195.4620  175.4850  139.7660 C   0  0  0  0  0  3  0  0  0  0  0  0
  195.0630  174.3900  137.6910 N   0  0  0  0  0  0  0  0  0  0  0  0
  197.6530  175.2170  140.9110 C   0  0  0  0  0  1  0  0  0  0  0  0
  195.4040  173.3260  135.5990 C   0  0  1  0  0  3  0  0  0  0  0  0
  197.1630  174.0680  138.7680 C   0  0  0  0  0  3  0  0  0  0  0  0
  193.8810  170.5350  136.4480 C   0  0  0  0  0  2  0  0  0  0  0  0
  195.3720  170.3770  136.4850 C   0  0  0  0  0  2  0  0  0  0  0  0
  193.6310  171.7540  135.5820 C   0  0  0  0  0  2  0  0  0  0  0  0
  195.7940  171.0100  135.1840 C   0  0  0  0  0  2  0  0  0  0  0  0
  194.8760  172.1260  134.9120 N   0  0  0  0  0  0  0  0  0  0  0  0
  1  5  1  1  0  0  0
  2  4  1  1  0  0  0
  2 27  1  0  0  0  0
  2 11  1  0  0  0  0
  4  8  1  0  0  0  0
  5  3  1  0  0  0  0
  5 13  1  0  0  0  0
  5  7  1  0  0  0  0
  6  9  1  0  0  0  0
  6 10  2  0  0  0  0
  8 52  1  1  0  0  0
  8  1  1  0  0  0  0
  9  3  1  0  0  0  0
 10 32  1  0  0  0  0
 11  1  1  0  0  0  0
 11 12  1  1  0  0  0
 12  6  1  0  0  0  0
 14 15  1  0  0  0  0
 15 25  2  0  0  0  0
 16 19  1  0  0  0  0
 17 22  1  0  0  0  0
 18 17  2  0  0  0  0
 18 21  1  0  0  0  0
 19 17  1  0  0  0  0
 20 14  1  0  0  0  0
 20 24  1  0  0  0  0
 21 20  2  0  0  0  0
 22 14  2  0  0  0  0
 23 27  1  0  0  0  0
 23 19  2  0  0  0  0
 25 24  1  0  0  0  0
 25 29  1  0  0  0  0
 26 16  1  0  0  0  0
 27 18  1  0  0  0  0
 29 28  1  1  0  0  0
 29 30  1  0  0  0  0
 30 31  1  0  0  0  0
 32 38  1  0  0  0  0
 34 37  1  1  0  0  0
 34 36  1  0  0  0  0
 34 35  1  0  0  0  0
 35 41  1  1  0  0  0
 36 35  1  0  0  0  0
 36 38  1  0  0  0  0
 37 40  1  0  0  0  0
 38 39  1  0  0  0  0
 39 33  1  0  0  0  0
 40 33  1  0  0  0  0
 41 42  1  0  0  0  0
 42 44  1  0  0  0  0
 44 43  2  0  0  0  0
 44 46  1  0  0  0  0
 44 45  2  0  0  0  0
 46 47  1  0  0  0  0
 47 50  1  0  0  0  0
 48 51  1  0  0  0  0
 49 48  2  0  0  0  0
 49 46  1  0  0  0  0
 51 50  1  0  0  0  0
 53 54  1  0  0  0  0
 53 52  1  0  0  0  0
 54 57  1  0  0  0  0
 55 60  2  0  0  0  0
 56 63  1  0  0  0  0
 57 62  1  0  0  0  0
 58 65  2  0  0  0  0
 59 58  1  0  0  0  0
 60 61  1  0  0  0  0
 61 56  2  0  0  0  0
 62 58  1  0  0  0  0
 62 60  1  0  0  0  0
 64 57  1  0  0  0  0
 64 59  1  0  0  0  0
 65 56  1  0  0  0  0
 66 67  1  0  0  0  0
 68 66  1  0  0  0  0
 69 67  1  0  0  0  0
 70 69  1  0  0  0  0
 70 68  1  0  0  0  0
 70 64  1  0  0  0  0
M  END
>  <MODEL>
3

>  <REMARK>
 VINA RESULT:      -6.2      3.228      8.382
  Name = 
  14 active torsions:
  status: ('A' for Active; 'I' for Inactive)
    1  A    between atoms: C_1  and  CA_43
    2  A    between atoms: O_4  and  C_25
    3  A    between atoms: O_4  and  C_65
    4  A    between atoms: C_5  and  S_42
    5  A    between atoms: C_17  and  N_68
    6  A    between atoms: C_26  and  C_69
    7  A    between atoms: C_30  and  C_36
    8  A    between atoms: C_30  and  C_51
    9  A    between atoms: N_32  and  S_42
   10  A    between atoms: N_32  and  C_69
   11  A    between atoms: C_40  and  O_44
   12  A    between atoms: CA_43  and  C_60
   13  A    between atoms: O_44  and  C_65
   14  A    between atoms: N_61  and  C_62
                            x       y       z     vdW  Elec       q    Type
                         _______ _______ _______ _____ _____    ______ ____

>  <TORSDO>
F 14

$$$$
=
 OpenBabel10222418533D

 70 80  0  0  1  0  0  0  0  0999 V2000
  189.2190  177.4080  138.3610 C   0  0  1  0  0  3  0  0  0  0  0  0
  189.0760  176.5080  140.5180 C   0  0  2  0  0  3  0  0  0  0  0  0
  187.6980  178.3070  136.4600 C   0  0  0  0  0  2  0  0  0  0  0  0
  190.5520  176.4760  140.1140 C   0  0  0  0  0  2  0  0  0  0  0  0
  188.9830  178.4970  137.2930 C   0  0  0  0  0  0  0  0  0  0  0  0
  186.1380  177.7650  138.3400 C   0  0  0  0  0  0  0  0  0  0  0  0
  188.9680  179.7500  137.9340 O   0  0  0  0  0  1  0  0  0  0  0  0
  190.4910  176.6470  138.5870 C   0  0  2  0  0  3  0  0  0  0  0  0
  186.6900  177.3070  137.0260 C   0  0  0  0  0  2  0  0  0  0  0  0
  184.8730  178.2120  138.4270 C   0  0  0  0  0  3  0  0  0  0  0  0
  188.3980  177.2380  139.4040 C   0  0  1  0  0  3  0  0  0  0  0  0
  187.0340  177.8830  139.5620 C   0  0  0  0  0  2  0  0  0  0  0  0
  190.0230  178.5190  136.3640 O   0  0  0  0  0  1  0  0  0  0  0  0
  185.6680  178.5440  144.0280 C   0  0  0  0  0  0  0  0  0  0  0  0
  184.5550  178.9550  144.6400 N   0  0  0  0  0  0  0  0  0  0  0  0
  190.0430  178.1400  144.9990 N   0  0  0  0  0  2  0  0  0  0  0  0
  187.9430  178.0190  143.6730 C   0  0  0  0  0  0  0  0  0  0  0  0
  187.6730  177.5840  142.3850 C   0  0  0  0  0  0  0  0  0  0  0  0
  189.2890  177.8400  143.8250 C   0  0  0  0  0  0  0  0  0  0  0  0
  185.3670  178.1150  142.7480 C   0  0  0  0  0  0  0  0  0  0  0  0
  186.3600  177.6200  141.8750 C   0  0  0  0  0  3  0  0  0  0  0  0
  186.9670  178.5060  144.5410 C   0  0  0  0  0  3  0  0  0  0  0  0
  189.8140  177.3140  142.6970 N   0  0  0  0  0  0  0  0  0  0  0  0
  184.0540  178.2840  142.5060 N   0  0  0  0  0  2  0  0  0  0  0  0
  183.5890  178.7740  143.6870 C   0  0  0  0  0  0  0  0  0  0  0  0
  191.4620  177.8180  145.0510 C   0  0  0  0  0  1  0  0  0  0  0  0
  188.8350  177.1470  141.8200 N   0  0  0  0  0  0  0  0  0  0  0  0
  181.4650  178.3010  144.7250 N   0  0  0  0  0  1  0  0  0  0  0  0
  182.1670  179.2300  143.8720 C   0  0  2  0  0  3  0  0  0  0  0  0
  181.4140  179.3810  142.5490 C   0  0  0  0  0  2  0  0  0  0  0  0
  180.2600  178.5830  142.5240 O   0  0  0  0  0  1  0  0  0  0  0  0
  183.9590  178.4760  137.2360 C   0  0  0  0  0  2  0  0  0  0  0  0
  180.3830  178.0140  136.0390 C   0  0  0  0  0  2  0  0  0  0  0  0
  180.7420  177.7940  139.2850 C   0  0  1  0  0  3  0  0  0  0  0  0
  181.2770  176.3790  138.9780 C   0  0  2  0  0  3  0  0  0  0  0  0
  182.1850  177.5950  138.7520 C   0  0  1  0  0  3  0  0  0  0  0  0
  179.9560  178.6570  138.3860 N   0  0  0  0  0  2  0  0  0  0  0  0
  182.5990  177.8000  137.2660 C   0  0  1  0  0  3  0  0  0  0  0  0
  181.7000  178.6870  136.4040 C   0  0  0  0  0  2  0  0  0  0  0  0
  179.3730  178.0280  137.2060 C   0  0  0  0  0  2  0  0  0  0  0  0
  180.6020  175.6290  137.8200 C   0  0  0  0  0  2  0  0  0  0  0  0
  180.8900  174.1960  137.8500 N   0  0  0  0  0  2  0  0  0  0  0  0
  182.3570  174.9860  135.8290 O   0  0  0  0  0  0  0  0  0  0  0  0
  181.9460  173.7380  136.5590 S   0  0  0  0  0  0  0  0  0  0  0  0
  181.2250  172.8360  135.6020 O   0  0  0  0  0  0  0  0  0  0  0  0
  183.4410  172.8760  137.0920 C   0  0  2  0  0  3  0  0  0  0  0  0
  184.5640  173.9030  137.2840 C   0  0  0  0  0  2  0  0  0  0  0  0
  185.0970  171.5010  135.8500 C   0  0  0  0  0  3  0  0  0  0  0  0
  183.8260  171.8050  136.0950 C   0  0  0  0  0  3  0  0  0  0  0  0
  185.8680  173.1600  137.5760 C   0  0  0  0  0  2  0  0  0  0  0  0
  186.1560  172.2140  136.4810 N   0  0  0  0  0  2  0  0  0  0  0  0
  191.6250  177.3310  138.1150 O   0  0  0  0  0  0  0  0  0  0  0  0
  192.3040  176.3830  137.3520 C   0  0  0  0  0  2  0  0  0  0  0  0
  192.4270  175.1500  138.0140 O   0  0  0  0  0  0  0  0  0  0  0  0
  195.1800  174.3960  138.7470 O   0  0  0  0  0  0  0  0  0  0  0  0
  196.6730  174.9330  135.5690 C   0  0  0  0  0  0  0  0  0  0  0  0
  192.8270  174.1820  137.0810 C   0  0  2  0  0  3  0  0  0  0  0  0
  194.3190  174.5490  135.3500 C   0  0  0  0  0  0  0  0  0  0  0  0
  193.0430  174.4110  134.6400 C   0  0  0  0  0  2  0  0  0  0  0  0
  195.2990  174.5210  137.5060 C   0  0  0  0  0  0  0  0  0  0  0  0
  196.5470  174.7960  136.9630 C   0  0  0  0  0  3  0  0  0  0  0  0
  194.2130  174.4180  136.6820 N   0  0  0  0  0  0  0  0  0  0  0  0
  197.9780  175.2510  134.9810 C   0  0  0  0  0  1  0  0  0  0  0  0
  192.0170  174.4290  135.7870 C   0  0  1  0  0  3  0  0  0  0  0  0
  195.5490  174.8090  134.7490 C   0  0  0  0  0  3  0  0  0  0  0  0
  188.7650  174.4710  135.2860 C   0  0  0  0  0  2  0  0  0  0  0  0
  189.0920  174.4610  136.7490 C   0  0  0  0  0  2  0  0  0  0  0  0
  190.0210  173.9780  134.5940 C   0  0  0  0  0  2  0  0  0  0  0  0
  190.1460  173.3860  136.8350 C   0  0  0  0  0  2  0  0  0  0  0  0
  190.9360  173.4360  135.5970 N   0  0  0  0  0  0  0  0  0  0  0  0
  1  5  1  1  0  0  0
  1  8  1  0  0  0  0
  1 11  1  0  0  0  0
  2  4  1  6  0  0  0
  2 27  1  0  0  0  0
  3  9  1  0  0  0  0
  3  5  1  0  0  0  0
  5  7  1  0  0  0  0
  6 10  2  0  0  0  0
  6 12  1  0  0  0  0
  8 52  1  1  0  0  0
  8  4  1  0  0  0  0
  9  6  1  0  0  0  0
 11 12  1  1  0  0  0
 11  2  1  0  0  0  0
 13  5  1  0  0  0  0
 14 22  1  0  0  0  0
 14 15  1  0  0  0  0
 16 26  1  0  0  0  0
 17 19  1  0  0  0  0
 17 22  2  0  0  0  0
 18 17  1  0  0  0  0
 19 16  1  0  0  0  0
 20 14  2  0  0  0  0
 21 18  2  0  0  0  0
 21 20  1  0  0  0  0
 23 19  2  0  0  0  0
 24 20  1  0  0  0  0
 24 25  1  0  0  0  0
 25 29  1  0  0  0  0
 25 15  2  0  0  0  0
 27 18  1  0  0  0  0
 27 23  1  0  0  0  0
 29 28  1  1  0  0  0
 30 29  1  0  0  0  0
 31 30  1  0  0  0  0
 32 38  1  0  0  0  0
 32 10  1  0  0  0  0
 33 39  1  0  0  0  0
 33 40  1  0  0  0  0
 34 37  1  6  0  0  0
 35 41  1  6  0  0  0
 35 34  1  0  0  0  0
 36 35  1  0  0  0  0
 36 34  1  0  0  0  0
 38 36  1  0  0  0  0
 39 38  1  0  0  0  0
 40 37  1  0  0  0  0
 41 42  1  0  0  0  0
 43 44  2  0  0  0  0
 44 46  1  0  0  0  0
 44 42  1  0  0  0  0
 45 44  2  0  0  0  0
 46 47  1  0  0  0  0
 47 50  1  0  0  0  0
 48 49  2  0  0  0  0
 48 51  1  0  0  0  0
 49 46  1  0  0  0  0
 51 50  1  0  0  0  0
 53 54  1  0  0  0  0
 53 52  1  0  0  0  0
 56 61  2  0  0  0  0
 57 54  1  0  0  0  0
 58 62  1  0  0  0  0
 59 58  1  0  0  0  0
 59 64  1  0  0  0  0
 60 55  2  0  0  0  0
 61 60  1  0  0  0  0
 62 57  1  0  0  0  0
 62 60  1  0  0  0  0
 63 56  1  0  0  0  0
 64 57  1  0  0  0  0
 65 58  2  0  0  0  0
 65 56  1  0  0  0  0
 66 67  1  0  0  0  0
 67 69  1  0  0  0  0
 68 66  1  0  0  0  0
 68 70  1  0  0  0  0
 70 64  1  0  0  0  0
 70 69  1  0  0  0  0
M  END
>  <MODEL>
4

>  <REMARK>
 VINA RESULT:      -6.1      2.416      9.019
  Name = 
  14 active torsions:
  status: ('A' for Active; 'I' for Inactive)
    1  A    between atoms: C_1  and  CA_43
    2  A    between atoms: O_4  and  C_25
    3  A    between atoms: O_4  and  C_65
    4  A    between atoms: C_5  and  S_42
    5  A    between atoms: C_17  and  N_68
    6  A    between atoms: C_26  and  C_69
    7  A    between atoms: C_30  and  C_36
    8  A    between atoms: C_30  and  C_51
    9  A    between atoms: N_32  and  S_42
   10  A    between atoms: N_32  and  C_69
   11  A    between atoms: C_40  and  O_44
   12  A    between atoms: CA_43  and  C_60
   13  A    between atoms: O_44  and  C_65
   14  A    between atoms: N_61  and  C_62
                            x       y       z     vdW  Elec       q    Type
                         _______ _______ _______ _____ _____    ______ ____

>  <TORSDO>
F 14

$$$$
=
 OpenBabel10222418533D

 70 80  0  0  1  0  0  0  0  0999 V2000
  189.0620  177.4490  138.2630 C   0  0  1  0  0  3  0  0  0  0  0  0
  189.0000  176.5160  140.4100 C   0  0  2  0  0  3  0  0  0  0  0  0
  187.4720  178.3950  136.4420 C   0  0  0  0  0  2  0  0  0  0  0  0
  190.4560  176.4750  139.9430 C   0  0  0  0  0  2  0  0  0  0  0  0
  188.7930  178.5570  137.2220 C   0  0  0  0  0  0  0  0  0  0  0  0
  185.9860  177.8390  138.3770 C   0  0  0  0  0  0  0  0  0  0  0  0
  188.8190  179.8000  137.8830 O   0  0  0  0  0  1  0  0  0  0  0  0
  190.3340  176.6720  138.4230 C   0  0  2  0  0  3  0  0  0  0  0  0
  186.4780  177.3960  137.0340 C   0  0  0  0  0  2  0  0  0  0  0  0
  184.7320  178.2980  138.5250 C   0  0  0  0  0  3  0  0  0  0  0  0
  188.2840  177.2710  139.3370 C   0  0  1  0  0  3  0  0  0  0  0  0
  186.9340  177.9270  139.5620 C   0  0  0  0  0  2  0  0  0  0  0  0
  189.7930  178.5840  136.2510 O   0  0  0  0  0  1  0  0  0  0  0  0
  185.7610  178.4970  144.1070 C   0  0  0  0  0  0  0  0  0  0  0  0
  184.6780  178.8970  144.7780 N   0  0  0  0  0  0  0  0  0  0  0  0
  190.1790  178.0890  144.8610 N   0  0  0  0  0  2  0  0  0  0  0  0
  188.0170  177.9820  143.6360 C   0  0  0  0  0  0  0  0  0  0  0  0
  187.6860  177.5630  142.3570 C   0  0  0  0  0  0  0  0  0  0  0  0
  189.3700  177.8040  143.7210 C   0  0  0  0  0  0  0  0  0  0  0  0
  185.4000  178.0840  142.8380 C   0  0  0  0  0  0  0  0  0  0  0  0
  186.3500  177.6030  141.9110 C   0  0  0  0  0  3  0  0  0  0  0  0
  187.0830  178.4550  144.5560 C   0  0  0  0  0  3  0  0  0  0  0  0
  189.8400  177.2940  142.5610 N   0  0  0  0  0  0  0  0  0  0  0  0
  184.0760  178.2530  142.6620 N   0  0  0  0  0  2  0  0  0  0  0  0
  183.6670  178.7270  143.8700 C   0  0  0  0  0  0  0  0  0  0  0  0
  191.5990  177.7700  144.8400 C   0  0  0  0  0  1  0  0  0  0  0  0
  188.8210  177.1370  141.7310 N   0  0  0  0  0  0  0  0  0  0  0  0
  181.5900  178.2230  144.9840 N   0  0  0  0  0  1  0  0  0  0  0  0
  182.2560  179.1770  144.1300 C   0  0  2  0  0  3  0  0  0  0  0  0
  181.4460  179.3660  142.8450 C   0  0  0  0  0  2  0  0  0  0  0  0
  180.4350  180.3240  143.0150 O   0  0  0  0  0  1  0  0  0  0  0  0
  183.7710  178.5900  137.3770 C   0  0  0  0  0  2  0  0  0  0  0  0
  180.1400  178.2980  136.3000 C   0  0  0  0  0  2  0  0  0  0  0  0
  180.5520  179.6650  139.2450 C   0  0  1  0  0  3  0  0  0  0  0  0
  180.7730  178.2140  139.7210 C   0  0  2  0  0  3  0  0  0  0  0  0
  181.9050  178.9500  138.9910 C   0  0  1  0  0  3  0  0  0  0  0  0
  179.9320  180.0970  137.9800 N   0  0  0  0  0  2  0  0  0  0  0  0
  182.3020  178.2990  137.6350 C   0  0  1  0  0  3  0  0  0  0  0  0
  181.5790  178.7920  136.3810 C   0  0  0  0  0  2  0  0  0  0  0  0
  179.1930  179.0900  137.2260 C   0  0  0  0  0  2  0  0  0  0  0  0
  179.9200  177.1330  139.0390 C   0  0  0  0  0  2  0  0  0  0  0  0
  180.2610  175.7890  139.5030 N   0  0  0  0  0  2  0  0  0  0  0  0
  179.1030  175.1690  137.2380 O   0  0  0  0  0  0  0  0  0  0  0  0
  180.0780  174.6210  138.2420 S   0  0  0  0  0  0  0  0  0  0  0  0
  179.5250  173.3440  138.8010 O   0  0  0  0  0  0  0  0  0  0  0  0
  181.6110  174.2130  137.3780 C   0  0  2  0  0  3  0  0  0  0  0  0
  182.7830  174.8870  138.1030 C   0  0  0  0  0  2  0  0  0  0  0  0
  182.6050  175.0690  135.2660 C   0  0  0  0  0  3  0  0  0  0  0  0
  181.5350  174.6340  135.9260 C   0  0  0  0  0  3  0  0  0  0  0  0
  184.0560  174.6780  137.2820 C   0  0  0  0  0  2  0  0  0  0  0  0
  183.8610  175.2100  135.9200 N   0  0  0  0  0  2  0  0  0  0  0  0
  191.4540  177.3510  137.9140 O   0  0  0  0  0  0  0  0  0  0  0  0
  192.1570  176.3740  137.2110 C   0  0  0  0  0  2  0  0  0  0  0  0
  191.9180  176.4310  135.8280 O   0  0  0  0  0  0  0  0  0  0  0  0
  189.2320  176.1850  134.6400 O   0  0  0  0  0  0  0  0  0  0  0  0
  188.2070  173.2770  136.4010 C   0  0  0  0  0  0  0  0  0  0  0  0
  191.8280  175.1200  135.3370 C   0  0  2  0  0  3  0  0  0  0  0  0
  190.5960  173.4220  136.3170 C   0  0  0  0  0  0  0  0  0  0  0  0
  191.9760  173.0070  136.5910 C   0  0  0  0  0  2  0  0  0  0  0  0
  189.2970  175.1130  135.2850 C   0  0  0  0  0  0  0  0  0  0  0  0
  188.1260  174.4810  135.6800 C   0  0  0  0  0  3  0  0  0  0  0  0
  190.5050  174.5710  135.6270 N   0  0  0  0  0  0  0  0  0  0  0  0
  186.9810  172.6110  136.8520 C   0  0  0  0  0  1  0  0  0  0  0  0
  192.7880  174.2480  136.1790 C   0  0  1  0  0  3  0  0  0  0  0  0
  189.4540  172.7370  136.7260 C   0  0  0  0  0  3  0  0  0  0  0  0
  195.2080  172.0350  136.4540 C   0  0  0  0  0  2  0  0  0  0  0  0
  195.5170  173.2810  137.2290 C   0  0  0  0  0  2  0  0  0  0  0  0
  194.1390  172.4400  135.4580 C   0  0  0  0  0  2  0  0  0  0  0  0
  195.1690  174.3670  136.2430 C   0  0  0  0  0  2  0  0  0  0  0  0
  194.0260  173.8970  135.4470 N   0  0  0  0  0  0  0  0  0  0  0  0
  1  5  1  1  0  0  0
  1  8  1  0  0  0  0
  1 11  1  0  0  0  0
  2  4  1  6  0  0  0
  2 27  1  0  0  0  0
  3  9  1  0  0  0  0
  3  5  1  0  0  0  0
  5  7  1  0  0  0  0
  6 10  2  0  0  0  0
  6 12  1  0  0  0  0
  8 52  1  1  0  0  0
  8  4  1  0  0  0  0
  9  6  1  0  0  0  0
 11 12  1  1  0  0  0
 11  2  1  0  0  0  0
 13  5  1  0  0  0  0
 14 22  1  0  0  0  0
 14 15  1  0  0  0  0
 17 19  1  0  0  0  0
 17 22  2  0  0  0  0
 18 17  1  0  0  0  0
 19 16  1  0  0  0  0
 20 14  2  0  0  0  0
 21 18  2  0  0  0  0
 21 20  1  0  0  0  0
 23 19  2  0  0  0  0
 24 20  1  0  0  0  0
 24 25  1  0  0  0  0
 25 29  1  0  0  0  0
 25 15  2  0  0  0  0
 26 16  1  0  0  0  0
 27 18  1  0  0  0  0
 27 23  1  0  0  0  0
 29 28  1  1  0  0  0
 30 31  1  0  0  0  0
 30 29  1  0  0  0  0
 32 38  1  0  0  0  0
 32 10  1  0  0  0  0
 33 39  1  0  0  0  0
 33 40  1  0  0  0  0
 34 37  1  6  0  0  0
 34 35  1  0  0  0  0
 35 41  1  6  0  0  0
 36 34  1  0  0  0  0
 36 35  1  0  0  0  0
 38 36  1  0  0  0  0
 39 38  1  0  0  0  0
 40 37  1  0  0  0  0
 41 42  1  0  0  0  0
 43 44  2  0  0  0  0
 44 45  2  0  0  0  0
 44 42  1  0  0  0  0
 46 47  1  0  0  0  0
 46 44  1  0  0  0  0
 48 51  1  0  0  0  0
 48 49  2  0  0  0  0
 49 46  1  0  0  0  0
 50 47  1  0  0  0  0
 51 50  1  0  0  0  0
 53 52  1  0  0  0  0
 54 53  1  0  0  0  0
 55 60  2  0  0  0  0
 56 65  1  0  0  0  0
 56 63  1  0  0  0  0
 57 62  1  0  0  0  0
 57 54  1  0  0  0  0
 57 64  1  0  0  0  0
 58 59  1  0  0  0  0
 58 65  2  0  0  0  0
 60 62  1  0  0  0  0
 60 61  1  0  0  0  0
 61 56  2  0  0  0  0
 62 58  1  0  0  0  0
 64 59  1  0  0  0  0
 66 67  1  0  0  0  0
 68 66  1  0  0  0  0
 69 67  1  0  0  0  0
 70 68  1  0  0  0  0
 70 64  1  0  0  0  0
 70 69  1  0  0  0  0
M  END
>  <MODEL>
5

>  <REMARK>
 VINA RESULT:      -6.1      2.363      8.991
  Name = 
  14 active torsions:
  status: ('A' for Active; 'I' for Inactive)
    1  A    between atoms: C_1  and  CA_43
    2  A    between atoms: O_4  and  C_25
    3  A    between atoms: O_4  and  C_65
    4  A    between atoms: C_5  and  S_42
    5  A    between atoms: C_17  and  N_68
    6  A    between atoms: C_26  and  C_69
    7  A    between atoms: C_30  and  C_36
    8  A    between atoms: C_30  and  C_51
    9  A    between atoms: N_32  and  S_42
   10  A    between atoms: N_32  and  C_69
   11  A    between atoms: C_40  and  O_44
   12  A    between atoms: CA_43  and  C_60
   13  A    between atoms: O_44  and  C_65
   14  A    between atoms: N_61  and  C_62
                            x       y       z     vdW  Elec       q    Type
                         _______ _______ _______ _____ _____    ______ ____

>  <TORSDO>
F 14

$$$$
=
 OpenBabel10222418533D

 70 80  0  0  1  0  0  0  0  0999 V2000
  188.9170  177.6720  139.6120 C   0  0  1  0  0  3  0  0  0  0  0  0
  188.5730  176.4700  141.5920 C   0  0  2  0  0  3  0  0  0  0  0  0
  187.5860  178.9440  137.7830 C   0  0  0  0  0  2  0  0  0  0  0  0
  190.0700  176.4040  141.2790 C   0  0  0  0  0  2  0  0  0  0  0  0
  188.8180  178.9220  138.7120 C   0  0  0  0  0  0  0  0  0  0  0  0
  185.8690  178.2280  139.4570 C   0  0  0  0  0  0  0  0  0  0  0  0
  188.8260  180.0630  139.5360 O   0  0  0  0  0  1  0  0  0  0  0  0
  190.1260  176.8060  139.7960 C   0  0  2  0  0  3  0  0  0  0  0  0
  186.4870  177.9370  138.1250 C   0  0  0  0  0  2  0  0  0  0  0  0
  184.6280  178.7390  139.5340 C   0  0  0  0  0  3  0  0  0  0  0  0
  188.0170  177.4010  140.5640 C   0  0  1  0  0  3  0  0  0  0  0  0
  186.6820  178.1030  140.7350 C   0  0  0  0  0  2  0  0  0  0  0  0
  189.9200  179.0160  137.8630 O   0  0  0  0  0  1  0  0  0  0  0  0
  190.1410  177.1220  146.6120 C   0  0  0  0  0  0  0  0  0  0  0  0
  190.8610  177.1310  147.7360 N   0  0  0  0  0  0  0  0  0  0  0  0
  186.1480  178.6460  145.2060 N   0  0  0  0  0  2  0  0  0  0  0  0
  188.3640  177.5210  145.1100 C   0  0  0  0  0  0  0  0  0  0  0  0
  189.0410  176.8740  144.0880 C   0  0  0  0  0  0  0  0  0  0  0  0
  187.1860  177.9240  144.5450 C   0  0  0  0  0  0  0  0  0  0  0  0
  190.8420  176.4720  145.6130 C   0  0  0  0  0  0  0  0  0  0  0  0
  190.3170  176.3200  144.3110 C   0  0  0  0  0  3  0  0  0  0  0  0
  188.8780  177.6770  146.3960 C   0  0  0  0  0  3  0  0  0  0  0  0
  187.1480  177.5540  143.2460 N   0  0  0  0  0  0  0  0  0  0  0  0
  192.0130  176.0160  146.0970 N   0  0  0  0  0  2  0  0  0  0  0  0
  192.0000  176.4560  147.3850 C   0  0  0  0  0  0  0  0  0  0  0  0
  184.9800  179.0870  144.4560 C   0  0  0  0  0  1  0  0  0  0  0  0
  188.2760  176.9220  142.9600 N   0  0  0  0  0  0  0  0  0  0  0  0
  192.8200  174.7700  148.8990 N   0  0  0  0  0  1  0  0  0  0  0  0
  193.0690  176.0920  148.3770 C   0  0  2  0  0  3  0  0  0  0  0  0
  193.1720  177.0880  149.5340 C   0  0  0  0  0  2  0  0  0  0  0  0
  194.4710  177.1250  150.0630 O   0  0  0  0  0  1  0  0  0  0  0  0
  183.8160  179.2370  138.3440 C   0  0  0  0  0  2  0  0  0  0  0  0
  182.7330  176.1090  136.4790 C   0  0  0  0  0  2  0  0  0  0  0  0
  180.9010  178.7460  135.8390 C   0  0  1  0  0  3  0  0  0  0  0  0
  180.2530  178.4400  137.2070 C   0  0  2  0  0  3  0  0  0  0  0  0
  181.6250  179.1260  137.1570 C   0  0  1  0  0  3  0  0  0  0  0  0
  181.7220  177.8320  135.0250 N   0  0  0  0  0  2  0  0  0  0  0  0
  182.7690  178.2830  137.7950 C   0  0  1  0  0  3  0  0  0  0  0  0
  183.5410  177.3390  136.8730 C   0  0  0  0  0  2  0  0  0  0  0  0
  181.6920  176.4180  135.3820 C   0  0  0  0  0  2  0  0  0  0  0  0
  180.0860  176.9560  137.5680 C   0  0  0  0  0  2  0  0  0  0  0  0
  179.0900  176.7540  138.6190 N   0  0  0  0  0  2  0  0  0  0  0  0
  181.1050  175.6850  139.9050 O   0  0  0  0  0  0  0  0  0  0  0  0
  179.8380  176.4570  140.1490 S   0  0  0  0  0  0  0  0  0  0  0  0
  178.9320  175.6320  141.0120 O   0  0  0  0  0  0  0  0  0  0  0  0
  180.2550  177.9500  141.0750 C   0  0  2  0  0  3  0  0  0  0  0  0
  181.7700  177.9770  141.3170 C   0  0  0  0  0  2  0  0  0  0  0  0
  179.9990  178.5410  143.4760 C   0  0  0  0  0  3  0  0  0  0  0  0
  179.4800  178.0090  142.3730 C   0  0  0  0  0  3  0  0  0  0  0  0
  182.1010  179.1520  142.2380 C   0  0  0  0  0  2  0  0  0  0  0  0
  181.3370  179.0300  143.4930 N   0  0  0  0  0  2  0  0  0  0  0  0
  191.3270  177.4780  139.5050 O   0  0  0  0  0  0  0  0  0  0  0  0
  192.0400  176.5780  138.7150 C   0  0  0  0  0  2  0  0  0  0  0  0
  192.1180  176.9850  137.3740 O   0  0  0  0  0  0  0  0  0  0  0  0
  189.7020  177.2360  135.7050 O   0  0  0  0  0  0  0  0  0  0  0  0
  188.2810  174.0700  136.4610 C   0  0  0  0  0  0  0  0  0  0  0  0
  192.0870  175.8440  136.5580 C   0  0  2  0  0  3  0  0  0  0  0  0
  190.6460  174.0550  136.8420 C   0  0  0  0  0  0  0  0  0  0  0  0
  191.9360  173.4840  137.2420 C   0  0  0  0  0  2  0  0  0  0  0  0
  189.6140  176.0370  136.0580 C   0  0  0  0  0  0  0  0  0  0  0  0
  188.3720  175.4170  136.0660 C   0  0  0  0  0  3  0  0  0  0  0  0
  190.7190  175.3400  136.4600 N   0  0  0  0  0  0  0  0  0  0  0  0
  186.9740  173.4080  136.5030 C   0  0  0  0  0  1  0  0  0  0  0  0
  192.8460  174.7240  137.3080 C   0  0  1  0  0  3  0  0  0  0  0  0
  189.4290  173.3770  136.8540 C   0  0  0  0  0  3  0  0  0  0  0  0
  195.0810  172.3110  137.3860 C   0  0  0  0  0  2  0  0  0  0  0  0
  195.2760  173.2720  138.5200 C   0  0  0  0  0  2  0  0  0  0  0  0
  194.2450  173.0600  136.3670 C   0  0  0  0  0  2  0  0  0  0  0  0
  195.1700  174.6080  137.8300 C   0  0  0  0  0  2  0  0  0  0  0  0
  194.1900  174.4720  136.7420 N   0  0  0  0  0  0  0  0  0  0  0  0
  1  5  1  1  0  0  0
  1  8  1  0  0  0  0
  1 11  1  0  0  0  0
  2  4  1  1  0  0  0
  2 27  1  0  0  0  0
  3  9  1  0  0  0  0
  3  5  1  0  0  0  0
  5  7  1  0  0  0  0
  6 10  2  0  0  0  0
  6 12  1  0  0  0  0
  8 52  1  1  0  0  0
  8  4  1  0  0  0  0
  9  6  1  0  0  0  0
 11 12  1  1  0  0  0
 11  2  1  0  0  0  0
 13  5  1  0  0  0  0
 14 15  1  0  0  0  0
 17 22  2  0  0  0  0
 18 21  2  0  0  0  0
 18 17  1  0  0  0  0
 19 17  1  0  0  0  0
 19 16  1  0  0  0  0
 20 24  1  0  0  0  0
 20 14  2  0  0  0  0
 21 20  1  0  0  0  0
 22 14  1  0  0  0  0
 23 19  2  0  0  0  0
 24 25  1  0  0  0  0
 25 15  2  0  0  0  0
 25 29  1  0  0  0  0
 26 16  1  0  0  0  0
 27 23  1  0  0  0  0
 27 18  1  0  0  0  0
 29 28  1  1  0  0  0
 29 30  1  0  0  0  0
 30 31  1  0  0  0  0
 32 10  1  0  0  0  0
 33 39  1  0  0  0  0
 34 37  1  1  0  0  0
 34 36  1  0  0  0  0
 34 35  1  0  0  0  0
 35 41  1  1  0  0  0
 36 35  1  0  0  0  0
 36 38  1  0  0  0  0
 37 40  1  0  0  0  0
 38 32  1  0  0  0  0
 39 38  1  0  0  0  0
 40 33  1  0  0  0  0
 41 42  1  0  0  0  0
 42 44  1  0  0  0  0
 43 44  2  0  0  0  0
 44 45  2  0  0  0  0
 44 46  1  0  0  0  0
 46 47  1  0  0  0  0
 46 49  1  0  0  0  0
 47 50  1  0  0  0  0
 48 51  1  0  0  0  0
 49 48  2  0  0  0  0
 50 51  1  0  0  0  0
 53 52  1  0  0  0  0
 54 53  1  0  0  0  0
 55 60  2  0  0  0  0
 56 63  1  0  0  0  0
 56 65  1  0  0  0  0
 57 64  1  0  0  0  0
 57 54  1  0  0  0  0
 58 65  2  0  0  0  0
 58 59  1  0  0  0  0
 59 64  1  0  0  0  0
 60 61  1  0  0  0  0
 60 62  1  0  0  0  0
 61 56  2  0  0  0  0
 62 57  1  0  0  0  0
 62 58  1  0  0  0  0
 66 67  1  0  0  0  0
 68 70  1  0  0  0  0
 68 66  1  0  0  0  0
 69 67  1  0  0  0  0
 70 64  1  0  0  0  0
 70 69  1  0  0  0  0
M  END
>  <MODEL>
6

>  <REMARK>
 VINA RESULT:      -6.0      2.148      7.758
  Name = 
  14 active torsions:
  status: ('A' for Active; 'I' for Inactive)
    1  A    between atoms: C_1  and  CA_43
    2  A    between atoms: O_4  and  C_25
    3  A    between atoms: O_4  and  C_65
    4  A    between atoms: C_5  and  S_42
    5  A    between atoms: C_17  and  N_68
    6  A    between atoms: C_26  and  C_69
    7  A    between atoms: C_30  and  C_36
    8  A    between atoms: C_30  and  C_51
    9  A    between atoms: N_32  and  S_42
   10  A    between atoms: N_32  and  C_69
   11  A    between atoms: C_40  and  O_44
   12  A    between atoms: CA_43  and  C_60
   13  A    between atoms: O_44  and  C_65
   14  A    between atoms: N_61  and  C_62
                            x       y       z     vdW  Elec       q    Type
                         _______ _______ _______ _____ _____    ______ ____

>  <TORSDO>
F 14

$$$$
=
 OpenBabel10222418533D

 70 80  0  0  1  0  0  0  0  0999 V2000
  188.7860  177.6880  140.1140 C   0  0  1  0  0  3  0  0  0  0  0  0
  188.4470  176.5200  142.1150 C   0  0  2  0  0  3  0  0  0  0  0  0
  187.4610  179.0060  138.3130 C   0  0  0  0  0  2  0  0  0  0  0  0
  189.9280  176.3800  141.7580 C   0  0  0  0  0  2  0  0  0  0  0  0
  188.7180  178.9340  139.2050 C   0  0  0  0  0  0  0  0  0  0  0  0
  185.7650  178.3860  140.0450 C   0  0  0  0  0  0  0  0  0  0  0  0
  188.8050  180.0800  140.0170 O   0  0  0  0  0  1  0  0  0  0  0  0
  189.9590  176.7670  140.2690 C   0  0  2  0  0  3  0  0  0  0  0  0
  186.3260  178.0550  138.6980 C   0  0  0  0  0  2  0  0  0  0  0  0
  184.5520  178.9550  140.1550 C   0  0  0  0  0  3  0  0  0  0  0  0
  187.9040  177.4680  141.0950 C   0  0  1  0  0  3  0  0  0  0  0  0
  186.6090  178.2330  141.3000 C   0  0  0  0  0  2  0  0  0  0  0  0
  189.7970  178.9680  138.3220 O   0  0  0  0  0  1  0  0  0  0  0  0
  190.2210  177.1960  147.0620 C   0  0  0  0  0  0  0  0  0  0  0  0
  190.9840  177.2020  148.1580 N   0  0  0  0  0  0  0  0  0  0  0  0
  186.2160  178.8030  145.7880 N   0  0  0  0  0  2  0  0  0  0  0  0
  188.3980  177.6210  145.6230 C   0  0  0  0  0  0  0  0  0  0  0  0
  189.0200  176.9440  144.5860 C   0  0  0  0  0  0  0  0  0  0  0  0
  187.2100  178.0470  145.0980 C   0  0  0  0  0  0  0  0  0  0  0  0
  190.8670  176.5160  146.0470 C   0  0  0  0  0  0  0  0  0  0  0  0
  190.2900  176.3610  144.7680 C   0  0  0  0  0  3  0  0  0  0  0  0
  188.9650  177.7800  146.8870 C   0  0  0  0  0  3  0  0  0  0  0  0
  187.1130  177.6600  143.8060 N   0  0  0  0  0  0  0  0  0  0  0  0
  192.0440  176.0370  146.4930 N   0  0  0  0  0  2  0  0  0  0  0  0
  192.0910  176.4940  147.7730 C   0  0  0  0  0  0  0  0  0  0  0  0
  185.0320  179.2630  145.0770 C   0  0  0  0  0  1  0  0  0  0  0  0
  188.2140  176.9970  143.4870 N   0  0  0  0  0  0  0  0  0  0  0  0
  192.9140  174.8180  149.2970 N   0  0  0  0  0  1  0  0  0  0  0  0
  193.1880  176.1160  148.7290 C   0  0  2  0  0  3  0  0  0  0  0  0
  193.3760  177.1370  149.8540 C   0  0  0  0  0  2  0  0  0  0  0  0
  194.6930  177.1270  150.3380 O   0  0  0  0  0  1  0  0  0  0  0  0
  183.7280  179.4810  138.9850 C   0  0  0  0  0  2  0  0  0  0  0  0
  180.2490  179.4810  137.4590 C   0  0  0  0  0  2  0  0  0  0  0  0
  180.2750  179.7760  140.7190 C   0  0  1  0  0  3  0  0  0  0  0  0
  180.5390  178.2550  140.7030 C   0  0  2  0  0  3  0  0  0  0  0  0
  181.6890  179.2240  140.3990 C   0  0  1  0  0  3  0  0  0  0  0  0
  179.7600  180.5970  139.6080 N   0  0  0  0  0  2  0  0  0  0  0  0
  182.2620  179.0830  138.9590 C   0  0  1  0  0  3  0  0  0  0  0  0
  181.6390  179.9540  137.8670 C   0  0  0  0  0  2  0  0  0  0  0  0
  179.1660  179.8880  138.4800 C   0  0  0  0  0  2  0  0  0  0  0  0
  179.8280  177.4500  139.6040 C   0  0  0  0  0  2  0  0  0  0  0  0
  180.1420  176.0230  139.6780 N   0  0  0  0  0  2  0  0  0  0  0  0
  179.3340  176.2060  137.1940 O   0  0  0  0  0  0  0  0  0  0  0  0
  180.0750  175.2810  138.1180 S   0  0  0  0  0  0  0  0  0  0  0  0
  179.3280  173.9830  138.1990 O   0  0  0  0  0  0  0  0  0  0  0  0
  181.6910  174.9300  137.3920 C   0  0  2  0  0  3  0  0  0  0  0  0
  182.7790  175.5380  138.2870 C   0  0  0  0  0  2  0  0  0  0  0  0
  182.9020  175.9380  135.4700 C   0  0  0  0  0  3  0  0  0  0  0  0
  181.7690  175.4610  135.9770 C   0  0  0  0  0  3  0  0  0  0  0  0
  184.1320  175.3840  137.5920 C   0  0  0  0  0  2  0  0  0  0  0  0
  184.0830  176.0200  136.2620 N   0  0  0  0  0  2  0  0  0  0  0  0
  191.1790  177.3780  139.9360 O   0  0  0  0  0  0  0  0  0  0  0  0
  191.7610  176.5050  139.0190 C   0  0  0  0  0  2  0  0  0  0  0  0
  191.8500  177.0590  137.7310 O   0  0  0  0  0  0  0  0  0  0  0  0
  189.4610  177.3580  136.0320 O   0  0  0  0  0  0  0  0  0  0  0  0
  188.2070  174.0560  136.4040 C   0  0  0  0  0  0  0  0  0  0  0  0
  191.9030  176.0130  136.7980 C   0  0  2  0  0  3  0  0  0  0  0  0
  190.5600  174.1280  136.8470 C   0  0  0  0  0  0  0  0  0  0  0  0
  191.8710  173.5880  137.2210 C   0  0  0  0  0  2  0  0  0  0  0  0
  189.4340  176.1250  136.2510 C   0  0  0  0  0  0  0  0  0  0  0  0
  188.2300  175.4410  136.1580 C   0  0  0  0  0  3  0  0  0  0  0  0
  190.5680  175.4500  136.6080 N   0  0  0  0  0  0  0  0  0  0  0  0
  186.9390  173.3230  136.3380 C   0  0  0  0  0  1  0  0  0  0  0  0
  192.7070  174.8610  137.4450 C   0  0  1  0  0  3  0  0  0  0  0  0
  189.3840  173.3880  136.7530 C   0  0  0  0  0  3  0  0  0  0  0  0
  194.9410  172.4840  137.0170 C   0  0  0  0  0  2  0  0  0  0  0  0
  195.0830  173.1310  138.3620 C   0  0  0  0  0  2  0  0  0  0  0  0
  194.1500  173.4710  136.1810 C   0  0  0  0  0  2  0  0  0  0  0  0
  195.0050  174.5970  138.0230 C   0  0  0  0  0  2  0  0  0  0  0  0
  194.0760  174.7460  136.8940 N   0  0  0  0  0  0  0  0  0  0  0  0
  1  5  1  1  0  0  0
  1  8  1  0  0  0  0
  1 11  1  0  0  0  0
  2  4  1  6  0  0  0
  2 27  1  0  0  0  0
  3  9  1  0  0  0  0
  3  5  1  0  0  0  0
  5  7  1  0  0  0  0
  6 10  2  0  0  0  0
  6 12  1  0  0  0  0
  8 52  1  1  0  0  0
  8  4  1  0  0  0  0
  9  6  1  0  0  0  0
 11 12  1  1  0  0  0
 11  2  1  0  0  0  0
 13  5  1  0  0  0  0
 14 15  1  0  0  0  0
 17 22  2  0  0  0  0
 18 21  2  0  0  0  0
 18 17  1  0  0  0  0
 19 17  1  0  0  0  0
 19 16  1  0  0  0  0
 20 24  1  0  0  0  0
 20 14  2  0  0  0  0
 21 20  1  0  0  0  0
 22 14  1  0  0  0  0
 23 19  2  0  0  0  0
 24 25  1  0  0  0  0
 25 15  2  0  0  0  0
 25 29  1  0  0  0  0
 26 16  1  0  0  0  0
 27 23  1  0  0  0  0
 27 18  1  0  0  0  0
 29 28  1  1  0  0  0
 29 30  1  0  0  0  0
 30 31  1  0  0  0  0
 32 10  1  0  0  0  0
 33 39  1  0  0  0  0
 33 40  1  0  0  0  0
 34 37  1  6  0  0  0
 35 41  1  6  0  0  0
 35 34  1  0  0  0  0
 36 35  1  0  0  0  0
 36 34  1  0  0  0  0
 38 32  1  0  0  0  0
 38 36  1  0  0  0  0
 39 38  1  0  0  0  0
 40 37  1  0  0  0  0
 41 42  1  0  0  0  0
 43 44  2  0  0  0  0
 44 45  2  0  0  0  0
 44 42  1  0  0  0  0
 46 44  1  0  0  0  0
 46 47  1  0  0  0  0
 48 49  2  0  0  0  0
 48 51  1  0  0  0  0
 49 46  1  0  0  0  0
 50 47  1  0  0  0  0
 51 50  1  0  0  0  0
 53 52  1  0  0  0  0
 54 53  1  0  0  0  0
 55 60  2  0  0  0  0
 56 65  1  0  0  0  0
 57 64  1  0  0  0  0
 57 54  1  0  0  0  0
 58 59  1  0  0  0  0
 59 64  1  0  0  0  0
 60 62  1  0  0  0  0
 61 60  1  0  0  0  0
 61 56  2  0  0  0  0
 62 57  1  0  0  0  0
 62 58  1  0  0  0  0
 63 56  1  0  0  0  0
 65 58  2  0  0  0  0
 66 67  1  0  0  0  0
 68 70  1  0  0  0  0
 68 66  1  0  0  0  0
 69 67  1  0  0  0  0
 70 64  1  0  0  0  0
 70 69  1  0  0  0  0
M  END
>  <MODEL>
7

>  <REMARK>
 VINA RESULT:      -6.0      2.405      8.347
  Name = 
  14 active torsions:
  status: ('A' for Active; 'I' for Inactive)
    1  A    between atoms: C_1  and  CA_43
    2  A    between atoms: O_4  and  C_25
    3  A    between atoms: O_4  and  C_65
    4  A    between atoms: C_5  and  S_42
    5  A    between atoms: C_17  and  N_68
    6  A    between atoms: C_26  and  C_69
    7  A    between atoms: C_30  and  C_36
    8  A    between atoms: C_30  and  C_51
    9  A    between atoms: N_32  and  S_42
   10  A    between atoms: N_32  and  C_69
   11  A    between atoms: C_40  and  O_44
   12  A    between atoms: CA_43  and  C_60
   13  A    between atoms: O_44  and  C_65
   14  A    between atoms: N_61  and  C_62
                            x       y       z     vdW  Elec       q    Type
                         _______ _______ _______ _____ _____    ______ ____

>  <TORSDO>
F 14

$$$$
=
 OpenBabel10222418533D

 70 80  0  0  1  0  0  0  0  0999 V2000
  184.7450  178.2500  137.4980 C   0  0  1  0  0  3  0  0  0  0  0  0
  184.7290  179.3690  139.5550 C   0  0  2  0  0  3  0  0  0  0  0  0
  186.4080  177.3200  135.7350 C   0  0  0  0  0  2  0  0  0  0  0  0
  183.2720  179.2140  139.1160 C   0  0  0  0  0  2  0  0  0  0  0  0
  185.1200  177.0890  136.5530 C   0  0  0  0  0  0  0  0  0  0  0  0
  187.8460  178.1980  137.5860 C   0  0  0  0  0  0  0  0  0  0  0  0
  185.2340  175.9130  137.3180 O   0  0  0  0  0  1  0  0  0  0  0  0
  183.4000  178.8990  137.6150 C   0  0  2  0  0  3  0  0  0  0  0  0
  187.2960  178.4670  136.2200 C   0  0  0  0  0  2  0  0  0  0  0  0
  189.1440  177.8890  137.7480 C   0  0  0  0  0  3  0  0  0  0  0  0
  185.5110  178.6030  138.5380 C   0  0  1  0  0  3  0  0  0  0  0  0
  186.9250  178.1150  138.7930 C   0  0  0  0  0  2  0  0  0  0  0  0
  184.1190  176.8720  135.6070 O   0  0  0  0  0  1  0  0  0  0  0  0
  188.1890  177.8270  143.2610 C   0  0  0  0  0  0  0  0  0  0  0  0
  189.3120  177.5140  143.9110 N   0  0  0  0  0  0  0  0  0  0  0  0
  183.8080  178.2400  144.1980 N   0  0  0  0  0  2  0  0  0  0  0  0
  185.9020  178.2550  142.8580 C   0  0  0  0  0  0  0  0  0  0  0  0
  186.1600  178.5460  141.5270 C   0  0  0  0  0  0  0  0  0  0  0  0
  184.5520  178.4200  142.9940 C   0  0  0  0  0  0  0  0  0  0  0  0
  188.4780  178.1130  141.9390 C   0  0  0  0  0  0  0  0  0  0  0  0
  187.4730  178.4820  141.0190 C   0  0  0  0  0  3  0  0  0  0  0  0
  186.8910  177.8930  143.7710 C   0  0  0  0  0  3  0  0  0  0  0  0
  184.0140  178.8020  141.8150 N   0  0  0  0  0  0  0  0  0  0  0  0
  189.7950  177.9470  141.7130 N   0  0  0  0  0  2  0  0  0  0  0  0
  190.2730  177.6060  142.9400 C   0  0  0  0  0  0  0  0  0  0  0  0
  182.3820  178.5330  144.2190 C   0  0  0  0  0  1  0  0  0  0  0  0
  184.9870  178.8880  140.9210 N   0  0  0  0  0  0  0  0  0  0  0  0
  192.3890  177.0970  141.9040 N   0  0  0  0  0  1  0  0  0  0  0  0
  191.7050  177.2070  143.1700 C   0  0  2  0  0  3  0  0  0  0  0  0
  191.8390  175.8920  143.9410 C   0  0  0  0  0  2  0  0  0  0  0  0
  191.9240  176.1160  145.3230 O   0  0  0  0  0  1  0  0  0  0  0  0
  190.1180  177.6000  136.6120 C   0  0  0  0  0  2  0  0  0  0  0  0
  189.2770  174.3580  134.8180 C   0  0  0  0  0  2  0  0  0  0  0  0
  190.1730  173.9610  137.9420 C   0  0  1  0  0  3  0  0  0  0  0  0
  191.6030  174.1650  137.4000 C   0  0  2  0  0  3  0  0  0  0  0  0
  190.6910  175.3830  137.6000 C   0  0  1  0  0  3  0  0  0  0  0  0
  188.9680  173.6310  137.1590 N   0  0  0  0  0  2  0  0  0  0  0  0
  190.3550  176.1360  136.2800 C   0  0  1  0  0  3  0  0  0  0  0  0
  189.1010  175.6980  135.5220 C   0  0  0  0  0  2  0  0  0  0  0  0
  189.1740  173.1650  135.7920 C   0  0  0  0  0  2  0  0  0  0  0  0
  191.8990  173.5770  136.0110 C   0  0  0  0  0  2  0  0  0  0  0  0
  192.9290  174.3340  135.3010 N   0  0  0  0  0  2  0  0  0  0  0  0
  194.2170  173.6960  137.4910 O   0  0  0  0  0  0  0  0  0  0  0  0
  194.3090  174.6140  136.3040 S   0  0  0  0  0  0  0  0  0  0  0  0
  194.3090  176.0320  136.7930 O   0  0  0  0  0  0  0  0  0  0  0  0
  195.8940  174.3250  135.4870 C   0  0  2  0  0  3  0  0  0  0  0  0
  196.6890  173.2940  136.2980 C   0  0  0  0  0  2  0  0  0  0  0  0
  197.9850  175.6650  135.3960 C   0  0  0  0  0  3  0  0  0  0  0  0
  196.6580  175.6210  135.3250 C   0  0  0  0  0  3  0  0  0  0  0  0
  198.0910  173.1700  135.6990 C   0  0  0  0  0  2  0  0  0  0  0  0
  198.7420  174.4940  135.6830 N   0  0  0  0  0  2  0  0  0  0  0  0
  182.3530  178.0630  137.1890 O   0  0  0  0  0  0  0  0  0  0  0  0
  181.4760  178.0330  138.2720 C   0  0  0  0  0  2  0  0  0  0  0  0
  180.2560  178.6700  137.9930 O   0  0  0  0  0  0  0  0  0  0  0  0
  178.9520  180.9070  139.3990 O   0  0  0  0  0  0  0  0  0  0  0  0
  179.2920  179.6460  142.7010 C   0  0  0  0  0  0  0  0  0  0  0  0
  179.2600  178.0960  138.7980 C   0  0  2  0  0  3  0  0  0  0  0  0
  179.3860  177.8690  141.0980 C   0  0  0  0  0  0  0  0  0  0  0  0
  179.5260  176.4840  140.6380 C   0  0  0  0  0  2  0  0  0  0  0  0
  179.0930  180.0950  140.3420 C   0  0  0  0  0  0  0  0  0  0  0  0
  179.1360  180.5640  141.6470 C   0  0  0  0  0  3  0  0  0  0  0  0
  179.2330  178.7570  140.1010 N   0  0  0  0  0  0  0  0  0  0  0  0
  179.3680  180.1270  144.0840 C   0  0  0  0  0  1  0  0  0  0  0  0
  179.7050  176.6500  139.1190 C   0  0  1  0  0  3  0  0  0  0  0  0
  179.4200  178.2820  142.4280 C   0  0  0  0  0  3  0  0  0  0  0  0
  180.0100  173.4580  138.3800 C   0  0  0  0  0  2  0  0  0  0  0  0
  180.7120  174.3210  137.3750 C   0  0  0  0  0  2  0  0  0  0  0  0
  179.0310  174.3790  139.0820 C   0  0  0  0  0  2  0  0  0  0  0  0
  179.6850  175.3890  137.0960 C   0  0  0  0  0  2  0  0  0  0  0  0
  178.9510  175.6390  138.3440 N   0  0  0  0  0  0  0  0  0  0  0  0
  1  5  1  1  0  0  0
  1  8  1  0  0  0  0
  1 11  1  0  0  0  0
  2  4  1  6  0  0  0
  2 27  1  0  0  0  0
  3  9  1  0  0  0  0
  3  5  1  0  0  0  0
  5  7  1  0  0  0  0
  6 10  2  0  0  0  0
  6 12  1  0  0  0  0
  8 52  1  1  0  0  0
  8  4  1  0  0  0  0
  9  6  1  0  0  0  0
 11 12  1  1  0  0  0
 11  2  1  0  0  0  0
 13  5  1  0  0  0  0
 14 22  1  0  0  0  0
 14 15  1  0  0  0  0
 16 26  1  0  0  0  0
 17 19  1  0  0  0  0
 17 22  2  0  0  0  0
 18 17  1  0  0  0  0
 19 16  1  0  0  0  0
 20 14  2  0  0  0  0
 21 18  2  0  0  0  0
 21 20  1  0  0  0  0
 23 19  2  0  0  0  0
 24 20  1  0  0  0  0
 24 25  1  0  0  0  0
 25 29  1  0  0  0  0
 25 15  2  0  0  0  0
 27 18  1  0  0  0  0
 27 23  1  0  0  0  0
 29 28  1  6  0  0  0
 29 30  1  0  0  0  0
 30 31  1  0  0  0  0
 32 10  1  0  0  0  0
 33 39  1  0  0  0  0
 33 40  1  0  0  0  0
 34 37  1  6  0  0  0
 35 41  1  6  0  0  0
 35 36  1  0  0  0  0
 35 34  1  0  0  0  0
 36 34  1  0  0  0  0
 38 32  1  0  0  0  0
 38 36  1  0  0  0  0
 39 38  1  0  0  0  0
 40 37  1  0  0  0  0
 42 41  1  0  0  0  0
 42 44  1  0  0  0  0
 44 45  2  0  0  0  0
 44 43  2  0  0  0  0
 46 47  1  0  0  0  0
 46 44  1  0  0  0  0
 48 51  1  0  0  0  0
 49 48  2  0  0  0  0
 49 46  1  0  0  0  0
 50 47  1  0  0  0  0
 51 50  1  0  0  0  0
 52 53  1  0  0  0  0
 54 53  1  0  0  0  0
 54 57  1  0  0  0  0
 55 60  2  0  0  0  0
 56 63  1  0  0  0  0
 57 64  1  0  0  0  0
 57 62  1  0  0  0  0
 58 65  2  0  0  0  0
 59 58  1  0  0  0  0
 60 61  1  0  0  0  0
 61 56  2  0  0  0  0
 62 60  1  0  0  0  0
 62 58  1  0  0  0  0
 64 59  1  0  0  0  0
 65 56  1  0  0  0  0
 66 68  1  0  0  0  0
 67 66  1  0  0  0  0
 69 67  1  0  0  0  0
 69 70  1  0  0  0  0
 70 68  1  0  0  0  0
 70 64  1  0  0  0  0
M  END
>  <MODEL>
8

>  <REMARK>
 VINA RESULT:      -5.7      2.872     10.553
  Name = 
  14 active torsions:
  status: ('A' for Active; 'I' for Inactive)
    1  A    between atoms: C_1  and  CA_43
    2  A    between atoms: O_4  and  C_25
    3  A    between atoms: O_4  and  C_65
    4  A    between atoms: C_5  and  S_42
    5  A    between atoms: C_17  and  N_68
    6  A    between atoms: C_26  and  C_69
    7  A    between atoms: C_30  and  C_36
    8  A    between atoms: C_30  and  C_51
    9  A    between atoms: N_32  and  S_42
   10  A    between atoms: N_32  and  C_69
   11  A    between atoms: C_40  and  O_44
   12  A    between atoms: CA_43  and  C_60
   13  A    between atoms: O_44  and  C_65
   14  A    between atoms: N_61  and  C_62
                            x       y       z     vdW  Elec       q    Type
                         _______ _______ _______ _____ _____    ______ ____

>  <TORSDO>
F 14

$$$$
=
 OpenBabel10222418533D

 70 80  0  0  1  0  0  0  0  0999 V2000
  187.5580  176.8830  136.6050 C   0  0  1  0  0  3  0  0  0  0  0  0
  187.7130  174.5550  136.3950 C   0  0  2  0  0  3  0  0  0  0  0  0
  188.4610  178.8270  138.0680 C   0  0  0  0  0  2  0  0  0  0  0  0
  186.6910  175.0340  135.3610 C   0  0  0  0  0  2  0  0  0  0  0  0
  188.1350  178.3140  136.6500 C   0  0  0  0  0  0  0  0  0  0  0  0
  189.6110  176.7780  138.9280 C   0  0  0  0  0  0  0  0  0  0  0  0
  189.2870  178.3520  135.8410 O   0  0  0  0  0  1  0  0  0  0  0  0
  186.3330  176.4430  135.8620 C   0  0  2  0  0  3  0  0  0  0  0  0
  188.5040  177.7580  139.1600 C   0  0  0  0  0  2  0  0  0  0  0  0
  190.7080  176.7950  139.7050 C   0  0  0  0  0  3  0  0  0  0  0  0
  188.2670  175.8120  136.9840 C   0  0  1  0  0  3  0  0  0  0  0  0
  189.5920  175.8530  137.7220 C   0  0  0  0  0  2  0  0  0  0  0  0
  187.2290  179.2340  136.1250 O   0  0  0  0  0  1  0  0  0  0  0  0
  192.8000  173.8800  135.0770 C   0  0  0  0  0  0  0  0  0  0  0  0
  194.1090  174.0670  134.8880 N   0  0  0  0  0  0  0  0  0  0  0  0
  189.8280  170.5250  134.6760 N   0  0  0  0  0  2  0  0  0  0  0  0
  190.7010  172.8010  135.1650 C   0  0  0  0  0  0  0  0  0  0  0  0
  190.0920  173.9590  135.6250 C   0  0  0  0  0  0  0  0  0  0  0  0
  189.6920  171.8830  135.0940 C   0  0  0  0  0  0  0  0  0  0  0  0
  192.2220  175.0480  135.5360 C   0  0  0  0  0  0  0  0  0  0  0  0
  190.8430  175.1340  135.8260 C   0  0  0  0  0  3  0  0  0  0  0  0
  192.0630  172.7100  134.8800 C   0  0  0  0  0  3  0  0  0  0  0  0
  188.5300  172.4420  135.4980 N   0  0  0  0  0  0  0  0  0  0  0  0
  193.1510  176.0200  135.6100 N   0  0  0  0  0  2  0  0  0  0  0  0
  194.2900  175.3800  135.2310 C   0  0  0  0  0  0  0  0  0  0  0  0
  188.6800  169.6310  134.7300 C   0  0  0  0  0  1  0  0  0  0  0  0
  188.7690  173.7020  135.8300 N   0  0  0  0  0  0  0  0  0  0  0  0
  196.5530  175.6220  136.0240 N   0  0  0  0  0  1  0  0  0  0  0  0
  195.6000  176.0960  135.0500 C   0  0  2  0  0  3  0  0  0  0  0  0
  195.4680  177.6160  135.1610 C   0  0  0  0  0  2  0  0  0  0  0  0
  196.5960  178.2670  134.6390 O   0  0  0  0  0  1  0  0  0  0  0  0
  191.0290  177.8730  140.7330 C   0  0  0  0  0  2  0  0  0  0  0  0
  190.3860  178.7020  144.3850 C   0  0  0  0  0  2  0  0  0  0  0  0
  189.2740  175.7630  143.4680 C   0  0  1  0  0  3  0  0  0  0  0  0
  188.1160  176.5650  142.8370 C   0  0  2  0  0  3  0  0  0  0  0  0
  189.4720  176.5060  142.1210 C   0  0  1  0  0  3  0  0  0  0  0  0
  190.2300  176.2380  144.4830 N   0  0  0  0  0  2  0  0  0  0  0  0
  190.1700  177.8900  141.9860 C   0  0  1  0  0  3  0  0  0  0  0  0
  191.1200  178.3090  143.1090 C   0  0  0  0  0  2  0  0  0  0  0  0
  189.8950  177.4740  145.1820 C   0  0  0  0  0  2  0  0  0  0  0  0
  187.6460  177.8080  143.6080 C   0  0  0  0  0  2  0  0  0  0  0  0
  186.2210  177.7500  143.9290 N   0  0  0  0  0  2  0  0  0  0  0  0
  186.0510  179.0550  141.6650 O   0  0  0  0  0  0  0  0  0  0  0  0
  185.3100  178.8530  142.9570 S   0  0  0  0  0  0  0  0  0  0  0  0
  185.1920  180.1750  143.6550 O   0  0  0  0  0  0  0  0  0  0  0  0
  183.6370  178.2940  142.5680 C   0  0  2  0  0  3  0  0  0  0  0  0
  183.3550  178.5660  141.0850 C   0  0  0  0  0  2  0  0  0  0  0  0
  181.4060  179.2860  143.0330 C   0  0  0  0  0  3  0  0  0  0  0  0
  182.6250  178.9740  143.4640 C   0  0  0  0  0  3  0  0  0  0  0  0
  181.8890  178.2450  140.7950 C   0  0  0  0  0  2  0  0  0  0  0  0
  181.0210  179.0410  141.6840 N   0  0  0  0  0  2  0  0  0  0  0  0
  186.0160  177.2910  134.7860 O   0  0  0  0  0  0  0  0  0  0  0  0
  184.6220  177.3000  134.7570 C   0  0  0  0  0  2  0  0  0  0  0  0
  184.0700  176.0570  135.1060 O   0  0  0  0  0  0  0  0  0  0  0  0
  183.9990  173.9300  137.1440 O   0  0  0  0  0  0  0  0  0  0  0  0
  180.7140  172.7550  136.4790 C   0  0  0  0  0  0  0  0  0  0  0  0
  182.9100  176.2820  135.8630 C   0  0  2  0  0  3  0  0  0  0  0  0
  180.9770  175.0150  135.7300 C   0  0  0  0  0  0  0  0  0  0  0  0
  180.5680  176.2770  135.1060 C   0  0  0  0  0  2  0  0  0  0  0  0
  182.8070  173.9150  136.7560 C   0  0  0  0  0  0  0  0  0  0  0  0
  182.0510  172.7630  136.9150 C   0  0  0  0  0  3  0  0  0  0  0  0
  182.2520  175.0090  136.1530 N   0  0  0  0  0  0  0  0  0  0  0  0
  179.9080  171.5370  136.6130 C   0  0  0  0  0  1  0  0  0  0  0  0
  181.9040  177.0250  134.9530 C   0  0  1  0  0  3  0  0  0  0  0  0
  180.1670  173.8920  135.8790 C   0  0  0  0  0  3  0  0  0  0  0  0
  179.9940  178.9160  136.8510 C   0  0  0  0  0  2  0  0  0  0  0  0
  179.4130  178.7570  135.4780 C   0  0  0  0  0  2  0  0  0  0  0  0
  181.4590  178.5520  136.7090 C   0  0  0  0  0  2  0  0  0  0  0  0
  180.6100  178.9950  134.5940 C   0  0  0  0  0  2  0  0  0  0  0  0
  181.7910  178.4620  135.2880 N   0  0  0  0  0  0  0  0  0  0  0  0
  1  5  1  6  0  0  0
  1 11  1  0  0  0  0
  2  4  1  6  0  0  0
  2 11  1  0  0  0  0
  3  9  1  0  0  0  0
  4  8  1  0  0  0  0
  5  3  1  0  0  0  0
  6  9  1  0  0  0  0
  6 10  2  0  0  0  0
  7  5  1  0  0  0  0
  8 52  1  6  0  0  0
  8  1  1  0  0  0  0
 10 32  1  0  0  0  0
 11 12  1  6  0  0  0
 12  6  1  0  0  0  0
 13  5  1  0  0  0  0
 14 20  1  0  0  0  0
 15 14  1  0  0  0  0
 15 25  2  0  0  0  0
 16 26  1  0  0  0  0
 16 19  1  0  0  0  0
 17 18  2  0  0  0  0
 18 21  1  0  0  0  0
 18 27  1  0  0  0  0
 19 17  1  0  0  0  0
 19 23  2  0  0  0  0
 20 24  1  0  0  0  0
 20 21  2  0  0  0  0
 22 14  2  0  0  0  0
 22 17  1  0  0  0  0
 23 27  1  0  0  0  0
 25 24  1  0  0  0  0
 27  2  1  0  0  0  0
 29 30  1  0  0  0  0
 29 25  1  0  0  0  0
 29 28  1  1  0  0  0
 31 30  1  0  0  0  0
 32 38  1  0  0  0  0
 33 40  1  0  0  0  0
 34 37  1  1  0  0  0
 35 34  1  0  0  0  0
 35 41  1  1  0  0  0
 36 35  1  0  0  0  0
 36 34  1  0  0  0  0
 37 40  1  0  0  0  0
 38 36  1  0  0  0  0
 38 39  1  0  0  0  0
 39 33  1  0  0  0  0
 41 42  1  0  0  0  0
 43 44  2  0  0  0  0
 44 45  2  0  0  0  0
 44 42  1  0  0  0  0
 46 44  1  0  0  0  0
 46 49  1  0  0  0  0
 47 46  1  0  0  0  0
 48 49  2  0  0  0  0
 50 47  1  0  0  0  0
 50 51  1  0  0  0  0
 51 48  1  0  0  0  0
 53 52  1  0  0  0  0
 53 54  1  0  0  0  0
 54 57  1  0  0  0  0
 56 63  1  0  0  0  0
 56 61  2  0  0  0  0
 57 62  1  0  0  0  0
 58 65  2  0  0  0  0
 58 62  1  0  0  0  0
 59 58  1  0  0  0  0
 60 61  1  0  0  0  0
 60 55  2  0  0  0  0
 62 60  1  0  0  0  0
 64 59  1  0  0  0  0
 64 70  1  0  0  0  0
 64 57  1  0  0  0  0
 65 56  1  0  0  0  0
 67 66  1  0  0  0  0
 68 66  1  0  0  0  0
 69 70  1  0  0  0  0
 69 67  1  0  0  0  0
 70 68  1  0  0  0  0
M  END
>  <MODEL>
9

>  <REMARK>
 VINA RESULT:      -5.5      2.405      7.982
  Name = 
  14 active torsions:
  status: ('A' for Active; 'I' for Inactive)
    1  A    between atoms: C_1  and  CA_43
    2  A    between atoms: O_4  and  C_25
    3  A    between atoms: O_4  and  C_65
    4  A    between atoms: C_5  and  S_42
    5  A    between atoms: C_17  and  N_68
    6  A    between atoms: C_26  and  C_69
    7  A    between atoms: C_30  and  C_36
    8  A    between atoms: C_30  and  C_51
    9  A    between atoms: N_32  and  S_42
   10  A    between atoms: N_32  and  C_69
   11  A    between atoms: C_40  and  O_44
   12  A    between atoms: CA_43  and  C_60
   13  A    between atoms: O_44  and  C_65
   14  A    between atoms: N_61  and  C_62
                            x       y       z     vdW  Elec       q    Type
                         _______ _______ _______ _____ _____    ______ ____

>  <TORSDO>
F 14

$$$$
