=
 OpenBabel10222416413D

 30 33  0  0  1  0  0  0  0  0999 V2000
  188.2820  177.8640  148.4820 N   0  0  0  0  0  2  0  0  0  0  0  0
  188.8110  177.3250  144.4160 N   0  0  0  0  0  2  0  0  0  0  0  0
  188.4150  177.5380  147.2370 C   0  0  0  0  0  0  0  0  0  0  0  0
  184.3930  178.9690  145.0420 C   0  0  0  0  0  3  0  0  0  0  0  0
  185.1570  178.9290  142.5980 C   0  0  0  0  0  0  0  0  0  0  0  0
  189.7990  177.4850  146.5940 C   0  0  1  0  0  3  0  0  0  0  0  0
  184.9860  179.3340  141.2460 N   0  0  0  0  0  1  0  0  0  0  0  0
  186.2560  178.3150  142.9470 N   0  0  0  0  0  0  0  0  0  0  0  0
  187.4990  177.5050  144.9230 C   0  0  0  0  0  0  0  0  0  0  0  0
  186.4150  177.9020  144.3000 C   0  0  0  0  0  0  0  0  0  0  0  0
  185.4950  178.2880  145.3330 C   0  0  0  0  0  0  0  0  0  0  0  0
  186.1010  178.1370  146.6190 N   0  0  0  0  0  0  0  0  0  0  0  0
  190.7760  176.7940  147.5410 C   0  0  0  0  0  1  0  0  0  0  0  0
  189.8060  176.7980  145.2730 N   0  0  0  0  0  0  0  0  0  0  0  0
  184.0090  179.1540  143.5860 C   0  0  0  0  0  3  0  0  0  0  0  0
  187.2730  177.6480  146.3350 C   0  0  2  0  0  3  0  0  0  0  0  0
  191.0830  177.0710  144.6250 C   0  0  0  0  0  2  0  0  0  0  0  0
  191.4930  179.3260  143.9580 O   0  0  0  0  0  1  0  0  0  0  0  0
  190.9070  178.1270  143.5480 C   0  0  1  0  0  3  0  0  0  0  0  0
  191.5420  177.6740  142.3220 N   0  0  0  0  0  2  0  0  0  0  0  0
  190.7080  176.6230  141.7550 C   0  0  0  0  0  2  0  0  0  0  0  0
  188.9480  178.0020  138.0850 C   0  0  0  0  0  0  0  0  0  0  0  0
  190.0860  177.0860  140.4810 C   0  0  0  0  0  0  0  0  0  0  0  0
  190.7260  176.8390  139.2630 C   0  0  0  0  0  3  0  0  0  0  0  0
  190.1580  177.2940  138.0690 C   0  0  0  0  0  3  0  0  0  0  0  0
  188.8800  177.7950  140.5050 C   0  0  0  0  0  3  0  0  0  0  0  0
  188.3130  178.2490  139.3110 C   0  0  0  0  0  3  0  0  0  0  0  0
  188.7280  177.9080  135.6140 O   0  0  0  0  0  0  0  0  0  0  0  0
  187.5090  179.4130  136.8320 O   0  0  0  0  0  1  0  0  0  0  0  0
  188.3580  178.4810  136.8250 C   0  0  0  0  0  0  0  0  0  0  0  0
  2  9  1  0  0  0  0
  2 14  1  0  0  0  0
  3  1  2  0  0  0  0
  4 11  1  0  0  0  0
  5  8  2  0  0  0  0
  5 15  1  0  0  0  0
  6  3  1  0  0  0  0
  6 13  1  1  0  0  0
  7  5  1  0  0  0  0
  8 10  1  0  0  0  0
 10  9  2  0  0  0  0
 10 11  1  0  0  0  0
 11 12  2  0  0  0  0
 14  6  1  0  0  0  0
 15  4  2  0  0  0  0
 16  9  1  6  0  0  0
 16 12  1  0  0  0  0
 16  3  1  0  0  0  0
 17 14  1  0  0  0  0
 19 18  1  1  0  0  0
 19 17  1  0  0  0  0
 20 19  1  0  0  0  0
 21 20  1  0  0  0  0
 22 27  1  0  0  0  0
 23 26  1  0  0  0  0
 23 21  1  0  0  0  0
 24 23  2  0  0  0  0
 25 22  2  0  0  0  0
 25 24  1  0  0  0  0
 27 26  2  0  0  0  0
 28 30  2  0  0  0  0
 30 29  1  0  0  0  0
 30 22  1  0  0  0  0
M  END
>  <MODEL>
1

>  <REMARK>
 VINA RESULT:      -9.4      0.000      0.000
  Name = 
  6 active torsions:
  status: ('A' for Active; 'I' for Inactive)
    1  A    between atoms: C_1  and  C_28
    2  A    between atoms: C_2  and  C_4
    3  A    between atoms: C_2  and  N_11
    4  A    between atoms: N_11  and  C_21
    5  A    between atoms: C_17  and  C_21
    6  A    between atoms: C_17  and  N_24
                            x       y       z     vdW  Elec       q    Type
                         _______ _______ _______ _____ _____    ______ ____

>  <TORSDO>
F 6

$$$$
=
 OpenBabel10222416413D

 30 33  0  0  1  0  0  0  0  0999 V2000
  190.9030  176.9230  147.2910 N   0  0  0  0  0  2  0  0  0  0  0  0
  187.8730  177.8480  144.6330 N   0  0  0  0  0  2  0  0  0  0  0  0
  189.9810  177.3680  146.5010 C   0  0  0  0  0  0  0  0  0  0  0  0
  191.8380  177.2580  142.0760 C   0  0  0  0  0  3  0  0  0  0  0  0
  189.7040  177.4320  140.6710 C   0  0  0  0  0  0  0  0  0  0  0  0
  188.5060  177.1670  146.8430 C   0  0  1  0  0  3  0  0  0  0  0  0
  189.0260  177.2620  139.4330 N   0  0  0  0  0  1  0  0  0  0  0  0
  189.0150  177.7100  141.7440 N   0  0  0  0  0  0  0  0  0  0  0  0
  189.2200  177.9270  144.1980 C   0  0  0  0  0  0  0  0  0  0  0  0
  189.7020  177.8900  142.9780 C   0  0  0  0  0  0  0  0  0  0  0  0
  191.1020  177.6060  143.1240 C   0  0  0  0  0  0  0  0  0  0  0  0
  191.4320  177.4350  144.5040 N   0  0  0  0  0  0  0  0  0  0  0  0
  188.2800  177.4700  148.3210 C   0  0  0  0  0  1  0  0  0  0  0  0
  187.5930  178.0000  146.0120 N   0  0  0  0  0  0  0  0  0  0  0  0
  191.2330  177.3640  140.6880 C   0  0  0  0  0  3  0  0  0  0  0  0
  190.3000  177.6580  145.1070 C   0  0  2  0  0  3  0  0  0  0  0  0
  186.2320  177.5140  146.2040 C   0  0  0  0  0  2  0  0  0  0  0  0
  185.7870  179.5560  147.3570 O   0  0  0  0  0  1  0  0  0  0  0  0
  185.2810  178.6820  146.3930 C   0  0  1  0  0  3  0  0  0  0  0  0
  185.1310  179.3890  145.1320 N   0  0  0  0  0  2  0  0  0  0  0  0
  183.9410  178.8680  144.4730 C   0  0  0  0  0  2  0  0  0  0  0  0
  184.5360  178.6670  140.2220 C   0  0  0  0  0  0  0  0  0  0  0  0
  184.1470  178.8170  142.9960 C   0  0  0  0  0  0  0  0  0  0  0  0
  183.0640  178.5580  142.1500 C   0  0  0  0  0  3  0  0  0  0  0  0
  183.2580  178.4840  140.7680 C   0  0  0  0  0  3  0  0  0  0  0  0
  185.4250  178.9970  142.4580 C   0  0  0  0  0  3  0  0  0  0  0  0
  185.6190  178.9230  141.0760 C   0  0  0  0  0  3  0  0  0  0  0  0
  183.6860  178.2050  137.9360 O   0  0  0  0  0  0  0  0  0  0  0  0
  185.8540  178.8600  138.2570 O   0  0  0  0  0  1  0  0  0  0  0  0
  184.7340  178.5840  138.7650 C   0  0  0  0  0  0  0  0  0  0  0  0
  2 14  1  0  0  0  0
  3  6  1  0  0  0  0
  3  1  2  0  0  0  0
  4 11  1  0  0  0  0
  5 15  1  0  0  0  0
  5  8  2  0  0  0  0
  6 13  1  1  0  0  0
  7  5  1  0  0  0  0
  8 10  1  0  0  0  0
  9  2  1  0  0  0  0
 10 11  1  0  0  0  0
 10  9  2  0  0  0  0
 11 12  2  0  0  0  0
 12 16  1  0  0  0  0
 14 17  1  0  0  0  0
 14  6  1  0  0  0  0
 15  4  2  0  0  0  0
 16  9  1  6  0  0  0
 16  3  1  0  0  0  0
 17 19  1  0  0  0  0
 19 18  1  1  0  0  0
 20 19  1  0  0  0  0
 21 20  1  0  0  0  0
 22 25  2  0  0  0  0
 22 27  1  0  0  0  0
 23 21  1  0  0  0  0
 24 23  2  0  0  0  0
 25 24  1  0  0  0  0
 26 23  1  0  0  0  0
 27 26  2  0  0  0  0
 28 30  2  0  0  0  0
 29 30  1  0  0  0  0
 30 22  1  0  0  0  0
M  END
>  <MODEL>
2

>  <REMARK>
 VINA RESULT:      -9.4      2.318      5.210
  Name = 
  6 active torsions:
  status: ('A' for Active; 'I' for Inactive)
    1  A    between atoms: C_1  and  C_28
    2  A    between atoms: C_2  and  C_4
    3  A    between atoms: C_2  and  N_11
    4  A    between atoms: N_11  and  C_21
    5  A    between atoms: C_17  and  C_21
    6  A    between atoms: C_17  and  N_24
                            x       y       z     vdW  Elec       q    Type
                         _______ _______ _______ _____ _____    ______ ____

>  <TORSDO>
F 6

$$$$
=
 OpenBabel10222416413D

 30 33  0  0  1  0  0  0  0  0999 V2000
  190.8670  176.9480  147.2750 N   0  0  0  0  0  2  0  0  0  0  0  0
  187.7830  177.8000  144.6560 N   0  0  0  0  0  2  0  0  0  0  0  0
  189.9250  177.3710  146.4970 C   0  0  0  0  0  0  0  0  0  0  0  0
  191.7260  177.2860  142.0480 C   0  0  0  0  0  3  0  0  0  0  0  0
  189.5710  177.4110  140.6710 C   0  0  0  0  0  0  0  0  0  0  0  0
  188.4600  177.1390  146.8580 C   0  0  1  0  0  3  0  0  0  0  0  0
  188.8800  177.2230  139.4420 N   0  0  0  0  0  1  0  0  0  0  0  0
  188.8890  177.6770  141.7520 N   0  0  0  0  0  0  0  0  0  0  0  0
  189.1230  177.9060  144.2020 C   0  0  0  0  0  0  0  0  0  0  0  0
  189.5890  177.8760  142.9760 C   0  0  0  0  0  0  0  0  0  0  0  0
  190.9970  177.6220  143.1050 C   0  0  0  0  0  0  0  0  0  0  0  0
  191.3480  177.4620  144.4810 N   0  0  0  0  0  0  0  0  0  0  0  0
  188.2460  177.4410  148.3390 C   0  0  0  0  0  1  0  0  0  0  0  0
  187.5190  177.9500  146.0380 N   0  0  0  0  0  0  0  0  0  0  0  0
  191.1010  177.3760  140.6680 C   0  0  0  0  0  3  0  0  0  0  0  0
  190.2200  177.6630  145.0980 C   0  0  2  0  0  3  0  0  0  0  0  0
  186.1710  177.4350  146.2480 C   0  0  0  0  0  2  0  0  0  0  0  0
  185.9960  179.7160  146.9300 O   0  0  0  0  0  1  0  0  0  0  0  0
  185.2740  178.5280  146.8020 C   0  0  1  0  0  3  0  0  0  0  0  0
  184.1570  178.7370  145.8960 N   0  0  0  0  0  2  0  0  0  0  0  0
  184.6790  179.3580  144.6870 C   0  0  0  0  0  2  0  0  0  0  0  0
  182.1630  178.3660  141.3470 C   0  0  0  0  0  0  0  0  0  0  0  0
  183.8090  179.0300  143.5200 C   0  0  0  0  0  0  0  0  0  0  0  0
  182.4220  179.1780  143.6210 C   0  0  0  0  0  3  0  0  0  0  0  0
  181.6030  178.8480  142.5380 C   0  0  0  0  0  3  0  0  0  0  0  0
  184.3750  178.5470  142.3350 C   0  0  0  0  0  3  0  0  0  0  0  0
  183.5540  178.2170  141.2530 C   0  0  0  0  0  3  0  0  0  0  0  0
  179.9970  177.5680  140.4330 O   0  0  0  0  0  1  0  0  0  0  0  0
  181.7150  178.1230  139.0290 O   0  0  0  0  0  0  0  0  0  0  0  0
  181.2930  178.0170  140.2110 C   0  0  0  0  0  0  0  0  0  0  0  0
  2 14  1  0  0  0  0
  3  6  1  0  0  0  0
  3  1  2  0  0  0  0
  4 11  1  0  0  0  0
  5  8  2  0  0  0  0
  6 13  1  1  0  0  0
  7  5  1  0  0  0  0
  8 10  1  0  0  0  0
  9  2  1  0  0  0  0
 10 11  1  0  0  0  0
 10  9  2  0  0  0  0
 11 12  2  0  0  0  0
 12 16  1  0  0  0  0
 14 17  1  0  0  0  0
 14  6  1  0  0  0  0
 15  5  1  0  0  0  0
 15  4  2  0  0  0  0
 16  9  1  6  0  0  0
 16  3  1  0  0  0  0
 17 19  1  0  0  0  0
 19 18  1  6  0  0  0
 20 19  1  0  0  0  0
 21 20  1  0  0  0  0
 22 25  1  0  0  0  0
 23 24  1  0  0  0  0
 23 21  1  0  0  0  0
 25 24  2  0  0  0  0
 26 23  2  0  0  0  0
 27 22  2  0  0  0  0
 27 26  1  0  0  0  0
 29 30  2  0  0  0  0
 30 28  1  0  0  0  0
 30 22  1  0  0  0  0
M  END
>  <MODEL>
3

>  <REMARK>
 VINA RESULT:      -9.0      2.899      6.021
  Name = 
  6 active torsions:
  status: ('A' for Active; 'I' for Inactive)
    1  A    between atoms: C_1  and  C_28
    2  A    between atoms: C_2  and  C_4
    3  A    between atoms: C_2  and  N_11
    4  A    between atoms: N_11  and  C_21
    5  A    between atoms: C_17  and  C_21
    6  A    between atoms: C_17  and  N_24
                            x       y       z     vdW  Elec       q    Type
                         _______ _______ _______ _____ _____    ______ ____

>  <TORSDO>
F 6

$$$$
=
 OpenBabel10222416413D

 30 33  0  0  1  0  0  0  0  0999 V2000
  185.7700  177.0600  136.6210 N   0  0  0  0  0  2  0  0  0  0  0  0
  187.4060  178.7410  140.0270 N   0  0  0  0  0  2  0  0  0  0  0  0
  186.2730  177.7290  137.6080 C   0  0  0  0  0  0  0  0  0  0  0  0
  182.7500  178.2090  140.8320 C   0  0  0  0  0  3  0  0  0  0  0  0
  184.1050  178.8430  142.9110 C   0  0  0  0  0  0  0  0  0  0  0  0
  187.7600  177.6220  137.9370 C   0  0  1  0  0  3  0  0  0  0  0  0
  184.2120  178.9630  144.3240 N   0  0  0  0  0  1  0  0  0  0  0  0
  185.1720  178.9970  142.1750 N   0  0  0  0  0  0  0  0  0  0  0  0
  185.9980  178.7570  139.8570 C   0  0  0  0  0  0  0  0  0  0  0  0
  185.0550  178.8870  140.7600 C   0  0  0  0  0  0  0  0  0  0  0  0
  183.8470  178.4410  140.1230 C   0  0  0  0  0  0  0  0  0  0  0  0
  184.1230  177.9970  138.7920 N   0  0  0  0  0  0  0  0  0  0  0  0
  188.5730  177.6820  136.6470 C   0  0  0  0  0  1  0  0  0  0  0  0
  188.2290  178.6760  138.8780 N   0  0  0  0  0  0  0  0  0  0  0  0
  182.7230  178.6180  142.2940 C   0  0  0  0  0  2  0  0  0  0  0  0
  185.3980  178.2250  138.6650 C   0  0  0  0  0  0  0  0  0  0  0  0
  189.5570  178.3040  139.3530 C   0  0  0  0  0  2  0  0  0  0  0  0
  190.1560  176.0360  139.7970 O   0  0  0  0  0  1  0  0  0  0  0  0
  189.4590  177.1310  140.3120 C   0  0  1  0  0  3  0  0  0  0  0  0
  190.0320  177.5090  141.5940 N   0  0  0  0  0  2  0  0  0  0  0  0
  189.8540  176.3870  142.5050 C   0  0  0  0  0  2  0  0  0  0  0  0
  187.8820  177.6280  146.1150 C   0  0  0  0  0  0  0  0  0  0  0  0
  189.1680  176.8350  143.7510 C   0  0  0  0  0  0  0  0  0  0  0  0
  189.9220  177.1630  144.8820 C   0  0  0  0  0  3  0  0  0  0  0  0
  189.2810  177.5590  146.0590 C   0  0  0  0  0  3  0  0  0  0  0  0
  187.7710  176.9000  143.8010 C   0  0  0  0  0  3  0  0  0  0  0  0
  187.1320  177.2960  144.9780 C   0  0  0  0  0  3  0  0  0  0  0  0
  186.0400  178.7860  147.3100 O   0  0  0  0  0  0  0  0  0  0  0  0
  187.6960  177.7260  148.4800 O   0  0  0  0  0  1  0  0  0  0  0  0
  187.2130  178.0430  147.3600 C   0  0  0  0  0  0  0  0  0  0  0  0
  1  3  2  0  0  0  0
  3  6  1  0  0  0  0
  3 16  1  0  0  0  0
  4 15  1  0  0  0  0
  5  7  1  0  0  0  0
  6 13  1  6  0  0  0
  6 14  1  0  0  0  0
  8  5  2  0  0  0  0
  9  2  1  0  0  0  0
  9 10  2  0  0  0  0
 10  8  1  0  0  0  0
 11 10  1  0  0  0  0
 11  4  2  0  0  0  0
 12 11  1  0  0  0  0
 14 17  1  0  0  0  0
 14  2  1  0  0  0  0
 15  5  1  0  0  0  0
 16 12  2  0  0  0  0
 16  9  1  0  0  0  0
 17 19  1  0  0  0  0
 19 18  1  6  0  0  0
 19 20  1  0  0  0  0
 20 21  1  0  0  0  0
 21 23  1  0  0  0  0
 22 30  1  0  0  0  0
 23 26  2  0  0  0  0
 23 24  1  0  0  0  0
 24 25  2  0  0  0  0
 25 22  1  0  0  0  0
 26 27  1  0  0  0  0
 27 22  2  0  0  0  0
 28 30  2  0  0  0  0
 30 29  1  0  0  0  0
M  END
>  <MODEL>
4

>  <REMARK>
 VINA RESULT:      -8.7      2.787      6.967
  Name = 
  6 active torsions:
  status: ('A' for Active; 'I' for Inactive)
    1  A    between atoms: C_1  and  C_28
    2  A    between atoms: C_2  and  C_4
    3  A    between atoms: C_2  and  N_11
    4  A    between atoms: N_11  and  C_21
    5  A    between atoms: C_17  and  C_21
    6  A    between atoms: C_17  and  N_24
                            x       y       z     vdW  Elec       q    Type
                         _______ _______ _______ _____ _____    ______ ____

>  <TORSDO>
F 6

$$$$
=
 OpenBabel10222416413D

 30 33  0  0  1  0  0  0  0  0999 V2000
  187.3140  178.3990  138.2650 N   0  0  0  0  0  2  0  0  0  0  0  0
  190.8410  177.0720  139.9690 N   0  0  0  0  0  2  0  0  0  0  0  0
  188.3350  177.8480  138.8370 C   0  0  0  0  0  0  0  0  0  0  0  0
  191.1530  176.2480  135.2970 C   0  0  0  0  0  3  0  0  0  0  0  0
  193.3510  175.9120  136.5660 C   0  0  0  0  0  0  0  0  0  0  0  0
  188.8240  178.3480  140.1950 C   0  0  1  0  0  3  0  0  0  0  0  0
  194.7650  175.7560  136.5650 N   0  0  0  0  0  1  0  0  0  0  0  0
  192.7300  176.0980  137.7000 N   0  0  0  0  0  0  0  0  0  0  0  0
  190.5210  176.6730  138.6460 C   0  0  0  0  0  0  0  0  0  0  0  0
  191.3140  176.2420  137.6940 C   0  0  0  0  0  0  0  0  0  0  0  0
  190.5610  176.3660  136.4780 C   0  0  0  0  0  0  0  0  0  0  0  0
  189.2770  176.9340  136.7460 N   0  0  0  0  0  0  0  0  0  0  0  0
  187.6280  178.5820  141.1140 C   0  0  0  0  0  1  0  0  0  0  0  0
  189.7880  177.4210  140.8480 N   0  0  0  0  0  0  0  0  0  0  0  0
  192.5940  175.7740  135.2430 C   0  0  0  0  0  3  0  0  0  0  0  0
  189.2820  177.0760  138.0390 C   0  0  2  0  0  3  0  0  0  0  0  0
  190.4110  178.1220  141.9640 C   0  0  0  0  0  2  0  0  0  0  0  0
  192.0530  177.8720  143.6790 O   0  0  0  0  0  1  0  0  0  0  0  0
  191.2530  177.1600  142.7830 C   0  0  1  0  0  3  0  0  0  0  0  0
  190.3790  176.2640  143.5210 N   0  0  0  0  0  2  0  0  0  0  0  0
  190.3030  176.7530  144.8910 C   0  0  0  0  0  2  0  0  0  0  0  0
  186.3050  178.0360  145.8070 C   0  0  0  0  0  0  0  0  0  0  0  0
  188.9190  177.2150  145.2000 C   0  0  0  0  0  0  0  0  0  0  0  0
  188.6240  177.7400  146.4630 C   0  0  0  0  0  3  0  0  0  0  0  0
  187.3230  178.1500  146.7640 C   0  0  0  0  0  3  0  0  0  0  0  0
  187.9070  177.0950  144.2410 C   0  0  0  0  0  3  0  0  0  0  0  0
  186.6060  177.5050  144.5430 C   0  0  0  0  0  3  0  0  0  0  0  0
  184.0480  178.8050  145.1170 O   0  0  0  0  0  0  0  0  0  0  0  0
  184.5540  178.5300  147.3310 O   0  0  0  0  0  1  0  0  0  0  0  0
  184.9350  178.4660  146.1310 C   0  0  0  0  0  0  0  0  0  0  0  0
  1  3  2  0  0  0  0
  2 14  1  0  0  0  0
  3  6  1  0  0  0  0
  4 11  1  0  0  0  0
  5  8  2  0  0  0  0
  6 14  1  0  0  0  0
  6 13  1  1  0  0  0
  7  5  1  0  0  0  0
  9  2  1  0  0  0  0
 10  8  1  0  0  0  0
 10  9  2  0  0  0  0
 11 12  2  0  0  0  0
 11 10  1  0  0  0  0
 14 17  1  0  0  0  0
 15  4  2  0  0  0  0
 15  5  1  0  0  0  0
 16 12  1  6  0  0  0
 16  9  1  0  0  0  0
 16  3  1  0  0  0  0
 17 19  1  0  0  0  0
 19 20  1  0  0  0  0
 19 18  1  1  0  0  0
 20 21  1  0  0  0  0
 21 23  1  0  0  0  0
 22 30  1  0  0  0  0
 22 25  1  0  0  0  0
 23 24  1  0  0  0  0
 24 25  2  0  0  0  0
 26 27  1  0  0  0  0
 26 23  2  0  0  0  0
 27 22  2  0  0  0  0
 28 30  2  0  0  0  0
 30 29  1  0  0  0  0
M  END
>  <MODEL>
5

>  <REMARK>
 VINA RESULT:      -8.5      3.275      8.131
  Name = 
  6 active torsions:
  status: ('A' for Active; 'I' for Inactive)
    1  A    between atoms: C_1  and  C_28
    2  A    between atoms: C_2  and  C_4
    3  A    between atoms: C_2  and  N_11
    4  A    between atoms: N_11  and  C_21
    5  A    between atoms: C_17  and  C_21
    6  A    between atoms: C_17  and  N_24
                            x       y       z     vdW  Elec       q    Type
                         _______ _______ _______ _____ _____    ______ ____

>  <TORSDO>
F 6

$$$$
=
 OpenBabel10222416413D

 30 33  0  0  1  0  0  0  0  0999 V2000
  188.0880  177.4390  137.0090 N   0  0  0  0  0  2  0  0  0  0  0  0
  187.0840  178.2880  140.9310 N   0  0  0  0  0  2  0  0  0  0  0  0
  187.7200  177.5510  138.2450 C   0  0  0  0  0  0  0  0  0  0  0  0
  191.7300  177.2790  140.8670 C   0  0  0  0  0  3  0  0  0  0  0  0
  190.9010  178.2480  143.0880 C   0  0  0  0  0  0  0  0  0  0  0  0
  186.4800  178.3630  138.6120 C   0  0  1  0  0  3  0  0  0  0  0  0
  191.1710  178.8410  144.3520 N   0  0  0  0  0  1  0  0  0  0  0  0
  189.6710  178.2010  142.6540 N   0  0  0  0  0  0  0  0  0  0  0  0
  188.3220  177.6520  140.6570 C   0  0  0  0  0  0  0  0  0  0  0  0
  189.4070  177.5960  141.3930 C   0  0  0  0  0  0  0  0  0  0  0  0
  190.4580  177.1940  140.5010 C   0  0  0  0  0  0  0  0  0  0  0  0
  189.9520  177.0460  139.1720 N   0  0  0  0  0  0  0  0  0  0  0  0
  185.3510  178.0400  137.6370 C   0  0  0  0  0  1  0  0  0  0  0  0
  186.0210  178.1320  140.0090 N   0  0  0  0  0  0  0  0  0  0  0  0
  192.0560  177.6100  142.3120 C   0  0  0  0  0  2  0  0  0  0  0  0
  188.6830  177.2990  139.3120 C   0  0  0  0  0  0  0  0  0  0  0  0
  185.0440  179.1610  140.3440 C   0  0  0  0  0  2  0  0  0  0  0  0
  183.1810  177.6740  140.4780 O   0  0  0  0  0  1  0  0  0  0  0  0
  183.9480  178.5770  141.2170 C   0  0  1  0  0  3  0  0  0  0  0  0
  184.5480  177.8890  142.3470 N   0  0  0  0  0  2  0  0  0  0  0  0
  184.2810  178.6820  143.5390 C   0  0  0  0  0  2  0  0  0  0  0  0
  187.2150  177.8800  146.5740 C   0  0  0  0  0  0  0  0  0  0  0  0
  185.2920  178.3870  144.5950 C   0  0  0  0  0  0  0  0  0  0  0  0
  185.1110  178.8800  145.8910 C   0  0  0  0  0  3  0  0  0  0  0  0
  186.0680  178.6260  146.8770 C   0  0  0  0  0  3  0  0  0  0  0  0
  186.4360  177.6430  144.2860 C   0  0  0  0  0  3  0  0  0  0  0  0
  187.3930  177.3900  145.2720 C   0  0  0  0  0  3  0  0  0  0  0  0
  189.5050  177.2160  147.2660 O   0  0  0  0  0  0  0  0  0  0  0  0
  187.9320  177.7600  148.8340 O   0  0  0  0  0  1  0  0  0  0  0  0
  188.2220  177.6190  147.6160 C   0  0  0  0  0  0  0  0  0  0  0  0
  1  3  2  0  0  0  0
  3  6  1  0  0  0  0
  3 16  1  0  0  0  0
  4 15  1  0  0  0  0
  5  7  1  0  0  0  0
  6 13  1  6  0  0  0
  6 14  1  0  0  0  0
  8  5  2  0  0  0  0
  9  2  1  0  0  0  0
  9 10  2  0  0  0  0
 10  8  1  0  0  0  0
 11  4  2  0  0  0  0
 11 10  1  0  0  0  0
 12 16  2  0  0  0  0
 12 11  1  0  0  0  0
 14 17  1  0  0  0  0
 14  2  1  0  0  0  0
 15  5  1  0  0  0  0
 16  9  1  0  0  0  0
 17 19  1  0  0  0  0
 19 18  1  6  0  0  0
 19 20  1  0  0  0  0
 20 21  1  0  0  0  0
 21 23  1  0  0  0  0
 22 25  1  0  0  0  0
 22 30  1  0  0  0  0
 23 24  1  0  0  0  0
 24 25  2  0  0  0  0
 26 23  2  0  0  0  0
 26 27  1  0  0  0  0
 27 22  2  0  0  0  0
 28 30  2  0  0  0  0
 30 29  1  0  0  0  0
M  END
>  <MODEL>
6

>  <REMARK>
 VINA RESULT:      -8.4      2.654      8.100
  Name = 
  6 active torsions:
  status: ('A' for Active; 'I' for Inactive)
    1  A    between atoms: C_1  and  C_28
    2  A    between atoms: C_2  and  C_4
    3  A    between atoms: C_2  and  N_11
    4  A    between atoms: N_11  and  C_21
    5  A    between atoms: C_17  and  C_21
    6  A    between atoms: C_17  and  N_24
                            x       y       z     vdW  Elec       q    Type
                         _______ _______ _______ _____ _____    ______ ____

>  <TORSDO>
F 6

$$$$
=
 OpenBabel10222416413D

 30 33  0  0  1  0  0  0  0  0999 V2000
  183.3710  178.2160  137.9000 N   0  0  0  0  0  2  0  0  0  0  0  0
  186.8170  178.2540  140.1860 N   0  0  0  0  0  2  0  0  0  0  0  0
  184.4660  178.3830  138.5680 C   0  0  0  0  0  0  0  0  0  0  0  0
  183.1660  178.9280  143.1560 C   0  0  0  0  0  3  0  0  0  0  0  0
  185.4010  178.4900  144.3290 C   0  0  0  0  0  0  0  0  0  0  0  0
  185.7680  177.7450  138.0910 C   0  0  1  0  0  3  0  0  0  0  0  0
  186.1340  178.1530  145.5000 N   0  0  0  0  0  1  0  0  0  0  0  0
  186.0170  178.5260  143.1780 N   0  0  0  0  0  0  0  0  0  0  0  0
  185.6100  178.7400  140.7490 C   0  0  0  0  0  0  0  0  0  0  0  0
  185.2780  178.8760  142.0120 C   0  0  0  0  0  0  0  0  0  0  0  0
  183.8500  179.0190  142.0230 C   0  0  0  0  0  0  0  0  0  0  0  0
  183.3310  178.9230  140.6940 N   0  0  0  0  0  0  0  0  0  0  0  0
  185.9070  177.9330  136.5830 C   0  0  0  0  0  1  0  0  0  0  0  0
  186.9730  178.2860  138.7800 N   0  0  0  0  0  0  0  0  0  0  0  0
  183.9270  178.8800  144.4690 C   0  0  0  0  0  2  0  0  0  0  0  0
  184.4040  178.7860  139.9700 C   0  0  0  0  0  0  0  0  0  0  0  0
  188.1000  177.4120  138.4790 C   0  0  0  0  0  2  0  0  0  0  0  0
  189.0590  179.5360  137.9630 O   0  0  0  0  0  1  0  0  0  0  0  0
  189.3720  178.2290  138.3400 C   0  0  1  0  0  3  0  0  0  0  0  0
  190.0730  178.2470  139.6130 N   0  0  0  0  0  2  0  0  0  0  0  0
  190.0260  176.9000  140.1620 C   0  0  0  0  0  2  0  0  0  0  0  0
  190.4180  177.0680  144.4390 C   0  0  0  0  0  0  0  0  0  0  0  0
  190.1700  176.9400  141.6470 C   0  0  0  0  0  0  0  0  0  0  0  0
  189.0640  176.6740  142.4610 C   0  0  0  0  0  3  0  0  0  0  0  0
  189.1890  176.7360  143.8510 C   0  0  0  0  0  3  0  0  0  0  0  0
  191.3980  177.2750  142.2260 C   0  0  0  0  0  3  0  0  0  0  0  0
  191.5210  177.3380  143.6160 C   0  0  0  0  0  3  0  0  0  0  0  0
  189.4040  177.2040  146.7000 O   0  0  0  0  0  1  0  0  0  0  0  0
  191.6770  177.1290  146.4500 O   0  0  0  0  0  0  0  0  0  0  0  0
  190.5410  177.1350  145.9040 C   0  0  0  0  0  0  0  0  0  0  0  0
  1  3  2  0  0  0  0
  2  9  1  0  0  0  0
  3 16  1  0  0  0  0
  4 15  1  0  0  0  0
  5 15  1  0  0  0  0
  5  7  1  0  0  0  0
  6 13  1  6  0  0  0
  6  3  1  0  0  0  0
  6 14  1  0  0  0  0
  8  5  2  0  0  0  0
  9 10  2  0  0  0  0
 10 11  1  0  0  0  0
 10  8  1  0  0  0  0
 11  4  2  0  0  0  0
 12 11  1  0  0  0  0
 14  2  1  0  0  0  0
 16 12  2  0  0  0  0
 16  9  1  0  0  0  0
 17 14  1  0  0  0  0
 19 18  1  1  0  0  0
 19 17  1  0  0  0  0
 19 20  1  0  0  0  0
 20 21  1  0  0  0  0
 21 23  1  0  0  0  0
 22 30  1  0  0  0  0
 23 26  2  0  0  0  0
 23 24  1  0  0  0  0
 24 25  2  0  0  0  0
 25 22  1  0  0  0  0
 26 27  1  0  0  0  0
 27 22  2  0  0  0  0
 30 29  2  0  0  0  0
 30 28  1  0  0  0  0
M  END
>  <MODEL>
7

>  <REMARK>
 VINA RESULT:      -8.4      2.136      6.570
  Name = 
  6 active torsions:
  status: ('A' for Active; 'I' for Inactive)
    1  A    between atoms: C_1  and  C_28
    2  A    between atoms: C_2  and  C_4
    3  A    between atoms: C_2  and  N_11
    4  A    between atoms: N_11  and  C_21
    5  A    between atoms: C_17  and  C_21
    6  A    between atoms: C_17  and  N_24
                            x       y       z     vdW  Elec       q    Type
                         _______ _______ _______ _____ _____    ______ ____

>  <TORSDO>
F 6

$$$$
=
 OpenBabel10222416413D

 30 33  0  0  1  0  0  0  0  0999 V2000
  180.9130  179.0410  143.9510 N   0  0  0  0  0  2  0  0  0  0  0  0
  184.4770  178.2740  141.9980 N   0  0  0  0  0  2  0  0  0  0  0  0
  182.0360  178.9620  143.3140 C   0  0  0  0  0  0  0  0  0  0  0  0
  185.4320  178.3820  146.6550 C   0  0  0  0  0  3  0  0  0  0  0  0
  187.3640  177.5190  145.2120 C   0  0  0  0  0  0  0  0  0  0  0  0
  182.0850  178.3890  141.8990 C   0  0  1  0  0  3  0  0  0  0  0  0
  188.6110  176.8460  145.0950 N   0  0  0  0  0  1  0  0  0  0  0  0
  186.6930  177.8120  144.1310 N   0  0  0  0  0  0  0  0  0  0  0  0
  184.5080  178.6720  143.3590 C   0  0  0  0  0  0  0  0  0  0  0  0
  185.4500  178.4970  144.2550 C   0  0  0  0  0  0  0  0  0  0  0  0
  184.8220  178.7200  145.5270 C   0  0  0  0  0  0  0  0  0  0  0  0
  183.4320  179.0030  145.3500 N   0  0  0  0  0  0  0  0  0  0  0  0
  180.9270  178.9520  141.0800 C   0  0  0  0  0  1  0  0  0  0  0  0
  183.3730  178.6580  141.2020 N   0  0  0  0  0  0  0  0  0  0  0  0
  186.8860  177.9500  146.6010 C   0  0  0  0  0  2  0  0  0  0  0  0
  183.2920  178.9920  144.0560 C   0  0  0  0  0  0  0  0  0  0  0  0
  183.4270  177.8240  140.0080 C   0  0  0  0  0  2  0  0  0  0  0  0
  184.5560  179.8160  139.3320 O   0  0  0  0  0  1  0  0  0  0  0  0
  184.1310  178.5640  138.8840 C   0  0  1  0  0  3  0  0  0  0  0  0
  185.2820  177.7920  138.4460 N   0  0  0  0  0  2  0  0  0  0  0  0
  186.4150  178.7020  138.3570 C   0  0  0  0  0  2  0  0  0  0  0  0
  189.5740  177.3270  140.9260 C   0  0  0  0  0  0  0  0  0  0  0  0
  187.5210  178.2410  139.2460 C   0  0  0  0  0  0  0  0  0  0  0  0
  188.5160  177.3980  138.7410 C   0  0  0  0  0  3  0  0  0  0  0  0
  189.5380  176.9440  139.5780 C   0  0  0  0  0  3  0  0  0  0  0  0
  187.5480  178.6250  140.5910 C   0  0  0  0  0  3  0  0  0  0  0  0
  188.5710  178.1700  141.4270 C   0  0  0  0  0  3  0  0  0  0  0  0
  190.5220  175.6290  142.4690 O   0  0  0  0  0  1  0  0  0  0  0  0
  191.7030  177.5200  141.9570 O   0  0  0  0  0  0  0  0  0  0  0  0
  190.6520  176.8420  141.8030 C   0  0  0  0  0  0  0  0  0  0  0  0
  2  9  1  0  0  0  0
  3  1  2  0  0  0  0
  3 16  1  0  0  0  0
  5 15  1  0  0  0  0
  6 13  1  6  0  0  0
  6  3  1  0  0  0  0
  7  5  1  0  0  0  0
  8 10  1  0  0  0  0
  8  5  2  0  0  0  0
  9 16  1  0  0  0  0
  9 10  2  0  0  0  0
 10 11  1  0  0  0  0
 11  4  2  0  0  0  0
 12 11  1  0  0  0  0
 14  6  1  0  0  0  0
 14  2  1  0  0  0  0
 15  4  1  0  0  0  0
 16 12  2  0  0  0  0
 17 14  1  0  0  0  0
 19 18  1  1  0  0  0
 19 17  1  0  0  0  0
 20 19  1  0  0  0  0
 21 20  1  0  0  0  0
 21 23  1  0  0  0  0
 22 27  1  0  0  0  0
 22 30  1  0  0  0  0
 23 26  1  0  0  0  0
 24 23  2  0  0  0  0
 24 25  1  0  0  0  0
 25 22  2  0  0  0  0
 26 27  2  0  0  0  0
 30 29  2  0  0  0  0
 30 28  1  0  0  0  0
M  END
>  <MODEL>
8

>  <REMARK>
 VINA RESULT:      -8.2      2.311      5.895
  Name = 
  6 active torsions:
  status: ('A' for Active; 'I' for Inactive)
    1  A    between atoms: C_1  and  C_28
    2  A    between atoms: C_2  and  C_4
    3  A    between atoms: C_2  and  N_11
    4  A    between atoms: N_11  and  C_21
    5  A    between atoms: C_17  and  C_21
    6  A    between atoms: C_17  and  N_24
                            x       y       z     vdW  Elec       q    Type
                         _______ _______ _______ _____ _____    ______ ____

>  <TORSDO>
F 6

$$$$
=
 OpenBabel10222416413D

 30 33  0  0  1  0  0  0  0  0999 V2000
  191.9340  176.9310  139.6860 N   0  0  0  0  0  2  0  0  0  0  0  0
  188.3250  178.1640  141.2860 N   0  0  0  0  0  2  0  0  0  0  0  0
  190.8670  177.4680  140.1840 C   0  0  0  0  0  0  0  0  0  0  0  0
  187.6900  177.7130  136.5950 C   0  0  0  0  0  3  0  0  0  0  0  0
  185.5230  178.0640  137.9140 C   0  0  0  0  0  0  0  0  0  0  0  0
  190.5180  177.2710  141.6580 C   0  0  1  0  0  3  0  0  0  0  0  0
  184.1040  178.0230  137.9880 N   0  0  0  0  0  1  0  0  0  0  0  0
  186.2140  178.2600  139.0050 N   0  0  0  0  0  0  0  0  0  0  0  0
  188.5240  178.2500  139.8840 C   0  0  0  0  0  0  0  0  0  0  0  0
  187.6340  178.3120  138.9220 C   0  0  0  0  0  0  0  0  0  0  0  0
  188.3440  177.9830  137.7180 C   0  0  0  0  0  0  0  0  0  0  0  0
  189.7090  177.6800  138.0140 N   0  0  0  0  0  0  0  0  0  0  0  0
  191.7750  177.4440  142.5070 C   0  0  0  0  0  1  0  0  0  0  0  0
  189.4550  178.1970  142.1370 N   0  0  0  0  0  0  0  0  0  0  0  0
  186.1930  177.9590  136.5420 C   0  0  0  0  0  3  0  0  0  0  0  0
  189.7810  177.8750  139.2990 C   0  0  2  0  0  3  0  0  0  0  0  0
  188.9940  177.7270  143.4380 C   0  0  0  0  0  2  0  0  0  0  0  0
  188.3690  175.4330  143.2200 O   0  0  0  0  0  1  0  0  0  0  0  0
  187.8600  176.7330  143.2630 C   0  0  1  0  0  3  0  0  0  0  0  0
  186.9390  176.8530  144.3810 N   0  0  0  0  0  2  0  0  0  0  0  0
  186.5870  178.2610  144.5130 C   0  0  0  0  0  2  0  0  0  0  0  0
  182.5870  178.8950  143.0770 C   0  0  0  0  0  0  0  0  0  0  0  0
  185.2040  178.4990  144.0100 C   0  0  0  0  0  0  0  0  0  0  0  0
  184.1740  178.7880  144.9120 C   0  0  0  0  0  3  0  0  0  0  0  0
  182.8720  178.9870  144.4460 C   0  0  0  0  0  3  0  0  0  0  0  0
  184.9260  178.4030  142.6420 C   0  0  0  0  0  3  0  0  0  0  0  0
  183.6230  178.6010  142.1780 C   0  0  0  0  0  3  0  0  0  0  0  0
  180.5040  180.2400  142.9600 O   0  0  0  0  0  1  0  0  0  0  0  0
  180.6650  178.2510  141.8410 O   0  0  0  0  0  0  0  0  0  0  0  0
  181.2120  179.1010  142.5930 C   0  0  0  0  0  0  0  0  0  0  0  0
  1  3  2  0  0  0  0
  2 14  1  0  0  0  0
  3  6  1  0  0  0  0
  4 11  1  0  0  0  0
  5  7  1  0  0  0  0
  5  8  2  0  0  0  0
  6 14  1  0  0  0  0
  6 13  1  1  0  0  0
  9  2  1  0  0  0  0
 10  8  1  0  0  0  0
 10  9  2  0  0  0  0
 11 12  2  0  0  0  0
 11 10  1  0  0  0  0
 14 17  1  0  0  0  0
 15  4  2  0  0  0  0
 15  5  1  0  0  0  0
 16 12  1  6  0  0  0
 16  9  1  0  0  0  0
 16  3  1  0  0  0  0
 19 18  1  1  0  0  0
 19 17  1  0  0  0  0
 19 20  1  0  0  0  0
 20 21  1  0  0  0  0
 22 25  1  0  0  0  0
 23 21  1  0  0  0  0
 23 24  1  0  0  0  0
 25 24  2  0  0  0  0
 26 23  2  0  0  0  0
 27 26  1  0  0  0  0
 27 22  2  0  0  0  0
 29 30  2  0  0  0  0
 30 28  1  0  0  0  0
 30 22  1  0  0  0  0
M  END
>  <MODEL>
9

>  <REMARK>
 VINA RESULT:      -8.2      3.162      6.811
  Name = 
  6 active torsions:
  status: ('A' for Active; 'I' for Inactive)
    1  A    between atoms: C_1  and  C_28
    2  A    between atoms: C_2  and  C_4
    3  A    between atoms: C_2  and  N_11
    4  A    between atoms: N_11  and  C_21
    5  A    between atoms: C_17  and  C_21
    6  A    between atoms: C_17  and  N_24
                            x       y       z     vdW  Elec       q    Type
                         _______ _______ _______ _____ _____    ______ ____

>  <TORSDO>
F 6

$$$$
