=
 OpenBabel10222417553D

 33 38  0  0  1  0  0  0  0  0999 V2000
  191.2760  176.6130  144.7750 C   0  0  0  0  0  3  0  0  0  0  0  0
  186.9080  178.3930  141.4380 C   0  0  0  0  0  0  0  0  0  0  0  0
  185.4490  178.8580  142.1590 S   0  0  0  0  0  0  0  0  0  0  0  0
  189.4820  177.2200  146.7920 C   0  0  0  0  0  0  0  0  0  0  0  0
  187.3720  178.1080  143.6920 C   0  0  0  0  0  0  0  0  0  0  0  0
  187.8150  177.8900  145.0100 C   0  0  0  0  0  0  0  0  0  0  0  0
  187.3100  178.3490  140.1060 C   0  0  0  0  0  3  0  0  0  0  0  0
  186.0830  178.5530  143.7030 C   0  0  0  0  0  0  0  0  0  0  0  0
  191.6050  176.4580  146.0740 N   0  0  0  0  0  0  0  0  0  0  0  0
  186.6310  178.2710  145.8290 C   0  0  0  0  0  0  0  0  0  0  0  0
  190.0140  177.0880  144.4530 C   0  0  0  0  0  3  0  0  0  0  0  0
  187.4440  177.9160  148.1400 C   0  0  0  0  0  3  0  0  0  0  0  0
  188.6350  177.9100  140.0270 C   0  0  0  0  0  0  0  0  0  0  0  0
  187.8430  178.0200  142.3750 C   0  0  0  0  0  0  0  0  0  0  0  0
  189.0760  177.4110  145.4370 C   0  0  0  0  0  0  0  0  0  0  0  0
  188.7340  177.4590  147.9410 C   0  0  0  0  0  3  0  0  0  0  0  0
  190.7380  176.7520  147.0400 N   0  0  0  0  0  0  0  0  0  0  0  0
  189.2630  177.6070  141.5820 S   0  0  0  0  0  0  0  0  0  0  0  0
  186.5020  178.2770  147.2040 C   0  0  0  0  0  3  0  0  0  0  0  0
  185.5940  178.6670  144.9720 C   0  0  0  0  0  0  0  0  0  0  0  0
  183.1680  178.7380  144.6440 C   0  0  0  0  0  0  0  0  0  0  0  0
  184.2300  179.1360  145.2890 C   0  0  0  0  0  3  0  0  0  0  0  0
  182.1140  178.3360  143.9910 C   0  0  0  0  0  3  0  0  0  0  0  0
  181.6850  179.0530  142.7590 C   0  0  0  0  0  2  0  0  0  0  0  0
  179.7640  177.6400  143.1120 O   0  0  0  0  0  0  0  0  0  0  0  0
  180.2060  178.8240  142.5000 C   0  0  2  0  0  0  0  0  0  0  0  0
  179.8040  177.6510  141.7000 C   0  0  0  0  0  2  0  0  0  0  0  0
  179.2010  179.9480  142.6920 C   0  0  0  0  0  2  0  0  0  0  0  0
  179.6770  181.1630  142.0500 N   0  0  0  0  0  2  0  0  0  0  0  0
  179.0610  181.2120  140.7370 C   0  0  0  0  0  1  0  0  0  0  0  0
  189.3960  177.7770  138.7520 C   0  0  2  0  0  3  0  0  0  0  0  0
  189.1340  178.8680  137.9220 O   0  0  0  0  0  1  0  0  0  0  0  0
  189.0150  176.4930  138.0430 C   0  0  0  0  0  1  0  0  0  0  0  0
  1  9  1  0  0  0  0
  2  3  1  0  0  0  0
  2 14  2  0  0  0  0
  3  8  1  0  0  0  0
  4 17  1  0  0  0  0
  4 16  1  0  0  0  0
  5  8  1  0  0  0  0
  5  6  2  0  0  0  0
  6 15  1  0  0  0  0
  6 10  1  0  0  0  0
  7  2  1  0  0  0  0
  8 20  2  0  0  0  0
  9 17  2  0  0  0  0
 10 19  2  0  0  0  0
 11  1  2  0  0  0  0
 11 15  1  0  0  0  0
 13  7  2  0  0  0  0
 13 18  1  0  0  0  0
 14  5  1  0  0  0  0
 15  4  2  0  0  0  0
 16 12  2  0  0  0  0
 18 14  1  0  0  0  0
 19 12  1  0  0  0  0
 20 22  1  0  0  0  0
 20 10  1  0  0  0  0
 21 22  2  0  0  0  0
 23 21  2  0  0  0  0
 24 23  1  0  0  0  0
 26 28  1  1  0  0  0
 26 24  1  0  0  0  0
 26 25  1  0  0  0  0
 27 26  1  0  0  0  0
 27 25  1  0  0  0  0
 29 28  1  0  0  0  0
 30 29  1  0  0  0  0
 31 33  1  6  0  0  0
 31 13  1  0  0  0  0
 32 31  1  0  0  0  0
M  END
>  <MODEL>
1

>  <REMARK>
 VINA RESULT:     -10.4      0.000      0.000
  Name = 
  6 active torsions:
  status: ('A' for Active; 'I' for Inactive)
    1  A    between atoms: N_3  and  C_30
    2  A    between atoms: C_5  and  C_23
    3  A    between atoms: C_9  and  C_17
    4  A    between atoms: C_9  and  C_33
    5  A    between atoms: C_13  and  C_32
    6  A    between atoms: C_17  and  C_30
                            x       y       z     vdW  Elec       q    Type
                         _______ _______ _______ _____ _____    ______ ____

>  <TORSDO>
F 6

$$$$
=
 OpenBabel10222417553D

 33 38  0  0  1  0  0  0  0  0999 V2000
  190.1220  177.4020  141.3690 C   0  0  0  0  0  3  0  0  0  0  0  0
  187.9580  177.5430  146.7250 C   0  0  0  0  0  0  0  0  0  0  0  0
  186.3550  178.0340  146.9590 S   0  0  0  0  0  0  0  0  0  0  0  0
  187.5500  178.1830  140.7170 C   0  0  0  0  0  0  0  0  0  0  0  0
  187.2580  177.9560  144.5530 C   0  0  0  0  0  0  0  0  0  0  0  0
  186.9910  178.1520  143.1850 C   0  0  0  0  0  0  0  0  0  0  0  0
  188.9400  177.1300  147.6200 C   0  0  0  0  0  3  0  0  0  0  0  0
  186.1470  178.2460  145.2890 C   0  0  0  0  0  0  0  0  0  0  0  0
  189.7550  177.6010  140.0860 N   0  0  0  0  0  0  0  0  0  0  0  0
  185.5670  178.5900  143.1810 C   0  0  0  0  0  0  0  0  0  0  0  0
  189.1860  177.5930  142.3740 C   0  0  0  0  0  3  0  0  0  0  0  0
  185.1100  178.8920  140.7660 C   0  0  0  0  0  3  0  0  0  0  0  0
  190.1080  176.8050  146.9230 C   0  0  0  0  0  0  0  0  0  0  0  0
  188.3020  177.5470  145.3930 C   0  0  0  0  0  0  0  0  0  0  0  0
  187.8740  177.9840  142.0930 C   0  0  0  0  0  0  0  0  0  0  0  0
  186.3250  178.5760  140.1850 C   0  0  0  0  0  3  0  0  0  0  0  0
  188.5160  177.9760  139.7790 N   0  0  0  0  0  0  0  0  0  0  0  0
  189.8890  177.0190  145.2470 S   0  0  0  0  0  0  0  0  0  0  0  0
  184.7670  178.9030  142.0990 C   0  0  0  0  0  3  0  0  0  0  0  0
  185.1010  178.6340  144.5020 C   0  0  0  0  0  0  0  0  0  0  0  0
  182.6590  178.7730  144.3770 C   0  0  0  0  0  0  0  0  0  0  0  0
  183.7690  178.9990  145.0250 C   0  0  0  0  0  3  0  0  0  0  0  0
  181.5570  178.5440  143.7220 C   0  0  0  0  0  3  0  0  0  0  0  0
  181.0510  179.5500  142.7460 C   0  0  0  0  0  2  0  0  0  0  0  0
  181.6620  178.0010  141.0020 O   0  0  0  0  0  0  0  0  0  0  0  0
  180.6550  178.8740  141.4450 C   0  0  2  0  0  0  0  0  0  0  0  0
  181.4420  179.1640  140.2300 C   0  0  0  0  0  2  0  0  0  0  0  0
  179.2790  178.2490  141.2830 C   0  0  0  0  0  2  0  0  0  0  0  0
  179.3140  176.8480  141.6720 N   0  0  0  0  0  2  0  0  0  0  0  0
  178.9360  176.0790  140.5010 C   0  0  0  0  0  1  0  0  0  0  0  0
  191.3500  176.2920  147.5680 C   0  0  2  0  0  3  0  0  0  0  0  0
  192.0480  177.3410  148.1660 O   0  0  0  0  0  1  0  0  0  0  0  0
  192.2330  175.6100  146.5420 C   0  0  0  0  0  1  0  0  0  0  0  0
  1 11  1  0  0  0  0
  2  3  1  0  0  0  0
  2  7  1  0  0  0  0
  4 15  1  0  0  0  0
  5  8  1  0  0  0  0
  5 14  1  0  0  0  0
  6  5  2  0  0  0  0
  8  3  1  0  0  0  0
  9  1  2  0  0  0  0
 10  6  1  0  0  0  0
 10 20  1  0  0  0  0
 12 19  1  0  0  0  0
 13 31  1  0  0  0  0
 13  7  2  0  0  0  0
 14  2  2  0  0  0  0
 15 11  2  0  0  0  0
 15  6  1  0  0  0  0
 16  4  1  0  0  0  0
 16 12  2  0  0  0  0
 17  9  1  0  0  0  0
 17  4  2  0  0  0  0
 18 14  1  0  0  0  0
 18 13  1  0  0  0  0
 19 10  2  0  0  0  0
 20 22  1  0  0  0  0
 20  8  2  0  0  0  0
 21 22  2  0  0  0  0
 23 21  2  0  0  0  0
 24 23  1  0  0  0  0
 25 26  1  0  0  0  0
 26 28  1  6  0  0  0
 26 24  1  0  0  0  0
 27 25  1  0  0  0  0
 27 26  1  0  0  0  0
 28 29  1  0  0  0  0
 30 29  1  0  0  0  0
 31 33  1  6  0  0  0
 31 32  1  0  0  0  0
M  END
>  <MODEL>
2

>  <REMARK>
 VINA RESULT:     -10.2      3.117      5.186
  Name = 
  6 active torsions:
  status: ('A' for Active; 'I' for Inactive)
    1  A    between atoms: N_3  and  C_30
    2  A    between atoms: C_5  and  C_23
    3  A    between atoms: C_9  and  C_17
    4  A    between atoms: C_9  and  C_33
    5  A    between atoms: C_13  and  C_32
    6  A    between atoms: C_17  and  C_30
                            x       y       z     vdW  Elec       q    Type
                         _______ _______ _______ _____ _____    ______ ____

>  <TORSDO>
F 6

$$$$
=
 OpenBabel10222417553D

 33 38  0  0  1  0  0  0  0  0999 V2000
  191.8190  176.3640  145.4940 C   0  0  0  0  0  3  0  0  0  0  0  0
  188.0400  177.8480  141.3830 C   0  0  0  0  0  0  0  0  0  0  0  0
  186.5040  178.4010  141.8280 S   0  0  0  0  0  0  0  0  0  0  0  0
  189.7640  177.1950  147.1500 C   0  0  0  0  0  0  0  0  0  0  0  0
  188.1590  177.7880  143.6970 C   0  0  0  0  0  0  0  0  0  0  0  0
  188.3970  177.7000  145.0820 C   0  0  0  0  0  0  0  0  0  0  0  0
  188.6320  177.6630  140.1360 C   0  0  0  0  0  3  0  0  0  0  0  0
  186.8950  178.2480  143.4720 C   0  0  0  0  0  0  0  0  0  0  0  0
  191.9490  176.3380  146.8360 N   0  0  0  0  0  0  0  0  0  0  0  0
  187.1160  178.1780  145.6730 C   0  0  0  0  0  0  0  0  0  0  0  0
  190.6320  176.8190  144.9420 C   0  0  0  0  0  3  0  0  0  0  0  0
  187.5700  178.0500  148.1030 C   0  0  0  0  0  3  0  0  0  0  0  0
  189.9420  177.2010  140.3000 C   0  0  0  0  0  0  0  0  0  0  0  0
  188.8160  177.5600  142.4810 C   0  0  0  0  0  0  0  0  0  0  0  0
  189.5670  177.2520  145.7380 C   0  0  0  0  0  0  0  0  0  0  0  0
  188.8620  177.5600  148.1450 C   0  0  0  0  0  3  0  0  0  0  0  0
  190.9570  176.7390  147.6280 N   0  0  0  0  0  0  0  0  0  0  0  0
  190.3260  177.0520  141.9540 S   0  0  0  0  0  0  0  0  0  0  0  0
  186.7860  178.3250  147.0060 C   0  0  0  0  0  3  0  0  0  0  0  0
  186.2280  178.4970  144.6360 C   0  0  0  0  0  0  0  0  0  0  0  0
  183.9030  178.6360  143.8770 C   0  0  0  0  0  0  0  0  0  0  0  0
  184.8450  179.0120  144.6980 C   0  0  0  0  0  3  0  0  0  0  0  0
  182.9710  178.2540  143.0510 C   0  0  0  0  0  3  0  0  0  0  0  0
  182.7930  178.9630  141.7530 C   0  0  0  0  0  2  0  0  0  0  0  0
  181.1820  178.7930  139.9670 O   0  0  0  0  0  0  0  0  0  0  0  0
  182.0920  178.0640  140.7500 C   0  0  2  0  0  0  0  0  0  0  0  0
  180.6350  177.8630  140.8790 C   0  0  0  0  0  2  0  0  0  0  0  0
  182.8840  177.0840  139.8990 C   0  0  0  0  0  2  0  0  0  0  0  0
  183.1280  177.6470  138.5810 N   0  0  0  0  0  2  0  0  0  0  0  0
  184.5100  178.0940  138.5670 C   0  0  0  0  0  1  0  0  0  0  0  0
  190.8790  176.9300  139.1720 C   0  0  2  0  0  3  0  0  0  0  0  0
  190.7570  175.6040  138.7560 O   0  0  0  0  0  1  0  0  0  0  0  0
  192.3070  177.2030  139.5980 C   0  0  0  0  0  1  0  0  0  0  0  0
  1  9  1  0  0  0  0
  2  3  1  0  0  0  0
  2 14  2  0  0  0  0
  3  8  1  0  0  0  0
  4 17  1  0  0  0  0
  4 16  1  0  0  0  0
  5  6  2  0  0  0  0
  6 10  1  0  0  0  0
  6 15  1  0  0  0  0
  7 13  2  0  0  0  0
  7  2  1  0  0  0  0
  8  5  1  0  0  0  0
  8 20  2  0  0  0  0
  9 17  2  0  0  0  0
 10 19  2  0  0  0  0
 11  1  2  0  0  0  0
 11 15  1  0  0  0  0
 12 16  2  0  0  0  0
 13 18  1  0  0  0  0
 14  5  1  0  0  0  0
 15  4  2  0  0  0  0
 18 14  1  0  0  0  0
 19 12  1  0  0  0  0
 20 22  1  0  0  0  0
 20 10  1  0  0  0  0
 21 22  2  0  0  0  0
 23 21  2  0  0  0  0
 24 23  1  0  0  0  0
 25 26  1  0  0  0  0
 25 27  1  0  0  0  0
 26 28  1  6  0  0  0
 26 27  1  0  0  0  0
 26 24  1  0  0  0  0
 29 28  1  0  0  0  0
 30 29  1  0  0  0  0
 31 33  1  1  0  0  0
 31 13  1  0  0  0  0
 32 31  1  0  0  0  0
M  END
>  <MODEL>
3

>  <REMARK>
 VINA RESULT:      -9.8      1.945      2.367
  Name = 
  6 active torsions:
  status: ('A' for Active; 'I' for Inactive)
    1  A    between atoms: N_3  and  C_30
    2  A    between atoms: C_5  and  C_23
    3  A    between atoms: C_9  and  C_17
    4  A    between atoms: C_9  and  C_33
    5  A    between atoms: C_13  and  C_32
    6  A    between atoms: C_17  and  C_30
                            x       y       z     vdW  Elec       q    Type
                         _______ _______ _______ _____ _____    ______ ____

>  <TORSDO>
F 6

$$$$
=
 OpenBabel10222417553D

 33 38  0  0  1  0  0  0  0  0999 V2000
  185.4830  178.1880  146.5810 C   0  0  0  0  0  3  0  0  0  0  0  0
  190.6630  176.9980  144.3150 C   0  0  0  0  0  0  0  0  0  0  0  0
  190.8790  177.0990  142.6400 S   0  0  0  0  0  0  0  0  0  0  0  0
  184.8700  178.7180  143.9360 C   0  0  0  0  0  0  0  0  0  0  0  0
  188.5640  177.6730  143.5990 C   0  0  0  0  0  0  0  0  0  0  0  0
  187.2450  178.0870  143.3330 C   0  0  0  0  0  0  0  0  0  0  0  0
  191.5410  176.6660  145.3440 C   0  0  0  0  0  3  0  0  0  0  0  0
  189.2660  177.5840  142.4340 C   0  0  0  0  0  0  0  0  0  0  0  0
  184.2530  178.6080  146.2190 N   0  0  0  0  0  0  0  0  0  0  0  0
  187.2370  178.2500  141.8530 C   0  0  0  0  0  0  0  0  0  0  0  0
  186.4530  178.0240  145.6050 C   0  0  0  0  0  3  0  0  0  0  0  0
  184.9240  179.0130  141.4130 C   0  0  0  0  0  3  0  0  0  0  0  0
  190.8800  176.7510  146.5740 C   0  0  0  0  0  0  0  0  0  0  0  0
  189.3820  177.3330  144.6850 C   0  0  0  0  0  0  0  0  0  0  0  0
  186.1910  178.2820  144.2560 C   0  0  0  0  0  0  0  0  0  0  0  0
  184.3640  179.0310  142.6780 C   0  0  0  0  0  3  0  0  0  0  0  0
  183.9650  178.8620  144.9450 N   0  0  0  0  0  0  0  0  0  0  0  0
  189.2630  177.2400  146.3570 S   0  0  0  0  0  0  0  0  0  0  0  0
  186.2010  178.6650  141.0390 C   0  0  0  0  0  3  0  0  0  0  0  0
  188.5060  177.9230  141.3530 C   0  0  0  0  0  0  0  0  0  0  0  0
  188.3060  177.5000  138.9490 C   0  0  0  0  0  0  0  0  0  0  0  0
  189.0060  177.9280  139.9630 C   0  0  0  0  0  3  0  0  0  0  0  0
  187.6000  177.0680  137.9430 C   0  0  0  0  0  3  0  0  0  0  0  0
  187.6420  175.6270  137.5710 C   0  0  0  0  0  2  0  0  0  0  0  0
  188.0900  176.1450  135.2590 O   0  0  0  0  0  0  0  0  0  0  0  0
  188.5460  175.4160  136.3690 C   0  0  2  0  0  0  0  0  0  0  0  0
  187.9930  174.7380  135.1800 C   0  0  0  0  0  2  0  0  0  0  0  0
  190.0560  175.5170  136.5070 C   0  0  0  0  0  2  0  0  0  0  0  0
  190.4930  174.8760  137.7360 N   0  0  0  0  0  2  0  0  0  0  0  0
  191.5530  175.7020  138.2850 C   0  0  0  0  0  1  0  0  0  0  0  0
  191.5320  176.4950  147.8910 C   0  0  2  0  0  3  0  0  0  0  0  0
  191.8950  177.7020  148.4890 O   0  0  0  0  0  1  0  0  0  0  0  0
  192.7600  175.6250  147.7090 C   0  0  0  0  0  1  0  0  0  0  0  0
  2 14  2  0  0  0  0
  2  7  1  0  0  0  0
  3  2  1  0  0  0  0
  4 15  1  0  0  0  0
  4 17  1  0  0  0  0
  5 14  1  0  0  0  0
  6  5  1  0  0  0  0
  6 15  2  0  0  0  0
  7 13  2  0  0  0  0
  8  3  1  0  0  0  0
  8  5  2  0  0  0  0
  9  1  1  0  0  0  0
 10  6  1  0  0  0  0
 11  1  2  0  0  0  0
 12 16  1  0  0  0  0
 13 31  1  0  0  0  0
 14 18  1  0  0  0  0
 15 11  1  0  0  0  0
 16  4  2  0  0  0  0
 17  9  2  0  0  0  0
 18 13  1  0  0  0  0
 19 12  2  0  0  0  0
 19 10  1  0  0  0  0
 20 10  2  0  0  0  0
 20  8  1  0  0  0  0
 21 22  2  0  0  0  0
 22 20  1  0  0  0  0
 23 21  2  0  0  0  0
 24 23  1  0  0  0  0
 25 26  1  0  0  0  0
 26 28  1  1  0  0  0
 26 24  1  0  0  0  0
 27 25  1  0  0  0  0
 27 26  1  0  0  0  0
 28 29  1  0  0  0  0
 29 30  1  0  0  0  0
 31 33  1  6  0  0  0
 31 32  1  0  0  0  0
M  END
>  <MODEL>
4

>  <REMARK>
 VINA RESULT:      -9.7      3.803      7.937
  Name = 
  6 active torsions:
  status: ('A' for Active; 'I' for Inactive)
    1  A    between atoms: N_3  and  C_30
    2  A    between atoms: C_5  and  C_23
    3  A    between atoms: C_9  and  C_17
    4  A    between atoms: C_9  and  C_33
    5  A    between atoms: C_13  and  C_32
    6  A    between atoms: C_17  and  C_30
                            x       y       z     vdW  Elec       q    Type
                         _______ _______ _______ _____ _____    ______ ____

>  <TORSDO>
F 6

$$$$
=
 OpenBabel10222417553D

 33 38  0  0  1  0  0  0  0  0999 V2000
  185.4300  178.1580  146.8630 C   0  0  0  0  0  3  0  0  0  0  0  0
  190.4660  177.1070  144.2330 C   0  0  0  0  0  0  0  0  0  0  0  0
  190.5810  177.2950  142.5550 S   0  0  0  0  0  0  0  0  0  0  0  0
  184.6600  178.8230  144.2900 C   0  0  0  0  0  0  0  0  0  0  0  0
  188.3280  177.8100  143.6790 C   0  0  0  0  0  0  0  0  0  0  0  0
  186.9950  178.2330  143.5150 C   0  0  0  0  0  0  0  0  0  0  0  0
  191.4040  176.7240  145.1880 C   0  0  0  0  0  3  0  0  0  0  0  0
  188.9590  177.7850  142.4710 C   0  0  0  0  0  0  0  0  0  0  0  0
  184.1810  178.5920  146.5970 N   0  0  0  0  0  0  0  0  0  0  0  0
  186.8990  178.4730  142.0480 C   0  0  0  0  0  0  0  0  0  0  0  0
  186.3400  178.0490  145.8230 C   0  0  0  0  0  3  0  0  0  0  0  0
  184.5630  179.2500  141.7880 C   0  0  0  0  0  3  0  0  0  0  0  0
  190.8180  176.7430  146.4580 C   0  0  0  0  0  0  0  0  0  0  0  0
  189.2090  177.4170  144.6950 C   0  0  0  0  0  0  0  0  0  0  0  0
  185.9980  178.3760  144.5080 C   0  0  0  0  0  0  0  0  0  0  0  0
  184.0800  179.1990  143.0830 C   0  0  0  0  0  3  0  0  0  0  0  0
  183.8170  178.9100  145.3570 N   0  0  0  0  0  0  0  0  0  0  0  0
  189.1900  177.2360  146.3640 S   0  0  0  0  0  0  0  0  0  0  0  0
  185.8160  178.9250  141.3200 C   0  0  0  0  0  3  0  0  0  0  0  0
  188.1350  178.1770  141.4560 C   0  0  0  0  0  0  0  0  0  0  0  0
  189.2600  177.3330  139.4510 C   0  0  0  0  0  0  0  0  0  0  0  0
  188.5520  178.2560  140.0420 C   0  0  0  0  0  3  0  0  0  0  0  0
  189.9700  176.4070  138.8720 C   0  0  0  0  0  3  0  0  0  0  0  0
  191.4570  176.4610  138.9380 C   0  0  0  0  0  2  0  0  0  0  0  0
  193.2510  175.1790  137.9620 O   0  0  0  0  0  0  0  0  0  0  0  0
  192.0650  175.8730  137.6760 C   0  0  2  0  0  0  0  0  0  0  0  0
  193.3770  176.3770  137.2230 C   0  0  0  0  0  2  0  0  0  0  0  0
  191.2050  175.1030  136.6860 C   0  0  0  0  0  2  0  0  0  0  0  0
  191.2590  173.6800  136.9750 N   0  0  0  0  0  2  0  0  0  0  0  0
  191.9270  173.0490  135.8510 C   0  0  0  0  0  1  0  0  0  0  0  0
  191.5480  176.4200  147.7180 C   0  0  2  0  0  3  0  0  0  0  0  0
  191.8870  177.5950  148.3900 O   0  0  0  0  0  1  0  0  0  0  0  0
  192.8020  175.6270  147.4110 C   0  0  0  0  0  1  0  0  0  0  0  0
  2 14  2  0  0  0  0
  2  7  1  0  0  0  0
  3  2  1  0  0  0  0
  4 15  1  0  0  0  0
  4 17  1  0  0  0  0
  5 14  1  0  0  0  0
  6  5  1  0  0  0  0
  6 15  2  0  0  0  0
  7 13  2  0  0  0  0
  8  3  1  0  0  0  0
  8  5  2  0  0  0  0
  9  1  1  0  0  0  0
 10  6  1  0  0  0  0
 11  1  2  0  0  0  0
 12 16  1  0  0  0  0
 13 31  1  0  0  0  0
 14 18  1  0  0  0  0
 15 11  1  0  0  0  0
 16  4  2  0  0  0  0
 17  9  2  0  0  0  0
 18 13  1  0  0  0  0
 19 12  2  0  0  0  0
 19 10  1  0  0  0  0
 20 10  2  0  0  0  0
 20  8  1  0  0  0  0
 21 22  2  0  0  0  0
 22 20  1  0  0  0  0
 23 24  1  0  0  0  0
 23 21  2  0  0  0  0
 26 28  1  6  0  0  0
 26 25  1  0  0  0  0
 26 24  1  0  0  0  0
 27 26  1  0  0  0  0
 27 25  1  0  0  0  0
 28 29  1  0  0  0  0
 30 29  1  0  0  0  0
 31 33  1  6  0  0  0
 31 32  1  0  0  0  0
M  END
>  <MODEL>
5

>  <REMARK>
 VINA RESULT:      -9.7      3.951      8.653
  Name = 
  6 active torsions:
  status: ('A' for Active; 'I' for Inactive)
    1  A    between atoms: N_3  and  C_30
    2  A    between atoms: C_5  and  C_23
    3  A    between atoms: C_9  and  C_17
    4  A    between atoms: C_9  and  C_33
    5  A    between atoms: C_13  and  C_32
    6  A    between atoms: C_17  and  C_30
                            x       y       z     vdW  Elec       q    Type
                         _______ _______ _______ _____ _____    ______ ____

>  <TORSDO>
F 6

$$$$
=
 OpenBabel10222417553D

 33 38  0  0  1  0  0  0  0  0999 V2000
  190.9770  176.6200  145.5430 C   0  0  0  0  0  3  0  0  0  0  0  0
  188.0290  177.8860  140.7370 C   0  0  0  0  0  0  0  0  0  0  0  0
  186.4230  178.4040  140.8610 S   0  0  0  0  0  0  0  0  0  0  0  0
  188.6200  177.4280  146.7460 C   0  0  0  0  0  0  0  0  0  0  0  0
  187.6990  177.8870  143.0320 C   0  0  0  0  0  0  0  0  0  0  0  0
  187.6670  177.8400  144.4390 C   0  0  0  0  0  0  0  0  0  0  0  0
  188.8570  177.6890  139.6350 C   0  0  0  0  0  3  0  0  0  0  0  0
  186.4920  178.3030  142.5540 C   0  0  0  0  0  0  0  0  0  0  0  0
  190.8450  176.6310  146.8860 N   0  0  0  0  0  0  0  0  0  0  0  0
  186.2840  178.2930  144.7570 C   0  0  0  0  0  0  0  0  0  0  0  0
  189.9080  177.0250  144.7590 C   0  0  0  0  0  3  0  0  0  0  0  0
  186.2620  178.2390  147.2320 C   0  0  0  0  0  3  0  0  0  0  0  0
  190.1210  177.2720  140.0620 C   0  0  0  0  0  0  0  0  0  0  0  0
  188.5850  177.6500  141.9730 C   0  0  0  0  0  0  0  0  0  0  0  0
  188.6990  177.4440  145.3210 C   0  0  0  0  0  0  0  0  0  0  0  0
  187.5340  177.7900  147.5370 C   0  0  0  0  0  3  0  0  0  0  0  0
  189.7080  177.0210  147.4580 N   0  0  0  0  0  0  0  0  0  0  0  0
  190.1810  177.1750  141.7620 S   0  0  0  0  0  0  0  0  0  0  0  0
  185.6980  178.4630  145.9960 C   0  0  0  0  0  3  0  0  0  0  0  0
  185.6060  178.5600  143.5590 C   0  0  0  0  0  0  0  0  0  0  0  0
  183.4530  178.5730  142.3910 C   0  0  0  0  0  0  0  0  0  0  0  0
  184.2250  179.0340  143.3380 C   0  0  0  0  0  3  0  0  0  0  0  0
  182.6910  178.1080  141.4420 C   0  0  0  0  0  3  0  0  0  0  0  0
  182.7350  178.7230  140.0870 C   0  0  0  0  0  2  0  0  0  0  0  0
  180.4020  178.1350  139.9300 O   0  0  0  0  0  0  0  0  0  0  0  0
  181.3420  179.1400  139.6480 C   0  0  2  0  0  0  0  0  0  0  0  0
  180.6850  178.3780  138.5670 C   0  0  0  0  0  2  0  0  0  0  0  0
  180.7960  180.5140  139.9990 C   0  0  0  0  0  2  0  0  0  0  0  0
  180.2780  180.5180  141.3570 N   0  0  0  0  0  2  0  0  0  0  0  0
  178.9430  181.0850  141.2940 C   0  0  0  0  0  1  0  0  0  0  0  0
  191.2650  177.0020  139.1450 C   0  0  2  0  0  3  0  0  0  0  0  0
  191.1570  175.7180  138.6090 O   0  0  0  0  0  1  0  0  0  0  0  0
  192.5790  177.1360  139.8890 C   0  0  0  0  0  1  0  0  0  0  0  0
  1  9  1  0  0  0  0
  2  3  1  0  0  0  0
  2 14  2  0  0  0  0
  3  8  1  0  0  0  0
  4 17  1  0  0  0  0
  4 16  1  0  0  0  0
  5  6  2  0  0  0  0
  6 10  1  0  0  0  0
  6 15  1  0  0  0  0
  7 13  2  0  0  0  0
  7  2  1  0  0  0  0
  8  5  1  0  0  0  0
  8 20  2  0  0  0  0
  9 17  2  0  0  0  0
 10 19  2  0  0  0  0
 11 15  1  0  0  0  0
 11  1  2  0  0  0  0
 12 16  2  0  0  0  0
 13 18  1  0  0  0  0
 14  5  1  0  0  0  0
 15  4  2  0  0  0  0
 18 14  1  0  0  0  0
 19 12  1  0  0  0  0
 20 10  1  0  0  0  0
 21 22  2  0  0  0  0
 22 20  1  0  0  0  0
 23 21  2  0  0  0  0
 24 23  1  0  0  0  0
 26 25  1  0  0  0  0
 26 28  1  1  0  0  0
 26 24  1  0  0  0  0
 27 26  1  0  0  0  0
 27 25  1  0  0  0  0
 28 29  1  0  0  0  0
 30 29  1  0  0  0  0
 31 33  1  1  0  0  0
 31 13  1  0  0  0  0
 32 31  1  0  0  0  0
M  END
>  <MODEL>
6

>  <REMARK>
 VINA RESULT:      -9.3      1.752      1.995
  Name = 
  6 active torsions:
  status: ('A' for Active; 'I' for Inactive)
    1  A    between atoms: N_3  and  C_30
    2  A    between atoms: C_5  and  C_23
    3  A    between atoms: C_9  and  C_17
    4  A    between atoms: C_9  and  C_33
    5  A    between atoms: C_13  and  C_32
    6  A    between atoms: C_17  and  C_30
                            x       y       z     vdW  Elec       q    Type
                         _______ _______ _______ _____ _____    ______ ____

>  <TORSDO>
F 6

$$$$
=
 OpenBabel10222417553D

 33 38  0  0  1  0  0  0  0  0999 V2000
  184.5690  178.8590  139.7340 C   0  0  0  0  0  3  0  0  0  0  0  0
  189.4630  177.4600  142.4680 C   0  0  0  0  0  0  0  0  0  0  0  0
  189.4740  177.3740  144.1580 S   0  0  0  0  0  0  0  0  0  0  0  0
  183.5780  178.8750  142.3170 C   0  0  0  0  0  0  0  0  0  0  0  0
  187.2620  177.9660  142.9900 C   0  0  0  0  0  0  0  0  0  0  0  0
  185.8980  178.2800  143.1350 C   0  0  0  0  0  0  0  0  0  0  0  0
  190.4630  177.2450  141.5230 C   0  0  0  0  0  3  0  0  0  0  0  0
  187.8250  177.7690  144.2160 C   0  0  0  0  0  0  0  0  0  0  0  0
  183.2710  179.1300  139.9840 N   0  0  0  0  0  0  0  0  0  0  0  0
  185.6990  178.2390  144.6100 C   0  0  0  0  0  0  0  0  0  0  0  0
  185.4150  178.5820  140.7970 C   0  0  0  0  0  3  0  0  0  0  0  0
  183.2890  178.7560  144.8380 C   0  0  0  0  0  3  0  0  0  0  0  0
  189.9430  177.4210  140.2370 C   0  0  0  0  0  0  0  0  0  0  0  0
  188.2180  177.7830  141.9820 C   0  0  0  0  0  0  0  0  0  0  0  0
  184.9590  178.5760  142.1180 C   0  0  0  0  0  0  0  0  0  0  0  0
  182.8920  178.9380  143.5260 C   0  0  0  0  0  3  0  0  0  0  0  0
  182.8010  179.1360  141.2290 N   0  0  0  0  0  0  0  0  0  0  0  0
  188.2870  177.8160  140.3050 S   0  0  0  0  0  0  0  0  0  0  0  0
  184.5370  178.4470  145.3280 C   0  0  0  0  0  3  0  0  0  0  0  0
  186.9190  177.9230  145.2250 C   0  0  0  0  0  0  0  0  0  0  0  0
  188.4580  177.5670  147.0970 C   0  0  0  0  0  0  0  0  0  0  0  0
  187.2450  177.7600  146.6560 C   0  0  0  0  0  3  0  0  0  0  0  0
  189.6720  177.3730  147.5260 C   0  0  0  0  0  3  0  0  0  0  0  0
  190.2160  175.9900  147.6150 C   0  0  0  0  0  2  0  0  0  0  0  0
  192.0320  177.0040  146.3950 O   0  0  0  0  0  0  0  0  0  0  0  0
  191.7030  175.9830  147.3010 C   0  0  2  0  0  0  0  0  0  0  0  0
  192.1320  175.6770  145.9220 C   0  0  0  0  0  2  0  0  0  0  0  0
  192.7310  175.8880  148.4160 C   0  0  0  0  0  2  0  0  0  0  0  0
  192.8440  177.1630  149.1060 N   0  0  0  0  0  2  0  0  0  0  0  0
  193.8360  176.9860  150.1510 C   0  0  0  0  0  1  0  0  0  0  0  0
  190.7310  177.2340  138.9850 C   0  0  2  0  0  3  0  0  0  0  0  0
  190.1940  176.1880  138.2320 O   0  0  0  0  0  1  0  0  0  0  0  0
  192.1790  176.9340  139.3150 C   0  0  0  0  0  1  0  0  0  0  0  0
  1  9  2  0  0  0  0
  1 11  1  0  0  0  0
  2  3  1  0  0  0  0
  3  8  1  0  0  0  0
  4 16  1  0  0  0  0
  5  6  2  0  0  0  0
  5  8  1  0  0  0  0
  6 10  1  0  0  0  0
  7  2  1  0  0  0  0
  8 20  2  0  0  0  0
  9 17  1  0  0  0  0
 10 20  1  0  0  0  0
 10 19  2  0  0  0  0
 11 15  2  0  0  0  0
 12 19  1  0  0  0  0
 13 18  1  0  0  0  0
 13  7  2  0  0  0  0
 14  2  2  0  0  0  0
 14  5  1  0  0  0  0
 15  4  1  0  0  0  0
 15  6  1  0  0  0  0
 16 12  2  0  0  0  0
 17  4  2  0  0  0  0
 18 14  1  0  0  0  0
 20 22  1  0  0  0  0
 21 23  2  0  0  0  0
 22 21  2  0  0  0  0
 23 24  1  0  0  0  0
 25 26  1  0  0  0  0
 26 24  1  1  0  0  0
 26 28  1  0  0  0  0
 27 25  1  0  0  0  0
 27 26  1  0  0  0  0
 28 29  1  0  0  0  0
 29 30  1  0  0  0  0
 31 33  1  1  0  0  0
 31 13  1  0  0  0  0
 32 31  1  0  0  0  0
M  END
>  <MODEL>
7

>  <REMARK>
 VINA RESULT:      -9.2      2.993      8.005
  Name = 
  6 active torsions:
  status: ('A' for Active; 'I' for Inactive)
    1  A    between atoms: N_3  and  C_30
    2  A    between atoms: C_5  and  C_23
    3  A    between atoms: C_9  and  C_17
    4  A    between atoms: C_9  and  C_33
    5  A    between atoms: C_13  and  C_32
    6  A    between atoms: C_17  and  C_30
                            x       y       z     vdW  Elec       q    Type
                         _______ _______ _______ _____ _____    ______ ____

>  <TORSDO>
F 6

$$$$
=
 OpenBabel10222417553D

 33 38  0  0  1  0  0  0  0  0999 V2000
  186.6670  177.7820  146.7750 C   0  0  0  0  0  3  0  0  0  0  0  0
  186.7870  178.4350  141.0350 C   0  0  0  0  0  0  0  0  0  0  0  0
  188.2570  178.2730  140.2120 S   0  0  0  0  0  0  0  0  0  0  0  0
  189.3530  177.2430  146.3890 C   0  0  0  0  0  0  0  0  0  0  0  0
  188.2530  177.9380  142.7610 C   0  0  0  0  0  0  0  0  0  0  0  0
  189.0040  177.6390  143.9140 C   0  0  0  0  0  0  0  0  0  0  0  0
  185.4990  178.7110  140.5850 C   0  0  0  0  0  3  0  0  0  0  0  0
  189.0640  177.9320  141.6650 C   0  0  0  0  0  0  0  0  0  0  0  0
  187.4730  177.4670  147.8100 N   0  0  0  0  0  0  0  0  0  0  0  0
  190.3780  177.4400  143.3770 C   0  0  0  0  0  0  0  0  0  0  0  0
  187.2010  177.8320  145.4970 C   0  0  0  0  0  3  0  0  0  0  0  0
  191.6700  176.8810  145.4130 C   0  0  0  0  0  3  0  0  0  0  0  0
  184.6120  178.7190  141.6660 C   0  0  0  0  0  0  0  0  0  0  0  0
  186.9340  178.2280  142.3870 C   0  0  0  0  0  0  0  0  0  0  0  0
  188.5510  177.5650  145.2520 C   0  0  0  0  0  0  0  0  0  0  0  0
  190.7130  176.9470  146.4080 C   0  0  0  0  0  3  0  0  0  0  0  0
  188.7640  177.2090  147.6170 N   0  0  0  0  0  0  0  0  0  0  0  0
  185.4310  178.3740  143.1200 S   0  0  0  0  0  0  0  0  0  0  0  0
  191.5290  177.1020  144.0620 C   0  0  0  0  0  3  0  0  0  0  0  0
  190.3570  177.6370  141.9880 C   0  0  0  0  0  0  0  0  0  0  0  0
  191.2850  177.1260  139.7800 C   0  0  0  0  0  0  0  0  0  0  0  0
  191.4530  177.5510  141.0030 C   0  0  0  0  0  3  0  0  0  0  0  0
  191.1060  176.6980  138.5630 C   0  0  0  0  0  3  0  0  0  0  0  0
  191.2090  175.2430  138.2650 C   0  0  0  0  0  2  0  0  0  0  0  0
  189.7310  173.5710  137.3520 O   0  0  0  0  0  0  0  0  0  0  0  0
  190.2480  174.8610  137.1520 C   0  0  2  0  0  0  0  0  0  0  0  0
  190.6100  173.7420  136.2600 C   0  0  0  0  0  2  0  0  0  0  0  0
  189.1610  175.8220  136.7010 C   0  0  0  0  0  2  0  0  0  0  0  0
  187.9290  175.5660  137.4290 N   0  0  0  0  0  2  0  0  0  0  0  0
  186.8430  175.7070  136.4760 C   0  0  0  0  0  1  0  0  0  0  0  0
  183.1440  178.9470  141.5400 C   0  0  2  0  0  3  0  0  0  0  0  0
  182.5350  178.8520  142.7920 O   0  0  0  0  0  1  0  0  0  0  0  0
  182.5330  177.9310  140.5970 C   0  0  0  0  0  1  0  0  0  0  0  0
  1  9  1  0  0  0  0
  2 14  2  0  0  0  0
  3  2  1  0  0  0  0
  3  8  1  0  0  0  0
  4 16  1  0  0  0  0
  4 17  1  0  0  0  0
  5  6  2  0  0  0  0
  6 15  1  0  0  0  0
  7  2  1  0  0  0  0
  7 13  2  0  0  0  0
  8 20  2  0  0  0  0
  8  5  1  0  0  0  0
 10  6  1  0  0  0  0
 10 19  2  0  0  0  0
 11  1  2  0  0  0  0
 12 16  2  0  0  0  0
 13 18  1  0  0  0  0
 14  5  1  0  0  0  0
 14 18  1  0  0  0  0
 15 11  1  0  0  0  0
 15  4  2  0  0  0  0
 17  9  2  0  0  0  0
 19 12  1  0  0  0  0
 20 10  1  0  0  0  0
 21 22  2  0  0  0  0
 22 20  1  0  0  0  0
 23 21  2  0  0  0  0
 24 23  1  0  0  0  0
 26 28  1  6  0  0  0
 26 25  1  0  0  0  0
 26 24  1  0  0  0  0
 27 26  1  0  0  0  0
 27 25  1  0  0  0  0
 28 29  1  0  0  0  0
 30 29  1  0  0  0  0
 31 33  1  6  0  0  0
 31 13  1  0  0  0  0
 31 32  1  0  0  0  0
M  END
>  <MODEL>
8

>  <REMARK>
 VINA RESULT:      -9.2      2.929      7.101
  Name = 
  6 active torsions:
  status: ('A' for Active; 'I' for Inactive)
    1  A    between atoms: N_3  and  C_30
    2  A    between atoms: C_5  and  C_23
    3  A    between atoms: C_9  and  C_17
    4  A    between atoms: C_9  and  C_33
    5  A    between atoms: C_13  and  C_32
    6  A    between atoms: C_17  and  C_30
                            x       y       z     vdW  Elec       q    Type
                         _______ _______ _______ _____ _____    ______ ____

>  <TORSDO>
F 6

$$$$
=
 OpenBabel10222417553D

 33 38  0  0  1  0  0  0  0  0999 V2000
  185.4130  178.1390  146.5760 C   0  0  0  0  0  3  0  0  0  0  0  0
  190.5370  176.9670  144.1780 C   0  0  0  0  0  0  0  0  0  0  0  0
  190.7230  177.1160  142.5020 S   0  0  0  0  0  0  0  0  0  0  0  0
  184.7560  178.7550  143.9600 C   0  0  0  0  0  0  0  0  0  0  0  0
  188.4320  177.6840  143.5220 C   0  0  0  0  0  0  0  0  0  0  0  0
  187.1130  178.1190  143.2940 C   0  0  0  0  0  0  0  0  0  0  0  0
  191.4310  176.5960  145.1790 C   0  0  0  0  0  3  0  0  0  0  0  0
  189.1110  177.6230  142.3410 C   0  0  0  0  0  0  0  0  0  0  0  0
  184.1810  178.5820  146.2500 N   0  0  0  0  0  0  0  0  0  0  0  0
  187.0790  178.3260  141.8190 C   0  0  0  0  0  0  0  0  0  0  0  0
  186.3630  177.9950  145.5770 C   0  0  0  0  0  3  0  0  0  0  0  0
  184.7660  179.1250  141.4470 C   0  0  0  0  0  3  0  0  0  0  0  0
  190.7940  176.6500  146.4230 C   0  0  0  0  0  0  0  0  0  0  0  0
  189.2670  177.3040  144.5820 C   0  0  0  0  0  0  0  0  0  0  0  0
  186.0780  178.2960  144.2420 C   0  0  0  0  0  0  0  0  0  0  0  0
  184.2300  179.1100  142.7220 C   0  0  0  0  0  3  0  0  0  0  0  0
  183.8710  178.8770  144.9900 N   0  0  0  0  0  0  0  0  0  0  0  0
  189.1780  177.1610  146.2520 S   0  0  0  0  0  0  0  0  0  0  0  0
  186.0320  178.7750  141.0380 C   0  0  0  0  0  3  0  0  0  0  0  0
  188.3340  178.0020  141.2850 C   0  0  0  0  0  0  0  0  0  0  0  0
  188.0570  177.7340  138.8670 C   0  0  0  0  0  0  0  0  0  0  0  0
  188.8090  178.0440  139.8880 C   0  0  0  0  0  3  0  0  0  0  0  0
  187.2990  177.4200  137.8550 C   0  0  0  0  0  3  0  0  0  0  0  0
  187.2130  176.0030  137.4040 C   0  0  0  0  0  2  0  0  0  0  0  0
  187.9540  174.6640  135.5400 O   0  0  0  0  0  0  0  0  0  0  0  0
  187.4210  175.9120  135.9020 C   0  0  2  0  0  0  0  0  0  0  0  0
  188.7980  175.7870  135.3860 C   0  0  0  0  0  2  0  0  0  0  0  0
  186.3240  176.3370  134.9390 C   0  0  0  0  0  2  0  0  0  0  0  0
  185.0170  176.0750  135.5190 N   0  0  0  0  0  2  0  0  0  0  0  0
  184.3950  175.0490  134.7010 C   0  0  0  0  0  1  0  0  0  0  0  0
  191.4670  176.3480  147.7190 C   0  0  2  0  0  3  0  0  0  0  0  0
  192.0560  177.5030  148.2340 O   0  0  0  0  0  1  0  0  0  0  0  0
  192.5250  175.2790  147.5250 C   0  0  0  0  0  1  0  0  0  0  0  0
  2 14  2  0  0  0  0
  2  7  1  0  0  0  0
  3  2  1  0  0  0  0
  4 15  1  0  0  0  0
  4 17  1  0  0  0  0
  5 14  1  0  0  0  0
  6  5  1  0  0  0  0
  6 15  2  0  0  0  0
  7 13  2  0  0  0  0
  8  3  1  0  0  0  0
  8  5  2  0  0  0  0
  9  1  1  0  0  0  0
 10  6  1  0  0  0  0
 11  1  2  0  0  0  0
 12 16  1  0  0  0  0
 13 31  1  0  0  0  0
 14 18  1  0  0  0  0
 15 11  1  0  0  0  0
 16  4  2  0  0  0  0
 17  9  2  0  0  0  0
 18 13  1  0  0  0  0
 19 12  2  0  0  0  0
 19 10  1  0  0  0  0
 20 10  2  0  0  0  0
 20  8  1  0  0  0  0
 21 22  2  0  0  0  0
 22 20  1  0  0  0  0
 23 21  2  0  0  0  0
 24 23  1  0  0  0  0
 25 26  1  0  0  0  0
 26 28  1  6  0  0  0
 26 24  1  0  0  0  0
 27 25  1  0  0  0  0
 27 26  1  0  0  0  0
 28 29  1  0  0  0  0
 30 29  1  0  0  0  0
 31 33  1  6  0  0  0
 31 32  1  0  0  0  0
M  END
>  <MODEL>
9

>  <REMARK>
 VINA RESULT:      -9.1      3.815      7.434
  Name = 
  6 active torsions:
  status: ('A' for Active; 'I' for Inactive)
    1  A    between atoms: N_3  and  C_30
    2  A    between atoms: C_5  and  C_23
    3  A    between atoms: C_9  and  C_17
    4  A    between atoms: C_9  and  C_33
    5  A    between atoms: C_13  and  C_32
    6  A    between atoms: C_17  and  C_30
                            x       y       z     vdW  Elec       q    Type
                         _______ _______ _______ _____ _____    ______ ____

>  <TORSDO>
F 6

$$$$
