=
 OpenBabel10222419023D

 50 57  0  0  1  0  0  0  0  0999 V2000
  189.9580  175.6840  137.9470 C   0  0  1  0  0  3  0  0  0  0  0  0
  190.4410  177.0460  139.7730 C   0  0  2  0  0  3  0  0  0  0  0  0
  189.3700  175.7220  136.5570 C   0  0  0  0  0  0  0  0  0  0  0  0
  187.9950  176.2670  136.3690 C   0  0  0  0  0  2  0  0  0  0  0  0
  191.4280  175.9080  138.0220 C   0  0  0  0  0  0  0  0  0  0  0  0
  189.3320  176.6460  138.8900 N   0  0  1  0  0  0  0  0  0  0  0  0
  187.7490  177.5710  137.1310 C   0  0  1  0  0  0  0  0  0  0  0  0
  189.9470  175.2080  135.6130 O   0  0  0  0  0  0  0  0  0  0  0  0
  188.8550  177.8600  138.1860 C   0  0  1  0  0  3  0  0  0  0  0  0
  191.6940  176.6620  139.0700 C   0  0  0  0  0  0  0  0  0  0  0  0
  187.7490  178.6030  136.1910 O   0  0  0  0  0  1  0  0  0  0  0  0
  192.4420  175.2570  137.1230 C   0  0  1  0  0  3  0  0  0  0  0  0
  193.2600  176.2800  136.4510 N   0  0  0  0  0  2  0  0  0  0  0  0
  196.2450  174.6950  135.6180 O   0  0  0  0  0  0  0  0  0  0  0  0
  196.2940  175.8180  134.7670 C   0  0  0  0  0  2  0  0  0  0  0  0
  194.9550  176.5320  134.8710 C   0  0  0  0  0  2  0  0  0  0  0  0
  195.1310  174.9630  136.4180 C   0  0  1  0  0  3  0  0  0  0  0  0
  194.1330  175.5980  135.5880 N   0  0  1  0  0  0  0  0  0  0  0  0
  193.3150  174.2470  137.9030 C   0  0  0  0  0  2  0  0  0  0  0  0
  194.4980  173.7420  137.0610 C   0  0  2  0  0  3  0  0  0  0  0  0
  195.4200  173.1010  137.8900 O   0  0  0  0  0  0  0  0  0  0  0  0
  195.6240  173.9900  138.9450 C   0  0  0  0  0  1  0  0  0  0  0  0
  186.4270  177.4570  137.7520 N   0  0  0  0  0  2  0  0  0  0  0  0
  184.1400  176.8190  137.7690 N   0  0  0  0  0  0  0  0  0  0  0  0
  183.7770  175.8240  135.6820 N   0  0  2  0  0  0  0  0  0  0  0  0
  185.1750  176.2710  135.7990 C   0  0  0  0  0  2  0  0  0  0  0  0
  185.2580  176.8850  137.1540 C   0  0  0  0  0  0  0  0  0  0  0  0
  183.2280  176.1950  136.9240 N   0  0  0  0  0  2  0  0  0  0  0  0
  182.7290  173.7750  136.5710 C   0  0  0  0  0  2  0  0  0  0  0  0
  185.1360  173.7880  135.9730 C   0  0  0  0  0  2  0  0  0  0  0  0
  182.6910  172.3190  136.4400 N   0  0  0  0  0  2  0  0  0  0  0  0
  185.0900  172.2630  135.9650 C   0  0  0  0  0  2  0  0  0  0  0  0
  183.7640  174.3610  135.6040 C   0  0  2  0  0  3  0  0  0  0  0  0
  183.9750  171.7810  136.8850 C   0  0  0  0  0  2  0  0  0  0  0  0
  188.4960  179.0110  139.1410 C   0  0  0  0  0  2  0  0  0  0  0  0
  187.6660  178.5620  140.1700 O   0  0  0  0  0  1  0  0  0  0  0  0
  193.0120  177.0730  139.4880 C   0  0  0  0  0  0  0  0  0  0  0  0
  194.1150  177.4150  139.8380 C   0  0  0  0  0  3  0  0  0  0  0  0
  190.3200  176.3160  141.1050 C   0  0  0  0  0  2  0  0  0  0  0  0
  190.5380  177.2820  142.2530 C   0  0  0  0  0  2  0  0  0  0  0  0
  189.3610  177.2140  143.2040 C   0  0  0  0  0  2  0  0  0  0  0  0
  191.2590  176.6900  144.8520 C   0  0  0  0  0  3  0  0  0  0  0  0
  189.5330  177.1820  146.9740 N   0  0  0  0  0  0  0  0  0  0  0  0
  187.6490  177.6860  145.6480 C   0  0  0  0  0  3  0  0  0  0  0  0
  189.8480  177.0480  144.6060 C   0  0  0  0  0  0  0  0  0  0  0  0
  187.3600  177.8480  147.1490 C   0  0  0  0  0  3  0  0  0  0  0  0
  191.7270  176.5080  146.0950 C   0  0  0  0  0  3  0  0  0  0  0  0
  188.5420  177.4360  147.9280 N   0  0  0  0  0  0  0  0  0  0  0  0
  190.8380  176.6120  147.3140 C   0  0  0  0  0  3  0  0  0  0  0  0
  189.0580  177.2810  145.6570 C   0  0  0  0  0  0  0  0  0  0  0  0
  1  3  1  6  0  0  0
  1  5  1  0  0  0  0
  1  6  1  0  0  0  0
  2 39  1  1  0  0  0
  4  3  1  0  0  0  0
  4  7  1  0  0  0  0
  5 10  2  0  0  0  0
  6  2  1  0  0  0  0
  7 23  1  0  0  0  0
  7  9  1  0  0  0  0
  8  3  2  0  0  0  0
  9  6  1  0  0  0  0
  9 35  1  0  0  0  0
 10 37  1  0  0  0  0
 10  2  1  0  0  0  0
 11  7  1  0  0  0  0
 12 19  1  0  0  0  0
 12  5  1  0  0  0  0
 13 12  1  0  0  0  0
 14 17  1  0  0  0  0
 15 16  1  0  0  0  0
 15 14  1  0  0  0  0
 16 18  1  0  0  0  0
 17 20  1  0  0  0  0
 18 17  1  0  0  0  0
 18 13  1  0  0  0  0
 20 21  1  0  0  0  0
 20 19  1  0  0  0  0
 21 22  1  0  0  0  0
 25 26  1  0  0  0  0
 25 28  1  0  0  0  0
 26 27  1  0  0  0  0
 27 23  1  0  0  0  0
 27 24  2  0  0  0  0
 28 24  1  0  0  0  0
 31 29  1  0  0  0  0
 31 34  1  0  0  0  0
 32 30  1  0  0  0  0
 32 34  1  0  0  0  0
 33 25  1  0  0  0  0
 33 30  1  0  0  0  0
 33 29  1  0  0  0  0
 35 36  1  0  0  0  0
 37 38  3  0  0  0  0
 39 40  1  0  0  0  0
 40 41  1  0  0  0  0
 41 45  1  0  0  0  0
 42 47  1  0  0  0  0
 43 49  1  0  0  0  0
 43 48  1  0  0  0  0
 44 50  2  0  0  0  0
 44 46  1  0  0  0  0
 45 42  2  0  0  0  0
 45 50  1  0  0  0  0
 46 48  2  0  0  0  0
 47 49  2  0  0  0  0
 50 43  1  0  0  0  0
M  END
>  <MODEL>
1

>  <REMARK>
 VINA RESULT:      -7.9      0.000      0.000
  Name = 
  10 active torsions:
  status: ('A' for Active; 'I' for Inactive)
    1  A    between atoms: C_1  and  C_44
    2  A    between atoms: C_3  and  C_46
    3  A    between atoms: C_4  and  C_27
    4  A    between atoms: N_5  and  C_29
    5  A    between atoms: C_9  and  C_26
    6  A    between atoms: C_12  and  C_27
    7  A    between atoms: C_12  and  C_31
    8  A    between atoms: N_18  and  C_41
    9  A    between atoms: C_20  and  C_31
   10  A    between atoms: O_33  and  C_49
                            x       y       z     vdW  Elec       q    Type
                         _______ _______ _______ _____ _____    ______ ____

>  <TORSDO>
F 10

$$$$
=
 OpenBabel10222419023D

 50 57  0  0  1  0  0  0  0  0999 V2000
  183.7330  177.1270  138.2130 C   0  0  1  0  0  3  0  0  0  0  0  0
  183.6250  176.1970  136.0800 C   0  0  2  0  0  3  0  0  0  0  0  0
  184.4290  178.2060  139.0060 C   0  0  0  0  0  0  0  0  0  0  0  0
  185.9190  178.2240  139.0480 C   0  0  0  0  0  2  0  0  0  0  0  0
  182.4620  177.5410  137.5560 C   0  0  0  0  0  0  0  0  0  0  0  0
  184.5800  176.5180  137.1560 N   0  0  1  0  0  0  0  0  0  0  0  0
  186.5680  178.0110  137.6780 C   0  0  1  0  0  0  0  0  0  0  0  0
  183.7990  178.9810  139.7060 O   0  0  0  0  0  0  0  0  0  0  0  0
  185.5560  177.4950  136.6160 C   0  0  1  0  0  3  0  0  0  0  0  0
  182.4000  176.9930  136.3580 C   0  0  0  0  0  0  0  0  0  0  0  0
  187.0610  179.2490  137.2600 O   0  0  0  0  0  1  0  0  0  0  0  0
  181.3740  178.3380  138.2190 C   0  0  1  0  0  3  0  0  0  0  0  0
  181.4230  178.1530  139.6790 N   0  0  0  0  0  2  0  0  0  0  0  0
  179.8970  180.9730  141.0340 O   0  0  0  0  0  0  0  0  0  0  0  0
  179.8390  180.0880  142.1290 C   0  0  0  0  0  2  0  0  0  0  0  0
  180.3030  178.7230  141.6430 C   0  0  0  0  0  2  0  0  0  0  0  0
  180.6840  180.2740  140.1140 C   0  0  1  0  0  3  0  0  0  0  0  0
  180.3430  178.8740  140.2150 N   0  0  1  0  0  0  0  0  0  0  0  0
  181.4580  179.8320  137.8290 C   0  0  0  0  0  2  0  0  0  0  0  0
  180.5030  180.6980  138.6670 C   0  0  2  0  0  3  0  0  0  0  0  0
  180.8380  182.0440  138.5130 O   0  0  0  0  0  0  0  0  0  0  0  0
  182.2310  182.0560  138.4420 C   0  0  0  0  0  1  0  0  0  0  0  0
  187.6740  177.0710  137.8730 N   0  0  0  0  0  2  0  0  0  0  0  0
  189.5660  176.2330  139.0390 N   0  0  0  0  0  0  0  0  0  0  0  0
  189.8170  177.6560  140.8790 N   0  0  2  0  0  0  0  0  0  0  0  0
  188.6640  178.0740  140.0640 C   0  0  0  0  0  2  0  0  0  0  0  0
  188.6320  177.0990  138.9380 C   0  0  0  0  0  0  0  0  0  0  0  0
  190.2990  176.5320  140.1830 N   0  0  0  0  0  2  0  0  0  0  0  0
  187.8420  177.5560  142.3540 C   0  0  0  0  0  2  0  0  0  0  0  0
  190.1060  177.8630  143.3180 C   0  0  0  0  0  2  0  0  0  0  0  0
  187.3510  177.0460  143.6330 N   0  0  0  0  0  2  0  0  0  0  0  0
  189.5320  177.4420  144.6680 C   0  0  0  0  0  2  0  0  0  0  0  0
  189.3230  177.2010  142.1800 C   0  0  2  0  0  3  0  0  0  0  0  0
  188.0410  177.7550  144.7090 C   0  0  0  0  0  2  0  0  0  0  0  0
  186.2300  177.0220  135.3160 C   0  0  0  0  0  2  0  0  0  0  0  0
  186.7620  178.1030  134.6110 O   0  0  0  0  0  1  0  0  0  0  0  0
  181.3050  177.1410  135.4300 C   0  0  0  0  0  0  0  0  0  0  0  0
  180.3890  177.2620  134.6560 C   0  0  0  0  0  3  0  0  0  0  0  0
  183.3200  174.7050  136.0990 C   0  0  0  0  0  2  0  0  0  0  0  0
  184.5580  173.9230  136.4910 C   0  0  0  0  0  2  0  0  0  0  0  0
  184.1560  172.7150  137.3130 C   0  0  0  0  0  2  0  0  0  0  0  0
  184.4700  170.8460  135.5810 C   0  0  0  0  0  3  0  0  0  0  0  0
  181.7340  170.3630  135.6260 N   0  0  0  0  0  0  0  0  0  0  0  0
  181.2130  172.0410  137.2000 C   0  0  0  0  0  3  0  0  0  0  0  0
  183.5770  171.6640  136.4240 C   0  0  0  0  0  0  0  0  0  0  0  0
  179.9740  171.2310  136.7880 C   0  0  0  0  0  3  0  0  0  0  0  0
  183.9850  169.9100  134.7530 C   0  0  0  0  0  3  0  0  0  0  0  0
  180.3440  170.2590  135.7410 N   0  0  0  0  0  0  0  0  0  0  0  0
  182.5020  169.6630  134.5960 C   0  0  0  0  0  3  0  0  0  0  0  0
  182.2690  171.3920  136.4180 C   0  0  0  0  0  0  0  0  0  0  0  0
  1  5  1  6  0  0  0
  1  3  1  0  0  0  0
  2 39  1  1  0  0  0
  2 10  1  0  0  0  0
  2  6  1  0  0  0  0
  3  4  1  0  0  0  0
  3  8  2  0  0  0  0
  5 12  1  0  0  0  0
  6  1  1  0  0  0  0
  7 23  1  0  0  0  0
  7  4  1  0  0  0  0
  9  6  1  0  0  0  0
  9  7  1  0  0  0  0
 10  5  2  0  0  0  0
 11  7  1  0  0  0  0
 12 13  1  0  0  0  0
 13 18  1  0  0  0  0
 14 15  1  0  0  0  0
 16 15  1  0  0  0  0
 17 18  1  0  0  0  0
 17 14  1  0  0  0  0
 18 16  1  0  0  0  0
 19 12  1  0  0  0  0
 19 20  1  0  0  0  0
 20 17  1  0  0  0  0
 21 20  1  0  0  0  0
 22 21  1  0  0  0  0
 23 27  1  0  0  0  0
 24 28  1  0  0  0  0
 25 33  1  0  0  0  0
 26 25  1  0  0  0  0
 27 24  2  0  0  0  0
 27 26  1  0  0  0  0
 28 25  1  0  0  0  0
 29 31  1  0  0  0  0
 30 32  1  0  0  0  0
 31 34  1  0  0  0  0
 32 34  1  0  0  0  0
 33 29  1  0  0  0  0
 33 30  1  0  0  0  0
 35  9  1  0  0  0  0
 36 35  1  0  0  0  0
 37 10  1  0  0  0  0
 38 37  3  0  0  0  0
 39 40  1  0  0  0  0
 40 41  1  0  0  0  0
 42 45  2  0  0  0  0
 43 48  1  0  0  0  0
 43 50  1  0  0  0  0
 45 41  1  0  0  0  0
 46 44  1  0  0  0  0
 47 42  1  0  0  0  0
 48 46  2  0  0  0  0
 49 47  2  0  0  0  0
 49 43  1  0  0  0  0
 50 45  1  0  0  0  0
 50 44  2  0  0  0  0
M  END
>  <MODEL>
2

>  <REMARK>
 VINA RESULT:      -7.0      4.073     11.306
  Name = 
  10 active torsions:
  status: ('A' for Active; 'I' for Inactive)
    1  A    between atoms: C_1  and  C_44
    2  A    between atoms: C_3  and  C_46
    3  A    between atoms: C_4  and  C_27
    4  A    between atoms: N_5  and  C_29
    5  A    between atoms: C_9  and  C_26
    6  A    between atoms: C_12  and  C_27
    7  A    between atoms: C_12  and  C_31
    8  A    between atoms: N_18  and  C_41
    9  A    between atoms: C_20  and  C_31
   10  A    between atoms: O_33  and  C_49
                            x       y       z     vdW  Elec       q    Type
                         _______ _______ _______ _____ _____    ______ ____

>  <TORSDO>
F 10

$$$$
=
 OpenBabel10222419023D

 50 57  0  0  1  0  0  0  0  0999 V2000
  183.9740  177.1070  137.9230 C   0  0  1  0  0  3  0  0  0  0  0  0
  183.7410  176.2460  135.7710 C   0  0  2  0  0  3  0  0  0  0  0  0
  184.7030  178.1710  138.7050 C   0  0  0  0  0  0  0  0  0  0  0  0
  186.1930  178.2160  138.6490 C   0  0  0  0  0  2  0  0  0  0  0  0
  182.6560  177.5180  137.3660 C   0  0  0  0  0  0  0  0  0  0  0  0
  184.7590  176.5490  136.7920 N   0  0  1  0  0  0  0  0  0  0  0  0
  186.7530  178.0610  137.2340 C   0  0  1  0  0  0  0  0  0  0  0  0
  184.1080  178.9110  139.4710 O   0  0  0  0  0  0  0  0  0  0  0  0
  185.6810  177.5620  136.2230 C   0  0  1  0  0  3  0  0  0  0  0  0
  182.5240  177.0090  136.1560 C   0  0  0  0  0  0  0  0  0  0  0  0
  187.1960  179.3210  136.8260 O   0  0  0  0  0  1  0  0  0  0  0  0
  181.6020  178.2720  138.1260 C   0  0  1  0  0  3  0  0  0  0  0  0
  181.6800  177.9540  139.5610 N   0  0  0  0  0  2  0  0  0  0  0  0
  180.2470  180.6670  141.2040 O   0  0  0  0  0  0  0  0  0  0  0  0
  180.1960  179.6880  142.2160 C   0  0  0  0  0  2  0  0  0  0  0  0
  180.6190  178.3640  141.5960 C   0  0  0  0  0  2  0  0  0  0  0  0
  180.9970  180.0400  140.2050 C   0  0  1  0  0  3  0  0  0  0  0  0
  180.6290  178.6440  140.1870 N   0  0  1  0  0  0  0  0  0  0  0  0
  181.7080  179.7930  137.8710 C   0  0  0  0  0  2  0  0  0  0  0  0
  180.7920  180.5970  138.8070 C   0  0  2  0  0  3  0  0  0  0  0  0
  181.1510  181.9450  138.7680 O   0  0  0  0  0  0  0  0  0  0  0  0
  180.2130  182.5370  137.9220 C   0  0  0  0  0  1  0  0  0  0  0  0
  187.8850  177.1360  137.3230 N   0  0  0  0  0  2  0  0  0  0  0  0
  189.8490  176.2800  138.3470 N   0  0  0  0  0  0  0  0  0  0  0  0
  190.1680  177.6120  140.2430 N   0  0  2  0  0  0  0  0  0  0  0  0
  188.9670  178.0460  139.5110 C   0  0  0  0  0  2  0  0  0  0  0  0
  188.8950  177.1300  138.3380 C   0  0  0  0  0  0  0  0  0  0  0  0
  190.6340  176.5360  139.4660 N   0  0  0  0  0  2  0  0  0  0  0  0
  188.8080  178.0590  142.2530 C   0  0  0  0  0  2  0  0  0  0  0  0
  190.9630  176.8480  142.4480 C   0  0  0  0  0  2  0  0  0  0  0  0
  188.3570  177.4880  143.5210 N   0  0  0  0  0  2  0  0  0  0  0  0
  190.5110  176.3690  143.8240 C   0  0  0  0  0  2  0  0  0  0  0  0
  189.7500  177.0800  141.5430 C   0  0  2  0  0  3  0  0  0  0  0  0
  189.5120  177.3610  144.4080 C   0  0  0  0  0  2  0  0  0  0  0  0
  186.2750  177.1450  134.8660 C   0  0  0  0  0  2  0  0  0  0  0  0
  186.8310  175.8660  134.9400 O   0  0  0  0  0  1  0  0  0  0  0  0
  181.3680  177.1670  135.3080 C   0  0  0  0  0  0  0  0  0  0  0  0
  180.4000  177.2980  134.6000 C   0  0  0  0  0  3  0  0  0  0  0  0
  183.4620  174.7490  135.7590 C   0  0  0  0  0  2  0  0  0  0  0  0
  183.1760  174.2590  137.1650 C   0  0  0  0  0  2  0  0  0  0  0  0
  184.3200  173.3890  137.6420 C   0  0  0  0  0  2  0  0  0  0  0  0
  183.2140  171.2380  136.7810 C   0  0  0  0  0  3  0  0  0  0  0  0
  185.4820  170.6910  135.2720 N   0  0  0  0  0  0  0  0  0  0  0  0
  186.6920  172.6010  135.9440 C   0  0  0  0  0  3  0  0  0  0  0  0
  184.3820  172.1380  136.8290 C   0  0  0  0  0  0  0  0  0  0  0  0
  187.4610  171.7650  134.9080 C   0  0  0  0  0  3  0  0  0  0  0  0
  183.2400  170.0950  136.0830 C   0  0  0  0  0  3  0  0  0  0  0  0
  186.6960  170.5430  134.5940 N   0  0  0  0  0  0  0  0  0  0  0  0
  184.4740  169.6320  135.3410 C   0  0  0  0  0  3  0  0  0  0  0  0
  185.4480  171.8370  136.0820 C   0  0  0  0  0  0  0  0  0  0  0  0
  1  5  1  6  0  0  0
  1  3  1  0  0  0  0
  2 39  1  1  0  0  0
  2 10  1  0  0  0  0
  2  6  1  0  0  0  0
  3  8  2  0  0  0  0
  4  3  1  0  0  0  0
  5 12  1  0  0  0  0
  6  1  1  0  0  0  0
  7 23  1  0  0  0  0
  7  4  1  0  0  0  0
  9  6  1  0  0  0  0
  9  7  1  0  0  0  0
 10  5  2  0  0  0  0
 11  7  1  0  0  0  0
 12 13  1  0  0  0  0
 13 18  1  0  0  0  0
 14 15  1  0  0  0  0
 16 15  1  0  0  0  0
 17 14  1  0  0  0  0
 18 17  1  0  0  0  0
 18 16  1  0  0  0  0
 19 12  1  0  0  0  0
 19 20  1  0  0  0  0
 20 17  1  0  0  0  0
 21 20  1  0  0  0  0
 22 21  1  0  0  0  0
 23 27  1  0  0  0  0
 24 28  1  0  0  0  0
 25 33  1  0  0  0  0
 26 25  1  0  0  0  0
 27 24  2  0  0  0  0
 27 26  1  0  0  0  0
 28 25  1  0  0  0  0
 29 31  1  0  0  0  0
 30 32  1  0  0  0  0
 31 34  1  0  0  0  0
 32 34  1  0  0  0  0
 33 29  1  0  0  0  0
 33 30  1  0  0  0  0
 35 36  1  0  0  0  0
 35  9  1  0  0  0  0
 37 10  1  0  0  0  0
 38 37  3  0  0  0  0
 39 40  1  0  0  0  0
 40 41  1  0  0  0  0
 42 45  2  0  0  0  0
 43 49  1  0  0  0  0
 43 50  1  0  0  0  0
 44 50  2  0  0  0  0
 45 41  1  0  0  0  0
 46 44  1  0  0  0  0
 47 42  1  0  0  0  0
 48 46  2  0  0  0  0
 48 43  1  0  0  0  0
 49 47  2  0  0  0  0
 50 45  1  0  0  0  0
M  END
>  <MODEL>
3

>  <REMARK>
 VINA RESULT:      -6.6      3.784     11.047
  Name = 
  10 active torsions:
  status: ('A' for Active; 'I' for Inactive)
    1  A    between atoms: C_1  and  C_44
    2  A    between atoms: C_3  and  C_46
    3  A    between atoms: C_4  and  C_27
    4  A    between atoms: N_5  and  C_29
    5  A    between atoms: C_9  and  C_26
    6  A    between atoms: C_12  and  C_27
    7  A    between atoms: C_12  and  C_31
    8  A    between atoms: N_18  and  C_41
    9  A    between atoms: C_20  and  C_31
   10  A    between atoms: O_33  and  C_49
                            x       y       z     vdW  Elec       q    Type
                         _______ _______ _______ _____ _____    ______ ____

>  <TORSDO>
F 10

$$$$
=
 OpenBabel10222419023D

 50 57  0  0  1  0  0  0  0  0999 V2000
  184.8840  179.2980  139.3410 C   0  0  1  0  0  3  0  0  0  0  0  0
  182.5670  179.5260  139.2820 C   0  0  2  0  0  3  0  0  0  0  0  0
  185.9880  178.5450  140.0420 C   0  0  0  0  0  0  0  0  0  0  0  0
  186.0710  178.6040  141.5300 C   0  0  0  0  0  2  0  0  0  0  0  0
  184.3540  178.6500  138.1100 C   0  0  0  0  0  0  0  0  0  0  0  0
  183.7130  179.5900  140.2070 N   0  0  1  0  0  0  0  0  0  0  0  0
  184.7190  178.4150  142.2220 C   0  0  1  0  0  0  0  0  0  0  0  0
  186.8760  177.9940  139.4120 O   0  0  0  0  0  0  0  0  0  0  0  0
  183.5240  178.5380  141.2330 C   0  0  1  0  0  3  0  0  0  0  0  0
  183.0450  178.8020  138.0750 C   0  0  0  0  0  0  0  0  0  0  0  0
  184.7130  177.1310  142.7700 O   0  0  0  0  0  1  0  0  0  0  0  0
  185.2020  178.0480  137.0250 C   0  0  1  0  0  3  0  0  0  0  0  0
  186.5800  178.5590  137.1110 N   0  0  0  0  0  2  0  0  0  0  0  0
  188.5700  176.1540  135.5700 O   0  0  0  0  0  0  0  0  0  0  0  0
  189.4360  177.2660  135.5530 C   0  0  0  0  0  2  0  0  0  0  0  0
  188.6430  178.4740  136.0280 C   0  0  0  0  0  2  0  0  0  0  0  0
  187.5010  176.6090  136.3470 C   0  0  1  0  0  3  0  0  0  0  0  0
  187.2860  178.0020  136.0320 N   0  0  1  0  0  0  0  0  0  0  0  0
  185.1610  176.5030  137.0740 C   0  0  0  0  0  2  0  0  0  0  0  0
  186.1920  175.8710  136.1250 C   0  0  2  0  0  3  0  0  0  0  0  0
  186.3430  174.5180  136.4340 O   0  0  0  0  0  0  0  0  0  0  0  0
  185.0640  173.9790  136.2920 C   0  0  0  0  0  1  0  0  0  0  0  0
  184.6440  179.4170  143.2880 N   0  0  0  0  0  2  0  0  0  0  0  0
  184.9840  180.1770  145.5120 N   0  0  0  0  0  0  0  0  0  0  0  0
  185.9870  178.3750  146.6170 N   0  0  2  0  0  0  0  0  0  0  0  0
  185.7200  178.0270  145.2110 C   0  0  0  0  0  2  0  0  0  0  0  0
  185.0800  179.2460  144.6420 C   0  0  0  0  0  0  0  0  0  0  0  0
  185.5110  179.6960  146.7060 N   0  0  0  0  0  2  0  0  0  0  0  0
  188.1450  177.4960  145.8070 C   0  0  0  0  0  2  0  0  0  0  0  0
  187.7990  177.9220  148.2250 C   0  0  0  0  0  2  0  0  0  0  0  0
  189.5940  177.5810  145.9860 N   0  0  0  0  0  2  0  0  0  0  0  0
  189.3150  177.8830  148.3970 C   0  0  0  0  0  2  0  0  0  0  0  0
  187.4380  178.4050  146.8180 C   0  0  2  0  0  3  0  0  0  0  0  0
  189.9320  177.0280  147.2960 C   0  0  0  0  0  2  0  0  0  0  0  0
  182.1590  178.6190  141.9390 C   0  0  0  0  0  2  0  0  0  0  0  0
  181.2240  177.7960  141.3090 O   0  0  0  0  0  1  0  0  0  0  0  0
  182.1790  178.3310  137.0210 C   0  0  0  0  0  0  0  0  0  0  0  0
  181.4540  177.9380  136.1410 C   0  0  0  0  0  3  0  0  0  0  0  0
  182.1190  180.9380  138.9270 C   0  0  0  0  0  2  0  0  0  0  0  0
  180.6870  181.1600  139.3740 C   0  0  0  0  0  2  0  0  0  0  0  0
  179.7590  181.0290  138.1840 C   0  0  0  0  0  2  0  0  0  0  0  0
  180.5610  181.8000  135.8700 C   0  0  0  0  0  3  0  0  0  0  0  0
  179.9280  184.4220  136.5380 N   0  0  0  0  0  0  0  0  0  0  0  0
  179.1560  183.9420  138.7150 C   0  0  0  0  0  3  0  0  0  0  0  0
  180.0260  182.1260  137.2060 C   0  0  0  0  0  0  0  0  0  0  0  0
  179.0060  185.4310  138.3630 C   0  0  0  0  0  3  0  0  0  0  0  0
  180.8370  182.7580  134.9750 C   0  0  0  0  0  3  0  0  0  0  0  0
  179.5840  185.6850  137.0300 N   0  0  0  0  0  0  0  0  0  0  0  0
  180.6620  184.2270  135.2870 C   0  0  0  0  0  3  0  0  0  0  0  0
  179.7310  183.3990  137.4800 C   0  0  0  0  0  0  0  0  0  0  0  0
  1  5  1  6  0  0  0
  1  3  1  0  0  0  0
  1  6  1  0  0  0  0
  2 39  1  6  0  0  0
  2  6  1  0  0  0  0
  3  4  1  0  0  0  0
  4  7  1  0  0  0  0
  6  9  1  0  0  0  0
  7 11  1  0  0  0  0
  7 23  1  0  0  0  0
  8  3  2  0  0  0  0
  9 35  1  0  0  0  0
  9  7  1  0  0  0  0
 10  5  2  0  0  0  0
 10  2  1  0  0  0  0
 12 19  1  0  0  0  0
 12 13  1  0  0  0  0
 12  5  1  0  0  0  0
 14 17  1  0  0  0  0
 15 14  1  0  0  0  0
 15 16  1  0  0  0  0
 16 18  1  0  0  0  0
 18 17  1  0  0  0  0
 18 13  1  0  0  0  0
 20 17  1  0  0  0  0
 20 21  1  0  0  0  0
 20 19  1  0  0  0  0
 22 21  1  0  0  0  0
 23 27  1  0  0  0  0
 24 28  1  0  0  0  0
 25 28  1  0  0  0  0
 25 33  1  0  0  0  0
 26 25  1  0  0  0  0
 27 26  1  0  0  0  0
 27 24  2  0  0  0  0
 29 31  1  0  0  0  0
 29 33  1  0  0  0  0
 30 32  1  0  0  0  0
 31 34  1  0  0  0  0
 33 30  1  0  0  0  0
 34 32  1  0  0  0  0
 36 35  1  0  0  0  0
 37 10  1  0  0  0  0
 38 37  3  0  0  0  0
 39 40  1  0  0  0  0
 41 40  1  0  0  0  0
 42 45  2  0  0  0  0
 43 48  1  0  0  0  0
 43 50  1  0  0  0  0
 45 50  1  0  0  0  0
 45 41  1  0  0  0  0
 46 44  1  0  0  0  0
 47 49  2  0  0  0  0
 47 42  1  0  0  0  0
 48 46  2  0  0  0  0
 49 43  1  0  0  0  0
 50 44  2  0  0  0  0
M  END
>  <MODEL>
4

>  <REMARK>
 VINA RESULT:      -6.4      4.909     10.539
  Name = 
  10 active torsions:
  status: ('A' for Active; 'I' for Inactive)
    1  A    between atoms: C_1  and  C_44
    2  A    between atoms: C_3  and  C_46
    3  A    between atoms: C_4  and  C_27
    4  A    between atoms: N_5  and  C_29
    5  A    between atoms: C_9  and  C_26
    6  A    between atoms: C_12  and  C_27
    7  A    between atoms: C_12  and  C_31
    8  A    between atoms: N_18  and  C_41
    9  A    between atoms: C_20  and  C_31
   10  A    between atoms: O_33  and  C_49
                            x       y       z     vdW  Elec       q    Type
                         _______ _______ _______ _____ _____    ______ ____

>  <TORSDO>
F 10

$$$$
=
 OpenBabel10222419023D

 50 57  0  0  1  0  0  0  0  0999 V2000
  186.3100  178.7970  139.2840 C   0  0  1  0  0  3  0  0  0  0  0  0
  187.5550  177.5220  137.7840 C   0  0  2  0  0  3  0  0  0  0  0  0
  185.0350  178.7750  140.0910 C   0  0  0  0  0  0  0  0  0  0  0  0
  183.7400  178.5440  139.3900 C   0  0  0  0  0  2  0  0  0  0  0  0
  187.5100  178.2510  139.9760 C   0  0  0  0  0  0  0  0  0  0  0  0
  186.2080  178.0870  137.9830 N   0  0  1  0  0  0  0  0  0  0  0  0
  183.7940  177.4000  138.3750 C   0  0  1  0  0  0  0  0  0  0  0  0
  185.0340  179.0620  141.2770 O   0  0  0  0  0  0  0  0  0  0  0  0
  185.2520  176.9580  138.0570 C   0  0  1  0  0  3  0  0  0  0  0  0
  188.2190  177.5490  139.1140 C   0  0  0  0  0  0  0  0  0  0  0  0
  183.1130  176.3190  138.9360 O   0  0  0  0  0  1  0  0  0  0  0  0
  187.9070  178.5750  141.3890 C   0  0  1  0  0  3  0  0  0  0  0  0
  187.3010  177.6110  142.3220 N   0  0  0  0  0  2  0  0  0  0  0  0
  189.3350  177.6360  145.1470 O   0  0  0  0  0  0  0  0  0  0  0  0
  188.1630  177.0520  145.6690 C   0  0  0  0  0  2  0  0  0  0  0  0
  187.0890  177.1380  144.5950 C   0  0  0  0  0  2  0  0  0  0  0  0
  189.0640  177.6980  143.7770 C   0  0  1  0  0  3  0  0  0  0  0  0
  187.6650  178.0180  143.6170 N   0  0  1  0  0  0  0  0  0  0  0  0
  189.4440  178.6290  141.5400 C   0  0  0  0  0  2  0  0  0  0  0  0
  189.8720  178.7320  143.0130 C   0  0  2  0  0  3  0  0  0  0  0  0
  191.2360  178.4560  143.1230 O   0  0  0  0  0  0  0  0  0  0  0  0
  191.3440  177.0930  142.8470 C   0  0  0  0  0  1  0  0  0  0  0  0
  183.0960  177.8650  137.1740 N   0  0  0  0  0  2  0  0  0  0  0  0
  181.3550  179.0210  136.0460 N   0  0  0  0  0  0  0  0  0  0  0  0
  180.0280  179.9200  137.7500 N   0  0  2  0  0  0  0  0  0  0  0  0
  181.1560  179.1680  138.3250 C   0  0  0  0  0  2  0  0  0  0  0  0
  181.8990  178.6500  137.1410 C   0  0  0  0  0  0  0  0  0  0  0  0
  180.2330  179.7780  136.3650 N   0  0  0  0  0  2  0  0  0  0  0  0
  178.9310  181.8920  138.7480 C   0  0  0  0  0  2  0  0  0  0  0  0
  180.4770  182.1610  136.8280 C   0  0  0  0  0  2  0  0  0  0  0  0
  179.1360  183.2890  139.1270 N   0  0  0  0  0  2  0  0  0  0  0  0
  180.5730  183.6430  137.1790 C   0  0  0  0  0  2  0  0  0  0  0  0
  180.1970  181.3360  138.0870 C   0  0  2  0  0  3  0  0  0  0  0  0
  179.3080  184.0790  137.9090 C   0  0  0  0  0  2  0  0  0  0  0  0
  185.3460  176.0050  136.8530 C   0  0  0  0  0  2  0  0  0  0  0  0
  185.5240  174.6860  137.2760 O   0  0  0  0  0  1  0  0  0  0  0  0
  189.4670  176.8850  139.4070 C   0  0  0  0  0  0  0  0  0  0  0  0
  190.5100  176.3330  139.6510 C   0  0  0  0  0  3  0  0  0  0  0  0
  188.3200  178.3710  136.7770 C   0  0  0  0  0  2  0  0  0  0  0  0
  188.1940  177.7770  135.3890 C   0  0  0  0  0  2  0  0  0  0  0  0
  189.5210  177.1800  134.9690 C   0  0  0  0  0  2  0  0  0  0  0  0
  188.6100  174.8410  135.5090 C   0  0  0  0  0  3  0  0  0  0  0  0
  191.0260  174.1940  136.7190 N   0  0  0  0  0  0  0  0  0  0  0  0
  192.0580  176.2820  136.3430 C   0  0  0  0  0  3  0  0  0  0  0  0
  189.6960  175.8360  135.5970 C   0  0  0  0  0  0  0  0  0  0  0  0
  193.0070  175.2820  137.0240 C   0  0  0  0  0  3  0  0  0  0  0  0
  188.7210  173.6340  136.0800 C   0  0  0  0  0  3  0  0  0  0  0  0
  192.2830  174.0300  137.3120 N   0  0  0  0  0  0  0  0  0  0  0  0
  189.9370  173.2310  136.8840 C   0  0  0  0  0  3  0  0  0  0  0  0
  190.8420  175.4780  136.1820 C   0  0  0  0  0  0  0  0  0  0  0  0
  1  5  1  1  0  0  0
  1  3  1  0  0  0  0
  2 39  1  6  0  0  0
  2  6  1  0  0  0  0
  2 10  1  0  0  0  0
  3  8  2  0  0  0  0
  4  3  1  0  0  0  0
  5 12  1  0  0  0  0
  6  9  1  0  0  0  0
  6  1  1  0  0  0  0
  7 11  1  0  0  0  0
  7  4  1  0  0  0  0
  9  7  1  0  0  0  0
 10 37  1  0  0  0  0
 10  5  2  0  0  0  0
 12 19  1  0  0  0  0
 12 13  1  0  0  0  0
 13 18  1  0  0  0  0
 14 15  1  0  0  0  0
 16 15  1  0  0  0  0
 17 14  1  0  0  0  0
 18 17  1  0  0  0  0
 18 16  1  0  0  0  0
 19 20  1  0  0  0  0
 20 21  1  0  0  0  0
 20 17  1  0  0  0  0
 22 21  1  0  0  0  0
 23  7  1  0  0  0  0
 24 28  1  0  0  0  0
 24 27  2  0  0  0  0
 25 33  1  0  0  0  0
 25 26  1  0  0  0  0
 27 23  1  0  0  0  0
 27 26  1  0  0  0  0
 28 25  1  0  0  0  0
 29 31  1  0  0  0  0
 30 32  1  0  0  0  0
 30 33  1  0  0  0  0
 32 34  1  0  0  0  0
 33 29  1  0  0  0  0
 34 31  1  0  0  0  0
 35 36  1  0  0  0  0
 35  9  1  0  0  0  0
 37 38  3  0  0  0  0
 40 39  1  0  0  0  0
 41 40  1  0  0  0  0
 41 45  1  0  0  0  0
 42 45  2  0  0  0  0
 42 47  1  0  0  0  0
 43 49  1  0  0  0  0
 43 48  1  0  0  0  0
 44 46  1  0  0  0  0
 45 50  1  0  0  0  0
 46 48  2  0  0  0  0
 47 49  2  0  0  0  0
 50 44  2  0  0  0  0
 50 43  1  0  0  0  0
M  END
>  <MODEL>
5

>  <REMARK>
 VINA RESULT:      -6.3      3.814      8.308
  Name = 
  10 active torsions:
  status: ('A' for Active; 'I' for Inactive)
    1  A    between atoms: C_1  and  C_44
    2  A    between atoms: C_3  and  C_46
    3  A    between atoms: C_4  and  C_27
    4  A    between atoms: N_5  and  C_29
    5  A    between atoms: C_9  and  C_26
    6  A    between atoms: C_12  and  C_27
    7  A    between atoms: C_12  and  C_31
    8  A    between atoms: N_18  and  C_41
    9  A    between atoms: C_20  and  C_31
   10  A    between atoms: O_33  and  C_49
                            x       y       z     vdW  Elec       q    Type
                         _______ _______ _______ _____ _____    ______ ____

>  <TORSDO>
F 10

$$$$
=
 OpenBabel10222419023D

 50 57  0  0  1  0  0  0  0  0999 V2000
  184.0920  178.7540  138.0390 C   0  0  1  0  0  3  0  0  0  0  0  0
  183.4110  176.9040  136.7990 C   0  0  2  0  0  3  0  0  0  0  0  0
  184.0560  179.3300  139.4340 C   0  0  0  0  0  0  0  0  0  0  0  0
  182.7380  179.5050  140.1090 C   0  0  0  0  0  2  0  0  0  0  0  0
  185.2730  177.9020  137.7340 C   0  0  0  0  0  0  0  0  0  0  0  0
  182.8890  177.9570  137.6880 N   0  0  1  0  0  0  0  0  0  0  0  0
  181.8150  178.2930  139.9660 C   0  0  1  0  0  0  0  0  0  0  0  0
  185.0660  179.7620  139.9650 O   0  0  0  0  0  0  0  0  0  0  0  0
  182.3120  177.2940  138.8820 C   0  0  1  0  0  3  0  0  0  0  0  0
  184.8820  176.8690  137.0140 C   0  0  0  0  0  0  0  0  0  0  0  0
  181.7990  177.6400  141.2000 O   0  0  0  0  0  1  0  0  0  0  0  0
  186.6940  178.2510  138.0770 C   0  0  1  0  0  3  0  0  0  0  0  0
  187.1550  177.4470  139.2210 N   0  0  0  0  0  2  0  0  0  0  0  0
  190.6250  177.3480  138.9610 O   0  0  0  0  0  0  0  0  0  0  0  0
  190.4500  176.9770  140.3090 C   0  0  0  0  0  2  0  0  0  0  0  0
  188.9770  177.1540  140.6460 C   0  0  0  0  0  2  0  0  0  0  0  0
  189.3150  177.3630  138.4720 C   0  0  1  0  0  3  0  0  0  0  0  0
  188.4600  177.8760  139.5170 N   0  0  1  0  0  0  0  0  0  0  0  0
  187.6230  178.0860  136.8520 C   0  0  0  0  0  2  0  0  0  0  0  0
  189.1060  178.2170  137.2340 C   0  0  2  0  0  3  0  0  0  0  0  0
  189.9010  177.7500  136.1860 O   0  0  0  0  0  0  0  0  0  0  0  0
  189.0050  177.5010  135.1460 C   0  0  0  0  0  1  0  0  0  0  0  0
  180.4800  178.8090  139.6540 N   0  0  0  0  0  2  0  0  0  0  0  0
  178.9650  180.5220  139.0160 N   0  0  0  0  0  0  0  0  0  0  0  0
  180.2980  182.4190  138.7020 N   0  0  2  0  0  0  0  0  0  0  0  0
  181.1280  181.2720  139.1060 C   0  0  0  0  0  2  0  0  0  0  0  0
  180.1600  180.1540  139.2790 C   0  0  0  0  0  0  0  0  0  0  0  0
  179.0030  181.8690  138.6700 N   0  0  0  0  0  2  0  0  0  0  0  0
  180.6230  184.3140  137.1550 C   0  0  0  0  0  2  0  0  0  0  0  0
  179.6860  182.1730  136.3270 C   0  0  0  0  0  2  0  0  0  0  0  0
  181.0410  184.6710  135.8000 N   0  0  0  0  0  2  0  0  0  0  0  0
  180.0250  182.6310  134.9110 C   0  0  0  0  0  2  0  0  0  0  0  0
  180.6610  182.7920  137.3320 C   0  0  2  0  0  3  0  0  0  0  0  0
  180.0490  184.1540  134.8590 C   0  0  0  0  0  2  0  0  0  0  0  0
  181.2740  176.2140  138.5320 C   0  0  0  0  0  2  0  0  0  0  0  0
  181.6060  174.9940  139.1270 O   0  0  0  0  0  1  0  0  0  0  0  0
  185.7480  175.8330  136.5030 C   0  0  0  0  0  0  0  0  0  0  0  0
  186.4700  174.9680  136.0740 C   0  0  0  0  0  3  0  0  0  0  0  0
  183.0820  177.2490  135.3530 C   0  0  0  0  0  2  0  0  0  0  0  0
  181.9140  176.4120  134.8680 C   0  0  0  0  0  2  0  0  0  0  0  0
  182.3820  174.9980  134.5940 C   0  0  0  0  0  2  0  0  0  0  0  0
  180.2340  174.2030  135.7540 C   0  0  0  0  0  3  0  0  0  0  0  0
  181.6340  172.0680  136.8520 N   0  0  0  0  0  0  0  0  0  0  0  0
  183.7190  172.6230  135.8980 C   0  0  0  0  0  3  0  0  0  0  0  0
  181.6790  174.0430  135.5020 C   0  0  0  0  0  0  0  0  0  0  0  0
  183.7810  171.3150  136.7040 C   0  0  0  0  0  3  0  0  0  0  0  0
  179.5740  173.3820  136.5820 C   0  0  0  0  0  3  0  0  0  0  0  0
  182.4770  171.0680  137.3470 N   0  0  0  0  0  0  0  0  0  0  0  0
  180.2700  172.2740  137.3410 C   0  0  0  0  0  3  0  0  0  0  0  0
  182.3090  172.9990  136.0460 C   0  0  0  0  0  0  0  0  0  0  0  0
  1  5  1  1  0  0  0
  1  3  1  0  0  0  0
  2 39  1  6  0  0  0
  2 10  1  0  0  0  0
  2  6  1  0  0  0  0
  3  8  2  0  0  0  0
  3  4  1  0  0  0  0
  5 12  1  0  0  0  0
  6  1  1  0  0  0  0
  6  9  1  0  0  0  0
  7  4  1  0  0  0  0
  7 11  1  0  0  0  0
  9  7  1  0  0  0  0
 10  5  2  0  0  0  0
 12 13  1  0  0  0  0
 13 18  1  0  0  0  0
 14 15  1  0  0  0  0
 15 16  1  0  0  0  0
 17 14  1  0  0  0  0
 17 18  1  0  0  0  0
 18 16  1  0  0  0  0
 19 20  1  0  0  0  0
 19 12  1  0  0  0  0
 20 17  1  0  0  0  0
 21 20  1  0  0  0  0
 22 21  1  0  0  0  0
 23  7  1  0  0  0  0
 24 27  2  0  0  0  0
 25 26  1  0  0  0  0
 26 27  1  0  0  0  0
 27 23  1  0  0  0  0
 28 25  1  0  0  0  0
 28 24  1  0  0  0  0
 29 33  1  0  0  0  0
 30 33  1  0  0  0  0
 31 29  1  0  0  0  0
 32 30  1  0  0  0  0
 33 25  1  0  0  0  0
 34 32  1  0  0  0  0
 34 31  1  0  0  0  0
 35  9  1  0  0  0  0
 35 36  1  0  0  0  0
 37 10  1  0  0  0  0
 38 37  3  0  0  0  0
 40 39  1  0  0  0  0
 41 40  1  0  0  0  0
 41 45  1  0  0  0  0
 42 47  1  0  0  0  0
 43 49  1  0  0  0  0
 43 48  1  0  0  0  0
 44 50  2  0  0  0  0
 44 46  1  0  0  0  0
 45 42  2  0  0  0  0
 45 50  1  0  0  0  0
 46 48  2  0  0  0  0
 47 49  2  0  0  0  0
 50 43  1  0  0  0  0
M  END
>  <MODEL>
6

>  <REMARK>
 VINA RESULT:      -6.2      4.337      9.471
  Name = 
  10 active torsions:
  status: ('A' for Active; 'I' for Inactive)
    1  A    between atoms: C_1  and  C_44
    2  A    between atoms: C_3  and  C_46
    3  A    between atoms: C_4  and  C_27
    4  A    between atoms: N_5  and  C_29
    5  A    between atoms: C_9  and  C_26
    6  A    between atoms: C_12  and  C_27
    7  A    between atoms: C_12  and  C_31
    8  A    between atoms: N_18  and  C_41
    9  A    between atoms: C_20  and  C_31
   10  A    between atoms: O_33  and  C_49
                            x       y       z     vdW  Elec       q    Type
                         _______ _______ _______ _____ _____    ______ ____

>  <TORSDO>
F 10

$$$$
=
 OpenBabel10222419023D

 50 57  0  0  1  0  0  0  0  0999 V2000
  189.4280  176.1060  138.3820 C   0  0  1  0  0  3  0  0  0  0  0  0
  190.0440  177.2450  140.3190 C   0  0  2  0  0  3  0  0  0  0  0  0
  188.7680  176.3120  137.0410 C   0  0  0  0  0  0  0  0  0  0  0  0
  187.4000  176.9030  136.9910 C   0  0  0  0  0  2  0  0  0  0  0  0
  190.9050  176.2900  138.3990 C   0  0  0  0  0  0  0  0  0  0  0  0
  188.8790  176.9690  139.4600 N   0  0  1  0  0  0  0  0  0  0  0  0
  187.2300  178.1190  137.9060 C   0  0  1  0  0  0  0  0  0  0  0  0
  189.2800  175.8950  136.0150 O   0  0  0  0  0  0  0  0  0  0  0  0
  188.3990  178.2650  138.9220 C   0  0  1  0  0  3  0  0  0  0  0  0
  191.2470  176.9160  139.5090 C   0  0  0  0  0  0  0  0  0  0  0  0
  187.2080  179.2500  137.0870 O   0  0  0  0  0  1  0  0  0  0  0  0
  191.8520  175.7230  137.3790 C   0  0  1  0  0  3  0  0  0  0  0  0
  193.1600  175.4460  137.9940 N   0  0  0  0  0  2  0  0  0  0  0  0
  194.6300  172.9930  136.0100 O   0  0  0  0  0  0  0  0  0  0  0  0
  195.7560  173.4870  136.6980 C   0  0  0  0  0  2  0  0  0  0  0  0
  195.3130  174.7130  137.4830 C   0  0  0  0  0  2  0  0  0  0  0  0
  193.5690  173.6420  136.6490 C   0  0  1  0  0  3  0  0  0  0  0  0
  194.0000  174.9830  136.9680 N   0  0  1  0  0  0  0  0  0  0  0  0
  191.2590  174.4640  136.7040 C   0  0  0  0  0  2  0  0  0  0  0  0
  192.2950  173.7420  135.8280 C   0  0  2  0  0  3  0  0  0  0  0  0
  191.8270  172.4660  135.5070 O   0  0  0  0  0  0  0  0  0  0  0  0
  190.4370  172.5890  135.5110 C   0  0  0  0  0  1  0  0  0  0  0  0
  185.9400  177.9640  138.5830 N   0  0  0  0  0  2  0  0  0  0  0  0
  183.6240  177.4460  138.6400 N   0  0  0  0  0  0  0  0  0  0  0  0
  183.0850  176.8530  136.4420 N   0  0  2  0  0  0  0  0  0  0  0  0
  184.5120  177.2020  136.5420 C   0  0  0  0  0  2  0  0  0  0  0  0
  184.7070  177.5640  137.9740 C   0  0  0  0  0  0  0  0  0  0  0  0
  182.6300  177.0270  137.7620 N   0  0  0  0  0  2  0  0  0  0  0  0
  182.2060  174.6770  137.2030 C   0  0  0  0  0  2  0  0  0  0  0  0
  184.3690  174.7970  135.9970 C   0  0  0  0  0  2  0  0  0  0  0  0
  182.0620  173.2700  136.8330 N   0  0  0  0  0  2  0  0  0  0  0  0
  184.2470  173.2990  135.7330 C   0  0  0  0  0  2  0  0  0  0  0  0
  182.9790  175.4290  136.1140 C   0  0  2  0  0  3  0  0  0  0  0  0
  183.3900  172.6570  136.8180 C   0  0  0  0  0  2  0  0  0  0  0  0
  188.1220  179.3090  140.0180 C   0  0  0  0  0  2  0  0  0  0  0  0
  187.1250  178.8630  140.8880 O   0  0  0  0  0  1  0  0  0  0  0  0
  192.5960  177.2500  139.8950 C   0  0  0  0  0  0  0  0  0  0  0  0
  193.7240  177.5290  140.2190 C   0  0  0  0  0  3  0  0  0  0  0  0
  189.9750  176.3730  141.5660 C   0  0  0  0  0  2  0  0  0  0  0  0
  189.3920  177.1610  142.7230 C   0  0  0  0  0  2  0  0  0  0  0  0
  188.3700  176.3120  143.4510 C   0  0  0  0  0  2  0  0  0  0  0  0
  186.2530  177.6750  143.9510 C   0  0  0  0  0  3  0  0  0  0  0  0
  187.1980  178.1780  146.5160 N   0  0  0  0  0  0  0  0  0  0  0  0
  189.2200  176.9880  146.2710 C   0  0  0  0  0  3  0  0  0  0  0  0
  187.5690  177.1640  144.3800 C   0  0  0  0  0  0  0  0  0  0  0  0
  189.0520  177.5580  147.6890 C   0  0  0  0  0  3  0  0  0  0  0  0
  185.5160  178.4630  144.7470 C   0  0  0  0  0  3  0  0  0  0  0  0
  187.8180  178.3620  147.7560 N   0  0  0  0  0  0  0  0  0  0  0  0
  186.0000  178.9120  146.1070 C   0  0  0  0  0  3  0  0  0  0  0  0
  187.9790  177.4260  145.6240 C   0  0  0  0  0  0  0  0  0  0  0  0
  1  3  1  6  0  0  0
  1  5  1  0  0  0  0
  1  6  1  0  0  0  0
  2 39  1  1  0  0  0
  4  3  1  0  0  0  0
  4  7  1  0  0  0  0
  5 10  2  0  0  0  0
  6  2  1  0  0  0  0
  7 23  1  0  0  0  0
  7  9  1  0  0  0  0
  8  3  2  0  0  0  0
  9  6  1  0  0  0  0
  9 35  1  0  0  0  0
 10 37  1  0  0  0  0
 10  2  1  0  0  0  0
 11  7  1  0  0  0  0
 12 13  1  0  0  0  0
 12  5  1  0  0  0  0
 14 17  1  0  0  0  0
 14 15  1  0  0  0  0
 15 16  1  0  0  0  0
 17 18  1  0  0  0  0
 18 16  1  0  0  0  0
 18 13  1  0  0  0  0
 19 12  1  0  0  0  0
 20 17  1  0  0  0  0
 20 19  1  0  0  0  0
 21 22  1  0  0  0  0
 21 20  1  0  0  0  0
 25 26  1  0  0  0  0
 25 28  1  0  0  0  0
 26 27  1  0  0  0  0
 27 23  1  0  0  0  0
 27 24  2  0  0  0  0
 28 24  1  0  0  0  0
 30 33  1  0  0  0  0
 31 29  1  0  0  0  0
 32 30  1  0  0  0  0
 32 34  1  0  0  0  0
 33 25  1  0  0  0  0
 33 29  1  0  0  0  0
 34 31  1  0  0  0  0
 35 36  1  0  0  0  0
 37 38  3  0  0  0  0
 39 40  1  0  0  0  0
 40 41  1  0  0  0  0
 41 45  1  0  0  0  0
 42 45  2  0  0  0  0
 42 47  1  0  0  0  0
 43 48  1  0  0  0  0
 44 46  1  0  0  0  0
 45 50  1  0  0  0  0
 46 48  2  0  0  0  0
 47 49  2  0  0  0  0
 49 43  1  0  0  0  0
 50 44  2  0  0  0  0
 50 43  1  0  0  0  0
M  END
>  <MODEL>
7

>  <REMARK>
 VINA RESULT:      -6.2      1.421      2.301
  Name = 
  10 active torsions:
  status: ('A' for Active; 'I' for Inactive)
    1  A    between atoms: C_1  and  C_44
    2  A    between atoms: C_3  and  C_46
    3  A    between atoms: C_4  and  C_27
    4  A    between atoms: N_5  and  C_29
    5  A    between atoms: C_9  and  C_26
    6  A    between atoms: C_12  and  C_27
    7  A    between atoms: C_12  and  C_31
    8  A    between atoms: N_18  and  C_41
    9  A    between atoms: C_20  and  C_31
   10  A    between atoms: O_33  and  C_49
                            x       y       z     vdW  Elec       q    Type
                         _______ _______ _______ _____ _____    ______ ____

>  <TORSDO>
F 10

$$$$
=
 OpenBabel10222419023D

 50 57  0  0  1  0  0  0  0  0999 V2000
  189.4150  175.9530  138.5250 C   0  0  1  0  0  3  0  0  0  0  0  0
  190.1840  177.0470  140.4320 C   0  0  2  0  0  3  0  0  0  0  0  0
  188.5940  176.1730  137.2770 C   0  0  0  0  0  0  0  0  0  0  0  0
  187.1990  176.6800  137.4100 C   0  0  0  0  0  2  0  0  0  0  0  0
  190.8710  176.2270  138.3840 C   0  0  0  0  0  0  0  0  0  0  0  0
  188.9450  176.7360  139.6970 N   0  0  1  0  0  0  0  0  0  0  0  0
  187.0660  177.8440  138.3950 C   0  0  1  0  0  0  0  0  0  0  0  0
  189.0080  175.8310  136.1810 O   0  0  0  0  0  0  0  0  0  0  0  0
  188.3330  178.0200  139.2800 C   0  0  1  0  0  3  0  0  0  0  0  0
  191.3020  176.8270  139.4770 C   0  0  0  0  0  0  0  0  0  0  0  0
  186.8850  179.0040  137.6390 O   0  0  0  0  0  1  0  0  0  0  0  0
  191.7240  175.7620  137.2380 C   0  0  1  0  0  3  0  0  0  0  0  0
  192.8300  176.7070  137.0080 N   0  0  0  0  0  2  0  0  0  0  0  0
  195.3190  174.8690  135.4140 O   0  0  0  0  0  0  0  0  0  0  0  0
  195.7240  176.1830  135.1090 C   0  0  0  0  0  2  0  0  0  0  0  0
  194.6250  177.1240  135.5800 C   0  0  0  0  0  2  0  0  0  0  0  0
  194.2720  175.0700  136.3170 C   0  0  1  0  0  3  0  0  0  0  0  0
  193.5370  176.2380  135.8890 N   0  0  1  0  0  0  0  0  0  0  0  0
  192.2410  174.3240  137.4710 C   0  0  0  0  0  2  0  0  0  0  0  0
  193.2920  173.9150  136.4280 C   0  0  2  0  0  3  0  0  0  0  0  0
  193.9530  172.7620  136.8570 O   0  0  0  0  0  0  0  0  0  0  0  0
  194.6450  173.1570  138.0020 C   0  0  0  0  0  1  0  0  0  0  0  0
  185.8730  177.5810  139.2050 N   0  0  0  0  0  2  0  0  0  0  0  0
  183.7350  178.1380  140.0730 N   0  0  0  0  0  0  0  0  0  0  0  0
  183.2320  180.2250  139.1420 N   0  0  2  0  0  0  0  0  0  0  0  0
  184.5510  179.7630  138.6770 C   0  0  0  0  0  2  0  0  0  0  0  0
  184.7410  178.4470  139.3490 C   0  0  0  0  0  0  0  0  0  0  0  0
  182.8120  179.1760  139.9790 N   0  0  0  0  0  2  0  0  0  0  0  0
  181.5420  181.5870  137.9690 C   0  0  0  0  0  2  0  0  0  0  0  0
  181.3200  179.1190  138.0490 C   0  0  0  0  0  2  0  0  0  0  0  0
  180.6860  181.6400  136.7860 N   0  0  0  0  0  2  0  0  0  0  0  0
  180.3340  179.2210  136.8890 C   0  0  0  0  0  2  0  0  0  0  0  0
  182.3270  180.2710  137.9910 C   0  0  2  0  0  3  0  0  0  0  0  0
  179.6710  180.5940  136.9020 C   0  0  0  0  0  2  0  0  0  0  0  0
  188.1260  178.9990  140.4480 C   0  0  0  0  0  2  0  0  0  0  0  0
  187.3030  178.4370  141.4260 O   0  0  0  0  0  1  0  0  0  0  0  0
  192.6660  177.2280  139.7240 C   0  0  0  0  0  0  0  0  0  0  0  0
  193.8060  177.5620  139.9330 C   0  0  0  0  0  3  0  0  0  0  0  0
  190.3080  176.1220  141.6360 C   0  0  0  0  0  2  0  0  0  0  0  0
  191.1770  176.7630  142.7000 C   0  0  0  0  0  2  0  0  0  0  0  0
  190.5090  178.0240  143.2090 C   0  0  0  0  0  2  0  0  0  0  0  0
  188.2330  177.8700  144.3880 C   0  0  0  0  0  3  0  0  0  0  0  0
  189.4940  176.8920  146.6640 N   0  0  0  0  0  0  0  0  0  0  0  0
  191.6820  176.9670  145.7850 C   0  0  0  0  0  3  0  0  0  0  0  0
  189.7010  177.7160  144.4270 C   0  0  0  0  0  0  0  0  0  0  0  0
  191.6490  176.3780  147.2050 C   0  0  0  0  0  3  0  0  0  0  0  0
  187.4770  177.6260  145.4670 C   0  0  0  0  0  3  0  0  0  0  0  0
  190.2730  176.4390  147.7330 N   0  0  0  0  0  0  0  0  0  0  0  0
  188.0750  177.2260  146.7970 C   0  0  0  0  0  3  0  0  0  0  0  0
  190.2620  177.2370  145.5400 C   0  0  0  0  0  0  0  0  0  0  0  0
  1  3  1  6  0  0  0
  1  6  1  0  0  0  0
  2 39  1  1  0  0  0
  3  4  1  0  0  0  0
  4  7  1  0  0  0  0
  5  1  1  0  0  0  0
  5 10  2  0  0  0  0
  6  2  1  0  0  0  0
  7 23  1  0  0  0  0
  7  9  1  0  0  0  0
  8  3  2  0  0  0  0
  9  6  1  0  0  0  0
  9 35  1  0  0  0  0
 10 37  1  0  0  0  0
 10  2  1  0  0  0  0
 11  7  1  0  0  0  0
 12 19  1  0  0  0  0
 12  5  1  0  0  0  0
 13 12  1  0  0  0  0
 14 17  1  0  0  0  0
 15 14  1  0  0  0  0
 15 16  1  0  0  0  0
 16 18  1  0  0  0  0
 17 20  1  0  0  0  0
 18 17  1  0  0  0  0
 18 13  1  0  0  0  0
 20 21  1  0  0  0  0
 20 19  1  0  0  0  0
 21 22  1  0  0  0  0
 23 27  1  0  0  0  0
 25 28  1  0  0  0  0
 26 25  1  0  0  0  0
 26 27  1  0  0  0  0
 27 24  2  0  0  0  0
 28 24  1  0  0  0  0
 29 33  1  0  0  0  0
 31 34  1  0  0  0  0
 31 29  1  0  0  0  0
 32 34  1  0  0  0  0
 32 30  1  0  0  0  0
 33 30  1  0  0  0  0
 33 25  1  0  0  0  0
 35 36  1  0  0  0  0
 37 38  3  0  0  0  0
 39 40  1  0  0  0  0
 40 41  1  0  0  0  0
 41 45  1  0  0  0  0
 42 45  2  0  0  0  0
 42 47  1  0  0  0  0
 43 49  1  0  0  0  0
 43 48  1  0  0  0  0
 44 46  1  0  0  0  0
 45 50  1  0  0  0  0
 46 48  2  0  0  0  0
 47 49  2  0  0  0  0
 50 44  2  0  0  0  0
 50 43  1  0  0  0  0
M  END
>  <MODEL>
8

>  <REMARK>
 VINA RESULT:      -6.1      2.383      3.521
  Name = 
  10 active torsions:
  status: ('A' for Active; 'I' for Inactive)
    1  A    between atoms: C_1  and  C_44
    2  A    between atoms: C_3  and  C_46
    3  A    between atoms: C_4  and  C_27
    4  A    between atoms: N_5  and  C_29
    5  A    between atoms: C_9  and  C_26
    6  A    between atoms: C_12  and  C_27
    7  A    between atoms: C_12  and  C_31
    8  A    between atoms: N_18  and  C_41
    9  A    between atoms: C_20  and  C_31
   10  A    between atoms: O_33  and  C_49
                            x       y       z     vdW  Elec       q    Type
                         _______ _______ _______ _____ _____    ______ ____

>  <TORSDO>
F 10

$$$$
=
 OpenBabel10222419023D

 50 57  0  0  1  0  0  0  0  0999 V2000
  186.9680  177.6220  139.1580 C   0  0  1  0  0  3  0  0  0  0  0  0
  185.2010  177.8440  137.6560 C   0  0  2  0  0  3  0  0  0  0  0  0
  188.3540  178.1440  139.4490 C   0  0  0  0  0  0  0  0  0  0  0  0
  189.3960  178.0570  138.3870 C   0  0  0  0  0  2  0  0  0  0  0  0
  185.8570  178.3700  139.8080 C   0  0  0  0  0  0  0  0  0  0  0  0
  186.6450  177.5530  137.7100 N   0  0  1  0  0  0  0  0  0  0  0  0
  188.8970  178.4960  137.0080 C   0  0  1  0  0  0  0  0  0  0  0  0
  188.6650  178.5190  140.5680 O   0  0  0  0  0  0  0  0  0  0  0  0
  187.3470  178.6130  136.9480 C   0  0  1  0  0  3  0  0  0  0  0  0
  184.8540  178.4730  138.9580 C   0  0  0  0  0  0  0  0  0  0  0  0
  189.4490  179.7530  136.7520 O   0  0  0  0  0  1  0  0  0  0  0  0
  185.8440  178.8080  141.2460 C   0  0  1  0  0  3  0  0  0  0  0  0
  184.4640  178.8360  141.7580 N   0  0  0  0  0  2  0  0  0  0  0  0
  184.7370  178.4850  145.2100 O   0  0  0  0  0  0  0  0  0  0  0  0
  183.4310  179.0020  145.0990 C   0  0  0  0  0  2  0  0  0  0  0  0
  183.2150  179.3950  143.6450 C   0  0  0  0  0  2  0  0  0  0  0  0
  185.0890  178.2480  143.8790 C   0  0  1  0  0  3  0  0  0  0  0  0
  184.5320  179.3120  143.0780 N   0  0  1  0  0  0  0  0  0  0  0  0
  186.7570  177.9110  142.1120 C   0  0  0  0  0  2  0  0  0  0  0  0
  186.5840  178.1950  143.6130 C   0  0  2  0  0  3  0  0  0  0  0  0
  187.1690  177.1670  144.3540 O   0  0  0  0  0  0  0  0  0  0  0  0
  187.9310  176.4540  143.4280 C   0  0  0  0  0  1  0  0  0  0  0  0
  189.4040  177.5190  136.0420 N   0  0  0  0  0  2  0  0  0  0  0  0
  190.0090  175.3250  135.3630 N   0  0  0  0  0  0  0  0  0  0  0  0
  189.5530  173.9740  137.2180 N   0  0  2  0  0  0  0  0  0  0  0  0
  189.2180  175.3770  137.5130 C   0  0  0  0  0  2  0  0  0  0  0  0
  189.5640  176.1130  136.2650 C   0  0  0  0  0  0  0  0  0  0  0  0
  190.0210  174.0390  135.8920 N   0  0  0  0  0  2  0  0  0  0  0  0
  188.2330  172.3000  135.9760 C   0  0  0  0  0  2  0  0  0  0  0  0
  187.0920  174.1170  137.2180 C   0  0  0  0  0  2  0  0  0  0  0  0
  187.0180  171.4880  136.0210 N   0  0  0  0  0  2  0  0  0  0  0  0
  185.8090  173.2950  137.1400 C   0  0  0  0  0  2  0  0  0  0  0  0
  188.3130  173.1930  137.2190 C   0  0  2  0  0  3  0  0  0  0  0  0
  185.8630  172.3780  135.9240 C   0  0  0  0  0  2  0  0  0  0  0  0
  186.8080  178.7890  135.5180 C   0  0  0  0  0  2  0  0  0  0  0  0
  186.6850  177.5540  134.8780 O   0  0  0  0  0  1  0  0  0  0  0  0
  183.5890  179.1100  139.2350 C   0  0  0  0  0  0  0  0  0  0  0  0
  182.5310  179.6410  139.4650 C   0  0  0  0  0  3  0  0  0  0  0  0
  184.4280  176.5470  137.4560 C   0  0  0  0  0  2  0  0  0  0  0  0
  183.5390  176.6520  136.2330 C   0  0  0  0  0  2  0  0  0  0  0  0
  182.0970  176.8180  136.6660 C   0  0  0  0  0  2  0  0  0  0  0  0
  181.8180  174.2880  136.3270 C   0  0  0  0  0  3  0  0  0  0  0  0
  180.3960  174.1390  138.7100 N   0  0  0  0  0  0  0  0  0  0  0  0
  180.5160  176.4410  139.2130 C   0  0  0  0  0  3  0  0  0  0  0  0
  181.5450  175.5050  137.1160 C   0  0  0  0  0  0  0  0  0  0  0  0
  179.8040  175.6440  140.3180 C   0  0  0  0  0  3  0  0  0  0  0  0
  181.3200  173.0970  136.6860 C   0  0  0  0  0  3  0  0  0  0  0  0
  179.6820  174.2320  139.9090 N   0  0  0  0  0  0  0  0  0  0  0  0
  180.4170  172.9290  137.8870 C   0  0  0  0  0  3  0  0  0  0  0  0
  180.8630  175.3840  138.2580 C   0  0  0  0  0  0  0  0  0  0  0  0
  1  3  1  6  0  0  0
  1  5  1  0  0  0  0
  2 39  1  1  0  0  0
  2  6  1  0  0  0  0
  2 10  1  0  0  0  0
  3  8  2  0  0  0  0
  4  3  1  0  0  0  0
  5 12  1  0  0  0  0
  6  1  1  0  0  0  0
  7  4  1  0  0  0  0
  9  7  1  0  0  0  0
  9  6  1  0  0  0  0
 10 37  1  0  0  0  0
 10  5  2  0  0  0  0
 11  7  1  0  0  0  0
 12 13  1  0  0  0  0
 12 19  1  0  0  0  0
 13 18  1  0  0  0  0
 15 14  1  0  0  0  0
 16 15  1  0  0  0  0
 17 14  1  0  0  0  0
 18 16  1  0  0  0  0
 18 17  1  0  0  0  0
 19 20  1  0  0  0  0
 20 17  1  0  0  0  0
 20 21  1  0  0  0  0
 22 21  1  0  0  0  0
 23 27  1  0  0  0  0
 23  7  1  0  0  0  0
 24 28  1  0  0  0  0
 24 27  2  0  0  0  0
 25 33  1  0  0  0  0
 25 26  1  0  0  0  0
 27 26  1  0  0  0  0
 28 25  1  0  0  0  0
 29 31  1  0  0  0  0
 29 33  1  0  0  0  0
 30 33  1  0  0  0  0
 32 30  1  0  0  0  0
 34 31  1  0  0  0  0
 34 32  1  0  0  0  0
 35  9  1  0  0  0  0
 36 35  1  0  0  0  0
 37 38  3  0  0  0  0
 40 41  1  0  0  0  0
 40 39  1  0  0  0  0
 41 45  1  0  0  0  0
 42 47  1  0  0  0  0
 42 45  2  0  0  0  0
 43 48  1  0  0  0  0
 44 46  1  0  0  0  0
 45 50  1  0  0  0  0
 47 49  2  0  0  0  0
 48 46  2  0  0  0  0
 49 43  1  0  0  0  0
 50 43  1  0  0  0  0
 50 44  2  0  0  0  0
M  END
>  <MODEL>
9

>  <REMARK>
 VINA RESULT:      -5.8      3.895      8.977
  Name = 
  10 active torsions:
  status: ('A' for Active; 'I' for Inactive)
    1  A    between atoms: C_1  and  C_44
    2  A    between atoms: C_3  and  C_46
    3  A    between atoms: C_4  and  C_27
    4  A    between atoms: N_5  and  C_29
    5  A    between atoms: C_9  and  C_26
    6  A    between atoms: C_12  and  C_27
    7  A    between atoms: C_12  and  C_31
    8  A    between atoms: N_18  and  C_41
    9  A    between atoms: C_20  and  C_31
   10  A    between atoms: O_33  and  C_49
                            x       y       z     vdW  Elec       q    Type
                         _______ _______ _______ _____ _____    ______ ____

>  <TORSDO>
F 10

$$$$
