=
 OpenBabel10222418123D

 45 49  0  0  1  0  0  0  0  0999 V2000
  182.3260  177.0620  139.4170 C   0  0  0  0  0  0  0  0  0  0  0  0
  181.3640  176.2040  139.8100 N   0  0  0  0  0  0  0  0  0  0  0  0
  182.8000  176.7890  138.1900 N   0  0  0  0  0  0  0  0  0  0  0  0
  182.8470  178.1350  140.1550 C   0  0  0  0  0  0  0  0  0  0  0  0
  184.3130  178.5940  138.3200 C   0  0  0  0  0  3  0  0  0  0  0  0
  183.8350  178.8750  139.5680 N   0  0  0  0  0  0  0  0  0  0  0  0
  182.1350  175.7140  137.7360 C   0  0  0  0  0  3  0  0  0  0  0  0
  183.7770  177.5220  137.5970 C   0  0  0  0  0  0  0  0  0  0  0  0
  181.2510  175.3670  138.7510 C   0  0  0  0  0  0  0  0  0  0  0  0
  180.3120  174.2410  138.7070 C   0  0  0  0  0  0  0  0  0  0  0  0
  179.6070  173.9680  139.7160 O   0  0  0  0  0  0  0  0  0  0  0  0
  180.2030  173.4590  137.5160 N   0  0  0  0  0  2  0  0  0  0  0  0
  179.0970  171.9860  135.9450 C   0  0  2  0  0  3  0  0  0  0  0  0
  179.9820  171.1530  136.7870 C   0  0  1  0  0  3  0  0  0  0  0  0
  179.2760  172.3440  137.4030 C   0  0  1  0  0  3  0  0  0  0  0  0
  179.1640  170.5870  135.7900 O   0  0  0  0  0  0  0  0  0  0  0  0
  182.3390  178.4880  141.5060 C   0  0  0  0  0  0  0  0  0  0  0  0
  181.1040  178.6720  141.6760 O   0  0  0  0  0  0  0  0  0  0  0  0
  183.2040  178.6390  142.6400 N   0  0  0  0  0  2  0  0  0  0  0  0
  184.5930  178.3150  142.6500 C   0  0  0  0  0  3  0  0  0  0  0  0
  187.3350  178.0150  147.3760 C   0  0  0  0  0  0  0  0  0  0  0  0
  187.9530  177.5780  146.1020 C   0  0  0  0  0  0  0  0  0  0  0  0
  185.2380  178.2450  143.7790 C   0  0  0  0  0  0  0  0  0  0  0  0
  184.0700  179.0440  146.1960 O   0  0  0  0  0  0  0  0  0  0  0  0
  185.2510  178.6030  146.1740 C   0  0  0  0  0  0  0  0  0  0  0  0
  187.8620  177.2590  143.7890 F   0  0  0  0  0  0  0  0  0  0  0  0
  185.8850  178.1740  144.9130 C   0  0  0  0  0  0  0  0  0  0  0  0
  187.2710  177.6560  144.9480 C   0  0  0  0  0  0  0  0  0  0  0  0
  185.9960  178.5140  147.3880 N   0  0  0  0  0  2  0  0  0  0  0  0
  187.9840  177.9510  148.4540 O   0  0  0  0  0  0  0  0  0  0  0  0
  189.3520  177.0540  146.1070 C   0  0  0  0  0  1  0  0  0  0  0  0
  184.3040  177.1820  136.2430 C   0  0  0  0  0  2  0  0  0  0  0  0
  185.6770  177.4220  136.1980 O   0  0  0  0  0  0  0  0  0  0  0  0
  186.2570  176.1800  136.4580 C   0  0  0  0  0  2  0  0  0  0  0  0
  187.3030  176.3140  137.5500 C   0  0  0  0  0  2  0  0  0  0  0  0
  188.3890  177.0620  137.0830 O   0  0  0  0  0  0  0  0  0  0  0  0
  188.6760  178.2400  138.2710 P   0  0  2  0  0  0  0  0  0  0  0  0
  187.4370  178.4190  139.1240 O   0  0  0  0  0  1  0  0  0  0  0  0
  189.0660  179.7110  137.5250 O   0  0  0  0  0  0  0  0  0  0  0  0
  189.9660  177.7280  139.2440 O   0  0  0  0  0  0  0  0  0  0  0  0
  189.3830  177.2790  140.4300 C   0  0  0  0  0  2  0  0  0  0  0  0
  192.1770  177.3610  141.0370 O   0  0  0  0  0  0  0  0  0  0  0  0
  190.4170  178.2530  142.7510 O   0  0  0  0  0  1  0  0  0  0  0  0
  190.6470  177.1670  141.7260 P   0  0  0  0  0  0  0  0  0  0  0  0
  190.5540  175.6540  142.4760 O   0  0  0  0  0  1  0  0  0  0  0  0
  1  2  2  0  0  0  0
  1  4  1  0  0  0  0
  3  1  1  0  0  0  0
  4 17  1  0  0  0  0
  5  6  1  0  0  0  0
  6  4  2  0  0  0  0
  7  3  1  0  0  0  0
  7  9  2  0  0  0  0
  8  3  1  0  0  0  0
  8  5  2  0  0  0  0
  9  2  1  0  0  0  0
 10  9  1  0  0  0  0
 10 11  2  0  0  0  0
 12 10  1  0  0  0  0
 13 16  1  1  0  0  0
 13 14  1  0  0  0  0
 13 15  1  0  0  0  0
 14 16  1  1  0  0  0
 14 15  1  0  0  0  0
 15 12  1  6  0  0  0
 17 18  2  0  0  0  0
 17 19  1  0  0  0  0
 19 20  1  0  0  0  0
 20 23  2  0  0  0  0
 21 29  1  0  0  0  0
 21 30  2  0  0  0  0
 22 31  1  0  0  0  0
 22 21  1  0  0  0  0
 23 27  2  0  0  0  0
 25 24  2  0  0  0  0
 25 29  1  0  0  0  0
 26 28  1  0  0  0  0
 27 28  1  0  0  0  0
 27 25  1  0  0  0  0
 28 22  2  0  0  0  0
 32  8  1  0  0  0  0
 33 32  1  0  0  0  0
 33 34  1  0  0  0  0
 34 35  1  0  0  0  0
 36 35  1  0  0  0  0
 36 37  1  0  0  0  0
 37 39  2  6  0  0  0
 37 38  1  0  0  0  0
 37 40  1  0  0  0  0
 40 41  1  0  0  0  0
 41 44  1  0  0  0  0
 42 44  2  0  0  0  0
 44 45  1  0  0  0  0
 44 43  1  0  0  0  0
M  END
>  <MODEL>
1

>  <REMARK>
 VINA RESULT:      -8.4      0.000      0.000
  Name = 
  13 active torsions:
  status: ('A' for Active; 'I' for Inactive)
    1  A    between atoms: C_1  and  O_22
    2  A    between atoms: C_1  and  C_41
    3  A    between atoms: C_2  and  N_37
    4  A    between atoms: C_6  and  O_16
    5  A    between atoms: C_6  and  P_36
    6  A    between atoms: O_8  and  C_9
    7  A    between atoms: O_8  and  P_12
    8  A    between atoms: C_9  and  C_19
    9  A    between atoms: C_10  and  C_42
   10  A    between atoms: P_12  and  O_16
   11  A    between atoms: N_13  and  C_30
   12  A    between atoms: C_19  and  O_22
   13  A    between atoms: C_21  and  C_26
                            x       y       z     vdW  Elec       q    Type
                         _______ _______ _______ _____ _____    ______ ____

>  <TORSDO>
F 13

$$$$
=
 OpenBabel10222418123D

 45 49  0  0  1  0  0  0  0  0999 V2000
  188.2630  178.1100  140.0120 C   0  0  0  0  0  0  0  0  0  0  0  0
  187.0230  178.6320  139.9280 N   0  0  0  0  0  0  0  0  0  0  0  0
  188.5520  177.6420  141.2370 N   0  0  0  0  0  0  0  0  0  0  0  0
  189.2160  178.0420  138.9840 C   0  0  0  0  0  0  0  0  0  0  0  0
  190.7130  177.0060  140.5380 C   0  0  0  0  0  3  0  0  0  0  0  0
  190.4240  177.4810  139.2900 N   0  0  0  0  0  0  0  0  0  0  0  0
  187.4720  177.8510  142.0080 C   0  0  0  0  0  3  0  0  0  0  0  0
  189.7460  177.0780  141.5480 C   0  0  0  0  0  0  0  0  0  0  0  0
  186.5370  178.4640  141.1810 C   0  0  0  0  0  0  0  0  0  0  0  0
  185.1940  178.8860  141.5910 C   0  0  0  0  0  0  0  0  0  0  0  0
  185.0540  179.7840  142.4650 O   0  0  0  0  0  0  0  0  0  0  0  0
  184.0480  178.2740  140.9940 N   0  0  0  0  0  2  0  0  0  0  0  0
  181.9860  179.1840  140.1100 C   0  0  2  0  0  3  0  0  0  0  0  0
  181.7020  177.8100  140.5780 C   0  0  1  0  0  3  0  0  0  0  0  0
  182.6910  178.6640  141.3430 C   0  0  1  0  0  3  0  0  0  0  0  0
  180.6920  178.6300  140.0390 O   0  0  0  0  0  0  0  0  0  0  0  0
  188.9340  178.5270  137.6080 C   0  0  0  0  0  0  0  0  0  0  0  0
  189.2120  179.7170  137.3010 O   0  0  0  0  0  0  0  0  0  0  0  0
  188.3430  177.6920  136.6020 N   0  0  0  0  0  2  0  0  0  0  0  0
  188.1150  176.2910  136.7410 C   0  0  0  0  0  3  0  0  0  0  0  0
  183.0370  174.3620  137.3980 C   0  0  0  0  0  0  0  0  0  0  0  0
  184.1790  173.4490  137.1660 C   0  0  0  0  0  0  0  0  0  0  0  0
  186.9030  175.8410  136.8960 C   0  0  0  0  0  0  0  0  0  0  0  0
  184.7330  177.5600  137.3110 O   0  0  0  0  0  0  0  0  0  0  0  0
  184.5580  176.3130  137.2710 C   0  0  0  0  0  0  0  0  0  0  0  0
  186.4570  173.0750  136.8030 F   0  0  0  0  0  0  0  0  0  0  0  0
  185.6860  175.3880  137.0510 C   0  0  0  0  0  0  0  0  0  0  0  0
  185.4210  173.9330  137.0050 C   0  0  0  0  0  0  0  0  0  0  0  0
  183.2460  175.7750  137.4420 N   0  0  0  0  0  2  0  0  0  0  0  0
  181.8750  173.9020  137.5590 O   0  0  0  0  0  0  0  0  0  0  0  0
  183.9420  171.9750  137.1180 C   0  0  0  0  0  1  0  0  0  0  0  0
  190.0520  176.5890  142.9240 C   0  0  0  0  0  2  0  0  0  0  0  0
  191.3760  176.8850  143.2470 O   0  0  0  0  0  0  0  0  0  0  0  0
  191.6500  176.0880  144.3590 C   0  0  0  0  0  2  0  0  0  0  0  0
  191.5070  176.9040  145.6310 C   0  0  0  0  0  2  0  0  0  0  0  0
  190.5300  176.3380  146.4550 O   0  0  0  0  0  0  0  0  0  0  0  0
  189.3700  177.5540  146.6910 P   0  0  2  0  0  0  0  0  0  0  0  0
  189.5440  178.6360  145.6450 O   0  0  0  0  0  0  0  0  0  0  0  0
  189.5590  178.2240  148.2350 O   0  0  0  0  0  1  0  0  0  0  0  0
  187.8260  176.8670  146.5460 O   0  0  0  0  0  0  0  0  0  0  0  0
  187.0560  177.4680  147.5440 C   0  0  0  0  0  2  0  0  0  0  0  0
  184.3250  178.1550  147.0460 O   0  0  0  0  0  1  0  0  0  0  0  0
  186.1160  180.0190  147.4340 O   0  0  0  0  0  1  0  0  0  0  0  0
  185.9160  178.6640  146.7970 P   0  0  0  0  0  0  0  0  0  0  0  0
  186.2200  178.7710  145.1360 O   0  0  0  0  0  0  0  0  0  0  0  0
  1  3  1  0  0  0  0
  2  1  2  0  0  0  0
  2  9  1  0  0  0  0
  3  8  1  0  0  0  0
  3  7  1  0  0  0  0
  4  6  2  0  0  0  0
  4  1  1  0  0  0  0
  5  8  2  0  0  0  0
  6  5  1  0  0  0  0
  8 32  1  0  0  0  0
  9 10  1  0  0  0  0
  9  7  2  0  0  0  0
 10 11  2  0  0  0  0
 12 10  1  0  0  0  0
 13 16  1  1  0  0  0
 13 14  1  0  0  0  0
 13 15  1  0  0  0  0
 14 16  1  1  0  0  0
 14 15  1  0  0  0  0
 15 12  1  6  0  0  0
 17  4  1  0  0  0  0
 18 17  2  0  0  0  0
 19 20  1  0  0  0  0
 19 17  1  0  0  0  0
 20 23  2  0  0  0  0
 21 29  1  0  0  0  0
 21 30  2  0  0  0  0
 22 21  1  0  0  0  0
 23 27  2  0  0  0  0
 25 24  2  0  0  0  0
 25 29  1  0  0  0  0
 26 28  1  0  0  0  0
 27 25  1  0  0  0  0
 28 27  1  0  0  0  0
 28 22  2  0  0  0  0
 31 22  1  0  0  0  0
 32 33  1  0  0  0  0
 33 34  1  0  0  0  0
 34 35  1  0  0  0  0
 35 36  1  0  0  0  0
 36 37  1  0  0  0  0
 37 38  2  6  0  0  0
 37 39  1  0  0  0  0
 40 37  1  0  0  0  0
 40 41  1  0  0  0  0
 44 42  1  0  0  0  0
 44 43  1  0  0  0  0
 44 41  1  0  0  0  0
 45 44  2  0  0  0  0
M  END
>  <MODEL>
2

>  <REMARK>
 VINA RESULT:      -8.3      3.162      8.483
  Name = 
  13 active torsions:
  status: ('A' for Active; 'I' for Inactive)
    1  A    between atoms: C_1  and  O_22
    2  A    between atoms: C_1  and  C_41
    3  A    between atoms: C_2  and  N_37
    4  A    between atoms: C_6  and  O_16
    5  A    between atoms: C_6  and  P_36
    6  A    between atoms: O_8  and  C_9
    7  A    between atoms: O_8  and  P_12
    8  A    between atoms: C_9  and  C_19
    9  A    between atoms: C_10  and  C_42
   10  A    between atoms: P_12  and  O_16
   11  A    between atoms: N_13  and  C_30
   12  A    between atoms: C_19  and  O_22
   13  A    between atoms: C_21  and  C_26
                            x       y       z     vdW  Elec       q    Type
                         _______ _______ _______ _____ _____    ______ ____

>  <TORSDO>
F 13

$$$$
=
 OpenBabel10222418123D

 45 49  0  0  1  0  0  0  0  0999 V2000
  190.4510  176.4000  138.4590 C   0  0  0  0  0  0  0  0  0  0  0  0
  191.3350  175.3910  138.3310 N   0  0  0  0  0  0  0  0  0  0  0  0
  189.5590  176.4440  137.4560 N   0  0  0  0  0  0  0  0  0  0  0  0
  190.4090  177.3550  139.4860 C   0  0  0  0  0  0  0  0  0  0  0  0
  188.5260  178.3460  138.3920 C   0  0  0  0  0  3  0  0  0  0  0  0
  189.4320  178.3060  139.4140 N   0  0  0  0  0  0  0  0  0  0  0  0
  189.8460  175.4300  136.6230 C   0  0  0  0  0  3  0  0  0  0  0  0
  188.5800  177.3810  137.3800 C   0  0  0  0  0  0  0  0  0  0  0  0
  190.9460  174.7900  137.1810 C   0  0  0  0  0  0  0  0  0  0  0  0
  191.6210  173.6170  136.6130 C   0  0  0  0  0  0  0  0  0  0  0  0
  190.9840  172.8200  135.8730 O   0  0  0  0  0  0  0  0  0  0  0  0
  193.0010  173.3850  136.9070 N   0  0  0  0  0  2  0  0  0  0  0  0
  194.6400  172.7320  135.2490 C   0  0  2  0  0  3  0  0  0  0  0  0
  195.2150  172.4460  136.5820 C   0  0  1  0  0  3  0  0  0  0  0  0
  193.7300  172.2530  136.3580 C   0  0  1  0  0  3  0  0  0  0  0  0
  195.9110  172.1420  135.3960 O   0  0  0  0  0  0  0  0  0  0  0  0
  191.3620  177.3330  140.6270 C   0  0  0  0  0  0  0  0  0  0  0  0
  192.6010  177.3770  140.4010 O   0  0  0  0  0  0  0  0  0  0  0  0
  190.9280  177.2550  141.9920 N   0  0  0  0  0  2  0  0  0  0  0  0
  189.5710  177.3540  142.4190 C   0  0  0  0  0  3  0  0  0  0  0  0
  188.3650  177.7730  147.7400 C   0  0  0  0  0  0  0  0  0  0  0  0
  187.3240  177.9540  146.7020 C   0  0  0  0  0  0  0  0  0  0  0  0
  189.2930  177.4540  143.6870 C   0  0  0  0  0  0  0  0  0  0  0  0
  191.2580  177.1390  145.6570 O   0  0  0  0  0  0  0  0  0  0  0  0
  190.0650  177.3830  145.9820 C   0  0  0  0  0  0  0  0  0  0  0  0
  186.6570  178.0090  144.4630 F   0  0  0  0  0  0  0  0  0  0  0  0
  189.0140  177.5560  144.9610 C   0  0  0  0  0  0  0  0  0  0  0  0
  187.6310  177.8490  145.3990 C   0  0  0  0  0  0  0  0  0  0  0  0
  189.7150  177.4960  147.3610 N   0  0  0  0  0  2  0  0  0  0  0  0
  188.0690  177.8600  148.9620 O   0  0  0  0  0  0  0  0  0  0  0  0
  185.9190  178.2480  147.1150 C   0  0  0  0  0  1  0  0  0  0  0  0
  187.6170  177.4240  136.2410 C   0  0  0  0  0  2  0  0  0  0  0  0
  186.5070  178.1910  136.5900 O   0  0  0  0  0  0  0  0  0  0  0  0
  185.5820  177.2660  137.0750 C   0  0  0  0  0  2  0  0  0  0  0  0
  184.3970  177.9900  137.6900 C   0  0  0  0  0  2  0  0  0  0  0  0
  184.1920  177.5460  138.9990 O   0  0  0  0  0  0  0  0  0  0  0  0
  184.4550  178.9000  139.9880 P   0  0  2  0  0  0  0  0  0  0  0  0
  184.2030  180.1680  139.1970 O   0  0  0  0  0  0  0  0  0  0  0  0
  186.0540  178.8900  140.5470 O   0  0  0  0  0  1  0  0  0  0  0  0
  183.3860  178.8290  141.3030 O   0  0  0  0  0  0  0  0  0  0  0  0
  182.1860  178.3430  140.7800 C   0  0  0  0  0  2  0  0  0  0  0  0
  181.3890  179.1990  143.3900 O   0  0  0  0  0  1  0  0  0  0  0  0
  180.1580  180.0920  141.2640 O   0  0  0  0  0  0  0  0  0  0  0  0
  180.8070  178.8560  141.8420 P   0  0  0  0  0  0  0  0  0  0  0  0
  179.6680  177.6090  141.9300 O   0  0  0  0  0  1  0  0  0  0  0  0
  1  4  1  0  0  0  0
  2  1  2  0  0  0  0
  3  1  1  0  0  0  0
  4 17  1  0  0  0  0
  5  6  1  0  0  0  0
  6  4  2  0  0  0  0
  7  9  2  0  0  0  0
  7  3  1  0  0  0  0
  8  3  1  0  0  0  0
  8  5  2  0  0  0  0
  9  2  1  0  0  0  0
 10 12  1  0  0  0  0
 10  9  1  0  0  0  0
 11 10  2  0  0  0  0
 13 16  1  6  0  0  0
 13 15  1  0  0  0  0
 13 14  1  0  0  0  0
 14 16  1  6  0  0  0
 15 14  1  0  0  0  0
 15 12  1  1  0  0  0
 17 19  1  0  0  0  0
 18 17  2  0  0  0  0
 19 20  1  0  0  0  0
 20 23  2  0  0  0  0
 21 30  2  0  0  0  0
 22 31  1  0  0  0  0
 22 21  1  0  0  0  0
 23 27  2  0  0  0  0
 24 25  2  0  0  0  0
 25 29  1  0  0  0  0
 26 28  1  0  0  0  0
 27 28  1  0  0  0  0
 27 25  1  0  0  0  0
 28 22  2  0  0  0  0
 29 21  1  0  0  0  0
 32 33  1  0  0  0  0
 32  8  1  0  0  0  0
 33 34  1  0  0  0  0
 34 35  1  0  0  0  0
 35 36  1  0  0  0  0
 36 37  1  0  0  0  0
 37 38  2  6  0  0  0
 37 39  1  0  0  0  0
 37 40  1  0  0  0  0
 41 40  1  0  0  0  0
 41 44  1  0  0  0  0
 43 44  2  0  0  0  0
 44 45  1  0  0  0  0
 44 42  1  0  0  0  0
M  END
>  <MODEL>
3

>  <REMARK>
 VINA RESULT:      -8.2      4.426      8.200
  Name = 
  13 active torsions:
  status: ('A' for Active; 'I' for Inactive)
    1  A    between atoms: C_1  and  O_22
    2  A    between atoms: C_1  and  C_41
    3  A    between atoms: C_2  and  N_37
    4  A    between atoms: C_6  and  O_16
    5  A    between atoms: C_6  and  P_36
    6  A    between atoms: O_8  and  C_9
    7  A    between atoms: O_8  and  P_12
    8  A    between atoms: C_9  and  C_19
    9  A    between atoms: C_10  and  C_42
   10  A    between atoms: P_12  and  O_16
   11  A    between atoms: N_13  and  C_30
   12  A    between atoms: C_19  and  O_22
   13  A    between atoms: C_21  and  C_26
                            x       y       z     vdW  Elec       q    Type
                         _______ _______ _______ _____ _____    ______ ____

>  <TORSDO>
F 13

$$$$
=
 OpenBabel10222418123D

 45 49  0  0  1  0  0  0  0  0999 V2000
  185.0120  178.6550  140.1320 C   0  0  0  0  0  0  0  0  0  0  0  0
  185.8640  178.5860  139.0890 N   0  0  0  0  0  0  0  0  0  0  0  0
  185.6200  178.4820  141.3160 N   0  0  0  0  0  0  0  0  0  0  0  0
  183.6260  178.8620  140.0710 C   0  0  0  0  0  0  0  0  0  0  0  0
  183.5690  178.7070  142.4580 C   0  0  0  0  0  3  0  0  0  0  0  0
  182.9450  178.8830  141.2550 N   0  0  0  0  0  0  0  0  0  0  0  0
  186.9270  178.2930  141.0690 C   0  0  0  0  0  3  0  0  0  0  0  0
  184.9540  178.5070  142.4980 C   0  0  0  0  0  0  0  0  0  0  0  0
  187.0580  178.3620  139.6870 C   0  0  0  0  0  0  0  0  0  0  0  0
  188.3160  178.2080  138.9470 C   0  0  0  0  0  0  0  0  0  0  0  0
  189.0550  179.2090  138.7450 O   0  0  0  0  0  0  0  0  0  0  0  0
  188.6950  176.9200  138.4580 N   0  0  0  0  0  2  0  0  0  0  0  0
  190.9800  176.1550  138.6880 C   0  0  2  0  0  3  0  0  0  0  0  0
  190.2910  175.2270  137.7650 C   0  0  1  0  0  3  0  0  0  0  0  0
  189.9380  176.6990  137.7370 C   0  0  1  0  0  3  0  0  0  0  0  0
  191.6550  175.0770  138.0810 O   0  0  0  0  0  0  0  0  0  0  0  0
  182.9120  179.0800  138.7850 C   0  0  0  0  0  0  0  0  0  0  0  0
  182.6370  180.2540  138.4210 O   0  0  0  0  0  0  0  0  0  0  0  0
  182.5110  177.9990  137.9330 N   0  0  0  0  0  2  0  0  0  0  0  0
  182.8810  176.6350  138.1230 C   0  0  0  0  0  3  0  0  0  0  0  0
  187.3240  174.5980  135.6620 C   0  0  0  0  0  0  0  0  0  0  0  0
  186.5900  173.8190  136.6850 C   0  0  0  0  0  0  0  0  0  0  0  0
  183.9400  176.1590  137.5340 C   0  0  0  0  0  0  0  0  0  0  0  0
  185.3490  177.6330  135.6160 O   0  0  0  0  0  0  0  0  0  0  0  0
  185.7300  176.4750  135.9340 C   0  0  0  0  0  0  0  0  0  0  0  0
  184.8370  173.5910  138.2140 F   0  0  0  0  0  0  0  0  0  0  0  0
  185.0040  175.6800  136.9440 C   0  0  0  0  0  0  0  0  0  0  0  0
  185.5010  174.3280  137.2840 C   0  0  0  0  0  0  0  0  0  0  0  0
  186.8830  175.9110  135.3090 N   0  0  0  0  0  2  0  0  0  0  0  0
  188.3380  174.1100  135.0950 O   0  0  0  0  0  0  0  0  0  0  0  0
  187.0660  172.4500  137.0460 C   0  0  0  0  0  1  0  0  0  0  0  0
  185.6490  178.2860  143.8000 C   0  0  0  0  0  2  0  0  0  0  0  0
  184.8170  178.6680  144.8510 O   0  0  0  0  0  0  0  0  0  0  0  0
  185.6890  178.9380  145.9060 C   0  0  0  0  0  2  0  0  0  0  0  0
  186.9330  178.0770  145.7850 C   0  0  0  0  0  2  0  0  0  0  0  0
  187.1950  177.4390  147.0010 O   0  0  0  0  0  0  0  0  0  0  0  0
  188.8750  177.5460  147.2210 P   0  0  2  0  0  0  0  0  0  0  0  0
  189.4400  176.1710  147.5140 O   0  0  0  0  0  0  0  0  0  0  0  0
  189.2110  178.5840  148.5160 O   0  0  0  0  0  1  0  0  0  0  0  0
  189.5710  178.1550  145.7990 O   0  0  0  0  0  0  0  0  0  0  0  0
  190.4720  177.1760  145.3760 C   0  0  0  0  0  2  0  0  0  0  0  0
  189.9010  178.4950  142.9040 O   0  0  0  0  0  0  0  0  0  0  0  0
  191.7810  176.6850  143.0420 O   0  0  0  0  0  1  0  0  0  0  0  0
  190.4080  177.0280  143.5700 P   0  0  0  0  0  0  0  0  0  0  0  0
  189.3170  175.8080  143.1420 O   0  0  0  0  0  1  0  0  0  0  0  0
  1  3  1  0  0  0  0
  2  9  1  0  0  0  0
  2  1  2  0  0  0  0
  3  8  1  0  0  0  0
  4  1  1  0  0  0  0
  4  6  2  0  0  0  0
  5  8  2  0  0  0  0
  6  5  1  0  0  0  0
  7  3  1  0  0  0  0
  8 32  1  0  0  0  0
  9  7  2  0  0  0  0
 10  9  1  0  0  0  0
 11 10  2  0  0  0  0
 12 10  1  0  0  0  0
 13 16  1  6  0  0  0
 14 16  1  6  0  0  0
 14 13  1  0  0  0  0
 15 14  1  0  0  0  0
 15 12  1  1  0  0  0
 15 13  1  0  0  0  0
 17  4  1  0  0  0  0
 18 17  2  0  0  0  0
 19 20  1  0  0  0  0
 19 17  1  0  0  0  0
 21 22  1  0  0  0  0
 22 31  1  0  0  0  0
 22 28  2  0  0  0  0
 23 20  2  0  0  0  0
 24 25  2  0  0  0  0
 25 27  1  0  0  0  0
 27 28  1  0  0  0  0
 27 23  2  0  0  0  0
 28 26  1  0  0  0  0
 29 21  1  0  0  0  0
 29 25  1  0  0  0  0
 30 21  2  0  0  0  0
 32 33  1  0  0  0  0
 33 34  1  0  0  0  0
 35 34  1  0  0  0  0
 35 36  1  0  0  0  0
 36 37  1  0  0  0  0
 37 38  2  1  0  0  0
 37 39  1  0  0  0  0
 40 37  1  0  0  0  0
 41 40  1  0  0  0  0
 42 44  2  0  0  0  0
 43 44  1  0  0  0  0
 44 41  1  0  0  0  0
 45 44  1  0  0  0  0
M  END
>  <MODEL>
4

>  <REMARK>
 VINA RESULT:      -8.2      3.377      8.303
  Name = 
  13 active torsions:
  status: ('A' for Active; 'I' for Inactive)
    1  A    between atoms: C_1  and  O_22
    2  A    between atoms: C_1  and  C_41
    3  A    between atoms: C_2  and  N_37
    4  A    between atoms: C_6  and  O_16
    5  A    between atoms: C_6  and  P_36
    6  A    between atoms: O_8  and  C_9
    7  A    between atoms: O_8  and  P_12
    8  A    between atoms: C_9  and  C_19
    9  A    between atoms: C_10  and  C_42
   10  A    between atoms: P_12  and  O_16
   11  A    between atoms: N_13  and  C_30
   12  A    between atoms: C_19  and  O_22
   13  A    between atoms: C_21  and  C_26
                            x       y       z     vdW  Elec       q    Type
                         _______ _______ _______ _____ _____    ______ ____

>  <TORSDO>
F 13

$$$$
=
 OpenBabel10222418123D

 45 49  0  0  1  0  0  0  0  0999 V2000
  183.1890  177.2850  139.5140 C   0  0  0  0  0  0  0  0  0  0  0  0
  182.1110  176.5200  139.7750 N   0  0  0  0  0  0  0  0  0  0  0  0
  183.7110  177.0550  138.2990 N   0  0  0  0  0  0  0  0  0  0  0  0
  183.7780  178.2270  140.3720 C   0  0  0  0  0  0  0  0  0  0  0  0
  185.4090  178.6500  138.6720 C   0  0  0  0  0  3  0  0  0  0  0  0
  184.8820  178.8860  139.9100 N   0  0  0  0  0  0  0  0  0  0  0  0
  182.9600  176.1070  137.7160 C   0  0  0  0  0  3  0  0  0  0  0  0
  184.8040  177.7100  137.8290 C   0  0  0  0  0  0  0  0  0  0  0  0
  181.9750  175.7900  138.6440 C   0  0  0  0  0  0  0  0  0  0  0  0
  180.9180  174.7910  138.4480 C   0  0  0  0  0  0  0  0  0  0  0  0
  180.0220  174.6400  139.3220 O   0  0  0  0  0  0  0  0  0  0  0  0
  180.9120  173.9930  137.2620 N   0  0  0  0  0  2  0  0  0  0  0  0
  180.3460  172.0710  135.9030 C   0  0  2  0  0  3  0  0  0  0  0  0
  180.4120  171.6170  137.3090 C   0  0  1  0  0  3  0  0  0  0  0  0
  179.8800  173.0020  137.0010 C   0  0  1  0  0  3  0  0  0  0  0  0
  180.0660  170.7380  136.2650 O   0  0  0  0  0  0  0  0  0  0  0  0
  183.2230  178.5300  141.7170 C   0  0  0  0  0  0  0  0  0  0  0  0
  181.9890  178.7510  141.8430 O   0  0  0  0  0  0  0  0  0  0  0  0
  184.0420  178.5920  142.8930 N   0  0  0  0  0  2  0  0  0  0  0  0
  185.4170  178.2170  142.9450 C   0  0  0  0  0  3  0  0  0  0  0  0
  188.0260  177.9130  147.7460 C   0  0  0  0  0  0  0  0  0  0  0  0
  188.6580  177.4280  146.4980 C   0  0  0  0  0  0  0  0  0  0  0  0
  186.0300  178.1470  144.0920 C   0  0  0  0  0  0  0  0  0  0  0  0
  184.8330  179.0390  146.4610 O   0  0  0  0  0  0  0  0  0  0  0  0
  185.9960  178.5530  146.4790 C   0  0  0  0  0  0  0  0  0  0  0  0
  188.6130  177.0640  144.1900 F   0  0  0  0  0  0  0  0  0  0  0  0
  186.6450  178.0740  145.2430 C   0  0  0  0  0  0  0  0  0  0  0  0
  188.0090  177.5060  145.3250 C   0  0  0  0  0  0  0  0  0  0  0  0
  186.7060  178.4620  147.7140 N   0  0  0  0  0  2  0  0  0  0  0  0
  188.6440  177.8470  148.8420 O   0  0  0  0  0  0  0  0  0  0  0  0
  190.0360  176.8520  146.5490 C   0  0  0  0  0  1  0  0  0  0  0  0
  185.3800  177.4180  136.4840 C   0  0  0  0  0  2  0  0  0  0  0  0
  186.0420  176.1910  136.5100 O   0  0  0  0  0  0  0  0  0  0  0  0
  186.3660  175.9410  135.1770 C   0  0  0  0  0  2  0  0  0  0  0  0
  187.4120  174.8440  135.0930 C   0  0  0  0  0  2  0  0  0  0  0  0
  187.8190  174.4720  136.3780 O   0  0  0  0  0  0  0  0  0  0  0  0
  189.4170  175.0260  136.5290 P   0  0  2  0  0  0  0  0  0  0  0  0
  190.0930  175.0140  135.1740 O   0  0  0  0  0  0  0  0  0  0  0  0
  190.2660  174.0180  137.5940 O   0  0  0  0  0  1  0  0  0  0  0  0
  189.3870  176.6100  137.1360 O   0  0  0  0  0  0  0  0  0  0  0  0
  188.6990  176.5320  138.3480 C   0  0  0  0  0  2  0  0  0  0  0  0
  189.0550  179.3530  138.6520 O   0  0  0  0  0  0  0  0  0  0  0  0
  188.4030  177.8660  140.7010 O   0  0  0  0  0  1  0  0  0  0  0  0
  189.2400  177.8720  139.4430 P   0  0  0  0  0  0  0  0  0  0  0  0
  190.8670  177.6480  139.8470 O   0  0  0  0  0  1  0  0  0  0  0  0
  1  2  2  0  0  0  0
  1  4  1  0  0  0  0
  3  1  1  0  0  0  0
  4 17  1  0  0  0  0
  5  6  1  0  0  0  0
  6  4  2  0  0  0  0
  7  3  1  0  0  0  0
  7  9  2  0  0  0  0
  8  3  1  0  0  0  0
  8  5  2  0  0  0  0
  9  2  1  0  0  0  0
 10  9  1  0  0  0  0
 10 11  2  0  0  0  0
 12 10  1  0  0  0  0
 13 16  1  6  0  0  0
 13 15  1  0  0  0  0
 13 14  1  0  0  0  0
 14 16  1  6  0  0  0
 15 12  1  1  0  0  0
 15 14  1  0  0  0  0
 17 18  2  0  0  0  0
 17 19  1  0  0  0  0
 19 20  1  0  0  0  0
 20 23  2  0  0  0  0
 21 30  2  0  0  0  0
 22 31  1  0  0  0  0
 22 21  1  0  0  0  0
 23 27  2  0  0  0  0
 24 25  2  0  0  0  0
 25 29  1  0  0  0  0
 26 28  1  0  0  0  0
 27 28  1  0  0  0  0
 27 25  1  0  0  0  0
 28 22  2  0  0  0  0
 29 21  1  0  0  0  0
 32 33  1  0  0  0  0
 32  8  1  0  0  0  0
 34 33  1  0  0  0  0
 35 34  1  0  0  0  0
 35 36  1  0  0  0  0
 36 37  1  0  0  0  0
 37 38  2  6  0  0  0
 37 40  1  0  0  0  0
 37 39  1  0  0  0  0
 40 41  1  0  0  0  0
 41 44  1  0  0  0  0
 42 44  2  0  0  0  0
 44 45  1  0  0  0  0
 44 43  1  0  0  0  0
M  END
>  <MODEL>
5

>  <REMARK>
 VINA RESULT:      -7.9      1.432      2.034
  Name = 
  13 active torsions:
  status: ('A' for Active; 'I' for Inactive)
    1  A    between atoms: C_1  and  O_22
    2  A    between atoms: C_1  and  C_41
    3  A    between atoms: C_2  and  N_37
    4  A    between atoms: C_6  and  O_16
    5  A    between atoms: C_6  and  P_36
    6  A    between atoms: O_8  and  C_9
    7  A    between atoms: O_8  and  P_12
    8  A    between atoms: C_9  and  C_19
    9  A    between atoms: C_10  and  C_42
   10  A    between atoms: P_12  and  O_16
   11  A    between atoms: N_13  and  C_30
   12  A    between atoms: C_19  and  O_22
   13  A    between atoms: C_21  and  C_26
                            x       y       z     vdW  Elec       q    Type
                         _______ _______ _______ _____ _____    ______ ____

>  <TORSDO>
F 13

$$$$
=
 OpenBabel10222418123D

 45 49  0  0  1  0  0  0  0  0999 V2000
  189.5220  177.7640  139.3730 C   0  0  0  0  0  0  0  0  0  0  0  0
  190.5630  177.4490  138.5780 N   0  0  0  0  0  0  0  0  0  0  0  0
  189.7940  177.6030  140.6780 N   0  0  0  0  0  0  0  0  0  0  0  0
  188.2530  178.2010  138.9630 C   0  0  0  0  0  0  0  0  0  0  0  0
  187.6140  178.2880  141.2680 C   0  0  0  0  0  3  0  0  0  0  0  0
  187.3330  178.4530  139.9410 N   0  0  0  0  0  0  0  0  0  0  0  0
  191.0610  177.1680  140.7700 C   0  0  0  0  0  3  0  0  0  0  0  0
  188.8880  177.8570  141.6570 C   0  0  0  0  0  0  0  0  0  0  0  0
  191.5200  177.0800  139.4610 C   0  0  0  0  0  0  0  0  0  0  0  0
  192.8620  176.6410  139.0630 C   0  0  0  0  0  0  0  0  0  0  0  0
  193.8740  177.0570  139.6900 O   0  0  0  0  0  0  0  0  0  0  0  0
  193.0130  175.7410  137.9620 N   0  0  0  0  0  2  0  0  0  0  0  0
  194.6850  174.0320  138.3440 C   0  0  2  0  0  3  0  0  0  0  0  0
  194.1740  173.8560  136.9660 C   0  0  1  0  0  3  0  0  0  0  0  0
  194.3140  175.2540  137.5330 C   0  0  1  0  0  3  0  0  0  0  0  0
  195.1930  173.0350  137.4870 O   0  0  0  0  0  0  0  0  0  0  0  0
  187.9130  178.4150  137.5310 C   0  0  0  0  0  0  0  0  0  0  0  0
  188.1820  179.5200  136.9890 O   0  0  0  0  0  0  0  0  0  0  0  0
  187.2780  177.4080  136.7310 N   0  0  0  0  0  2  0  0  0  0  0  0
  187.0520  176.0630  137.1470 C   0  0  0  0  0  3  0  0  0  0  0  0
  182.1580  173.7240  136.4240 C   0  0  0  0  0  0  0  0  0  0  0  0
  183.3270  172.9320  136.8700 C   0  0  0  0  0  0  0  0  0  0  0  0
  185.8850  175.5140  136.9700 C   0  0  0  0  0  0  0  0  0  0  0  0
  183.6740  176.9970  136.1030 O   0  0  0  0  0  0  0  0  0  0  0  0
  183.5610  175.7640  136.3370 C   0  0  0  0  0  0  0  0  0  0  0  0
  185.5820  172.7710  137.4650 F   0  0  0  0  0  0  0  0  0  0  0  0
  184.7130  174.9620  136.7920 C   0  0  0  0  0  0  0  0  0  0  0  0
  184.5240  173.5160  137.0440 C   0  0  0  0  0  0  0  0  0  0  0  0
  182.2980  175.1220  136.1610 N   0  0  0  0  0  2  0  0  0  0  0  0
  181.0350  173.1730  136.2730 O   0  0  0  0  0  0  0  0  0  0  0  0
  183.1660  171.4710  137.1360 C   0  0  0  0  0  1  0  0  0  0  0  0
  189.2060  177.6440  143.0990 C   0  0  0  0  0  2  0  0  0  0  0  0
  188.1030  177.0960  143.7510 O   0  0  0  0  0  0  0  0  0  0  0  0
  188.0610  177.7540  144.9800 C   0  0  0  0  0  2  0  0  0  0  0  0
  186.6350  178.1680  145.2990 C   0  0  0  0  0  2  0  0  0  0  0  0
  185.7960  177.8600  144.2240 O   0  0  0  0  0  0  0  0  0  0  0  0
  184.5440  179.0060  144.2790 P   0  0  2  0  0  0  0  0  0  0  0  0
  185.0990  180.3840  143.9820 O   0  0  0  0  0  0  0  0  0  0  0  0
  183.8390  179.0000  145.8190 O   0  0  0  0  0  1  0  0  0  0  0  0
  183.3830  178.5980  143.1120 O   0  0  0  0  0  0  0  0  0  0  0  0
  184.0910  177.9670  142.0870 C   0  0  0  0  0  2  0  0  0  0  0  0
  184.4350  179.7590  139.8840 O   0  0  0  0  0  1  0  0  0  0  0  0
  183.4650  177.3610  139.5090 O   0  0  0  0  0  0  0  0  0  0  0  0
  183.4560  178.5190  140.4800 P   0  0  0  0  0  0  0  0  0  0  0  0
  181.8740  179.0880  140.6630 O   0  0  0  0  0  1  0  0  0  0  0  0
  1  3  1  0  0  0  0
  2  1  2  0  0  0  0
  2  9  1  0  0  0  0
  3  7  1  0  0  0  0
  3  8  1  0  0  0  0
  4  1  1  0  0  0  0
  4  6  2  0  0  0  0
  5  8  2  0  0  0  0
  6  5  1  0  0  0  0
  8 32  1  0  0  0  0
  9  7  2  0  0  0  0
 10  9  1  0  0  0  0
 10 11  2  0  0  0  0
 12 10  1  0  0  0  0
 13 16  1  6  0  0  0
 14 16  1  6  0  0  0
 14 15  1  0  0  0  0
 14 13  1  0  0  0  0
 15 12  1  1  0  0  0
 15 13  1  0  0  0  0
 17  4  1  0  0  0  0
 18 17  2  0  0  0  0
 19 20  1  0  0  0  0
 19 17  1  0  0  0  0
 21 22  1  0  0  0  0
 22 28  2  0  0  0  0
 22 31  1  0  0  0  0
 23 20  2  0  0  0  0
 24 25  2  0  0  0  0
 25 27  1  0  0  0  0
 27 23  2  0  0  0  0
 27 28  1  0  0  0  0
 28 26  1  0  0  0  0
 29 25  1  0  0  0  0
 29 21  1  0  0  0  0
 30 21  2  0  0  0  0
 32 33  1  0  0  0  0
 33 34  1  0  0  0  0
 34 35  1  0  0  0  0
 36 37  1  0  0  0  0
 36 35  1  0  0  0  0
 37 38  2  6  0  0  0
 37 39  1  0  0  0  0
 40 37  1  0  0  0  0
 41 40  1  0  0  0  0
 42 44  1  0  0  0  0
 43 44  2  0  0  0  0
 44 45  1  0  0  0  0
 44 41  1  0  0  0  0
M  END
>  <MODEL>
6

>  <REMARK>
 VINA RESULT:      -7.9      3.964      9.907
  Name = 
  13 active torsions:
  status: ('A' for Active; 'I' for Inactive)
    1  A    between atoms: C_1  and  O_22
    2  A    between atoms: C_1  and  C_41
    3  A    between atoms: C_2  and  N_37
    4  A    between atoms: C_6  and  O_16
    5  A    between atoms: C_6  and  P_36
    6  A    between atoms: O_8  and  C_9
    7  A    between atoms: O_8  and  P_12
    8  A    between atoms: C_9  and  C_19
    9  A    between atoms: C_10  and  C_42
   10  A    between atoms: P_12  and  O_16
   11  A    between atoms: N_13  and  C_30
   12  A    between atoms: C_19  and  O_22
   13  A    between atoms: C_21  and  C_26
                            x       y       z     vdW  Elec       q    Type
                         _______ _______ _______ _____ _____    ______ ____

>  <TORSDO>
F 13

$$$$
=
 OpenBabel10222418123D

 45 49  0  0  1  0  0  0  0  0999 V2000
  188.7770  177.9280  139.4250 C   0  0  0  0  0  0  0  0  0  0  0  0
  187.5120  178.3930  139.4450 N   0  0  0  0  0  0  0  0  0  0  0  0
  189.3050  177.7970  140.6520 N   0  0  0  0  0  0  0  0  0  0  0  0
  189.5370  177.6110  138.2890 C   0  0  0  0  0  0  0  0  0  0  0  0
  191.3450  177.0330  139.7460 C   0  0  0  0  0  3  0  0  0  0  0  0
  190.8120  177.1660  138.4950 N   0  0  0  0  0  0  0  0  0  0  0  0
  188.3670  178.1810  141.5330 C   0  0  0  0  0  3  0  0  0  0  0  0
  190.5690  177.3500  140.8670 C   0  0  0  0  0  0  0  0  0  0  0  0
  187.2650  178.5460  140.7680 C   0  0  0  0  0  0  0  0  0  0  0  0
  185.9910  179.0400  141.3010 C   0  0  0  0  0  0  0  0  0  0  0  0
  185.2350  179.7440  140.5790 O   0  0  0  0  0  0  0  0  0  0  0  0
  185.6140  178.7180  142.6420 N   0  0  0  0  0  2  0  0  0  0  0  0
  183.9930  178.2610  144.3800 C   0  0  2  0  0  3  0  0  0  0  0  0
  184.5770  179.5920  144.6560 C   0  0  1  0  0  3  0  0  0  0  0  0
  184.3560  179.1610  143.2200 C   0  0  1  0  0  3  0  0  0  0  0  0
  183.5670  179.0450  145.4700 O   0  0  0  0  0  0  0  0  0  0  0  0
  188.9870  177.7200  136.9120 C   0  0  0  0  0  0  0  0  0  0  0  0
  189.3810  178.6510  136.1590 O   0  0  0  0  0  0  0  0  0  0  0  0
  188.0090  176.8060  136.3970 N   0  0  0  0  0  2  0  0  0  0  0  0
  187.5800  175.6180  137.0610 C   0  0  0  0  0  3  0  0  0  0  0  0
  182.7870  173.3080  135.7820 C   0  0  0  0  0  0  0  0  0  0  0  0
  183.7530  172.6250  136.6720 C   0  0  0  0  0  0  0  0  0  0  0  0
  186.4380  175.0750  136.7500 C   0  0  0  0  0  0  0  0  0  0  0  0
  184.6140  176.3470  135.0480 O   0  0  0  0  0  0  0  0  0  0  0  0
  184.3450  175.2180  135.5400 C   0  0  0  0  0  0  0  0  0  0  0  0
  185.7960  172.5590  137.8060 F   0  0  0  0  0  0  0  0  0  0  0  0
  185.2920  174.5280  136.4370 C   0  0  0  0  0  0  0  0  0  0  0  0
  184.9270  173.2010  136.9790 C   0  0  0  0  0  0  0  0  0  0  0  0
  183.1020  174.5890  135.2300 N   0  0  0  0  0  2  0  0  0  0  0  0
  181.6820  172.7690  135.5070 O   0  0  0  0  0  0  0  0  0  0  0  0
  183.4110  171.2850  137.2370 C   0  0  0  0  0  1  0  0  0  0  0  0
  191.1420  177.2370  142.2400 C   0  0  0  0  0  2  0  0  0  0  0  0
  190.8800  175.9700  142.7590 O   0  0  0  0  0  0  0  0  0  0  0  0
  190.4840  176.2070  144.0760 C   0  0  0  0  0  2  0  0  0  0  0  0
  191.6920  176.1720  144.9950 C   0  0  0  0  0  2  0  0  0  0  0  0
  191.7050  177.3070  145.8110 O   0  0  0  0  0  0  0  0  0  0  0  0
  191.3030  176.7570  147.3660 P   0  0  2  0  0  0  0  0  0  0  0  0
  192.4160  177.1010  148.3340 O   0  0  0  0  0  1  0  0  0  0  0  0
  191.0830  175.0770  147.3320 O   0  0  0  0  0  0  0  0  0  0  0  0
  189.8680  177.5160  147.8570 O   0  0  0  0  0  0  0  0  0  0  0  0
  188.8360  176.7230  147.3530 C   0  0  0  0  0  2  0  0  0  0  0  0
  186.9380  178.8600  147.2670 O   0  0  0  0  0  1  0  0  0  0  0  0
  188.5740  178.4540  145.2700 O   0  0  0  0  0  0  0  0  0  0  0  0
  187.7490  177.7310  146.3080 P   0  0  0  0  0  0  0  0  0  0  0  0
  186.6220  176.7320  145.5380 O   0  0  0  0  0  1  0  0  0  0  0  0
  1  2  2  0  0  0  0
  1  3  1  0  0  0  0
  2  9  1  0  0  0  0
  3  8  1  0  0  0  0
  3  7  1  0  0  0  0
  4  6  2  0  0  0  0
  4  1  1  0  0  0  0
  5  8  2  0  0  0  0
  6  5  1  0  0  0  0
  8 32  1  0  0  0  0
  9 10  1  0  0  0  0
  9  7  2  0  0  0  0
 10 12  1  0  0  0  0
 11 10  2  0  0  0  0
 13 14  1  0  0  0  0
 13 16  1  1  0  0  0
 14 16  1  1  0  0  0
 15 12  1  6  0  0  0
 15 13  1  0  0  0  0
 15 14  1  0  0  0  0
 17  4  1  0  0  0  0
 18 17  2  0  0  0  0
 19 17  1  0  0  0  0
 19 20  1  0  0  0  0
 21 22  1  0  0  0  0
 22 28  2  0  0  0  0
 22 31  1  0  0  0  0
 23 20  2  0  0  0  0
 24 25  2  0  0  0  0
 25 27  1  0  0  0  0
 27 23  2  0  0  0  0
 27 28  1  0  0  0  0
 28 26  1  0  0  0  0
 29 25  1  0  0  0  0
 29 21  1  0  0  0  0
 30 21  2  0  0  0  0
 32 33  1  0  0  0  0
 33 34  1  0  0  0  0
 34 35  1  0  0  0  0
 35 36  1  0  0  0  0
 36 37  1  0  0  0  0
 37 39  2  6  0  0  0
 37 40  1  0  0  0  0
 37 38  1  0  0  0  0
 41 40  1  0  0  0  0
 43 44  2  0  0  0  0
 44 42  1  0  0  0  0
 44 41  1  0  0  0  0
 45 44  1  0  0  0  0
M  END
>  <MODEL>
7

>  <REMARK>
 VINA RESULT:      -7.8      3.457      9.327
  Name = 
  13 active torsions:
  status: ('A' for Active; 'I' for Inactive)
    1  A    between atoms: C_1  and  O_22
    2  A    between atoms: C_1  and  C_41
    3  A    between atoms: C_2  and  N_37
    4  A    between atoms: C_6  and  O_16
    5  A    between atoms: C_6  and  P_36
    6  A    between atoms: O_8  and  C_9
    7  A    between atoms: O_8  and  P_12
    8  A    between atoms: C_9  and  C_19
    9  A    between atoms: C_10  and  C_42
   10  A    between atoms: P_12  and  O_16
   11  A    between atoms: N_13  and  C_30
   12  A    between atoms: C_19  and  O_22
   13  A    between atoms: C_21  and  C_26
                            x       y       z     vdW  Elec       q    Type
                         _______ _______ _______ _____ _____    ______ ____

>  <TORSDO>
F 13

$$$$
=
 OpenBabel10222418123D

 45 49  0  0  1  0  0  0  0  0999 V2000
  190.0250  177.4390  138.7530 C   0  0  0  0  0  0  0  0  0  0  0  0
  190.6350  177.0980  137.6010 N   0  0  0  0  0  0  0  0  0  0  0  0
  190.5500  176.8240  139.8240 N   0  0  0  0  0  0  0  0  0  0  0  0
  188.9410  178.3180  138.9010 C   0  0  0  0  0  0  0  0  0  0  0  0
  189.0030  177.8850  141.2540 C   0  0  0  0  0  3  0  0  0  0  0  0
  188.4650  178.5130  140.1670 N   0  0  0  0  0  0  0  0  0  0  0  0
  191.5510  176.0430  139.3840 C   0  0  0  0  0  3  0  0  0  0  0  0
  190.0870  177.0150  141.0860 C   0  0  0  0  0  0  0  0  0  0  0  0
  191.5880  176.2270  138.0070 C   0  0  0  0  0  0  0  0  0  0  0  0
  192.5250  175.5680  137.0910 C   0  0  0  0  0  0  0  0  0  0  0  0
  192.6730  176.0050  135.9180 O   0  0  0  0  0  0  0  0  0  0  0  0
  193.2670  174.4300  137.5370 N   0  0  0  0  0  2  0  0  0  0  0  0
  195.5400  174.4970  136.7040 C   0  0  2  0  0  3  0  0  0  0  0  0
  195.3980  173.2680  137.5140 C   0  0  1  0  0  3  0  0  0  0  0  0
  194.2260  173.7470  136.6830 C   0  0  1  0  0  3  0  0  0  0  0  0
  196.6020  173.5840  136.8540 O   0  0  0  0  0  0  0  0  0  0  0  0
  188.3420  179.0390  137.7480 C   0  0  0  0  0  0  0  0  0  0  0  0
  188.9780  179.9830  137.2090 O   0  0  0  0  0  0  0  0  0  0  0  0
  187.0500  178.7080  137.2190 N   0  0  0  0  0  2  0  0  0  0  0  0
  186.2770  177.5760  137.6120 C   0  0  0  0  0  3  0  0  0  0  0  0
  181.4380  178.2440  140.0770 C   0  0  0  0  0  0  0  0  0  0  0  0
  181.8900  176.9070  139.6270 C   0  0  0  0  0  0  0  0  0  0  0  0
  185.1270  177.7440  138.1970 C   0  0  0  0  0  0  0  0  0  0  0  0
  184.2510  180.2700  139.0300 O   0  0  0  0  0  0  0  0  0  0  0  0
  183.5300  179.2530  139.2170 C   0  0  0  0  0  0  0  0  0  0  0  0
  183.4800  175.5160  138.6260 F   0  0  0  0  0  0  0  0  0  0  0  0
  183.9700  177.9120  138.7840 C   0  0  0  0  0  0  0  0  0  0  0  0
  183.0800  176.7550  139.0230 C   0  0  0  0  0  0  0  0  0  0  0  0
  182.2630  179.3910  139.8600 N   0  0  0  0  0  2  0  0  0  0  0  0
  180.3260  178.3800  140.6540 O   0  0  0  0  0  0  0  0  0  0  0  0
  181.0140  175.7200  139.8570 C   0  0  0  0  0  1  0  0  0  0  0  0
  190.6720  176.2990  142.2570 C   0  0  0  0  0  2  0  0  0  0  0  0
  191.2590  177.2160  143.1270 O   0  0  0  0  0  0  0  0  0  0  0  0
  191.0780  176.6610  144.3940 C   0  0  0  0  0  2  0  0  0  0  0  0
  190.4860  177.6950  145.3350 C   0  0  0  0  0  2  0  0  0  0  0  0
  189.4480  178.3840  144.6980 O   0  0  0  0  0  0  0  0  0  0  0  0
  188.0280  177.5480  145.1040 P   0  0  2  0  0  0  0  0  0  0  0  0
  188.1400  177.0030  146.5130 O   0  0  0  0  0  1  0  0  0  0  0  0
  187.7950  176.2680  144.0180 O   0  0  0  0  0  0  0  0  0  0  0  0
  186.7200  178.6240  145.0140 O   0  0  0  0  0  0  0  0  0  0  0  0
  185.6610  177.8800  144.4920 C   0  0  0  0  0  2  0  0  0  0  0  0
  185.9260  179.5400  142.1770 O   0  0  0  0  0  0  0  0  0  0  0  0
  183.8630  177.9590  142.4510 O   0  0  0  0  0  1  0  0  0  0  0  0
  184.7960  178.8550  143.2300 P   0  0  0  0  0  0  0  0  0  0  0  0
  183.9060  180.0840  143.9770 O   0  0  0  0  0  1  0  0  0  0  0  0
  1  4  1  0  0  0  0
  1  3  1  0  0  0  0
  2  9  1  0  0  0  0
  2  1  2  0  0  0  0
  3  8  1  0  0  0  0
  4  6  2  0  0  0  0
  6  5  1  0  0  0  0
  7  3  1  0  0  0  0
  8  5  2  0  0  0  0
  8 32  1  0  0  0  0
  9  7  2  0  0  0  0
 10 12  1  0  0  0  0
 10  9  1  0  0  0  0
 11 10  2  0  0  0  0
 13 16  1  6  0  0  0
 13 14  1  0  0  0  0
 14 16  1  6  0  0  0
 15 13  1  0  0  0  0
 15 14  1  0  0  0  0
 15 12  1  1  0  0  0
 17  4  1  0  0  0  0
 18 17  2  0  0  0  0
 19 20  1  0  0  0  0
 19 17  1  0  0  0  0
 20 23  2  0  0  0  0
 21 30  2  0  0  0  0
 22 31  1  0  0  0  0
 22 21  1  0  0  0  0
 23 27  2  0  0  0  0
 24 25  2  0  0  0  0
 25 29  1  0  0  0  0
 26 28  1  0  0  0  0
 27 28  1  0  0  0  0
 27 25  1  0  0  0  0
 28 22  2  0  0  0  0
 29 21  1  0  0  0  0
 32 33  1  0  0  0  0
 33 34  1  0  0  0  0
 34 35  1  0  0  0  0
 36 37  1  0  0  0  0
 36 35  1  0  0  0  0
 37 39  2  6  0  0  0
 37 38  1  0  0  0  0
 40 37  1  0  0  0  0
 41 40  1  0  0  0  0
 42 44  2  0  0  0  0
 43 44  1  0  0  0  0
 44 45  1  0  0  0  0
 44 41  1  0  0  0  0
M  END
>  <MODEL>
8

>  <REMARK>
 VINA RESULT:      -7.8      4.124      9.302
  Name = 
  13 active torsions:
  status: ('A' for Active; 'I' for Inactive)
    1  A    between atoms: C_1  and  O_22
    2  A    between atoms: C_1  and  C_41
    3  A    between atoms: C_2  and  N_37
    4  A    between atoms: C_6  and  O_16
    5  A    between atoms: C_6  and  P_36
    6  A    between atoms: O_8  and  C_9
    7  A    between atoms: O_8  and  P_12
    8  A    between atoms: C_9  and  C_19
    9  A    between atoms: C_10  and  C_42
   10  A    between atoms: P_12  and  O_16
   11  A    between atoms: N_13  and  C_30
   12  A    between atoms: C_19  and  O_22
   13  A    between atoms: C_21  and  C_26
                            x       y       z     vdW  Elec       q    Type
                         _______ _______ _______ _____ _____    ______ ____

>  <TORSDO>
F 13

$$$$
=
 OpenBabel10222418123D

 45 49  0  0  1  0  0  0  0  0999 V2000
  190.8220  176.4140  138.4590 C   0  0  0  0  0  0  0  0  0  0  0  0
  191.7780  175.4650  138.4130 N   0  0  0  0  0  0  0  0  0  0  0  0
  190.0070  176.3880  137.3930 N   0  0  0  0  0  0  0  0  0  0  0  0
  190.6420  177.3760  139.4660 C   0  0  0  0  0  0  0  0  0  0  0  0
  188.7840  178.2280  138.2210 C   0  0  0  0  0  3  0  0  0  0  0  0
  189.6120  178.2590  139.3070 N   0  0  0  0  0  0  0  0  0  0  0  0
  190.4210  175.3870  136.5990 C   0  0  0  0  0  3  0  0  0  0  0  0
  188.9770  177.2580  137.2300 C   0  0  0  0  0  0  0  0  0  0  0  0
  191.5170  174.8280  137.2470 C   0  0  0  0  0  0  0  0  0  0  0  0
  192.3070  173.6970  136.7490 C   0  0  0  0  0  0  0  0  0  0  0  0
  191.8160  172.9110  135.8940 O   0  0  0  0  0  0  0  0  0  0  0  0
  193.6340  173.4920  137.2400 N   0  0  0  0  0  2  0  0  0  0  0  0
  195.7120  172.9700  136.1120 C   0  0  2  0  0  3  0  0  0  0  0  0
  195.8070  172.4380  137.4890 C   0  0  1  0  0  3  0  0  0  0  0  0
  194.4740  172.4020  136.7700 C   0  0  1  0  0  3  0  0  0  0  0  0
  196.8480  172.2650  136.5570 O   0  0  0  0  0  0  0  0  0  0  0  0
  191.5050  177.4290  140.6740 C   0  0  0  0  0  0  0  0  0  0  0  0
  192.7560  177.5030  140.5400 O   0  0  0  0  0  0  0  0  0  0  0  0
  190.9720  177.3910  142.0050 N   0  0  0  0  0  2  0  0  0  0  0  0
  189.5840  177.4640  142.3260 C   0  0  0  0  0  3  0  0  0  0  0  0
  187.9600  177.7880  147.5410 C   0  0  0  0  0  0  0  0  0  0  0  0
  187.0000  177.9680  146.4270 C   0  0  0  0  0  0  0  0  0  0  0  0
  189.2070  177.5410  143.5700 C   0  0  0  0  0  0  0  0  0  0  0  0
  191.0170  177.2270  145.6830 O   0  0  0  0  0  0  0  0  0  0  0  0
  189.7980  177.4490  145.9160 C   0  0  0  0  0  0  0  0  0  0  0  0
  186.5100  178.0460  144.1440 F   0  0  0  0  0  0  0  0  0  0  0  0
  188.8270  177.6200  144.8190 C   0  0  0  0  0  0  0  0  0  0  0  0
  187.4100  177.8870  145.1510 C   0  0  0  0  0  0  0  0  0  0  0  0
  189.3400  177.5360  147.2650 N   0  0  0  0  0  2  0  0  0  0  0  0
  187.5680  177.8530  148.7370 O   0  0  0  0  0  0  0  0  0  0  0  0
  185.5630  178.2340  146.7330 C   0  0  0  0  0  1  0  0  0  0  0  0
  188.1010  177.2250  136.0230 C   0  0  0  0  0  2  0  0  0  0  0  0
  186.8060  176.8630  136.3890 O   0  0  0  0  0  0  0  0  0  0  0  0
  186.6370  175.5840  135.8580 C   0  0  0  0  0  2  0  0  0  0  0  0
  185.2030  175.1250  136.0550 C   0  0  0  0  0  2  0  0  0  0  0  0
  184.3560  176.2320  136.1580 O   0  0  0  0  0  0  0  0  0  0  0  0
  183.2030  175.8180  137.3340 P   0  0  2  0  0  0  0  0  0  0  0  0
  183.3270  174.3470  137.6760 O   0  0  0  0  0  1  0  0  0  0  0  0
  181.6490  176.1310  136.7370 O   0  0  0  0  0  0  0  0  0  0  0  0
  183.4850  176.7490  138.7230 O   0  0  0  0  0  0  0  0  0  0  0  0
  184.3330  177.7810  138.3140 C   0  0  0  0  0  2  0  0  0  0  0  0
  186.0530  178.9820  140.2570 O   0  0  0  0  0  1  0  0  0  0  0  0
  184.1800  180.3840  139.0920 O   0  0  0  0  0  0  0  0  0  0  0  0
  184.4810  179.0090  139.6400 P   0  0  0  0  0  0  0  0  0  0  0  0
  183.3850  178.6420  140.8750 O   0  0  0  0  0  1  0  0  0  0  0  0
  1  4  1  0  0  0  0
  2  1  2  0  0  0  0
  3  1  1  0  0  0  0
  4 17  1  0  0  0  0
  5  6  1  0  0  0  0
  6  4  2  0  0  0  0
  7  9  2  0  0  0  0
  7  3  1  0  0  0  0
  8  3  1  0  0  0  0
  8  5  2  0  0  0  0
  9  2  1  0  0  0  0
 10 12  1  0  0  0  0
 10  9  1  0  0  0  0
 11 10  2  0  0  0  0
 13 16  1  6  0  0  0
 13 15  1  0  0  0  0
 13 14  1  0  0  0  0
 14 16  1  6  0  0  0
 15 12  1  1  0  0  0
 15 14  1  0  0  0  0
 17 19  1  0  0  0  0
 18 17  2  0  0  0  0
 19 20  1  0  0  0  0
 20 23  2  0  0  0  0
 21 30  2  0  0  0  0
 22 31  1  0  0  0  0
 22 21  1  0  0  0  0
 23 27  2  0  0  0  0
 24 25  2  0  0  0  0
 25 29  1  0  0  0  0
 26 28  1  0  0  0  0
 27 28  1  0  0  0  0
 27 25  1  0  0  0  0
 28 22  2  0  0  0  0
 29 21  1  0  0  0  0
 32 33  1  0  0  0  0
 32  8  1  0  0  0  0
 34 35  1  0  0  0  0
 34 33  1  0  0  0  0
 35 36  1  0  0  0  0
 36 37  1  0  0  0  0
 37 39  2  6  0  0  0
 37 38  1  0  0  0  0
 37 40  1  0  0  0  0
 41 40  1  0  0  0  0
 41 44  1  0  0  0  0
 43 44  2  0  0  0  0
 44 42  1  0  0  0  0
 44 45  1  0  0  0  0
M  END
>  <MODEL>
9

>  <REMARK>
 VINA RESULT:      -7.7      4.527      8.214
  Name = 
  13 active torsions:
  status: ('A' for Active; 'I' for Inactive)
    1  A    between atoms: C_1  and  O_22
    2  A    between atoms: C_1  and  C_41
    3  A    between atoms: C_2  and  N_37
    4  A    between atoms: C_6  and  O_16
    5  A    between atoms: C_6  and  P_36
    6  A    between atoms: O_8  and  C_9
    7  A    between atoms: O_8  and  P_12
    8  A    between atoms: C_9  and  C_19
    9  A    between atoms: C_10  and  C_42
   10  A    between atoms: P_12  and  O_16
   11  A    between atoms: N_13  and  C_30
   12  A    between atoms: C_19  and  O_22
   13  A    between atoms: C_21  and  C_26
                            x       y       z     vdW  Elec       q    Type
                         _______ _______ _______ _____ _____    ______ ____

>  <TORSDO>
F 13

$$$$
