=
 OpenBabel10222416073D

 61 66  0  0  1  0  0  0  0  0999 V2000
  190.7990  175.3130  137.7980 C   0  0  0  0  0  2  0  0  0  0  0  0
  187.9480  175.6390  134.6040 C   0  0  1  0  0  3  0  0  0  0  0  0
  189.4000  178.2800  139.6740 C   0  0  1  0  0  3  0  0  0  0  0  0
  187.4380  176.8660  138.9310 C   0  0  0  0  0  2  0  0  0  0  0  0
  190.7120  176.7850  138.1560 C   0  0  0  0  0  2  0  0  0  0  0  0
  190.4060  175.2290  134.7560 C   0  0  0  0  0  2  0  0  0  0  0  0
  186.7760  176.1820  135.4290 C   0  0  1  0  0  0  0  0  0  0  0  0
  189.2900  176.2170  135.0310 C   0  0  0  0  0  2  0  0  0  0  0  0
  188.0190  178.2540  139.2220 C   0  0  1  0  0  3  0  0  0  0  0  0
  191.6840  175.7110  135.4320 C   0  0  0  0  0  2  0  0  0  0  0  0
  186.4030  176.8890  137.8110 C   0  0  1  0  0  3  0  0  0  0  0  0
  191.9250  175.0610  136.7980 C   0  0  2  0  0  3  0  0  0  0  0  0
  186.5010  178.9540  141.1880 N   0  0  0  0  0  2  0  0  0  0  0  0
  187.3630  174.8150  135.7400 C   0  0  0  0  0  2  0  0  0  0  0  0
  189.0270  178.5860  141.0390 N   0  0  0  0  0  2  0  0  0  0  0  0
  185.3230  177.8130  138.1110 N   0  0  0  0  0  1  0  0  0  0  0  0
  187.0550  177.2490  136.4830 C   0  0  0  0  0  2  0  0  0  0  0  0
  187.6180  178.6580  140.6080 C   0  0  0  0  0  0  0  0  0  0  0  0
  190.1770  176.9560  139.5710 C   0  0  1  0  0  3  0  0  0  0  0  0
  191.3180  176.9120  140.5460 C   0  0  0  0  0  0  0  0  0  0  0  0
  192.4130  177.6260  140.3070 C   0  0  0  0  0  2  0  0  0  0  0  0
  191.2420  176.1160  141.6870 O   0  0  0  0  0  0  0  0  0  0  0  0
  190.2790  177.6280  145.6220 C   0  0  0  0  0  0  0  0  0  0  0  0
  191.8250  176.4280  144.0190 C   0  0  0  0  0  2  0  0  0  0  0  0
  188.8580  177.1740  145.4100 C   0  0  2  0  0  3  0  0  0  0  0  0
  191.3410  176.5860  145.4670 C   0  0  0  0  0  2  0  0  0  0  0  0
  190.6140  178.9160  145.5410 C   0  0  0  0  0  2  0  0  0  0  0  0
  188.5220  177.0410  143.9220 C   0  0  0  0  0  2  0  0  0  0  0  0
  189.4200  176.0130  143.2380 C   0  0  0  0  0  2  0  0  0  0  0  0
  190.7700  176.6400  142.9180 C   0  0  2  0  0  3  0  0  0  0  0  0
  187.8240  177.9870  146.2060 C   0  0  1  0  0  3  0  0  0  0  0  0
  185.8100  177.2770  145.9610 O   0  0  0  0  0  1  0  0  0  0  0  0
  186.6450  178.1760  145.4760 O   0  0  0  0  0  0  0  0  0  0  0  0
  188.2070  178.0360  148.5860 O   0  0  0  0  0  1  0  0  0  0  0  0
  187.5340  177.3550  147.5670 C   0  0  0  0  0  2  0  0  0  0  0  0
  184.9050  177.4970  134.5940 O   0  0  0  0  0  1  0  0  0  0  0  0
  185.4020  176.2010  134.7480 C   0  0  2  0  0  3  0  0  0  0  0  0
  184.3940  175.3240  135.4790 C   0  0  0  0  0  2  0  0  0  0  0  0
  183.0440  175.8360  135.2910 N   0  0  0  0  0  2  0  0  0  0  0  0
  182.5200  175.7790  137.7200 N   0  0  0  0  0  2  0  0  0  0  0  0
  182.1470  176.0980  136.3730 C   0  0  0  0  0  0  0  0  0  0  0  0
  181.0280  176.6170  136.1290 O   0  0  0  0  0  0  0  0  0  0  0  0
  178.9660  178.3400  138.7160 C   0  0  0  0  0  1  0  0  0  0  0  0
  180.1790  175.0070  138.7070 S   0  0  0  0  0  0  0  0  0  0  0  0
  181.1310  177.4540  138.7880 C   0  0  2  0  0  3  0  0  0  0  0  0
  179.2890  176.2370  139.7010 C   0  0  0  0  0  2  0  0  0  0  0  0
  179.8800  177.5630  139.5340 N   0  0  0  0  0  0  0  0  0  0  0  0
  181.6430  176.0310  138.8510 C   0  0  2  0  0  3  0  0  0  0  0  0
  182.1720  178.4030  139.3690 C   0  0  0  0  0  2  0  0  0  0  0  0
  182.0140  178.5830  141.7150 O   0  0  0  0  0  0  0  0  0  0  0  0
  182.5360  178.0180  140.7640 C   0  0  0  0  0  3  0  0  0  0  0  0
  192.2030  173.5670  136.6430 C   0  0  0  0  0  2  0  0  0  0  0  0
  193.5920  173.1900  137.1430 C   0  0  0  0  0  2  0  0  0  0  0  0
  194.6500  173.3970  136.0680 C   0  0  2  0  0  3  0  0  0  0  0  0
  194.5680  172.3750  135.1180 O   0  0  0  0  0  1  0  0  0  0  0  0
  196.2250  174.2360  137.9480 C   0  0  2  0  0  3  0  0  0  0  0  0
  196.1670  172.7140  138.0290 C   0  0  0  0  0  2  0  0  0  0  0  0
  197.1500  173.2090  135.8620 O   0  0  0  0  0  1  0  0  0  0  0  0
  196.0400  173.4000  136.6910 C   0  0  1  0  0  0  0  0  0  0  0  0
  197.6120  174.6860  138.1300 C   0  0  0  0  0  0  0  0  0  0  0  0
  198.7070  175.0290  138.2740 N   0  0  0  0  0  0  0  0  0  0  0  0
  1  5  1  0  0  0  0
  2  8  1  1  0  0  0
  2  7  1  0  0  0  0
  2 14  1  0  0  0  0
  3 15  1  1  0  0  0
  5 19  1  0  0  0  0
  6  8  1  0  0  0  0
  6 10  1  0  0  0  0
  7 37  1  6  0  0  0
  7 14  1  0  0  0  0
  7 17  1  0  0  0  0
  9  4  1  1  0  0  0
  9  3  1  0  0  0  0
  9 18  1  0  0  0  0
 10 12  1  0  0  0  0
 11 16  1  1  0  0  0
 11  4  1  0  0  0  0
 12 52  1  6  0  0  0
 12  1  1  0  0  0  0
 17 11  1  0  0  0  0
 18 15  1  0  0  0  0
 18 13  2  0  0  0  0
 19  3  1  0  0  0  0
 19 20  1  1  0  0  0
 20 22  1  0  0  0  0
 21 20  2  0  0  0  0
 24 26  1  0  0  0  0
 25 23  1  0  0  0  0
 25 31  1  6  0  0  0
 26 23  1  0  0  0  0
 27 23  2  0  0  0  0
 28 25  1  0  0  0  0
 29 28  1  0  0  0  0
 30 22  1  6  0  0  0
 30 29  1  0  0  0  0
 30 24  1  0  0  0  0
 31 35  1  1  0  0  0
 33 32  1  0  0  0  0
 33 31  1  0  0  0  0
 35 34  1  0  0  0  0
 37 36  1  1  0  0  0
 37 38  1  0  0  0  0
 39 38  1  0  0  0  0
 39 41  1  0  0  0  0
 41 40  1  0  0  0  0
 42 41  2  0  0  0  0
 43 47  1  0  0  0  0
 44 48  1  0  0  0  0
 44 46  1  0  0  0  0
 45 48  1  0  0  0  0
 45 49  1  1  0  0  0
 45 47  1  0  0  0  0
 47 46  1  0  0  0  0
 48 40  1  6  0  0  0
 49 51  1  0  0  0  0
 51 50  2  0  0  0  0
 52 53  1  0  0  0  0
 54 55  1  6  0  0  0
 54 59  1  0  0  0  0
 54 53  1  0  0  0  0
 56 57  1  0  0  0  0
 56 60  1  6  0  0  0
 59 58  1  6  0  0  0
 59 56  1  0  0  0  0
 59 57  1  0  0  0  0
 60 61  3  0  0  0  0
M  END
>  <MODEL>
1

>  <REMARK>
 VINA RESULT:      -6.3      0.000      0.000
  Name = 
  17 active torsions:
  status: ('A' for Active; 'I' for Inactive)
    1  A    between atoms: N_4  and  C_53
    2  A    between atoms: C_6  and  C_8
    3  A    between atoms: C_9  and  C_14
    4  A    between atoms: C_9  and  C_39
    5  A    between atoms: C_11  and  O_48
    6  A    between atoms: C_11  and  C_54
    7  A    between atoms: C_14  and  C_50
    8  A    between atoms: C_20  and  C_55
    9  A    between atoms: C_22  and  C_24
   10  A    between atoms: C_22  and  O_45
   11  A    between atoms: C_22  and  C_59
   12  A    between atoms: C_29  and  C_39
   13  A    between atoms: C_35  and  C_42
   14  A    between atoms: C_35  and  C_52
   15  A    between atoms: N_40  and  C_61
   16  A    between atoms: O_48  and  C_60
   17  A    between atoms: C_53  and  C_55
                            x       y       z     vdW  Elec       q    Type
                         _______ _______ _______ _____ _____    ______ ____

>  <TORSDO>
F 17

$$$$
=
 OpenBabel10222416073D

 61 66  0  0  1  0  0  0  0  0999 V2000
  190.5630  175.2630  137.8720 C   0  0  0  0  0  2  0  0  0  0  0  0
  187.8000  175.5200  134.5950 C   0  0  1  0  0  3  0  0  0  0  0  0
  189.1300  178.2840  139.6340 C   0  0  1  0  0  3  0  0  0  0  0  0
  187.1820  176.8600  138.8750 C   0  0  0  0  0  2  0  0  0  0  0  0
  190.4750  176.7440  138.1890 C   0  0  0  0  0  2  0  0  0  0  0  0
  190.2510  175.1030  134.8230 C   0  0  0  0  0  2  0  0  0  0  0  0
  186.6100  176.0890  135.3750 C   0  0  1  0  0  0  0  0  0  0  0  0
  189.1340  176.1020  135.0430 C   0  0  0  0  0  2  0  0  0  0  0  0
  187.7620  178.2520  139.1450 C   0  0  1  0  0  3  0  0  0  0  0  0
  191.5130  175.5960  135.5200 C   0  0  0  0  0  2  0  0  0  0  0  0
  186.1770  176.8590  137.7270 C   0  0  1  0  0  3  0  0  0  0  0  0
  191.7150  174.9800  136.9090 C   0  0  2  0  0  3  0  0  0  0  0  0
  186.1960  179.0080  141.0510 N   0  0  0  0  0  2  0  0  0  0  0  0
  187.1810  174.7280  135.7360 C   0  0  0  0  0  2  0  0  0  0  0  0
  188.7230  178.6260  140.9800 N   0  0  0  0  0  2  0  0  0  0  0  0
  185.0940  177.7950  137.9740 N   0  0  0  0  0  1  0  0  0  0  0  0
  186.8660  177.1820  136.4080 C   0  0  0  0  0  2  0  0  0  0  0  0
  187.3260  178.6930  140.5090 C   0  0  0  0  0  0  0  0  0  0  0  0
  189.9040  176.9530  139.5850 C   0  0  1  0  0  3  0  0  0  0  0  0
  191.0180  176.9290  140.5900 C   0  0  0  0  0  0  0  0  0  0  0  0
  192.0720  177.7220  140.4220 C   0  0  0  0  0  2  0  0  0  0  0  0
  190.9620  176.0720  141.6870 O   0  0  0  0  0  0  0  0  0  0  0  0
  190.3760  177.3680  145.7710 C   0  0  0  0  0  0  0  0  0  0  0  0
  191.6760  176.1100  144.0020 C   0  0  0  0  0  2  0  0  0  0  0  0
  188.8990  177.1260  145.5980 C   0  0  2  0  0  3  0  0  0  0  0  0
  191.2780  176.2100  145.4820 C   0  0  0  0  0  2  0  0  0  0  0  0
  190.8800  178.6020  145.7710 C   0  0  0  0  0  2  0  0  0  0  0  0
  188.4880  177.1620  144.1240 C   0  0  0  0  0  2  0  0  0  0  0  0
  189.2070  176.0840  143.3180 C   0  0  0  0  0  2  0  0  0  0  0  0
  190.6160  176.5500  142.9770 C   0  0  2  0  0  3  0  0  0  0  0  0
  188.0190  178.0000  146.5070 C   0  0  1  0  0  3  0  0  0  0  0  0
  186.0100  177.3260  146.1450 O   0  0  0  0  0  1  0  0  0  0  0  0
  186.8130  178.3390  145.8830 O   0  0  0  0  0  0  0  0  0  0  0  0
  188.5200  177.9610  148.8650 O   0  0  0  0  0  1  0  0  0  0  0  0
  187.7710  177.3380  147.8620 C   0  0  0  0  0  2  0  0  0  0  0  0
  184.5420  177.2770  134.8820 O   0  0  0  0  0  1  0  0  0  0  0  0
  185.2540  176.0970  134.6570 C   0  0  2  0  0  3  0  0  0  0  0  0
  184.4100  174.8830  135.0250 C   0  0  0  0  0  2  0  0  0  0  0  0
  184.1630  174.8520  136.4590 N   0  0  0  0  0  2  0  0  0  0  0  0
  181.7500  175.3940  136.2090 N   0  0  0  0  0  2  0  0  0  0  0  0
  182.8710  175.0570  137.0360 C   0  0  0  0  0  0  0  0  0  0  0  0
  182.7290  174.9320  138.2800 O   0  0  0  0  0  0  0  0  0  0  0  0
  179.5170  174.6520  140.0360 C   0  0  0  0  0  1  0  0  0  0  0  0
  180.3900  177.1460  137.6690 S   0  0  0  0  0  0  0  0  0  0  0  0
  180.1110  174.5350  137.7750 C   0  0  2  0  0  3  0  0  0  0  0  0
  179.0160  176.4730  138.6450 C   0  0  0  0  0  2  0  0  0  0  0  0
  179.0850  175.0140  138.6980 N   0  0  0  0  0  0  0  0  0  0  0  0
  180.4180  175.6070  136.7510 C   0  0  2  0  0  3  0  0  0  0  0  0
  179.6350  173.2700  137.0720 C   0  0  0  0  0  2  0  0  0  0  0  0
  180.7140  171.2220  136.6250 O   0  0  0  0  0  0  0  0  0  0  0  0
  180.4760  172.0950  137.4460 C   0  0  0  0  0  3  0  0  0  0  0  0
  191.9890  173.4820  136.8000 C   0  0  0  0  0  2  0  0  0  0  0  0
  193.4300  173.1930  136.3970 C   0  0  0  0  0  2  0  0  0  0  0  0
  194.4210  173.8660  137.3370 C   0  0  2  0  0  3  0  0  0  0  0  0
  195.1460  174.8400  136.6440 O   0  0  0  0  0  1  0  0  0  0  0  0
  196.4920  172.3430  137.0050 C   0  0  2  0  0  3  0  0  0  0  0  0
  196.7940  173.3050  138.1500 C   0  0  0  0  0  2  0  0  0  0  0  0
  194.9140  171.9650  138.9090 O   0  0  0  0  0  1  0  0  0  0  0  0
  195.3790  172.8350  137.9170 C   0  0  1  0  0  0  0  0  0  0  0  0
  196.9590  170.9960  137.3560 C   0  0  0  0  0  0  0  0  0  0  0  0
  197.3300  169.9320  137.6200 N   0  0  0  0  0  0  0  0  0  0  0  0
  1  5  1  0  0  0  0
  2  8  1  1  0  0  0
  2  7  1  0  0  0  0
  2 14  1  0  0  0  0
  3 15  1  1  0  0  0
  5 19  1  0  0  0  0
  6  8  1  0  0  0  0
  6 10  1  0  0  0  0
  7 37  1  6  0  0  0
  7 14  1  0  0  0  0
  7 17  1  0  0  0  0
  9  4  1  1  0  0  0
  9  3  1  0  0  0  0
  9 18  1  0  0  0  0
 10 12  1  0  0  0  0
 11 16  1  1  0  0  0
 11  4  1  0  0  0  0
 12 52  1  6  0  0  0
 12  1  1  0  0  0  0
 17 11  1  0  0  0  0
 18 15  1  0  0  0  0
 18 13  2  0  0  0  0
 19  3  1  0  0  0  0
 19 20  1  1  0  0  0
 20 22  1  0  0  0  0
 21 20  2  0  0  0  0
 24 26  1  0  0  0  0
 25 23  1  0  0  0  0
 25 31  1  1  0  0  0
 26 23  1  0  0  0  0
 27 23  2  0  0  0  0
 28 25  1  0  0  0  0
 29 28  1  0  0  0  0
 30 22  1  6  0  0  0
 30 29  1  0  0  0  0
 30 24  1  0  0  0  0
 31 35  1  1  0  0  0
 33 32  1  0  0  0  0
 33 31  1  0  0  0  0
 35 34  1  0  0  0  0
 37 36  1  1  0  0  0
 37 38  1  0  0  0  0
 38 39  1  0  0  0  0
 39 41  1  0  0  0  0
 40 41  1  0  0  0  0
 41 42  2  0  0  0  0
 44 46  1  0  0  0  0
 45 49  1  6  0  0  0
 45 47  1  0  0  0  0
 46 47  1  0  0  0  0
 47 43  1  0  0  0  0
 48 40  1  1  0  0  0
 48 44  1  0  0  0  0
 48 45  1  0  0  0  0
 49 51  1  0  0  0  0
 50 51  2  0  0  0  0
 53 52  1  0  0  0  0
 53 54  1  0  0  0  0
 54 55  1  6  0  0  0
 54 59  1  0  0  0  0
 56 60  1  1  0  0  0
 56 59  1  0  0  0  0
 56 57  1  0  0  0  0
 59 57  1  0  0  0  0
 59 58  1  1  0  0  0
 60 61  3  0  0  0  0
M  END
>  <MODEL>
2

>  <REMARK>
 VINA RESULT:      -6.1      1.674      2.282
  Name = 
  17 active torsions:
  status: ('A' for Active; 'I' for Inactive)
    1  A    between atoms: N_4  and  C_53
    2  A    between atoms: C_6  and  C_8
    3  A    between atoms: C_9  and  C_14
    4  A    between atoms: C_9  and  C_39
    5  A    between atoms: C_11  and  O_48
    6  A    between atoms: C_11  and  C_54
    7  A    between atoms: C_14  and  C_50
    8  A    between atoms: C_20  and  C_55
    9  A    between atoms: C_22  and  C_24
   10  A    between atoms: C_22  and  O_45
   11  A    between atoms: C_22  and  C_59
   12  A    between atoms: C_29  and  C_39
   13  A    between atoms: C_35  and  C_42
   14  A    between atoms: C_35  and  C_52
   15  A    between atoms: N_40  and  C_61
   16  A    between atoms: O_48  and  C_60
   17  A    between atoms: C_53  and  C_55
                            x       y       z     vdW  Elec       q    Type
                         _______ _______ _______ _____ _____    ______ ____

>  <TORSDO>
F 17

$$$$
=
 OpenBabel10222416073D

 61 66  0  0  1  0  0  0  0  0999 V2000
  187.1970  176.5770  137.8710 C   0  0  0  0  0  2  0  0  0  0  0  0
  190.7710  175.3420  135.8380 C   0  0  1  0  0  3  0  0  0  0  0  0
  184.9610  174.3270  135.8170 C   0  0  1  0  0  3  0  0  0  0  0  0
  186.9780  172.9620  136.5020 C   0  0  0  0  0  2  0  0  0  0  0  0
  186.2980  176.2530  136.6930 C   0  0  0  0  0  2  0  0  0  0  0  0
  189.8270  177.5220  136.6050 C   0  0  0  0  0  2  0  0  0  0  0  0
  190.3500  173.8990  135.5410 C   0  0  1  0  0  0  0  0  0  0  0  0
  189.6270  176.3350  135.6840 C   0  0  0  0  0  2  0  0  0  0  0  0
  185.8980  173.2750  135.4610 C   0  0  1  0  0  3  0  0  0  0  0  0
  188.5530  178.3580  136.6330 C   0  0  0  0  0  2  0  0  0  0  0  0
  188.2870  172.5030  135.8650 C   0  0  1  0  0  3  0  0  0  0  0  0
  187.6480  178.0350  137.8270 C   0  0  2  0  0  3  0  0  0  0  0  0
  184.6370  171.0230  135.4600 N   0  0  0  0  0  2  0  0  0  0  0  0
  190.4640  174.3830  136.9770 C   0  0  0  0  0  2  0  0  0  0  0  0
  183.8860  173.3900  136.0700 N   0  0  0  0  0  2  0  0  0  0  0  0
  188.0800  171.3410  135.0170 N   0  0  0  0  0  1  0  0  0  0  0  0
  188.9240  173.6340  135.0690 C   0  0  0  0  0  2  0  0  0  0  0  0
  184.7750  172.2970  135.6310 C   0  0  0  0  0  0  0  0  0  0  0  0
  185.3090  175.1570  137.0660 C   0  0  1  0  0  3  0  0  0  0  0  0
  184.0830  175.7750  137.6730 C   0  0  0  0  0  0  0  0  0  0  0  0
  183.1980  175.0040  138.2960 C   0  0  0  0  0  2  0  0  0  0  0  0
  183.8620  177.1480  137.5750 O   0  0  0  0  0  0  0  0  0  0  0  0
  180.8080  179.4870  139.5500 C   0  0  0  0  0  0  0  0  0  0  0  0
  182.7020  179.2520  137.8890 C   0  0  0  0  0  2  0  0  0  0  0  0
  181.1610  178.7930  140.8400 C   0  0  2  0  0  3  0  0  0  0  0  0
  181.9280  180.1780  138.8380 C   0  0  0  0  0  2  0  0  0  0  0  0
  179.7030  179.1730  138.8740 C   0  0  0  0  0  2  0  0  0  0  0  0
  181.8450  177.4460  140.5890 C   0  0  0  0  0  2  0  0  0  0  0  0
  183.1470  177.6180  139.8120 C   0  0  0  0  0  2  0  0  0  0  0  0
  182.8430  177.7840  138.3290 C   0  0  2  0  0  3  0  0  0  0  0  0
  179.9950  178.7190  141.8390 C   0  0  1  0  0  3  0  0  0  0  0  0
  179.7020  177.6940  143.7070 O   0  0  0  0  0  1  0  0  0  0  0  0
  179.9010  177.4510  142.4250 O   0  0  0  0  0  0  0  0  0  0  0  0
  179.6000  181.0260  142.4160 O   0  0  0  0  0  1  0  0  0  0  0  0
  180.0920  179.8120  142.9040 C   0  0  0  0  0  2  0  0  0  0  0  0
  190.9310  171.7300  134.5970 O   0  0  0  0  0  1  0  0  0  0  0  0
  191.4480  172.9470  135.0480 C   0  0  2  0  0  3  0  0  0  0  0  0
  192.5150  172.7140  136.1090 C   0  0  0  0  0  2  0  0  0  0  0  0
  193.1630  171.4260  135.9050 N   0  0  0  0  0  2  0  0  0  0  0  0
  195.4480  172.4020  135.9070 N   0  0  0  0  0  2  0  0  0  0  0  0
  194.5810  171.2620  135.8480 C   0  0  0  0  0  0  0  0  0  0  0  0
  195.0610  170.1030  135.7510 O   0  0  0  0  0  0  0  0  0  0  0  0
  199.0510  174.4200  137.6760 C   0  0  0  0  0  1  0  0  0  0  0  0
  197.4570  171.2830  137.2340 S   0  0  0  0  0  0  0  0  0  0  0  0
  197.5230  173.6430  136.0820 C   0  0  2  0  0  3  0  0  0  0  0  0
  199.0540  172.1390  137.1330 C   0  0  0  0  0  2  0  0  0  0  0  0
  198.8870  173.4820  136.5800 N   0  0  0  0  0  0  0  0  0  0  0  0
  196.8960  172.2840  135.8570 C   0  0  2  0  0  3  0  0  0  0  0  0
  197.5310  174.4300  134.7770 C   0  0  0  0  0  2  0  0  0  0  0  0
  196.4190  176.1450  135.9520 O   0  0  0  0  0  0  0  0  0  0  0  0
  197.1240  175.8490  134.9990 C   0  0  0  0  0  3  0  0  0  0  0  0
  188.3160  178.4470  139.1370 C   0  0  0  0  0  2  0  0  0  0  0  0
  188.5670  177.2530  140.0500 C   0  0  0  0  0  2  0  0  0  0  0  0
  189.9880  177.2540  140.5960 C   0  0  2  0  0  3  0  0  0  0  0  0
  190.7250  176.2230  140.0060 O   0  0  0  0  0  1  0  0  0  0  0  0
  191.0760  177.7540  142.8950 C   0  0  2  0  0  3  0  0  0  0  0  0
  189.6490  178.2940  142.9220 C   0  0  0  0  0  2  0  0  0  0  0  0
  189.4250  175.8910  142.6340 O   0  0  0  0  0  1  0  0  0  0  0  0
  189.9720  177.0660  142.1070 C   0  0  1  0  0  0  0  0  0  0  0  0
  191.3710  177.0770  144.1650 C   0  0  0  0  0  0  0  0  0  0  0  0
  191.6120  176.5540  145.1680 N   0  0  0  0  0  0  0  0  0  0  0  0
  2  8  1  6  0  0  0
  2 14  1  0  0  0  0
  3 15  1  1  0  0  0
  3 19  1  0  0  0  0
  5 19  1  0  0  0  0
  5  1  1  0  0  0  0
  6 10  1  0  0  0  0
  7 37  1  6  0  0  0
  7  2  1  0  0  0  0
  7 14  1  0  0  0  0
  8  6  1  0  0  0  0
  9 18  1  0  0  0  0
  9  3  1  0  0  0  0
  9  4  1  1  0  0  0
 10 12  1  0  0  0  0
 11 16  1  6  0  0  0
 11  4  1  0  0  0  0
 12  1  1  0  0  0  0
 12 52  1  1  0  0  0
 13 18  2  0  0  0  0
 17  7  1  0  0  0  0
 17 11  1  0  0  0  0
 18 15  1  0  0  0  0
 19 20  1  6  0  0  0
 20 21  2  0  0  0  0
 22 20  1  0  0  0  0
 23 25  1  0  0  0  0
 24 30  1  0  0  0  0
 24 26  1  0  0  0  0
 25 31  1  1  0  0  0
 26 23  1  0  0  0  0
 27 23  2  0  0  0  0
 28 25  1  0  0  0  0
 29 28  1  0  0  0  0
 30 22  1  6  0  0  0
 30 29  1  0  0  0  0
 31 33  1  0  0  0  0
 31 35  1  1  0  0  0
 33 32  1  0  0  0  0
 34 35  1  0  0  0  0
 37 36  1  1  0  0  0
 37 38  1  0  0  0  0
 39 38  1  0  0  0  0
 41 39  1  0  0  0  0
 41 40  1  0  0  0  0
 42 41  2  0  0  0  0
 45 49  1  6  0  0  0
 45 47  1  0  0  0  0
 46 44  1  0  0  0  0
 47 46  1  0  0  0  0
 47 43  1  0  0  0  0
 48 40  1  1  0  0  0
 48 45  1  0  0  0  0
 48 44  1  0  0  0  0
 49 51  1  0  0  0  0
 51 50  2  0  0  0  0
 52 53  1  0  0  0  0
 53 54  1  0  0  0  0
 54 55  1  6  0  0  0
 54 59  1  0  0  0  0
 56 57  1  0  0  0  0
 56 60  1  1  0  0  0
 59 58  1  1  0  0  0
 59 56  1  0  0  0  0
 59 57  1  0  0  0  0
 60 61  3  0  0  0  0
M  END
>  <MODEL>
3

>  <REMARK>
 VINA RESULT:      -5.7      3.575     10.399
  Name = 
  17 active torsions:
  status: ('A' for Active; 'I' for Inactive)
    1  A    between atoms: N_4  and  C_53
    2  A    between atoms: C_6  and  C_8
    3  A    between atoms: C_9  and  C_14
    4  A    between atoms: C_9  and  C_39
    5  A    between atoms: C_11  and  O_48
    6  A    between atoms: C_11  and  C_54
    7  A    between atoms: C_14  and  C_50
    8  A    between atoms: C_20  and  C_55
    9  A    between atoms: C_22  and  C_24
   10  A    between atoms: C_22  and  O_45
   11  A    between atoms: C_22  and  C_59
   12  A    between atoms: C_29  and  C_39
   13  A    between atoms: C_35  and  C_42
   14  A    between atoms: C_35  and  C_52
   15  A    between atoms: N_40  and  C_61
   16  A    between atoms: O_48  and  C_60
   17  A    between atoms: C_53  and  C_55
                            x       y       z     vdW  Elec       q    Type
                         _______ _______ _______ _____ _____    ______ ____

>  <TORSDO>
F 17

$$$$
=
 OpenBabel10222416073D

 61 66  0  0  1  0  0  0  0  0999 V2000
  184.7240  176.5810  137.0630 C   0  0  0  0  0  2  0  0  0  0  0  0
  182.6920  178.4160  140.3710 C   0  0  1  0  0  3  0  0  0  0  0  0
  187.9950  178.3280  137.7890 C   0  0  1  0  0  3  0  0  0  0  0  0
  187.1000  177.4600  139.9900 C   0  0  0  0  0  2  0  0  0  0  0  0
  185.7270  177.7100  136.9280 C   0  0  0  0  0  2  0  0  0  0  0  0
  182.1350  177.9490  137.9820 C   0  0  0  0  0  2  0  0  0  0  0  0
  183.8920  178.5200  141.3170 C   0  0  1  0  0  0  0  0  0  0  0  0
  183.0540  178.7040  138.9210 C   0  0  0  0  0  2  0  0  0  0  0  0
  187.8720  178.5380  139.2220 C   0  0  1  0  0  3  0  0  0  0  0  0
  182.6820  178.0370  136.5620 C   0  0  0  0  0  2  0  0  0  0  0  0
  186.3530  178.0240  141.1950 C   0  0  1  0  0  3  0  0  0  0  0  0
  183.5140  176.8150  136.1600 C   0  0  2  0  0  3  0  0  0  0  0  0
  190.2010  178.2470  140.2930 N   0  0  0  0  0  2  0  0  0  0  0  0
  183.4140  177.1600  140.8360 C   0  0  0  0  0  2  0  0  0  0  0  0
  189.3910  177.9590  137.8860 N   0  0  0  0  0  2  0  0  0  0  0  0
  187.2560  178.7110  142.1010 N   0  0  0  0  0  1  0  0  0  0  0  0
  185.2380  178.9590  140.7470 C   0  0  0  0  0  2  0  0  0  0  0  0
  189.3370  178.2450  139.3320 C   0  0  0  0  0  0  0  0  0  0  0  0
  187.1380  177.1990  137.1880 C   0  0  1  0  0  3  0  0  0  0  0  0
  187.7280  176.6850  135.9080 C   0  0  0  0  0  0  0  0  0  0  0  0
  187.7180  177.4540  134.8240 C   0  0  0  0  0  2  0  0  0  0  0  0
  188.2710  175.4020  135.8450 O   0  0  0  0  0  0  0  0  0  0  0  0
  192.4860  174.5860  135.3340 C   0  0  0  0  0  0  0  0  0  0  0  0
  190.0760  174.3750  134.5960 C   0  0  0  0  0  2  0  0  0  0  0  0
  192.5910  174.3860  136.8240 C   0  0  2  0  0  3  0  0  0  0  0  0
  191.4760  173.7450  134.6200 C   0  0  0  0  0  2  0  0  0  0  0  0
  192.9400  175.6950  134.7500 C   0  0  0  0  0  2  0  0  0  0  0  0
  191.4590  175.0960  137.5720 C   0  0  0  0  0  2  0  0  0  0  0  0
  190.0930  174.5610  137.1520 C   0  0  0  0  0  2  0  0  0  0  0  0
  189.6750  175.1980  135.8340 C   0  0  2  0  0  3  0  0  0  0  0  0
  193.9890  174.6850  137.3900 C   0  0  1  0  0  3  0  0  0  0  0  0
  195.0160  175.4740  139.1060 O   0  0  0  0  0  1  0  0  0  0  0  0
  193.9450  175.6870  138.3670 O   0  0  0  0  0  0  0  0  0  0  0  0
  195.2540  172.6950  136.8880 O   0  0  0  0  0  1  0  0  0  0  0  0
  194.6650  173.4230  137.9260 C   0  0  0  0  0  2  0  0  0  0  0  0
  182.2950  179.3690  142.9470 O   0  0  0  0  0  1  0  0  0  0  0  0
  183.5910  178.8780  142.7780 C   0  0  2  0  0  3  0  0  0  0  0  0
  184.6120  179.8560  143.3450 C   0  0  0  0  0  2  0  0  0  0  0  0
  184.5630  179.8560  144.8000 N   0  0  0  0  0  2  0  0  0  0  0  0
  186.4130  178.2120  145.0170 N   0  0  0  0  0  2  0  0  0  0  0  0
  185.4570  179.0960  145.6150 C   0  0  0  0  0  0  0  0  0  0  0  0
  185.3990  179.2180  146.8660 O   0  0  0  0  0  0  0  0  0  0  0  0
  190.8510  177.6210  145.3780 C   0  0  0  0  0  1  0  0  0  0  0  0
  187.9090  178.3930  147.2030 S   0  0  0  0  0  0  0  0  0  0  0  0
  188.5920  177.1500  144.9910 C   0  0  2  0  0  3  0  0  0  0  0  0
  189.4190  177.3870  147.2210 C   0  0  0  0  0  2  0  0  0  0  0  0
  189.7140  176.8730  145.8840 N   0  0  0  0  0  0  0  0  0  0  0  0
  187.3450  177.4220  145.8050 C   0  0  2  0  0  3  0  0  0  0  0  0
  188.3540  175.9640  144.0650 C   0  0  0  0  0  2  0  0  0  0  0  0
  190.3640  176.1440  142.8460 O   0  0  0  0  0  0  0  0  0  0  0  0
  189.1440  176.0940  142.8050 C   0  0  0  0  0  3  0  0  0  0  0  0
  182.6370  175.5680  136.0760 C   0  0  0  0  0  2  0  0  0  0  0  0
  183.1390  174.4540  136.9860 C   0  0  0  0  0  2  0  0  0  0  0  0
  182.9770  173.0850  136.3390 C   0  0  2  0  0  3  0  0  0  0  0  0
  182.0390  172.3310  137.0500 O   0  0  0  0  0  1  0  0  0  0  0  0
  185.4620  173.0360  135.6020 C   0  0  2  0  0  3  0  0  0  0  0  0
  185.4220  172.9780  137.1260 C   0  0  0  0  0  2  0  0  0  0  0  0
  184.3100  170.9520  136.3730 O   0  0  0  0  0  1  0  0  0  0  0  0
  184.3110  172.3500  136.3220 C   0  0  1  0  0  0  0  0  0  0  0  0
  186.4610  172.0850  135.0980 C   0  0  0  0  0  0  0  0  0  0  0  0
  187.2460  171.3400  134.6890 N   0  0  0  0  0  0  0  0  0  0  0  0
  2  8  1  6  0  0  0
  2 14  1  0  0  0  0
  2  7  1  0  0  0  0
  3 15  1  1  0  0  0
  3  9  1  0  0  0  0
  4 11  1  0  0  0  0
  5  1  1  0  0  0  0
  5 19  1  0  0  0  0
  6  8  1  0  0  0  0
  7 37  1  1  0  0  0
  9 18  1  0  0  0  0
  9  4  1  1  0  0  0
 10  6  1  0  0  0  0
 11 16  1  1  0  0  0
 12 52  1  1  0  0  0
 12 10  1  0  0  0  0
 12  1  1  0  0  0  0
 14  7  1  0  0  0  0
 15 18  1  0  0  0  0
 17 11  1  0  0  0  0
 17  7  1  0  0  0  0
 18 13  2  0  0  0  0
 19 20  1  6  0  0  0
 19  3  1  0  0  0  0
 21 20  2  0  0  0  0
 22 20  1  0  0  0  0
 23 25  1  0  0  0  0
 24 26  1  0  0  0  0
 24 30  1  0  0  0  0
 25 31  1  1  0  0  0
 25 28  1  0  0  0  0
 26 23  1  0  0  0  0
 27 23  2  0  0  0  0
 29 28  1  0  0  0  0
 30 22  1  1  0  0  0
 30 29  1  0  0  0  0
 31 35  1  1  0  0  0
 31 33  1  0  0  0  0
 33 32  1  0  0  0  0
 34 35  1  0  0  0  0
 37 36  1  6  0  0  0
 37 38  1  0  0  0  0
 38 39  1  0  0  0  0
 39 41  1  0  0  0  0
 40 41  1  0  0  0  0
 41 42  2  0  0  0  0
 43 47  1  0  0  0  0
 44 46  1  0  0  0  0
 45 49  1  6  0  0  0
 45 48  1  0  0  0  0
 45 47  1  0  0  0  0
 47 46  1  0  0  0  0
 48 40  1  6  0  0  0
 48 44  1  0  0  0  0
 51 50  2  0  0  0  0
 51 49  1  0  0  0  0
 52 53  1  0  0  0  0
 54 53  1  0  0  0  0
 54 55  1  1  0  0  0
 56 60  1  6  0  0  0
 56 59  1  0  0  0  0
 56 57  1  0  0  0  0
 59 54  1  0  0  0  0
 59 58  1  6  0  0  0
 59 57  1  0  0  0  0
 61 60  3  0  0  0  0
M  END
>  <MODEL>
4

>  <REMARK>
 VINA RESULT:      -5.6      3.120      9.283
  Name = 
  17 active torsions:
  status: ('A' for Active; 'I' for Inactive)
    1  A    between atoms: N_4  and  C_53
    2  A    between atoms: C_6  and  C_8
    3  A    between atoms: C_9  and  C_14
    4  A    between atoms: C_9  and  C_39
    5  A    between atoms: C_11  and  O_48
    6  A    between atoms: C_11  and  C_54
    7  A    between atoms: C_14  and  C_50
    8  A    between atoms: C_20  and  C_55
    9  A    between atoms: C_22  and  C_24
   10  A    between atoms: C_22  and  O_45
   11  A    between atoms: C_22  and  C_59
   12  A    between atoms: C_29  and  C_39
   13  A    between atoms: C_35  and  C_42
   14  A    between atoms: C_35  and  C_52
   15  A    between atoms: N_40  and  C_61
   16  A    between atoms: O_48  and  C_60
   17  A    between atoms: C_53  and  C_55
                            x       y       z     vdW  Elec       q    Type
                         _______ _______ _______ _____ _____    ______ ____

>  <TORSDO>
F 17

$$$$
=
 OpenBabel10222416073D

 61 66  0  0  1  0  0  0  0  0999 V2000
  186.7410  176.7110  138.3490 C   0  0  0  0  0  2  0  0  0  0  0  0
  184.4950  178.9070  141.2770 C   0  0  1  0  0  3  0  0  0  0  0  0
  190.0790  177.6440  139.8550 C   0  0  1  0  0  3  0  0  0  0  0  0
  188.5570  176.9670  141.7590 C   0  0  0  0  0  2  0  0  0  0  0  0
  187.9750  177.5800  138.5020 C   0  0  0  0  0  2  0  0  0  0  0  0
  184.3840  178.6230  138.7980 C   0  0  0  0  0  2  0  0  0  0  0  0
  185.4540  178.7150  142.4570 C   0  0  1  0  0  0  0  0  0  0  0  0
  185.2200  179.1300  139.9560 C   0  0  0  0  0  2  0  0  0  0  0  0
  189.6960  177.8510  141.2420 C   0  0  1  0  0  3  0  0  0  0  0  0
  185.2320  178.6080  137.5330 C   0  0  0  0  0  2  0  0  0  0  0  0
  187.7090  177.6670  142.8170 C   0  0  1  0  0  3  0  0  0  0  0  0
  185.8400  177.2340  137.2320 C   0  0  2  0  0  3  0  0  0  0  0  0
  191.6120  177.0110  142.7530 N   0  0  0  0  0  2  0  0  0  0  0  0
  184.8020  177.5110  141.7970 C   0  0  0  0  0  2  0  0  0  0  0  0
  191.3040  176.9600  140.2150 N   0  0  0  0  0  2  0  0  0  0  0  0
  188.5220  178.1110  143.9350 N   0  0  0  0  0  1  0  0  0  0  0  0
  186.9540  178.8420  142.2100 C   0  0  0  0  0  2  0  0  0  0  0  0
  191.0010  177.2250  141.6350 C   0  0  0  0  0  0  0  0  0  0  0  0
  189.1460  176.7530  139.0150 C   0  0  1  0  0  3  0  0  0  0  0  0
  189.8720  176.1390  137.8540 C   0  0  0  0  0  0  0  0  0  0  0  0
  189.5880  174.8940  137.4860 C   0  0  0  0  0  2  0  0  0  0  0  0
  190.8490  176.8600  137.1700 O   0  0  0  0  0  0  0  0  0  0  0  0
  194.3010  174.9260  135.4270 C   0  0  0  0  0  0  0  0  0  0  0  0
  191.8700  175.6200  135.3560 C   0  0  0  0  0  2  0  0  0  0  0  0
  194.6480  174.3930  136.7930 C   0  0  2  0  0  3  0  0  0  0  0  0
  192.9330  174.6040  134.9150 C   0  0  0  0  0  2  0  0  0  0  0  0
  194.9760  175.9410  134.8870 C   0  0  0  0  0  2  0  0  0  0  0  0
  194.0240  175.2390  137.9060 C   0  0  0  0  0  2  0  0  0  0  0  0
  192.5010  175.2480  137.8110 C   0  0  0  0  0  2  0  0  0  0  0  0
  192.0570  176.2450  136.7500 C   0  0  2  0  0  3  0  0  0  0  0  0
  196.1500  174.1260  136.9880 C   0  0  1  0  0  3  0  0  0  0  0  0
  197.6880  175.6130  137.1980 O   0  0  0  0  0  1  0  0  0  0  0  0
  196.7220  175.0360  137.8850 O   0  0  0  0  0  0  0  0  0  0  0  0
  195.2310  172.0560  137.8140 O   0  0  0  0  0  1  0  0  0  0  0  0
  196.4160  172.6840  137.4210 C   0  0  0  0  0  2  0  0  0  0  0  0
  184.6660  177.9930  144.6450 O   0  0  0  0  0  1  0  0  0  0  0  0
  184.9280  179.1070  143.8440 C   0  0  2  0  0  3  0  0  0  0  0  0
  183.6990  180.0020  143.7530 C   0  0  0  0  0  2  0  0  0  0  0  0
  182.5260  179.3070  144.2630 N   0  0  0  0  0  2  0  0  0  0  0  0
  181.3410  179.3870  142.0800 N   0  0  0  0  0  2  0  0  0  0  0  0
  181.4000  178.9700  143.4500 C   0  0  0  0  0  0  0  0  0  0  0  0
  180.4620  178.2970  143.9510 O   0  0  0  0  0  0  0  0  0  0  0  0
  180.6370  177.9410  137.8860 C   0  0  0  0  0  1  0  0  0  0  0  0
  179.8960  177.3020  141.2950 S   0  0  0  0  0  0  0  0  0  0  0  0
  180.6000  179.3250  139.7730 C   0  0  2  0  0  3  0  0  0  0  0  0
  179.1680  177.4160  139.6370 C   0  0  0  0  0  2  0  0  0  0  0  0
  179.7600  178.5220  138.8870 N   0  0  0  0  0  0  0  0  0  0  0  0
  180.2190  179.0640  141.2140 C   0  0  2  0  0  3  0  0  0  0  0  0
  180.4330  180.8050  139.4550 C   0  0  0  0  0  2  0  0  0  0  0  0
  181.5440  182.4330  138.1600 O   0  0  0  0  0  0  0  0  0  0  0  0
  181.5950  181.3260  138.6770 C   0  0  0  0  0  3  0  0  0  0  0  0
  184.7490  176.2250  136.8830 C   0  0  0  0  0  2  0  0  0  0  0  0
  185.3250  174.8560  136.5420 C   0  0  0  0  0  2  0  0  0  0  0  0
  184.7930  173.7760  137.4740 C   0  0  2  0  0  3  0  0  0  0  0  0
  185.8510  173.0010  137.9580 O   0  0  0  0  0  1  0  0  0  0  0  0
  182.6880  173.5780  135.9740 C   0  0  2  0  0  3  0  0  0  0  0  0
  183.8580  172.9450  135.2280 C   0  0  0  0  0  2  0  0  0  0  0  0
  183.5610  171.5960  137.2280 O   0  0  0  0  0  1  0  0  0  0  0  0
  183.8060  172.8820  136.7350 C   0  0  1  0  0  0  0  0  0  0  0  0
  181.4940  172.7350  135.8250 C   0  0  0  0  0  0  0  0  0  0  0  0
  180.5590  172.0660  135.6980 N   0  0  0  0  0  0  0  0  0  0  0  0
  1  5  1  0  0  0  0
  2  8  1  6  0  0  0
  2 14  1  0  0  0  0
  2  7  1  0  0  0  0
  3 15  1  1  0  0  0
  3  9  1  0  0  0  0
  4 11  1  0  0  0  0
  5 19  1  0  0  0  0
  6  8  1  0  0  0  0
  7 37  1  1  0  0  0
  9 18  1  0  0  0  0
  9  4  1  1  0  0  0
 10  6  1  0  0  0  0
 11 16  1  1  0  0  0
 12 52  1  1  0  0  0
 12 10  1  0  0  0  0
 12  1  1  0  0  0  0
 14  7  1  0  0  0  0
 15 18  1  0  0  0  0
 17  7  1  0  0  0  0
 17 11  1  0  0  0  0
 18 13  2  0  0  0  0
 19 20  1  6  0  0  0
 19  3  1  0  0  0  0
 21 20  2  0  0  0  0
 22 20  1  0  0  0  0
 23 25  1  0  0  0  0
 24 30  1  0  0  0  0
 25 31  1  1  0  0  0
 25 28  1  0  0  0  0
 26 24  1  0  0  0  0
 26 23  1  0  0  0  0
 27 23  2  0  0  0  0
 29 28  1  0  0  0  0
 30 22  1  1  0  0  0
 30 29  1  0  0  0  0
 31 35  1  1  0  0  0
 31 33  1  0  0  0  0
 32 33  1  0  0  0  0
 35 34  1  0  0  0  0
 37 36  1  1  0  0  0
 38 37  1  0  0  0  0
 38 39  1  0  0  0  0
 40 41  1  0  0  0  0
 41 42  2  0  0  0  0
 41 39  1  0  0  0  0
 43 47  1  0  0  0  0
 45 49  1  6  0  0  0
 45 48  1  0  0  0  0
 46 44  1  0  0  0  0
 47 46  1  0  0  0  0
 47 45  1  0  0  0  0
 48 44  1  0  0  0  0
 48 40  1  1  0  0  0
 50 51  2  0  0  0  0
 51 49  1  0  0  0  0
 53 52  1  0  0  0  0
 53 54  1  0  0  0  0
 54 55  1  6  0  0  0
 56 60  1  6  0  0  0
 56 59  1  0  0  0  0
 57 56  1  0  0  0  0
 57 59  1  0  0  0  0
 59 58  1  1  0  0  0
 59 54  1  0  0  0  0
 61 60  3  0  0  0  0
M  END
>  <MODEL>
5

>  <REMARK>
 VINA RESULT:      -5.5      2.897      8.666
  Name = 
  17 active torsions:
  status: ('A' for Active; 'I' for Inactive)
    1  A    between atoms: N_4  and  C_53
    2  A    between atoms: C_6  and  C_8
    3  A    between atoms: C_9  and  C_14
    4  A    between atoms: C_9  and  C_39
    5  A    between atoms: C_11  and  O_48
    6  A    between atoms: C_11  and  C_54
    7  A    between atoms: C_14  and  C_50
    8  A    between atoms: C_20  and  C_55
    9  A    between atoms: C_22  and  C_24
   10  A    between atoms: C_22  and  O_45
   11  A    between atoms: C_22  and  C_59
   12  A    between atoms: C_29  and  C_39
   13  A    between atoms: C_35  and  C_42
   14  A    between atoms: C_35  and  C_52
   15  A    between atoms: N_40  and  C_61
   16  A    between atoms: O_48  and  C_60
   17  A    between atoms: C_53  and  C_55
                            x       y       z     vdW  Elec       q    Type
                         _______ _______ _______ _____ _____    ______ ____

>  <TORSDO>
F 17

$$$$
=
 OpenBabel10222416073D

 61 66  0  0  1  0  0  0  0  0999 V2000
  187.0800  177.2650  139.1540 C   0  0  0  0  0  2  0  0  0  0  0  0
  183.3730  178.9370  140.5360 C   0  0  1  0  0  3  0  0  0  0  0  0
  189.0330  178.5060  142.1420 C   0  0  1  0  0  3  0  0  0  0  0  0
  186.8800  177.5030  143.0130 C   0  0  0  0  0  2  0  0  0  0  0  0
  187.9270  178.2720  139.9080 C   0  0  0  0  0  2  0  0  0  0  0  0
  184.5630  178.8220  138.3430 C   0  0  0  0  0  2  0  0  0  0  0  0
  183.6270  178.7840  142.0390 C   0  0  1  0  0  0  0  0  0  0  0  0
  184.6210  179.3460  139.7640 C   0  0  0  0  0  2  0  0  0  0  0  0
  187.9810  178.5610  143.1430 C   0  0  1  0  0  3  0  0  0  0  0  0
  185.9230  179.0080  137.6820 C   0  0  0  0  0  2  0  0  0  0  0  0
  185.5240  178.0090  143.4940 C   0  0  1  0  0  3  0  0  0  0  0  0
  186.7950  177.7480  137.7330 C   0  0  2  0  0  3  0  0  0  0  0  0
  188.9810  177.8650  145.4180 N   0  0  0  0  0  2  0  0  0  0  0  0
  183.5800  177.5570  141.1420 C   0  0  0  0  0  2  0  0  0  0  0  0
  189.9970  177.9600  143.0740 N   0  0  0  0  0  2  0  0  0  0  0  0
  185.5920  178.4720  144.8690 N   0  0  0  0  0  1  0  0  0  0  0  0
  185.0120  179.1190  142.5860 C   0  0  0  0  0  2  0  0  0  0  0  0
  188.9880  178.0800  144.1430 C   0  0  0  0  0  0  0  0  0  0  0  0
  188.7900  177.5660  140.9460 C   0  0  1  0  0  3  0  0  0  0  0  0
  190.0810  177.1360  140.3140 C   0  0  0  0  0  0  0  0  0  0  0  0
  190.8980  176.3240  140.9760 C   0  0  0  0  0  2  0  0  0  0  0  0
  190.4350  177.5960  139.0470 O   0  0  0  0  0  0  0  0  0  0  0  0
  192.1980  174.7920  136.2680 C   0  0  0  0  0  0  0  0  0  0  0  0
  190.3650  175.4790  137.8690 C   0  0  0  0  0  2  0  0  0  0  0  0
  193.5480  175.1110  136.8570 C   0  0  2  0  0  3  0  0  0  0  0  0
  191.1470  174.3260  137.2250 C   0  0  0  0  0  2  0  0  0  0  0  0
  191.8300  175.2710  135.0800 C   0  0  0  0  0  2  0  0  0  0  0  0
  193.5560  176.4790  137.5450 C   0  0  0  0  0  2  0  0  0  0  0  0
  192.5510  176.5310  138.6920 C   0  0  0  0  0  2  0  0  0  0  0  0
  191.1530  176.7730  138.1410 C   0  0  2  0  0  3  0  0  0  0  0  0
  194.7140  174.9040  135.8770 C   0  0  1  0  0  3  0  0  0  0  0  0
  196.3700  175.9030  134.9380 O   0  0  0  0  0  1  0  0  0  0  0  0
  195.7380  175.8340  136.0940 O   0  0  0  0  0  0  0  0  0  0  0  0
  195.4750  173.0730  137.2480 O   0  0  0  0  0  1  0  0  0  0  0  0
  195.2500  173.4730  135.9270 C   0  0  0  0  0  2  0  0  0  0  0  0
  182.2060  177.9140  143.8150 O   0  0  0  0  0  1  0  0  0  0  0  0
  182.4260  179.0030  142.9680 C   0  0  2  0  0  3  0  0  0  0  0  0
  181.1610  179.3390  142.1900 C   0  0  0  0  0  2  0  0  0  0  0  0
  180.1910  178.2600  142.3050 N   0  0  0  0  0  2  0  0  0  0  0  0
  180.2720  177.7230  139.8790 N   0  0  0  0  0  2  0  0  0  0  0  0
  179.7880  177.4470  141.2000 C   0  0  0  0  0  0  0  0  0  0  0  0
  179.0060  176.4820  141.4020 O   0  0  0  0  0  0  0  0  0  0  0  0
  181.5620  177.1430  135.6160 C   0  0  0  0  0  1  0  0  0  0  0  0
  180.9170  175.4510  138.6660 S   0  0  0  0  0  0  0  0  0  0  0  0
  180.2190  177.6760  137.4570 C   0  0  2  0  0  3  0  0  0  0  0  0
  180.6320  175.3960  136.8740 C   0  0  0  0  0  2  0  0  0  0  0  0
  180.3770  176.7360  136.3500 N   0  0  0  0  0  0  0  0  0  0  0  0
  179.8930  176.9210  138.7270 C   0  0  2  0  0  3  0  0  0  0  0  0
  179.1040  178.6680  137.1470 C   0  0  0  0  0  2  0  0  0  0  0  0
  180.6990  180.3420  137.6100 O   0  0  0  0  0  0  0  0  0  0  0  0
  179.6230  180.0670  137.1000 C   0  0  0  0  0  3  0  0  0  0  0  0
  186.1870  176.6360  136.8820 C   0  0  0  0  0  2  0  0  0  0  0  0
  186.8690  175.2950  137.1240 C   0  0  0  0  0  2  0  0  0  0  0  0
  186.4190  174.2460  136.1160 C   0  0  2  0  0  3  0  0  0  0  0  0
  186.3230  174.8200  134.8450 O   0  0  0  0  0  1  0  0  0  0  0  0
  185.0230  172.1950  136.8650 C   0  0  2  0  0  3  0  0  0  0  0  0
  184.9300  173.2520  137.9610 C   0  0  0  0  0  2  0  0  0  0  0  0
  183.9060  174.2600  136.0010 O   0  0  0  0  0  1  0  0  0  0  0  0
  185.0660  173.6750  136.5190 C   0  0  1  0  0  0  0  0  0  0  0  0
  183.6990  171.5990  136.6410 C   0  0  0  0  0  0  0  0  0  0  0  0
  182.6560  171.1280  136.4770 N   0  0  0  0  0  0  0  0  0  0  0  0
  1  5  1  0  0  0  0
  2  8  1  6  0  0  0
  2 14  1  0  0  0  0
  2  7  1  0  0  0  0
  3 15  1  1  0  0  0
  3  9  1  0  0  0  0
  4 11  1  0  0  0  0
  5 19  1  0  0  0  0
  6  8  1  0  0  0  0
  7 17  1  0  0  0  0
  7 37  1  1  0  0  0
  9  4  1  6  0  0  0
  9 18  1  0  0  0  0
 10 12  1  0  0  0  0
 10  6  1  0  0  0  0
 11 16  1  1  0  0  0
 12 52  1  6  0  0  0
 12  1  1  0  0  0  0
 14  7  1  0  0  0  0
 15 18  1  0  0  0  0
 17 11  1  0  0  0  0
 18 13  2  0  0  0  0
 19 20  1  6  0  0  0
 19  3  1  0  0  0  0
 20 21  2  0  0  0  0
 22 20  1  0  0  0  0
 23 25  1  0  0  0  0
 23 26  1  0  0  0  0
 24 30  1  0  0  0  0
 25 31  1  6  0  0  0
 25 28  1  0  0  0  0
 26 24  1  0  0  0  0
 27 23  2  0  0  0  0
 28 29  1  0  0  0  0
 30 29  1  0  0  0  0
 30 22  1  1  0  0  0
 31 35  1  1  0  0  0
 31 33  1  0  0  0  0
 32 33  1  0  0  0  0
 35 34  1  0  0  0  0
 37 36  1  6  0  0  0
 38 39  1  0  0  0  0
 38 37  1  0  0  0  0
 40 41  1  0  0  0  0
 41 42  2  0  0  0  0
 41 39  1  0  0  0  0
 43 47  1  0  0  0  0
 44 48  1  0  0  0  0
 45 49  1  6  0  0  0
 45 48  1  0  0  0  0
 46 44  1  0  0  0  0
 47 46  1  0  0  0  0
 47 45  1  0  0  0  0
 48 40  1  1  0  0  0
 51 49  1  0  0  0  0
 51 50  2  0  0  0  0
 52 53  1  0  0  0  0
 54 55  1  6  0  0  0
 54 59  1  0  0  0  0
 54 53  1  0  0  0  0
 56 60  1  6  0  0  0
 56 57  1  0  0  0  0
 59 58  1  6  0  0  0
 59 56  1  0  0  0  0
 59 57  1  0  0  0  0
 61 60  3  0  0  0  0
M  END
>  <MODEL>
6

>  <REMARK>
 VINA RESULT:      -5.3      2.782      8.053
  Name = 
  17 active torsions:
  status: ('A' for Active; 'I' for Inactive)
    1  A    between atoms: N_4  and  C_53
    2  A    between atoms: C_6  and  C_8
    3  A    between atoms: C_9  and  C_14
    4  A    between atoms: C_9  and  C_39
    5  A    between atoms: C_11  and  O_48
    6  A    between atoms: C_11  and  C_54
    7  A    between atoms: C_14  and  C_50
    8  A    between atoms: C_20  and  C_55
    9  A    between atoms: C_22  and  C_24
   10  A    between atoms: C_22  and  O_45
   11  A    between atoms: C_22  and  C_59
   12  A    between atoms: C_29  and  C_39
   13  A    between atoms: C_35  and  C_42
   14  A    between atoms: C_35  and  C_52
   15  A    between atoms: N_40  and  C_61
   16  A    between atoms: O_48  and  C_60
   17  A    between atoms: C_53  and  C_55
                            x       y       z     vdW  Elec       q    Type
                         _______ _______ _______ _____ _____    ______ ____

>  <TORSDO>
F 17

$$$$
=
 OpenBabel10222416073D

 61 66  0  0  1  0  0  0  0  0999 V2000
  184.2100  176.7960  136.9750 C   0  0  0  0  0  2  0  0  0  0  0  0
  182.4790  178.4290  140.5490 C   0  0  1  0  0  3  0  0  0  0  0  0
  187.5420  178.4920  137.5240 C   0  0  1  0  0  3  0  0  0  0  0  0
  186.8320  177.4920  139.7370 C   0  0  0  0  0  2  0  0  0  0  0  0
  185.2060  177.9300  136.8230 C   0  0  0  0  0  2  0  0  0  0  0  0
  181.7180  178.1090  138.1920 C   0  0  0  0  0  2  0  0  0  0  0  0
  183.7560  178.4740  141.3940 C   0  0  1  0  0  0  0  0  0  0  0  0
  182.7190  178.8050  139.0930 C   0  0  0  0  0  2  0  0  0  0  0  0
  187.5430  178.6140  138.9730 C   0  0  1  0  0  3  0  0  0  0  0  0
  182.1430  178.2830  136.7390 C   0  0  0  0  0  2  0  0  0  0  0  0
  186.1940  177.9830  141.0330 C   0  0  1  0  0  3  0  0  0  0  0  0
  182.9300  177.0870  136.1940 C   0  0  2  0  0  3  0  0  0  0  0  0
  189.9530  178.2550  139.8220 N   0  0  0  0  0  2  0  0  0  0  0  0
  183.2290  177.1460  140.8740 C   0  0  0  0  0  2  0  0  0  0  0  0
  188.9400  178.1160  137.4790 N   0  0  0  0  0  2  0  0  0  0  0  0
  187.1750  178.6120  141.8990 N   0  0  0  0  0  1  0  0  0  0  0  0
  185.0510  178.9450  140.7390 C   0  0  0  0  0  2  0  0  0  0  0  0
  189.0110  178.3130  138.9390 C   0  0  0  0  0  0  0  0  0  0  0  0
  186.6310  177.4030  136.9310 C   0  0  1  0  0  3  0  0  0  0  0  0
  187.1060  176.9670  135.5760 C   0  0  0  0  0  0  0  0  0  0  0  0
  187.1960  177.8570  134.5940 C   0  0  0  0  0  2  0  0  0  0  0  0
  187.4390  175.6340  135.3390 O   0  0  0  0  0  0  0  0  0  0  0  0
  191.2910  173.8750  136.2150 C   0  0  0  0  0  0  0  0  0  0  0  0
  188.8280  174.1890  136.7010 C   0  0  0  0  0  2  0  0  0  0  0  0
  191.9300  175.2010  135.8970 C   0  0  2  0  0  3  0  0  0  0  0  0
  190.2240  173.8840  137.2640 C   0  0  0  0  0  2  0  0  0  0  0  0
  191.3570  172.8520  135.3620 C   0  0  0  0  0  2  0  0  0  0  0  0
  191.0380  176.0570  134.9940 C   0  0  0  0  0  2  0  0  0  0  0  0
  189.6990  176.3620  135.6600 C   0  0  0  0  0  2  0  0  0  0  0  0
  188.7670  175.1670  135.5130 C   0  0  2  0  0  3  0  0  0  0  0  0
  193.3810  175.0850  135.4020 C   0  0  1  0  0  3  0  0  0  0  0  0
  194.6710  176.7580  135.7980 O   0  0  0  0  0  1  0  0  0  0  0  0
  193.8440  176.2980  134.8790 O   0  0  0  0  0  0  0  0  0  0  0  0
  195.0900  173.5040  136.0270 O   0  0  0  0  0  1  0  0  0  0  0  0
  194.3120  174.5660  136.4970 C   0  0  0  0  0  2  0  0  0  0  0  0
  182.2890  179.1630  143.2110 O   0  0  0  0  0  1  0  0  0  0  0  0
  183.5830  178.7420  142.8940 C   0  0  2  0  0  3  0  0  0  0  0  0
  184.6120  179.7350  143.4160 C   0  0  0  0  0  2  0  0  0  0  0  0
  184.6940  179.6680  144.8680 N   0  0  0  0  0  2  0  0  0  0  0  0
  186.5460  178.0110  144.8400 N   0  0  0  0  0  2  0  0  0  0  0  0
  185.6540  178.8690  145.5630 C   0  0  0  0  0  0  0  0  0  0  0  0
  185.7090  178.9310  146.8180 O   0  0  0  0  0  0  0  0  0  0  0  0
  191.0120  177.8370  145.2950 C   0  0  0  0  0  1  0  0  0  0  0  0
  187.9530  177.9110  147.0900 S   0  0  0  0  0  0  0  0  0  0  0  0
  188.8320  177.2140  144.7140 C   0  0  2  0  0  3  0  0  0  0  0  0
  189.5670  177.0880  146.9840 C   0  0  0  0  0  2  0  0  0  0  0  0
  189.9550  176.8860  145.5890 N   0  0  0  0  0  0  0  0  0  0  0  0
  187.5410  177.1850  145.5040 C   0  0  2  0  0  3  0  0  0  0  0  0
  188.7560  176.2190  143.5630 C   0  0  0  0  0  2  0  0  0  0  0  0
  190.5050  175.7960  142.0390 O   0  0  0  0  0  0  0  0  0  0  0  0
  190.1110  175.7150  143.1930 C   0  0  0  0  0  3  0  0  0  0  0  0
  182.0410  175.8490  136.1090 C   0  0  0  0  0  2  0  0  0  0  0  0
  182.6970  174.6300  136.7470 C   0  0  0  0  0  2  0  0  0  0  0  0
  181.9800  173.3420  136.3640 C   0  0  2  0  0  3  0  0  0  0  0  0
  180.9350  173.0950  137.2590 O   0  0  0  0  0  1  0  0  0  0  0  0
  184.2910  172.3810  135.6910 C   0  0  2  0  0  3  0  0  0  0  0  0
  184.2000  172.3630  137.2130 C   0  0  0  0  0  2  0  0  0  0  0  0
  182.4430  170.8710  136.4430 O   0  0  0  0  0  1  0  0  0  0  0  0
  182.9540  172.1720  136.3840 C   0  0  1  0  0  0  0  0  0  0  0  0
  184.8870  171.1240  135.2170 C   0  0  0  0  0  0  0  0  0  0  0  0
  185.3550  170.1300  134.8560 N   0  0  0  0  0  0  0  0  0  0  0  0
  2  8  1  6  0  0  0
  2 14  1  0  0  0  0
  2  7  1  0  0  0  0
  3 15  1  1  0  0  0
  3  9  1  0  0  0  0
  4 11  1  0  0  0  0
  5 19  1  0  0  0  0
  5  1  1  0  0  0  0
  6  8  1  0  0  0  0
  7 37  1  1  0  0  0
  9  4  1  1  0  0  0
 10  6  1  0  0  0  0
 11 16  1  1  0  0  0
 12 52  1  1  0  0  0
 12 10  1  0  0  0  0
 12  1  1  0  0  0  0
 14  7  1  0  0  0  0
 15 18  1  0  0  0  0
 17 11  1  0  0  0  0
 17  7  1  0  0  0  0
 18  9  1  0  0  0  0
 18 13  2  0  0  0  0
 19 20  1  6  0  0  0
 19  3  1  0  0  0  0
 21 20  2  0  0  0  0
 22 20  1  0  0  0  0
 23 26  1  0  0  0  0
 24 26  1  0  0  0  0
 25 31  1  6  0  0  0
 25 23  1  0  0  0  0
 27 23  2  0  0  0  0
 28 29  1  0  0  0  0
 28 25  1  0  0  0  0
 30 22  1  1  0  0  0
 30 29  1  0  0  0  0
 30 24  1  0  0  0  0
 31 35  1  1  0  0  0
 33 31  1  0  0  0  0
 33 32  1  0  0  0  0
 34 35  1  0  0  0  0
 37 36  1  6  0  0  0
 37 38  1  0  0  0  0
 38 39  1  0  0  0  0
 39 41  1  0  0  0  0
 40 41  1  0  0  0  0
 41 42  2  0  0  0  0
 43 47  1  0  0  0  0
 45 49  1  6  0  0  0
 45 48  1  0  0  0  0
 45 47  1  0  0  0  0
 46 44  1  0  0  0  0
 47 46  1  0  0  0  0
 48 40  1  6  0  0  0
 48 44  1  0  0  0  0
 50 51  2  0  0  0  0
 51 49  1  0  0  0  0
 52 53  1  0  0  0  0
 54 59  1  0  0  0  0
 54 53  1  0  0  0  0
 54 55  1  1  0  0  0
 56 60  1  6  0  0  0
 56 59  1  0  0  0  0
 56 57  1  0  0  0  0
 59 58  1  6  0  0  0
 59 57  1  0  0  0  0
 61 60  3  0  0  0  0
M  END
>  <MODEL>
7

>  <REMARK>
 VINA RESULT:      -5.0      3.079      9.776
  Name = 
  17 active torsions:
  status: ('A' for Active; 'I' for Inactive)
    1  A    between atoms: N_4  and  C_53
    2  A    between atoms: C_6  and  C_8
    3  A    between atoms: C_9  and  C_14
    4  A    between atoms: C_9  and  C_39
    5  A    between atoms: C_11  and  O_48
    6  A    between atoms: C_11  and  C_54
    7  A    between atoms: C_14  and  C_50
    8  A    between atoms: C_20  and  C_55
    9  A    between atoms: C_22  and  C_24
   10  A    between atoms: C_22  and  O_45
   11  A    between atoms: C_22  and  C_59
   12  A    between atoms: C_29  and  C_39
   13  A    between atoms: C_35  and  C_42
   14  A    between atoms: C_35  and  C_52
   15  A    between atoms: N_40  and  C_61
   16  A    between atoms: O_48  and  C_60
   17  A    between atoms: C_53  and  C_55
                            x       y       z     vdW  Elec       q    Type
                         _______ _______ _______ _____ _____    ______ ____

>  <TORSDO>
F 17

$$$$
=
 OpenBabel10222416073D

 61 66  0  0  1  0  0  0  0  0999 V2000
  184.7590  177.8040  141.1490 C   0  0  0  0  0  2  0  0  0  0  0  0
  188.9240  178.2000  140.1800 C   0  0  1  0  0  3  0  0  0  0  0  0
  183.6380  178.2030  137.5620 C   0  0  1  0  0  3  0  0  0  0  0  0
  185.5940  176.5980  137.5650 C   0  0  0  0  0  2  0  0  0  0  0  0
  184.3030  178.6010  139.9420 C   0  0  0  0  0  2  0  0  0  0  0  0
  187.4230  179.0890  141.9670 C   0  0  0  0  0  2  0  0  0  0  0  0
  188.8720  177.5620  138.7880 C   0  0  1  0  0  0  0  0  0  0  0  0
  187.7090  179.0680  140.4790 C   0  0  0  0  0  2  0  0  0  0  0  0
  184.8120  177.7120  136.8600 C   0  0  1  0  0  3  0  0  0  0  0  0
  186.0630  179.7320  142.2090 C   0  0  0  0  0  2  0  0  0  0  0  0
  187.0890  176.6560  137.2670 C   0  0  1  0  0  3  0  0  0  0  0  0
  184.9330  178.7090  142.3670 C   0  0  2  0  0  3  0  0  0  0  0  0
  184.0320  176.4280  134.7620 N   0  0  0  0  0  2  0  0  0  0  0  0
  188.4870  176.7520  140.0150 C   0  0  0  0  0  2  0  0  0  0  0  0
  182.7250  177.5340  136.6600 N   0  0  0  0  0  2  0  0  0  0  0  0
  187.3440  176.5960  135.8390 N   0  0  0  0  0  1  0  0  0  0  0  0
  187.7090  177.9120  137.8650 C   0  0  0  0  0  2  0  0  0  0  0  0
  183.8830  177.0850  135.8650 C   0  0  0  0  0  0  0  0  0  0  0  0
  183.4650  177.7300  139.0160 C   0  0  1  0  0  3  0  0  0  0  0  0
  182.0270  177.7860  139.4440 C   0  0  0  0  0  0  0  0  0  0  0  0
  181.4800  178.9560  139.7590 C   0  0  0  0  0  2  0  0  0  0  0  0
  181.2680  176.6200  139.5280 O   0  0  0  0  0  0  0  0  0  0  0  0
  179.9250  174.4200  136.0560 C   0  0  0  0  0  0  0  0  0  0  0  0
  179.4700  175.8090  138.1200 C   0  0  0  0  0  2  0  0  0  0  0  0
  180.9760  173.3810  136.3510 C   0  0  2  0  0  3  0  0  0  0  0  0
  178.9620  174.7250  137.1590 C   0  0  0  0  0  2  0  0  0  0  0  0
  180.0780  175.2980  135.0640 C   0  0  0  0  0  2  0  0  0  0  0  0
  182.1150  173.9540  137.1990 C   0  0  0  0  0  2  0  0  0  0  0  0
  181.6070  174.4610  138.5450 C   0  0  0  0  0  2  0  0  0  0  0  0
  180.9880  175.8420  138.3750 C   0  0  2  0  0  3  0  0  0  0  0  0
  181.4550  172.6170  135.1070 C   0  0  1  0  0  3  0  0  0  0  0  0
  183.4430  171.9770  134.5940 O   0  0  0  0  0  1  0  0  0  0  0  0
  182.7080  173.0690  134.6760 O   0  0  0  0  0  0  0  0  0  0  0  0
  180.1760  170.5770  135.2330 O   0  0  0  0  0  1  0  0  0  0  0  0
  181.4660  171.1060  135.3400 C   0  0  0  0  0  2  0  0  0  0  0  0
  190.1040  177.0320  136.7550 O   0  0  0  0  0  1  0  0  0  0  0  0
  190.2180  177.2210  138.1340 C   0  0  2  0  0  3  0  0  0  0  0  0
  190.8760  176.0130  138.7870 C   0  0  0  0  0  2  0  0  0  0  0  0
  190.9480  174.9030  137.8480 N   0  0  0  0  0  2  0  0  0  0  0  0
  193.3770  175.2160  137.4280 N   0  0  0  0  0  2  0  0  0  0  0  0
  192.1610  174.4860  137.2190 C   0  0  0  0  0  0  0  0  0  0  0  0
  192.1510  173.4650  136.4830 O   0  0  0  0  0  0  0  0  0  0  0  0
  195.6720  171.4540  136.5550 C   0  0  0  0  0  1  0  0  0  0  0  0
  194.3500  174.4030  135.0950 S   0  0  0  0  0  0  0  0  0  0  0  0
  195.1360  173.5490  137.4510 C   0  0  2  0  0  3  0  0  0  0  0  0
  195.8190  173.3410  135.1700 C   0  0  0  0  0  2  0  0  0  0  0  0
  196.0390  172.8580  136.5330 N   0  0  0  0  0  0  0  0  0  0  0  0
  194.6360  174.8260  136.8130 C   0  0  2  0  0  3  0  0  0  0  0  0
  195.8600  173.8710  138.7530 C   0  0  0  0  0  2  0  0  0  0  0  0
  197.6930  175.2550  138.2190 O   0  0  0  0  0  0  0  0  0  0  0  0
  197.3100  174.1330  138.5160 C   0  0  0  0  0  3  0  0  0  0  0  0
  185.1180  177.8900  143.6420 C   0  0  0  0  0  2  0  0  0  0  0  0
  185.3220  178.7770  144.8650 C   0  0  0  0  0  2  0  0  0  0  0  0
  185.5210  177.9520  146.1290 C   0  0  2  0  0  3  0  0  0  0  0  0
  184.6860  178.4280  147.1440 O   0  0  0  0  0  1  0  0  0  0  0  0
  187.9600  177.1050  145.8940 C   0  0  2  0  0  3  0  0  0  0  0  0
  187.9490  178.6000  145.5870 C   0  0  0  0  0  2  0  0  0  0  0  0
  187.2430  178.4100  147.9050 O   0  0  0  0  0  1  0  0  0  0  0  0
  186.9710  178.0310  146.5860 C   0  0  1  0  0  0  0  0  0  0  0  0
  189.1190  176.7820  146.7360 C   0  0  0  0  0  0  0  0  0  0  0  0
  190.0390  176.5250  147.3890 N   0  0  0  0  0  0  0  0  0  0  0  0
  1 12  1  0  0  0  0
  2 14  1  1  0  0  0
  2  8  1  0  0  0  0
  3 15  1  6  0  0  0
  3 19  1  0  0  0  0
  5  1  1  0  0  0  0
  6 10  1  0  0  0  0
  7 37  1  6  0  0  0
  7 14  1  0  0  0  0
  7  2  1  0  0  0  0
  8  6  1  0  0  0  0
  9  3  1  0  0  0  0
  9  4  1  1  0  0  0
 10 12  1  0  0  0  0
 11 16  1  6  0  0  0
 11  4  1  0  0  0  0
 11 17  1  0  0  0  0
 12 52  1  1  0  0  0
 13 18  2  0  0  0  0
 17  7  1  0  0  0  0
 18 15  1  0  0  0  0
 18  9  1  0  0  0  0
 19 20  1  1  0  0  0
 19  5  1  0  0  0  0
 20 22  1  0  0  0  0
 20 21  2  0  0  0  0
 23 25  1  0  0  0  0
 23 26  1  0  0  0  0
 24 30  1  0  0  0  0
 25 31  1  6  0  0  0
 25 28  1  0  0  0  0
 26 24  1  0  0  0  0
 27 23  2  0  0  0  0
 28 29  1  0  0  0  0
 30 29  1  0  0  0  0
 30 22  1  1  0  0  0
 31 35  1  1  0  0  0
 32 33  1  0  0  0  0
 33 31  1  0  0  0  0
 34 35  1  0  0  0  0
 37 36  1  6  0  0  0
 37 38  1  0  0  0  0
 39 38  1  0  0  0  0
 41 40  1  0  0  0  0
 41 39  1  0  0  0  0
 42 41  2  0  0  0  0
 44 46  1  0  0  0  0
 44 48  1  0  0  0  0
 45 49  1  1  0  0  0
 46 47  1  0  0  0  0
 47 43  1  0  0  0  0
 47 45  1  0  0  0  0
 48 40  1  1  0  0  0
 48 45  1  0  0  0  0
 50 51  2  0  0  0  0
 51 49  1  0  0  0  0
 52 53  1  0  0  0  0
 53 54  1  0  0  0  0
 54 59  1  0  0  0  0
 54 55  1  1  0  0  0
 56 59  1  0  0  0  0
 56 60  1  1  0  0  0
 57 56  1  0  0  0  0
 57 59  1  0  0  0  0
 59 58  1  1  0  0  0
 60 61  3  0  0  0  0
M  END
>  <MODEL>
8

>  <REMARK>
 VINA RESULT:      -4.8      3.321     11.491
  Name = 
  17 active torsions:
  status: ('A' for Active; 'I' for Inactive)
    1  A    between atoms: N_4  and  C_53
    2  A    between atoms: C_6  and  C_8
    3  A    between atoms: C_9  and  C_14
    4  A    between atoms: C_9  and  C_39
    5  A    between atoms: C_11  and  O_48
    6  A    between atoms: C_11  and  C_54
    7  A    between atoms: C_14  and  C_50
    8  A    between atoms: C_20  and  C_55
    9  A    between atoms: C_22  and  C_24
   10  A    between atoms: C_22  and  O_45
   11  A    between atoms: C_22  and  C_59
   12  A    between atoms: C_29  and  C_39
   13  A    between atoms: C_35  and  C_42
   14  A    between atoms: C_35  and  C_52
   15  A    between atoms: N_40  and  C_61
   16  A    between atoms: O_48  and  C_60
   17  A    between atoms: C_53  and  C_55
                            x       y       z     vdW  Elec       q    Type
                         _______ _______ _______ _____ _____    ______ ____

>  <TORSDO>
F 17

$$$$
=
 OpenBabel10222416073D

 61 66  0  0  1  0  0  0  0  0999 V2000
  191.7500  175.2180  137.9290 C   0  0  0  0  0  2  0  0  0  0  0  0
  189.1290  174.2480  134.6690 C   0  0  1  0  0  3  0  0  0  0  0  0
  189.7300  178.2350  138.9750 C   0  0  1  0  0  3  0  0  0  0  0  0
  188.0990  176.3490  138.5440 C   0  0  0  0  0  2  0  0  0  0  0  0
  191.3870  176.6900  137.9110 C   0  0  0  0  0  2  0  0  0  0  0  0
  191.6030  174.3450  134.9910 C   0  0  0  0  0  2  0  0  0  0  0  0
  187.8240  174.7460  135.3000 C   0  0  1  0  0  0  0  0  0  0  0  0
  190.3170  175.1470  134.9810 C   0  0  0  0  0  2  0  0  0  0  0  0
  188.4110  177.8490  138.5020 C   0  0  1  0  0  3  0  0  0  0  0  0
  192.7260  175.2000  135.5640 C   0  0  0  0  0  2  0  0  0  0  0  0
  187.1600  175.9160  137.4220 C   0  0  1  0  0  3  0  0  0  0  0  0
  192.9740  174.9470  137.0560 C   0  0  2  0  0  3  0  0  0  0  0  0
  186.6550  178.7020  140.1890 N   0  0  0  0  0  2  0  0  0  0  0  0
  188.6110  173.6230  135.9550 C   0  0  0  0  0  2  0  0  0  0  0  0
  189.2100  178.7810  140.2110 N   0  0  0  0  0  2  0  0  0  0  0  0
  185.9190  176.6700  137.4530 N   0  0  0  0  0  1  0  0  0  0  0  0
  187.8380  176.0650  136.0670 C   0  0  0  0  0  2  0  0  0  0  0  0
  187.8450  178.4880  139.7330 C   0  0  0  0  0  0  0  0  0  0  0  0
  190.7280  177.0900  139.2240 C   0  0  1  0  0  3  0  0  0  0  0  0
  191.7850  177.4880  140.2130 C   0  0  0  0  0  0  0  0  0  0  0  0
  193.0540  177.1660  139.9830 C   0  0  0  0  0  2  0  0  0  0  0  0
  191.4420  178.1780  141.3740 O   0  0  0  0  0  0  0  0  0  0  0  0
  190.8670  175.6810  144.8570 C   0  0  0  0  0  0  0  0  0  0  0  0
  190.8100  176.0550  142.3560 C   0  0  0  0  0  2  0  0  0  0  0  0
  190.2870  176.8740  145.5720 C   0  0  2  0  0  3  0  0  0  0  0  0
  190.2220  175.3060  143.5600 C   0  0  0  0  0  2  0  0  0  0  0  0
  192.0980  175.2450  145.1230 C   0  0  0  0  0  2  0  0  0  0  0  0
  190.7550  178.1910  144.9480 C   0  0  0  0  0  2  0  0  0  0  0  0
  190.3230  178.3010  143.4890 C   0  0  0  0  0  2  0  0  0  0  0  0
  191.2740  177.5010  142.6090 C   0  0  2  0  0  3  0  0  0  0  0  0
  190.4550  176.8190  147.1000 C   0  0  1  0  0  3  0  0  0  0  0  0
  192.1570  175.9860  148.1140 O   0  0  0  0  0  1  0  0  0  0  0  0
  191.7760  177.0790  147.4810 O   0  0  0  0  0  0  0  0  0  0  0  0
  188.1850  177.2350  147.7990 O   0  0  0  0  0  1  0  0  0  0  0  0
  189.4810  177.7600  147.8100 C   0  0  0  0  0  2  0  0  0  0  0  0
  185.5190  175.3100  134.7550 O   0  0  0  0  0  1  0  0  0  0  0  0
  186.5210  174.3500  134.5940 C   0  0  2  0  0  3  0  0  0  0  0  0
  186.0270  172.9800  135.0410 C   0  0  0  0  0  2  0  0  0  0  0  0
  185.5880  173.0260  136.4280 N   0  0  0  0  0  2  0  0  0  0  0  0
  183.3090  172.1910  135.8940 N   0  0  0  0  0  2  0  0  0  0  0  0
  184.2900  172.6060  136.8540 C   0  0  0  0  0  0  0  0  0  0  0  0
  184.0190  172.6010  138.0820 O   0  0  0  0  0  0  0  0  0  0  0  0
  179.0440  172.9270  134.6900 C   0  0  0  0  0  1  0  0  0  0  0  0
  181.4710  170.3960  135.2230 S   0  0  0  0  0  0  0  0  0  0  0  0
  180.9810  172.8570  136.0020 C   0  0  2  0  0  3  0  0  0  0  0  0
  179.7470  170.8610  135.5480 C   0  0  0  0  0  2  0  0  0  0  0  0
  179.6440  172.2880  135.8470 N   0  0  0  0  0  0  0  0  0  0  0  0
  181.9780  171.7530  136.2800 C   0  0  2  0  0  3  0  0  0  0  0  0
  180.9930  173.8630  137.1470 C   0  0  0  0  0  2  0  0  0  0  0  0
  179.7410  175.8360  136.8270 O   0  0  0  0  0  0  0  0  0  0  0  0
  180.8020  175.2550  136.6450 C   0  0  0  0  0  3  0  0  0  0  0  0
  193.5140  173.5370  137.2820 C   0  0  0  0  0  2  0  0  0  0  0  0
  194.5530  173.1490  136.2360 C   0  0  0  0  0  2  0  0  0  0  0  0
  195.8420  172.6600  136.8810 C   0  0  2  0  0  3  0  0  0  0  0  0
  195.5890  171.5160  137.6440 O   0  0  0  0  0  1  0  0  0  0  0  0
  197.7980  174.2850  137.3880 C   0  0  2  0  0  3  0  0  0  0  0  0
  196.5410  175.1190  137.1570 C   0  0  0  0  0  2  0  0  0  0  0  0
  196.0720  173.7720  139.1260 O   0  0  0  0  0  1  0  0  0  0  0  0
  196.4290  173.7460  137.7730 C   0  0  1  0  0  0  0  0  0  0  0  0
  198.5410  174.8180  138.5370 C   0  0  0  0  0  0  0  0  0  0  0  0
  199.1290  175.2500  139.4350 N   0  0  0  0  0  0  0  0  0  0  0  0
  2  8  1  1  0  0  0
  2  7  1  0  0  0  0
  2 14  1  0  0  0  0
  3 19  1  0  0  0  0
  3 15  1  1  0  0  0
  5  1  1  0  0  0  0
  5 19  1  0  0  0  0
  6 10  1  0  0  0  0
  7 37  1  6  0  0  0
  7 14  1  0  0  0  0
  7 17  1  0  0  0  0
  8  6  1  0  0  0  0
  9  4  1  1  0  0  0
  9  3  1  0  0  0  0
  9 18  1  0  0  0  0
 10 12  1  0  0  0  0
 11 16  1  6  0  0  0
 11  4  1  0  0  0  0
 12 52  1  6  0  0  0
 12  1  1  0  0  0  0
 17 11  1  0  0  0  0
 18 13  2  0  0  0  0
 18 15  1  0  0  0  0
 19 20  1  1  0  0  0
 20 22  1  0  0  0  0
 21 20  2  0  0  0  0
 23 27  2  0  0  0  0
 23 25  1  0  0  0  0
 24 30  1  0  0  0  0
 24 26  1  0  0  0  0
 25 31  1  1  0  0  0
 26 23  1  0  0  0  0
 28 25  1  0  0  0  0
 29 28  1  0  0  0  0
 30 22  1  6  0  0  0
 30 29  1  0  0  0  0
 31 33  1  0  0  0  0
 31 35  1  1  0  0  0
 33 32  1  0  0  0  0
 34 35  1  0  0  0  0
 37 36  1  1  0  0  0
 37 38  1  0  0  0  0
 38 39  1  0  0  0  0
 39 41  1  0  0  0  0
 40 41  1  0  0  0  0
 41 42  2  0  0  0  0
 43 47  1  0  0  0  0
 44 46  1  0  0  0  0
 44 48  1  0  0  0  0
 45 48  1  0  0  0  0
 45 49  1  1  0  0  0
 46 47  1  0  0  0  0
 47 45  1  0  0  0  0
 48 40  1  6  0  0  0
 51 50  2  0  0  0  0
 51 49  1  0  0  0  0
 53 54  1  0  0  0  0
 53 52  1  0  0  0  0
 54 55  1  1  0  0  0
 54 59  1  0  0  0  0
 56 59  1  0  0  0  0
 56 60  1  1  0  0  0
 57 56  1  0  0  0  0
 57 59  1  0  0  0  0
 59 58  1  1  0  0  0
 60 61  3  0  0  0  0
M  END
>  <MODEL>
9

>  <REMARK>
 VINA RESULT:      -4.6      2.389      3.203
  Name = 
  17 active torsions:
  status: ('A' for Active; 'I' for Inactive)
    1  A    between atoms: N_4  and  C_53
    2  A    between atoms: C_6  and  C_8
    3  A    between atoms: C_9  and  C_14
    4  A    between atoms: C_9  and  C_39
    5  A    between atoms: C_11  and  O_48
    6  A    between atoms: C_11  and  C_54
    7  A    between atoms: C_14  and  C_50
    8  A    between atoms: C_20  and  C_55
    9  A    between atoms: C_22  and  C_24
   10  A    between atoms: C_22  and  O_45
   11  A    between atoms: C_22  and  C_59
   12  A    between atoms: C_29  and  C_39
   13  A    between atoms: C_35  and  C_42
   14  A    between atoms: C_35  and  C_52
   15  A    between atoms: N_40  and  C_61
   16  A    between atoms: O_48  and  C_60
   17  A    between atoms: C_53  and  C_55
                            x       y       z     vdW  Elec       q    Type
                         _______ _______ _______ _____ _____    ______ ____

>  <TORSDO>
F 17

$$$$
