=
 OpenBabel10222415243D

 47 49  0  0  1  0  0  0  0  0999 V2000
  187.2280  178.3930  143.9100 C   0  0  1  0  0  3  0  0  0  0  0  0
  189.6580  178.2510  144.3240 C   0  0  0  0  0  3  0  0  0  0  0  0
  191.1270  177.9380  144.1320 C   0  0  2  0  0  3  0  0  0  0  0  0
  189.8190  177.3620  141.3960 C   0  0  0  0  0  0  0  0  0  0  0  0
  188.7010  177.0140  142.3400 C   0  0  0  0  0  2  0  0  0  0  0  0
  191.4340  176.7950  143.1710 C   0  0  0  0  0  2  0  0  0  0  0  0
  191.0930  177.2180  141.7770 C   0  0  0  0  0  3  0  0  0  0  0  0
  188.6100  177.9280  143.5330 C   0  0  0  0  0  0  0  0  0  0  0  0
  189.5260  177.8410  140.0070 C   0  0  2  0  0  3  0  0  0  0  0  0
  188.0860  177.4770  139.6000 C   0  0  0  0  0  2  0  0  0  0  0  0
  188.8240  176.0300  137.6680 C   0  0  1  0  0  3  0  0  0  0  0  0
  190.9110  175.0690  138.4520 N   0  0  0  0  0  2  0  0  0  0  0  0
  190.6090  177.3860  139.0110 C   0  0  0  0  0  2  0  0  0  0  0  0
  190.2050  176.1300  138.2940 C   0  0  0  0  0  0  0  0  0  0  0  0
  187.9640  177.2360  138.0990 C   0  0  0  0  0  2  0  0  0  0  0  0
  187.6710  176.4690  135.6240 C   0  0  0  0  0  1  0  0  0  0  0  0
  189.9550  176.8250  135.7190 C   0  0  0  0  0  1  0  0  0  0  0  0
  188.9020  175.9360  136.2000 N   0  0  0  0  0  0  0  0  0  0  0  0
  191.7400  177.6660  145.4300 N   0  0  0  0  0  2  0  0  0  0  0  0
  191.1580  176.4760  146.0550 C   0  0  0  0  0  3  0  0  0  0  0  0
  190.1550  176.8300  147.1450 C   0  0  0  0  0  1  0  0  0  0  0  0
  192.2250  175.5250  146.5730 C   0  0  0  0  0  1  0  0  0  0  0  0
  186.1810  178.0180  142.8580 C   0  0  1  0  0  3  0  0  0  0  0  0
  185.2070  177.1690  143.3940 O   0  0  0  0  0  1  0  0  0  0  0  0
  185.5500  179.2170  142.3320 N   0  0  0  0  0  2  0  0  0  0  0  0
  185.5970  179.1310  140.8800 C   0  0  0  0  0  2  0  0  0  0  0  0
  182.0680  176.9480  139.7990 C   0  0  0  0  0  2  0  0  0  0  0  0
  184.2600  178.7300  140.3510 C   0  0  0  0  0  0  0  0  0  0  0  0
  184.1260  178.2590  138.9300 C   0  0  0  0  0  2  0  0  0  0  0  0
  183.1790  178.7320  141.1410 C   0  0  0  0  0  3  0  0  0  0  0  0
  181.8690  178.2580  140.5770 C   0  0  2  0  0  3  0  0  0  0  0  0
  183.3120  176.9580  138.8760 C   0  0  2  0  0  3  0  0  0  0  0  0
  180.9730  179.2640  142.3330 C   0  0  0  0  0  1  0  0  0  0  0  0
  180.9440  178.0720  141.6080 O   0  0  0  0  0  0  0  0  0  0  0  0
  182.9560  176.6070  137.4320 C   0  0  1  0  0  3  0  0  0  0  0  0
  182.8730  177.7730  136.6670 O   0  0  0  0  0  0  0  0  0  0  0  0
  182.0010  177.4560  135.6230 C   0  0  0  0  0  1  0  0  0  0  0  0
  183.9230  175.7530  136.8780 O   0  0  0  0  0  0  0  0  0  0  0  0
  182.7890  173.9530  136.0640 O   0  0  0  0  0  1  0  0  0  0  0  0
  183.4830  174.4560  137.1650 C   0  0  1  0  0  3  0  0  0  0  0  0
  184.4650  172.3290  137.6330 O   0  0  0  0  0  1  0  0  0  0  0  0
  184.6480  173.5680  137.4690 C   0  0  0  0  0  0  0  0  0  0  0  0
  185.9360  174.0920  137.5350 O   0  0  0  0  0  0  0  0  0  0  0  0
  186.8300  177.9400  145.3130 C   0  0  0  0  0  2  0  0  0  0  0  0
  186.1510  179.0180  146.0150 N   0  0  0  0  0  2  0  0  0  0  0  0
  183.9410  178.9460  145.9490 O   0  0  0  0  0  1  0  0  0  0  0  0
  185.0150  178.4600  146.6170 N   0  0  0  0  0  2  0  0  0  0  0  0
  1 44  1  1  0  0  0
  3  2  1  0  0  0  0
  3 19  1  1  0  0  0
  4  7  2  0  0  0  0
  4  5  1  0  0  0  0
  5  8  1  0  0  0  0
  6  3  1  0  0  0  0
  7  6  1  0  0  0  0
  8  1  1  0  0  0  0
  8  2  2  0  0  0  0
  9  4  1  1  0  0  0
 10  9  1  0  0  0  0
 11 18  1  6  0  0  0
 11 15  1  0  0  0  0
 11 14  1  0  0  0  0
 13  9  1  0  0  0  0
 14 12  2  0  0  0  0
 14 13  1  0  0  0  0
 15 10  1  0  0  0  0
 16 18  1  0  0  0  0
 17 18  1  0  0  0  0
 19 20  1  0  0  0  0
 20 22  1  0  0  0  0
 20 21  1  0  0  0  0
 23 24  1  1  0  0  0
 23  1  1  0  0  0  0
 25 23  1  0  0  0  0
 26 25  1  0  0  0  0
 27 31  1  0  0  0  0
 28 26  1  0  0  0  0
 28 30  2  0  0  0  0
 29 28  1  0  0  0  0
 31 30  1  0  0  0  0
 31 34  1  1  0  0  0
 32 35  1  6  0  0  0
 32 29  1  0  0  0  0
 32 27  1  0  0  0  0
 34 33  1  0  0  0  0
 35 36  1  6  0  0  0
 37 36  1  0  0  0  0
 38 40  1  0  0  0  0
 38 35  1  0  0  0  0
 40 39  1  6  0  0  0
 40 42  1  0  0  0  0
 42 43  2  0  0  0  0
 42 41  1  0  0  0  0
 44 45  1  0  0  0  0
 45 47  1  0  0  0  0
 46 47  1  0  0  0  0
M  END
>  <MODEL>
1

>  <REMARK>
 VINA RESULT:      -6.8      0.000      0.000
  Name = 
  18 active torsions:
  status: ('A' for Active; 'I' for Inactive)
    1  A    between atoms: C_3  and  N_18
    2  A    between atoms: O_5  and  C_9
    3  A    between atoms: O_5  and  C_32
    4  A    between atoms: C_6  and  C_9
    5  A    between atoms: C_10  and  C_29
    6  A    between atoms: O_11  and  C_32
    7  A    between atoms: C_14  and  C_34
    8  A    between atoms: N_15  and  C_25
    9  A    between atoms: N_15  and  C_34
   10  A    between atoms: N_18  and  C_28
   11  A    between atoms: C_19  and  C_20
   12  A    between atoms: C_19  and  C_25
   13  A    between atoms: C_19  and  C_45
   14  A    between atoms: C_20  and  N_23
   15  A    between atoms: C_21  and  N_46
   16  A    between atoms: N_23  and  N_40
   17  A    between atoms: C_32  and  C_42
   18  A    between atoms: C_39  and  O_44
                            x       y       z     vdW  Elec       q    Type
                         _______ _______ _______ _____ _____    ______ ____

>  <TORSDO>
F 18

$$$$
=
 OpenBabel10222415243D

 47 49  0  0  1  0  0  0  0  0999 V2000
  188.4070  177.5060  141.5110 C   0  0  1  0  0  3  0  0  0  0  0  0
  187.2000  177.6370  143.6610 C   0  0  0  0  0  3  0  0  0  0  0  0
  186.1170  177.9250  144.6790 C   0  0  2  0  0  3  0  0  0  0  0  0
  184.7860  178.4060  141.9360 C   0  0  0  0  0  0  0  0  0  0  0  0
  186.2080  178.8040  141.6510 C   0  0  0  0  0  2  0  0  0  0  0  0
  185.1340  179.0250  144.2970 C   0  0  0  0  0  2  0  0  0  0  0  0
  184.2790  178.5510  143.1650 C   0  0  0  0  0  3  0  0  0  0  0  0
  187.2290  177.9400  142.3420 C   0  0  0  0  0  0  0  0  0  0  0  0
  183.9080  177.8760  140.8440 C   0  0  2  0  0  3  0  0  0  0  0  0
  184.1890  178.6050  139.5180 C   0  0  0  0  0  2  0  0  0  0  0  0
  181.8450  179.5210  139.3350 C   0  0  1  0  0  3  0  0  0  0  0  0
  181.2050  179.8940  141.6470 N   0  0  0  0  0  2  0  0  0  0  0  0
  182.4270  177.8600  141.2670 C   0  0  0  0  0  2  0  0  0  0  0  0
  181.7030  179.0850  140.7840 C   0  0  0  0  0  0  0  0  0  0  0  0
  182.9440  178.6910  138.6410 C   0  0  0  0  0  2  0  0  0  0  0  0
  180.5450  180.3930  137.5330 C   0  0  0  0  0  1  0  0  0  0  0  0
  180.5060  178.1160  137.9390 C   0  0  0  0  0  1  0  0  0  0  0  0
  180.5660  179.4100  138.6110 N   0  0  0  0  0  0  0  0  0  0  0  0
  186.7320  178.2420  145.9660 N   0  0  0  0  0  2  0  0  0  0  0  0
  187.9330  177.4340  146.1940 C   0  0  0  0  0  3  0  0  0  0  0  0
  188.0640  176.9950  147.6470 C   0  0  0  0  0  1  0  0  0  0  0  0
  189.1910  178.1380  145.7140 C   0  0  0  0  0  1  0  0  0  0  0  0
  188.2450  177.8800  140.0350 C   0  0  1  0  0  3  0  0  0  0  0  0
  188.8500  179.1110  139.7560 O   0  0  0  0  0  1  0  0  0  0  0  0
  188.8230  176.8470  139.1910 N   0  0  0  0  0  2  0  0  0  0  0  0
  189.9180  177.4540  138.4510 C   0  0  0  0  0  2  0  0  0  0  0  0
  192.0610  173.9920  137.1050 C   0  0  0  0  0  2  0  0  0  0  0  0
  190.6050  176.4210  137.6210 C   0  0  0  0  0  0  0  0  0  0  0  0
  192.0610  176.5750  137.2830 C   0  0  0  0  0  2  0  0  0  0  0  0
  189.9560  175.3230  137.2130 C   0  0  0  0  0  3  0  0  0  0  0  0
  190.7100  174.2830  136.4340 C   0  0  2  0  0  3  0  0  0  0  0  0
  192.8140  175.2670  137.5610 C   0  0  2  0  0  3  0  0  0  0  0  0
  188.7240  173.4340  136.9210 C   0  0  0  0  0  1  0  0  0  0  0  0
  189.9540  173.1110  136.3430 O   0  0  0  0  0  0  0  0  0  0  0  0
  194.2300  175.3300  136.9920 C   0  0  1  0  0  3  0  0  0  0  0  0
  194.4170  176.5410  136.3190 O   0  0  0  0  0  0  0  0  0  0  0  0
  194.5270  176.1890  134.9720 C   0  0  0  0  0  1  0  0  0  0  0  0
  195.1820  175.2140  138.0170 O   0  0  0  0  0  0  0  0  0  0  0  0
  197.4330  174.9660  137.7720 O   0  0  0  0  0  1  0  0  0  0  0  0
  196.1900  174.3940  137.4980 C   0  0  1  0  0  3  0  0  0  0  0  0
  196.9490  172.1450  137.7690 O   0  0  0  0  0  0  0  0  0  0  0  0
  196.1210  173.0330  138.1150 C   0  0  0  0  0  0  0  0  0  0  0  0
  195.1730  172.7500  139.0960 O   0  0  0  0  0  1  0  0  0  0  0  0
  189.7330  177.9910  142.0910 C   0  0  0  0  0  2  0  0  0  0  0  0
  190.7190  176.9210  142.0540 N   0  0  0  0  0  2  0  0  0  0  0  0
  191.5650  175.7140  143.7020 O   0  0  0  0  0  1  0  0  0  0  0  0
  190.3990  176.0380  143.0930 N   0  0  0  0  0  2  0  0  0  0  0  0
  1 44  1  1  0  0  0
  1  8  1  0  0  0  0
  2  3  1  0  0  0  0
  3 19  1  1  0  0  0
  4  7  2  0  0  0  0
  5  4  1  0  0  0  0
  5  8  1  0  0  0  0
  6  3  1  0  0  0  0
  7  6  1  0  0  0  0
  8  2  2  0  0  0  0
  9 13  1  0  0  0  0
  9  4  1  1  0  0  0
 10  9  1  0  0  0  0
 11 18  1  6  0  0  0
 11 14  1  0  0  0  0
 14 13  1  0  0  0  0
 14 12  2  0  0  0  0
 15 11  1  0  0  0  0
 15 10  1  0  0  0  0
 16 18  1  0  0  0  0
 17 18  1  0  0  0  0
 19 20  1  0  0  0  0
 20 21  1  0  0  0  0
 22 20  1  0  0  0  0
 23 24  1  1  0  0  0
 23  1  1  0  0  0  0
 25 23  1  0  0  0  0
 26 25  1  0  0  0  0
 27 32  1  0  0  0  0
 28 26  1  0  0  0  0
 29 32  1  0  0  0  0
 29 28  1  0  0  0  0
 30 28  2  0  0  0  0
 31 34  1  1  0  0  0
 31 27  1  0  0  0  0
 31 30  1  0  0  0  0
 32 35  1  6  0  0  0
 34 33  1  0  0  0  0
 35 36  1  1  0  0  0
 35 38  1  0  0  0  0
 37 36  1  0  0  0  0
 40 39  1  1  0  0  0
 40 38  1  0  0  0  0
 40 42  1  0  0  0  0
 41 42  2  0  0  0  0
 42 43  1  0  0  0  0
 45 44  1  0  0  0  0
 45 47  1  0  0  0  0
 47 46  1  0  0  0  0
M  END
>  <MODEL>
2

>  <REMARK>
 VINA RESULT:      -6.6      4.415      8.346
  Name = 
  18 active torsions:
  status: ('A' for Active; 'I' for Inactive)
    1  A    between atoms: C_3  and  N_18
    2  A    between atoms: O_5  and  C_9
    3  A    between atoms: O_5  and  C_32
    4  A    between atoms: C_6  and  C_9
    5  A    between atoms: C_10  and  C_29
    6  A    between atoms: O_11  and  C_32
    7  A    between atoms: C_14  and  C_34
    8  A    between atoms: N_15  and  C_25
    9  A    between atoms: N_15  and  C_34
   10  A    between atoms: N_18  and  C_28
   11  A    between atoms: C_19  and  C_20
   12  A    between atoms: C_19  and  C_25
   13  A    between atoms: C_19  and  C_45
   14  A    between atoms: C_20  and  N_23
   15  A    between atoms: C_21  and  N_46
   16  A    between atoms: N_23  and  N_40
   17  A    between atoms: C_32  and  C_42
   18  A    between atoms: C_39  and  O_44
                            x       y       z     vdW  Elec       q    Type
                         _______ _______ _______ _____ _____    ______ ____

>  <TORSDO>
F 18

$$$$
=
 OpenBabel10222415243D

 47 49  0  0  1  0  0  0  0  0999 V2000
  187.8170  177.4080  142.7870 C   0  0  1  0  0  3  0  0  0  0  0  0
  186.1060  177.5760  144.5590 C   0  0  0  0  0  3  0  0  0  0  0  0
  184.8200  177.9230  145.2790 C   0  0  2  0  0  3  0  0  0  0  0  0
  184.2850  178.5900  142.3130 C   0  0  0  0  0  0  0  0  0  0  0  0
  185.7570  178.8780  142.4220 C   0  0  0  0  0  2  0  0  0  0  0  0
  184.0510  179.1100  144.7120 C   0  0  0  0  0  2  0  0  0  0  0  0
  183.4880  178.7410  143.3760 C   0  0  0  0  0  3  0  0  0  0  0  0
  186.4980  177.9140  143.3090 C   0  0  0  0  0  0  0  0  0  0  0  0
  183.6840  178.1660  141.0070 C   0  0  2  0  0  3  0  0  0  0  0  0
  184.2100  179.0440  139.8570 C   0  0  0  0  0  2  0  0  0  0  0  0
  181.9190  179.9240  139.2650 C   0  0  1  0  0  3  0  0  0  0  0  0
  180.7850  180.0250  141.4100 N   0  0  0  0  0  2  0  0  0  0  0  0
  182.1500  178.0720  141.0950 C   0  0  0  0  0  2  0  0  0  0  0  0
  181.4920  179.3270  140.5960 C   0  0  0  0  0  0  0  0  0  0  0  0
  183.1770  179.2000  138.7450 C   0  0  0  0  0  2  0  0  0  0  0  0
  181.0910  180.8510  137.2270 C   0  0  0  0  0  1  0  0  0  0  0  0
  180.8690  178.5770  137.5940 C   0  0  0  0  0  1  0  0  0  0  0  0
  180.8310  179.8680  138.2740 N   0  0  0  0  0  0  0  0  0  0  0  0
  185.1000  178.1500  146.6940 N   0  0  0  0  0  2  0  0  0  0  0  0
  186.4190  178.7590  146.8840 C   0  0  0  0  0  3  0  0  0  0  0  0
  187.3880  177.8250  147.5970 C   0  0  0  0  0  1  0  0  0  0  0  0
  186.3290  180.1030  147.5870 C   0  0  0  0  0  1  0  0  0  0  0  0
  188.5470  178.4560  141.9420 C   0  0  1  0  0  3  0  0  0  0  0  0
  189.6690  178.9550  142.6150 O   0  0  0  0  0  1  0  0  0  0  0  0
  188.9540  177.8780  140.6720 N   0  0  0  0  0  2  0  0  0  0  0  0
  187.9350  178.2220  139.6930 C   0  0  0  0  0  2  0  0  0  0  0  0
  188.7690  175.3530  136.6160 C   0  0  0  0  0  2  0  0  0  0  0  0
  188.2350  177.5550  138.3910 C   0  0  0  0  0  0  0  0  0  0  0  0
  189.6590  177.3920  137.9410 C   0  0  0  0  0  2  0  0  0  0  0  0
  187.2520  177.0490  137.6360 C   0  0  0  0  0  3  0  0  0  0  0  0
  187.6120  176.3320  136.3650 C   0  0  2  0  0  3  0  0  0  0  0  0
  189.9100  175.9510  137.4790 C   0  0  2  0  0  3  0  0  0  0  0  0
  186.9920  174.8820  134.8110 C   0  0  0  0  0  1  0  0  0  0  0  0
  186.4990  175.6450  135.8710 O   0  0  0  0  0  0  0  0  0  0  0  0
  191.2680  175.8350  136.7900 C   0  0  1  0  0  3  0  0  0  0  0  0
  191.1190  176.0210  135.4130 O   0  0  0  0  0  0  0  0  0  0  0  0
  192.0230  175.1300  134.8300 C   0  0  0  0  0  1  0  0  0  0  0  0
  192.1630  176.7910  137.2950 O   0  0  0  0  0  0  0  0  0  0  0  0
  194.2520  175.9120  137.5190 O   0  0  0  0  0  1  0  0  0  0  0  0
  193.0190  176.0850  138.1480 C   0  0  1  0  0  3  0  0  0  0  0  0
  192.2500  177.4850  139.9260 O   0  0  0  0  0  0  0  0  0  0  0  0
  193.2130  176.8360  139.4270 C   0  0  0  0  0  0  0  0  0  0  0  0
  194.4360  176.7950  140.0920 O   0  0  0  0  0  1  0  0  0  0  0  0
  188.6980  176.8400  143.8970 C   0  0  0  0  0  2  0  0  0  0  0  0
  189.6100  175.8440  143.3560 N   0  0  0  0  0  2  0  0  0  0  0  0
  191.6700  176.5700  143.0110 O   0  0  0  0  0  1  0  0  0  0  0  0
  190.8540  176.0590  143.9630 N   0  0  0  0  0  2  0  0  0  0  0  0
  1  8  1  0  0  0  0
  1 44  1  1  0  0  0
  2  3  1  0  0  0  0
  3 19  1  1  0  0  0
  4  5  1  0  0  0  0
  4  7  2  0  0  0  0
  5  8  1  0  0  0  0
  6  3  1  0  0  0  0
  7  6  1  0  0  0  0
  8  2  2  0  0  0  0
  9 13  1  0  0  0  0
  9  4  1  1  0  0  0
 10  9  1  0  0  0  0
 11 18  1  6  0  0  0
 11 14  1  0  0  0  0
 14 13  1  0  0  0  0
 14 12  2  0  0  0  0
 15 11  1  0  0  0  0
 15 10  1  0  0  0  0
 16 18  1  0  0  0  0
 17 18  1  0  0  0  0
 19 20  1  0  0  0  0
 20 22  1  0  0  0  0
 20 21  1  0  0  0  0
 23 24  1  1  0  0  0
 23  1  1  0  0  0  0
 25 23  1  0  0  0  0
 26 25  1  0  0  0  0
 27 32  1  0  0  0  0
 28 26  1  0  0  0  0
 29 28  1  0  0  0  0
 30 28  2  0  0  0  0
 31 34  1  1  0  0  0
 31 27  1  0  0  0  0
 31 30  1  0  0  0  0
 32 35  1  6  0  0  0
 32 29  1  0  0  0  0
 33 34  1  0  0  0  0
 35 36  1  6  0  0  0
 35 38  1  0  0  0  0
 37 36  1  0  0  0  0
 38 40  1  0  0  0  0
 40 39  1  6  0  0  0
 40 42  1  0  0  0  0
 42 41  2  0  0  0  0
 42 43  1  0  0  0  0
 45 44  1  0  0  0  0
 45 47  1  0  0  0  0
 46 47  1  0  0  0  0
M  END
>  <MODEL>
3

>  <REMARK>
 VINA RESULT:      -6.5      3.513      7.311
  Name = 
  18 active torsions:
  status: ('A' for Active; 'I' for Inactive)
    1  A    between atoms: C_3  and  N_18
    2  A    between atoms: O_5  and  C_9
    3  A    between atoms: O_5  and  C_32
    4  A    between atoms: C_6  and  C_9
    5  A    between atoms: C_10  and  C_29
    6  A    between atoms: O_11  and  C_32
    7  A    between atoms: C_14  and  C_34
    8  A    between atoms: N_15  and  C_25
    9  A    between atoms: N_15  and  C_34
   10  A    between atoms: N_18  and  C_28
   11  A    between atoms: C_19  and  C_20
   12  A    between atoms: C_19  and  C_25
   13  A    between atoms: C_19  and  C_45
   14  A    between atoms: C_20  and  N_23
   15  A    between atoms: C_21  and  N_46
   16  A    between atoms: N_23  and  N_40
   17  A    between atoms: C_32  and  C_42
   18  A    between atoms: C_39  and  O_44
                            x       y       z     vdW  Elec       q    Type
                         _______ _______ _______ _____ _____    ______ ____

>  <TORSDO>
F 18

$$$$
=
 OpenBabel10222415243D

 47 49  0  0  1  0  0  0  0  0999 V2000
  187.9550  177.7140  141.0950 C   0  0  1  0  0  3  0  0  0  0  0  0
  186.9480  177.8420  143.3460 C   0  0  0  0  0  3  0  0  0  0  0  0
  185.9550  178.1140  144.4570 C   0  0  2  0  0  3  0  0  0  0  0  0
  184.3630  178.5110  141.8420 C   0  0  0  0  0  0  0  0  0  0  0  0
  185.7390  178.9470  141.4210 C   0  0  0  0  0  2  0  0  0  0  0  0
  184.9070  179.1780  144.1530 C   0  0  0  0  0  2  0  0  0  0  0  0
  183.9670  178.6600  143.1100 C   0  0  0  0  0  3  0  0  0  0  0  0
  186.8460  178.1250  142.0270 C   0  0  0  0  0  0  0  0  0  0  0  0
  183.4050  177.9370  140.8430 C   0  0  2  0  0  3  0  0  0  0  0  0
  183.6040  178.5900  139.4630 C   0  0  0  0  0  2  0  0  0  0  0  0
  181.2640  179.5320  139.3900 C   0  0  1  0  0  3  0  0  0  0  0  0
  180.7900  180.0400  141.7170 N   0  0  0  0  0  2  0  0  0  0  0  0
  181.9570  177.9680  141.3660 C   0  0  0  0  0  2  0  0  0  0  0  0
  181.2170  179.1770  140.8670 C   0  0  0  0  0  0  0  0  0  0  0  0
  182.3020  178.6490  138.6700 C   0  0  0  0  0  2  0  0  0  0  0  0
  179.7790  180.4590  137.7660 C   0  0  0  0  0  1  0  0  0  0  0  0
  179.8850  178.1600  138.0010 C   0  0  0  0  0  1  0  0  0  0  0  0
  179.9370  179.4040  138.7630 N   0  0  0  0  0  0  0  0  0  0  0  0
  186.6750  178.4690  145.6770 N   0  0  0  0  0  2  0  0  0  0  0  0
  187.7420  177.5060  145.9640 C   0  0  0  0  0  3  0  0  0  0  0  0
  187.8380  177.1790  147.4490 C   0  0  0  0  0  1  0  0  0  0  0  0
  189.0820  177.9600  145.4100 C   0  0  0  0  0  1  0  0  0  0  0  0
  187.7960  178.3210  139.6990 C   0  0  1  0  0  3  0  0  0  0  0  0
  188.9150  179.0860  139.3500 O   0  0  0  0  0  1  0  0  0  0  0  0
  187.5960  177.2690  138.7160 N   0  0  0  0  0  2  0  0  0  0  0  0
  188.7140  177.3230  137.7870 C   0  0  0  0  0  2  0  0  0  0  0  0
  189.0040  173.1890  136.6850 C   0  0  0  0  0  2  0  0  0  0  0  0
  188.8090  176.0400  137.0300 C   0  0  0  0  0  0  0  0  0  0  0  0
  190.1540  175.5090  136.6200 C   0  0  0  0  0  2  0  0  0  0  0  0
  187.7140  175.3220  136.7540 C   0  0  0  0  0  3  0  0  0  0  0  0
  187.8710  174.0060  136.0450 C   0  0  2  0  0  3  0  0  0  0  0  0
  190.2740  174.0240  136.9880 C   0  0  2  0  0  3  0  0  0  0  0  0
  186.3230  173.2730  137.4470 C   0  0  0  0  0  1  0  0  0  0  0  0
  186.6710  173.2900  136.0950 O   0  0  0  0  0  0  0  0  0  0  0  0
  191.5240  173.4120  136.3580 C   0  0  1  0  0  3  0  0  0  0  0  0
  191.2490  173.0200  135.0450 O   0  0  0  0  0  0  0  0  0  0  0  0
  191.8820  171.7830  134.9000 C   0  0  0  0  0  1  0  0  0  0  0  0
  192.5810  174.3370  136.3570 O   0  0  0  0  0  0  0  0  0  0  0  0
  194.2170  172.9830  137.1820 O   0  0  0  0  0  1  0  0  0  0  0  0
  193.3440  174.0290  137.4890 C   0  0  1  0  0  3  0  0  0  0  0  0
  193.5880  176.3630  137.9340 O   0  0  0  0  0  0  0  0  0  0  0  0
  194.1320  175.2230  137.9240 C   0  0  0  0  0  0  0  0  0  0  0  0
  195.4490  175.0820  138.3540 O   0  0  0  0  0  1  0  0  0  0  0  0
  189.3370  177.9780  141.6900 C   0  0  0  0  0  2  0  0  0  0  0  0
  190.0440  176.7230  141.8960 N   0  0  0  0  0  2  0  0  0  0  0  0
  191.5090  177.3740  140.3730 O   0  0  0  0  0  1  0  0  0  0  0  0
  190.6340  176.3830  140.6730 N   0  0  0  0  0  2  0  0  0  0  0  0
  1 44  1  1  0  0  0
  1  8  1  0  0  0  0
  2  3  1  0  0  0  0
  3 19  1  1  0  0  0
  4  7  2  0  0  0  0
  5  4  1  0  0  0  0
  5  8  1  0  0  0  0
  6  3  1  0  0  0  0
  7  6  1  0  0  0  0
  8  2  2  0  0  0  0
  9 13  1  0  0  0  0
  9  4  1  1  0  0  0
 10  9  1  0  0  0  0
 11 18  1  6  0  0  0
 11 14  1  0  0  0  0
 14 13  1  0  0  0  0
 14 12  2  0  0  0  0
 15 11  1  0  0  0  0
 15 10  1  0  0  0  0
 16 18  1  0  0  0  0
 17 18  1  0  0  0  0
 19 20  1  0  0  0  0
 20 21  1  0  0  0  0
 22 20  1  0  0  0  0
 23 24  1  6  0  0  0
 23  1  1  0  0  0  0
 25 23  1  0  0  0  0
 26 25  1  0  0  0  0
 27 32  1  0  0  0  0
 28 26  1  0  0  0  0
 29 32  1  0  0  0  0
 29 28  1  0  0  0  0
 30 28  2  0  0  0  0
 31 34  1  1  0  0  0
 31 27  1  0  0  0  0
 31 30  1  0  0  0  0
 32 35  1  6  0  0  0
 34 33  1  0  0  0  0
 35 36  1  6  0  0  0
 37 36  1  0  0  0  0
 38 35  1  0  0  0  0
 38 40  1  0  0  0  0
 40 39  1  6  0  0  0
 40 42  1  0  0  0  0
 42 41  2  0  0  0  0
 42 43  1  0  0  0  0
 44 45  1  0  0  0  0
 46 47  1  0  0  0  0
 47 45  1  0  0  0  0
M  END
>  <MODEL>
4

>  <REMARK>
 VINA RESULT:      -6.4      3.754      7.669
  Name = 
  18 active torsions:
  status: ('A' for Active; 'I' for Inactive)
    1  A    between atoms: C_3  and  N_18
    2  A    between atoms: O_5  and  C_9
    3  A    between atoms: O_5  and  C_32
    4  A    between atoms: C_6  and  C_9
    5  A    between atoms: C_10  and  C_29
    6  A    between atoms: O_11  and  C_32
    7  A    between atoms: C_14  and  C_34
    8  A    between atoms: N_15  and  C_25
    9  A    between atoms: N_15  and  C_34
   10  A    between atoms: N_18  and  C_28
   11  A    between atoms: C_19  and  C_20
   12  A    between atoms: C_19  and  C_25
   13  A    between atoms: C_19  and  C_45
   14  A    between atoms: C_20  and  N_23
   15  A    between atoms: C_21  and  N_46
   16  A    between atoms: N_23  and  N_40
   17  A    between atoms: C_32  and  C_42
   18  A    between atoms: C_39  and  O_44
                            x       y       z     vdW  Elec       q    Type
                         _______ _______ _______ _____ _____    ______ ____

>  <TORSDO>
F 18

$$$$
=
 OpenBabel10222415243D

 47 49  0  0  1  0  0  0  0  0999 V2000
  186.2860  178.5190  143.3340 C   0  0  1  0  0  3  0  0  0  0  0  0
  188.4240  177.8480  144.3710 C   0  0  0  0  0  3  0  0  0  0  0  0
  189.8150  177.2740  144.5400 C   0  0  2  0  0  3  0  0  0  0  0  0
  189.3220  177.3000  141.4920 C   0  0  0  0  0  0  0  0  0  0  0  0
  187.9310  177.0720  142.0170 C   0  0  0  0  0  2  0  0  0  0  0  0
  190.2160  176.2160  143.5190 C   0  0  0  0  0  2  0  0  0  0  0  0
  190.3820  176.8610  142.1790 C   0  0  0  0  0  3  0  0  0  0  0  0
  187.6270  177.8370  143.2770 C   0  0  0  0  0  0  0  0  0  0  0  0
  189.5400  177.9900  140.1800 C   0  0  2  0  0  3  0  0  0  0  0  0
  188.2640  177.9390  139.3220 C   0  0  0  0  0  2  0  0  0  0  0  0
  189.3670  176.6310  137.4660 C   0  0  1  0  0  3  0  0  0  0  0  0
  190.9620  175.2270  138.6410 N   0  0  0  0  0  2  0  0  0  0  0  0
  190.8100  177.4750  139.4760 C   0  0  0  0  0  2  0  0  0  0  0  0
  190.4860  176.4070  138.4690 C   0  0  0  0  0  0  0  0  0  0  0  0
  188.5830  177.9080  137.8300 C   0  0  0  0  0  2  0  0  0  0  0  0
  189.6540  175.4250  135.4260 C   0  0  0  0  0  1  0  0  0  0  0  0
  189.0900  177.6670  135.3300 C   0  0  0  0  0  1  0  0  0  0  0  0
  189.8840  176.7050  136.0890 N   0  0  0  0  0  0  0  0  0  0  0  0
  189.9570  176.7340  145.8890 N   0  0  0  0  0  2  0  0  0  0  0  0
  189.2070  177.5310  146.8630 C   0  0  0  0  0  3  0  0  0  0  0  0
  190.0970  178.0680  147.9760 C   0  0  0  0  0  1  0  0  0  0  0  0
  188.0180  176.7690  147.4260 C   0  0  0  0  0  1  0  0  0  0  0  0
  185.4260  178.2130  142.1050 C   0  0  1  0  0  3  0  0  0  0  0  0
  184.1390  177.8070  142.4760 O   0  0  0  0  0  1  0  0  0  0  0  0
  185.3420  179.3850  141.2480 N   0  0  0  0  0  2  0  0  0  0  0  0
  185.3470  178.9170  139.8710 C   0  0  0  0  0  2  0  0  0  0  0  0
  181.1040  178.3470  139.6150 C   0  0  0  0  0  2  0  0  0  0  0  0
  183.9450  178.7500  139.3860 C   0  0  0  0  0  0  0  0  0  0  0  0
  183.4340  177.3840  139.0220 C   0  0  0  0  0  2  0  0  0  0  0  0
  183.1120  179.7960  139.3180 C   0  0  0  0  0  3  0  0  0  0  0  0
  181.6930  179.5630  138.8830 C   0  0  2  0  0  3  0  0  0  0  0  0
  182.0680  177.1360  139.6770 C   0  0  2  0  0  3  0  0  0  0  0  0
  181.4820  181.7000  138.3420 C   0  0  0  0  0  1  0  0  0  0  0  0
  180.9210  180.7010  139.1400 O   0  0  0  0  0  0  0  0  0  0  0  0
  181.4270  175.8660  139.1190 C   0  0  1  0  0  3  0  0  0  0  0  0
  180.0480  175.8930  139.3470 O   0  0  0  0  0  0  0  0  0  0  0  0
  179.8330  174.9480  140.3530 C   0  0  0  0  0  1  0  0  0  0  0  0
  181.6710  175.7530  137.7410 O   0  0  0  0  0  0  0  0  0  0  0  0
  181.0170  173.9220  136.5540 O   0  0  0  0  0  1  0  0  0  0  0  0
  181.9100  174.3920  137.5170 C   0  0  1  0  0  3  0  0  0  0  0  0
  184.2530  174.0930  137.8780 O   0  0  0  0  0  1  0  0  0  0  0  0
  183.3130  174.1840  137.0400 C   0  0  0  0  0  0  0  0  0  0  0  0
  183.5830  174.0520  135.6800 O   0  0  0  0  0  0  0  0  0  0  0  0
  185.5500  178.2390  144.6420 C   0  0  0  0  0  2  0  0  0  0  0  0
  185.2440  179.4870  145.3240 N   0  0  0  0  0  2  0  0  0  0  0  0
  184.6410  178.3530  147.1250 O   0  0  0  0  0  1  0  0  0  0  0  0
  185.5190  179.2860  146.6830 N   0  0  0  0  0  2  0  0  0  0  0  0
  1 44  1  1  0  0  0
  2  3  1  0  0  0  0
  3 19  1  1  0  0  0
  4  5  1  0  0  0  0
  4  7  2  0  0  0  0
  5  8  1  0  0  0  0
  6  3  1  0  0  0  0
  7  6  1  0  0  0  0
  8  1  1  0  0  0  0
  8  2  2  0  0  0  0
  9  4  1  1  0  0  0
 10  9  1  0  0  0  0
 11 18  1  6  0  0  0
 11 15  1  0  0  0  0
 11 14  1  0  0  0  0
 13  9  1  0  0  0  0
 14 12  2  0  0  0  0
 14 13  1  0  0  0  0
 15 10  1  0  0  0  0
 16 18  1  0  0  0  0
 17 18  1  0  0  0  0
 19 20  1  0  0  0  0
 20 22  1  0  0  0  0
 20 21  1  0  0  0  0
 23 24  1  1  0  0  0
 23  1  1  0  0  0  0
 25 23  1  0  0  0  0
 26 25  1  0  0  0  0
 27 32  1  0  0  0  0
 28 26  1  0  0  0  0
 29 28  1  0  0  0  0
 29 32  1  0  0  0  0
 30 28  2  0  0  0  0
 31 34  1  1  0  0  0
 31 30  1  0  0  0  0
 31 27  1  0  0  0  0
 32 35  1  6  0  0  0
 33 34  1  0  0  0  0
 35 38  1  6  0  0  0
 35 36  1  0  0  0  0
 36 37  1  0  0  0  0
 40 39  1  6  0  0  0
 40 38  1  0  0  0  0
 42 40  1  0  0  0  0
 42 41  1  0  0  0  0
 43 42  2  0  0  0  0
 44 45  1  0  0  0  0
 45 47  1  0  0  0  0
 47 46  1  0  0  0  0
M  END
>  <MODEL>
5

>  <REMARK>
 VINA RESULT:      -6.4      1.585      2.070
  Name = 
  18 active torsions:
  status: ('A' for Active; 'I' for Inactive)
    1  A    between atoms: C_3  and  N_18
    2  A    between atoms: O_5  and  C_9
    3  A    between atoms: O_5  and  C_32
    4  A    between atoms: C_6  and  C_9
    5  A    between atoms: C_10  and  C_29
    6  A    between atoms: O_11  and  C_32
    7  A    between atoms: C_14  and  C_34
    8  A    between atoms: N_15  and  C_25
    9  A    between atoms: N_15  and  C_34
   10  A    between atoms: N_18  and  C_28
   11  A    between atoms: C_19  and  C_20
   12  A    between atoms: C_19  and  C_25
   13  A    between atoms: C_19  and  C_45
   14  A    between atoms: C_20  and  N_23
   15  A    between atoms: C_21  and  N_46
   16  A    between atoms: N_23  and  N_40
   17  A    between atoms: C_32  and  C_42
   18  A    between atoms: C_39  and  O_44
                            x       y       z     vdW  Elec       q    Type
                         _______ _______ _______ _____ _____    ______ ____

>  <TORSDO>
F 18

$$$$
=
 OpenBabel10222415243D

 47 49  0  0  1  0  0  0  0  0999 V2000
  183.7370  178.1500  139.3500 C   0  0  1  0  0  3  0  0  0  0  0  0
  183.4190  176.0130  138.1560 C   0  0  0  0  0  3  0  0  0  0  0  0
  183.5680  174.9120  137.1270 C   0  0  2  0  0  3  0  0  0  0  0  0
  185.8870  176.8670  136.5520 C   0  0  0  0  0  0  0  0  0  0  0  0
  184.8270  177.8040  137.0640 C   0  0  0  0  0  2  0  0  0  0  0  0
  184.1060  175.3520  135.7700 C   0  0  0  0  0  2  0  0  0  0  0  0
  185.5420  175.7440  135.9130 C   0  0  0  0  0  3  0  0  0  0  0  0
  184.0050  177.2320  138.1870 C   0  0  0  0  0  0  0  0  0  0  0  0
  187.3400  177.1930  136.7200 C   0  0  2  0  0  3  0  0  0  0  0  0
  187.9950  177.4670  135.3540 C   0  0  0  0  0  2  0  0  0  0  0  0
  189.6220  175.5490  135.5660 C   0  0  1  0  0  3  0  0  0  0  0  0
  188.3650  173.8810  136.8050 N   0  0  0  0  0  2  0  0  0  0  0  0
  188.0600  176.1370  137.5780 C   0  0  0  0  0  2  0  0  0  0  0  0
  188.7430  175.1060  136.7240 C   0  0  0  0  0  0  0  0  0  0  0  0
  189.4680  177.0660  135.3400 C   0  0  0  0  0  2  0  0  0  0  0  0
  191.8490  175.7890  134.7400 C   0  0  0  0  0  1  0  0  0  0  0  0
  191.4950  175.8190  137.0260 C   0  0  0  0  0  1  0  0  0  0  0  0
  191.0330  175.1910  135.7920 N   0  0  0  0  0  0  0  0  0  0  0  0
  182.2860  174.2340  136.9510 N   0  0  0  0  0  2  0  0  0  0  0  0
  182.4490  172.9660  136.2360 C   0  0  0  0  0  3  0  0  0  0  0  0
  181.1280  172.4360  135.6930 C   0  0  0  0  0  1  0  0  0  0  0  0
  183.1560  171.9220  137.0850 C   0  0  0  0  0  1  0  0  0  0  0  0
  184.6660  179.3670  139.3550 C   0  0  1  0  0  3  0  0  0  0  0  0
  184.0090  180.5070  138.8790 O   0  0  0  0  0  1  0  0  0  0  0  0
  185.1610  179.6120  140.7000 N   0  0  0  0  0  2  0  0  0  0  0  0
  185.9100  178.4340  141.1080 C   0  0  0  0  0  2  0  0  0  0  0  0
  185.8230  178.8870  145.3720 C   0  0  0  0  0  2  0  0  0  0  0  0
  185.7460  178.2100  142.5750 C   0  0  0  0  0  0  0  0  0  0  0  0
  186.8700  177.6140  143.3740 C   0  0  0  0  0  2  0  0  0  0  0  0
  184.6250  178.5820  143.2060 C   0  0  0  0  0  3  0  0  0  0  0  0
  184.5350  178.3930  144.6940 C   0  0  2  0  0  3  0  0  0  0  0  0
  187.1160  178.4400  144.6450 C   0  0  2  0  0  3  0  0  0  0  0  0
  182.4600  178.9840  144.1980 C   0  0  0  0  0  1  0  0  0  0  0  0
  183.4290  179.0830  145.1990 O   0  0  0  0  0  0  0  0  0  0  0  0
  188.0770  177.7110  145.5830 C   0  0  1  0  0  3  0  0  0  0  0  0
  187.3630  177.1330  146.6360 O   0  0  0  0  0  0  0  0  0  0  0  0
  188.1960  177.2670  147.7500 C   0  0  0  0  0  1  0  0  0  0  0  0
  188.7800  176.7110  144.8920 O   0  0  0  0  0  0  0  0  0  0  0  0
  190.9540  177.0950  145.4540 O   0  0  0  0  0  1  0  0  0  0  0  0
  189.9750  177.3130  144.4830 C   0  0  1  0  0  3  0  0  0  0  0  0
  190.7440  177.5040  142.2290 O   0  0  0  0  0  0  0  0  0  0  0  0
  190.4280  176.7350  143.1800 C   0  0  0  0  0  0  0  0  0  0  0  0
  190.5390  175.3560  143.0200 O   0  0  0  0  0  1  0  0  0  0  0  0
  182.2640  178.5430  139.4480 C   0  0  0  0  0  2  0  0  0  0  0  0
  181.7010  178.0730  140.7040 N   0  0  0  0  0  2  0  0  0  0  0  0
  179.9880  177.8870  139.3170 O   0  0  0  0  0  1  0  0  0  0  0  0
  180.5820  177.2950  140.3820 N   0  0  0  0  0  2  0  0  0  0  0  0
  1 23  1  0  0  0  0
  1 44  1  6  0  0  0
  2  8  2  0  0  0  0
  3 19  1  6  0  0  0
  3  2  1  0  0  0  0
  4  5  1  0  0  0  0
  5  8  1  0  0  0  0
  6  7  1  0  0  0  0
  6  3  1  0  0  0  0
  7  4  2  0  0  0  0
  8  1  1  0  0  0  0
  9  4  1  6  0  0  0
  9 13  1  0  0  0  0
 10  9  1  0  0  0  0
 11 18  1  1  0  0  0
 11 14  1  0  0  0  0
 14 12  2  0  0  0  0
 14 13  1  0  0  0  0
 15 10  1  0  0  0  0
 15 11  1  0  0  0  0
 16 18  1  0  0  0  0
 18 17  1  0  0  0  0
 20 19  1  0  0  0  0
 20 22  1  0  0  0  0
 21 20  1  0  0  0  0
 23 24  1  1  0  0  0
 23 25  1  0  0  0  0
 25 26  1  0  0  0  0
 26 28  1  0  0  0  0
 28 30  2  0  0  0  0
 28 29  1  0  0  0  0
 29 32  1  0  0  0  0
 30 31  1  0  0  0  0
 31 34  1  1  0  0  0
 31 27  1  0  0  0  0
 32 27  1  0  0  0  0
 32 35  1  1  0  0  0
 33 34  1  0  0  0  0
 35 38  1  6  0  0  0
 35 36  1  0  0  0  0
 36 37  1  0  0  0  0
 40 38  1  0  0  0  0
 40 39  1  1  0  0  0
 41 42  2  0  0  0  0
 42 40  1  0  0  0  0
 43 42  1  0  0  0  0
 44 45  1  0  0  0  0
 46 47  1  0  0  0  0
 47 45  1  0  0  0  0
M  END
>  <MODEL>
6

>  <REMARK>
 VINA RESULT:      -6.4      3.073      7.803
  Name = 
  18 active torsions:
  status: ('A' for Active; 'I' for Inactive)
    1  A    between atoms: C_3  and  N_18
    2  A    between atoms: O_5  and  C_9
    3  A    between atoms: O_5  and  C_32
    4  A    between atoms: C_6  and  C_9
    5  A    between atoms: C_10  and  C_29
    6  A    between atoms: O_11  and  C_32
    7  A    between atoms: C_14  and  C_34
    8  A    between atoms: N_15  and  C_25
    9  A    between atoms: N_15  and  C_34
   10  A    between atoms: N_18  and  C_28
   11  A    between atoms: C_19  and  C_20
   12  A    between atoms: C_19  and  C_25
   13  A    between atoms: C_19  and  C_45
   14  A    between atoms: C_20  and  N_23
   15  A    between atoms: C_21  and  N_46
   16  A    between atoms: N_23  and  N_40
   17  A    between atoms: C_32  and  C_42
   18  A    between atoms: C_39  and  O_44
                            x       y       z     vdW  Elec       q    Type
                         _______ _______ _______ _____ _____    ______ ____

>  <TORSDO>
F 18

$$$$
=
 OpenBabel10222415243D

 47 49  0  0  1  0  0  0  0  0999 V2000
  187.1420  178.2730  143.9860 C   0  0  1  0  0  3  0  0  0  0  0  0
  189.5830  178.2110  144.3470 C   0  0  0  0  0  3  0  0  0  0  0  0
  191.0570  177.9490  144.1220 C   0  0  2  0  0  3  0  0  0  0  0  0
  189.7110  177.3440  141.4100 C   0  0  0  0  0  0  0  0  0  0  0  0
  188.6260  176.9540  142.3760 C   0  0  0  0  0  2  0  0  0  0  0  0
  191.3820  176.8220  143.1480 C   0  0  0  0  0  2  0  0  0  0  0  0
  190.9970  177.2410  141.7640 C   0  0  0  0  0  3  0  0  0  0  0  0
  188.5290  177.8560  143.5760 C   0  0  0  0  0  0  0  0  0  0  0  0
  189.3720  177.8210  140.0310 C   0  0  2  0  0  3  0  0  0  0  0  0
  187.9710  177.3330  139.6180 C   0  0  0  0  0  2  0  0  0  0  0  0
  188.8360  175.9980  137.6580 C   0  0  1  0  0  3  0  0  0  0  0  0
  191.0050  175.2190  138.4220 N   0  0  0  0  0  2  0  0  0  0  0  0
  190.4910  177.4880  139.0270 C   0  0  0  0  0  2  0  0  0  0  0  0
  190.2030  176.2130  138.2850 C   0  0  0  0  0  0  0  0  0  0  0  0
  187.8690  177.1110  138.1120 C   0  0  0  0  0  2  0  0  0  0  0  0
  187.6770  175.3830  135.6640 C   0  0  0  0  0  1  0  0  0  0  0  0
  188.9730  177.2990  135.6570 C   0  0  0  0  0  1  0  0  0  0  0  0
  188.9190  175.9400  136.1880 N   0  0  0  0  0  0  0  0  0  0  0  0
  191.7070  177.6900  145.4040 N   0  0  0  0  0  2  0  0  0  0  0  0
  191.0550  176.5900  146.1190 C   0  0  0  0  0  3  0  0  0  0  0  0
  190.1310  177.0880  147.2230 C   0  0  0  0  0  1  0  0  0  0  0  0
  192.0620  175.5830  146.6520 C   0  0  0  0  0  1  0  0  0  0  0  0
  186.1170  178.0560  142.8690 C   0  0  1  0  0  3  0  0  0  0  0  0
  184.9310  177.5060  143.3710 O   0  0  0  0  0  1  0  0  0  0  0  0
  185.8300  179.3160  142.2030 N   0  0  0  0  0  2  0  0  0  0  0  0
  185.8610  179.0670  140.7710 C   0  0  0  0  0  2  0  0  0  0  0  0
  182.0380  177.2730  140.0220 C   0  0  0  0  0  2  0  0  0  0  0  0
  184.4840  178.7690  140.2760 C   0  0  0  0  0  0  0  0  0  0  0  0
  184.2950  178.0140  138.9900 C   0  0  0  0  0  2  0  0  0  0  0  0
  183.4070  179.1190  140.9890 C   0  0  0  0  0  3  0  0  0  0  0  0
  182.0450  178.7400  140.4780 C   0  0  2  0  0  3  0  0  0  0  0  0
  183.2810  176.8790  139.1840 C   0  0  2  0  0  3  0  0  0  0  0  0
  180.2100  179.8880  140.9430 C   0  0  0  0  0  1  0  0  0  0  0  0
  181.0870  178.9400  141.4760 O   0  0  0  0  0  0  0  0  0  0  0  0
  182.8930  176.2680  137.8390 C   0  0  1  0  0  3  0  0  0  0  0  0
  182.9290  174.8730  137.9240 O   0  0  0  0  0  0  0  0  0  0  0  0
  184.0330  174.4950  137.1560 C   0  0  0  0  0  1  0  0  0  0  0  0
  181.6050  176.6790  137.4610 O   0  0  0  0  0  0  0  0  0  0  0  0
  182.2790  176.8430  135.2910 O   0  0  0  0  0  1  0  0  0  0  0  0
  181.7950  177.5580  136.3880 C   0  0  1  0  0  3  0  0  0  0  0  0
  180.3480  178.6890  134.8610 O   0  0  0  0  0  0  0  0  0  0  0  0
  180.5040  178.2190  136.0230 C   0  0  0  0  0  0  0  0  0  0  0  0
  179.4610  178.2850  136.9430 O   0  0  0  0  0  1  0  0  0  0  0  0
  186.7110  177.6300  145.3020 C   0  0  0  0  0  2  0  0  0  0  0  0
  186.6750  178.6270  146.3610 N   0  0  0  0  0  2  0  0  0  0  0  0
  184.5170  178.5680  146.8380 O   0  0  0  0  0  1  0  0  0  0  0  0
  185.4650  179.3190  146.2280 N   0  0  0  0  0  2  0  0  0  0  0  0
  1 44  1  1  0  0  0
  3  2  1  0  0  0  0
  3 19  1  1  0  0  0
  4  7  2  0  0  0  0
  4  5  1  0  0  0  0
  5  8  1  0  0  0  0
  6  3  1  0  0  0  0
  7  6  1  0  0  0  0
  8  1  1  0  0  0  0
  8  2  2  0  0  0  0
  9  4  1  1  0  0  0
 10  9  1  0  0  0  0
 11 18  1  6  0  0  0
 11 15  1  0  0  0  0
 11 14  1  0  0  0  0
 13  9  1  0  0  0  0
 14 12  2  0  0  0  0
 14 13  1  0  0  0  0
 15 10  1  0  0  0  0
 16 18  1  0  0  0  0
 17 18  1  0  0  0  0
 19 20  1  0  0  0  0
 20 22  1  0  0  0  0
 20 21  1  0  0  0  0
 23 24  1  1  0  0  0
 23  1  1  0  0  0  0
 25 23  1  0  0  0  0
 26 25  1  0  0  0  0
 27 31  1  0  0  0  0
 28 26  1  0  0  0  0
 28 30  2  0  0  0  0
 29 32  1  0  0  0  0
 29 28  1  0  0  0  0
 31 30  1  0  0  0  0
 31 34  1  1  0  0  0
 32 35  1  6  0  0  0
 32 27  1  0  0  0  0
 33 34  1  0  0  0  0
 35 38  1  1  0  0  0
 35 36  1  0  0  0  0
 37 36  1  0  0  0  0
 40 39  1  6  0  0  0
 40 38  1  0  0  0  0
 41 42  2  0  0  0  0
 42 40  1  0  0  0  0
 42 43  1  0  0  0  0
 44 45  1  0  0  0  0
 47 45  1  0  0  0  0
 47 46  1  0  0  0  0
M  END
>  <MODEL>
7

>  <REMARK>
 VINA RESULT:      -6.3      0.993      2.217
  Name = 
  18 active torsions:
  status: ('A' for Active; 'I' for Inactive)
    1  A    between atoms: C_3  and  N_18
    2  A    between atoms: O_5  and  C_9
    3  A    between atoms: O_5  and  C_32
    4  A    between atoms: C_6  and  C_9
    5  A    between atoms: C_10  and  C_29
    6  A    between atoms: O_11  and  C_32
    7  A    between atoms: C_14  and  C_34
    8  A    between atoms: N_15  and  C_25
    9  A    between atoms: N_15  and  C_34
   10  A    between atoms: N_18  and  C_28
   11  A    between atoms: C_19  and  C_20
   12  A    between atoms: C_19  and  C_25
   13  A    between atoms: C_19  and  C_45
   14  A    between atoms: C_20  and  N_23
   15  A    between atoms: C_21  and  N_46
   16  A    between atoms: N_23  and  N_40
   17  A    between atoms: C_32  and  C_42
   18  A    between atoms: C_39  and  O_44
                            x       y       z     vdW  Elec       q    Type
                         _______ _______ _______ _____ _____    ______ ____

>  <TORSDO>
F 18

$$$$
=
 OpenBabel10222415243D

 47 49  0  0  1  0  0  0  0  0999 V2000
  187.3010  177.6290  142.5670 C   0  0  1  0  0  3  0  0  0  0  0  0
  185.6960  177.8500  144.4300 C   0  0  0  0  0  3  0  0  0  0  0  0
  184.4540  178.2190  145.2130 C   0  0  2  0  0  3  0  0  0  0  0  0
  183.7460  178.7990  142.2640 C   0  0  0  0  0  0  0  0  0  0  0  0
  185.2220  179.0890  142.2790 C   0  0  0  0  0  2  0  0  0  0  0  0
  183.6520  179.3900  144.6570 C   0  0  0  0  0  2  0  0  0  0  0  0
  183.0120  178.9810  143.3670 C   0  0  0  0  0  3  0  0  0  0  0  0
  186.0150  178.1510  143.1490 C   0  0  0  0  0  0  0  0  0  0  0  0
  183.0710  178.3360  141.0090 C   0  0  2  0  0  3  0  0  0  0  0  0
  183.6480  179.0640  139.7820 C   0  0  0  0  0  2  0  0  0  0  0  0
  181.4400  180.1210  139.1670 C   0  0  1  0  0  3  0  0  0  0  0  0
  180.3810  180.5020  141.3180 N   0  0  0  0  0  2  0  0  0  0  0  0
  181.5380  178.4030  141.1350 C   0  0  0  0  0  2  0  0  0  0  0  0
  180.9930  179.6750  140.5490 C   0  0  0  0  0  0  0  0  0  0  0  0
  182.6060  179.2360  138.6810 C   0  0  0  0  0  2  0  0  0  0  0  0
  180.5940  181.0580  137.1410 C   0  0  0  0  0  1  0  0  0  0  0  0
  180.2960  178.7990  137.5370 C   0  0  0  0  0  1  0  0  0  0  0  0
  180.3240  180.0960  138.2050 N   0  0  0  0  0  0  0  0  0  0  0  0
  184.8160  178.4880  146.6020 N   0  0  0  0  0  2  0  0  0  0  0  0
  186.2300  178.8540  146.7220 C   0  0  0  0  0  3  0  0  0  0  0  0
  187.0750  177.7150  147.2760 C   0  0  0  0  0  1  0  0  0  0  0  0
  186.4210  180.1280  147.5290 C   0  0  0  0  0  1  0  0  0  0  0  0
  188.0150  178.6750  141.7060 C   0  0  1  0  0  3  0  0  0  0  0  0
  189.2720  178.9920  142.2330 O   0  0  0  0  0  1  0  0  0  0  0  0
  188.1630  178.1860  140.3450 N   0  0  0  0  0  2  0  0  0  0  0  0
  189.5730  178.2760  140.0020 C   0  0  0  0  0  2  0  0  0  0  0  0
  190.8190  175.9030  136.6540 C   0  0  0  0  0  2  0  0  0  0  0  0
  189.9500  177.1480  139.1000 C   0  0  0  0  0  0  0  0  0  0  0  0
  188.8930  176.4400  138.3000 C   0  0  0  0  0  2  0  0  0  0  0  0
  191.2300  176.7860  138.9490 C   0  0  0  0  0  3  0  0  0  0  0  0
  191.5630  175.6870  137.9810 C   0  0  2  0  0  3  0  0  0  0  0  0
  189.3340  176.3060  136.8360 C   0  0  2  0  0  3  0  0  0  0  0  0
  193.2170  174.3090  137.4620 C   0  0  0  0  0  1  0  0  0  0  0  0
  192.9430  175.6460  137.7580 O   0  0  0  0  0  0  0  0  0  0  0  0
  188.3910  175.3770  136.0740 C   0  0  1  0  0  3  0  0  0  0  0  0
  189.0330  174.1640  135.8090 O   0  0  0  0  0  0  0  0  0  0  0  0
  188.5250  173.2740  136.7590 C   0  0  0  0  0  1  0  0  0  0  0  0
  187.2250  175.1340  136.8180 O   0  0  0  0  0  0  0  0  0  0  0  0
  185.3620  174.5540  135.6420 O   0  0  0  0  0  1  0  0  0  0  0  0
  186.1750  175.6200  136.0310 C   0  0  1  0  0  3  0  0  0  0  0  0
  185.9290  177.6020  137.3420 O   0  0  0  0  0  1  0  0  0  0  0  0
  185.3620  176.6100  136.8030 C   0  0  0  0  0  0  0  0  0  0  0  0
  183.9800  176.4660  136.9000 O   0  0  0  0  0  0  0  0  0  0  0  0
  188.2170  177.0310  143.6330 C   0  0  0  0  0  2  0  0  0  0  0  0
  188.6670  175.7100  143.2240 N   0  0  0  0  0  2  0  0  0  0  0  0
  190.6480  176.4070  143.9170 O   0  0  0  0  0  1  0  0  0  0  0  0
  190.0160  175.8320  142.8660 N   0  0  0  0  0  2  0  0  0  0  0  0
  1  8  1  0  0  0  0
  1 44  1  1  0  0  0
  2  3  1  0  0  0  0
  3 19  1  1  0  0  0
  4  5  1  0  0  0  0
  4  7  2  0  0  0  0
  5  8  1  0  0  0  0
  6  3  1  0  0  0  0
  7  6  1  0  0  0  0
  8  2  2  0  0  0  0
  9 13  1  0  0  0  0
  9  4  1  1  0  0  0
 10  9  1  0  0  0  0
 11 18  1  6  0  0  0
 11 14  1  0  0  0  0
 14 13  1  0  0  0  0
 14 12  2  0  0  0  0
 15 11  1  0  0  0  0
 15 10  1  0  0  0  0
 16 18  1  0  0  0  0
 17 18  1  0  0  0  0
 19 20  1  0  0  0  0
 20 21  1  0  0  0  0
 20 22  1  0  0  0  0
 23 24  1  1  0  0  0
 23  1  1  0  0  0  0
 25 23  1  0  0  0  0
 26 25  1  0  0  0  0
 27 32  1  0  0  0  0
 27 31  1  0  0  0  0
 28 26  1  0  0  0  0
 29 28  1  0  0  0  0
 30 28  2  0  0  0  0
 31 34  1  6  0  0  0
 31 30  1  0  0  0  0
 32 35  1  1  0  0  0
 32 29  1  0  0  0  0
 33 34  1  0  0  0  0
 35 36  1  1  0  0  0
 35 38  1  0  0  0  0
 36 37  1  0  0  0  0
 40 39  1  1  0  0  0
 40 42  1  0  0  0  0
 40 38  1  0  0  0  0
 42 43  2  0  0  0  0
 42 41  1  0  0  0  0
 45 44  1  0  0  0  0
 47 45  1  0  0  0  0
 47 46  1  0  0  0  0
M  END
>  <MODEL>
8

>  <REMARK>
 VINA RESULT:      -6.2      2.841      7.057
  Name = 
  18 active torsions:
  status: ('A' for Active; 'I' for Inactive)
    1  A    between atoms: C_3  and  N_18
    2  A    between atoms: O_5  and  C_9
    3  A    between atoms: O_5  and  C_32
    4  A    between atoms: C_6  and  C_9
    5  A    between atoms: C_10  and  C_29
    6  A    between atoms: O_11  and  C_32
    7  A    between atoms: C_14  and  C_34
    8  A    between atoms: N_15  and  C_25
    9  A    between atoms: N_15  and  C_34
   10  A    between atoms: N_18  and  C_28
   11  A    between atoms: C_19  and  C_20
   12  A    between atoms: C_19  and  C_25
   13  A    between atoms: C_19  and  C_45
   14  A    between atoms: C_20  and  N_23
   15  A    between atoms: C_21  and  N_46
   16  A    between atoms: N_23  and  N_40
   17  A    between atoms: C_32  and  C_42
   18  A    between atoms: C_39  and  O_44
                            x       y       z     vdW  Elec       q    Type
                         _______ _______ _______ _____ _____    ______ ____

>  <TORSDO>
F 18

$$$$
=
 OpenBabel10222415243D

 47 49  0  0  1  0  0  0  0  0999 V2000
  183.5200  177.9860  140.1950 C   0  0  1  0  0  3  0  0  0  0  0  0
  184.3460  177.2850  137.9760 C   0  0  0  0  0  3  0  0  0  0  0  0
  184.3600  176.8210  136.5350 C   0  0  2  0  0  3  0  0  0  0  0  0
  181.4180  177.5550  137.1130 C   0  0  0  0  0  0  0  0  0  0  0  0
  181.8760  177.0730  138.4630 C   0  0  0  0  0  2  0  0  0  0  0  0
  183.1060  176.0920  136.0690 C   0  0  0  0  0  2  0  0  0  0  0  0
  181.9690  177.0610  135.9990 C   0  0  0  0  0  3  0  0  0  0  0  0
  183.2880  177.4690  138.8000 C   0  0  0  0  0  0  0  0  0  0  0  0
  180.3180  178.5650  136.9960 C   0  0  2  0  0  3  0  0  0  0  0  0
  180.3180  179.2070  135.5970 C   0  0  0  0  0  2  0  0  0  0  0  0
  180.7460  181.5310  136.4850 C   0  0  1  0  0  3  0  0  0  0  0  0
  182.1440  181.1400  138.4310 N   0  0  0  0  0  2  0  0  0  0  0  0
  180.3450  179.5680  138.1640 C   0  0  0  0  0  2  0  0  0  0  0  0
  181.0750  180.8280  137.7910 C   0  0  0  0  0  0  0  0  0  0  0  0
  179.8130  180.6470  135.6330 C   0  0  0  0  0  2  0  0  0  0  0  0
  181.0620  183.8850  136.2460 C   0  0  0  0  0  1  0  0  0  0  0  0
  178.9560  182.9980  135.8860 C   0  0  0  0  0  1  0  0  0  0  0  0
  180.1440  182.8550  136.7220 N   0  0  0  0  0  0  0  0  0  0  0  0
  185.5310  175.9780  136.3060 N   0  0  0  0  0  2  0  0  0  0  0  0
  186.6700  176.7690  135.8310 C   0  0  0  0  0  3  0  0  0  0  0  0
  187.7380  176.9420  136.9030 C   0  0  0  0  0  1  0  0  0  0  0  0
  186.2340  178.1100  135.2630 C   0  0  0  0  0  1  0  0  0  0  0  0
  184.8670  178.7020  140.3320 C   0  0  1  0  0  3  0  0  0  0  0  0
  184.8680  179.9140  139.6330 O   0  0  0  0  0  1  0  0  0  0  0  0
  185.1630  178.9440  141.7340 N   0  0  0  0  0  2  0  0  0  0  0  0
  186.3440  178.1630  142.0690 C   0  0  0  0  0  2  0  0  0  0  0  0
  186.6340  178.4790  146.3370 C   0  0  0  0  0  2  0  0  0  0  0  0
  186.3650  177.8770  143.5340 C   0  0  0  0  0  0  0  0  0  0  0  0
  187.6400  177.4290  144.1930 C   0  0  0  0  0  2  0  0  0  0  0  0
  185.2750  178.0640  144.2880 C   0  0  0  0  0  3  0  0  0  0  0  0
  185.3670  177.8220  145.7680 C   0  0  2  0  0  3  0  0  0  0  0  0
  187.8950  178.2450  145.4670 C   0  0  2  0  0  3  0  0  0  0  0  0
  183.5010  178.9560  145.3940 C   0  0  0  0  0  1  0  0  0  0  0  0
  184.2320  178.3310  146.4080 O   0  0  0  0  0  0  0  0  0  0  0  0
  189.0410  177.6380  146.2750 C   0  0  1  0  0  3  0  0  0  0  0  0
  188.5410  177.0510  147.4400 O   0  0  0  0  0  0  0  0  0  0  0  0
  189.0060  177.8630  148.4780 C   0  0  0  0  0  1  0  0  0  0  0  0
  189.7200  176.6690  145.5190 O   0  0  0  0  0  0  0  0  0  0  0  0
  191.8560  176.0850  146.0520 O   0  0  0  0  0  1  0  0  0  0  0  0
  191.0560  177.0840  145.4960 C   0  0  1  0  0  3  0  0  0  0  0  0
  191.6350  176.3850  143.2860 O   0  0  0  0  0  0  0  0  0  0  0  0
  191.4940  177.3480  144.0910 C   0  0  0  0  0  0  0  0  0  0  0  0
  191.7110  178.6520  143.6520 O   0  0  0  0  0  1  0  0  0  0  0  0
  182.3560  178.8380  140.6960 C   0  0  0  0  0  2  0  0  0  0  0  0
  181.6770  178.1660  141.7940 N   0  0  0  0  0  2  0  0  0  0  0  0
  180.9060  179.8350  143.0220 O   0  0  0  0  0  1  0  0  0  0  0  0
  180.5370  178.9230  142.0910 N   0  0  0  0  0  2  0  0  0  0  0  0
  1 23  1  0  0  0  0
  1 44  1  6  0  0  0
  2  8  2  0  0  0  0
  3 19  1  1  0  0  0
  3  2  1  0  0  0  0
  4  5  1  0  0  0  0
  5  8  1  0  0  0  0
  6  3  1  0  0  0  0
  7  6  1  0  0  0  0
  7  4  2  0  0  0  0
  8  1  1  0  0  0  0
  9  4  1  6  0  0  0
  9 13  1  0  0  0  0
 10 15  1  0  0  0  0
 10  9  1  0  0  0  0
 11 18  1  1  0  0  0
 11 14  1  0  0  0  0
 14 13  1  0  0  0  0
 14 12  2  0  0  0  0
 15 11  1  0  0  0  0
 16 18  1  0  0  0  0
 17 18  1  0  0  0  0
 20 19  1  0  0  0  0
 20 21  1  0  0  0  0
 22 20  1  0  0  0  0
 23 24  1  6  0  0  0
 23 25  1  0  0  0  0
 25 26  1  0  0  0  0
 26 28  1  0  0  0  0
 28 29  1  0  0  0  0
 28 30  2  0  0  0  0
 29 32  1  0  0  0  0
 30 31  1  0  0  0  0
 31 27  1  0  0  0  0
 31 34  1  1  0  0  0
 32 35  1  1  0  0  0
 32 27  1  0  0  0  0
 33 34  1  0  0  0  0
 35 38  1  6  0  0  0
 35 36  1  0  0  0  0
 36 37  1  0  0  0  0
 40 38  1  0  0  0  0
 40 39  1  6  0  0  0
 41 42  2  0  0  0  0
 42 40  1  0  0  0  0
 43 42  1  0  0  0  0
 44 45  1  0  0  0  0
 45 47  1  0  0  0  0
 47 46  1  0  0  0  0
M  END
>  <MODEL>
9

>  <REMARK>
 VINA RESULT:      -6.2      3.505      9.121
  Name = 
  18 active torsions:
  status: ('A' for Active; 'I' for Inactive)
    1  A    between atoms: C_3  and  N_18
    2  A    between atoms: O_5  and  C_9
    3  A    between atoms: O_5  and  C_32
    4  A    between atoms: C_6  and  C_9
    5  A    between atoms: C_10  and  C_29
    6  A    between atoms: O_11  and  C_32
    7  A    between atoms: C_14  and  C_34
    8  A    between atoms: N_15  and  C_25
    9  A    between atoms: N_15  and  C_34
   10  A    between atoms: N_18  and  C_28
   11  A    between atoms: C_19  and  C_20
   12  A    between atoms: C_19  and  C_25
   13  A    between atoms: C_19  and  C_45
   14  A    between atoms: C_20  and  N_23
   15  A    between atoms: C_21  and  N_46
   16  A    between atoms: N_23  and  N_40
   17  A    between atoms: C_32  and  C_42
   18  A    between atoms: C_39  and  O_44
                            x       y       z     vdW  Elec       q    Type
                         _______ _______ _______ _____ _____    ______ ____

>  <TORSDO>
F 18

$$$$
