=
 OpenBabel10222420473D

 39 42  0  0  1  0  0  0  0  0999 V2000
  189.9270  176.4950  137.0000 C   0  0  2  0  0  3  0  0  0  0  0  0
  188.8410  176.7600  139.2370 C   0  0  0  0  0  3  0  0  0  0  0  0
  191.2450  177.0060  139.0980 C   0  0  0  0  0  3  0  0  0  0  0  0
  190.0130  176.7590  138.4760 C   0  0  0  0  0  0  0  0  0  0  0  0
  190.1260  177.2630  141.2360 C   0  0  0  0  0  0  0  0  0  0  0  0
  188.8960  177.0130  140.6120 C   0  0  0  0  0  3  0  0  0  0  0  0
  191.2990  177.2560  140.4720 C   0  0  0  0  0  3  0  0  0  0  0  0
  189.4960  177.8480  144.6880 C   0  0  0  0  0  0  0  0  0  0  0  0
  187.4410  177.8900  145.8680 O   0  0  0  0  0  0  0  0  0  0  0  0
  190.6680  177.1870  147.2500 C   0  0  0  0  0  3  0  0  0  0  0  0
  189.3920  177.5970  147.2020 C   0  0  0  0  0  0  0  0  0  0  0  0
  188.6960  177.7860  145.9140 C   0  0  0  0  0  0  0  0  0  0  0  0
  190.1900  177.5420  142.6810 C   0  0  0  0  0  0  0  0  0  0  0  0
  191.5720  176.5840  145.8000 S   0  0  0  0  0  0  0  0  0  0  0  0
  188.5920  178.0320  148.6990 Cl  0  0  0  0  0  0  0  0  0  0  0  0
  190.9780  177.9190  144.7180 C   0  0  1  0  0  3  0  0  0  0  0  0
  191.3080  177.6580  143.3260 N   0  0  0  0  0  0  0  0  0  0  0  0
  189.0320  177.6330  143.5050 N   0  0  0  0  0  0  0  0  0  0  0  0
  187.0870  178.5560  136.7830 C   0  0  1  0  0  3  0  0  0  0  0  0
  188.0640  179.2330  137.6250 N   0  0  0  0  0  2  0  0  0  0  0  0
  189.2560  177.6550  136.2560 C   0  0  2  0  0  3  0  0  0  0  0  0
  189.3570  178.9680  137.0140 C   0  0  0  0  0  2  0  0  0  0  0  0
  187.7780  177.3930  136.1020 C   0  0  0  0  0  2  0  0  0  0  0  0
  185.3160  177.0270  137.2730 O   0  0  0  0  0  0  0  0  0  0  0  0
  185.9370  178.0750  137.6020 C   0  0  0  0  0  0  0  0  0  0  0  0
  185.5410  178.8210  138.7560 N   0  0  0  0  0  2  0  0  0  0  0  0
  184.4140  178.4350  139.5920 C   0  0  0  0  0  3  0  0  0  0  0  0
  183.1680  179.1820  139.1580 C   0  0  0  0  0  1  0  0  0  0  0  0
  184.7210  178.7730  141.0360 C   0  0  0  0  0  1  0  0  0  0  0  0
  189.2910  175.2710  136.7350 O   0  0  0  0  0  0  0  0  0  0  0  0
  190.1920  174.5400  135.9540 C   0  0  1  0  0  3  0  0  0  0  0  0
  191.1060  173.7350  136.8650 C   0  0  0  0  0  2  0  0  0  0  0  0
  193.3180  174.0270  137.6990 O   0  0  0  0  0  0  0  0  0  0  0  0
  192.9440  174.8840  135.5730 N   0  0  0  0  0  1  0  0  0  0  0  0
  192.5100  174.2220  136.7550 C   0  0  0  0  0  0  0  0  0  0  0  0
  189.4590  173.6400  135.0730 N   0  0  0  0  0  2  0  0  0  0  0  0
  187.9290  172.0170  136.2350 C   0  0  0  0  0  1  0  0  0  0  0  0
  186.8300  173.8500  134.5960 S   0  0  0  0  0  0  0  0  0  0  0  0
  188.1290  173.1850  135.3390 C   0  0  0  0  0  0  0  0  0  0  0  0
  1 30  1  1  0  0  0
  1  4  1  0  0  0  0
  2  6  1  0  0  0  0
  3  7  2  0  0  0  0
  4  3  1  0  0  0  0
  4  2  2  0  0  0  0
  5 13  1  0  0  0  0
  6  5  2  0  0  0  0
  7  5  1  0  0  0  0
  8 16  1  0  0  0  0
  8 12  1  0  0  0  0
  9 12  2  0  0  0  0
 11 10  2  0  0  0  0
 11 15  1  0  0  0  0
 12 11  1  0  0  0  0
 13 17  2  0  0  0  0
 13 18  1  0  0  0  0
 14 10  1  0  0  0  0
 16 17  1  6  0  0  0
 16 14  1  0  0  0  0
 18  8  2  0  0  0  0
 19 25  1  1  0  0  0
 19 20  1  0  0  0  0
 21  1  1  1  0  0  0
 21 22  1  0  0  0  0
 22 20  1  0  0  0  0
 23 21  1  0  0  0  0
 23 19  1  0  0  0  0
 24 25  2  0  0  0  0
 25 26  1  0  0  0  0
 26 27  1  0  0  0  0
 27 29  1  0  0  0  0
 28 27  1  0  0  0  0
 31 30  1  0  0  0  0
 31 32  1  1  0  0  0
 34 35  1  0  0  0  0
 35 32  1  0  0  0  0
 35 33  2  0  0  0  0
 36 39  1  0  0  0  0
 36 31  1  0  0  0  0
 38 39  2  0  0  0  0
 39 37  1  0  0  0  0
M  END
>  <MODEL>
1

>  <REMARK>
 VINA RESULT:      -7.2      0.000      0.000
  Name = 
  11 active torsions:
  status: ('A' for Active; 'I' for Inactive)
    1  A    between atoms: C_2  and  C_7
    2  A    between atoms: C_3  and  N_13
    3  A    between atoms: C_10  and  C_24
    4  A    between atoms: C_10  and  C_32
    5  A    between atoms: C_14  and  C_33
    6  A    between atoms: N_19  and  C_24
    7  A    between atoms: N_19  and  C_28
    8  A    between atoms: O_21  and  C_24
    9  A    between atoms: O_21  and  C_33
   10  A    between atoms: C_23  and  C_27
   11  A    between atoms: C_26  and  C_33
                            x       y       z     vdW  Elec       q    Type
                         _______ _______ _______ _____ _____    ______ ____

>  <TORSDO>
F 11

$$$$
=
 OpenBabel10222420473D

 39 42  0  0  1  0  0  0  0  0999 V2000
  189.5710  178.3320  143.1630 C   0  0  2  0  0  3  0  0  0  0  0  0
  187.9780  178.9190  141.3260 C   0  0  0  0  0  3  0  0  0  0  0  0
  187.0960  177.8310  143.3010 C   0  0  0  0  0  3  0  0  0  0  0  0
  188.1840  178.3570  142.5900 C   0  0  0  0  0  0  0  0  0  0  0  0
  185.6020  178.4380  141.4870 C   0  0  0  0  0  0  0  0  0  0  0  0
  186.6920  178.9600  140.7770 C   0  0  0  0  0  3  0  0  0  0  0  0
  185.8120  177.8720  142.7510 C   0  0  0  0  0  3  0  0  0  0  0  0
  182.5950  179.2080  139.7510 C   0  0  0  0  0  0  0  0  0  0  0  0
  182.1090  181.0050  138.2840 O   0  0  0  0  0  0  0  0  0  0  0  0
  180.4850  177.8160  138.3420 C   0  0  0  0  0  3  0  0  0  0  0  0
  180.6470  179.1310  138.1410 C   0  0  0  0  0  0  0  0  0  0  0  0
  181.8050  179.8550  138.7000 C   0  0  0  0  0  0  0  0  0  0  0  0
  184.2440  178.4900  140.9190 C   0  0  0  0  0  0  0  0  0  0  0  0
  181.7620  176.7590  139.0760 S   0  0  0  0  0  0  0  0  0  0  0  0
  179.3860  180.0140  137.3010 Cl  0  0  0  0  0  0  0  0  0  0  0  0
  182.1610  177.9440  140.3970 C   0  0  1  0  0  3  0  0  0  0  0  0
  183.3670  177.5560  141.1100 N   0  0  0  0  0  0  0  0  0  0  0  0
  183.8040  179.5320  140.0550 N   0  0  0  0  0  0  0  0  0  0  0  0
  190.8710  176.4060  140.5240 C   0  0  1  0  0  3  0  0  0  0  0  0
  191.9370  177.2700  141.0100 N   0  0  0  0  0  2  0  0  0  0  0  0
  190.3200  177.0500  142.7770 C   0  0  2  0  0  3  0  0  0  0  0  0
  191.7830  177.3060  142.4560 C   0  0  0  0  0  2  0  0  0  0  0  0
  189.7300  176.4580  141.5200 C   0  0  0  0  0  2  0  0  0  0  0  0
  191.2520  177.1120  138.2720 O   0  0  0  0  0  0  0  0  0  0  0  0
  190.4110  176.8510  139.1770 C   0  0  0  0  0  0  0  0  0  0  0  0
  189.0110  176.9880  138.9260 N   0  0  0  0  0  2  0  0  0  0  0  0
  188.4820  177.4420  137.6490 C   0  0  0  0  0  3  0  0  0  0  0  0
  188.7200  178.9310  137.4890 C   0  0  0  0  0  1  0  0  0  0  0  0
  186.9930  177.1670  137.5960 C   0  0  0  0  0  1  0  0  0  0  0  0
  189.5550  178.5250  144.5540 O   0  0  0  0  0  0  0  0  0  0  0  0
  190.0070  177.3210  145.1060 C   0  0  1  0  0  3  0  0  0  0  0  0
  191.3370  177.5580  145.8030 C   0  0  0  0  0  2  0  0  0  0  0  0
  192.0930  175.3200  145.4900 O   0  0  0  0  0  0  0  0  0  0  0  0
  192.2530  176.1200  147.6640 N   0  0  0  0  0  1  0  0  0  0  0  0
  191.9030  176.2690  146.2930 C   0  0  0  0  0  0  0  0  0  0  0  0
  189.0290  176.8260  146.0660 N   0  0  0  0  0  2  0  0  0  0  0  0
  189.0550  178.0840  148.2430 C   0  0  0  0  0  1  0  0  0  0  0  0
  186.7790  178.0820  146.8030 S   0  0  0  0  0  0  0  0  0  0  0  0
  188.3500  177.6640  147.0050 C   0  0  0  0  0  0  0  0  0  0  0  0
  1 30  1  1  0  0  0
  2  4  1  0  0  0  0
  4  1  1  0  0  0  0
  4  3  2  0  0  0  0
  5  7  2  0  0  0  0
  6  2  2  0  0  0  0
  6  5  1  0  0  0  0
  7  3  1  0  0  0  0
  8 18  2  0  0  0  0
  8 16  1  0  0  0  0
  9 12  2  0  0  0  0
 10 14  1  0  0  0  0
 11 10  2  0  0  0  0
 11 12  1  0  0  0  0
 12  8  1  0  0  0  0
 13 17  2  0  0  0  0
 13  5  1  0  0  0  0
 15 11  1  0  0  0  0
 16 14  1  6  0  0  0
 16 17  1  0  0  0  0
 18 13  1  0  0  0  0
 19 25  1  6  0  0  0
 19 20  1  0  0  0  0
 19 23  1  0  0  0  0
 20 22  1  0  0  0  0
 21  1  1  6  0  0  0
 22 21  1  0  0  0  0
 23 21  1  0  0  0  0
 24 25  2  0  0  0  0
 26 25  1  0  0  0  0
 27 26  1  0  0  0  0
 28 27  1  0  0  0  0
 29 27  1  0  0  0  0
 30 31  1  0  0  0  0
 31 32  1  1  0  0  0
 31 36  1  0  0  0  0
 32 35  1  0  0  0  0
 33 35  2  0  0  0  0
 35 34  1  0  0  0  0
 36 39  1  0  0  0  0
 38 39  2  0  0  0  0
 39 37  1  0  0  0  0
M  END
>  <MODEL>
2

>  <REMARK>
 VINA RESULT:      -7.1      3.824      8.671
  Name = 
  11 active torsions:
  status: ('A' for Active; 'I' for Inactive)
    1  A    between atoms: C_2  and  C_7
    2  A    between atoms: C_3  and  N_13
    3  A    between atoms: C_10  and  C_24
    4  A    between atoms: C_10  and  C_32
    5  A    between atoms: C_14  and  C_33
    6  A    between atoms: N_19  and  C_24
    7  A    between atoms: N_19  and  C_28
    8  A    between atoms: O_21  and  C_24
    9  A    between atoms: O_21  and  C_33
   10  A    between atoms: C_23  and  C_27
   11  A    between atoms: C_26  and  C_33
                            x       y       z     vdW  Elec       q    Type
                         _______ _______ _______ _____ _____    ______ ____

>  <TORSDO>
F 11

$$$$
=
 OpenBabel10222420473D

 39 42  0  0  1  0  0  0  0  0999 V2000
  188.8700  176.7990  137.2220 C   0  0  2  0  0  3  0  0  0  0  0  0
  189.9430  176.3400  139.4340 C   0  0  0  0  0  3  0  0  0  0  0  0
  188.2230  178.0410  139.3280 C   0  0  0  0  0  3  0  0  0  0  0  0
  189.0110  177.0710  138.6920 C   0  0  0  0  0  0  0  0  0  0  0  0
  189.2950  177.5370  141.4460 C   0  0  0  0  0  0  0  0  0  0  0  0
  190.0840  176.5710  140.8060 C   0  0  0  0  0  3  0  0  0  0  0  0
  188.3660  178.2710  140.6990 C   0  0  0  0  0  3  0  0  0  0  0  0
  188.8530  177.9430  144.9520 C   0  0  0  0  0  0  0  0  0  0  0  0
  186.8950  177.7200  146.2690 O   0  0  0  0  0  0  0  0  0  0  0  0
  190.2690  177.3370  147.4020 C   0  0  0  0  0  3  0  0  0  0  0  0
  188.9560  177.6050  147.4560 C   0  0  0  0  0  0  0  0  0  0  0  0
  188.1540  177.7540  146.2260 C   0  0  0  0  0  0  0  0  0  0  0  0
  189.4310  177.7760  142.8930 C   0  0  0  0  0  0  0  0  0  0  0  0
  191.1280  176.8830  145.8730 S   0  0  0  0  0  0  0  0  0  0  0  0
  188.2220  177.9020  149.0200 Cl  0  0  0  0  0  0  0  0  0  0  0  0
  190.3170  178.1770  144.8850 C   0  0  1  0  0  3  0  0  0  0  0  0
  190.5730  177.9960  143.4650 N   0  0  0  0  0  0  0  0  0  0  0  0
  188.3320  177.7140  143.7960 N   0  0  0  0  0  0  0  0  0  0  0  0
  192.1470  175.8550  136.3660 C   0  0  1  0  0  3  0  0  0  0  0  0
  191.2600  175.3820  135.3130 N   0  0  0  0  0  2  0  0  0  0  0  0
  190.1400  177.1810  136.4520 C   0  0  2  0  0  3  0  0  0  0  0  0
  190.2700  176.4320  135.1360 C   0  0  0  0  0  2  0  0  0  0  0  0
  191.3670  176.8080  137.2480 C   0  0  0  0  0  2  0  0  0  0  0  0
  191.8670  173.8740  137.6750 O   0  0  0  0  0  0  0  0  0  0  0  0
  192.6660  174.7070  137.1660 C   0  0  0  0  0  0  0  0  0  0  0  0
  194.0760  174.5690  137.3560 N   0  0  0  0  0  2  0  0  0  0  0  0
  194.6610  173.4950  138.1430 C   0  0  0  0  0  3  0  0  0  0  0  0
  195.8010  174.0310  138.9860 C   0  0  0  0  0  1  0  0  0  0  0  0
  195.1890  172.4220  137.2140 C   0  0  0  0  0  1  0  0  0  0  0  0
  187.7320  177.4280  136.6900 O   0  0  0  0  0  0  0  0  0  0  0  0
  186.6520  176.6100  137.0410 C   0  0  1  0  0  3  0  0  0  0  0  0
  185.3540  177.3430  136.7470 C   0  0  0  0  0  2  0  0  0  0  0  0
  183.8150  176.8490  138.4980 O   0  0  0  0  0  0  0  0  0  0  0  0
  184.9100  178.8870  138.6930 N   0  0  0  0  0  1  0  0  0  0  0  0
  184.6400  177.6660  138.0150 C   0  0  0  0  0  0  0  0  0  0  0  0
  186.7050  175.3740  136.2710 N   0  0  0  0  0  2  0  0  0  0  0  0
  187.8130  173.1940  136.8580 C   0  0  0  0  0  1  0  0  0  0  0  0
  185.1990  173.4880  137.4370 S   0  0  0  0  0  0  0  0  0  0  0  0
  186.6160  174.0730  136.8600 C   0  0  0  0  0  0  0  0  0  0  0  0
  1 30  1  6  0  0  0
  1  4  1  0  0  0  0
  2  6  1  0  0  0  0
  3  7  2  0  0  0  0
  4  3  1  0  0  0  0
  4  2  2  0  0  0  0
  5 13  1  0  0  0  0
  6  5  2  0  0  0  0
  7  5  1  0  0  0  0
  8 12  1  0  0  0  0
 10 11  2  0  0  0  0
 11 15  1  0  0  0  0
 12  9  2  0  0  0  0
 12 11  1  0  0  0  0
 13 17  2  0  0  0  0
 13 18  1  0  0  0  0
 14 10  1  0  0  0  0
 16 17  1  6  0  0  0
 16  8  1  0  0  0  0
 16 14  1  0  0  0  0
 18  8  2  0  0  0  0
 19 25  1  1  0  0  0
 19 23  1  0  0  0  0
 20 19  1  0  0  0  0
 21  1  1  1  0  0  0
 21 23  1  0  0  0  0
 22 20  1  0  0  0  0
 22 21  1  0  0  0  0
 25 26  1  0  0  0  0
 25 24  2  0  0  0  0
 26 27  1  0  0  0  0
 27 28  1  0  0  0  0
 29 27  1  0  0  0  0
 30 31  1  0  0  0  0
 31 32  1  6  0  0  0
 32 35  1  0  0  0  0
 35 33  2  0  0  0  0
 35 34  1  0  0  0  0
 36 39  1  0  0  0  0
 36 31  1  0  0  0  0
 37 39  1  0  0  0  0
 39 38  2  0  0  0  0
M  END
>  <MODEL>
3

>  <REMARK>
 VINA RESULT:      -7.0      1.705      5.481
  Name = 
  11 active torsions:
  status: ('A' for Active; 'I' for Inactive)
    1  A    between atoms: C_2  and  C_7
    2  A    between atoms: C_3  and  N_13
    3  A    between atoms: C_10  and  C_24
    4  A    between atoms: C_10  and  C_32
    5  A    between atoms: C_14  and  C_33
    6  A    between atoms: N_19  and  C_24
    7  A    between atoms: N_19  and  C_28
    8  A    between atoms: O_21  and  C_24
    9  A    between atoms: O_21  and  C_33
   10  A    between atoms: C_23  and  C_27
   11  A    between atoms: C_26  and  C_33
                            x       y       z     vdW  Elec       q    Type
                         _______ _______ _______ _____ _____    ______ ____

>  <TORSDO>
F 11

$$$$
=
 OpenBabel10222420473D

 39 42  0  0  1  0  0  0  0  0999 V2000
  191.7330  176.2340  137.3640 C   0  0  2  0  0  3  0  0  0  0  0  0
  192.4740  177.1350  139.5770 C   0  0  0  0  0  3  0  0  0  0  0  0
  190.2010  176.3260  139.3750 C   0  0  0  0  0  3  0  0  0  0  0  0
  191.4570  176.5710  138.8010 C   0  0  0  0  0  0  0  0  0  0  0  0
  190.9880  177.2010  141.4980 C   0  0  0  0  0  0  0  0  0  0  0  0
  192.2410  177.4480  140.9200 C   0  0  0  0  0  3  0  0  0  0  0  0
  189.9690  176.6400  140.7170 C   0  0  0  0  0  3  0  0  0  0  0  0
  189.6330  177.8770  144.7160 C   0  0  0  0  0  0  0  0  0  0  0  0
  187.3730  177.9470  145.4250 O   0  0  0  0  0  0  0  0  0  0  0  0
  190.2230  177.2850  147.4860 C   0  0  0  0  0  3  0  0  0  0  0  0
  188.9900  177.6920  147.1550 C   0  0  0  0  0  0  0  0  0  0  0  0
  188.5880  177.8460  145.7430 C   0  0  0  0  0  0  0  0  0  0  0  0
  190.7410  177.5180  142.9140 C   0  0  0  0  0  0  0  0  0  0  0  0
  191.4160  176.6440  146.2810 S   0  0  0  0  0  0  0  0  0  0  0  0
  187.8880  178.1660  148.4330 Cl  0  0  0  0  0  0  0  0  0  0  0  0
  191.0750  177.9500  145.0620 C   0  0  1  0  0  3  0  0  0  0  0  0
  191.6940  177.6520  143.7810 N   0  0  0  0  0  0  0  0  0  0  0  0
  189.4330  177.6300  143.4670 N   0  0  0  0  0  0  0  0  0  0  0  0
  194.3860  174.1540  136.3690 C   0  0  1  0  0  3  0  0  0  0  0  0
  193.8730  174.8190  135.1790 N   0  0  0  0  0  2  0  0  0  0  0  0
  193.2370  176.1460  137.0830 C   0  0  2  0  0  3  0  0  0  0  0  0
  193.5530  176.1750  135.5970 C   0  0  0  0  0  2  0  0  0  0  0  0
  193.7870  174.8320  137.5840 C   0  0  0  0  0  2  0  0  0  0  0  0
  192.8520  172.3410  136.0990 O   0  0  0  0  0  0  0  0  0  0  0  0
  194.0340  172.7050  136.3490 C   0  0  0  0  0  0  0  0  0  0  0  0
  195.0480  171.7360  136.6270 N   0  0  0  0  0  2  0  0  0  0  0  0
  194.7810  170.3060  136.6530 C   0  0  0  0  0  3  0  0  0  0  0  0
  195.1960  169.7260  137.9920 C   0  0  0  0  0  1  0  0  0  0  0  0
  195.5680  169.6280  135.5510 C   0  0  0  0  0  1  0  0  0  0  0  0
  191.0950  177.1350  136.4950 O   0  0  0  0  0  0  0  0  0  0  0  0
  189.7280  176.8530  136.5970 C   0  0  1  0  0  3  0  0  0  0  0  0
  188.9320  178.0500  136.1040 C   0  0  0  0  0  2  0  0  0  0  0  0
  189.0270  179.5490  137.9540 O   0  0  0  0  0  0  0  0  0  0  0  0
  186.9390  178.6200  137.5440 N   0  0  0  0  0  1  0  0  0  0  0  0
  188.3220  178.7780  137.2530 C   0  0  0  0  0  0  0  0  0  0  0  0
  189.4090  175.6830  135.7900 N   0  0  0  0  0  2  0  0  0  0  0  0
  188.4120  173.6360  136.8590 C   0  0  0  0  0  1  0  0  0  0  0  0
  186.8300  175.1500  135.2910 S   0  0  0  0  0  0  0  0  0  0  0  0
  188.2670  174.8530  136.0190 C   0  0  0  0  0  0  0  0  0  0  0  0
  1 30  1  6  0  0  0
  1  4  1  0  0  0  0
  2  6  1  0  0  0  0
  3  7  2  0  0  0  0
  4  3  1  0  0  0  0
  4  2  2  0  0  0  0
  5 13  1  0  0  0  0
  6  5  2  0  0  0  0
  7  5  1  0  0  0  0
  8 16  1  0  0  0  0
  8 12  1  0  0  0  0
  9 12  2  0  0  0  0
 11 10  2  0  0  0  0
 11 15  1  0  0  0  0
 12 11  1  0  0  0  0
 13 18  1  0  0  0  0
 13 17  2  0  0  0  0
 14 10  1  0  0  0  0
 16 17  1  6  0  0  0
 16 14  1  0  0  0  0
 18  8  2  0  0  0  0
 19 25  1  6  0  0  0
 19 23  1  0  0  0  0
 20 22  1  0  0  0  0
 20 19  1  0  0  0  0
 21  1  1  6  0  0  0
 21 23  1  0  0  0  0
 22 21  1  0  0  0  0
 24 25  2  0  0  0  0
 25 26  1  0  0  0  0
 26 27  1  0  0  0  0
 27 28  1  0  0  0  0
 29 27  1  0  0  0  0
 30 31  1  0  0  0  0
 31 32  1  6  0  0  0
 32 35  1  0  0  0  0
 35 34  1  0  0  0  0
 35 33  2  0  0  0  0
 36 39  1  0  0  0  0
 36 31  1  0  0  0  0
 38 39  2  0  0  0  0
 39 37  1  0  0  0  0
M  END
>  <MODEL>
4

>  <REMARK>
 VINA RESULT:      -6.9      2.147      6.040
  Name = 
  11 active torsions:
  status: ('A' for Active; 'I' for Inactive)
    1  A    between atoms: C_2  and  C_7
    2  A    between atoms: C_3  and  N_13
    3  A    between atoms: C_10  and  C_24
    4  A    between atoms: C_10  and  C_32
    5  A    between atoms: C_14  and  C_33
    6  A    between atoms: N_19  and  C_24
    7  A    between atoms: N_19  and  C_28
    8  A    between atoms: O_21  and  C_24
    9  A    between atoms: O_21  and  C_33
   10  A    between atoms: C_23  and  C_27
   11  A    between atoms: C_26  and  C_33
                            x       y       z     vdW  Elec       q    Type
                         _______ _______ _______ _____ _____    ______ ____

>  <TORSDO>
F 11

$$$$
=
 OpenBabel10222420473D

 39 42  0  0  1  0  0  0  0  0999 V2000
  182.1440  178.8840  139.5470 C   0  0  2  0  0  3  0  0  0  0  0  0
  184.6390  179.0050  139.6650 C   0  0  0  0  0  3  0  0  0  0  0  0
  183.4370  178.2520  141.6270 C   0  0  0  0  0  3  0  0  0  0  0  0
  183.4300  178.7080  140.3010 C   0  0  0  0  0  0  0  0  0  0  0  0
  185.8600  178.3810  141.6700 C   0  0  0  0  0  0  0  0  0  0  0  0
  185.8500  178.8400  140.3460 C   0  0  0  0  0  3  0  0  0  0  0  0
  184.6470  178.0890  142.3070 C   0  0  0  0  0  3  0  0  0  0  0  0
  188.4620  177.7920  144.0230 C   0  0  0  0  0  0  0  0  0  0  0  0
  188.3290  177.2790  146.3330 O   0  0  0  0  0  0  0  0  0  0  0  0
  191.0300  176.4630  144.1310 C   0  0  0  0  0  3  0  0  0  0  0  0
  190.3970  176.7540  145.2760 C   0  0  0  0  0  0  0  0  0  0  0  0
  189.0170  177.2760  145.2780 C   0  0  0  0  0  0  0  0  0  0  0  0
  187.1320  178.1940  142.3890 C   0  0  0  0  0  0  0  0  0  0  0  0
  190.2010  176.4280  142.5200 S   0  0  0  0  0  0  0  0  0  0  0  0
  191.2840  176.6230  146.7830 Cl  0  0  0  0  0  0  0  0  0  0  0  0
  189.2970  177.9790  142.8110 C   0  0  1  0  0  3  0  0  0  0  0  0
  188.2830  178.2000  141.7930 N   0  0  0  0  0  0  0  0  0  0  0  0
  187.2020  177.9200  143.7840 N   0  0  0  0  0  0  0  0  0  0  0  0
  183.1960  176.4520  137.2370 C   0  0  1  0  0  3  0  0  0  0  0  0
  183.4850  175.9490  138.5730 N   0  0  0  0  0  2  0  0  0  0  0  0
  181.7590  177.6130  138.7800 C   0  0  2  0  0  3  0  0  0  0  0  0
  182.3580  176.3590  139.3960 C   0  0  0  0  0  2  0  0  0  0  0  0
  182.3010  177.6670  137.3730 C   0  0  0  0  0  2  0  0  0  0  0  0
  184.4380  177.1160  135.3050 O   0  0  0  0  0  0  0  0  0  0  0  0
  184.4600  176.8080  136.5280 C   0  0  0  0  0  0  0  0  0  0  0  0
  185.6940  176.7860  137.2490 N   0  0  0  0  0  2  0  0  0  0  0  0
  186.9720  177.0930  136.6260 C   0  0  0  0  0  3  0  0  0  0  0  0
  188.0770  176.2900  137.2860 C   0  0  0  0  0  1  0  0  0  0  0  0
  187.2660  178.5700  136.7860 C   0  0  0  0  0  1  0  0  0  0  0  0
  182.1940  180.0040  138.7010 O   0  0  0  0  0  0  0  0  0  0  0  0
  181.0100  180.7090  138.9400 C   0  0  1  0  0  3  0  0  0  0  0  0
  180.2030  180.7850  137.6530 C   0  0  0  0  0  2  0  0  0  0  0  0
  179.8460  182.3500  135.8930 O   0  0  0  0  0  0  0  0  0  0  0  0
  181.1180  183.1370  137.6690 N   0  0  0  0  0  1  0  0  0  0  0  0
  180.3760  182.1180  137.0100 C   0  0  0  0  0  0  0  0  0  0  0  0
  180.2330  180.0280  139.9680 N   0  0  0  0  0  2  0  0  0  0  0  0
  178.9340  182.0070  140.8160 C   0  0  0  0  0  1  0  0  0  0  0  0
  179.6960  180.1310  142.5920 S   0  0  0  0  0  0  0  0  0  0  0  0
  179.6040  180.7040  141.0600 C   0  0  0  0  0  0  0  0  0  0  0  0
  1 30  1  6  0  0  0
  1  4  1  0  0  0  0
  2  4  2  0  0  0  0
  2  6  1  0  0  0  0
  3  7  2  0  0  0  0
  4  3  1  0  0  0  0
  5  7  1  0  0  0  0
  5 13  1  0  0  0  0
  6  5  2  0  0  0  0
  8 12  1  0  0  0  0
 10 11  2  0  0  0  0
 11 12  1  0  0  0  0
 11 15  1  0  0  0  0
 12  9  2  0  0  0  0
 13 18  1  0  0  0  0
 14 16  1  0  0  0  0
 14 10  1  0  0  0  0
 16 17  1  6  0  0  0
 16  8  1  0  0  0  0
 17 13  2  0  0  0  0
 18  8  2  0  0  0  0
 19 25  1  1  0  0  0
 19 23  1  0  0  0  0
 19 20  1  0  0  0  0
 20 22  1  0  0  0  0
 21 22  1  0  0  0  0
 21  1  1  1  0  0  0
 23 21  1  0  0  0  0
 24 25  2  0  0  0  0
 25 26  1  0  0  0  0
 27 29  1  0  0  0  0
 27 26  1  0  0  0  0
 27 28  1  0  0  0  0
 30 31  1  0  0  0  0
 31 32  1  6  0  0  0
 31 36  1  0  0  0  0
 33 35  2  0  0  0  0
 35 32  1  0  0  0  0
 35 34  1  0  0  0  0
 36 39  1  0  0  0  0
 37 39  1  0  0  0  0
 39 38  2  0  0  0  0
M  END
>  <MODEL>
5

>  <REMARK>
 VINA RESULT:      -6.8      3.642      7.837
  Name = 
  11 active torsions:
  status: ('A' for Active; 'I' for Inactive)
    1  A    between atoms: C_2  and  C_7
    2  A    between atoms: C_3  and  N_13
    3  A    between atoms: C_10  and  C_24
    4  A    between atoms: C_10  and  C_32
    5  A    between atoms: C_14  and  C_33
    6  A    between atoms: N_19  and  C_24
    7  A    between atoms: N_19  and  C_28
    8  A    between atoms: O_21  and  C_24
    9  A    between atoms: O_21  and  C_33
   10  A    between atoms: C_23  and  C_27
   11  A    between atoms: C_26  and  C_33
                            x       y       z     vdW  Elec       q    Type
                         _______ _______ _______ _____ _____    ______ ____

>  <TORSDO>
F 11

$$$$
=
 OpenBabel10222420473D

 39 42  0  0  1  0  0  0  0  0999 V2000
  182.8920  178.4240  140.0690 C   0  0  2  0  0  3  0  0  0  0  0  0
  185.3720  178.6360  140.3140 C   0  0  0  0  0  3  0  0  0  0  0  0
  184.0860  177.9610  142.2510 C   0  0  0  0  0  3  0  0  0  0  0  0
  184.1390  178.3370  140.9010 C   0  0  0  0  0  0  0  0  0  0  0  0
  186.4980  178.1730  142.4160 C   0  0  0  0  0  0  0  0  0  0  0  0
  186.5470  178.5530  141.0670 C   0  0  0  0  0  3  0  0  0  0  0  0
  185.2610  177.8800  143.0030 C   0  0  0  0  0  3  0  0  0  0  0  0
  188.9900  177.6960  144.9090 C   0  0  0  0  0  0  0  0  0  0  0  0
  188.7660  177.0010  147.1630 O   0  0  0  0  0  0  0  0  0  0  0  0
  191.6800  176.6490  145.1150 C   0  0  0  0  0  3  0  0  0  0  0  0
  190.9450  176.7830  146.2280 C   0  0  0  0  0  0  0  0  0  0  0  0
  189.5170  177.1520  146.1630 C   0  0  0  0  0  0  0  0  0  0  0  0
  187.7330  178.0730  143.2110 C   0  0  0  0  0  0  0  0  0  0  0  0
  190.9680  176.6460  143.4480 S   0  0  0  0  0  0  0  0  0  0  0  0
  191.7400  176.6380  147.7830 Cl  0  0  0  0  0  0  0  0  0  0  0  0
  189.8770  178.0630  143.7760 C   0  0  1  0  0  3  0  0  0  0  0  0
  188.9130  178.2480  142.7030 N   0  0  0  0  0  0  0  0  0  0  0  0
  187.7430  177.7040  144.5870 N   0  0  0  0  0  0  0  0  0  0  0  0
  182.1080  178.6080  136.6470 C   0  0  1  0  0  3  0  0  0  0  0  0
  181.2110  179.5090  137.3570 N   0  0  0  0  0  2  0  0  0  0  0  0
  183.1420  179.1630  138.7490 C   0  0  2  0  0  3  0  0  0  0  0  0
  182.0180  180.1240  138.3990 C   0  0  0  0  0  2  0  0  0  0  0  0
  183.2020  178.1810  137.6040 C   0  0  0  0  0  2  0  0  0  0  0  0
  180.3080  177.5730  135.4620 O   0  0  0  0  0  0  0  0  0  0  0  0
  181.3610  177.4200  136.1410 C   0  0  0  0  0  0  0  0  0  0  0  0
  181.8470  176.1100  136.4400 N   0  0  0  0  0  2  0  0  0  0  0  0
  181.1640  174.9010  136.0070 C   0  0  0  0  0  3  0  0  0  0  0  0
  181.3080  173.8190  137.0590 C   0  0  0  0  0  1  0  0  0  0  0  0
  181.7750  174.4170  134.7080 C   0  0  0  0  0  1  0  0  0  0  0  0
  181.8330  178.9980  140.7920 O   0  0  0  0  0  0  0  0  0  0  0  0
  180.7240  178.1810  140.5460 C   0  0  1  0  0  3  0  0  0  0  0  0
  181.1990  176.7750  140.2170 C   0  0  0  0  0  2  0  0  0  0  0  0
  179.3390  176.2040  138.8420 O   0  0  0  0  0  0  0  0  0  0  0  0
  179.7560  174.7400  140.5950 N   0  0  0  0  0  1  0  0  0  0  0  0
  180.0450  175.9110  139.8410 C   0  0  0  0  0  0  0  0  0  0  0  0
  179.8690  178.1480  141.7250 N   0  0  0  0  0  2  0  0  0  0  0  0
  180.7750  178.6240  144.0220 C   0  0  0  0  0  1  0  0  0  0  0  0
  179.2470  180.5030  142.8440 S   0  0  0  0  0  0  0  0  0  0  0  0
  180.0060  179.0520  142.8260 C   0  0  0  0  0  0  0  0  0  0  0  0
  1 30  1  1  0  0  0
  1  4  1  0  0  0  0
  2  4  2  0  0  0  0
  2  6  1  0  0  0  0
  3  7  2  0  0  0  0
  4  3  1  0  0  0  0
  5  7  1  0  0  0  0
  5 13  1  0  0  0  0
  6  5  2  0  0  0  0
  8 12  1  0  0  0  0
 10 11  2  0  0  0  0
 11 15  1  0  0  0  0
 12 11  1  0  0  0  0
 12  9  2  0  0  0  0
 13 18  1  0  0  0  0
 14 16  1  0  0  0  0
 14 10  1  0  0  0  0
 16 17  1  6  0  0  0
 16  8  1  0  0  0  0
 17 13  2  0  0  0  0
 18  8  2  0  0  0  0
 19 25  1  1  0  0  0
 19 20  1  0  0  0  0
 19 23  1  0  0  0  0
 20 22  1  0  0  0  0
 21  1  1  1  0  0  0
 22 21  1  0  0  0  0
 23 21  1  0  0  0  0
 24 25  2  0  0  0  0
 25 26  1  0  0  0  0
 27 26  1  0  0  0  0
 27 28  1  0  0  0  0
 29 27  1  0  0  0  0
 31 32  1  1  0  0  0
 31 30  1  0  0  0  0
 31 36  1  0  0  0  0
 33 35  2  0  0  0  0
 35 32  1  0  0  0  0
 35 34  1  0  0  0  0
 36 39  1  0  0  0  0
 39 38  2  0  0  0  0
 39 37  1  0  0  0  0
M  END
>  <MODEL>
6

>  <REMARK>
 VINA RESULT:      -6.7      5.235      7.606
  Name = 
  11 active torsions:
  status: ('A' for Active; 'I' for Inactive)
    1  A    between atoms: C_2  and  C_7
    2  A    between atoms: C_3  and  N_13
    3  A    between atoms: C_10  and  C_24
    4  A    between atoms: C_10  and  C_32
    5  A    between atoms: C_14  and  C_33
    6  A    between atoms: N_19  and  C_24
    7  A    between atoms: N_19  and  C_28
    8  A    between atoms: O_21  and  C_24
    9  A    between atoms: O_21  and  C_33
   10  A    between atoms: C_23  and  C_27
   11  A    between atoms: C_26  and  C_33
                            x       y       z     vdW  Elec       q    Type
                         _______ _______ _______ _____ _____    ______ ____

>  <TORSDO>
F 11

$$$$
=
 OpenBabel10222420473D

 39 42  0  0  1  0  0  0  0  0999 V2000
  182.6740  178.6780  140.5020 C   0  0  2  0  0  3  0  0  0  0  0  0
  185.1750  178.6850  140.5510 C   0  0  0  0  0  3  0  0  0  0  0  0
  183.9910  178.2900  142.6260 C   0  0  0  0  0  3  0  0  0  0  0  0
  183.9700  178.5480  141.2480 C   0  0  0  0  0  0  0  0  0  0  0  0
  186.4180  178.2970  142.6020 C   0  0  0  0  0  0  0  0  0  0  0  0
  186.3940  178.5580  141.2250 C   0  0  0  0  0  3  0  0  0  0  0  0
  185.2100  178.1660  143.2980 C   0  0  0  0  0  3  0  0  0  0  0  0
  189.0500  177.7370  144.9280 C   0  0  0  0  0  0  0  0  0  0  0  0
  188.9490  177.0730  147.2010 O   0  0  0  0  0  0  0  0  0  0  0  0
  191.7010  176.5790  144.9670 C   0  0  0  0  0  3  0  0  0  0  0  0
  191.0490  176.7540  146.1250 C   0  0  0  0  0  0  0  0  0  0  0  0
  189.6370  177.1820  146.1510 C   0  0  0  0  0  0  0  0  0  0  0  0
  187.6990  178.1520  143.3140 C   0  0  0  0  0  0  0  0  0  0  0  0
  190.8790  176.5900  143.3520 S   0  0  0  0  0  0  0  0  0  0  0  0
  191.9400  176.5890  147.6250 Cl  0  0  0  0  0  0  0  0  0  0  0  0
  189.8730  178.0560  143.7340 C   0  0  1  0  0  3  0  0  0  0  0  0
  188.8470  178.2710  142.7260 N   0  0  0  0  0  0  0  0  0  0  0  0
  187.7850  177.7960  144.6900 N   0  0  0  0  0  0  0  0  0  0  0  0
  181.8550  179.1710  137.1190 C   0  0  1  0  0  3  0  0  0  0  0  0
  180.8430  179.8430  137.9230 N   0  0  0  0  0  2  0  0  0  0  0  0
  182.8110  179.6020  139.2860 C   0  0  2  0  0  3  0  0  0  0  0  0
  181.5620  180.4320  139.0420 C   0  0  0  0  0  2  0  0  0  0  0  0
  183.0030  178.7870  138.0290 C   0  0  0  0  0  2  0  0  0  0  0  0
  180.3690  178.0810  135.5960 O   0  0  0  0  0  0  0  0  0  0  0  0
  181.2800  177.9620  136.4610 C   0  0  0  0  0  0  0  0  0  0  0  0
  181.7650  176.6690  136.8300 N   0  0  0  0  0  2  0  0  0  0  0  0
  181.2390  175.4400  136.2560 C   0  0  0  0  0  3  0  0  0  0  0  0
  181.6110  174.2590  137.1310 C   0  0  0  0  0  1  0  0  0  0  0  0
  181.8260  175.2400  134.8740 C   0  0  0  0  0  1  0  0  0  0  0  0
  181.6330  179.0900  141.3510 O   0  0  0  0  0  0  0  0  0  0  0  0
  180.7820  177.9850  141.4650 C   0  0  1  0  0  3  0  0  0  0  0  0
  179.3760  178.4670  141.7870 C   0  0  0  0  0  2  0  0  0  0  0  0
  178.9310  180.1060  143.4590 O   0  0  0  0  0  0  0  0  0  0  0  0
  179.6090  178.0350  144.2620 N   0  0  0  0  0  1  0  0  0  0  0  0
  179.2960  178.9300  143.2010 C   0  0  0  0  0  0  0  0  0  0  0  0
  180.7720  177.2430  140.2110 N   0  0  0  0  0  2  0  0  0  0  0  0
  178.9530  176.3790  138.7060 C   0  0  0  0  0  1  0  0  0  0  0  0
  179.5770  174.9450  140.8980 S   0  0  0  0  0  0  0  0  0  0  0  0
  179.8170  176.2240  139.9040 C   0  0  0  0  0  0  0  0  0  0  0  0
  1  4  1  0  0  0  0
  1 30  1  1  0  0  0
  2  6  2  0  0  0  0
  2  4  1  0  0  0  0
  3  7  1  0  0  0  0
  4  3  2  0  0  0  0
  5  7  2  0  0  0  0
  5 13  1  0  0  0  0
  6  5  1  0  0  0  0
  8 12  1  0  0  0  0
 10 11  2  0  0  0  0
 11 12  1  0  0  0  0
 11 15  1  0  0  0  0
 12  9  2  0  0  0  0
 13 18  1  0  0  0  0
 14 16  1  0  0  0  0
 14 10  1  0  0  0  0
 16 17  1  6  0  0  0
 16  8  1  0  0  0  0
 17 13  2  0  0  0  0
 18  8  2  0  0  0  0
 19 25  1  1  0  0  0
 19 20  1  0  0  0  0
 19 23  1  0  0  0  0
 20 22  1  0  0  0  0
 21  1  1  1  0  0  0
 22 21  1  0  0  0  0
 23 21  1  0  0  0  0
 24 25  2  0  0  0  0
 25 26  1  0  0  0  0
 27 26  1  0  0  0  0
 27 28  1  0  0  0  0
 29 27  1  0  0  0  0
 30 31  1  0  0  0  0
 31 32  1  6  0  0  0
 32 35  1  0  0  0  0
 35 33  2  0  0  0  0
 35 34  1  0  0  0  0
 36 31  1  0  0  0  0
 37 39  1  0  0  0  0
 39 36  1  0  0  0  0
 39 38  2  0  0  0  0
M  END
>  <MODEL>
7

>  <REMARK>
 VINA RESULT:      -6.7      5.307      7.775
  Name = 
  11 active torsions:
  status: ('A' for Active; 'I' for Inactive)
    1  A    between atoms: C_2  and  C_7
    2  A    between atoms: C_3  and  N_13
    3  A    between atoms: C_10  and  C_24
    4  A    between atoms: C_10  and  C_32
    5  A    between atoms: C_14  and  C_33
    6  A    between atoms: N_19  and  C_24
    7  A    between atoms: N_19  and  C_28
    8  A    between atoms: O_21  and  C_24
    9  A    between atoms: O_21  and  C_33
   10  A    between atoms: C_23  and  C_27
   11  A    between atoms: C_26  and  C_33
                            x       y       z     vdW  Elec       q    Type
                         _______ _______ _______ _____ _____    ______ ____

>  <TORSDO>
F 11

$$$$
=
 OpenBabel10222420473D

 39 42  0  0  1  0  0  0  0  0999 V2000
  188.9460  177.4330  143.3880 C   0  0  2  0  0  3  0  0  0  0  0  0
  186.4530  177.2980  143.5330 C   0  0  0  0  0  3  0  0  0  0  0  0
  187.4240  178.6720  141.7920 C   0  0  0  0  0  3  0  0  0  0  0  0
  187.5820  177.8130  142.8890 C   0  0  0  0  0  0  0  0  0  0  0  0
  185.0110  178.4870  141.9810 C   0  0  0  0  0  0  0  0  0  0  0  0
  185.1730  177.6320  143.0800 C   0  0  0  0  0  3  0  0  0  0  0  0
  186.1440  179.0060  141.3410 C   0  0  0  0  0  3  0  0  0  0  0  0
  182.1460  179.5000  140.1330 C   0  0  0  0  0  0  0  0  0  0  0  0
  181.9830  180.3130  137.9130 O   0  0  0  0  0  0  0  0  0  0  0  0
  179.3960  178.6760  139.7680 C   0  0  0  0  0  3  0  0  0  0  0  0
  179.9610  179.4830  138.8600 C   0  0  0  0  0  0  0  0  0  0  0  0
  181.4030  179.7990  138.9060 C   0  0  0  0  0  0  0  0  0  0  0  0
  183.6660  178.8330  141.4920 C   0  0  0  0  0  0  0  0  0  0  0  0
  180.3510  177.7000  140.9600 S   0  0  0  0  0  0  0  0  0  0  0  0
  178.9320  180.2700  137.6780 Cl  0  0  0  0  0  0  0  0  0  0  0  0
  181.4660  179.0740  141.3820 C   0  0  1  0  0  3  0  0  0  0  0  0
  182.5910  178.6170  142.1810 N   0  0  0  0  0  0  0  0  0  0  0  0
  183.4260  179.3670  140.1940 N   0  0  0  0  0  0  0  0  0  0  0  0
  189.7540  177.1450  139.9780 C   0  0  1  0  0  3  0  0  0  0  0  0
  190.7820  177.9600  140.6110 N   0  0  0  0  0  2  0  0  0  0  0  0
  189.7350  176.6470  142.3330 C   0  0  2  0  0  3  0  0  0  0  0  0
  191.0110  177.3580  141.9140 C   0  0  0  0  0  2  0  0  0  0  0  0
  188.9220  176.5040  141.0700 C   0  0  0  0  0  2  0  0  0  0  0  0
  189.0750  179.2290  139.0260 O   0  0  0  0  0  0  0  0  0  0  0  0
  188.8970  177.9820  139.0890 C   0  0  0  0  0  0  0  0  0  0  0  0
  187.8700  177.3560  138.3180 N   0  0  0  0  0  2  0  0  0  0  0  0
  186.9750  178.1030  137.4470 C   0  0  0  0  0  3  0  0  0  0  0  0
  185.5330  177.7780  137.7830 C   0  0  0  0  0  1  0  0  0  0  0  0
  187.2480  177.7270  136.0050 C   0  0  0  0  0  1  0  0  0  0  0  0
  188.8710  176.7360  144.6050 O   0  0  0  0  0  0  0  0  0  0  0  0
  189.4600  177.5760  145.5560 C   0  0  1  0  0  3  0  0  0  0  0  0
  189.0350  177.1330  146.9470 C   0  0  0  0  0  2  0  0  0  0  0  0
  186.8720  178.1130  146.7510 O   0  0  0  0  0  0  0  0  0  0  0  0
  188.0110  178.6230  148.7090 N   0  0  0  0  0  1  0  0  0  0  0  0
  187.9140  177.9820  147.4430 C   0  0  0  0  0  0  0  0  0  0  0  0
  190.9110  177.5060  145.4400 N   0  0  0  0  0  2  0  0  0  0  0  0
  192.0560  175.3870  144.7160 C   0  0  0  0  0  1  0  0  0  0  0  0
  192.0500  175.9970  147.3390 S   0  0  0  0  0  0  0  0  0  0  0  0
  191.6760  176.3470  145.7840 C   0  0  0  0  0  0  0  0  0  0  0  0
  1 30  1  1  0  0  0
  3  4  1  0  0  0  0
  4  1  1  0  0  0  0
  4  2  2  0  0  0  0
  5  6  2  0  0  0  0
  6  2  1  0  0  0  0
  7  3  2  0  0  0  0
  7  5  1  0  0  0  0
  8 18  2  0  0  0  0
  9 12  2  0  0  0  0
 10 14  1  0  0  0  0
 11 12  1  0  0  0  0
 11 10  2  0  0  0  0
 12  8  1  0  0  0  0
 13  5  1  0  0  0  0
 13 17  2  0  0  0  0
 14 16  1  0  0  0  0
 15 11  1  0  0  0  0
 16  8  1  6  0  0  0
 16 17  1  0  0  0  0
 18 13  1  0  0  0  0
 19 25  1  6  0  0  0
 19 20  1  0  0  0  0
 19 23  1  0  0  0  0
 20 22  1  0  0  0  0
 21  1  1  1  0  0  0
 22 21  1  0  0  0  0
 23 21  1  0  0  0  0
 24 25  2  0  0  0  0
 26 25  1  0  0  0  0
 27 28  1  0  0  0  0
 27 26  1  0  0  0  0
 29 27  1  0  0  0  0
 30 31  1  0  0  0  0
 31 32  1  1  0  0  0
 32 35  1  0  0  0  0
 33 35  2  0  0  0  0
 35 34  1  0  0  0  0
 36 31  1  0  0  0  0
 36 39  1  0  0  0  0
 37 39  1  0  0  0  0
 39 38  2  0  0  0  0
M  END
>  <MODEL>
8

>  <REMARK>
 VINA RESULT:      -6.7      4.143      8.815
  Name = 
  11 active torsions:
  status: ('A' for Active; 'I' for Inactive)
    1  A    between atoms: C_2  and  C_7
    2  A    between atoms: C_3  and  N_13
    3  A    between atoms: C_10  and  C_24
    4  A    between atoms: C_10  and  C_32
    5  A    between atoms: C_14  and  C_33
    6  A    between atoms: N_19  and  C_24
    7  A    between atoms: N_19  and  C_28
    8  A    between atoms: O_21  and  C_24
    9  A    between atoms: O_21  and  C_33
   10  A    between atoms: C_23  and  C_27
   11  A    between atoms: C_26  and  C_33
                            x       y       z     vdW  Elec       q    Type
                         _______ _______ _______ _____ _____    ______ ____

>  <TORSDO>
F 11

$$$$
=
 OpenBabel10222420473D

 39 42  0  0  1  0  0  0  0  0999 V2000
  192.4260  176.4170  137.0850 C   0  0  2  0  0  3  0  0  0  0  0  0
  192.9670  176.9900  139.4590 C   0  0  0  0  0  3  0  0  0  0  0  0
  190.6380  176.7430  138.8440 C   0  0  0  0  0  3  0  0  0  0  0  0
  191.9950  176.7230  138.4900 C   0  0  0  0  0  0  0  0  0  0  0  0
  191.2320  177.2860  141.1340 C   0  0  0  0  0  0  0  0  0  0  0  0
  192.5880  177.2680  140.7760 C   0  0  0  0  0  3  0  0  0  0  0  0
  190.2610  177.0230  140.1600 C   0  0  0  0  0  3  0  0  0  0  0  0
  189.5320  177.7970  144.2160 C   0  0  0  0  0  0  0  0  0  0  0  0
  187.2230  177.6230  144.7210 O   0  0  0  0  0  0  0  0  0  0  0  0
  189.9330  177.2570  147.0300 C   0  0  0  0  0  3  0  0  0  0  0  0
  188.6970  177.5330  146.5880 C   0  0  0  0  0  0  0  0  0  0  0  0
  188.4090  177.6500  145.1450 C   0  0  0  0  0  0  0  0  0  0  0  0
  190.8280  177.5670  142.5220 C   0  0  0  0  0  0  0  0  0  0  0  0
  191.2890  176.7530  145.9390 S   0  0  0  0  0  0  0  0  0  0  0  0
  187.4420  177.8800  147.7610 Cl  0  0  0  0  0  0  0  0  0  0  0  0
  190.9210  178.0210  144.6890 C   0  0  1  0  0  3  0  0  0  0  0  0
  191.6810  177.7980  143.4690 N   0  0  0  0  0  0  0  0  0  0  0  0
  189.4720  177.5370  142.9550 N   0  0  0  0  0  0  0  0  0  0  0  0
  189.9470  174.0200  136.4010 C   0  0  1  0  0  3  0  0  0  0  0  0
  190.3610  174.6050  135.1330 N   0  0  0  0  0  2  0  0  0  0  0  0
  192.1430  174.9580  136.7110 C   0  0  2  0  0  3  0  0  0  0  0  0
  191.7990  174.7910  135.2400 C   0  0  0  0  0  2  0  0  0  0  0  0
  190.9380  174.4490  137.4640 C   0  0  0  0  0  2  0  0  0  0  0  0
  187.7330  173.6430  137.2190 O   0  0  0  0  0  0  0  0  0  0  0  0
  188.5690  174.4680  136.7580 C   0  0  0  0  0  0  0  0  0  0  0  0
  188.2070  175.8360  136.5620 N   0  0  0  0  0  2  0  0  0  0  0  0
  186.8770  176.3470  136.8590 C   0  0  0  0  0  3  0  0  0  0  0  0
  186.1950  176.7910  135.5800 C   0  0  0  0  0  1  0  0  0  0  0  0
  186.9910  177.5280  137.7990 C   0  0  0  0  0  1  0  0  0  0  0  0
  193.7750  176.7530  136.8780 O   0  0  0  0  0  0  0  0  0  0  0  0
  194.4080  175.5600  136.5160 C   0  0  1  0  0  3  0  0  0  0  0  0
  195.1540  175.7660  135.2070 C   0  0  0  0  0  2  0  0  0  0  0  0
  197.3210  176.6070  135.7320 O   0  0  0  0  0  0  0  0  0  0  0  0
  195.7920  178.2000  135.0150 N   0  0  0  0  0  1  0  0  0  0  0  0
  196.1520  176.8640  135.3450 C   0  0  0  0  0  0  0  0  0  0  0  0
  195.3460  175.1670  137.5590 N   0  0  0  0  0  2  0  0  0  0  0  0
  197.4040  173.7490  137.8370 C   0  0  0  0  0  1  0  0  0  0  0  0
  195.0520  172.5070  137.4190 S   0  0  0  0  0  0  0  0  0  0  0  0
  195.9360  173.8670  137.6420 C   0  0  0  0  0  0  0  0  0  0  0  0
  1 30  1  1  0  0  0
  1  4  1  0  0  0  0
  2  6  1  0  0  0  0
  3  7  2  0  0  0  0
  4  3  1  0  0  0  0
  4  2  2  0  0  0  0
  5 13  1  0  0  0  0
  6  5  2  0  0  0  0
  7  5  1  0  0  0  0
  8 16  1  0  0  0  0
  8 12  1  0  0  0  0
  9 12  2  0  0  0  0
 11 10  2  0  0  0  0
 11 15  1  0  0  0  0
 12 11  1  0  0  0  0
 13 18  1  0  0  0  0
 13 17  2  0  0  0  0
 14 10  1  0  0  0  0
 16 17  1  6  0  0  0
 16 14  1  0  0  0  0
 18  8  2  0  0  0  0
 19 25  1  1  0  0  0
 19 23  1  0  0  0  0
 20 22  1  0  0  0  0
 20 19  1  0  0  0  0
 21  1  1  6  0  0  0
 21 23  1  0  0  0  0
 22 21  1  0  0  0  0
 25 24  2  0  0  0  0
 26 25  1  0  0  0  0
 26 27  1  0  0  0  0
 27 29  1  0  0  0  0
 28 27  1  0  0  0  0
 31 32  1  6  0  0  0
 31 30  1  0  0  0  0
 31 36  1  0  0  0  0
 32 35  1  0  0  0  0
 34 35  1  0  0  0  0
 35 33  2  0  0  0  0
 36 39  1  0  0  0  0
 38 39  2  0  0  0  0
 39 37  1  0  0  0  0
M  END
>  <MODEL>
9

>  <REMARK>
 VINA RESULT:      -6.6      2.631      4.276
  Name = 
  11 active torsions:
  status: ('A' for Active; 'I' for Inactive)
    1  A    between atoms: C_2  and  C_7
    2  A    between atoms: C_3  and  N_13
    3  A    between atoms: C_10  and  C_24
    4  A    between atoms: C_10  and  C_32
    5  A    between atoms: C_14  and  C_33
    6  A    between atoms: N_19  and  C_24
    7  A    between atoms: N_19  and  C_28
    8  A    between atoms: O_21  and  C_24
    9  A    between atoms: O_21  and  C_33
   10  A    between atoms: C_23  and  C_27
   11  A    between atoms: C_26  and  C_33
                            x       y       z     vdW  Elec       q    Type
                         _______ _______ _______ _____ _____    ______ ____

>  <TORSDO>
F 11

$$$$
