=
 OpenBabel10222415483D

 31 34  0  0  1  0  0  0  0  0999 V2000
  185.2030  178.2910  142.0420 C   0  0  1  0  0  3  0  0  0  0  0  0
  184.6440  179.1670  142.9540 C   0  0  1  0  0  3  0  0  0  0  0  0
  183.7210  178.4740  142.0040 N   0  0  0  0  0  0  0  0  0  0  0  0
  182.4290  178.1940  141.4710 C   0  0  0  0  0  0  0  0  0  0  0  0
  182.1460  177.2300  140.3770 C   0  0  0  0  0  2  0  0  0  0  0  0
  180.6570  177.4090  140.2930 C   0  0  0  0  0  0  0  0  0  0  0  0
  181.3040  178.7560  141.8660 C   0  0  0  0  0  0  0  0  0  0  0  0
  180.1890  178.2730  141.1350 N   0  0  0  0  0  0  0  0  0  0  0  0
  179.8250  176.7300  139.4040 O   0  0  0  0  0  0  0  0  0  0  0  0
  179.3920  175.4030  139.6540 C   0  0  0  0  0  1  0  0  0  0  0  0
  181.2100  179.7520  142.8830 N   0  0  0  0  0  2  0  0  0  0  0  0
  180.2410  180.6950  142.8350 O   0  0  0  0  0  1  0  0  0  0  0  0
  183.3190  179.0140  145.0510 C   0  0  0  0  0  1  0  0  0  0  0  0
  184.5530  178.5130  144.3280 C   0  0  2  0  0  3  0  0  0  0  0  0
  185.7770  178.8610  145.1630 C   0  0  0  0  0  2  0  0  0  0  0  0
  188.4430  177.8170  147.0720 N   0  0  0  0  0  2  0  0  0  0  0  0
  190.0820  176.5160  143.1480 C   0  0  0  0  0  3  0  0  0  0  0  0
  188.8410  177.5760  145.7390 C   0  0  0  0  0  0  0  0  0  0  0  0
  190.1000  177.7330  145.3330 C   0  0  0  0  0  3  0  0  0  0  0  0
  187.6550  176.6170  143.7650 C   0  0  0  0  0  3  0  0  0  0  0  0
  188.8290  176.0660  143.0600 C   0  0  0  0  0  3  0  0  0  0  0  0
  186.4590  177.6030  145.6990 C   0  0  2  0  0  3  0  0  0  0  0  0
  186.5070  178.9010  147.7790 F   0  0  0  0  0  0  0  0  0  0  0  0
  186.9880  177.7640  147.1490 C   0  0  2  0  0  3  0  0  0  0  0  0
  190.4870  177.7490  143.8900 C   0  0  0  0  0  2  0  0  0  0  0  0
  187.6830  177.3230  144.9010 C   0  0  0  0  0  0  0  0  0  0  0  0
  185.8470  179.0560  140.8900 C   0  0  2  0  0  3  0  0  0  0  0  0
  185.0170  178.9550  139.6490 C   0  0  0  0  0  3  0  0  0  0  0  0
  184.5520  179.9570  139.1300 O   0  0  0  0  0  0  0  0  0  0  0  0
  187.5370  178.5390  139.2490 O   0  0  0  0  0  1  0  0  0  0  0  0
  187.2600  178.5480  140.6190 C   0  0  0  0  0  2  0  0  0  0  0  0
  1 27  1  6  0  0  0
  1  2  1  0  0  0  0
  2 14  1  1  0  0  0
  3  1  1  0  0  0  0
  3  2  1  0  0  0  0
  4  7  2  0  0  0  0
  4  3  1  0  0  0  0
  5  4  1  0  0  0  0
  6  5  1  0  0  0  0
  6  8  2  0  0  0  0
  7 11  1  0  0  0  0
  8  7  1  0  0  0  0
  9 10  1  0  0  0  0
  9  6  1  0  0  0  0
 12 11  1  0  0  0  0
 14 13  1  1  0  0  0
 14 15  1  0  0  0  0
 16 24  1  0  0  0  0
 17 25  1  0  0  0  0
 18 16  1  0  0  0  0
 19 18  2  0  0  0  0
 20 26  2  0  0  0  0
 21 17  2  0  0  0  0
 21 20  1  0  0  0  0
 22 15  1  6  0  0  0
 22 24  1  0  0  0  0
 24 23  1  6  0  0  0
 25 19  1  0  0  0  0
 26 22  1  0  0  0  0
 26 18  1  0  0  0  0
 27 28  1  6  0  0  0
 29 28  2  0  0  0  0
 30 31  1  0  0  0  0
 31 27  1  0  0  0  0
M  END
>  <MODEL>
1

>  <REMARK>
 VINA RESULT:      -8.7      0.000      0.000
  Name = 
  9 active torsions:
  status: ('A' for Active; 'I' for Inactive)
    1  A    between atoms: O_2  and  C_11
    2  A    between atoms: C_4  and  C_25
    3  A    between atoms: C_5  and  C_25
    4  A    between atoms: C_6  and  N_31
    5  A    between atoms: N_7  and  C_20
    6  A    between atoms: C_14  and  C_25
    7  A    between atoms: C_16  and  C_21
    8  A    between atoms: C_18  and  C_21
    9  A    between atoms: C_18  and  C_22
                            x       y       z     vdW  Elec       q    Type
                         _______ _______ _______ _____ _____    ______ ____

>  <TORSDO>
F 9

$$$$
=
 OpenBabel10222415483D

 31 34  0  0  1  0  0  0  0  0999 V2000
  189.3970  178.1050  139.8540 C   0  0  1  0  0  3  0  0  0  0  0  0
  189.4900  177.1040  140.8030 C   0  0  1  0  0  3  0  0  0  0  0  0
  190.4120  177.0320  139.6290 N   0  0  0  0  0  0  0  0  0  0  0  0
  191.4560  176.4230  138.8750 C   0  0  0  0  0  0  0  0  0  0  0  0
  192.8830  176.8320  138.9040 C   0  0  0  0  0  2  0  0  0  0  0  0
  193.4290  175.8370  137.9200 C   0  0  0  0  0  0  0  0  0  0  0  0
  191.3030  175.4160  138.0370 C   0  0  0  0  0  0  0  0  0  0  0  0
  192.5310  175.0420  137.4340 N   0  0  0  0  0  0  0  0  0  0  0  0
  194.7670  175.7500  137.5400 O   0  0  0  0  0  0  0  0  0  0  0  0
  195.1540  175.1940  136.2940 C   0  0  0  0  0  1  0  0  0  0  0  0
  190.0560  174.7900  137.7420 N   0  0  0  0  0  2  0  0  0  0  0  0
  190.0090  173.4880  137.3780 O   0  0  0  0  0  1  0  0  0  0  0  0
  191.0520  176.4670  142.6280 C   0  0  0  0  0  1  0  0  0  0  0  0
  190.2500  177.6030  142.0260 C   0  0  2  0  0  3  0  0  0  0  0  0
  189.2810  178.1230  143.0780 C   0  0  0  0  0  2  0  0  0  0  0  0
  186.5010  177.2130  144.8900 N   0  0  0  0  0  2  0  0  0  0  0  0
  189.1980  177.8340  148.3700 C   0  0  0  0  0  3  0  0  0  0  0  0
  187.4630  177.5640  145.8620 C   0  0  0  0  0  0  0  0  0  0  0  0
  187.1340  178.1740  146.9990 C   0  0  0  0  0  3  0  0  0  0  0  0
  189.8990  177.0770  146.0850 C   0  0  0  0  0  3  0  0  0  0  0  0
  189.9910  177.1330  147.5580 C   0  0  0  0  0  3  0  0  0  0  0  0
  188.7060  176.9810  143.9150 C   0  0  2  0  0  3  0  0  0  0  0  0
  186.7010  177.4380  142.5800 F   0  0  0  0  0  0  0  0  0  0  0  0
  187.1870  176.7590  143.6860 C   0  0  2  0  0  3  0  0  0  0  0  0
  188.1480  178.7920  147.9060 C   0  0  0  0  0  2  0  0  0  0  0  0
  188.8030  177.3250  145.3590 C   0  0  0  0  0  0  0  0  0  0  0  0
  188.1930  177.8720  138.9470 C   0  0  2  0  0  3  0  0  0  0  0  0
  188.4110  178.4810  137.5980 C   0  0  0  0  0  3  0  0  0  0  0  0
  188.9550  179.5670  137.4870 O   0  0  0  0  0  0  0  0  0  0  0  0
  185.9350  178.6490  138.6070 O   0  0  0  0  0  1  0  0  0  0  0  0
  186.9190  178.4320  139.5750 C   0  0  0  0  0  2  0  0  0  0  0  0
  1 27  1  6  0  0  0
  1  2  1  0  0  0  0
  2 14  1  1  0  0  0
  3  1  1  0  0  0  0
  3  2  1  0  0  0  0
  4  5  1  0  0  0  0
  4  3  1  0  0  0  0
  6  5  1  0  0  0  0
  7  4  2  0  0  0  0
  8  6  2  0  0  0  0
  8  7  1  0  0  0  0
  9  6  1  0  0  0  0
 10  9  1  0  0  0  0
 11  7  1  0  0  0  0
 12 11  1  0  0  0  0
 14 13  1  1  0  0  0
 14 15  1  0  0  0  0
 16 18  1  0  0  0  0
 18 19  2  0  0  0  0
 19 25  1  0  0  0  0
 20 21  1  0  0  0  0
 21 17  2  0  0  0  0
 22 15  1  6  0  0  0
 22 26  1  0  0  0  0
 24 23  1  6  0  0  0
 24 22  1  0  0  0  0
 24 16  1  0  0  0  0
 25 17  1  0  0  0  0
 26 18  1  0  0  0  0
 26 20  2  0  0  0  0
 27 28  1  6  0  0  0
 27 31  1  0  0  0  0
 29 28  2  0  0  0  0
 30 31  1  0  0  0  0
M  END
>  <MODEL>
2

>  <REMARK>
 VINA RESULT:      -8.6      4.471      7.881
  Name = 
  9 active torsions:
  status: ('A' for Active; 'I' for Inactive)
    1  A    between atoms: O_2  and  C_11
    2  A    between atoms: C_4  and  C_25
    3  A    between atoms: C_5  and  C_25
    4  A    between atoms: C_6  and  N_31
    5  A    between atoms: N_7  and  C_20
    6  A    between atoms: C_14  and  C_25
    7  A    between atoms: C_16  and  C_21
    8  A    between atoms: C_18  and  C_21
    9  A    between atoms: C_18  and  C_22
                            x       y       z     vdW  Elec       q    Type
                         _______ _______ _______ _____ _____    ______ ____

>  <TORSDO>
F 9

$$$$
=
 OpenBabel10222415483D

 31 34  0  0  1  0  0  0  0  0999 V2000
  188.6510  177.3730  142.0940 C   0  0  1  0  0  3  0  0  0  0  0  0
  187.9960  178.5900  142.0510 C   0  0  1  0  0  3  0  0  0  0  0  0
  188.3110  177.9280  140.7490 N   0  0  0  0  0  0  0  0  0  0  0  0
  188.2960  177.8620  139.3250 C   0  0  0  0  0  0  0  0  0  0  0  0
  187.1120  178.1280  138.4690 C   0  0  0  0  0  2  0  0  0  0  0  0
  187.7410  177.8900  137.1260 C   0  0  0  0  0  0  0  0  0  0  0  0
  189.3270  177.5470  138.5660 C   0  0  0  0  0  0  0  0  0  0  0  0
  188.9910  177.5600  137.1890 N   0  0  0  0  0  0  0  0  0  0  0  0
  187.0740  178.0000  135.9070 O   0  0  0  0  0  0  0  0  0  0  0  0
  187.6280  177.4900  134.7050 C   0  0  0  0  0  1  0  0  0  0  0  0
  190.6200  177.2030  139.0600 N   0  0  0  0  0  2  0  0  0  0  0  0
  190.9300  175.9160  139.3400 O   0  0  0  0  0  1  0  0  0  0  0  0
  185.6740  179.1190  141.3400 C   0  0  0  0  0  1  0  0  0  0  0  0
  186.5180  178.4070  142.3780 C   0  0  2  0  0  3  0  0  0  0  0  0
  186.2010  178.9950  143.7460 C   0  0  0  0  0  2  0  0  0  0  0  0
  185.0710  178.5060  146.9590 N   0  0  0  0  0  2  0  0  0  0  0  0
  189.3130  177.4250  147.7380 C   0  0  0  0  0  3  0  0  0  0  0  0
  186.4670  178.3070  147.0360 C   0  0  0  0  0  0  0  0  0  0  0  0
  187.1800  178.6810  148.0970 C   0  0  0  0  0  3  0  0  0  0  0  0
  188.0870  177.0960  145.5770 C   0  0  0  0  0  3  0  0  0  0  0  0
  189.0840  176.7520  146.6100 C   0  0  0  0  0  3  0  0  0  0  0  0
  185.8880  177.8970  144.7610 C   0  0  2  0  0  3  0  0  0  0  0  0
  183.8630  179.2350  145.1060 F   0  0  0  0  0  0  0  0  0  0  0  0
  184.6210  178.1900  145.6080 C   0  0  2  0  0  3  0  0  0  0  0  0
  188.6740  178.7300  148.0880 C   0  0  0  0  0  2  0  0  0  0  0  0
  186.9810  177.8250  145.7680 C   0  0  0  0  0  0  0  0  0  0  0  0
  190.1370  177.5750  142.3730 C   0  0  2  0  0  3  0  0  0  0  0  0
  190.7530  176.3280  142.9250 C   0  0  0  0  0  3  0  0  0  0  0  0
  190.1710  175.2590  142.8450 O   0  0  0  0  0  0  0  0  0  0  0  0
  191.2060  178.3720  144.3810 O   0  0  0  0  0  1  0  0  0  0  0  0
  190.3600  178.7400  143.3320 C   0  0  0  0  0  2  0  0  0  0  0  0
  1 27  1  6  0  0  0
  2  1  1  0  0  0  0
  2 14  1  1  0  0  0
  3  2  1  0  0  0  0
  3  1  1  0  0  0  0
  4  3  1  0  0  0  0
  5  4  1  0  0  0  0
  6  8  2  0  0  0  0
  6  5  1  0  0  0  0
  7 11  1  0  0  0  0
  7  4  2  0  0  0  0
  8  7  1  0  0  0  0
  9  6  1  0  0  0  0
 10  9  1  0  0  0  0
 11 12  1  0  0  0  0
 14 13  1  6  0  0  0
 14 15  1  0  0  0  0
 16 18  1  0  0  0  0
 17 25  1  0  0  0  0
 18 19  2  0  0  0  0
 20 26  2  0  0  0  0
 20 21  1  0  0  0  0
 21 17  2  0  0  0  0
 22 15  1  6  0  0  0
 22 24  1  0  0  0  0
 22 26  1  0  0  0  0
 24 23  1  6  0  0  0
 24 16  1  0  0  0  0
 25 19  1  0  0  0  0
 26 18  1  0  0  0  0
 27 28  1  1  0  0  0
 27 31  1  0  0  0  0
 29 28  2  0  0  0  0
 31 30  1  0  0  0  0
M  END
>  <MODEL>
3

>  <REMARK>
 VINA RESULT:      -8.2      4.032      6.008
  Name = 
  9 active torsions:
  status: ('A' for Active; 'I' for Inactive)
    1  A    between atoms: O_2  and  C_11
    2  A    between atoms: C_4  and  C_25
    3  A    between atoms: C_5  and  C_25
    4  A    between atoms: C_6  and  N_31
    5  A    between atoms: N_7  and  C_20
    6  A    between atoms: C_14  and  C_25
    7  A    between atoms: C_16  and  C_21
    8  A    between atoms: C_18  and  C_21
    9  A    between atoms: C_18  and  C_22
                            x       y       z     vdW  Elec       q    Type
                         _______ _______ _______ _____ _____    ______ ____

>  <TORSDO>
F 9

$$$$
=
 OpenBabel10222415483D

 31 34  0  0  1  0  0  0  0  0999 V2000
  190.1800  176.4970  139.6100 C   0  0  1  0  0  3  0  0  0  0  0  0
  189.4710  177.6330  139.9500 C   0  0  1  0  0  3  0  0  0  0  0  0
  188.9590  176.8140  138.8100 N   0  0  0  0  0  0  0  0  0  0  0  0
  188.0270  176.5360  137.7680 C   0  0  0  0  0  0  0  0  0  0  0  0
  188.0100  175.3020  136.9420 C   0  0  0  0  0  2  0  0  0  0  0  0
  186.8380  175.6300  136.0620 C   0  0  0  0  0  0  0  0  0  0  0  0
  187.0540  177.3380  137.3820 C   0  0  0  0  0  0  0  0  0  0  0  0
  186.3050  176.7810  136.3150 N   0  0  0  0  0  0  0  0  0  0  0  0
  186.3450  174.8000  135.0560 O   0  0  0  0  0  0  0  0  0  0  0  0
  184.9580  174.5380  134.9190 C   0  0  0  0  0  1  0  0  0  0  0  0
  186.7960  178.6240  137.9420 N   0  0  0  0  0  2  0  0  0  0  0  0
  185.7500  178.8140  138.7780 O   0  0  0  0  0  1  0  0  0  0  0  0
  187.8780  178.6400  141.5710 C   0  0  0  0  0  1  0  0  0  0  0  0
  188.6230  177.3770  141.1910 C   0  0  2  0  0  3  0  0  0  0  0  0
  189.5050  176.9640  142.3610 C   0  0  0  0  0  2  0  0  0  0  0  0
  191.6990  178.0920  144.7580 N   0  0  0  0  0  2  0  0  0  0  0  0
  188.3430  177.1740  147.5270 C   0  0  0  0  0  3  0  0  0  0  0  0
  190.5760  177.6400  145.4850 C   0  0  0  0  0  0  0  0  0  0  0  0
  190.6890  177.0440  146.6710 C   0  0  0  0  0  3  0  0  0  0  0  0
  188.1200  177.9010  145.1390 C   0  0  0  0  0  3  0  0  0  0  0  0
  187.6970  177.8140  146.5510 C   0  0  0  0  0  3  0  0  0  0  0  0
  189.7650  178.1400  143.3010 C   0  0  2  0  0  3  0  0  0  0  0  0
  192.0570  177.8870  142.4660 F   0  0  0  0  0  0  0  0  0  0  0  0
  191.2690  178.5010  143.4270 C   0  0  2  0  0  3  0  0  0  0  0  0
  189.5540  176.3230  147.3230 C   0  0  0  0  0  2  0  0  0  0  0  0
  189.3710  177.7640  144.6860 C   0  0  0  0  0  0  0  0  0  0  0  0
  191.4270  176.8630  138.8120 C   0  0  2  0  0  3  0  0  0  0  0  0
  191.7870  175.7750  137.8500 C   0  0  0  0  0  3  0  0  0  0  0  0
  191.4580  174.6210  138.0660 O   0  0  0  0  0  0  0  0  0  0  0  0
  193.8150  176.7950  139.1420 O   0  0  0  0  0  1  0  0  0  0  0  0
  192.6040  177.1530  139.7400 C   0  0  0  0  0  2  0  0  0  0  0  0
  1 27  1  6  0  0  0
  1  2  1  0  0  0  0
  2 14  1  1  0  0  0
  3  1  1  0  0  0  0
  3  2  1  0  0  0  0
  4  3  1  0  0  0  0
  5  4  1  0  0  0  0
  6  8  2  0  0  0  0
  6  5  1  0  0  0  0
  7  4  2  0  0  0  0
  7 11  1  0  0  0  0
  8  7  1  0  0  0  0
  9  6  1  0  0  0  0
 10  9  1  0  0  0  0
 11 12  1  0  0  0  0
 14 13  1  1  0  0  0
 14 15  1  0  0  0  0
 16 18  1  0  0  0  0
 18 19  2  0  0  0  0
 19 25  1  0  0  0  0
 20 21  1  0  0  0  0
 21 17  2  0  0  0  0
 22 15  1  6  0  0  0
 22 24  1  0  0  0  0
 22 26  1  0  0  0  0
 24 23  1  6  0  0  0
 24 16  1  0  0  0  0
 25 17  1  0  0  0  0
 26 20  2  0  0  0  0
 26 18  1  0  0  0  0
 27 28  1  6  0  0  0
 27 31  1  0  0  0  0
 28 29  2  0  0  0  0
 30 31  1  0  0  0  0
M  END
>  <MODEL>
4

>  <REMARK>
 VINA RESULT:      -8.1      4.447      6.062
  Name = 
  9 active torsions:
  status: ('A' for Active; 'I' for Inactive)
    1  A    between atoms: O_2  and  C_11
    2  A    between atoms: C_4  and  C_25
    3  A    between atoms: C_5  and  C_25
    4  A    between atoms: C_6  and  N_31
    5  A    between atoms: N_7  and  C_20
    6  A    between atoms: C_14  and  C_25
    7  A    between atoms: C_16  and  C_21
    8  A    between atoms: C_18  and  C_21
    9  A    between atoms: C_18  and  C_22
                            x       y       z     vdW  Elec       q    Type
                         _______ _______ _______ _____ _____    ______ ____

>  <TORSDO>
F 9

$$$$
=
 OpenBabel10222415483D

 31 34  0  0  1  0  0  0  0  0999 V2000
  189.3130  178.0230  139.6970 C   0  0  1  0  0  3  0  0  0  0  0  0
  189.4390  177.0280  140.6480 C   0  0  1  0  0  3  0  0  0  0  0  0
  190.2950  176.9300  139.4270 N   0  0  0  0  0  0  0  0  0  0  0  0
  191.2860  176.2950  138.6230 C   0  0  0  0  0  0  0  0  0  0  0  0
  191.0190  175.2510  137.6020 C   0  0  0  0  0  2  0  0  0  0  0  0
  192.4300  175.0100  137.1460 C   0  0  0  0  0  0  0  0  0  0  0  0
  192.5810  176.5380  138.6780 C   0  0  0  0  0  0  0  0  0  0  0  0
  193.3060  175.7390  137.7580 N   0  0  0  0  0  0  0  0  0  0  0  0
  192.8000  174.0940  136.1610 O   0  0  0  0  0  0  0  0  0  0  0  0
  193.6570  173.0010  136.4440 C   0  0  0  0  0  1  0  0  0  0  0  0
  193.1930  177.4680  139.5700 N   0  0  0  0  0  2  0  0  0  0  0  0
  194.3070  177.1290  140.2590 O   0  0  0  0  0  1  0  0  0  0  0  0
  191.0960  176.3790  142.3820 C   0  0  0  0  0  1  0  0  0  0  0  0
  190.2730  177.5220  141.8240 C   0  0  2  0  0  3  0  0  0  0  0  0
  189.3710  178.0540  142.9290 C   0  0  0  0  0  2  0  0  0  0  0  0
  186.6310  177.2210  144.8360 N   0  0  0  0  0  2  0  0  0  0  0  0
  189.5040  177.6090  148.2090 C   0  0  0  0  0  3  0  0  0  0  0  0
  187.6500  177.4970  145.7740 C   0  0  0  0  0  0  0  0  0  0  0  0
  187.4000  178.0870  146.9420 C   0  0  0  0  0  3  0  0  0  0  0  0
  190.0670  176.8900  145.8740 C   0  0  0  0  0  3  0  0  0  0  0  0
  190.2260  176.8970  147.3420 C   0  0  0  0  0  3  0  0  0  0  0  0
  188.7780  176.9150  143.7580 C   0  0  2  0  0  3  0  0  0  0  0  0
  186.7410  177.5060  142.5270 F   0  0  0  0  0  0  0  0  0  0  0  0
  187.2420  176.7720  143.5910 C   0  0  2  0  0  3  0  0  0  0  0  0
  188.4820  178.6290  147.8190 C   0  0  0  0  0  2  0  0  0  0  0  0
  188.9540  177.2110  145.2050 C   0  0  0  0  0  0  0  0  0  0  0  0
  188.0580  177.8070  138.8570 C   0  0  2  0  0  3  0  0  0  0  0  0
  188.2180  178.3950  137.4910 C   0  0  0  0  0  3  0  0  0  0  0  0
  188.7780  179.4680  137.3390 O   0  0  0  0  0  0  0  0  0  0  0  0
  185.8290  178.6950  138.6170 O   0  0  0  0  0  1  0  0  0  0  0  0
  186.8320  178.4010  139.5450 C   0  0  0  0  0  2  0  0  0  0  0  0
  1 27  1  6  0  0  0
  1  2  1  0  0  0  0
  2 14  1  1  0  0  0
  3  1  1  0  0  0  0
  3  2  1  0  0  0  0
  4  7  2  0  0  0  0
  4  3  1  0  0  0  0
  5  4  1  0  0  0  0
  6  5  1  0  0  0  0
  6  8  2  0  0  0  0
  7 11  1  0  0  0  0
  8  7  1  0  0  0  0
  9 10  1  0  0  0  0
  9  6  1  0  0  0  0
 11 12  1  0  0  0  0
 14 13  1  1  0  0  0
 14 15  1  0  0  0  0
 16 18  1  0  0  0  0
 18 19  2  0  0  0  0
 19 25  1  0  0  0  0
 20 21  1  0  0  0  0
 21 17  2  0  0  0  0
 22 15  1  6  0  0  0
 22 26  1  0  0  0  0
 24 23  1  6  0  0  0
 24 22  1  0  0  0  0
 24 16  1  0  0  0  0
 25 17  1  0  0  0  0
 26 18  1  0  0  0  0
 26 20  2  0  0  0  0
 27 28  1  6  0  0  0
 27 31  1  0  0  0  0
 29 28  2  0  0  0  0
 30 31  1  0  0  0  0
M  END
>  <MODEL>
5

>  <REMARK>
 VINA RESULT:      -8.0      4.574      7.819
  Name = 
  9 active torsions:
  status: ('A' for Active; 'I' for Inactive)
    1  A    between atoms: O_2  and  C_11
    2  A    between atoms: C_4  and  C_25
    3  A    between atoms: C_5  and  C_25
    4  A    between atoms: C_6  and  N_31
    5  A    between atoms: N_7  and  C_20
    6  A    between atoms: C_14  and  C_25
    7  A    between atoms: C_16  and  C_21
    8  A    between atoms: C_18  and  C_21
    9  A    between atoms: C_18  and  C_22
                            x       y       z     vdW  Elec       q    Type
                         _______ _______ _______ _____ _____    ______ ____

>  <TORSDO>
F 9

$$$$
=
 OpenBabel10222415483D

 31 34  0  0  1  0  0  0  0  0999 V2000
  189.6450  177.1560  142.4790 C   0  0  1  0  0  3  0  0  0  0  0  0
  189.0680  178.2680  141.8940 C   0  0  1  0  0  3  0  0  0  0  0  0
  189.8460  177.3470  141.0110 N   0  0  0  0  0  0  0  0  0  0  0  0
  190.3710  176.9480  139.7480 C   0  0  0  0  0  0  0  0  0  0  0  0
  189.5660  176.4360  138.6100 C   0  0  0  0  0  2  0  0  0  0  0  0
  190.6790  176.1990  137.6290 C   0  0  0  0  0  0  0  0  0  0  0  0
  191.6470  176.9660  139.4130 C   0  0  0  0  0  0  0  0  0  0  0  0
  191.8500  176.4990  138.0890 N   0  0  0  0  0  0  0  0  0  0  0  0
  190.5050  175.7020  136.3380 O   0  0  0  0  0  0  0  0  0  0  0  0
  189.2230  175.6110  135.7400 C   0  0  0  0  0  1  0  0  0  0  0  0
  192.7050  177.3750  140.2770 N   0  0  0  0  0  2  0  0  0  0  0  0
  193.9960  177.1940  139.9180 O   0  0  0  0  0  1  0  0  0  0  0  0
  187.1730  178.5190  140.3060 C   0  0  0  0  0  1  0  0  0  0  0  0
  187.5750  178.0420  141.6870 C   0  0  2  0  0  3  0  0  0  0  0  0
  186.7720  178.8180  142.7210 C   0  0  0  0  0  2  0  0  0  0  0  0
  184.3280  178.7940  145.1420 N   0  0  0  0  0  2  0  0  0  0  0  0
  187.7360  177.8710  147.8460 C   0  0  0  0  0  3  0  0  0  0  0  0
  185.5360  178.6200  145.8520 C   0  0  0  0  0  0  0  0  0  0  0  0
  185.7360  179.1500  147.0570 C   0  0  0  0  0  3  0  0  0  0  0  0
  187.5580  177.2220  145.4310 C   0  0  0  0  0  3  0  0  0  0  0  0
  187.9840  177.0390  146.8330 C   0  0  0  0  0  3  0  0  0  0  0  0
  185.9850  177.8780  143.6320 C   0  0  2  0  0  3  0  0  0  0  0  0
  184.0920  179.2360  142.8680 F   0  0  0  0  0  0  0  0  0  0  0  0
  184.4950  178.2810  143.7880 C   0  0  2  0  0  3  0  0  0  0  0  0
  187.0840  179.2090  147.7000 C   0  0  0  0  0  2  0  0  0  0  0  0
  186.5240  177.9620  145.0170 C   0  0  0  0  0  0  0  0  0  0  0  0
  190.9170  177.5440  143.2270 C   0  0  2  0  0  3  0  0  0  0  0  0
  191.3000  176.4900  144.2170 C   0  0  0  0  0  3  0  0  0  0  0  0
  191.8320  175.4560  143.8490 O   0  0  0  0  0  0  0  0  0  0  0  0
  191.9880  179.4290  144.2830 O   0  0  0  0  0  1  0  0  0  0  0  0
  190.7490  178.8890  143.9300 C   0  0  0  0  0  2  0  0  0  0  0  0
  1 27  1  1  0  0  0
  2 14  1  6  0  0  0
  2  1  1  0  0  0  0
  3  2  1  0  0  0  0
  3  1  1  0  0  0  0
  4  3  1  0  0  0  0
  5  4  1  0  0  0  0
  6  8  2  0  0  0  0
  6  5  1  0  0  0  0
  7  4  2  0  0  0  0
  7 11  1  0  0  0  0
  8  7  1  0  0  0  0
  9  6  1  0  0  0  0
 10  9  1  0  0  0  0
 12 11  1  0  0  0  0
 14 13  1  6  0  0  0
 14 15  1  0  0  0  0
 16 18  1  0  0  0  0
 18 19  2  0  0  0  0
 19 25  1  0  0  0  0
 20 21  1  0  0  0  0
 21 17  2  0  0  0  0
 22 15  1  6  0  0  0
 22 24  1  0  0  0  0
 22 26  1  0  0  0  0
 24 23  1  6  0  0  0
 24 16  1  0  0  0  0
 25 17  1  0  0  0  0
 26 20  2  0  0  0  0
 26 18  1  0  0  0  0
 27 31  1  1  0  0  0
 27 28  1  0  0  0  0
 29 28  2  0  0  0  0
 31 30  1  0  0  0  0
M  END
>  <MODEL>
6

>  <REMARK>
 VINA RESULT:      -8.0      4.460      7.378
  Name = 
  9 active torsions:
  status: ('A' for Active; 'I' for Inactive)
    1  A    between atoms: O_2  and  C_11
    2  A    between atoms: C_4  and  C_25
    3  A    between atoms: C_5  and  C_25
    4  A    between atoms: C_6  and  N_31
    5  A    between atoms: N_7  and  C_20
    6  A    between atoms: C_14  and  C_25
    7  A    between atoms: C_16  and  C_21
    8  A    between atoms: C_18  and  C_21
    9  A    between atoms: C_18  and  C_22
                            x       y       z     vdW  Elec       q    Type
                         _______ _______ _______ _____ _____    ______ ____

>  <TORSDO>
F 9

$$$$
=
 OpenBabel10222415483D

 31 34  0  0  1  0  0  0  0  0999 V2000
  189.9300  176.7210  141.7550 C   0  0  1  0  0  3  0  0  0  0  0  0
  189.6640  177.9650  141.2150 C   0  0  1  0  0  3  0  0  0  0  0  0
  190.5480  177.0470  140.4350 N   0  0  0  0  0  0  0  0  0  0  0  0
  191.3530  176.7210  139.3050 C   0  0  0  0  0  0  0  0  0  0  0  0
  192.7960  177.0420  139.1610 C   0  0  0  0  0  2  0  0  0  0  0  0
  193.0270  176.4590  137.7960 C   0  0  0  0  0  0  0  0  0  0  0  0
  190.9300  176.0970  138.2230 C   0  0  0  0  0  0  0  0  0  0  0  0
  191.9700  175.9280  137.2720 N   0  0  0  0  0  0  0  0  0  0  0  0
  194.2490  176.4710  137.1250 O   0  0  0  0  0  0  0  0  0  0  0  0
  194.5180  175.5860  136.0500 C   0  0  0  0  0  1  0  0  0  0  0  0
  189.5880  175.6660  138.0090 N   0  0  0  0  0  2  0  0  0  0  0  0
  189.1290  175.4390  136.7570 O   0  0  0  0  0  1  0  0  0  0  0  0
  188.3270  178.6420  139.2320 C   0  0  0  0  0  1  0  0  0  0  0  0
  188.2710  177.9870  140.5970 C   0  0  2  0  0  3  0  0  0  0  0  0
  187.3130  178.7800  141.4760 C   0  0  0  0  0  2  0  0  0  0  0  0
  184.1530  178.8780  142.8320 N   0  0  0  0  0  2  0  0  0  0  0  0
  186.3050  177.9580  146.6140 C   0  0  0  0  0  3  0  0  0  0  0  0
  185.0120  178.6970  143.9380 C   0  0  0  0  0  0  0  0  0  0  0  0
  184.7730  179.2570  145.1230 C   0  0  0  0  0  3  0  0  0  0  0  0
  187.0030  177.2440  144.3150 C   0  0  0  0  0  3  0  0  0  0  0  0
  186.8800  177.0920  145.7780 C   0  0  0  0  0  3  0  0  0  0  0  0
  186.2190  177.8830  142.0520 C   0  0  2  0  0  3  0  0  0  0  0  0
  184.7800  179.2600  140.6230 F   0  0  0  0  0  0  0  0  0  0  0  0
  184.7880  178.3230  141.6430 C   0  0  2  0  0  3  0  0  0  0  0  0
  185.7930  179.3040  146.2140 C   0  0  0  0  0  2  0  0  0  0  0  0
  186.2160  177.9940  143.5360 C   0  0  0  0  0  0  0  0  0  0  0  0
  190.9810  176.8290  142.8550 C   0  0  2  0  0  3  0  0  0  0  0  0
  191.0740  175.5560  143.6360 C   0  0  0  0  0  3  0  0  0  0  0  0
  192.1160  175.2390  144.1850 O   0  0  0  0  0  0  0  0  0  0  0  0
  191.8220  178.7610  144.0280 O   0  0  0  0  0  1  0  0  0  0  0  0
  190.6770  177.9970  143.7900 C   0  0  0  0  0  2  0  0  0  0  0  0
  1 27  1  1  0  0  0
  2 14  1  6  0  0  0
  2  1  1  0  0  0  0
  3  2  1  0  0  0  0
  3  1  1  0  0  0  0
  4  3  1  0  0  0  0
  5  4  1  0  0  0  0
  6  5  1  0  0  0  0
  7  4  2  0  0  0  0
  8  6  2  0  0  0  0
  8  7  1  0  0  0  0
  9  6  1  0  0  0  0
 10  9  1  0  0  0  0
 11  7  1  0  0  0  0
 12 11  1  0  0  0  0
 14 13  1  6  0  0  0
 14 15  1  0  0  0  0
 16 18  1  0  0  0  0
 18 19  2  0  0  0  0
 19 25  1  0  0  0  0
 20 21  1  0  0  0  0
 21 17  2  0  0  0  0
 22 15  1  6  0  0  0
 22 26  1  0  0  0  0
 24 23  1  6  0  0  0
 24 22  1  0  0  0  0
 24 16  1  0  0  0  0
 25 17  1  0  0  0  0
 26 18  1  0  0  0  0
 26 20  2  0  0  0  0
 27 28  1  1  0  0  0
 27 31  1  0  0  0  0
 28 29  2  0  0  0  0
 31 30  1  0  0  0  0
M  END
>  <MODEL>
7

>  <REMARK>
 VINA RESULT:      -7.8      4.504      8.203
  Name = 
  9 active torsions:
  status: ('A' for Active; 'I' for Inactive)
    1  A    between atoms: O_2  and  C_11
    2  A    between atoms: C_4  and  C_25
    3  A    between atoms: C_5  and  C_25
    4  A    between atoms: C_6  and  N_31
    5  A    between atoms: N_7  and  C_20
    6  A    between atoms: C_14  and  C_25
    7  A    between atoms: C_16  and  C_21
    8  A    between atoms: C_18  and  C_21
    9  A    between atoms: C_18  and  C_22
                            x       y       z     vdW  Elec       q    Type
                         _______ _______ _______ _____ _____    ______ ____

>  <TORSDO>
F 9

$$$$
=
 OpenBabel10222415483D

 31 34  0  0  1  0  0  0  0  0999 V2000
  189.4430  177.3720  142.3000 C   0  0  1  0  0  3  0  0  0  0  0  0
  188.7460  178.4550  141.7980 C   0  0  1  0  0  3  0  0  0  0  0  0
  189.4620  177.5780  140.8210 N   0  0  0  0  0  0  0  0  0  0  0  0
  189.8560  177.2110  139.5020 C   0  0  0  0  0  0  0  0  0  0  0  0
  190.5930  175.9730  139.1430 C   0  0  0  0  0  2  0  0  0  0  0  0
  190.6980  176.1900  137.6600 C   0  0  0  0  0  0  0  0  0  0  0  0
  189.6310  177.9220  138.4140 C   0  0  0  0  0  0  0  0  0  0  0  0
  190.1550  177.2920  137.2560 N   0  0  0  0  0  0  0  0  0  0  0  0
  191.3180  175.3120  136.7720 O   0  0  0  0  0  0  0  0  0  0  0  0
  192.6010  174.7680  137.0340 C   0  0  0  0  0  1  0  0  0  0  0  0
  188.9690  179.1850  138.3950 N   0  0  0  0  0  2  0  0  0  0  0  0
  188.6040  179.7530  137.2230 O   0  0  0  0  0  1  0  0  0  0  0  0
  186.6660  178.6280  140.4490 C   0  0  0  0  0  1  0  0  0  0  0  0
  187.2520  178.1530  141.7620 C   0  0  2  0  0  3  0  0  0  0  0  0
  186.5380  178.8700  142.9000 C   0  0  0  0  0  2  0  0  0  0  0  0
  184.4190  178.6990  145.6040 N   0  0  0  0  0  2  0  0  0  0  0  0
  188.1430  177.6770  147.8080 C   0  0  0  0  0  3  0  0  0  0  0  0
  185.7070  178.5020  146.1460 C   0  0  0  0  0  0  0  0  0  0  0  0
  186.0550  178.9720  147.3430 C   0  0  0  0  0  3  0  0  0  0  0  0
  187.6660  177.1480  145.4050 C   0  0  0  0  0  3  0  0  0  0  0  0
  188.2650  176.8990  146.7310 C   0  0  0  0  0  3  0  0  0  0  0  0
  185.8770  177.8770  143.8530 C   0  0  2  0  0  3  0  0  0  0  0  0
  183.8970  179.2520  143.4030 F   0  0  0  0  0  0  0  0  0  0  0  0
  184.4160  178.2560  144.2150 C   0  0  2  0  0  3  0  0  0  0  0  0
  187.4720  179.0130  147.8130 C   0  0  0  0  0  2  0  0  0  0  0  0
  186.5850  177.8970  145.1610 C   0  0  0  0  0  0  0  0  0  0  0  0
  190.7710  177.8210  142.9000 C   0  0  2  0  0  3  0  0  0  0  0  0
  191.5210  176.6610  143.4740 C   0  0  0  0  0  3  0  0  0  0  0  0
  191.4440  176.3990  144.6630 O   0  0  0  0  0  0  0  0  0  0  0  0
  191.7410  179.5750  144.2410 O   0  0  0  0  0  1  0  0  0  0  0  0
  190.5550  178.8880  143.9700 C   0  0  0  0  0  2  0  0  0  0  0  0
  1 27  1  1  0  0  0
  2 14  1  6  0  0  0
  2  1  1  0  0  0  0
  3  2  1  0  0  0  0
  3  1  1  0  0  0  0
  4  3  1  0  0  0  0
  5  4  1  0  0  0  0
  6  5  1  0  0  0  0
  7  4  2  0  0  0  0
  8  6  2  0  0  0  0
  8  7  1  0  0  0  0
  9 10  1  0  0  0  0
  9  6  1  0  0  0  0
 11  7  1  0  0  0  0
 12 11  1  0  0  0  0
 14 13  1  6  0  0  0
 14 15  1  0  0  0  0
 16 18  1  0  0  0  0
 17 25  1  0  0  0  0
 18 19  2  0  0  0  0
 19 25  1  0  0  0  0
 20 21  1  0  0  0  0
 21 17  2  0  0  0  0
 22 15  1  6  0  0  0
 22 24  1  0  0  0  0
 22 26  1  0  0  0  0
 24 23  1  6  0  0  0
 24 16  1  0  0  0  0
 26 20  2  0  0  0  0
 26 18  1  0  0  0  0
 27 28  1  1  0  0  0
 27 31  1  0  0  0  0
 28 29  2  0  0  0  0
 31 30  1  0  0  0  0
M  END
>  <MODEL>
8

>  <REMARK>
 VINA RESULT:      -7.8      4.008      6.932
  Name = 
  9 active torsions:
  status: ('A' for Active; 'I' for Inactive)
    1  A    between atoms: O_2  and  C_11
    2  A    between atoms: C_4  and  C_25
    3  A    between atoms: C_5  and  C_25
    4  A    between atoms: C_6  and  N_31
    5  A    between atoms: N_7  and  C_20
    6  A    between atoms: C_14  and  C_25
    7  A    between atoms: C_16  and  C_21
    8  A    between atoms: C_18  and  C_21
    9  A    between atoms: C_18  and  C_22
                            x       y       z     vdW  Elec       q    Type
                         _______ _______ _______ _____ _____    ______ ____

>  <TORSDO>
F 9

$$$$
=
 OpenBabel10222415483D

 31 34  0  0  1  0  0  0  0  0999 V2000
  189.2550  178.2860  141.9150 C   0  0  1  0  0  3  0  0  0  0  0  0
  188.7560  177.3680  141.0100 C   0  0  1  0  0  3  0  0  0  0  0  0
  187.7740  178.0960  141.8700 N   0  0  0  0  0  0  0  0  0  0  0  0
  186.4510  178.3930  142.3090 C   0  0  0  0  0  0  0  0  0  0  0  0
  185.9110  178.0950  143.6600 C   0  0  0  0  0  2  0  0  0  0  0  0
  184.5190  178.6280  143.4740 C   0  0  0  0  0  0  0  0  0  0  0  0
  185.5160  178.9650  141.5770 C   0  0  0  0  0  0  0  0  0  0  0  0
  184.3030  179.1170  142.2960 N   0  0  0  0  0  0  0  0  0  0  0  0
  183.5270  178.6140  144.4530 O   0  0  0  0  0  0  0  0  0  0  0  0
  182.1740  178.9130  144.1490 C   0  0  0  0  0  1  0  0  0  0  0  0
  185.6830  179.3610  140.2170 N   0  0  0  0  0  2  0  0  0  0  0  0
  184.6200  179.7630  139.4820 O   0  0  0  0  0  1  0  0  0  0  0  0
  187.9300  177.0770  138.6850 C   0  0  0  0  0  1  0  0  0  0  0  0
  188.7480  177.9590  139.6050 C   0  0  2  0  0  3  0  0  0  0  0  0
  190.1670  178.0460  139.0590 C   0  0  0  0  0  2  0  0  0  0  0  0
  193.3540  176.7530  139.1220 N   0  0  0  0  0  2  0  0  0  0  0  0
  192.0560  174.7290  135.3820 C   0  0  0  0  0  3  0  0  0  0  0  0
  192.8050  176.2910  137.9060 C   0  0  0  0  0  0  0  0  0  0  0  0
  193.5340  176.1650  136.7990 C   0  0  0  0  0  3  0  0  0  0  0  0
  190.5750  175.3480  137.3080 C   0  0  0  0  0  3  0  0  0  0  0  0
  190.9990  174.5120  136.1660 C   0  0  0  0  0  3  0  0  0  0  0  0
  190.9400  176.7540  139.3150 C   0  0  2  0  0  3  0  0  0  0  0  0
  192.3810  178.2510  140.6170 F   0  0  0  0  0  0  0  0  0  0  0  0
  192.2740  176.9800  140.0750 C   0  0  2  0  0  3  0  0  0  0  0  0
  192.9260  175.9430  135.4530 C   0  0  0  0  0  2  0  0  0  0  0  0
  191.3640  176.1620  138.0170 C   0  0  0  0  0  0  0  0  0  0  0  0
  189.8280  177.5760  143.1370 C   0  0  2  0  0  3  0  0  0  0  0  0
  191.0800  178.2460  143.6100 C   0  0  0  0  0  3  0  0  0  0  0  0
  191.0650  179.4160  143.9570 O   0  0  0  0  0  0  0  0  0  0  0  0
  191.2530  175.6640  143.4960 O   0  0  0  0  0  1  0  0  0  0  0  0
  190.1020  176.1050  142.8370 C   0  0  0  0  0  2  0  0  0  0  0  0
  1 27  1  1  0  0  0
  2 14  1  6  0  0  0
  2  3  1  0  0  0  0
  2  1  1  0  0  0  0
  3  1  1  0  0  0  0
  3  4  1  0  0  0  0
  4  5  1  0  0  0  0
  6  5  1  0  0  0  0
  6  9  1  0  0  0  0
  7  8  1  0  0  0  0
  7  4  2  0  0  0  0
  8  6  2  0  0  0  0
 10  9  1  0  0  0  0
 11  7  1  0  0  0  0
 12 11  1  0  0  0  0
 14 13  1  6  0  0  0
 15 14  1  0  0  0  0
 16 24  1  0  0  0  0
 17 25  1  0  0  0  0
 17 21  2  0  0  0  0
 18 26  1  0  0  0  0
 18 16  1  0  0  0  0
 19 18  2  0  0  0  0
 20 26  2  0  0  0  0
 21 20  1  0  0  0  0
 22 15  1  6  0  0  0
 22 24  1  0  0  0  0
 24 23  1  6  0  0  0
 25 19  1  0  0  0  0
 26 22  1  0  0  0  0
 27 31  1  6  0  0  0
 27 28  1  0  0  0  0
 28 29  2  0  0  0  0
 31 30  1  0  0  0  0
M  END
>  <MODEL>
9

>  <REMARK>
 VINA RESULT:      -7.6      4.721      6.876
  Name = 
  9 active torsions:
  status: ('A' for Active; 'I' for Inactive)
    1  A    between atoms: O_2  and  C_11
    2  A    between atoms: C_4  and  C_25
    3  A    between atoms: C_5  and  C_25
    4  A    between atoms: C_6  and  N_31
    5  A    between atoms: N_7  and  C_20
    6  A    between atoms: C_14  and  C_25
    7  A    between atoms: C_16  and  C_21
    8  A    between atoms: C_18  and  C_21
    9  A    between atoms: C_18  and  C_22
                            x       y       z     vdW  Elec       q    Type
                         _______ _______ _______ _____ _____    ______ ____

>  <TORSDO>
F 9

$$$$
