=
 OpenBabel10222416003D

 62 69  0  0  1  0  0  0  0  0999 V2000
  184.3040  178.4500  139.8950 C   0  0  2  0  0  3  0  0  0  0  0  0
  183.3900  179.6550  139.7610 C   0  0  0  0  0  2  0  0  0  0  0  0
  182.6980  179.6730  138.4110 C   0  0  0  0  0  2  0  0  0  0  0  0
  181.7270  178.5120  138.3470 C   0  0  0  0  0  2  0  0  0  0  0  0
  180.0810  179.0290  138.9120 S   0  0  0  0  0  0  0  0  0  0  0  0
  180.0270  177.6800  140.1300 C   0  0  0  0  0  2  0  0  0  0  0  0
  181.0790  175.4240  139.5520 C   0  0  1  0  0  3  0  0  0  0  0  0
  179.8640  176.3360  139.4420 C   0  0  2  0  0  0  0  0  0  0  0  0
  179.1870  176.3060  138.2140 O   0  0  0  0  0  1  0  0  0  0  0  0
  179.7760  175.0920  140.3200 C   0  0  1  0  0  3  0  0  0  0  0  0
  178.9340  173.9850  139.6850 C   0  0  0  0  0  1  0  0  0  0  0  0
  184.2290  172.2310  135.3160 C   0  0  0  0  0  2  0  0  0  0  0  0
  182.6680  173.6140  136.5750 N   0  0  0  0  0  0  0  0  0  0  0  0
  183.0890  171.6670  134.5970 N   0  0  0  0  0  2  0  0  0  0  0  0
  183.8960  173.6440  135.7820 C   0  0  0  0  0  2  0  0  0  0  0  0
  181.5250  172.8510  136.0730 C   0  0  0  0  0  2  0  0  0  0  0  0
  182.5000  174.5220  137.6720 C   0  0  0  0  0  0  0  0  0  0  0  0
  181.9980  171.4890  135.5550 C   0  0  0  0  0  2  0  0  0  0  0  0
  183.4670  175.2410  138.0440 O   0  0  0  0  0  0  0  0  0  0  0  0
  181.2480  174.6020  138.3570 N   0  0  0  0  0  2  0  0  0  0  0  0
  184.1030  177.8500  141.2050 N   0  0  0  0  0  2  0  0  0  0  0  0
  185.0110  178.4950  142.1460 C   0  0  0  0  0  2  0  0  0  0  0  0
  184.2750  178.9000  143.4210 C   0  0  0  0  0  2  0  0  0  0  0  0
  184.6830  178.6960  145.9760 C   0  0  0  0  0  3  0  0  0  0  0  0
  186.6190  177.7650  145.9510 N   0  0  0  0  0  0  0  0  0  0  0  0
  187.3320  177.9790  143.7690 N   0  0  0  0  0  2  0  0  0  0  0  0
  185.0020  178.4320  144.6410 C   0  0  0  0  0  0  0  0  0  0  0  0
  188.7060  177.9020  147.0490 O   0  0  0  0  0  0  0  0  0  0  0  0
  185.7240  178.3100  146.7580 N   0  0  0  0  0  0  0  0  0  0  0  0
  188.0260  177.8080  145.9910 C   0  0  0  0  0  0  0  0  0  0  0  0
  188.5580  177.8610  144.5850 C   0  0  1  0  0  3  0  0  0  0  0  0
  186.2530  177.8720  144.6950 C   0  0  0  0  0  0  0  0  0  0  0  0
  189.3450  176.5940  144.2360 C   0  0  1  0  0  3  0  0  0  0  0  0
  188.8570  175.9440  142.9440 C   0  0  0  0  0  1  0  0  0  0  0  0
  190.8320  176.9180  144.1500 C   0  0  0  0  0  2  0  0  0  0  0  0
  191.0960  178.1680  143.3220 C   0  0  0  0  0  2  0  0  0  0  0  0
  191.7170  179.2570  144.1780 C   0  0  0  0  0  1  0  0  0  0  0  0
  185.6930  178.8650  139.7590 N   0  0  0  0  0  2  0  0  0  0  0  0
  187.6250  176.8670  137.1870 C   0  0  0  0  0  0  0  0  0  0  0  0
  187.4560  176.3480  135.9400 N   0  0  0  0  0  0  0  0  0  0  0  0
  186.2890  176.4950  135.2570 C   0  0  0  0  0  3  0  0  0  0  0  0
  188.9600  177.2940  139.1210 N   0  0  0  0  0  0  0  0  0  0  0  0
  186.5600  177.5860  137.7800 C   0  0  0  0  0  0  0  0  0  0  0  0
  185.3970  177.7250  137.0850 N   0  0  0  0  0  0  0  0  0  0  0  0
  187.9470  177.9780  139.7130 C   0  0  0  0  0  3  0  0  0  0  0  0
  185.2380  177.1980  135.8430 C   0  0  0  0  0  3  0  0  0  0  0  0
  188.8420  176.7260  137.8900 C   0  0  0  0  0  0  0  0  0  0  0  0
  186.7230  178.1420  139.0670 C   0  0  0  0  0  0  0  0  0  0  0  0
  190.0070  175.9890  137.3480 C   0  0  0  0  0  0  0  0  0  0  0  0
  190.2950  174.8540  137.8190 O   0  0  0  0  0  0  0  0  0  0  0  0
  190.7910  176.5260  136.2780 N   0  0  0  0  0  2  0  0  0  0  0  0
  191.8450  175.8100  135.6920 N   0  0  0  0  0  2  0  0  0  0  0  0
  193.0400  176.0720  136.4780 C   0  0  0  0  0  2  0  0  0  0  0  0
  195.3830  175.2710  136.0670 C   0  0  0  0  0  2  0  0  0  0  0  0
  195.5500  172.6390  136.9980 C   0  0  1  0  0  3  0  0  0  0  0  0
  194.7420  173.2250  138.0460 N   0  0  0  0  0  0  0  0  0  0  0  0
  193.9870  174.2400  137.8160 C   0  0  0  0  0  3  0  0  0  0  0  0
  196.6170  173.9070  136.2050 S   0  0  0  0  0  0  0  0  0  0  0  0
  193.9610  174.8670  136.4580 C   0  0  1  0  0  3  0  0  0  0  0  0
  195.5290  170.3440  137.9300 C   0  0  0  0  0  2  0  0  0  0  0  0
  196.3480  170.3190  136.6560 C   0  0  0  0  0  2  0  0  0  0  0  0
  196.4080  171.5260  137.5720 C   0  0  0  0  0  3  0  0  0  0  0  0
  1  2  1  1  0  0  0
  1 21  1  0  0  0  0
  3  2  1  0  0  0  0
  4  3  1  0  0  0  0
  4  5  1  0  0  0  0
  5  6  1  0  0  0  0
  7 20  1  6  0  0  0
  7 10  1  0  0  0  0
  8  9  1  6  0  0  0
  8  7  1  0  0  0  0
  8  6  1  0  0  0  0
  8 10  1  0  0  0  0
 10 11  1  6  0  0  0
 12 15  1  0  0  0  0
 13 17  1  0  0  0  0
 14 12  1  0  0  0  0
 14 18  1  0  0  0  0
 15 13  1  0  0  0  0
 16 13  1  0  0  0  0
 17 19  2  0  0  0  0
 17 20  1  0  0  0  0
 18 16  1  0  0  0  0
 21 22  1  0  0  0  0
 22 23  1  0  0  0  0
 23 27  1  0  0  0  0
 24 29  2  0  0  0  0
 25 30  1  0  0  0  0
 25 29  1  0  0  0  0
 26 31  1  0  0  0  0
 26 32  1  0  0  0  0
 27 32  2  0  0  0  0
 27 24  1  0  0  0  0
 30 28  2  0  0  0  0
 31 33  1  6  0  0  0
 31 30  1  0  0  0  0
 32 25  1  0  0  0  0
 33 34  1  6  0  0  0
 35 33  1  0  0  0  0
 36 35  1  0  0  0  0
 36 37  1  0  0  0  0
 38  1  1  0  0  0  0
 39 43  2  0  0  0  0
 39 47  1  0  0  0  0
 40 39  1  0  0  0  0
 41 46  1  0  0  0  0
 41 40  2  0  0  0  0
 42 45  1  0  0  0  0
 43 48  1  0  0  0  0
 44 43  1  0  0  0  0
 46 44  2  0  0  0  0
 47 42  2  0  0  0  0
 48 45  2  0  0  0  0
 48 38  1  0  0  0  0
 49 50  2  0  0  0  0
 49 47  1  0  0  0  0
 51 49  1  0  0  0  0
 52 51  1  0  0  0  0
 52 53  1  0  0  0  0
 54 58  1  0  0  0  0
 54 59  1  0  0  0  0
 55 62  1  1  0  0  0
 55 56  1  0  0  0  0
 57 56  2  0  0  0  0
 58 55  1  0  0  0  0
 59 53  1  1  0  0  0
 59 57  1  0  0  0  0
 61 62  1  0  0  0  0
 61 60  1  0  0  0  0
 62 60  1  0  0  0  0
M  END
>  <MODEL>
1

>  <REMARK>
 VINA RESULT:      -7.3      0.000      0.000
  Name = 
  21 active torsions:
  status: ('A' for Active; 'I' for Inactive)
    1  A    between atoms: C_2  and  C_40
    2  A    between atoms: C_2  and  S_58
    3  A    between atoms: C_3  and  C_55
    4  A    between atoms: C_6  and  C_39
    5  A    between atoms: C_6  and  C_49
    6  A    between atoms: N_8  and  C_25
    7  A    between atoms: N_8  and  C_57
    8  A    between atoms: N_10  and  C_41
    9  A    between atoms: N_10  and  N_50
   10  A    between atoms: C_11  and  N_53
   11  A    between atoms: N_13  and  C_25
   12  A    between atoms: N_13  and  C_35
   13  A    between atoms: C_14  and  C_34
   14  A    between atoms: C_25  and  C_59
   15  A    between atoms: C_27  and  C_51
   16  A    between atoms: C_30  and  C_49
   17  A    between atoms: C_31  and  C_48
   18  A    between atoms: C_35  and  C_51
   19  A    between atoms: C_40  and  C_59
   20  A    between atoms: C_41  and  C_60
   21  A    between atoms: C_48  and  S_58
                            x       y       z     vdW  Elec       q    Type
                         _______ _______ _______ _____ _____    ______ ____

>  <TORSDO>
F 21

$$$$
=
 OpenBabel10222416003D

 62 69  0  0  1  0  0  0  0  0999 V2000
  185.5290  177.4140  137.7490 C   0  0  2  0  0  3  0  0  0  0  0  0
  186.9340  177.2940  137.1870 C   0  0  0  0  0  2  0  0  0  0  0  0
  187.9160  178.1390  137.9770 C   0  0  0  0  0  2  0  0  0  0  0  0
  188.9020  178.7670  137.0140 C   0  0  0  0  0  2  0  0  0  0  0  0
  189.5280  177.5260  135.8450 S   0  0  0  0  0  0  0  0  0  0  0  0
  190.5040  176.7230  137.1520 C   0  0  0  0  0  2  0  0  0  0  0  0
  192.3560  175.0130  137.5720 C   0  0  1  0  0  3  0  0  0  0  0  0
  191.3790  175.6230  136.5760 C   0  0  2  0  0  0  0  0  0  0  0  0
  191.8610  175.7870  135.2690 O   0  0  0  0  0  1  0  0  0  0  0  0
  191.1440  174.1970  137.0620 C   0  0  1  0  0  3  0  0  0  0  0  0
  191.4880  173.1520  136.0010 C   0  0  0  0  0  1  0  0  0  0  0  0
  198.2610  173.2370  137.3620 C   0  0  0  0  0  2  0  0  0  0  0  0
  196.0540  174.2010  136.9960 N   0  0  0  0  0  0  0  0  0  0  0  0
  198.3470  172.9860  135.9250 N   0  0  0  0  0  2  0  0  0  0  0  0
  197.3540  174.4340  137.6220 C   0  0  0  0  0  2  0  0  0  0  0  0
  196.0160  173.6930  135.6250 C   0  0  0  0  0  2  0  0  0  0  0  0
  194.8610  174.7100  137.6080 C   0  0  0  0  0  0  0  0  0  0  0  0
  197.0270  172.5540  135.4650 C   0  0  0  0  0  2  0  0  0  0  0  0
  194.9180  175.2280  138.7570 O   0  0  0  0  0  0  0  0  0  0  0  0
  193.6070  174.6180  136.9300 N   0  0  0  0  0  2  0  0  0  0  0  0
  184.5830  177.4690  136.6440 N   0  0  0  0  0  2  0  0  0  0  0  0
  185.2330  176.9180  135.4610 C   0  0  0  0  0  2  0  0  0  0  0  0
  184.3820  175.8140  134.8370 C   0  0  0  0  0  2  0  0  0  0  0  0
  185.5730  173.9030  136.1280 C   0  0  0  0  0  3  0  0  0  0  0  0
  183.8910  172.6140  136.4810 N   0  0  0  0  0  0  0  0  0  0  0  0
  182.2330  173.4430  135.1090 N   0  0  0  0  0  2  0  0  0  0  0  0
  184.4350  174.5620  135.6520 C   0  0  0  0  0  0  0  0  0  0  0  0
  183.3250  170.3210  136.4190 O   0  0  0  0  0  0  0  0  0  0  0  0
  185.2060  172.6820  136.5960 N   0  0  0  0  0  0  0  0  0  0  0  0
  183.0610  171.5250  136.1500 C   0  0  0  0  0  0  0  0  0  0  0  0
  181.9050  172.0180  135.3230 C   0  0  1  0  0  3  0  0  0  0  0  0
  183.4110  173.6770  135.8770 C   0  0  0  0  0  0  0  0  0  0  0  0
  180.5750  171.8530  136.0630 C   0  0  1  0  0  3  0  0  0  0  0  0
  179.9640  170.4690  135.8590 C   0  0  0  0  0  1  0  0  0  0  0  0
  180.7700  172.1450  137.5460 C   0  0  0  0  0  2  0  0  0  0  0  0
  179.8180  173.2240  138.0430 C   0  0  0  0  0  2  0  0  0  0  0  0
  180.5780  174.4900  138.3940 C   0  0  0  0  0  1  0  0  0  0  0  0
  185.4160  178.6290  138.5450 N   0  0  0  0  0  2  0  0  0  0  0  0
  183.3040  178.7730  141.6840 C   0  0  0  0  0  0  0  0  0  0  0  0
  181.9930  178.7300  142.0530 N   0  0  0  0  0  0  0  0  0  0  0  0
  180.9980  178.6030  141.1360 C   0  0  0  0  0  3  0  0  0  0  0  0
  185.6310  178.8970  142.2100 N   0  0  0  0  0  0  0  0  0  0  0  0
  183.6330  178.6710  140.3120 C   0  0  0  0  0  0  0  0  0  0  0  0
  182.6250  178.5450  139.4050 N   0  0  0  0  0  0  0  0  0  0  0  0
  185.9680  178.8120  140.8970 C   0  0  0  0  0  3  0  0  0  0  0  0
  181.3220  178.5090  139.7830 C   0  0  0  0  0  3  0  0  0  0  0  0
  184.3380  178.8910  142.6390 C   0  0  0  0  0  0  0  0  0  0  0  0
  184.9870  178.7010  139.9140 C   0  0  0  0  0  0  0  0  0  0  0  0
  184.0870  179.0040  144.0940 C   0  0  0  0  0  0  0  0  0  0  0  0
  182.9090  178.8800  144.5300 O   0  0  0  0  0  0  0  0  0  0  0  0
  185.1600  179.2170  145.0170 N   0  0  0  0  0  2  0  0  0  0  0  0
  184.9580  179.2410  146.4040 N   0  0  0  0  0  2  0  0  0  0  0  0
  185.6360  178.0810  146.9630 C   0  0  0  0  0  2  0  0  0  0  0  0
  187.9540  177.5000  147.7310 C   0  0  0  0  0  2  0  0  0  0  0  0
  189.6670  177.7950  145.5400 C   0  0  1  0  0  3  0  0  0  0  0  0
  188.5260  177.1890  144.8870 N   0  0  0  0  0  0  0  0  0  0  0  0
  187.3360  177.3380  145.3510 C   0  0  0  0  0  3  0  0  0  0  0  0
  189.7410  177.3140  147.3120 S   0  0  0  0  0  0  0  0  0  0  0  0
  187.1120  178.1120  146.6110 C   0  0  1  0  0  3  0  0  0  0  0  0
  190.7560  177.4860  143.3360 C   0  0  0  0  0  2  0  0  0  0  0  0
  191.5190  178.5590  144.0830 C   0  0  0  0  0  2  0  0  0  0  0  0
  190.9440  177.3740  144.8360 C   0  0  0  0  0  3  0  0  0  0  0  0
  1  2  1  6  0  0  0
  1 38  1  0  0  0  0
  2  3  1  0  0  0  0
  4  3  1  0  0  0  0
  5  4  1  0  0  0  0
  5  6  1  0  0  0  0
  7 20  1  6  0  0  0
  8  9  1  6  0  0  0
  8 10  1  0  0  0  0
  8  6  1  0  0  0  0
  8  7  1  0  0  0  0
 10 11  1  6  0  0  0
 10  7  1  0  0  0  0
 12 15  1  0  0  0  0
 13 17  1  0  0  0  0
 13 15  1  0  0  0  0
 14 12  1  0  0  0  0
 16 13  1  0  0  0  0
 17 19  2  0  0  0  0
 18 16  1  0  0  0  0
 18 14  1  0  0  0  0
 20 17  1  0  0  0  0
 21  1  1  0  0  0  0
 22 21  1  0  0  0  0
 23 22  1  0  0  0  0
 23 27  1  0  0  0  0
 24 29  2  0  0  0  0
 25 29  1  0  0  0  0
 26 31  1  0  0  0  0
 26 32  1  0  0  0  0
 27 32  2  0  0  0  0
 27 24  1  0  0  0  0
 30 28  2  0  0  0  0
 30 25  1  0  0  0  0
 31 33  1  1  0  0  0
 31 30  1  0  0  0  0
 32 25  1  0  0  0  0
 33 34  1  1  0  0  0
 33 35  1  0  0  0  0
 35 36  1  0  0  0  0
 36 37  1  0  0  0  0
 38 48  1  0  0  0  0
 39 40  1  0  0  0  0
 39 47  1  0  0  0  0
 41 40  2  0  0  0  0
 42 47  2  0  0  0  0
 43 39  2  0  0  0  0
 44 46  2  0  0  0  0
 44 43  1  0  0  0  0
 45 42  1  0  0  0  0
 46 41  1  0  0  0  0
 47 49  1  0  0  0  0
 48 43  1  0  0  0  0
 48 45  2  0  0  0  0
 49 50  2  0  0  0  0
 49 51  1  0  0  0  0
 51 52  1  0  0  0  0
 52 53  1  0  0  0  0
 55 62  1  6  0  0  0
 55 58  1  0  0  0  0
 56 57  2  0  0  0  0
 56 55  1  0  0  0  0
 57 59  1  0  0  0  0
 58 54  1  0  0  0  0
 59 53  1  1  0  0  0
 59 54  1  0  0  0  0
 60 61  1  0  0  0  0
 60 62  1  0  0  0  0
 61 62  1  0  0  0  0
M  END
>  <MODEL>
2

>  <REMARK>
 VINA RESULT:      -7.3      2.837     10.808
  Name = 
  21 active torsions:
  status: ('A' for Active; 'I' for Inactive)
    1  A    between atoms: C_2  and  C_40
    2  A    between atoms: C_2  and  S_58
    3  A    between atoms: C_3  and  C_55
    4  A    between atoms: C_6  and  C_39
    5  A    between atoms: C_6  and  C_49
    6  A    between atoms: N_8  and  C_25
    7  A    between atoms: N_8  and  C_57
    8  A    between atoms: N_10  and  C_41
    9  A    between atoms: N_10  and  N_50
   10  A    between atoms: C_11  and  N_53
   11  A    between atoms: N_13  and  C_25
   12  A    between atoms: N_13  and  C_35
   13  A    between atoms: C_14  and  C_34
   14  A    between atoms: C_25  and  C_59
   15  A    between atoms: C_27  and  C_51
   16  A    between atoms: C_30  and  C_49
   17  A    between atoms: C_31  and  C_48
   18  A    between atoms: C_35  and  C_51
   19  A    between atoms: C_40  and  C_59
   20  A    between atoms: C_41  and  C_60
   21  A    between atoms: C_48  and  S_58
                            x       y       z     vdW  Elec       q    Type
                         _______ _______ _______ _____ _____    ______ ____

>  <TORSDO>
F 21

$$$$
=
 OpenBabel10222416003D

 62 69  0  0  1  0  0  0  0  0999 V2000
  185.9610  179.3030  142.0890 C   0  0  2  0  0  3  0  0  0  0  0  0
  185.2280  179.3940  143.4170 C   0  0  0  0  0  2  0  0  0  0  0  0
  183.8890  178.6850  143.3540 C   0  0  0  0  0  2  0  0  0  0  0  0
  182.8150  179.6300  143.8560 C   0  0  0  0  0  2  0  0  0  0  0  0
  181.1650  178.9600  143.5030 S   0  0  0  0  0  0  0  0  0  0  0  0
  181.6460  178.5550  141.7960 C   0  0  0  0  0  2  0  0  0  0  0  0
  181.3210  179.5700  139.4740 C   0  0  1  0  0  3  0  0  0  0  0  0
  180.6840  179.1790  140.8000 C   0  0  2  0  0  0  0  0  0  0  0  0
  179.7100  180.0600  141.2940 O   0  0  0  0  0  1  0  0  0  0  0  0
  180.3350  178.3800  139.5500 C   0  0  1  0  0  3  0  0  0  0  0  0
  178.9310  178.6900  139.0290 C   0  0  0  0  0  1  0  0  0  0  0  0
  181.1360  184.7820  136.1780 C   0  0  0  0  0  2  0  0  0  0  0  0
  180.8710  182.9860  137.8010 N   0  0  0  0  0  0  0  0  0  0  0  0
  179.7030  185.0440  136.2920 N   0  0  0  0  0  2  0  0  0  0  0  0
  181.6530  184.1770  137.4780 C   0  0  0  0  0  2  0  0  0  0  0  0
  179.4130  183.0530  137.6960 C   0  0  0  0  0  2  0  0  0  0  0  0
  181.4940  181.8740  138.4590 C   0  0  0  0  0  0  0  0  0  0  0  0
  179.0180  183.7560  136.3940 C   0  0  0  0  0  2  0  0  0  0  0  0
  182.7450  181.8650  138.6240 O   0  0  0  0  0  0  0  0  0  0  0  0
  180.7070  180.7710  138.9120 N   0  0  0  0  0  2  0  0  0  0  0  0
  185.0000  179.4690  141.0090 N   0  0  0  0  0  2  0  0  0  0  0  0
  185.1470  178.3450  140.0920 C   0  0  0  0  0  2  0  0  0  0  0  0
  184.4820  178.6480  138.7510 C   0  0  0  0  0  2  0  0  0  0  0  0
  183.1790  176.5030  138.0920 C   0  0  0  0  0  3  0  0  0  0  0  0
  184.6280  175.5950  136.7910 N   0  0  0  0  0  0  0  0  0  0  0  0
  186.5660  176.7840  137.1710 N   0  0  0  0  0  2  0  0  0  0  0  0
  184.2460  177.3980  137.9670 C   0  0  0  0  0  0  0  0  0  0  0  0
  185.5660  173.4760  136.3270 O   0  0  0  0  0  0  0  0  0  0  0  0
  183.4670  175.3780  137.3860 N   0  0  0  0  0  0  0  0  0  0  0  0
  185.6970  174.7140  136.5340 C   0  0  0  0  0  0  0  0  0  0  0  0
  186.9960  175.4580  136.6810 C   0  0  1  0  0  3  0  0  0  0  0  0
  185.1420  176.7470  137.1560 C   0  0  0  0  0  0  0  0  0  0  0  0
  187.7350  175.5650  135.3440 C   0  0  1  0  0  3  0  0  0  0  0  0
  187.8580  177.0080  134.8620 C   0  0  0  0  0  1  0  0  0  0  0  0
  189.1080  174.9150  135.4600 C   0  0  0  0  0  2  0  0  0  0  0  0
  189.1370  173.8320  136.5300 C   0  0  0  0  0  2  0  0  0  0  0  0
  190.5460  173.3010  136.7180 C   0  0  0  0  0  1  0  0  0  0  0  0
  186.6080  178.0040  141.9690 N   0  0  0  0  0  2  0  0  0  0  0  0
  190.3230  177.2750  142.0030 C   0  0  0  0  0  0  0  0  0  0  0  0
  191.3080  176.9560  142.8880 N   0  0  0  0  0  0  0  0  0  0  0  0
  191.0560  176.8200  144.2170 C   0  0  0  0  0  3  0  0  0  0  0  0
  189.5510  177.6920  139.7810 N   0  0  0  0  0  0  0  0  0  0  0  0
  189.0050  177.4580  142.4810 C   0  0  0  0  0  0  0  0  0  0  0  0
  188.7670  177.3190  143.8150 N   0  0  0  0  0  0  0  0  0  0  0  0
  188.2810  177.8830  140.2210 C   0  0  0  0  0  3  0  0  0  0  0  0
  189.7580  177.0060  144.6890 C   0  0  0  0  0  3  0  0  0  0  0  0
  190.5840  177.4020  140.6200 C   0  0  0  0  0  0  0  0  0  0  0  0
  187.9700  177.7760  141.5750 C   0  0  0  0  0  0  0  0  0  0  0  0
  191.9310  177.2290  140.0310 C   0  0  0  0  0  0  0  0  0  0  0  0
  192.9450  177.5890  140.6910 O   0  0  0  0  0  0  0  0  0  0  0  0
  192.1070  176.6300  138.7430 N   0  0  0  0  0  2  0  0  0  0  0  0
  193.3760  176.3780  138.2030 N   0  0  0  0  0  2  0  0  0  0  0  0
  193.1840  175.6280  136.9710 C   0  0  0  0  0  2  0  0  0  0  0  0
  195.6380  175.3610  136.5180 C   0  0  0  0  0  2  0  0  0  0  0  0
  196.2930  172.6810  136.9700 C   0  0  1  0  0  3  0  0  0  0  0  0
  195.3830  172.9060  138.0730 N   0  0  0  0  0  0  0  0  0  0  0  0
  194.4510  173.7890  137.9970 C   0  0  0  0  0  3  0  0  0  0  0  0
  197.1070  174.2470  136.4610 S   0  0  0  0  0  0  0  0  0  0  0  0
  194.3160  174.6380  136.7730 C   0  0  1  0  0  3  0  0  0  0  0  0
  196.7210  170.2770  137.3910 C   0  0  0  0  0  2  0  0  0  0  0  0
  197.5800  170.7020  136.2200 C   0  0  0  0  0  2  0  0  0  0  0  0
  197.3420  171.6600  137.3710 C   0  0  0  0  0  3  0  0  0  0  0  0
  1  2  1  1  0  0  0
  3  2  1  0  0  0  0
  3  4  1  0  0  0  0
  5  4  1  0  0  0  0
  6  5  1  0  0  0  0
  7 20  1  6  0  0  0
  7 10  1  0  0  0  0
  7  8  1  0  0  0  0
  8  9  1  1  0  0  0
  8  6  1  0  0  0  0
 10 11  1  6  0  0  0
 10  8  1  0  0  0  0
 12 14  1  0  0  0  0
 12 15  1  0  0  0  0
 13 17  1  0  0  0  0
 14 18  1  0  0  0  0
 15 13  1  0  0  0  0
 16 13  1  0  0  0  0
 17 19  2  0  0  0  0
 17 20  1  0  0  0  0
 18 16  1  0  0  0  0
 21  1  1  0  0  0  0
 22 21  1  0  0  0  0
 23 22  1  0  0  0  0
 25 32  1  0  0  0  0
 25 29  1  0  0  0  0
 27 24  1  0  0  0  0
 27 23  1  0  0  0  0
 28 30  2  0  0  0  0
 29 24  2  0  0  0  0
 30 31  1  0  0  0  0
 30 25  1  0  0  0  0
 31 33  1  6  0  0  0
 31 26  1  0  0  0  0
 32 26  1  0  0  0  0
 32 27  2  0  0  0  0
 33 34  1  1  0  0  0
 33 35  1  0  0  0  0
 35 36  1  0  0  0  0
 36 37  1  0  0  0  0
 38  1  1  0  0  0  0
 39 43  1  0  0  0  0
 39 40  2  0  0  0  0
 40 41  1  0  0  0  0
 41 46  2  0  0  0  0
 42 45  1  0  0  0  0
 42 47  2  0  0  0  0
 43 44  2  0  0  0  0
 44 46  1  0  0  0  0
 45 48  2  0  0  0  0
 47 39  1  0  0  0  0
 48 38  1  0  0  0  0
 48 43  1  0  0  0  0
 49 47  1  0  0  0  0
 49 50  2  0  0  0  0
 51 49  1  0  0  0  0
 52 51  1  0  0  0  0
 53 52  1  0  0  0  0
 54 59  1  0  0  0  0
 55 62  1  1  0  0  0
 55 56  1  0  0  0  0
 57 56  2  0  0  0  0
 58 54  1  0  0  0  0
 58 55  1  0  0  0  0
 59 53  1  1  0  0  0
 59 57  1  0  0  0  0
 61 62  1  0  0  0  0
 61 60  1  0  0  0  0
 62 60  1  0  0  0  0
M  END
>  <MODEL>
3

>  <REMARK>
 VINA RESULT:      -6.8      3.003      6.728
  Name = 
  21 active torsions:
  status: ('A' for Active; 'I' for Inactive)
    1  A    between atoms: C_2  and  C_40
    2  A    between atoms: C_2  and  S_58
    3  A    between atoms: C_3  and  C_55
    4  A    between atoms: C_6  and  C_39
    5  A    between atoms: C_6  and  C_49
    6  A    between atoms: N_8  and  C_25
    7  A    between atoms: N_8  and  C_57
    8  A    between atoms: N_10  and  C_41
    9  A    between atoms: N_10  and  N_50
   10  A    between atoms: C_11  and  N_53
   11  A    between atoms: N_13  and  C_25
   12  A    between atoms: N_13  and  C_35
   13  A    between atoms: C_14  and  C_34
   14  A    between atoms: C_25  and  C_59
   15  A    between atoms: C_27  and  C_51
   16  A    between atoms: C_30  and  C_49
   17  A    between atoms: C_31  and  C_48
   18  A    between atoms: C_35  and  C_51
   19  A    between atoms: C_40  and  C_59
   20  A    between atoms: C_41  and  C_60
   21  A    between atoms: C_48  and  S_58
                            x       y       z     vdW  Elec       q    Type
                         _______ _______ _______ _____ _____    ______ ____

>  <TORSDO>
F 21

$$$$
=
 OpenBabel10222416003D

 62 69  0  0  1  0  0  0  0  0999 V2000
  182.8280  178.6790  141.6680 C   0  0  2  0  0  3  0  0  0  0  0  0
  184.0050  178.2540  142.5290 C   0  0  0  0  0  2  0  0  0  0  0  0
  184.5540  179.4240  143.3240 C   0  0  0  0  0  2  0  0  0  0  0  0
  184.2050  179.2250  144.7850 C   0  0  0  0  0  2  0  0  0  0  0  0
  185.7030  179.2780  145.8090 S   0  0  0  0  0  0  0  0  0  0  0  0
  185.9520  177.4870  145.6150 C   0  0  0  0  0  2  0  0  0  0  0  0
  188.0550  178.3430  144.4430 C   0  0  1  0  0  3  0  0  0  0  0  0
  187.3640  177.1830  145.1480 C   0  0  2  0  0  0  0  0  0  0  0  0
  187.6200  175.9080  144.6220 O   0  0  0  0  0  1  0  0  0  0  0  0
  188.5160  177.8940  145.8500 C   0  0  1  0  0  3  0  0  0  0  0  0
  189.7990  177.0640  145.8590 C   0  0  0  0  0  1  0  0  0  0  0  0
  190.1780  177.8640  138.6700 C   0  0  0  0  0  2  0  0  0  0  0  0
  189.5010  177.5450  140.9880 N   0  0  0  0  0  0  0  0  0  0  0  0
  191.3970  177.1150  138.9630 N   0  0  0  0  0  2  0  0  0  0  0  0
  189.0590  177.4110  139.6010 C   0  0  0  0  0  2  0  0  0  0  0  0
  190.8330  177.0580  141.3510 C   0  0  0  0  0  2  0  0  0  0  0  0
  188.5590  177.8920  142.0110 C   0  0  0  0  0  0  0  0  0  0  0  0
  191.8530  177.5030  140.2980 C   0  0  0  0  0  2  0  0  0  0  0  0
  187.3850  178.2260  141.6950 O   0  0  0  0  0  0  0  0  0  0  0  0
  188.9500  177.8780  143.3860 N   0  0  0  0  0  2  0  0  0  0  0  0
  181.6100  178.5940  142.4610 N   0  0  0  0  0  2  0  0  0  0  0  0
  180.7840  179.7550  142.1530 C   0  0  0  0  0  2  0  0  0  0  0  0
  179.3640  179.3300  141.7870 C   0  0  0  0  0  2  0  0  0  0  0  0
  179.0770  177.3930  140.0830 C   0  0  0  0  0  3  0  0  0  0  0  0
  179.6960  178.4040  138.2910 N   0  0  0  0  0  0  0  0  0  0  0  0
  180.6780  180.3510  139.0400 N   0  0  0  0  0  2  0  0  0  0  0  0
  179.3120  178.7300  140.4190 C   0  0  0  0  0  0  0  0  0  0  0  0
  181.0120  178.0300  136.3650 O   0  0  0  0  0  0  0  0  0  0  0  0
  179.3650  177.2160  138.7670 N   0  0  0  0  0  0  0  0  0  0  0  0
  180.6600  178.7630  137.3300 C   0  0  0  0  0  0  0  0  0  0  0  0
  181.2790  180.0780  137.7180 C   0  0  1  0  0  3  0  0  0  0  0  0
  179.7310  179.3060  139.2450 C   0  0  0  0  0  0  0  0  0  0  0  0
  180.9400  181.1780  136.7080 C   0  0  1  0  0  3  0  0  0  0  0  0
  179.6510  180.8880  135.9430 C   0  0  0  0  0  1  0  0  0  0  0  0
  180.8560  182.5230  137.4200 C   0  0  0  0  0  2  0  0  0  0  0  0
  180.5230  183.6560  136.4580 C   0  0  0  0  0  2  0  0  0  0  0  0
  180.7560  185.0040  137.1150 C   0  0  0  0  0  1  0  0  0  0  0  0
  182.7180  177.7990  140.5120 N   0  0  0  0  0  2  0  0  0  0  0  0
  184.6010  176.6810  137.4240 C   0  0  0  0  0  0  0  0  0  0  0  0
  184.5290  175.7240  136.4570 N   0  0  0  0  0  0  0  0  0  0  0  0
  183.5370  174.7940  136.4460 C   0  0  0  0  0  3  0  0  0  0  0  0
  185.6230  178.6060  138.4020 N   0  0  0  0  0  0  0  0  0  0  0  0
  183.6100  176.7110  138.4330 C   0  0  0  0  0  0  0  0  0  0  0  0
  182.6230  175.7720  138.4100 N   0  0  0  0  0  0  0  0  0  0  0  0
  184.6890  178.6450  139.3870 C   0  0  0  0  0  3  0  0  0  0  0  0
  182.5650  174.8190  137.4440 C   0  0  0  0  0  3  0  0  0  0  0  0
  185.6240  177.6560  137.4260 C   0  0  0  0  0  0  0  0  0  0  0  0
  183.6620  177.7040  139.4350 C   0  0  0  0  0  0  0  0  0  0  0  0
  186.7010  177.7000  136.4110 C   0  0  0  0  0  0  0  0  0  0  0  0
  186.7250  178.6470  135.5760 O   0  0  0  0  0  0  0  0  0  0  0  0
  187.7340  176.7100  136.3820 N   0  0  0  0  0  2  0  0  0  0  0  0
  188.8100  176.7790  135.4870 N   0  0  0  0  0  2  0  0  0  0  0  0
  189.0360  175.4360  134.9730 C   0  0  0  0  0  2  0  0  0  0  0  0
  190.4790  173.3890  135.1380 C   0  0  0  0  0  2  0  0  0  0  0  0
  192.8100  174.1060  136.5060 C   0  0  1  0  0  3  0  0  0  0  0  0
  192.6340  175.2800  135.6780 N   0  0  0  0  0  0  0  0  0  0  0  0
  191.4680  175.6410  135.2740 C   0  0  0  0  0  3  0  0  0  0  0  0
  192.0560  172.6280  135.7180 S   0  0  0  0  0  0  0  0  0  0  0  0
  190.2640  174.8230  135.6210 C   0  0  1  0  0  3  0  0  0  0  0  0
  195.0190  175.1940  136.7780 C   0  0  0  0  0  2  0  0  0  0  0  0
  194.6910  174.4840  138.0740 C   0  0  0  0  0  2  0  0  0  0  0  0
  194.2890  173.8660  136.7480 C   0  0  0  0  0  3  0  0  0  0  0  0
  1 21  1  0  0  0  0
  1  2  1  1  0  0  0
  2  3  1  0  0  0  0
  3  4  1  0  0  0  0
  4  5  1  0  0  0  0
  6  5  1  0  0  0  0
  7 20  1  6  0  0  0
  7  8  1  0  0  0  0
  7 10  1  0  0  0  0
  8  9  1  6  0  0  0
  8  6  1  0  0  0  0
  8 10  1  0  0  0  0
 10 11  1  6  0  0  0
 12 14  1  0  0  0  0
 12 15  1  0  0  0  0
 13 16  1  0  0  0  0
 13 17  1  0  0  0  0
 14 18  1  0  0  0  0
 15 13  1  0  0  0  0
 17 20  1  0  0  0  0
 18 16  1  0  0  0  0
 19 17  2  0  0  0  0
 22 21  1  0  0  0  0
 23 22  1  0  0  0  0
 24 27  1  0  0  0  0
 25 29  1  0  0  0  0
 25 32  1  0  0  0  0
 26 32  1  0  0  0  0
 27 23  1  0  0  0  0
 28 30  2  0  0  0  0
 29 24  2  0  0  0  0
 30 31  1  0  0  0  0
 30 25  1  0  0  0  0
 31 33  1  6  0  0  0
 31 26  1  0  0  0  0
 32 27  2  0  0  0  0
 33 34  1  1  0  0  0
 33 35  1  0  0  0  0
 36 37  1  0  0  0  0
 36 35  1  0  0  0  0
 38  1  1  0  0  0  0
 39 47  2  0  0  0  0
 39 43  1  0  0  0  0
 40 39  1  0  0  0  0
 41 40  2  0  0  0  0
 41 46  1  0  0  0  0
 42 45  2  0  0  0  0
 43 48  2  0  0  0  0
 44 43  1  0  0  0  0
 45 48  1  0  0  0  0
 46 44  2  0  0  0  0
 47 42  1  0  0  0  0
 48 38  1  0  0  0  0
 49 47  1  0  0  0  0
 50 49  2  0  0  0  0
 51 49  1  0  0  0  0
 52 51  1  0  0  0  0
 53 52  1  0  0  0  0
 54 59  1  0  0  0  0
 54 58  1  0  0  0  0
 55 62  1  6  0  0  0
 56 55  1  0  0  0  0
 57 59  1  0  0  0  0
 57 56  2  0  0  0  0
 58 55  1  0  0  0  0
 59 53  1  6  0  0  0
 60 61  1  0  0  0  0
 62 60  1  0  0  0  0
 62 61  1  0  0  0  0
M  END
>  <MODEL>
4

>  <REMARK>
 VINA RESULT:      -6.8      2.771      7.837
  Name = 
  21 active torsions:
  status: ('A' for Active; 'I' for Inactive)
    1  A    between atoms: C_2  and  C_40
    2  A    between atoms: C_2  and  S_58
    3  A    between atoms: C_3  and  C_55
    4  A    between atoms: C_6  and  C_39
    5  A    between atoms: C_6  and  C_49
    6  A    between atoms: N_8  and  C_25
    7  A    between atoms: N_8  and  C_57
    8  A    between atoms: N_10  and  C_41
    9  A    between atoms: N_10  and  N_50
   10  A    between atoms: C_11  and  N_53
   11  A    between atoms: N_13  and  C_25
   12  A    between atoms: N_13  and  C_35
   13  A    between atoms: C_14  and  C_34
   14  A    between atoms: C_25  and  C_59
   15  A    between atoms: C_27  and  C_51
   16  A    between atoms: C_30  and  C_49
   17  A    between atoms: C_31  and  C_48
   18  A    between atoms: C_35  and  C_51
   19  A    between atoms: C_40  and  C_59
   20  A    between atoms: C_41  and  C_60
   21  A    between atoms: C_48  and  S_58
                            x       y       z     vdW  Elec       q    Type
                         _______ _______ _______ _____ _____    ______ ____

>  <TORSDO>
F 21

$$$$
=
 OpenBabel10222416003D

 62 69  0  0  1  0  0  0  0  0999 V2000
  188.5470  178.6170  138.7740 C   0  0  2  0  0  3  0  0  0  0  0  0
  189.7120  178.1750  139.6440 C   0  0  0  0  0  2  0  0  0  0  0  0
  189.2680  177.1650  140.6840 C   0  0  0  0  0  2  0  0  0  0  0  0
  190.4950  176.4750  141.2460 C   0  0  0  0  0  2  0  0  0  0  0  0
  191.5130  177.6530  142.1810 S   0  0  0  0  0  0  0  0  0  0  0  0
  191.2360  176.7340  143.7260 C   0  0  0  0  0  2  0  0  0  0  0  0
  188.9370  176.5950  144.8320 C   0  0  1  0  0  3  0  0  0  0  0  0
  190.1910  177.4230  144.5860 C   0  0  2  0  0  0  0  0  0  0  0  0
  189.9890  178.7970  144.3960 O   0  0  0  0  0  1  0  0  0  0  0  0
  189.9370  176.8650  145.9820 C   0  0  1  0  0  3  0  0  0  0  0  0
  189.4870  177.9410  146.9700 C   0  0  0  0  0  1  0  0  0  0  0  0
  183.3940  178.6960  143.1210 C   0  0  0  0  0  2  0  0  0  0  0  0
  185.6650  178.3750  143.9400 N   0  0  0  0  0  0  0  0  0  0  0  0
  183.1480  179.5730  144.2630 N   0  0  0  0  0  2  0  0  0  0  0  0
  184.8750  178.7230  142.7610 C   0  0  0  0  0  2  0  0  0  0  0  0
  185.3360  179.0060  145.2180 C   0  0  0  0  0  2  0  0  0  0  0  0
  186.8920  177.6470  143.7920 C   0  0  0  0  0  0  0  0  0  0  0  0
  183.8180  178.9950  145.4270 C   0  0  0  0  0  2  0  0  0  0  0  0
  187.2130  177.1810  142.6650 O   0  0  0  0  0  0  0  0  0  0  0  0
  187.7450  177.4340  144.9200 N   0  0  0  0  0  2  0  0  0  0  0  0
  187.3050  178.1910  139.4000 N   0  0  0  0  0  2  0  0  0  0  0  0
  186.2160  178.4290  138.4590 C   0  0  0  0  0  2  0  0  0  0  0  0
  184.9540  178.8790  139.1910 C   0  0  0  0  0  2  0  0  0  0  0  0
  183.7650  176.8770  138.0440 C   0  0  0  0  0  3  0  0  0  0  0  0
  181.8060  177.0930  138.9000 N   0  0  0  0  0  0  0  0  0  0  0  0
  181.8310  179.1830  139.8730 N   0  0  0  0  0  2  0  0  0  0  0  0
  183.8280  177.9200  138.9740 C   0  0  0  0  0  0  0  0  0  0  0  0
  179.5330  176.9950  138.2630 O   0  0  0  0  0  0  0  0  0  0  0  0
  182.4880  176.4150  137.9920 N   0  0  0  0  0  0  0  0  0  0  0  0
  180.4780  177.5620  138.8780 C   0  0  0  0  0  0  0  0  0  0  0  0
  180.4120  178.8910  139.5790 C   0  0  1  0  0  3  0  0  0  0  0  0
  182.5470  178.0240  139.4550 C   0  0  0  0  0  0  0  0  0  0  0  0
  179.5790  178.8080  140.8610 C   0  0  1  0  0  3  0  0  0  0  0  0
  179.6150  177.4180  141.4900 C   0  0  0  0  0  1  0  0  0  0  0  0
  180.0520  179.8630  141.8530 C   0  0  0  0  0  2  0  0  0  0  0  0
  179.2130  179.8670  143.1240 C   0  0  0  0  0  2  0  0  0  0  0  0
  179.6910  178.7950  144.0850 C   0  0  0  0  0  1  0  0  0  0  0  0
  188.6590  178.0130  137.4540 N   0  0  0  0  0  2  0  0  0  0  0  0
  189.4740  174.3770  136.7790 C   0  0  0  0  0  0  0  0  0  0  0  0
  188.8430  173.1730  136.6960 N   0  0  0  0  0  0  0  0  0  0  0  0
  187.5030  173.0550  136.8910 C   0  0  0  0  0  3  0  0  0  0  0  0
  191.4320  175.7370  136.6280 N   0  0  0  0  0  0  0  0  0  0  0  0
  188.7100  175.5330  137.0660 C   0  0  0  0  0  0  0  0  0  0  0  0
  187.3680  175.3980  137.2610 N   0  0  0  0  0  0  0  0  0  0  0  0
  190.7190  176.8570  136.9150 C   0  0  0  0  0  3  0  0  0  0  0  0
  186.7510  174.1920  137.1800 C   0  0  0  0  0  3  0  0  0  0  0  0
  190.8640  174.5010  136.5620 C   0  0  0  0  0  0  0  0  0  0  0  0
  189.3460  176.7900  137.1440 C   0  0  0  0  0  0  0  0  0  0  0  0
  191.7410  173.3480  136.2570 C   0  0  0  0  0  0  0  0  0  0  0  0
  191.4950  172.6330  135.2470 O   0  0  0  0  0  0  0  0  0  0  0  0
  192.8830  173.0500  137.0680 N   0  0  0  0  0  2  0  0  0  0  0  0
  193.7760  172.0170  136.7500 N   0  0  0  0  0  2  0  0  0  0  0  0
  194.8420  172.5950  135.9460 C   0  0  0  0  0  2  0  0  0  0  0  0
  197.0870  173.7180  136.0060 C   0  0  0  0  0  2  0  0  0  0  0  0
  197.5740  174.4880  138.6500 C   0  0  1  0  0  3  0  0  0  0  0  0
  196.1680  174.8160  138.5480 N   0  0  0  0  0  0  0  0  0  0  0  0
  195.3950  174.1880  137.7340 C   0  0  0  0  0  3  0  0  0  0  0  0
  198.3860  174.5640  137.0030 S   0  0  0  0  0  0  0  0  0  0  0  0
  195.9480  173.1270  136.8380 C   0  0  1  0  0  3  0  0  0  0  0  0
  197.2250  176.0440  140.5450 C   0  0  0  0  0  2  0  0  0  0  0  0
  198.1230  174.9240  141.0260 C   0  0  0  0  0  2  0  0  0  0  0  0
  198.2570  175.4470  139.6080 C   0  0  0  0  0  3  0  0  0  0  0  0
  1 21  1  0  0  0  0
  1  2  1  1  0  0  0
  2  3  1  0  0  0  0
  3  4  1  0  0  0  0
  4  5  1  0  0  0  0
  5  6  1  0  0  0  0
  6  8  1  0  0  0  0
  7 20  1  1  0  0  0
  7 10  1  0  0  0  0
  8  9  1  6  0  0  0
  8  7  1  0  0  0  0
  8 10  1  0  0  0  0
 10 11  1  1  0  0  0
 12 14  1  0  0  0  0
 13 16  1  0  0  0  0
 14 18  1  0  0  0  0
 15 12  1  0  0  0  0
 15 13  1  0  0  0  0
 16 18  1  0  0  0  0
 17 13  1  0  0  0  0
 17 20  1  0  0  0  0
 19 17  2  0  0  0  0
 22 23  1  0  0  0  0
 22 21  1  0  0  0  0
 24 27  1  0  0  0  0
 25 32  1  0  0  0  0
 27 23  1  0  0  0  0
 27 32  2  0  0  0  0
 28 30  2  0  0  0  0
 29 24  2  0  0  0  0
 29 25  1  0  0  0  0
 30 25  1  0  0  0  0
 30 31  1  0  0  0  0
 31 26  1  0  0  0  0
 31 33  1  1  0  0  0
 32 26  1  0  0  0  0
 33 34  1  1  0  0  0
 33 35  1  0  0  0  0
 35 36  1  0  0  0  0
 36 37  1  0  0  0  0
 38  1  1  0  0  0  0
 39 43  1  0  0  0  0
 40 39  2  0  0  0  0
 40 41  1  0  0  0  0
 41 46  2  0  0  0  0
 42 45  1  0  0  0  0
 43 48  1  0  0  0  0
 43 44  2  0  0  0  0
 45 48  2  0  0  0  0
 46 44  1  0  0  0  0
 47 42  2  0  0  0  0
 47 39  1  0  0  0  0
 48 38  1  0  0  0  0
 49 47  1  0  0  0  0
 49 51  1  0  0  0  0
 50 49  2  0  0  0  0
 52 51  1  0  0  0  0
 53 52  1  0  0  0  0
 54 59  1  0  0  0  0
 54 58  1  0  0  0  0
 55 62  1  1  0  0  0
 56 55  1  0  0  0  0
 57 56  2  0  0  0  0
 58 55  1  0  0  0  0
 59 53  1  6  0  0  0
 59 57  1  0  0  0  0
 60 61  1  0  0  0  0
 62 60  1  0  0  0  0
 62 61  1  0  0  0  0
M  END
>  <MODEL>
5

>  <REMARK>
 VINA RESULT:      -6.1      2.838      7.877
  Name = 
  21 active torsions:
  status: ('A' for Active; 'I' for Inactive)
    1  A    between atoms: C_2  and  C_40
    2  A    between atoms: C_2  and  S_58
    3  A    between atoms: C_3  and  C_55
    4  A    between atoms: C_6  and  C_39
    5  A    between atoms: C_6  and  C_49
    6  A    between atoms: N_8  and  C_25
    7  A    between atoms: N_8  and  C_57
    8  A    between atoms: N_10  and  C_41
    9  A    between atoms: N_10  and  N_50
   10  A    between atoms: C_11  and  N_53
   11  A    between atoms: N_13  and  C_25
   12  A    between atoms: N_13  and  C_35
   13  A    between atoms: C_14  and  C_34
   14  A    between atoms: C_25  and  C_59
   15  A    between atoms: C_27  and  C_51
   16  A    between atoms: C_30  and  C_49
   17  A    between atoms: C_31  and  C_48
   18  A    between atoms: C_35  and  C_51
   19  A    between atoms: C_40  and  C_59
   20  A    between atoms: C_41  and  C_60
   21  A    between atoms: C_48  and  S_58
                            x       y       z     vdW  Elec       q    Type
                         _______ _______ _______ _____ _____    ______ ____

>  <TORSDO>
F 21

$$$$
=
 OpenBabel10222416003D

 62 69  0  0  1  0  0  0  0  0999 V2000
  188.7370  177.1470  137.2530 C   0  0  2  0  0  3  0  0  0  0  0  0
  189.4700  175.8690  136.8810 C   0  0  0  0  0  2  0  0  0  0  0  0
  190.1640  176.0050  135.5390 C   0  0  0  0  0  2  0  0  0  0  0  0
  190.3340  174.6240  134.9380 C   0  0  0  0  0  2  0  0  0  0  0  0
  189.6690  173.3580  136.0570 S   0  0  0  0  0  0  0  0  0  0  0  0
  188.3700  172.9220  134.8620 C   0  0  0  0  0  2  0  0  0  0  0  0
  186.1300  171.9380  135.6020 C   0  0  1  0  0  3  0  0  0  0  0  0
  186.9910  173.1840  135.4420 C   0  0  2  0  0  0  0  0  0  0  0  0
  186.3170  174.3430  135.0290 O   0  0  0  0  0  1  0  0  0  0  0  0
  186.6970  172.6660  136.8450 C   0  0  1  0  0  3  0  0  0  0  0  0
  185.6790  173.5320  137.5880 C   0  0  0  0  0  1  0  0  0  0  0  0
  180.0510  171.1260  136.2680 C   0  0  0  0  0  2  0  0  0  0  0  0
  182.3180  171.5920  135.5080 N   0  0  0  0  0  0  0  0  0  0  0  0
  179.6070  172.3180  135.5510 N   0  0  0  0  0  2  0  0  0  0  0  0
  181.2930  170.5530  135.5950 C   0  0  0  0  0  2  0  0  0  0  0  0
  181.9300  172.9240  135.0430 C   0  0  0  0  0  2  0  0  0  0  0  0
  183.7040  171.2430  135.6160 C   0  0  0  0  0  0  0  0  0  0  0  0
  180.6260  173.3530  135.7240 C   0  0  0  0  0  2  0  0  0  0  0  0
  184.0320  170.0670  135.9320 O   0  0  0  0  0  0  0  0  0  0  0  0
  184.7150  172.2260  135.3820 N   0  0  0  0  0  2  0  0  0  0  0  0
  188.4350  177.8870  136.0370 N   0  0  0  0  0  2  0  0  0  0  0  0
  186.9910  178.0830  135.9700 C   0  0  0  0  0  2  0  0  0  0  0  0
  186.3050  177.4940  137.2010 C   0  0  0  0  0  2  0  0  0  0  0  0
  184.2690  176.8550  135.7240 C   0  0  0  0  0  3  0  0  0  0  0  0
  182.6810  177.2880  137.1050 N   0  0  0  0  0  0  0  0  0  0  0  0
  183.6980  178.4850  138.7930 N   0  0  0  0  0  2  0  0  0  0  0  0
  184.8600  177.2190  136.9380 C   0  0  0  0  0  0  0  0  0  0  0  0
  180.5480  178.3030  137.1490 O   0  0  0  0  0  0  0  0  0  0  0  0
  182.9200  176.9500  135.8490 N   0  0  0  0  0  0  0  0  0  0  0  0
  181.6950  178.1330  137.6490 C   0  0  0  0  0  0  0  0  0  0  0  0
  182.2750  178.8820  138.8170 C   0  0  1  0  0  3  0  0  0  0  0  0
  183.7990  177.5100  137.7580 C   0  0  0  0  0  0  0  0  0  0  0  0
  181.6020  178.4790  140.1320 C   0  0  1  0  0  3  0  0  0  0  0  0
  182.5750  178.4740  141.3070 C   0  0  0  0  0  1  0  0  0  0  0  0
  180.4220  179.4030  140.4120 C   0  0  0  0  0  2  0  0  0  0  0  0
  180.6540  180.8050  139.8650 C   0  0  0  0  0  2  0  0  0  0  0  0
  179.5040  181.2300  138.9710 C   0  0  0  0  0  1  0  0  0  0  0  0
  189.5750  177.9620  138.1220 N   0  0  0  0  0  2  0  0  0  0  0  0
  189.3570  177.6460  141.8890 C   0  0  0  0  0  0  0  0  0  0  0  0
  188.4670  177.8640  142.8960 N   0  0  0  0  0  0  0  0  0  0  0  0
  187.2200  178.3500  142.6540 C   0  0  0  0  0  3  0  0  0  0  0  0
  191.4800  176.9010  141.0870 N   0  0  0  0  0  0  0  0  0  0  0  0
  188.9660  177.9220  140.5580 C   0  0  0  0  0  0  0  0  0  0  0  0
  187.7140  178.4090  140.3310 N   0  0  0  0  0  0  0  0  0  0  0  0
  191.1290  177.1710  139.8040 C   0  0  0  0  0  3  0  0  0  0  0  0
  186.8370  178.6280  141.3430 C   0  0  0  0  0  3  0  0  0  0  0  0
  190.6470  177.1270  142.1400 C   0  0  0  0  0  0  0  0  0  0  0  0
  189.8720  177.6890  139.5000 C   0  0  0  0  0  0  0  0  0  0  0  0
  191.1410  176.8110  143.5000 C   0  0  0  0  0  0  0  0  0  0  0  0
  191.5010  175.6310  143.7680 O   0  0  0  0  0  0  0  0  0  0  0  0
  191.2500  177.8250  144.5040 N   0  0  0  0  0  2  0  0  0  0  0  0
  191.7950  177.5670  145.7690 N   0  0  0  0  0  2  0  0  0  0  0  0
  190.7800  176.8740  146.5480 C   0  0  0  0  0  2  0  0  0  0  0  0
  188.4160  176.4760  145.8000 C   0  0  0  0  0  2  0  0  0  0  0  0
  186.9210  178.7370  146.4890 C   0  0  1  0  0  3  0  0  0  0  0  0
  187.7510  178.6160  147.6690 N   0  0  0  0  0  0  0  0  0  0  0  0
  188.9140  178.0700  147.6120 C   0  0  0  0  0  3  0  0  0  0  0  0
  186.6860  177.1030  145.6810 S   0  0  0  0  0  0  0  0  0  0  0  0
  189.4190  177.5060  146.3220 C   0  0  1  0  0  3  0  0  0  0  0  0
  184.5410  178.9290  145.8310 C   0  0  0  0  0  2  0  0  0  0  0  0
  184.5970  178.2030  147.1580 C   0  0  0  0  0  2  0  0  0  0  0  0
  185.5740  179.3260  146.8670 C   0  0  0  0  0  3  0  0  0  0  0  0
  1  2  1  6  0  0  0
  1 38  1  0  0  0  0
  3  2  1  0  0  0  0
  4  3  1  0  0  0  0
  4  5  1  0  0  0  0
  6  8  1  0  0  0  0
  6  5  1  0  0  0  0
  7 20  1  1  0  0  0
  7 10  1  0  0  0  0
  8  9  1  6  0  0  0
  8  7  1  0  0  0  0
  8 10  1  0  0  0  0
 10 11  1  1  0  0  0
 13 15  1  0  0  0  0
 13 17  1  0  0  0  0
 14 18  1  0  0  0  0
 14 12  1  0  0  0  0
 15 12  1  0  0  0  0
 16 13  1  0  0  0  0
 16 18  1  0  0  0  0
 17 19  2  0  0  0  0
 20 17  1  0  0  0  0
 21  1  1  0  0  0  0
 22 21  1  0  0  0  0
 22 23  1  0  0  0  0
 24 29  2  0  0  0  0
 24 27  1  0  0  0  0
 25 30  1  0  0  0  0
 25 32  1  0  0  0  0
 26 31  1  0  0  0  0
 27 23  1  0  0  0  0
 27 32  2  0  0  0  0
 28 30  2  0  0  0  0
 29 25  1  0  0  0  0
 30 31  1  0  0  0  0
 31 33  1  1  0  0  0
 32 26  1  0  0  0  0
 33 35  1  0  0  0  0
 33 34  1  1  0  0  0
 36 35  1  0  0  0  0
 37 36  1  0  0  0  0
 38 48  1  0  0  0  0
 39 47  1  0  0  0  0
 39 40  2  0  0  0  0
 41 40  1  0  0  0  0
 42 47  2  0  0  0  0
 43 39  1  0  0  0  0
 44 43  2  0  0  0  0
 44 46  1  0  0  0  0
 45 42  1  0  0  0  0
 46 41  2  0  0  0  0
 47 49  1  0  0  0  0
 48 45  2  0  0  0  0
 48 43  1  0  0  0  0
 49 50  2  0  0  0  0
 49 51  1  0  0  0  0
 51 52  1  0  0  0  0
 52 53  1  0  0  0  0
 54 59  1  0  0  0  0
 55 62  1  1  0  0  0
 55 56  1  0  0  0  0
 57 56  2  0  0  0  0
 58 54  1  0  0  0  0
 58 55  1  0  0  0  0
 59 53  1  1  0  0  0
 59 57  1  0  0  0  0
 60 62  1  0  0  0  0
 60 61  1  0  0  0  0
 62 61  1  0  0  0  0
M  END
>  <MODEL>
6

>  <REMARK>
 VINA RESULT:      -5.9      3.430      8.923
  Name = 
  21 active torsions:
  status: ('A' for Active; 'I' for Inactive)
    1  A    between atoms: C_2  and  C_40
    2  A    between atoms: C_2  and  S_58
    3  A    between atoms: C_3  and  C_55
    4  A    between atoms: C_6  and  C_39
    5  A    between atoms: C_6  and  C_49
    6  A    between atoms: N_8  and  C_25
    7  A    between atoms: N_8  and  C_57
    8  A    between atoms: N_10  and  C_41
    9  A    between atoms: N_10  and  N_50
   10  A    between atoms: C_11  and  N_53
   11  A    between atoms: N_13  and  C_25
   12  A    between atoms: N_13  and  C_35
   13  A    between atoms: C_14  and  C_34
   14  A    between atoms: C_25  and  C_59
   15  A    between atoms: C_27  and  C_51
   16  A    between atoms: C_30  and  C_49
   17  A    between atoms: C_31  and  C_48
   18  A    between atoms: C_35  and  C_51
   19  A    between atoms: C_40  and  C_59
   20  A    between atoms: C_41  and  C_60
   21  A    between atoms: C_48  and  S_58
                            x       y       z     vdW  Elec       q    Type
                         _______ _______ _______ _____ _____    ______ ____

>  <TORSDO>
F 21

$$$$
=
 OpenBabel10222416003D

 62 69  0  0  1  0  0  0  0  0999 V2000
  185.7340  179.1940  142.2090 C   0  0  2  0  0  3  0  0  0  0  0  0
  184.6560  179.0220  143.2650 C   0  0  0  0  0  2  0  0  0  0  0  0
  183.3920  178.4310  142.6690 C   0  0  0  0  0  2  0  0  0  0  0  0
  182.2330  179.3590  142.9690 C   0  0  0  0  0  2  0  0  0  0  0  0
  180.6600  178.5790  142.5060 S   0  0  0  0  0  0  0  0  0  0  0  0
  181.3000  178.1650  140.8550 C   0  0  0  0  0  2  0  0  0  0  0  0
  181.1840  179.2430  138.5410 C   0  0  1  0  0  3  0  0  0  0  0  0
  180.4220  178.7620  139.7690 C   0  0  2  0  0  0  0  0  0  0  0  0
  179.3380  179.5580  140.1660 O   0  0  0  0  0  1  0  0  0  0  0  0
  180.2810  177.9890  138.4630 C   0  0  1  0  0  3  0  0  0  0  0  0
  178.9310  178.2250  137.7850 C   0  0  0  0  0  1  0  0  0  0  0  0
  181.0170  184.9450  136.1940 C   0  0  0  0  0  2  0  0  0  0  0  0
  180.5980  182.8200  137.3070 N   0  0  0  0  0  0  0  0  0  0  0  0
  179.6270  184.9400  135.7440 N   0  0  0  0  0  2  0  0  0  0  0  0
  181.1400  184.1640  137.4970 C   0  0  0  0  0  2  0  0  0  0  0  0
  179.3130  182.6710  136.6250 C   0  0  0  0  0  2  0  0  0  0  0  0
  181.1750  181.7090  138.0060 C   0  0  0  0  0  0  0  0  0  0  0  0
  179.2780  183.5670  135.3820 C   0  0  0  0  0  2  0  0  0  0  0  0
  182.2380  181.8670  138.6670 O   0  0  0  0  0  0  0  0  0  0  0  0
  180.5600  180.4200  137.9440 N   0  0  0  0  0  2  0  0  0  0  0  0
  185.1140  179.6490  140.9730 N   0  0  0  0  0  2  0  0  0  0  0  0
  184.7270  178.4750  140.1990 C   0  0  0  0  0  2  0  0  0  0  0  0
  184.8520  178.7470  138.7020 C   0  0  0  0  0  2  0  0  0  0  0  0
  186.4590  177.3310  137.2360 C   0  0  0  0  0  3  0  0  0  0  0  0
  185.1790  175.6550  136.8260 N   0  0  0  0  0  0  0  0  0  0  0  0
  183.0850  176.3560  137.4870 N   0  0  0  0  0  2  0  0  0  0  0  0
  185.2790  177.5210  137.9610 C   0  0  0  0  0  0  0  0  0  0  0  0
  184.5610  174.2470  135.0320 O   0  0  0  0  0  0  0  0  0  0  0  0
  186.3480  176.1880  136.5110 N   0  0  0  0  0  0  0  0  0  0  0  0
  184.2520  174.9580  136.0270 C   0  0  0  0  0  0  0  0  0  0  0  0
  182.8580  175.3080  136.4700 C   0  0  1  0  0  3  0  0  0  0  0  0
  184.5000  176.4390  137.6300 C   0  0  0  0  0  0  0  0  0  0  0  0
  182.1370  174.0950  137.0650 C   0  0  1  0  0  3  0  0  0  0  0  0
  181.1490  174.4840  138.1610 C   0  0  0  0  0  1  0  0  0  0  0  0
  181.4370  173.3160  135.9580 C   0  0  0  0  0  2  0  0  0  0  0  0
  181.3450  171.8300  136.2780 C   0  0  0  0  0  2  0  0  0  0  0  0
  182.7220  171.2540  136.5520 C   0  0  0  0  0  1  0  0  0  0  0  0
  186.4060  177.9230  141.9770 N   0  0  0  0  0  2  0  0  0  0  0  0
  190.1300  177.2680  142.1740 C   0  0  0  0  0  0  0  0  0  0  0  0
  191.0700  176.9010  143.0880 N   0  0  0  0  0  0  0  0  0  0  0  0
  190.7450  176.6560  144.3860 C   0  0  0  0  0  3  0  0  0  0  0  0
  189.4770  177.8410  139.9490 N   0  0  0  0  0  0  0  0  0  0  0  0
  188.7820  177.3870  142.5860 C   0  0  0  0  0  0  0  0  0  0  0  0
  188.4720  177.1400  143.8890 N   0  0  0  0  0  0  0  0  0  0  0  0
  188.1790  177.9730  140.3260 C   0  0  0  0  0  3  0  0  0  0  0  0
  189.4180  176.7800  144.7940 C   0  0  0  0  0  3  0  0  0  0  0  0
  190.4660  177.5080  140.8220 C   0  0  0  0  0  0  0  0  0  0  0  0
  187.7940  177.7540  141.6470 C   0  0  0  0  0  0  0  0  0  0  0  0
  191.8490  177.4080  140.3030 C   0  0  0  0  0  0  0  0  0  0  0  0
  192.7870  177.9770  140.9280 O   0  0  0  0  0  0  0  0  0  0  0  0
  192.1470  176.6510  139.1260 N   0  0  0  0  0  2  0  0  0  0  0  0
  193.4580  176.4710  138.6640 N   0  0  0  0  0  2  0  0  0  0  0  0
  193.3920  176.2990  137.2210 C   0  0  0  0  0  2  0  0  0  0  0  0
  193.0190  174.6470  135.3680 C   0  0  0  0  0  2  0  0  0  0  0  0
  193.5130  172.0960  136.4010 C   0  0  1  0  0  3  0  0  0  0  0  0
  194.5850  172.8340  137.0340 N   0  0  0  0  0  0  0  0  0  0  0  0
  194.4730  174.0920  137.2780 C   0  0  0  0  0  3  0  0  0  0  0  0
  193.0160  172.8860  134.8190 S   0  0  0  0  0  0  0  0  0  0  0  0
  193.2380  174.8310  136.8700 C   0  0  1  0  0  3  0  0  0  0  0  0
  195.4620  170.5700  136.2910 C   0  0  0  0  0  2  0  0  0  0  0  0
  194.5650  170.0940  137.4140 C   0  0  0  0  0  2  0  0  0  0  0  0
  193.9550  170.6660  136.1480 C   0  0  0  0  0  3  0  0  0  0  0  0
  1  2  1  1  0  0  0
  3  4  1  0  0  0  0
  3  2  1  0  0  0  0
  5  4  1  0  0  0  0
  6  5  1  0  0  0  0
  7 20  1  6  0  0  0
  7  8  1  0  0  0  0
  8  9  1  1  0  0  0
  8  6  1  0  0  0  0
 10 11  1  6  0  0  0
 10  7  1  0  0  0  0
 10  8  1  0  0  0  0
 12 15  1  0  0  0  0
 13 15  1  0  0  0  0
 13 17  1  0  0  0  0
 14 12  1  0  0  0  0
 16 13  1  0  0  0  0
 17 19  2  0  0  0  0
 18 14  1  0  0  0  0
 18 16  1  0  0  0  0
 20 17  1  0  0  0  0
 21  1  1  0  0  0  0
 22 21  1  0  0  0  0
 23 22  1  0  0  0  0
 24 27  1  0  0  0  0
 25 32  1  0  0  0  0
 26 32  1  0  0  0  0
 27 23  1  0  0  0  0
 28 30  2  0  0  0  0
 29 25  1  0  0  0  0
 29 24  2  0  0  0  0
 30 31  1  0  0  0  0
 30 25  1  0  0  0  0
 31 33  1  1  0  0  0
 31 26  1  0  0  0  0
 32 27  2  0  0  0  0
 33 34  1  1  0  0  0
 35 36  1  0  0  0  0
 35 33  1  0  0  0  0
 36 37  1  0  0  0  0
 38  1  1  0  0  0  0
 39 43  1  0  0  0  0
 39 40  2  0  0  0  0
 40 41  1  0  0  0  0
 41 46  2  0  0  0  0
 42 45  1  0  0  0  0
 42 47  2  0  0  0  0
 43 44  2  0  0  0  0
 44 46  1  0  0  0  0
 45 48  2  0  0  0  0
 47 39  1  0  0  0  0
 48 38  1  0  0  0  0
 48 43  1  0  0  0  0
 49 47  1  0  0  0  0
 49 50  2  0  0  0  0
 51 49  1  0  0  0  0
 52 51  1  0  0  0  0
 53 52  1  0  0  0  0
 54 59  1  0  0  0  0
 55 62  1  6  0  0  0
 55 56  1  0  0  0  0
 56 57  2  0  0  0  0
 58 54  1  0  0  0  0
 58 55  1  0  0  0  0
 59 53  1  6  0  0  0
 59 57  1  0  0  0  0
 60 61  1  0  0  0  0
 62 60  1  0  0  0  0
 62 61  1  0  0  0  0
M  END
>  <MODEL>
7

>  <REMARK>
 VINA RESULT:      -5.8      2.996      7.243
  Name = 
  21 active torsions:
  status: ('A' for Active; 'I' for Inactive)
    1  A    between atoms: C_2  and  C_40
    2  A    between atoms: C_2  and  S_58
    3  A    between atoms: C_3  and  C_55
    4  A    between atoms: C_6  and  C_39
    5  A    between atoms: C_6  and  C_49
    6  A    between atoms: N_8  and  C_25
    7  A    between atoms: N_8  and  C_57
    8  A    between atoms: N_10  and  C_41
    9  A    between atoms: N_10  and  N_50
   10  A    between atoms: C_11  and  N_53
   11  A    between atoms: N_13  and  C_25
   12  A    between atoms: N_13  and  C_35
   13  A    between atoms: C_14  and  C_34
   14  A    between atoms: C_25  and  C_59
   15  A    between atoms: C_27  and  C_51
   16  A    between atoms: C_30  and  C_49
   17  A    between atoms: C_31  and  C_48
   18  A    between atoms: C_35  and  C_51
   19  A    between atoms: C_40  and  C_59
   20  A    between atoms: C_41  and  C_60
   21  A    between atoms: C_48  and  S_58
                            x       y       z     vdW  Elec       q    Type
                         _______ _______ _______ _____ _____    ______ ____

>  <TORSDO>
F 21

$$$$
=
 OpenBabel10222416003D

 62 69  0  0  1  0  0  0  0  0999 V2000
  186.7270  177.5780  137.5800 C   0  0  2  0  0  3  0  0  0  0  0  0
  188.0330  176.8040  137.5180 C   0  0  0  0  0  2  0  0  0  0  0  0
  187.7830  175.3120  137.4120 C   0  0  0  0  0  2  0  0  0  0  0  0
  188.4870  174.7880  136.1770 C   0  0  0  0  0  2  0  0  0  0  0  0
  190.0340  173.9540  136.6340 S   0  0  0  0  0  0  0  0  0  0  0  0
  190.9480  175.5250  136.5790 C   0  0  0  0  0  2  0  0  0  0  0  0
  193.4390  176.0930  136.5180 C   0  0  1  0  0  3  0  0  0  0  0  0
  192.3050  175.3860  137.2470 C   0  0  2  0  0  0  0  0  0  0  0  0
  192.6270  174.1480  137.8230 O   0  0  0  0  0  1  0  0  0  0  0  0
  192.9220  176.6300  137.8740 C   0  0  1  0  0  3  0  0  0  0  0  0
  193.8200  176.3030  139.0670 C   0  0  0  0  0  1  0  0  0  0  0  0
  198.1540  172.6110  134.5940 C   0  0  0  0  0  2  0  0  0  0  0  0
  196.3650  173.7240  135.8150 N   0  0  0  0  0  0  0  0  0  0  0  0
  198.9790  172.7030  135.7960 N   0  0  0  0  0  2  0  0  0  0  0  0
  196.6810  172.5650  134.9840 C   0  0  0  0  0  2  0  0  0  0  0  0
  197.2740  174.0760  136.9060 C   0  0  0  0  0  2  0  0  0  0  0  0
  195.0690  174.3330  135.7350 C   0  0  0  0  0  0  0  0  0  0  0  0
  198.7240  174.0030  136.4170 C   0  0  0  0  0  2  0  0  0  0  0  0
  194.2560  173.9610  134.8450 O   0  0  0  0  0  0  0  0  0  0  0  0
  194.7010  175.3690  136.6480 N   0  0  0  0  0  2  0  0  0  0  0  0
  186.4680  178.1680  136.2750 N   0  0  0  0  0  2  0  0  0  0  0  0
  186.2730  177.0870  135.3160 C   0  0  0  0  0  2  0  0  0  0  0  0
  184.8840  177.1630  134.6870 C   0  0  0  0  0  2  0  0  0  0  0  0
  183.7210  175.6460  136.4420 C   0  0  0  0  0  3  0  0  0  0  0  0
  181.8780  176.7260  136.6750 N   0  0  0  0  0  0  0  0  0  0  0  0
  181.8610  178.2200  134.9190 N   0  0  0  0  0  2  0  0  0  0  0  0
  183.8200  176.8110  135.6750 C   0  0  0  0  0  0  0  0  0  0  0  0
  179.5570  176.3240  136.8570 O   0  0  0  0  0  0  0  0  0  0  0  0
  182.4890  175.6030  137.0140 N   0  0  0  0  0  0  0  0  0  0  0  0
  180.5250  176.9680  136.3670 C   0  0  0  0  0  0  0  0  0  0  0  0
  180.4440  178.0060  135.2820 C   0  0  1  0  0  3  0  0  0  0  0  0
  182.6070  177.4320  135.8430 C   0  0  0  0  0  0  0  0  0  0  0  0
  179.7930  179.2960  135.7870 C   0  0  1  0  0  3  0  0  0  0  0  0
  179.4400  179.2280  137.2700 C   0  0  0  0  0  1  0  0  0  0  0  0
  180.7070  180.4820  135.5020 C   0  0  0  0  0  2  0  0  0  0  0  0
  180.8700  181.3810  136.7200 C   0  0  0  0  0  2  0  0  0  0  0  0
  180.5610  182.8240  136.3660 C   0  0  0  0  0  1  0  0  0  0  0  0
  186.8230  178.6320  138.5800 N   0  0  0  0  0  2  0  0  0  0  0  0
  184.2610  178.8070  141.3620 C   0  0  0  0  0  0  0  0  0  0  0  0
  182.9170  178.9550  141.5240 N   0  0  0  0  0  0  0  0  0  0  0  0
  182.0830  179.1040  140.4610 C   0  0  0  0  0  3  0  0  0  0  0  0
  186.4570  178.4630  142.2390 N   0  0  0  0  0  0  0  0  0  0  0  0
  184.7970  178.7970  140.0530 C   0  0  0  0  0  0  0  0  0  0  0  0
  183.9490  178.9480  138.9980 N   0  0  0  0  0  0  0  0  0  0  0  0
  186.9920  178.4620  140.9910 C   0  0  0  0  0  3  0  0  0  0  0  0
  182.6110  179.1010  139.1710 C   0  0  0  0  0  3  0  0  0  0  0  0
  185.1260  178.6380  142.4670 C   0  0  0  0  0  0  0  0  0  0  0  0
  186.1860  178.6310  139.8670 C   0  0  0  0  0  0  0  0  0  0  0  0
  184.6540  178.6370  143.8710 C   0  0  0  0  0  0  0  0  0  0  0  0
  183.6800  177.9020  144.1950 O   0  0  0  0  0  0  0  0  0  0  0  0
  185.3040  179.4260  144.8720 N   0  0  0  0  0  2  0  0  0  0  0  0
  184.9300  179.3750  146.2220 N   0  0  0  0  0  2  0  0  0  0  0  0
  185.5530  178.1940  146.8020 C   0  0  0  0  0  2  0  0  0  0  0  0
  187.8520  177.7350  147.7000 C   0  0  0  0  0  2  0  0  0  0  0  0
  189.6130  177.6870  145.5290 C   0  0  1  0  0  3  0  0  0  0  0  0
  188.4830  176.9900  144.9510 N   0  0  0  0  0  0  0  0  0  0  0  0
  187.2850  177.2100  145.3610 C   0  0  0  0  0  3  0  0  0  0  0  0
  189.6460  177.4840  147.3540 S   0  0  0  0  0  0  0  0  0  0  0  0
  187.0360  178.1680  146.4820 C   0  0  1  0  0  3  0  0  0  0  0  0
  190.8590  177.3210  143.4190 C   0  0  0  0  0  2  0  0  0  0  0  0
  191.6490  178.3020  144.2590 C   0  0  0  0  0  2  0  0  0  0  0  0
  190.9030  177.1620  144.9260 C   0  0  0  0  0  3  0  0  0  0  0  0
  1  2  1  6  0  0  0
  1 38  1  0  0  0  0
  3  2  1  0  0  0  0
  4  5  1  0  0  0  0
  4  3  1  0  0  0  0
  6  5  1  0  0  0  0
  6  8  1  0  0  0  0
  7 20  1  1  0  0  0
  7  8  1  0  0  0  0
  7 10  1  0  0  0  0
  8  9  1  1  0  0  0
  8 10  1  0  0  0  0
 10 11  1  1  0  0  0
 12 15  1  0  0  0  0
 12 14  1  0  0  0  0
 13 16  1  0  0  0  0
 14 18  1  0  0  0  0
 15 13  1  0  0  0  0
 17 13  1  0  0  0  0
 17 20  1  0  0  0  0
 18 16  1  0  0  0  0
 19 17  2  0  0  0  0
 21  1  1  0  0  0  0
 22 21  1  0  0  0  0
 23 22  1  0  0  0  0
 23 27  1  0  0  0  0
 24 29  2  0  0  0  0
 25 29  1  0  0  0  0
 26 31  1  0  0  0  0
 26 32  1  0  0  0  0
 27 32  2  0  0  0  0
 27 24  1  0  0  0  0
 30 25  1  0  0  0  0
 30 28  2  0  0  0  0
 31 33  1  1  0  0  0
 31 30  1  0  0  0  0
 32 25  1  0  0  0  0
 33 34  1  1  0  0  0
 35 33  1  0  0  0  0
 35 36  1  0  0  0  0
 37 36  1  0  0  0  0
 38 48  1  0  0  0  0
 39 40  1  0  0  0  0
 39 47  1  0  0  0  0
 41 40  2  0  0  0  0
 42 47  2  0  0  0  0
 43 39  2  0  0  0  0
 44 46  2  0  0  0  0
 44 43  1  0  0  0  0
 45 42  1  0  0  0  0
 46 41  1  0  0  0  0
 47 49  1  0  0  0  0
 48 43  1  0  0  0  0
 48 45  2  0  0  0  0
 49 50  2  0  0  0  0
 49 51  1  0  0  0  0
 51 52  1  0  0  0  0
 52 53  1  0  0  0  0
 55 62  1  6  0  0  0
 55 58  1  0  0  0  0
 56 57  2  0  0  0  0
 56 55  1  0  0  0  0
 57 59  1  0  0  0  0
 58 54  1  0  0  0  0
 59 53  1  1  0  0  0
 59 54  1  0  0  0  0
 60 61  1  0  0  0  0
 60 62  1  0  0  0  0
 61 62  1  0  0  0  0
M  END
>  <MODEL>
8

>  <REMARK>
 VINA RESULT:      -5.8      2.944     10.909
  Name = 
  21 active torsions:
  status: ('A' for Active; 'I' for Inactive)
    1  A    between atoms: C_2  and  C_40
    2  A    between atoms: C_2  and  S_58
    3  A    between atoms: C_3  and  C_55
    4  A    between atoms: C_6  and  C_39
    5  A    between atoms: C_6  and  C_49
    6  A    between atoms: N_8  and  C_25
    7  A    between atoms: N_8  and  C_57
    8  A    between atoms: N_10  and  C_41
    9  A    between atoms: N_10  and  N_50
   10  A    between atoms: C_11  and  N_53
   11  A    between atoms: N_13  and  C_25
   12  A    between atoms: N_13  and  C_35
   13  A    between atoms: C_14  and  C_34
   14  A    between atoms: C_25  and  C_59
   15  A    between atoms: C_27  and  C_51
   16  A    between atoms: C_30  and  C_49
   17  A    between atoms: C_31  and  C_48
   18  A    between atoms: C_35  and  C_51
   19  A    between atoms: C_40  and  C_59
   20  A    between atoms: C_41  and  C_60
   21  A    between atoms: C_48  and  S_58
                            x       y       z     vdW  Elec       q    Type
                         _______ _______ _______ _____ _____    ______ ____

>  <TORSDO>
F 21

$$$$
=
 OpenBabel10222416003D

 62 69  0  0  1  0  0  0  0  0999 V2000
  183.5820  178.3100  137.8680 C   0  0  2  0  0  3  0  0  0  0  0  0
  182.9930  177.2300  136.9770 C   0  0  0  0  0  2  0  0  0  0  0  0
  182.4570  176.0730  137.7980 C   0  0  0  0  0  2  0  0  0  0  0  0
  181.4450  175.3130  136.9640 C   0  0  0  0  0  2  0  0  0  0  0  0
  180.7190  173.9560  137.9280 S   0  0  0  0  0  0  0  0  0  0  0  0
  180.1370  173.1330  136.4150 C   0  0  0  0  0  2  0  0  0  0  0  0
  182.2350  171.7020  136.7000 C   0  0  1  0  0  3  0  0  0  0  0  0
  181.2690  172.3810  135.7380 C   0  0  2  0  0  0  0  0  0  0  0  0
  181.8470  172.9560  134.5960 O   0  0  0  0  0  1  0  0  0  0  0  0
  181.2700  170.8590  135.8310 C   0  0  1  0  0  3  0  0  0  0  0  0
  181.9270  170.1980  134.6190 C   0  0  0  0  0  1  0  0  0  0  0  0
  188.3280  172.6480  136.8900 C   0  0  0  0  0  2  0  0  0  0  0  0
  185.9770  172.4110  136.3000 N   0  0  0  0  0  0  0  0  0  0  0  0
  188.6710  172.0230  135.6150 N   0  0  0  0  0  2  0  0  0  0  0  0
  186.9850  173.3590  136.7690 C   0  0  0  0  0  2  0  0  0  0  0  0
  186.3070  171.5340  135.1760 C   0  0  0  0  0  2  0  0  0  0  0  0
  184.6200  172.5250  136.7490 C   0  0  0  0  0  0  0  0  0  0  0  0
  187.7090  170.9490  135.3680 C   0  0  0  0  0  2  0  0  0  0  0  0
  184.3280  173.3480  137.6590 O   0  0  0  0  0  0  0  0  0  0  0  0
  183.6010  171.6990  136.1820 N   0  0  0  0  0  2  0  0  0  0  0  0
  184.8340  177.8270  138.4290 N   0  0  0  0  0  2  0  0  0  0  0  0
  185.6430  177.2880  137.3410 C   0  0  0  0  0  2  0  0  0  0  0  0
  186.5900  178.3510  136.7900 C   0  0  0  0  0  2  0  0  0  0  0  0
  187.9310  177.2700  134.8480 C   0  0  0  0  0  3  0  0  0  0  0  0
  189.6690  176.6270  135.9350 N   0  0  0  0  0  0  0  0  0  0  0  0
  189.0680  176.8300  138.1520 N   0  0  0  0  0  2  0  0  0  0  0  0
  187.7960  177.7320  136.1610 C   0  0  0  0  0  0  0  0  0  0  0  0
  191.1120  174.7630  136.1010 O   0  0  0  0  0  0  0  0  0  0  0  0
  189.0810  176.5530  134.7530 N   0  0  0  0  0  0  0  0  0  0  0  0
  190.4130  175.6630  136.6430 C   0  0  0  0  0  0  0  0  0  0  0  0
  190.1300  175.8020  138.1140 C   0  0  1  0  0  3  0  0  0  0  0  0
  188.9150  177.2620  136.8030 C   0  0  0  0  0  0  0  0  0  0  0  0
  191.3740  176.2520  138.8850 C   0  0  1  0  0  3  0  0  0  0  0  0
  192.4950  176.7180  137.9590 C   0  0  0  0  0  1  0  0  0  0  0  0
  191.0000  177.3480  139.8750 C   0  0  0  0  0  2  0  0  0  0  0  0
  190.5910  176.7780  141.2270 C   0  0  0  0  0  2  0  0  0  0  0  0
  189.4050  177.5360  141.7930 C   0  0  0  0  0  1  0  0  0  0  0  0
  182.6540  178.6220  138.9460 N   0  0  0  0  0  2  0  0  0  0  0  0
  182.4400  178.7220  142.7250 C   0  0  0  0  0  0  0  0  0  0  0  0
  181.5070  178.6260  143.7120 N   0  0  0  0  0  0  0  0  0  0  0  0
  180.1900  178.4370  143.4330 C   0  0  0  0  0  3  0  0  0  0  0  0
  184.7000  178.9620  141.9870 N   0  0  0  0  0  0  0  0  0  0  0  0
  182.0260  178.6120  141.3770 C   0  0  0  0  0  0  0  0  0  0  0  0
  180.7030  178.4240  141.1130 N   0  0  0  0  0  0  0  0  0  0  0  0
  184.3210  178.8710  140.6860 C   0  0  0  0  0  3  0  0  0  0  0  0
  179.7810  178.3340  142.1050 C   0  0  0  0  0  3  0  0  0  0  0  0
  183.8110  178.9040  143.0170 C   0  0  0  0  0  0  0  0  0  0  0  0
  182.9820  178.6970  140.3420 C   0  0  0  0  0  0  0  0  0  0  0  0
  184.3340  179.0310  144.3960 C   0  0  0  0  0  0  0  0  0  0  0  0
  184.6450  180.1720  144.8380 O   0  0  0  0  0  0  0  0  0  0  0  0
  184.4610  177.8890  145.2490 N   0  0  0  0  0  2  0  0  0  0  0  0
  184.8720  177.9960  146.5850 N   0  0  0  0  0  2  0  0  0  0  0  0
  186.0320  178.8740  146.6150 C   0  0  0  0  0  2  0  0  0  0  0  0
  187.9990  177.9350  145.3690 C   0  0  0  0  0  2  0  0  0  0  0  0
  189.8350  177.0110  147.2650 C   0  0  1  0  0  3  0  0  0  0  0  0
  189.4050  178.2340  147.9080 N   0  0  0  0  0  0  0  0  0  0  0  0
  188.2380  178.7260  147.6900 C   0  0  0  0  0  3  0  0  0  0  0  0
  189.6560  177.1290  145.4400 S   0  0  0  0  0  0  0  0  0  0  0  0
  187.3070  178.0600  146.7270 C   0  0  1  0  0  3  0  0  0  0  0  0
  191.5390  175.2310  147.5240 C   0  0  0  0  0  2  0  0  0  0  0  0
  191.9990  176.1540  146.4160 C   0  0  0  0  0  2  0  0  0  0  0  0
  191.2810  176.7220  147.6260 C   0  0  0  0  0  3  0  0  0  0  0  0
  1  2  1  6  0  0  0
  1 21  1  0  0  0  0
  1 38  1  0  0  0  0
  2  3  1  0  0  0  0
  4  3  1  0  0  0  0
  4  5  1  0  0  0  0
  6  5  1  0  0  0  0
  7 20  1  6  0  0  0
  8  9  1  6  0  0  0
  8 10  1  0  0  0  0
  8  6  1  0  0  0  0
  8  7  1  0  0  0  0
 10 11  1  6  0  0  0
 10  7  1  0  0  0  0
 13 17  1  0  0  0  0
 13 15  1  0  0  0  0
 14 12  1  0  0  0  0
 15 12  1  0  0  0  0
 16 18  1  0  0  0  0
 16 13  1  0  0  0  0
 17 19  2  0  0  0  0
 18 14  1  0  0  0  0
 20 17  1  0  0  0  0
 22 21  1  0  0  0  0
 23 22  1  0  0  0  0
 24 27  1  0  0  0  0
 25 30  1  0  0  0  0
 25 32  1  0  0  0  0
 27 23  1  0  0  0  0
 27 32  2  0  0  0  0
 28 30  2  0  0  0  0
 29 24  2  0  0  0  0
 29 25  1  0  0  0  0
 30 31  1  0  0  0  0
 31 26  1  0  0  0  0
 31 33  1  1  0  0  0
 32 26  1  0  0  0  0
 33 34  1  6  0  0  0
 33 35  1  0  0  0  0
 35 36  1  0  0  0  0
 36 37  1  0  0  0  0
 38 48  1  0  0  0  0
 39 47  1  0  0  0  0
 39 40  2  0  0  0  0
 41 40  1  0  0  0  0
 42 47  2  0  0  0  0
 43 39  1  0  0  0  0
 44 43  2  0  0  0  0
 44 46  1  0  0  0  0
 45 42  1  0  0  0  0
 46 41  2  0  0  0  0
 47 49  1  0  0  0  0
 48 45  2  0  0  0  0
 48 43  1  0  0  0  0
 49 50  2  0  0  0  0
 49 51  1  0  0  0  0
 51 52  1  0  0  0  0
 52 53  1  0  0  0  0
 54 58  1  0  0  0  0
 54 59  1  0  0  0  0
 55 62  1  6  0  0  0
 55 56  1  0  0  0  0
 57 56  2  0  0  0  0
 58 55  1  0  0  0  0
 59 53  1  6  0  0  0
 59 57  1  0  0  0  0
 60 62  1  0  0  0  0
 61 60  1  0  0  0  0
 61 62  1  0  0  0  0
M  END
>  <MODEL>
9

>  <REMARK>
 VINA RESULT:      -5.6      3.316      8.085
  Name = 
  21 active torsions:
  status: ('A' for Active; 'I' for Inactive)
    1  A    between atoms: C_2  and  C_40
    2  A    between atoms: C_2  and  S_58
    3  A    between atoms: C_3  and  C_55
    4  A    between atoms: C_6  and  C_39
    5  A    between atoms: C_6  and  C_49
    6  A    between atoms: N_8  and  C_25
    7  A    between atoms: N_8  and  C_57
    8  A    between atoms: N_10  and  C_41
    9  A    between atoms: N_10  and  N_50
   10  A    between atoms: C_11  and  N_53
   11  A    between atoms: N_13  and  C_25
   12  A    between atoms: N_13  and  C_35
   13  A    between atoms: C_14  and  C_34
   14  A    between atoms: C_25  and  C_59
   15  A    between atoms: C_27  and  C_51
   16  A    between atoms: C_30  and  C_49
   17  A    between atoms: C_31  and  C_48
   18  A    between atoms: C_35  and  C_51
   19  A    between atoms: C_40  and  C_59
   20  A    between atoms: C_41  and  C_60
   21  A    between atoms: C_48  and  S_58
                            x       y       z     vdW  Elec       q    Type
                         _______ _______ _______ _____ _____    ______ ____

>  <TORSDO>
F 21

$$$$
