=
 OpenBabel10222421233D

 40 41  0  0  1  0  0  0  0  0999 V2000
  188.5160  178.5670  140.6080 C   0  0  1  0  0  3  0  0  0  0  0  0
  188.9030  176.4200  143.4700 C   0  0  0  0  0  3  0  0  0  0  0  0
  188.4200  176.6770  142.2400 N   0  0  0  0  0  0  0  0  0  0  0  0
  189.6430  177.5020  143.8960 C   0  0  2  0  0  3  0  0  0  0  0  0
  189.6400  178.4640  142.9100 C   0  0  0  0  0  3  0  0  0  0  0  0
  188.8710  177.9020  141.9060 C   0  0  0  0  0  0  0  0  0  0  0  0
  190.3740  177.5940  145.1920 C   0  0  0  0  0  2  0  0  0  0  0  0
  192.1150  176.5880  146.4880 O   0  0  0  0  0  1  0  0  0  0  0  0
  191.5840  176.6750  145.1990 C   0  0  0  0  0  2  0  0  0  0  0  0
  188.9720  178.3080  138.1980 C   0  0  0  0  0  0  0  0  0  0  0  0
  186.9140  178.3040  137.0100 O   0  0  0  0  0  1  0  0  0  0  0  0
  189.1990  178.2130  136.6930 C   0  0  0  0  0  2  0  0  0  0  0  0
  188.1070  179.0090  137.1530 C   0  0  2  0  0  3  0  0  0  0  0  0
  189.2890  178.0010  139.4560 C   0  0  0  0  0  0  0  0  0  0  0  0
  190.3920  177.1360  139.7380 N   0  0  0  0  0  2  0  0  0  0  0  0
  190.5290  175.8800  139.1230 N   0  0  0  0  0  2  0  0  0  0  0  0
  192.8660  176.5800  138.8240 C   0  0  0  0  0  1  0  0  0  0  0  0
  191.6470  175.9320  138.1820 C   0  0  1  0  0  3  0  0  0  0  0  0
  190.5170  174.7010  135.8590 O   0  0  0  0  0  0  0  0  0  0  0  0
  191.9700  174.5990  137.6880 N   0  0  0  0  0  2  0  0  0  0  0  0
  191.3900  174.0570  136.4990 C   0  0  0  0  0  0  0  0  0  0  0  0
  191.8440  172.7310  135.9980 C   0  0  0  0  0  2  0  0  0  0  0  0
  193.3580  172.7100  135.9220 C   0  0  0  0  0  2  0  0  0  0  0  0
  193.8550  171.4670  136.4860 N   0  0  0  0  0  2  0  0  0  0  0  0
  195.6440  172.4870  137.5900 O   0  0  0  0  0  0  0  0  0  0  0  0
  195.0100  171.4310  137.3220 C   0  0  0  0  0  0  0  0  0  0  0  0
  195.4720  170.1360  137.8850 C   0  0  0  0  0  1  0  0  0  0  0  0
  187.0820  178.5140  140.3430 N   0  0  0  0  0  2  0  0  0  0  0  0
  186.4500  179.3440  141.2820 N   0  0  0  0  0  2  0  0  0  0  0  0
  185.0140  179.2230  141.0770 C   0  0  1  0  0  3  0  0  0  0  0  0
  184.7120  178.9000  139.6180 C   0  0  0  0  0  2  0  0  0  0  0  0
  184.2260  180.0850  138.9370 N   0  0  0  0  0  1  0  0  0  0  0  0
  184.4320  178.1710  142.0200 C   0  0  0  0  0  2  0  0  0  0  0  0
  185.2460  178.0390  143.3030 C   0  0  0  0  0  2  0  0  0  0  0  0
  183.0160  178.9390  144.1210 C   0  0  0  0  0  1  0  0  0  0  0  0
  184.4300  178.5140  144.4980 C   0  0  2  0  0  3  0  0  0  0  0  0
  185.1230  179.4360  145.3210 O   0  0  0  0  0  0  0  0  0  0  0  0
  187.1600  178.0170  146.5640 O   0  0  0  0  0  0  0  0  0  0  0  0
  185.9380  179.9370  147.7050 O   0  0  0  0  0  1  0  0  0  0  0  0
  185.6350  178.7360  146.8190 S   0  0  1  0  0  0  0  0  0  0  0  0
  1 14  1  6  0  0  0
  1  6  1  0  0  0  0
  2  4  1  0  0  0  0
  3  2  2  0  0  0  0
  4  7  1  6  0  0  0
  5  4  1  0  0  0  0
  6  3  1  0  0  0  0
  6  5  2  0  0  0  0
  7  9  1  0  0  0  0
  9  8  1  0  0  0  0
 10 14  2  0  0  0  0
 12 13  1  0  0  0  0
 12 10  1  0  0  0  0
 13 11  1  6  0  0  0
 13 10  1  0  0  0  0
 14 15  1  0  0  0  0
 16 15  1  0  0  0  0
 18 17  1  1  0  0  0
 18 16  1  0  0  0  0
 19 21  2  0  0  0  0
 20 18  1  0  0  0  0
 21 20  1  0  0  0  0
 22 21  1  0  0  0  0
 23 22  1  0  0  0  0
 23 24  1  0  0  0  0
 24 26  1  0  0  0  0
 26 25  2  0  0  0  0
 26 27  1  0  0  0  0
 28  1  1  0  0  0  0
 28 29  1  0  0  0  0
 30 31  1  6  0  0  0
 30 29  1  0  0  0  0
 30 33  1  0  0  0  0
 32 31  1  0  0  0  0
 33 34  1  0  0  0  0
 34 36  1  0  0  0  0
 36 35  1  6  0  0  0
 36 37  1  0  0  0  0
 37 40  1  0  0  0  0
 40 38  2  6  0  0  0
 40 39  1  0  0  0  0
M  END
>  <MODEL>
1

>  <REMARK>
 VINA RESULT:      -6.8      0.000      0.000
  Name = 
  20 active torsions:
  status: ('A' for Active; 'I' for Inactive)
    1  A    between atoms: N_2  and  C_22
    2  A    between atoms: C_4  and  C_27
    3  A    between atoms: C_4  and  C_33
    4  A    between atoms: C_5  and  C_14
    5  A    between atoms: C_5  and  C_28
    6  A    between atoms: C_6  and  N_18
    7  A    between atoms: C_6  and  C_37
    8  A    between atoms: C_6  and  C_40
    9  A    between atoms: C_11  and  N_12
   10  A    between atoms: C_11  and  N_34
   11  A    between atoms: C_14  and  O_20
   12  A    between atoms: C_16  and  C_21
   13  A    between atoms: C_16  and  C_28
   14  A    between atoms: C_16  and  N_30
   15  A    between atoms: N_18  and  N_30
   16  A    between atoms: S_19  and  O_20
   17  A    between atoms: C_22  and  C_26
   18  A    between atoms: C_25  and  C_26
   19  A    between atoms: N_31  and  N_34
   20  A    between atoms: N_31  and  C_37
                            x       y       z     vdW  Elec       q    Type
                         _______ _______ _______ _____ _____    ______ ____

>  <TORSDO>
F 20

$$$$
=
 OpenBabel10222421233D

 40 41  0  0  1  0  0  0  0  0999 V2000
  187.8960  178.5110  140.8170 C   0  0  1  0  0  3  0  0  0  0  0  0
  189.2530  178.6910  137.4900 C   0  0  0  0  0  3  0  0  0  0  0  0
  188.8590  179.2680  138.6390 N   0  0  0  0  0  2  0  0  0  0  0  0
  189.0670  177.3280  137.5860 C   0  0  0  0  0  0  0  0  0  0  0  0
  188.5540  177.0320  138.8290 C   0  0  0  0  0  3  0  0  0  0  0  0
  188.4470  178.2670  139.4430 C   0  0  0  0  0  0  0  0  0  0  0  0
  189.4150  176.3300  136.5340 C   0  0  0  0  0  2  0  0  0  0  0  0
  187.3950  175.9300  135.3160 O   0  0  0  0  0  1  0  0  0  0  0  0
  188.6260  176.5870  135.2610 C   0  0  0  0  0  2  0  0  0  0  0  0
  185.7220  178.8320  141.9380 C   0  0  0  0  0  0  0  0  0  0  0  0
  185.6970  177.5920  143.9640 O   0  0  0  0  0  1  0  0  0  0  0  0
  184.4200  179.0440  142.7040 C   0  0  0  0  0  2  0  0  0  0  0  0
  185.6210  178.8890  143.4600 C   0  0  2  0  0  3  0  0  0  0  0  0
  186.4080  178.6940  140.8030 C   0  0  0  0  0  0  0  0  0  0  0  0
  185.7430  178.7380  139.5390 N   0  0  0  0  0  2  0  0  0  0  0  0
  184.8130  179.7430  139.2220 N   0  0  0  0  0  2  0  0  0  0  0  0
  182.4470  180.1890  138.7270 C   0  0  0  0  0  1  0  0  0  0  0  0
  183.4890  179.1380  139.0860 C   0  0  1  0  0  3  0  0  0  0  0  0
  182.6660  176.4360  139.5420 O   0  0  0  0  0  0  0  0  0  0  0  0
  183.5080  178.0690  138.0950 N   0  0  0  0  0  2  0  0  0  0  0  0
  183.0510  176.7450  138.3820 C   0  0  0  0  0  0  0  0  0  0  0  0
  183.0030  175.7320  137.2940 C   0  0  0  0  0  2  0  0  0  0  0  0
  184.3140  174.9720  137.2480 C   0  0  0  0  0  2  0  0  0  0  0  0
  184.0670  173.5620  137.4940 N   0  0  0  0  0  2  0  0  0  0  0  0
  183.8180  173.0390  135.2310 O   0  0  0  0  0  0  0  0  0  0  0  0
  183.8300  172.6450  136.4280 C   0  0  0  0  0  0  0  0  0  0  0  0
  183.5940  171.2090  136.7300 C   0  0  0  0  0  1  0  0  0  0  0  0
  188.2770  177.4570  141.7520 N   0  0  0  0  0  2  0  0  0  0  0  0
  189.4740  177.8550  142.3690 N   0  0  0  0  0  2  0  0  0  0  0  0
  190.4520  176.7990  142.1490 C   0  0  1  0  0  3  0  0  0  0  0  0
  191.7830  177.3940  141.7050 C   0  0  0  0  0  2  0  0  0  0  0  0
  191.8670  177.3950  140.2560 N   0  0  0  0  0  1  0  0  0  0  0  0
  190.6040  175.9500  143.4110 C   0  0  0  0  0  2  0  0  0  0  0  0
  191.6580  176.5140  144.3570 C   0  0  0  0  0  2  0  0  0  0  0  0
  191.6920  176.3630  146.8910 C   0  0  0  0  0  1  0  0  0  0  0  0
  191.0140  176.9570  145.6630 C   0  0  2  0  0  3  0  0  0  0  0  0
  189.6020  176.8480  145.6590 O   0  0  0  0  0  0  0  0  0  0  0  0
  187.3650  178.2520  146.5190 O   0  0  0  0  0  0  0  0  0  0  0  0
  188.4980  176.4740  147.9480 O   0  0  0  0  0  1  0  0  0  0  0  0
  188.8700  177.6240  147.0210 S   0  0  1  0  0  0  0  0  0  0  0  0
  1 14  1  6  0  0  0
  1 28  1  0  0  0  0
  2  4  2  0  0  0  0
  2  3  1  0  0  0  0
  3  6  1  0  0  0  0
  4  5  1  0  0  0  0
  5  6  2  0  0  0  0
  6  1  1  0  0  0  0
  7  4  1  0  0  0  0
  9  8  1  0  0  0  0
  9  7  1  0  0  0  0
 10 12  1  0  0  0  0
 10 13  1  0  0  0  0
 12 13  1  0  0  0  0
 13 11  1  1  0  0  0
 14 10  2  0  0  0  0
 15 14  1  0  0  0  0
 16 15  1  0  0  0  0
 18 17  1  6  0  0  0
 18 16  1  0  0  0  0
 20 21  1  0  0  0  0
 20 18  1  0  0  0  0
 21 19  2  0  0  0  0
 22 21  1  0  0  0  0
 23 22  1  0  0  0  0
 23 24  1  0  0  0  0
 25 26  2  0  0  0  0
 26 27  1  0  0  0  0
 26 24  1  0  0  0  0
 28 29  1  0  0  0  0
 30 31  1  1  0  0  0
 30 29  1  0  0  0  0
 30 33  1  0  0  0  0
 32 31  1  0  0  0  0
 33 34  1  0  0  0  0
 34 36  1  0  0  0  0
 36 35  1  1  0  0  0
 37 36  1  0  0  0  0
 37 40  1  0  0  0  0
 40 38  2  6  0  0  0
 40 39  1  0  0  0  0
M  END
>  <MODEL>
2

>  <REMARK>
 VINA RESULT:      -6.4      3.387      7.618
  Name = 
  20 active torsions:
  status: ('A' for Active; 'I' for Inactive)
    1  A    between atoms: N_2  and  C_22
    2  A    between atoms: C_4  and  C_27
    3  A    between atoms: C_4  and  C_33
    4  A    between atoms: C_5  and  C_14
    5  A    between atoms: C_5  and  C_28
    6  A    between atoms: C_6  and  N_18
    7  A    between atoms: C_6  and  C_37
    8  A    between atoms: C_6  and  C_40
    9  A    between atoms: C_11  and  N_12
   10  A    between atoms: C_11  and  N_34
   11  A    between atoms: C_14  and  O_20
   12  A    between atoms: C_16  and  C_21
   13  A    between atoms: C_16  and  C_28
   14  A    between atoms: C_16  and  N_30
   15  A    between atoms: N_18  and  N_30
   16  A    between atoms: S_19  and  O_20
   17  A    between atoms: C_22  and  C_26
   18  A    between atoms: C_25  and  C_26
   19  A    between atoms: N_31  and  N_34
   20  A    between atoms: N_31  and  C_37
                            x       y       z     vdW  Elec       q    Type
                         _______ _______ _______ _____ _____    ______ ____

>  <TORSDO>
F 20

$$$$
=
 OpenBabel10222421233D

 40 41  0  0  1  0  0  0  0  0999 V2000
  188.0850  178.6410  140.5940 C   0  0  1  0  0  3  0  0  0  0  0  0
  188.2120  176.5810  143.5420 C   0  0  0  0  0  3  0  0  0  0  0  0
  187.8170  176.8130  142.2760 N   0  0  0  0  0  0  0  0  0  0  0  0
  188.9620  177.6520  143.9800 C   0  0  2  0  0  3  0  0  0  0  0  0
  189.0550  178.5790  142.9660 C   0  0  0  0  0  3  0  0  0  0  0  0
  188.3330  178.0100  141.9330 C   0  0  0  0  0  0  0  0  0  0  0  0
  189.6110  177.7640  145.3180 C   0  0  0  0  0  2  0  0  0  0  0  0
  191.7560  177.1110  144.4840 O   0  0  0  0  0  1  0  0  0  0  0  0
  190.7820  176.8010  145.4340 C   0  0  0  0  0  2  0  0  0  0  0  0
  190.0360  177.3530  139.8070 C   0  0  1  0  0  3  0  0  0  0  0  0
  191.9160  177.8800  141.1610 O   0  0  0  0  0  1  0  0  0  0  0  0
  191.2580  176.5360  139.4030 C   0  0  0  0  0  2  0  0  0  0  0  0
  191.0810  176.8280  140.7890 C   0  0  2  0  0  3  0  0  0  0  0  0
  188.9190  178.0190  139.5150 C   0  0  0  0  0  0  0  0  0  0  0  0
  188.4760  178.1410  138.1620 N   0  0  0  0  0  0  0  0  0  0  0  0
  189.1420  177.5040  137.1000 N   0  0  0  0  0  2  0  0  0  0  0  0
  188.3560  175.2360  136.5690 C   0  0  0  0  0  1  0  0  0  0  0  0
  188.1720  176.7280  136.3290 C   0  0  1  0  0  3  0  0  0  0  0  0
  185.8940  176.3960  134.6300 O   0  0  0  0  0  0  0  0  0  0  0  0
  186.8100  177.1390  136.6490 N   0  0  0  0  0  2  0  0  0  0  0  0
  185.7100  176.9130  135.7640 C   0  0  0  0  0  0  0  0  0  0  0  0
  184.3320  177.2650  136.2000 C   0  0  0  0  0  2  0  0  0  0  0  0
  183.4870  176.0080  136.2720 C   0  0  0  0  0  2  0  0  0  0  0  0
  184.0940  175.0680  137.1980 N   0  0  0  0  0  2  0  0  0  0  0  0
  184.0920  173.3030  135.6670 O   0  0  0  0  0  0  0  0  0  0  0  0
  184.3750  173.7200  136.8220 C   0  0  0  0  0  0  0  0  0  0  0  0
  185.0080  172.8000  137.8010 C   0  0  0  0  0  1  0  0  0  0  0  0
  186.6710  178.6160  140.2330 N   0  0  0  0  0  2  0  0  0  0  0  0
  185.9940  179.4610  141.1260 N   0  0  0  0  0  2  0  0  0  0  0  0
  184.5720  179.1680  141.0130 C   0  0  1  0  0  3  0  0  0  0  0  0
  184.2500  178.6320  139.6230 C   0  0  0  0  0  2  0  0  0  0  0  0
  183.2810  177.5560  139.7170 N   0  0  0  0  0  1  0  0  0  0  0  0
  184.1460  178.1910  142.1080 C   0  0  0  0  0  2  0  0  0  0  0  0
  184.6770  178.5990  143.4780 C   0  0  0  0  0  2  0  0  0  0  0  0
  182.2160  178.9040  144.0260 C   0  0  0  0  0  1  0  0  0  0  0  0
  183.5850  178.4640  144.5300 C   0  0  2  0  0  3  0  0  0  0  0  0
  183.9480  179.0000  145.7900 O   0  0  0  0  0  0  0  0  0  0  0  0
  185.9720  179.8550  147.4900 O   0  0  0  0  0  1  0  0  0  0  0  0
  186.0000  177.5680  146.3720 O   0  0  0  0  0  0  0  0  0  0  0  0
  185.6610  179.0150  146.0380 S   0  0  1  0  0  0  0  0  0  0  0  0
  1 14  1  6  0  0  0
  1  6  1  0  0  0  0
  2  4  1  0  0  0  0
  3  2  2  0  0  0  0
  4  7  1  6  0  0  0
  5  4  1  0  0  0  0
  6  3  1  0  0  0  0
  6  5  2  0  0  0  0
  7  9  1  0  0  0  0
  8  9  1  0  0  0  0
 10 14  1  6  0  0  0
 10 13  1  0  0  0  0
 12 10  1  0  0  0  0
 12 13  1  0  0  0  0
 13 11  1  6  0  0  0
 15 14  2  0  0  0  0
 16 15  1  0  0  0  0
 18 17  1  1  0  0  0
 18 20  1  0  0  0  0
 18 16  1  0  0  0  0
 19 21  2  0  0  0  0
 21 22  1  0  0  0  0
 21 20  1  0  0  0  0
 22 23  1  0  0  0  0
 23 24  1  0  0  0  0
 25 26  2  0  0  0  0
 26 24  1  0  0  0  0
 26 27  1  0  0  0  0
 28  1  1  0  0  0  0
 28 29  1  0  0  0  0
 30 31  1  6  0  0  0
 30 29  1  0  0  0  0
 30 33  1  0  0  0  0
 31 32  1  0  0  0  0
 33 34  1  0  0  0  0
 34 36  1  0  0  0  0
 36 35  1  6  0  0  0
 36 37  1  0  0  0  0
 37 40  1  0  0  0  0
 40 39  2  1  0  0  0
 40 38  1  0  0  0  0
M  END
>  <MODEL>
3

>  <REMARK>
 VINA RESULT:      -6.4      3.117      4.874
  Name = 
  20 active torsions:
  status: ('A' for Active; 'I' for Inactive)
    1  A    between atoms: N_2  and  C_22
    2  A    between atoms: C_4  and  C_27
    3  A    between atoms: C_4  and  C_33
    4  A    between atoms: C_5  and  C_14
    5  A    between atoms: C_5  and  C_28
    6  A    between atoms: C_6  and  N_18
    7  A    between atoms: C_6  and  C_37
    8  A    between atoms: C_6  and  C_40
    9  A    between atoms: C_11  and  N_12
   10  A    between atoms: C_11  and  N_34
   11  A    between atoms: C_14  and  O_20
   12  A    between atoms: C_16  and  C_21
   13  A    between atoms: C_16  and  C_28
   14  A    between atoms: C_16  and  N_30
   15  A    between atoms: N_18  and  N_30
   16  A    between atoms: S_19  and  O_20
   17  A    between atoms: C_22  and  C_26
   18  A    between atoms: C_25  and  C_26
   19  A    between atoms: N_31  and  N_34
   20  A    between atoms: N_31  and  C_37
                            x       y       z     vdW  Elec       q    Type
                         _______ _______ _______ _____ _____    ______ ____

>  <TORSDO>
F 20

$$$$
=
 OpenBabel10222421233D

 40 41  0  0  1  0  0  0  0  0999 V2000
  188.0570  178.5460  141.3350 C   0  0  1  0  0  3  0  0  0  0  0  0
  189.5040  176.3680  143.8060 C   0  0  0  0  0  3  0  0  0  0  0  0
  188.6460  176.6080  142.7980 N   0  0  0  0  0  0  0  0  0  0  0  0
  190.2320  177.5120  144.0570 C   0  0  2  0  0  3  0  0  0  0  0  0
  189.8350  178.4970  143.1810 C   0  0  0  0  0  3  0  0  0  0  0  0
  188.8540  177.8860  142.4210 C   0  0  0  0  0  0  0  0  0  0  0  0
  191.3110  177.6450  145.0780 C   0  0  0  0  0  2  0  0  0  0  0  0
  192.1410  176.5750  147.0500 O   0  0  0  0  0  1  0  0  0  0  0  0
  191.5150  176.3370  145.8250 C   0  0  0  0  0  2  0  0  0  0  0  0
  189.6510  177.4490  139.8050 C   0  0  0  0  0  0  0  0  0  0  0  0
  191.8570  177.7360  140.6390 O   0  0  0  0  0  1  0  0  0  0  0  0
  190.6750  176.7350  138.9280 C   0  0  0  0  0  2  0  0  0  0  0  0
  190.9070  176.7630  140.3360 C   0  0  2  0  0  3  0  0  0  0  0  0
  188.5260  178.1450  139.9690 C   0  0  0  0  0  0  0  0  0  0  0  0
  187.7260  178.5120  138.8430 N   0  0  0  0  0  2  0  0  0  0  0  0
  188.2970  178.9200  137.6250 N   0  0  0  0  0  2  0  0  0  0  0  0
  188.7860  177.3350  135.8110 C   0  0  0  0  0  1  0  0  0  0  0  0
  187.7140  178.1330  136.5400 C   0  0  1  0  0  3  0  0  0  0  0  0
  185.3560  177.3660  135.1110 O   0  0  0  0  0  0  0  0  0  0  0  0
  186.6660  177.2530  137.0440 N   0  0  0  0  0  2  0  0  0  0  0  0
  185.5280  176.8840  136.2620 C   0  0  0  0  0  0  0  0  0  0  0  0
  184.5520  175.9000  136.8030 C   0  0  0  0  0  2  0  0  0  0  0  0
  183.2810  176.6170  137.2110 C   0  0  0  0  0  2  0  0  0  0  0  0
  182.7100  175.9670  138.3780 N   0  0  0  0  0  2  0  0  0  0  0  0
  180.5310  176.6710  137.9120 O   0  0  0  0  0  0  0  0  0  0  0  0
  181.3140  176.0330  138.6660 C   0  0  0  0  0  0  0  0  0  0  0  0
  180.7760  175.3410  139.8660 C   0  0  0  0  0  1  0  0  0  0  0  0
  186.6260  178.3000  141.4820 N   0  0  0  0  0  2  0  0  0  0  0  0
  186.0340  179.5000  141.9050 N   0  0  0  0  0  2  0  0  0  0  0  0
  185.0360  179.1640  142.9110 C   0  0  1  0  0  3  0  0  0  0  0  0
  183.7680  178.6430  142.2450 C   0  0  0  0  0  2  0  0  0  0  0  0
  182.6230  178.8780  143.1050 N   0  0  0  0  0  1  0  0  0  0  0  0
  185.6080  178.1560  143.9070 C   0  0  0  0  0  2  0  0  0  0  0  0
  186.3870  178.8360  145.0270 C   0  0  0  0  0  2  0  0  0  0  0  0
  184.5300  178.2150  146.6440 C   0  0  0  0  0  1  0  0  0  0  0  0
  186.0290  178.2170  146.3720 C   0  0  2  0  0  3  0  0  0  0  0  0
  186.8220  178.6990  147.4420 O   0  0  0  0  0  0  0  0  0  0  0  0
  189.0450  178.1480  149.0120 O   0  0  0  0  0  1  0  0  0  0  0  0
  188.2220  176.5590  147.2020 O   0  0  0  0  0  0  0  0  0  0  0  0
  188.4270  178.0510  147.4260 S   0  0  1  0  0  0  0  0  0  0  0  0
  1 14  1  6  0  0  0
  1 28  1  0  0  0  0
  1  6  1  0  0  0  0
  2  4  1  0  0  0  0
  3  2  2  0  0  0  0
  4  7  1  6  0  0  0
  5  4  1  0  0  0  0
  6  3  1  0  0  0  0
  6  5  2  0  0  0  0
  7  9  1  0  0  0  0
  9  8  1  0  0  0  0
 10 14  2  0  0  0  0
 10 13  1  0  0  0  0
 12 10  1  0  0  0  0
 12 13  1  0  0  0  0
 13 11  1  6  0  0  0
 15 14  1  0  0  0  0
 16 15  1  0  0  0  0
 18 17  1  1  0  0  0
 18 20  1  0  0  0  0
 18 16  1  0  0  0  0
 19 21  2  0  0  0  0
 21 22  1  0  0  0  0
 21 20  1  0  0  0  0
 22 23  1  0  0  0  0
 23 24  1  0  0  0  0
 24 26  1  0  0  0  0
 25 26  2  0  0  0  0
 26 27  1  0  0  0  0
 28 29  1  0  0  0  0
 29 30  1  0  0  0  0
 30 31  1  6  0  0  0
 30 33  1  0  0  0  0
 31 32  1  0  0  0  0
 33 34  1  0  0  0  0
 34 36  1  0  0  0  0
 36 35  1  1  0  0  0
 36 37  1  0  0  0  0
 40 39  2  1  0  0  0
 40 37  1  0  0  0  0
 40 38  1  0  0  0  0
M  END
>  <MODEL>
4

>  <REMARK>
 VINA RESULT:      -6.3      3.516      5.924
  Name = 
  20 active torsions:
  status: ('A' for Active; 'I' for Inactive)
    1  A    between atoms: N_2  and  C_22
    2  A    between atoms: C_4  and  C_27
    3  A    between atoms: C_4  and  C_33
    4  A    between atoms: C_5  and  C_14
    5  A    between atoms: C_5  and  C_28
    6  A    between atoms: C_6  and  N_18
    7  A    between atoms: C_6  and  C_37
    8  A    between atoms: C_6  and  C_40
    9  A    between atoms: C_11  and  N_12
   10  A    between atoms: C_11  and  N_34
   11  A    between atoms: C_14  and  O_20
   12  A    between atoms: C_16  and  C_21
   13  A    between atoms: C_16  and  C_28
   14  A    between atoms: C_16  and  N_30
   15  A    between atoms: N_18  and  N_30
   16  A    between atoms: S_19  and  O_20
   17  A    between atoms: C_22  and  C_26
   18  A    between atoms: C_25  and  C_26
   19  A    between atoms: N_31  and  N_34
   20  A    between atoms: N_31  and  C_37
                            x       y       z     vdW  Elec       q    Type
                         _______ _______ _______ _____ _____    ______ ____

>  <TORSDO>
F 20

$$$$
=
 OpenBabel10222421233D

 40 41  0  0  1  0  0  0  0  0999 V2000
  185.5790  178.3120  140.1800 C   0  0  1  0  0  3  0  0  0  0  0  0
  182.9370  180.2680  138.7170 C   0  0  0  0  0  3  0  0  0  0  0  0
  184.1220  180.1620  139.3460 N   0  0  0  0  0  2  0  0  0  0  0  0
  182.4380  179.0030  138.4860 C   0  0  0  0  0  0  0  0  0  0  0  0
  183.3320  178.0730  138.9680 C   0  0  0  0  0  3  0  0  0  0  0  0
  184.3580  178.8430  139.4880 C   0  0  0  0  0  0  0  0  0  0  0  0
  181.1620  178.6910  137.7790 C   0  0  0  0  0  2  0  0  0  0  0  0
  180.2200  179.2950  135.6650 O   0  0  0  0  0  1  0  0  0  0  0  0
  181.3500  178.7440  136.2720 C   0  0  0  0  0  2  0  0  0  0  0  0
  187.9960  178.0320  139.7750 C   0  0  1  0  0  3  0  0  0  0  0  0
  189.1900  178.6130  141.7450 O   0  0  0  0  0  1  0  0  0  0  0  0
  189.4950  177.8170  139.5990 C   0  0  0  0  0  2  0  0  0  0  0  0
  188.9290  177.5500  140.8820 C   0  0  2  0  0  3  0  0  0  0  0  0
  186.7960  178.3820  139.3090 C   0  0  0  0  0  0  0  0  0  0  0  0
  186.6380  178.8170  137.9570 N   0  0  0  0  0  0  0  0  0  0  0  0
  187.7010  178.7920  137.0380 N   0  0  0  0  0  2  0  0  0  0  0  0
  187.3340  177.9900  134.7440 C   0  0  0  0  0  1  0  0  0  0  0  0
  187.5720  177.6030  136.1970 C   0  0  1  0  0  3  0  0  0  0  0  0
  187.6370  175.0180  137.4220 O   0  0  0  0  0  0  0  0  0  0  0  0
  188.7510  176.7530  136.3190 N   0  0  0  0  0  2  0  0  0  0  0  0
  188.7050  175.4550  136.9160 C   0  0  0  0  0  0  0  0  0  0  0  0
  189.9230  174.6010  136.9130 C   0  0  0  0  0  2  0  0  0  0  0  0
  191.1570  175.4770  136.8270 C   0  0  0  0  0  2  0  0  0  0  0  0
  192.3280  174.7060  137.2050 N   0  0  0  0  0  2  0  0  0  0  0  0
  193.5670  176.5830  137.8390 O   0  0  0  0  0  0  0  0  0  0  0  0
  193.5060  175.3300  137.7120 C   0  0  0  0  0  0  0  0  0  0  0  0
  194.6740  174.4950  138.0970 C   0  0  0  0  0  1  0  0  0  0  0  0
  185.8160  178.9810  141.4550 N   0  0  0  0  0  2  0  0  0  0  0  0
  185.6090  178.0360  142.4710 N   0  0  0  0  0  2  0  0  0  0  0  0
  185.3730  178.7670  143.7080 C   0  0  1  0  0  3  0  0  0  0  0  0
  183.8790  178.8490  143.9990 C   0  0  0  0  0  2  0  0  0  0  0  0
  183.6600  179.0610  145.4180 N   0  0  0  0  0  1  0  0  0  0  0  0
  186.1390  178.1170  144.8600 C   0  0  0  0  0  2  0  0  0  0  0  0
  187.3180  177.2850  144.3670 C   0  0  0  0  0  2  0  0  0  0  0  0
  188.0080  177.5190  146.7990 C   0  0  0  0  0  1  0  0  0  0  0  0
  188.4720  177.3640  145.3560 C   0  0  2  0  0  3  0  0  0  0  0  0
  189.4890  178.2680  144.9630 O   0  0  0  0  0  0  0  0  0  0  0  0
  191.4260  176.7150  146.2070 O   0  0  0  0  0  1  0  0  0  0  0  0
  190.7240  176.3470  143.7870 O   0  0  0  0  0  0  0  0  0  0  0  0
  191.0210  177.4940  144.7440 S   0  0  1  0  0  0  0  0  0  0  0  0
  1 14  1  6  0  0  0
  1 28  1  0  0  0  0
  2  3  1  0  0  0  0
  3  6  1  0  0  0  0
  4  2  2  0  0  0  0
  4  5  1  0  0  0  0
  5  6  2  0  0  0  0
  6  1  1  0  0  0  0
  7  4  1  0  0  0  0
  8  9  1  0  0  0  0
  9  7  1  0  0  0  0
 10 14  1  1  0  0  0
 10 13  1  0  0  0  0
 12 10  1  0  0  0  0
 12 13  1  0  0  0  0
 13 11  1  1  0  0  0
 15 14  2  0  0  0  0
 16 15  1  0  0  0  0
 18 17  1  6  0  0  0
 18 20  1  0  0  0  0
 18 16  1  0  0  0  0
 20 21  1  0  0  0  0
 21 19  2  0  0  0  0
 22 21  1  0  0  0  0
 23 22  1  0  0  0  0
 23 24  1  0  0  0  0
 24 26  1  0  0  0  0
 26 25  2  0  0  0  0
 26 27  1  0  0  0  0
 28 29  1  0  0  0  0
 29 30  1  0  0  0  0
 30 31  1  1  0  0  0
 30 33  1  0  0  0  0
 31 32  1  0  0  0  0
 34 33  1  0  0  0  0
 34 36  1  0  0  0  0
 36 35  1  1  0  0  0
 37 36  1  0  0  0  0
 40 39  2  6  0  0  0
 40 37  1  0  0  0  0
 40 38  1  0  0  0  0
M  END
>  <MODEL>
5

>  <REMARK>
 VINA RESULT:      -6.2      2.882      6.047
  Name = 
  20 active torsions:
  status: ('A' for Active; 'I' for Inactive)
    1  A    between atoms: N_2  and  C_22
    2  A    between atoms: C_4  and  C_27
    3  A    between atoms: C_4  and  C_33
    4  A    between atoms: C_5  and  C_14
    5  A    between atoms: C_5  and  C_28
    6  A    between atoms: C_6  and  N_18
    7  A    between atoms: C_6  and  C_37
    8  A    between atoms: C_6  and  C_40
    9  A    between atoms: C_11  and  N_12
   10  A    between atoms: C_11  and  N_34
   11  A    between atoms: C_14  and  O_20
   12  A    between atoms: C_16  and  C_21
   13  A    between atoms: C_16  and  C_28
   14  A    between atoms: C_16  and  N_30
   15  A    between atoms: N_18  and  N_30
   16  A    between atoms: S_19  and  O_20
   17  A    between atoms: C_22  and  C_26
   18  A    between atoms: C_25  and  C_26
   19  A    between atoms: N_31  and  N_34
   20  A    between atoms: N_31  and  C_37
                            x       y       z     vdW  Elec       q    Type
                         _______ _______ _______ _____ _____    ______ ____

>  <TORSDO>
F 20

$$$$
=
 OpenBabel10222421233D

 40 41  0  0  1  0  0  0  0  0999 V2000
  185.2490  179.0210  142.1680 C   0  0  1  0  0  3  0  0  0  0  0  0
  184.0970  179.3180  138.7720 C   0  0  0  0  0  3  0  0  0  0  0  0
  184.7770  179.7840  139.8360 N   0  0  0  0  0  2  0  0  0  0  0  0
  183.5430  178.0980  139.0940 C   0  0  0  0  0  0  0  0  0  0  0  0
  183.8860  177.7760  140.3880 C   0  0  0  0  0  3  0  0  0  0  0  0
  184.6530  178.8510  140.8010 C   0  0  0  0  0  0  0  0  0  0  0  0
  182.7430  177.2400  138.1730 C   0  0  0  0  0  2  0  0  0  0  0  0
  180.9950  175.8970  139.1020 O   0  0  0  0  0  1  0  0  0  0  0  0
  181.2920  177.1720  138.6170 C   0  0  0  0  0  2  0  0  0  0  0  0
  184.6020  178.7800  144.5360 C   0  0  0  0  0  0  0  0  0  0  0  0
  186.3170  177.6190  145.7000 O   0  0  0  0  0  1  0  0  0  0  0  0
  184.2810  178.6580  146.0220 C   0  0  0  0  0  2  0  0  0  0  0  0
  185.6470  178.8390  145.6480 C   0  0  2  0  0  3  0  0  0  0  0  0
  184.2380  178.8060  143.2540 C   0  0  0  0  0  0  0  0  0  0  0  0
  182.8670  178.6470  142.8830 N   0  0  0  0  0  2  0  0  0  0  0  0
  181.8180  179.1370  143.6800 N   0  0  0  0  0  2  0  0  0  0  0  0
  179.4430  178.8440  144.2360 C   0  0  0  0  0  1  0  0  0  0  0  0
  180.5760  178.4730  143.2900 C   0  0  1  0  0  3  0  0  0  0  0  0
  179.7500  181.0460  142.3470 O   0  0  0  0  0  0  0  0  0  0  0  0
  180.2260  178.7980  141.9120 N   0  0  0  0  0  2  0  0  0  0  0  0
  179.8520  180.1160  141.5030 C   0  0  0  0  0  0  0  0  0  0  0  0
  179.6080  180.3970  140.0620 C   0  0  0  0  0  2  0  0  0  0  0  0
  180.9080  180.8100  139.4000 C   0  0  0  0  0  2  0  0  0  0  0  0
  180.7690  180.7130  137.9570 N   0  0  0  0  0  2  0  0  0  0  0  0
  180.5650  183.0210  137.6540 O   0  0  0  0  0  0  0  0  0  0  0  0
  180.6050  181.8710  137.1390 C   0  0  0  0  0  0  0  0  0  0  0  0
  180.4800  181.7200  135.6660 C   0  0  0  0  0  1  0  0  0  0  0  0
  186.4110  178.1600  142.3660 N   0  0  0  0  0  2  0  0  0  0  0  0
  187.4280  178.6270  141.5200 N   0  0  0  0  0  2  0  0  0  0  0  0
  188.3630  177.5290  141.3130 C   0  0  1  0  0  3  0  0  0  0  0  0
  189.4290  177.9260  140.2980 C   0  0  0  0  0  2  0  0  0  0  0  0
  188.8450  178.7600  139.2640 N   0  0  0  0  0  1  0  0  0  0  0  0
  188.9800  177.1030  142.6450 C   0  0  0  0  0  2  0  0  0  0  0  0
  190.4620  177.4500  142.7260 C   0  0  0  0  0  2  0  0  0  0  0  0
  191.2110  179.5040  144.0200 C   0  0  0  0  0  1  0  0  0  0  0  0
  190.7930  178.0400  144.0910 C   0  0  2  0  0  3  0  0  0  0  0  0
  191.6490  177.2190  144.8650 O   0  0  0  0  0  0  0  0  0  0  0  0
  191.9330  177.0470  147.6220 O   0  0  0  0  0  1  0  0  0  0  0  0
  189.7110  177.5970  146.5080 O   0  0  0  0  0  0  0  0  0  0  0  0
  190.8990  176.6630  146.3220 S   0  0  1  0  0  0  0  0  0  0  0  0
  1 28  1  1  0  0  0
  1 14  1  0  0  0  0
  2  4  2  0  0  0  0
  2  3  1  0  0  0  0
  3  6  1  0  0  0  0
  4  5  1  0  0  0  0
  5  6  2  0  0  0  0
  6  1  1  0  0  0  0
  7  9  1  0  0  0  0
  7  4  1  0  0  0  0
  9  8  1  0  0  0  0
 10 13  1  0  0  0  0
 10 12  1  0  0  0  0
 13 11  1  6  0  0  0
 13 12  1  0  0  0  0
 14 10  2  0  0  0  0
 15 14  1  0  0  0  0
 15 16  1  0  0  0  0
 18 16  1  0  0  0  0
 18 17  1  1  0  0  0
 20 18  1  0  0  0  0
 21 20  1  0  0  0  0
 21 19  2  0  0  0  0
 22 21  1  0  0  0  0
 23 22  1  0  0  0  0
 24 23  1  0  0  0  0
 26 25  2  0  0  0  0
 26 24  1  0  0  0  0
 27 26  1  0  0  0  0
 29 28  1  0  0  0  0
 30 31  1  6  0  0  0
 30 29  1  0  0  0  0
 30 33  1  0  0  0  0
 32 31  1  0  0  0  0
 33 34  1  0  0  0  0
 34 36  1  0  0  0  0
 36 35  1  6  0  0  0
 36 37  1  0  0  0  0
 37 40  1  0  0  0  0
 40 39  2  1  0  0  0
 40 38  1  0  0  0  0
M  END
>  <MODEL>
6

>  <REMARK>
 VINA RESULT:      -6.2      4.546     10.268
  Name = 
  20 active torsions:
  status: ('A' for Active; 'I' for Inactive)
    1  A    between atoms: N_2  and  C_22
    2  A    between atoms: C_4  and  C_27
    3  A    between atoms: C_4  and  C_33
    4  A    between atoms: C_5  and  C_14
    5  A    between atoms: C_5  and  C_28
    6  A    between atoms: C_6  and  N_18
    7  A    between atoms: C_6  and  C_37
    8  A    between atoms: C_6  and  C_40
    9  A    between atoms: C_11  and  N_12
   10  A    between atoms: C_11  and  N_34
   11  A    between atoms: C_14  and  O_20
   12  A    between atoms: C_16  and  C_21
   13  A    between atoms: C_16  and  C_28
   14  A    between atoms: C_16  and  N_30
   15  A    between atoms: N_18  and  N_30
   16  A    between atoms: S_19  and  O_20
   17  A    between atoms: C_22  and  C_26
   18  A    between atoms: C_25  and  C_26
   19  A    between atoms: N_31  and  N_34
   20  A    between atoms: N_31  and  C_37
                            x       y       z     vdW  Elec       q    Type
                         _______ _______ _______ _____ _____    ______ ____

>  <TORSDO>
F 20

$$$$
=
 OpenBabel10222421233D

 40 41  0  0  1  0  0  0  0  0999 V2000
  190.3970  177.3000  140.0430 C   0  0  1  0  0  3  0  0  0  0  0  0
  191.1100  174.8060  137.5490 C   0  0  0  0  0  3  0  0  0  0  0  0
  190.3870  175.2710  138.5840 N   0  0  0  0  0  2  0  0  0  0  0  0
  192.0930  175.7230  137.2410 C   0  0  0  0  0  0  0  0  0  0  0  0
  191.9850  176.7990  138.0940 C   0  0  0  0  0  3  0  0  0  0  0  0
  190.9120  176.4710  138.9030 C   0  0  0  0  0  0  0  0  0  0  0  0
  193.0800  175.5940  136.1310 C   0  0  0  0  0  2  0  0  0  0  0  0
  193.6430  173.4660  135.1960 O   0  0  0  0  0  1  0  0  0  0  0  0
  192.6830  174.4790  135.1780 C   0  0  0  0  0  2  0  0  0  0  0  0
  188.4370  177.8980  138.6700 C   0  0  0  0  0  0  0  0  0  0  0  0
  189.1350  179.2970  136.8800 O   0  0  0  0  0  1  0  0  0  0  0  0
  187.2710  178.2480  137.7510 C   0  0  0  0  0  2  0  0  0  0  0  0
  188.5560  178.0600  137.1560 C   0  0  2  0  0  3  0  0  0  0  0  0
  188.9490  177.6500  139.8750 C   0  0  0  0  0  0  0  0  0  0  0  0
  188.1230  177.6950  141.0410 N   0  0  0  0  0  2  0  0  0  0  0  0
  187.4930  178.8780  141.4620 N   0  0  0  0  0  2  0  0  0  0  0  0
  185.5480  179.0880  142.9500 C   0  0  0  0  0  1  0  0  0  0  0  0
  186.0580  178.6320  141.5900 C   0  0  1  0  0  3  0  0  0  0  0  0
  183.4190  177.9450  140.7210 O   0  0  0  0  0  0  0  0  0  0  0  0
  185.3230  179.2890  140.5150 N   0  0  0  0  0  2  0  0  0  0  0  0
  183.9910  178.9140  140.1530 C   0  0  0  0  0  0  0  0  0  0  0  0
  183.2640  179.6960  139.1170 C   0  0  0  0  0  2  0  0  0  0  0  0
  182.6560  178.7500  138.1010 C   0  0  0  0  0  2  0  0  0  0  0  0
  183.6890  177.8770  137.5710 N   0  0  0  0  0  2  0  0  0  0  0  0
  182.4340  177.2490  135.7030 O   0  0  0  0  0  0  0  0  0  0  0  0
  183.5100  177.1550  136.3530 C   0  0  0  0  0  0  0  0  0  0  0  0
  184.6020  176.2850  135.8460 C   0  0  0  0  0  1  0  0  0  0  0  0
  190.6260  176.6550  141.3320 N   0  0  0  0  0  2  0  0  0  0  0  0
  191.7110  177.3050  141.9400 N   0  0  0  0  0  2  0  0  0  0  0  0
  191.3420  177.5710  143.3240 C   0  0  1  0  0  3  0  0  0  0  0  0
  190.8820  179.0160  143.4820 C   0  0  0  0  0  2  0  0  0  0  0  0
  191.8020  179.7380  144.3400 N   0  0  0  0  0  1  0  0  0  0  0  0
  190.2700  176.5830  143.7840 C   0  0  0  0  0  2  0  0  0  0  0  0
  189.1660  177.2660  144.5820 C   0  0  0  0  0  2  0  0  0  0  0  0
  188.1780  177.5010  146.9100 C   0  0  0  0  0  1  0  0  0  0  0  0
  189.3460  176.9980  146.0700 C   0  0  2  0  0  3  0  0  0  0  0  0
  190.6240  177.3650  146.5570 O   0  0  0  0  0  0  0  0  0  0  0  0
  192.4220  175.2790  146.1990 O   0  0  0  0  0  0  0  0  0  0  0  0
  192.4270  176.7470  148.2790 O   0  0  0  0  0  1  0  0  0  0  0  0
  191.4350  176.0590  147.3510 S   0  0  1  0  0  0  0  0  0  0  0  0
  1 14  1  6  0  0  0
  1 28  1  0  0  0  0
  2  3  1  0  0  0  0
  3  6  1  0  0  0  0
  4  2  2  0  0  0  0
  4  5  1  0  0  0  0
  5  6  2  0  0  0  0
  6  1  1  0  0  0  0
  7  4  1  0  0  0  0
  9  8  1  0  0  0  0
  9  7  1  0  0  0  0
 10 14  2  0  0  0  0
 12 10  1  0  0  0  0
 13 11  1  1  0  0  0
 13 12  1  0  0  0  0
 13 10  1  0  0  0  0
 14 15  1  0  0  0  0
 15 16  1  0  0  0  0
 16 18  1  0  0  0  0
 18 17  1  1  0  0  0
 20 18  1  0  0  0  0
 21 20  1  0  0  0  0
 21 19  2  0  0  0  0
 22 21  1  0  0  0  0
 23 22  1  0  0  0  0
 24 23  1  0  0  0  0
 25 26  2  0  0  0  0
 26 24  1  0  0  0  0
 27 26  1  0  0  0  0
 28 29  1  0  0  0  0
 29 30  1  0  0  0  0
 30 31  1  6  0  0  0
 30 33  1  0  0  0  0
 31 32  1  0  0  0  0
 33 34  1  0  0  0  0
 34 36  1  0  0  0  0
 36 37  1  0  0  0  0
 36 35  1  1  0  0  0
 37 40  1  0  0  0  0
 40 38  2  6  0  0  0
 40 39  1  0  0  0  0
M  END
>  <MODEL>
7

>  <REMARK>
 VINA RESULT:      -6.1      2.699      7.767
  Name = 
  20 active torsions:
  status: ('A' for Active; 'I' for Inactive)
    1  A    between atoms: N_2  and  C_22
    2  A    between atoms: C_4  and  C_27
    3  A    between atoms: C_4  and  C_33
    4  A    between atoms: C_5  and  C_14
    5  A    between atoms: C_5  and  C_28
    6  A    between atoms: C_6  and  N_18
    7  A    between atoms: C_6  and  C_37
    8  A    between atoms: C_6  and  C_40
    9  A    between atoms: C_11  and  N_12
   10  A    between atoms: C_11  and  N_34
   11  A    between atoms: C_14  and  O_20
   12  A    between atoms: C_16  and  C_21
   13  A    between atoms: C_16  and  C_28
   14  A    between atoms: C_16  and  N_30
   15  A    between atoms: N_18  and  N_30
   16  A    between atoms: S_19  and  O_20
   17  A    between atoms: C_22  and  C_26
   18  A    between atoms: C_25  and  C_26
   19  A    between atoms: N_31  and  N_34
   20  A    between atoms: N_31  and  C_37
                            x       y       z     vdW  Elec       q    Type
                         _______ _______ _______ _____ _____    ______ ____

>  <TORSDO>
F 20

$$$$
=
 OpenBabel10222421233D

 40 41  0  0  1  0  0  0  0  0999 V2000
  188.3030  178.3670  140.8460 C   0  0  1  0  0  3  0  0  0  0  0  0
  189.3700  176.4240  143.6800 C   0  0  0  0  0  3  0  0  0  0  0  0
  188.6950  176.5570  142.5240 N   0  0  0  0  0  0  0  0  0  0  0  0
  189.9990  177.6150  143.9720 C   0  0  2  0  0  3  0  0  0  0  0  0
  189.7270  178.5220  142.9720 C   0  0  0  0  0  3  0  0  0  0  0  0
  188.9190  177.8160  142.0990 C   0  0  0  0  0  0  0  0  0  0  0  0
  190.8760  177.8650  145.1520 C   0  0  0  0  0  2  0  0  0  0  0  0
  191.9850  176.7290  146.9410 O   0  0  0  0  0  1  0  0  0  0  0  0
  191.5160  176.5750  145.6350 C   0  0  0  0  0  2  0  0  0  0  0  0
  190.0940  177.1760  139.6380 C   0  0  0  0  0  0  0  0  0  0  0  0
  192.2030  177.8800  140.4770 O   0  0  0  0  0  1  0  0  0  0  0  0
  191.2390  176.4230  138.9680 C   0  0  0  0  0  2  0  0  0  0  0  0
  191.3810  176.7620  140.3470 C   0  0  2  0  0  3  0  0  0  0  0  0
  188.8940  177.7550  139.6120 C   0  0  0  0  0  0  0  0  0  0  0  0
  188.1290  177.7900  138.4050 N   0  0  0  0  0  2  0  0  0  0  0  0
  188.6180  178.3870  137.2300 N   0  0  0  0  0  2  0  0  0  0  0  0
  187.5000  178.1580  135.0540 C   0  0  0  0  0  1  0  0  0  0  0  0
  188.3740  177.4870  136.1040 C   0  0  1  0  0  3  0  0  0  0  0  0
  189.4830  174.8620  136.3650 O   0  0  0  0  0  0  0  0  0  0  0  0
  189.6320  177.0380  135.5200 N   0  0  0  0  0  2  0  0  0  0  0  0
  190.1120  175.6990  135.6640 C   0  0  0  0  0  0  0  0  0  0  0  0
  191.3520  175.2820  134.9530 C   0  0  0  0  0  2  0  0  0  0  0  0
  192.2690  174.5570  135.9170 C   0  0  0  0  0  2  0  0  0  0  0  0
  193.6400  174.6450  135.4430 N   0  0  0  0  0  2  0  0  0  0  0  0
  194.3180  176.0790  137.1590 O   0  0  0  0  0  0  0  0  0  0  0  0
  194.6200  175.4280  136.1220 C   0  0  0  0  0  0  0  0  0  0  0  0
  196.0120  175.4760  135.6040 C   0  0  0  0  0  1  0  0  0  0  0  0
  186.8500  178.2270  140.8470 N   0  0  0  0  0  2  0  0  0  0  0  0
  186.3130  179.4260  141.3410 N   0  0  0  0  0  2  0  0  0  0  0  0
  185.1800  179.0810  142.1880 C   0  0  1  0  0  3  0  0  0  0  0  0
  184.1250  178.3310  141.3830 C   0  0  0  0  0  2  0  0  0  0  0  0
  183.6590  179.1560  140.2840 N   0  0  0  0  0  1  0  0  0  0  0  0
  185.6510  178.2720  143.3960 C   0  0  0  0  0  2  0  0  0  0  0  0
  185.3860  178.9980  144.7100 C   0  0  0  0  0  2  0  0  0  0  0  0
  185.0170  178.2540  147.1100 C   0  0  0  0  0  1  0  0  0  0  0  0
  185.9150  178.1820  145.8810 C   0  0  2  0  0  3  0  0  0  0  0  0
  187.2900  178.4000  146.1420 O   0  0  0  0  0  0  0  0  0  0  0  0
  188.3420  176.2800  147.5960 O   0  0  0  0  0  0  0  0  0  0  0  0
  189.0040  178.7000  148.0330 O   0  0  0  0  0  1  0  0  0  0  0  0
  187.7590  177.8780  147.7240 S   0  0  1  0  0  0  0  0  0  0  0  0
  1 14  1  6  0  0  0
  1 28  1  0  0  0  0
  1  6  1  0  0  0  0
  2  4  1  0  0  0  0
  3  2  2  0  0  0  0
  4  7  1  6  0  0  0
  5  4  1  0  0  0  0
  6  3  1  0  0  0  0
  6  5  2  0  0  0  0
  7  9  1  0  0  0  0
  9  8  1  0  0  0  0
 10 13  1  0  0  0  0
 12 10  1  0  0  0  0
 12 13  1  0  0  0  0
 13 11  1  6  0  0  0
 14 10  2  0  0  0  0
 15 14  1  0  0  0  0
 16 15  1  0  0  0  0
 18 17  1  6  0  0  0
 18 16  1  0  0  0  0
 20 21  1  0  0  0  0
 20 18  1  0  0  0  0
 21 19  2  0  0  0  0
 22 21  1  0  0  0  0
 22 23  1  0  0  0  0
 24 23  1  0  0  0  0
 24 26  1  0  0  0  0
 26 25  2  0  0  0  0
 27 26  1  0  0  0  0
 28 29  1  0  0  0  0
 29 30  1  0  0  0  0
 30 31  1  6  0  0  0
 30 33  1  0  0  0  0
 32 31  1  0  0  0  0
 33 34  1  0  0  0  0
 34 36  1  0  0  0  0
 36 37  1  0  0  0  0
 36 35  1  1  0  0  0
 37 40  1  0  0  0  0
 40 38  2  6  0  0  0
 40 39  1  0  0  0  0
M  END
>  <MODEL>
8

>  <REMARK>
 VINA RESULT:      -6.1      2.115      2.928
  Name = 
  20 active torsions:
  status: ('A' for Active; 'I' for Inactive)
    1  A    between atoms: N_2  and  C_22
    2  A    between atoms: C_4  and  C_27
    3  A    between atoms: C_4  and  C_33
    4  A    between atoms: C_5  and  C_14
    5  A    between atoms: C_5  and  C_28
    6  A    between atoms: C_6  and  N_18
    7  A    between atoms: C_6  and  C_37
    8  A    between atoms: C_6  and  C_40
    9  A    between atoms: C_11  and  N_12
   10  A    between atoms: C_11  and  N_34
   11  A    between atoms: C_14  and  O_20
   12  A    between atoms: C_16  and  C_21
   13  A    between atoms: C_16  and  C_28
   14  A    between atoms: C_16  and  N_30
   15  A    between atoms: N_18  and  N_30
   16  A    between atoms: S_19  and  O_20
   17  A    between atoms: C_22  and  C_26
   18  A    between atoms: C_25  and  C_26
   19  A    between atoms: N_31  and  N_34
   20  A    between atoms: N_31  and  C_37
                            x       y       z     vdW  Elec       q    Type
                         _______ _______ _______ _____ _____    ______ ____

>  <TORSDO>
F 20

$$$$
=
 OpenBabel10222421233D

 40 41  0  0  1  0  0  0  0  0999 V2000
  183.9340  178.4860  140.2550 C   0  0  1  0  0  3  0  0  0  0  0  0
  180.4790  179.3990  139.8360 C   0  0  0  0  0  3  0  0  0  0  0  0
  181.4410  178.6210  140.3650 N   0  0  0  0  0  2  0  0  0  0  0  0
  181.0660  180.3610  139.0430 C   0  0  0  0  0  0  0  0  0  0  0  0
  182.4330  180.1980  139.0770 C   0  0  0  0  0  3  0  0  0  0  0  0
  182.6130  179.1100  139.9120 C   0  0  0  0  0  0  0  0  0  0  0  0
  180.3420  181.4380  138.3080 C   0  0  0  0  0  2  0  0  0  0  0  0
  181.2480  183.5190  137.5530 O   0  0  0  0  0  1  0  0  0  0  0  0
  181.2650  182.1410  137.3270 C   0  0  0  0  0  2  0  0  0  0  0  0
  184.1550  177.3290  138.0870 C   0  0  0  0  0  0  0  0  0  0  0  0
  182.9560  175.2800  138.1700 O   0  0  0  0  0  1  0  0  0  0  0  0
  184.2070  176.6010  136.7480 C   0  0  0  0  0  2  0  0  0  0  0  0
  183.0040  176.5070  137.5120 C   0  0  2  0  0  3  0  0  0  0  0  0
  184.7060  178.0920  139.0320 C   0  0  0  0  0  0  0  0  0  0  0  0
  186.0450  178.5720  138.8910 N   0  0  0  0  0  2  0  0  0  0  0  0
  186.6080  178.8520  137.6340 N   0  0  0  0  0  2  0  0  0  0  0  0
  188.4000  178.2370  136.0690 C   0  0  0  0  0  1  0  0  0  0  0  0
  187.7240  177.9370  137.4000 C   0  0  1  0  0  3  0  0  0  0  0  0
  189.5860  175.8810  138.1000 O   0  0  0  0  0  0  0  0  0  0  0  0
  188.6850  178.0020  138.4950 N   0  0  0  0  0  2  0  0  0  0  0  0
  189.6110  176.9480  138.7700 C   0  0  0  0  0  0  0  0  0  0  0  0
  190.6320  177.1270  139.8370 C   0  0  0  0  0  2  0  0  0  0  0  0
  189.9460  177.4920  141.1380 C   0  0  0  0  0  2  0  0  0  0  0  0
  190.4200  176.6200  142.1990 N   0  0  0  0  0  2  0  0  0  0  0  0
  191.5610  178.3230  143.3190 O   0  0  0  0  0  0  0  0  0  0  0  0
  191.2260  177.1090  143.2690 C   0  0  0  0  0  0  0  0  0  0  0  0
  191.6760  176.1780  144.3370 C   0  0  0  0  0  1  0  0  0  0  0  0
  184.7370  179.3490  141.1160 N   0  0  0  0  0  2  0  0  0  0  0  0
  184.9300  178.6690  142.3280 N   0  0  0  0  0  2  0  0  0  0  0  0
  184.4220  179.5210  143.3940 C   0  0  1  0  0  3  0  0  0  0  0  0
  182.9450  179.2360  143.6410 C   0  0  0  0  0  2  0  0  0  0  0  0
  182.7640  178.6570  144.9590 N   0  0  0  0  0  1  0  0  0  0  0  0
  185.2540  179.3340  144.6620 C   0  0  0  0  0  2  0  0  0  0  0  0
  186.1430  178.0980  144.5870 C   0  0  0  0  0  2  0  0  0  0  0  0
  185.8320  178.3640  147.0930 C   0  0  0  0  0  1  0  0  0  0  0  0
  186.6420  177.7210  145.9750 C   0  0  2  0  0  3  0  0  0  0  0  0
  188.0460  177.8410  146.1200 O   0  0  0  0  0  0  0  0  0  0  0  0
  190.0460  176.3840  147.3790 O   0  0  0  0  0  0  0  0  0  0  0  0
  189.0790  178.5190  148.3720 O   0  0  0  0  0  1  0  0  0  0  0  0
  188.6100  177.2630  147.6500 S   0  0  1  0  0  0  0  0  0  0  0  0
  1 14  1  6  0  0  0
  1 28  1  0  0  0  0
  2  3  1  0  0  0  0
  4  5  1  0  0  0  0
  4  2  2  0  0  0  0
  5  6  2  0  0  0  0
  6  1  1  0  0  0  0
  6  3  1  0  0  0  0
  7  4  1  0  0  0  0
  9  8  1  0  0  0  0
  9  7  1  0  0  0  0
 10 14  2  0  0  0  0
 12 13  1  0  0  0  0
 12 10  1  0  0  0  0
 13 10  1  0  0  0  0
 13 11  1  1  0  0  0
 15 14  1  0  0  0  0
 16 15  1  0  0  0  0
 18 17  1  6  0  0  0
 18 16  1  0  0  0  0
 18 20  1  0  0  0  0
 19 21  2  0  0  0  0
 20 21  1  0  0  0  0
 21 22  1  0  0  0  0
 22 23  1  0  0  0  0
 23 24  1  0  0  0  0
 24 26  1  0  0  0  0
 26 25  2  0  0  0  0
 26 27  1  0  0  0  0
 28 29  1  0  0  0  0
 29 30  1  0  0  0  0
 30 31  1  1  0  0  0
 30 33  1  0  0  0  0
 31 32  1  0  0  0  0
 34 33  1  0  0  0  0
 34 36  1  0  0  0  0
 36 37  1  0  0  0  0
 36 35  1  1  0  0  0
 37 40  1  0  0  0  0
 40 38  2  6  0  0  0
 40 39  1  0  0  0  0
M  END
>  <MODEL>
9

>  <REMARK>
 VINA RESULT:      -6.1      3.565      6.819
  Name = 
  20 active torsions:
  status: ('A' for Active; 'I' for Inactive)
    1  A    between atoms: N_2  and  C_22
    2  A    between atoms: C_4  and  C_27
    3  A    between atoms: C_4  and  C_33
    4  A    between atoms: C_5  and  C_14
    5  A    between atoms: C_5  and  C_28
    6  A    between atoms: C_6  and  N_18
    7  A    between atoms: C_6  and  C_37
    8  A    between atoms: C_6  and  C_40
    9  A    between atoms: C_11  and  N_12
   10  A    between atoms: C_11  and  N_34
   11  A    between atoms: C_14  and  O_20
   12  A    between atoms: C_16  and  C_21
   13  A    between atoms: C_16  and  C_28
   14  A    between atoms: C_16  and  N_30
   15  A    between atoms: N_18  and  N_30
   16  A    between atoms: S_19  and  O_20
   17  A    between atoms: C_22  and  C_26
   18  A    between atoms: C_25  and  C_26
   19  A    between atoms: N_31  and  N_34
   20  A    between atoms: N_31  and  C_37
                            x       y       z     vdW  Elec       q    Type
                         _______ _______ _______ _____ _____    ______ ____

>  <TORSDO>
F 20

$$$$
