=
 OpenBabel10222417493D

 53 55  0  0  1  0  0  0  0  0999 V2000
  190.4900  176.1290  142.1640 C   0  0  0  0  0  2  0  0  0  0  0  0
  189.4950  177.1860  135.8150 N   0  0  0  0  0  2  0  0  0  0  0  0
  189.7290  178.1310  144.1860 C   0  0  0  0  0  3  0  0  0  0  0  0
  188.3550  178.6710  137.3450 C   0  0  0  0  0  0  0  0  0  0  0  0
  191.9420  175.3310  143.8720 O   0  0  0  0  0  0  0  0  0  0  0  0
  191.1150  176.4760  138.2880 C   0  0  0  0  0  3  0  0  0  0  0  0
  187.5310  179.1820  136.5410 O   0  0  0  0  0  0  0  0  0  0  0  0
  189.0140  178.1400  142.8640 C   0  0  1  0  0  3  0  0  0  0  0  0
  190.6530  177.2210  144.5130 C   0  0  0  0  0  0  0  0  0  0  0  0
  189.4580  177.8090  136.9470 C   0  0  0  0  0  0  0  0  0  0  0  0
  191.0830  176.1900  143.5410 C   0  0  0  0  0  0  0  0  0  0  0  0
  190.1000  177.3400  138.1720 C   0  0  0  0  0  0  0  0  0  0  0  0
  188.2880  178.8510  138.8270 C   0  0  0  0  0  2  0  0  0  0  0  0
  189.6200  177.7030  140.5540 C   0  0  0  0  0  0  0  0  0  0  0  0
  189.4180  177.9890  139.2950 C   0  0  0  0  0  0  0  0  0  0  0  0
  189.8050  177.4130  141.8110 C   0  0  0  0  0  0  0  0  0  0  0  0
  192.2960  173.9080  135.9400 C   0  0  1  0  0  3  0  0  0  0  0  0
  193.5120  174.4290  136.6840 C   0  0  2  0  0  3  0  0  0  0  0  0
  191.8110  175.8460  137.1210 C   0  0  1  0  0  3  0  0  0  0  0  0
  193.1580  175.5760  137.4260 O   0  0  0  0  0  0  0  0  0  0  0  0
  190.7350  173.7920  137.7400 O   0  0  0  0  0  1  0  0  0  0  0  0
  192.2320  172.5140  136.0160 O   0  0  0  0  0  1  0  0  0  0  0  0
  191.1460  174.5680  136.6480 C   0  0  2  0  0  3  0  0  0  0  0  0
  194.8630  176.0910  135.3760 C   0  0  0  0  0  3  0  0  0  0  0  0
  195.8110  176.3690  134.5940 O   0  0  0  0  0  0  0  0  0  0  0  0
  194.5990  174.7350  135.7610 N   0  0  0  0  0  0  0  0  0  0  0  0
  195.4680  173.6530  135.3200 C   0  0  0  0  0  2  0  0  0  0  0  0
  196.4990  173.3270  136.3910 C   0  0  0  0  0  2  0  0  0  0  0  0
  197.7010  172.9420  135.7970 O   0  0  0  0  0  1  0  0  0  0  0  0
  186.5750  178.3090  143.1190 C   0  0  0  0  0  3  0  0  0  0  0  0
  187.6550  177.5320  143.0300 C   0  0  0  0  0  3  0  0  0  0  0  0
  185.2220  177.7010  143.2850 C   0  0  0  0  0  2  0  0  0  0  0  0
  184.2630  178.2590  142.2440 C   0  0  0  0  0  2  0  0  0  0  0  0
  180.6750  179.5070  143.0610 C   0  0  0  0  0  1  0  0  0  0  0  0
  183.1120  178.9610  142.8980 C   0  0  0  0  0  0  0  0  0  0  0  0
  181.7890  178.8970  142.3410 N   0  0  0  0  0  0  0  0  0  0  0  0
  183.3190  179.5930  143.9690 O   0  0  0  0  0  0  0  0  0  0  0  0
  180.1570  177.6640  140.9510 C   0  0  0  0  0  1  0  0  0  0  0  0
  181.5630  178.2410  141.0510 C   0  0  1  0  0  3  0  0  0  0  0  0
  181.9240  179.1490  139.8720 C   0  0  0  0  0  2  0  0  0  0  0  0
  184.6640  179.9000  139.2430 O   0  0  0  0  0  1  0  0  0  0  0  0
  184.7510  178.1390  137.7740 O   0  0  0  0  0  0  0  0  0  0  0  0
  182.7240  178.4510  138.8730 N   0  0  0  0  0  2  0  0  0  0  0  0
  184.0810  178.8090  138.6040 C   0  0  0  0  0  0  0  0  0  0  0  0
  191.2580  177.2750  145.8810 C   0  0  0  0  0  2  0  0  0  0  0  0
  190.3390  176.6200  146.9100 C   0  0  1  0  0  3  0  0  0  0  0  0
  192.5640  175.7770  147.7780 C   0  0  0  0  0  1  0  0  0  0  0  0
  191.0680  175.5190  147.6780 C   0  0  0  0  0  2  0  0  0  0  0  0
  189.7400  177.6570  147.8570 C   0  0  0  0  0  2  0  0  0  0  0  0
  188.2600  177.3820  148.1000 C   0  0  0  0  0  2  0  0  0  0  0  0
  187.4330  177.5720  146.8360 C   0  0  0  0  0  2  0  0  0  0  0  0
  185.1230  178.1340  146.8390 O   0  0  0  0  0  1  0  0  0  0  0  0
  186.3970  178.6640  147.0360 C   0  0  0  0  0  2  0  0  0  0  0  0
  1 11  1  0  0  0  0
  2 10  2  0  0  0  0
  3  9  2  0  0  0  0
  4 13  1  0  0  0  0
  7  4  2  0  0  0  0
  8 31  1  1  0  0  0
  8  3  1  0  0  0  0
  9 45  1  0  0  0  0
 10  4  1  0  0  0  0
 10 12  1  0  0  0  0
 11  5  2  0  0  0  0
 11  9  1  0  0  0  0
 12  6  2  0  0  0  0
 12 15  1  0  0  0  0
 13 15  1  0  0  0  0
 14 16  2  0  0  0  0
 15 14  2  0  0  0  0
 16  1  1  0  0  0  0
 16  8  1  0  0  0  0
 17 22  1  1  0  0  0
 17 23  1  0  0  0  0
 17 18  1  0  0  0  0
 18 26  1  6  0  0  0
 18 20  1  0  0  0  0
 19 20  1  0  0  0  0
 19  6  1  1  0  0  0
 23 19  1  0  0  0  0
 23 21  1  1  0  0  0
 24 26  1  0  0  0  0
 25 24  2  0  0  0  0
 27 26  1  0  0  0  0
 27 28  1  0  0  0  0
 29 28  1  0  0  0  0
 30 32  1  0  0  0  0
 31 30  2  0  0  0  0
 33 35  1  0  0  0  0
 33 32  1  0  0  0  0
 35 37  2  0  0  0  0
 36 35  1  0  0  0  0
 36 34  1  0  0  0  0
 39 38  1  6  0  0  0
 39 36  1  0  0  0  0
 40 39  1  0  0  0  0
 42 44  2  0  0  0  0
 43 40  1  0  0  0  0
 44 43  1  0  0  0  0
 44 41  1  0  0  0  0
 46 45  1  6  0  0  0
 46 48  1  0  0  0  0
 46 49  1  0  0  0  0
 48 47  1  0  0  0  0
 49 50  1  0  0  0  0
 51 53  1  0  0  0  0
 51 50  1  0  0  0  0
 52 53  1  0  0  0  0
M  END
>  <MODEL>
1

>  <REMARK>
 VINA RESULT:      -8.5      0.000      0.000
  Name = 
  18 active torsions:
  status: ('A' for Active; 'I' for Inactive)
    1  A    between atoms: C_1  and  C_47
    2  A    between atoms: C_1  and  N_48
    3  A    between atoms: C_6  and  C_16
    4  A    between atoms: C_6  and  C_26
    5  A    between atoms: C_9  and  C_41
    6  A    between atoms: C_9  and  C_44
    7  A    between atoms: C_9  and  C_50
    8  A    between atoms: C_12  and  N_48
    9  A    between atoms: C_14  and  C_19
   10  A    between atoms: C_16  and  C_18
   11  A    between atoms: C_17  and  C_22
   12  A    between atoms: C_20  and  N_27
   13  A    between atoms: C_20  and  C_31
   14  A    between atoms: C_21  and  C_50
   15  A    between atoms: C_30  and  C_38
   16  A    between atoms: C_31  and  N_42
   17  A    between atoms: C_38  and  C_51
   18  A    between atoms: C_44  and  C_51
                            x       y       z     vdW  Elec       q    Type
                         _______ _______ _______ _____ _____    ______ ____

>  <TORSDO>
F 18

$$$$
=
 OpenBabel10222417493D

 53 55  0  0  1  0  0  0  0  0999 V2000
  190.5060  176.1380  142.1210 C   0  0  0  0  0  2  0  0  0  0  0  0
  189.8990  176.8640  135.6770 N   0  0  0  0  0  2  0  0  0  0  0  0
  189.6540  178.2520  143.9860 C   0  0  0  0  0  3  0  0  0  0  0  0
  188.6900  178.4400  137.0570 C   0  0  0  0  0  0  0  0  0  0  0  0
  191.8440  175.4180  143.9520 O   0  0  0  0  0  0  0  0  0  0  0  0
  191.3610  176.2710  138.2760 C   0  0  0  0  0  3  0  0  0  0  0  0
  187.9230  178.9160  136.1790 O   0  0  0  0  0  0  0  0  0  0  0  0
  189.0170  178.1980  142.6250 C   0  0  1  0  0  3  0  0  0  0  0  0
  190.5450  177.3520  144.4150 C   0  0  0  0  0  0  0  0  0  0  0  0
  189.8040  177.5470  136.7710 C   0  0  0  0  0  0  0  0  0  0  0  0
  191.0170  176.2660  143.5260 C   0  0  0  0  0  0  0  0  0  0  0  0
  190.3660  177.1370  138.0540 C   0  0  0  0  0  0  0  0  0  0  0  0
  188.5400  178.7000  138.5200 C   0  0  0  0  0  2  0  0  0  0  0  0
  189.7520  177.6330  140.3820 C   0  0  0  0  0  0  0  0  0  0  0  0
  189.6290  177.8520  139.0990 C   0  0  0  0  0  0  0  0  0  0  0  0
  189.8600  177.4080  141.6610 C   0  0  0  0  0  0  0  0  0  0  0  0
  192.4930  173.6070  136.0130 C   0  0  1  0  0  3  0  0  0  0  0  0
  193.6580  173.9460  136.9240 C   0  0  2  0  0  3  0  0  0  0  0  0
  192.1160  175.5720  137.1870 C   0  0  1  0  0  3  0  0  0  0  0  0
  193.3640  175.1180  137.6530 O   0  0  0  0  0  0  0  0  0  0  0  0
  190.7070  173.6720  137.5910 O   0  0  0  0  0  1  0  0  0  0  0  0
  192.2370  172.2330  136.0310 O   0  0  0  0  0  1  0  0  0  0  0  0
  191.3570  174.4040  136.5890 C   0  0  2  0  0  3  0  0  0  0  0  0
  196.0720  173.3890  136.5150 C   0  0  0  0  0  3  0  0  0  0  0  0
  197.1350  173.5160  135.8510 O   0  0  0  0  0  0  0  0  0  0  0  0
  194.8890  174.1180  136.1600 N   0  0  0  0  0  0  0  0  0  0  0  0
  194.8650  174.9660  134.9760 C   0  0  0  0  0  2  0  0  0  0  0  0
  195.6650  176.2380  135.2140 C   0  0  0  0  0  2  0  0  0  0  0  0
  194.8530  177.2130  135.7940 O   0  0  0  0  0  1  0  0  0  0  0  0
  186.5700  178.3490  142.4500 C   0  0  0  0  0  3  0  0  0  0  0  0
  187.6430  177.6130  142.7420 C   0  0  0  0  0  3  0  0  0  0  0  0
  185.2020  177.7650  142.5660 C   0  0  0  0  0  2  0  0  0  0  0  0
  184.1510  178.8190  142.2540 C   0  0  0  0  0  2  0  0  0  0  0  0
  182.8350  179.1500  138.6130 C   0  0  0  0  0  1  0  0  0  0  0  0
  184.0820  179.0880  140.7810 C   0  0  0  0  0  0  0  0  0  0  0  0
  182.9020  178.7800  140.0230 N   0  0  0  0  0  0  0  0  0  0  0  0
  185.0780  179.6180  140.2170 O   0  0  0  0  0  0  0  0  0  0  0  0
  180.6130  179.0220  140.9280 C   0  0  0  0  0  1  0  0  0  0  0  0
  181.7810  178.0820  140.6570 C   0  0  1  0  0  3  0  0  0  0  0  0
  181.3730  176.8260  139.8810 C   0  0  0  0  0  2  0  0  0  0  0  0
  181.8340  175.6000  137.2840 O   0  0  0  0  0  0  0  0  0  0  0  0
  183.7780  174.7050  138.1120 O   0  0  0  0  0  1  0  0  0  0  0  0
  182.5140  175.9610  139.6080 N   0  0  0  0  0  2  0  0  0  0  0  0
  182.7470  175.3990  138.3160 C   0  0  0  0  0  0  0  0  0  0  0  0
  191.0700  177.4720  145.8120 C   0  0  0  0  0  2  0  0  0  0  0  0
  190.1650  176.7380  146.7990 C   0  0  1  0  0  3  0  0  0  0  0  0
  192.4220  175.7730  147.4260 C   0  0  0  0  0  1  0  0  0  0  0  0
  190.9130  175.5940  147.4840 C   0  0  0  0  0  2  0  0  0  0  0  0
  189.5630  177.6980  147.8190 C   0  0  0  0  0  2  0  0  0  0  0  0
  188.0450  177.5560  147.8730 C   0  0  0  0  0  2  0  0  0  0  0  0
  187.4000  177.8620  146.5290 C   0  0  0  0  0  2  0  0  0  0  0  0
  185.7430  179.4410  147.1730 O   0  0  0  0  0  1  0  0  0  0  0  0
  185.9170  178.1420  146.7000 C   0  0  0  0  0  2  0  0  0  0  0  0
  1 11  1  0  0  0  0
  2 10  2  0  0  0  0
  3  9  2  0  0  0  0
  4 13  1  0  0  0  0
  7  4  2  0  0  0  0
  8 31  1  1  0  0  0
  8  3  1  0  0  0  0
  9 45  1  0  0  0  0
 10  4  1  0  0  0  0
 10 12  1  0  0  0  0
 11  5  2  0  0  0  0
 11  9  1  0  0  0  0
 12  6  2  0  0  0  0
 12 15  1  0  0  0  0
 13 15  1  0  0  0  0
 14 16  2  0  0  0  0
 15 14  2  0  0  0  0
 16  1  1  0  0  0  0
 16  8  1  0  0  0  0
 17 22  1  1  0  0  0
 17 23  1  0  0  0  0
 17 18  1  0  0  0  0
 18 26  1  6  0  0  0
 18 20  1  0  0  0  0
 19 20  1  0  0  0  0
 19  6  1  1  0  0  0
 23 19  1  0  0  0  0
 23 21  1  1  0  0  0
 25 24  2  0  0  0  0
 26 24  1  0  0  0  0
 27 28  1  0  0  0  0
 27 26  1  0  0  0  0
 28 29  1  0  0  0  0
 30 32  1  0  0  0  0
 30 31  2  0  0  0  0
 33 32  1  0  0  0  0
 34 36  1  0  0  0  0
 35 33  1  0  0  0  0
 36 39  1  0  0  0  0
 36 35  1  0  0  0  0
 37 35  2  0  0  0  0
 39 38  1  6  0  0  0
 40 39  1  0  0  0  0
 41 44  2  0  0  0  0
 42 44  1  0  0  0  0
 43 40  1  0  0  0  0
 44 43  1  0  0  0  0
 46 45  1  6  0  0  0
 46 48  1  0  0  0  0
 46 49  1  0  0  0  0
 47 48  1  0  0  0  0
 49 50  1  0  0  0  0
 51 53  1  0  0  0  0
 51 50  1  0  0  0  0
 53 52  1  0  0  0  0
M  END
>  <MODEL>
2

>  <REMARK>
 VINA RESULT:      -8.3      1.191      1.915
  Name = 
  18 active torsions:
  status: ('A' for Active; 'I' for Inactive)
    1  A    between atoms: C_1  and  C_47
    2  A    between atoms: C_1  and  N_48
    3  A    between atoms: C_6  and  C_16
    4  A    between atoms: C_6  and  C_26
    5  A    between atoms: C_9  and  C_41
    6  A    between atoms: C_9  and  C_44
    7  A    between atoms: C_9  and  C_50
    8  A    between atoms: C_12  and  N_48
    9  A    between atoms: C_14  and  C_19
   10  A    between atoms: C_16  and  C_18
   11  A    between atoms: C_17  and  C_22
   12  A    between atoms: C_20  and  N_27
   13  A    between atoms: C_20  and  C_31
   14  A    between atoms: C_21  and  C_50
   15  A    between atoms: C_30  and  C_38
   16  A    between atoms: C_31  and  N_42
   17  A    between atoms: C_38  and  C_51
   18  A    between atoms: C_44  and  C_51
                            x       y       z     vdW  Elec       q    Type
                         _______ _______ _______ _____ _____    ______ ____

>  <TORSDO>
F 18

$$$$
=
 OpenBabel10222417493D

 53 55  0  0  1  0  0  0  0  0999 V2000
  190.0670  176.3180  141.5860 C   0  0  0  0  0  2  0  0  0  0  0  0
  190.1520  176.4190  135.0740 N   0  0  0  0  0  2  0  0  0  0  0  0
  189.0150  178.5890  143.1380 C   0  0  0  0  0  3  0  0  0  0  0  0
  188.7980  178.1030  136.1600 C   0  0  0  0  0  0  0  0  0  0  0  0
  191.2040  175.7930  143.6090 O   0  0  0  0  0  0  0  0  0  0  0  0
  191.3290  176.0940  137.8590 C   0  0  0  0  0  3  0  0  0  0  0  0
  188.1270  178.4830  135.1640 O   0  0  0  0  0  0  0  0  0  0  0  0
  188.5280  178.3970  141.7290 C   0  0  1  0  0  3  0  0  0  0  0  0
  189.8580  177.7450  143.7440 C   0  0  0  0  0  0  0  0  0  0  0  0
  189.9380  177.2010  136.0810 C   0  0  0  0  0  0  0  0  0  0  0  0
  190.4250  176.5860  143.0180 C   0  0  0  0  0  0  0  0  0  0  0  0
  190.3610  176.9230  137.4500 C   0  0  0  0  0  0  0  0  0  0  0  0
  188.4910  178.4990  137.5670 C   0  0  0  0  0  2  0  0  0  0  0  0
  189.5000  177.6300  139.6410 C   0  0  0  0  0  0  0  0  0  0  0  0
  189.5140  177.7250  138.3370 C   0  0  0  0  0  0  0  0  0  0  0  0
  189.4710  177.5300  140.9400 C   0  0  0  0  0  0  0  0  0  0  0  0
  192.6970  173.2440  135.9870 C   0  0  1  0  0  3  0  0  0  0  0  0
  193.7540  173.6730  136.9870 C   0  0  2  0  0  3  0  0  0  0  0  0
  192.1980  175.3050  136.9290 C   0  0  1  0  0  3  0  0  0  0  0  0
  193.3850  174.9040  137.5700 O   0  0  0  0  0  0  0  0  0  0  0  0
  190.7470  173.4400  137.3460 O   0  0  0  0  0  1  0  0  0  0  0  0
  192.4360  171.8760  136.1020 O   0  0  0  0  0  1  0  0  0  0  0  0
  191.5060  174.0820  136.3590 C   0  0  2  0  0  3  0  0  0  0  0  0
  195.3570  173.0360  135.1630 C   0  0  0  0  0  3  0  0  0  0  0  0
  196.4780  173.1380  134.5950 O   0  0  0  0  0  0  0  0  0  0  0  0
  195.0630  173.7840  136.3510 N   0  0  0  0  0  0  0  0  0  0  0  0
  196.0230  174.7370  136.8880 C   0  0  0  0  0  2  0  0  0  0  0  0
  196.8060  174.1170  138.0360 C   0  0  0  0  0  2  0  0  0  0  0  0
  196.4500  174.7250  139.2410 O   0  0  0  0  0  1  0  0  0  0  0  0
  186.1210  178.5210  142.2130 C   0  0  0  0  0  3  0  0  0  0  0  0
  187.1510  177.8080  141.7550 C   0  0  0  0  0  3  0  0  0  0  0  0
  184.7500  177.9330  142.2380 C   0  0  0  0  0  2  0  0  0  0  0  0
  183.7130  179.0000  141.9210 C   0  0  0  0  0  2  0  0  0  0  0  0
  182.3100  179.4340  138.3240 C   0  0  0  0  0  1  0  0  0  0  0  0
  183.6240  179.2400  140.4450 C   0  0  0  0  0  0  0  0  0  0  0  0
  182.3800  179.0920  139.7410 N   0  0  0  0  0  0  0  0  0  0  0  0
  184.6630  179.6020  139.8280 O   0  0  0  0  0  0  0  0  0  0  0  0
  180.4920  179.6820  141.2250 C   0  0  0  0  0  1  0  0  0  0  0  0
  181.1960  178.5850  140.4370 C   0  0  1  0  0  3  0  0  0  0  0  0
  180.2570  177.8250  139.4950 C   0  0  0  0  0  2  0  0  0  0  0  0
  181.5120  175.2370  139.0560 O   0  0  0  0  0  0  0  0  0  0  0  0
  179.9820  174.3120  140.4920 O   0  0  0  0  0  1  0  0  0  0  0  0
  179.7610  176.5940  140.0990 N   0  0  0  0  0  2  0  0  0  0  0  0
  180.4130  175.3380  139.9040 C   0  0  0  0  0  0  0  0  0  0  0  0
  190.2290  178.0050  145.1700 C   0  0  0  0  0  2  0  0  0  0  0  0
  189.4040  177.1350  146.1160 C   0  0  1  0  0  3  0  0  0  0  0  0
  191.3680  176.7460  147.6680 C   0  0  0  0  0  1  0  0  0  0  0  0
  189.9300  177.2260  147.5480 C   0  0  0  0  0  2  0  0  0  0  0  0
  187.9220  177.4890  146.0430 C   0  0  0  0  0  2  0  0  0  0  0  0
  187.4020  177.9390  147.4050 C   0  0  0  0  0  2  0  0  0  0  0  0
  186.2010  178.8660  147.2740 C   0  0  0  0  0  2  0  0  0  0  0  0
  184.4250  178.6240  145.7120 O   0  0  0  0  0  1  0  0  0  0  0  0
  185.7690  178.9770  145.8230 C   0  0  0  0  0  2  0  0  0  0  0  0
  1 11  1  0  0  0  0
  2 10  2  0  0  0  0
  3  9  2  0  0  0  0
  4 13  1  0  0  0  0
  7  4  2  0  0  0  0
  8 31  1  1  0  0  0
  8  3  1  0  0  0  0
  9 45  1  0  0  0  0
 10  4  1  0  0  0  0
 10 12  1  0  0  0  0
 11  5  2  0  0  0  0
 11  9  1  0  0  0  0
 12  6  2  0  0  0  0
 12 15  1  0  0  0  0
 13 15  1  0  0  0  0
 14 16  2  0  0  0  0
 15 14  2  0  0  0  0
 16  1  1  0  0  0  0
 16  8  1  0  0  0  0
 17 22  1  1  0  0  0
 17 23  1  0  0  0  0
 17 18  1  0  0  0  0
 18 26  1  6  0  0  0
 18 20  1  0  0  0  0
 19 20  1  0  0  0  0
 19  6  1  1  0  0  0
 23 19  1  0  0  0  0
 23 21  1  1  0  0  0
 24 26  1  0  0  0  0
 25 24  2  0  0  0  0
 26 27  1  0  0  0  0
 27 28  1  0  0  0  0
 28 29  1  0  0  0  0
 30 32  1  0  0  0  0
 31 30  2  0  0  0  0
 33 32  1  0  0  0  0
 34 36  1  0  0  0  0
 35 33  1  0  0  0  0
 36 39  1  0  0  0  0
 36 35  1  0  0  0  0
 37 35  2  0  0  0  0
 39 38  1  6  0  0  0
 40 43  1  0  0  0  0
 40 39  1  0  0  0  0
 41 44  2  0  0  0  0
 44 43  1  0  0  0  0
 44 42  1  0  0  0  0
 46 45  1  6  0  0  0
 46 48  1  0  0  0  0
 48 47  1  0  0  0  0
 49 46  1  0  0  0  0
 49 50  1  0  0  0  0
 51 50  1  0  0  0  0
 52 53  1  0  0  0  0
 53 51  1  0  0  0  0
M  END
>  <MODEL>
3

>  <REMARK>
 VINA RESULT:      -7.1      1.718      2.322
  Name = 
  18 active torsions:
  status: ('A' for Active; 'I' for Inactive)
    1  A    between atoms: C_1  and  C_47
    2  A    between atoms: C_1  and  N_48
    3  A    between atoms: C_6  and  C_16
    4  A    between atoms: C_6  and  C_26
    5  A    between atoms: C_9  and  C_41
    6  A    between atoms: C_9  and  C_44
    7  A    between atoms: C_9  and  C_50
    8  A    between atoms: C_12  and  N_48
    9  A    between atoms: C_14  and  C_19
   10  A    between atoms: C_16  and  C_18
   11  A    between atoms: C_17  and  C_22
   12  A    between atoms: C_20  and  N_27
   13  A    between atoms: C_20  and  C_31
   14  A    between atoms: C_21  and  C_50
   15  A    between atoms: C_30  and  C_38
   16  A    between atoms: C_31  and  N_42
   17  A    between atoms: C_38  and  C_51
   18  A    between atoms: C_44  and  C_51
                            x       y       z     vdW  Elec       q    Type
                         _______ _______ _______ _____ _____    ______ ____

>  <TORSDO>
F 18

$$$$
=
 OpenBabel10222417493D

 53 55  0  0  1  0  0  0  0  0999 V2000
  189.7830  176.5310  141.3030 C   0  0  0  0  0  2  0  0  0  0  0  0
  189.7890  176.5270  134.7900 N   0  0  0  0  0  2  0  0  0  0  0  0
  188.6760  178.7920  142.8310 C   0  0  0  0  0  3  0  0  0  0  0  0
  188.3940  178.1860  135.8650 C   0  0  0  0  0  0  0  0  0  0  0  0
  190.9590  176.0760  143.3200 O   0  0  0  0  0  0  0  0  0  0  0  0
  191.0080  176.2870  137.5650 C   0  0  0  0  0  3  0  0  0  0  0  0
  187.7000  178.5270  134.8710 O   0  0  0  0  0  0  0  0  0  0  0  0
  188.1790  178.5620  141.4310 C   0  0  1  0  0  3  0  0  0  0  0  0
  189.5530  177.9860  143.4400 C   0  0  0  0  0  0  0  0  0  0  0  0
  189.5620  177.3190  135.7860 C   0  0  0  0  0  0  0  0  0  0  0  0
  190.1490  176.8340  142.7260 C   0  0  0  0  0  0  0  0  0  0  0  0
  190.0090  177.0770  137.1550 C   0  0  0  0  0  0  0  0  0  0  0  0
  188.0910  178.5940  137.2690 C   0  0  0  0  0  2  0  0  0  0  0  0
  189.1520  177.7920  139.3440 C   0  0  0  0  0  0  0  0  0  0  0  0
  189.1470  177.8660  138.0390 C   0  0  0  0  0  0  0  0  0  0  0  0
  189.1410  177.7120  140.6450 C   0  0  0  0  0  0  0  0  0  0  0  0
  192.5400  173.4360  135.8260 C   0  0  1  0  0  3  0  0  0  0  0  0
  193.6110  174.0520  136.7060 C   0  0  2  0  0  3  0  0  0  0  0  0
  191.8910  175.5110  136.6370 C   0  0  1  0  0  3  0  0  0  0  0  0
  193.1540  175.2850  137.2170 O   0  0  0  0  0  0  0  0  0  0  0  0
  190.6750  173.5530  137.3070 O   0  0  0  0  0  1  0  0  0  0  0  0
  192.4320  172.0640  136.0670 O   0  0  0  0  0  1  0  0  0  0  0  0
  191.2950  174.1810  136.2180 C   0  0  2  0  0  3  0  0  0  0  0  0
  196.0560  173.5780  136.3940 C   0  0  0  0  0  3  0  0  0  0  0  0
  197.1320  173.7160  135.7530 O   0  0  0  0  0  0  0  0  0  0  0  0
  194.8550  174.2360  135.9680 N   0  0  0  0  0  0  0  0  0  0  0  0
  194.8300  175.0190  134.7400 C   0  0  0  0  0  2  0  0  0  0  0  0
  195.4440  176.3920  134.9700 C   0  0  0  0  0  2  0  0  0  0  0  0
  194.5420  177.3880  134.5940 O   0  0  0  0  0  1  0  0  0  0  0  0
  185.7290  178.6870  141.5850 C   0  0  0  0  0  3  0  0  0  0  0  0
  186.8220  177.9300  141.4830 C   0  0  0  0  0  3  0  0  0  0  0  0
  184.3780  178.0560  141.6370 C   0  0  0  0  0  2  0  0  0  0  0  0
  183.5110  178.5720  140.4980 C   0  0  0  0  0  2  0  0  0  0  0  0
  180.4110  176.6360  139.1810 C   0  0  0  0  0  1  0  0  0  0  0  0
  182.6330  177.4850  139.9580 C   0  0  0  0  0  0  0  0  0  0  0  0
  181.2180  177.6800  139.8050 N   0  0  0  0  0  0  0  0  0  0  0  0
  183.1640  176.3960  139.6110 O   0  0  0  0  0  0  0  0  0  0  0  0
  180.5700  179.9940  139.2220 C   0  0  0  0  0  1  0  0  0  0  0  0
  180.5860  178.9090  140.2910 C   0  0  1  0  0  3  0  0  0  0  0  0
  179.2060  178.6450  140.9000 C   0  0  0  0  0  2  0  0  0  0  0  0
  179.4700  180.2050  143.3410 O   0  0  0  0  0  0  0  0  0  0  0  0
  179.4140  178.2460  144.5340 O   0  0  0  0  0  1  0  0  0  0  0  0
  179.3020  178.0340  142.2200 N   0  0  0  0  0  2  0  0  0  0  0  0
  179.3920  178.8170  143.4120 C   0  0  0  0  0  0  0  0  0  0  0  0
  189.9320  178.2810  144.8570 C   0  0  0  0  0  2  0  0  0  0  0  0
  189.0230  177.5360  145.8320 C   0  0  1  0  0  3  0  0  0  0  0  0
  189.4330  177.7120  148.3250 C   0  0  0  0  0  1  0  0  0  0  0  0
  188.7920  178.3520  147.1030 C   0  0  0  0  0  2  0  0  0  0  0  0
  187.7020  177.1490  145.1720 C   0  0  0  0  0  2  0  0  0  0  0  0
  186.5180  177.6920  145.9640 C   0  0  0  0  0  2  0  0  0  0  0  0
  185.7060  178.6930  145.1540 C   0  0  0  0  0  2  0  0  0  0  0  0
  183.4960  179.4390  144.6930 O   0  0  0  0  0  1  0  0  0  0  0  0
  184.2460  178.6560  145.5690 C   0  0  0  0  0  2  0  0  0  0  0  0
  1 11  1  0  0  0  0
  2 10  2  0  0  0  0
  3  9  2  0  0  0  0
  4 13  1  0  0  0  0
  7  4  2  0  0  0  0
  8 31  1  1  0  0  0
  8  3  1  0  0  0  0
  9 45  1  0  0  0  0
 10  4  1  0  0  0  0
 10 12  1  0  0  0  0
 11  5  2  0  0  0  0
 11  9  1  0  0  0  0
 12  6  2  0  0  0  0
 12 15  1  0  0  0  0
 13 15  1  0  0  0  0
 14 16  2  0  0  0  0
 15 14  2  0  0  0  0
 16  1  1  0  0  0  0
 16  8  1  0  0  0  0
 17 22  1  1  0  0  0
 17 23  1  0  0  0  0
 17 18  1  0  0  0  0
 18 26  1  6  0  0  0
 18 20  1  0  0  0  0
 19 20  1  0  0  0  0
 19  6  1  1  0  0  0
 23 19  1  0  0  0  0
 23 21  1  1  0  0  0
 25 24  2  0  0  0  0
 26 24  1  0  0  0  0
 27 28  1  0  0  0  0
 27 26  1  0  0  0  0
 29 28  1  0  0  0  0
 30 32  1  0  0  0  0
 31 30  2  0  0  0  0
 33 32  1  0  0  0  0
 34 36  1  0  0  0  0
 35 33  1  0  0  0  0
 36 35  1  0  0  0  0
 36 39  1  0  0  0  0
 37 35  2  0  0  0  0
 39 38  1  6  0  0  0
 39 40  1  0  0  0  0
 40 43  1  0  0  0  0
 41 44  2  0  0  0  0
 43 44  1  0  0  0  0
 44 42  1  0  0  0  0
 46 45  1  6  0  0  0
 46 48  1  0  0  0  0
 48 47  1  0  0  0  0
 49 46  1  0  0  0  0
 49 50  1  0  0  0  0
 51 53  1  0  0  0  0
 51 50  1  0  0  0  0
 52 53  1  0  0  0  0
M  END
>  <MODEL>
4

>  <REMARK>
 VINA RESULT:      -7.0      1.572      2.973
  Name = 
  18 active torsions:
  status: ('A' for Active; 'I' for Inactive)
    1  A    between atoms: C_1  and  C_47
    2  A    between atoms: C_1  and  N_48
    3  A    between atoms: C_6  and  C_16
    4  A    between atoms: C_6  and  C_26
    5  A    between atoms: C_9  and  C_41
    6  A    between atoms: C_9  and  C_44
    7  A    between atoms: C_9  and  C_50
    8  A    between atoms: C_12  and  N_48
    9  A    between atoms: C_14  and  C_19
   10  A    between atoms: C_16  and  C_18
   11  A    between atoms: C_17  and  C_22
   12  A    between atoms: C_20  and  N_27
   13  A    between atoms: C_20  and  C_31
   14  A    between atoms: C_21  and  C_50
   15  A    between atoms: C_30  and  C_38
   16  A    between atoms: C_31  and  N_42
   17  A    between atoms: C_38  and  C_51
   18  A    between atoms: C_44  and  C_51
                            x       y       z     vdW  Elec       q    Type
                         _______ _______ _______ _____ _____    ______ ____

>  <TORSDO>
F 18

$$$$
=
 OpenBabel10222417493D

 53 55  0  0  1  0  0  0  0  0999 V2000
  190.0040  176.5740  141.5580 C   0  0  0  0  0  2  0  0  0  0  0  0
  189.7720  176.6610  135.0490 N   0  0  0  0  0  2  0  0  0  0  0  0
  188.8830  178.7780  143.1590 C   0  0  0  0  0  3  0  0  0  0  0  0
  188.3660  178.2590  136.1990 C   0  0  0  0  0  0  0  0  0  0  0  0
  191.2660  176.1280  143.5250 O   0  0  0  0  0  0  0  0  0  0  0  0
  191.0980  176.4210  137.7750 C   0  0  0  0  0  3  0  0  0  0  0  0
  187.6260  178.5930  135.2360 O   0  0  0  0  0  0  0  0  0  0  0  0
  188.3430  178.5510  141.7740 C   0  0  1  0  0  3  0  0  0  0  0  0
  189.8060  177.9910  143.7230 C   0  0  0  0  0  0  0  0  0  0  0  0
  189.5560  177.4320  136.0650 C   0  0  0  0  0  0  0  0  0  0  0  0
  190.4110  176.8690  142.9710 C   0  0  0  0  0  0  0  0  0  0  0  0
  190.0610  177.1850  137.4130 C   0  0  0  0  0  0  0  0  0  0  0  0
  188.1020  178.6390  137.6190 C   0  0  0  0  0  2  0  0  0  0  0  0
  189.2620  177.8420  139.6420 C   0  0  0  0  0  0  0  0  0  0  0  0
  189.2080  177.9330  138.3390 C   0  0  0  0  0  0  0  0  0  0  0  0
  189.3010  177.7430  140.9410 C   0  0  0  0  0  0  0  0  0  0  0  0
  192.6970  173.6430  135.9790 C   0  0  1  0  0  3  0  0  0  0  0  0
  193.7780  174.3360  136.7860 C   0  0  2  0  0  3  0  0  0  0  0  0
  191.9700  175.6860  136.8040 C   0  0  1  0  0  3  0  0  0  0  0  0
  193.2770  175.5470  137.3090 O   0  0  0  0  0  0  0  0  0  0  0  0
  190.9190  173.6690  137.5690 O   0  0  0  0  0  1  0  0  0  0  0  0
  192.6880  172.2700  136.2420 O   0  0  0  0  0  1  0  0  0  0  0  0
  191.4340  174.3160  136.4380 C   0  0  2  0  0  3  0  0  0  0  0  0
  196.2680  174.2640  136.4720 C   0  0  0  0  0  3  0  0  0  0  0  0
  197.2960  174.4580  135.7700 O   0  0  0  0  0  0  0  0  0  0  0  0
  194.9620  174.5850  135.9710 N   0  0  0  0  0  0  0  0  0  0  0  0
  194.7860  175.0700  134.6100 C   0  0  0  0  0  2  0  0  0  0  0  0
  194.5920  176.5800  134.6030 C   0  0  0  0  0  2  0  0  0  0  0  0
  195.5120  177.1840  135.4610 O   0  0  0  0  0  1  0  0  0  0  0  0
  185.9400  178.5500  142.2900 C   0  0  0  0  0  3  0  0  0  0  0  0
  187.0090  177.8760  141.8650 C   0  0  0  0  0  3  0  0  0  0  0  0
  184.6120  177.8750  142.3800 C   0  0  0  0  0  2  0  0  0  0  0  0
  183.4940  178.8790  142.1380 C   0  0  0  0  0  2  0  0  0  0  0  0
  181.7450  179.0620  138.6730 C   0  0  0  0  0  1  0  0  0  0  0  0
  183.2510  179.0670  140.6710 C   0  0  0  0  0  0  0  0  0  0  0  0
  181.9750  178.7690  140.0840 N   0  0  0  0  0  0  0  0  0  0  0  0
  184.1870  179.5210  139.9580 O   0  0  0  0  0  0  0  0  0  0  0  0
  180.5100  179.0510  142.0560 C   0  0  0  0  0  1  0  0  0  0  0  0
  180.9170  178.1570  140.8920 C   0  0  1  0  0  3  0  0  0  0  0  0
  179.7290  177.7050  140.0380 C   0  0  0  0  0  2  0  0  0  0  0  0
  181.3190  175.3020  139.6360 O   0  0  0  0  0  0  0  0  0  0  0  0
  179.6470  174.0940  140.6420 O   0  0  0  0  0  1  0  0  0  0  0  0
  179.2610  176.3770  140.4160 N   0  0  0  0  0  2  0  0  0  0  0  0
  180.0710  175.2120  140.2470 C   0  0  0  0  0  0  0  0  0  0  0  0
  190.2280  178.2780  145.1310 C   0  0  0  0  0  2  0  0  0  0  0  0
  189.1730  177.7960  146.1250 C   0  0  1  0  0  3  0  0  0  0  0  0
  186.6590  177.6010  145.8830 C   0  0  0  0  0  1  0  0  0  0  0  0
  188.0150  177.1040  145.4060 C   0  0  0  0  0  2  0  0  0  0  0  0
  189.7880  176.8910  147.1880 C   0  0  0  0  0  2  0  0  0  0  0  0
  191.3010  177.0720  147.2490 C   0  0  0  0  0  2  0  0  0  0  0  0
  192.0340  175.7400  147.1650 C   0  0  0  0  0  2  0  0  0  0  0  0
  193.2150  176.7750  148.9510 O   0  0  0  0  0  1  0  0  0  0  0  0
  192.9140  175.5360  148.3860 C   0  0  0  0  0  2  0  0  0  0  0  0
  1 11  1  0  0  0  0
  2 10  2  0  0  0  0
  3  9  2  0  0  0  0
  4 13  1  0  0  0  0
  7  4  2  0  0  0  0
  8 31  1  1  0  0  0
  8  3  1  0  0  0  0
  9 45  1  0  0  0  0
 10  4  1  0  0  0  0
 10 12  1  0  0  0  0
 11  5  2  0  0  0  0
 11  9  1  0  0  0  0
 12  6  2  0  0  0  0
 12 15  1  0  0  0  0
 13 15  1  0  0  0  0
 14 16  2  0  0  0  0
 15 14  2  0  0  0  0
 16  1  1  0  0  0  0
 16  8  1  0  0  0  0
 17 22  1  1  0  0  0
 17 23  1  0  0  0  0
 17 18  1  0  0  0  0
 18 26  1  6  0  0  0
 18 20  1  0  0  0  0
 19 20  1  0  0  0  0
 19  6  1  1  0  0  0
 23 19  1  0  0  0  0
 23 21  1  1  0  0  0
 25 24  2  0  0  0  0
 26 24  1  0  0  0  0
 27 26  1  0  0  0  0
 28 27  1  0  0  0  0
 28 29  1  0  0  0  0
 30 32  1  0  0  0  0
 31 30  2  0  0  0  0
 33 32  1  0  0  0  0
 34 36  1  0  0  0  0
 35 33  1  0  0  0  0
 36 35  1  0  0  0  0
 36 39  1  0  0  0  0
 37 35  2  0  0  0  0
 39 38  1  1  0  0  0
 40 43  1  0  0  0  0
 40 39  1  0  0  0  0
 41 44  2  0  0  0  0
 44 43  1  0  0  0  0
 44 42  1  0  0  0  0
 46 45  1  6  0  0  0
 46 49  1  0  0  0  0
 48 47  1  0  0  0  0
 48 46  1  0  0  0  0
 49 50  1  0  0  0  0
 51 50  1  0  0  0  0
 51 53  1  0  0  0  0
 53 52  1  0  0  0  0
M  END
>  <MODEL>
5

>  <REMARK>
 VINA RESULT:      -6.7      1.811      3.077
  Name = 
  18 active torsions:
  status: ('A' for Active; 'I' for Inactive)
    1  A    between atoms: C_1  and  C_47
    2  A    between atoms: C_1  and  N_48
    3  A    between atoms: C_6  and  C_16
    4  A    between atoms: C_6  and  C_26
    5  A    between atoms: C_9  and  C_41
    6  A    between atoms: C_9  and  C_44
    7  A    between atoms: C_9  and  C_50
    8  A    between atoms: C_12  and  N_48
    9  A    between atoms: C_14  and  C_19
   10  A    between atoms: C_16  and  C_18
   11  A    between atoms: C_17  and  C_22
   12  A    between atoms: C_20  and  N_27
   13  A    between atoms: C_20  and  C_31
   14  A    between atoms: C_21  and  C_50
   15  A    between atoms: C_30  and  C_38
   16  A    between atoms: C_31  and  N_42
   17  A    between atoms: C_38  and  C_51
   18  A    between atoms: C_44  and  C_51
                            x       y       z     vdW  Elec       q    Type
                         _______ _______ _______ _____ _____    ______ ____

>  <TORSDO>
F 18

$$$$
=
 OpenBabel10222417493D

 53 55  0  0  1  0  0  0  0  0999 V2000
  189.8160  176.5970  141.1720 C   0  0  0  0  0  2  0  0  0  0  0  0
  189.6240  176.5630  134.6620 N   0  0  0  0  0  2  0  0  0  0  0  0
  188.7900  178.8830  142.7210 C   0  0  0  0  0  3  0  0  0  0  0  0
  188.2870  178.2470  135.7700 C   0  0  0  0  0  0  0  0  0  0  0  0
  191.0460  176.1340  143.1560 O   0  0  0  0  0  0  0  0  0  0  0  0
  190.9230  176.3170  137.4000 C   0  0  0  0  0  3  0  0  0  0  0  0
  187.5680  178.5940  134.7950 O   0  0  0  0  0  0  0  0  0  0  0  0
  188.2470  178.6530  141.3380 C   0  0  1  0  0  3  0  0  0  0  0  0
  189.6720  178.0660  143.3070 C   0  0  0  0  0  0  0  0  0  0  0  0
  189.4390  177.3630  135.6610 C   0  0  0  0  0  0  0  0  0  0  0  0
  190.2290  176.9020  142.5820 C   0  0  0  0  0  0  0  0  0  0  0  0
  189.9240  177.1200  137.0160 C   0  0  0  0  0  0  0  0  0  0  0  0
  188.0330  178.6670  137.1800 C   0  0  0  0  0  2  0  0  0  0  0  0
  189.1440  177.8590  139.2270 C   0  0  0  0  0  0  0  0  0  0  0  0
  189.1010  177.9260  137.9220 C   0  0  0  0  0  0  0  0  0  0  0  0
  189.1710  177.7850  140.5280 C   0  0  0  0  0  0  0  0  0  0  0  0
  192.4950  173.4340  135.7520 C   0  0  1  0  0  3  0  0  0  0  0  0
  193.5970  174.2060  136.4530 C   0  0  2  0  0  3  0  0  0  0  0  0
  191.7650  175.5230  136.4500 C   0  0  1  0  0  3  0  0  0  0  0  0
  193.0960  175.4450  136.9040 O   0  0  0  0  0  0  0  0  0  0  0  0
  190.7900  173.5550  137.4150 O   0  0  0  0  0  1  0  0  0  0  0  0
  192.5260  172.0860  136.1200 O   0  0  0  0  0  1  0  0  0  0  0  0
  191.2410  174.1200  136.2150 C   0  0  2  0  0  3  0  0  0  0  0  0
  195.2540  175.7290  135.3410 C   0  0  0  0  0  3  0  0  0  0  0  0
  196.2510  175.9160  134.5940 O   0  0  0  0  0  0  0  0  0  0  0  0
  194.7390  174.4100  135.5680 N   0  0  0  0  0  0  0  0  0  0  0  0
  195.4020  173.2440  135.0020 C   0  0  0  0  0  2  0  0  0  0  0  0
  196.4570  172.7120  135.9610 C   0  0  0  0  0  2  0  0  0  0  0  0
  197.3800  173.7150  136.2610 O   0  0  0  0  0  1  0  0  0  0  0  0
  185.8990  178.6850  142.0630 C   0  0  0  0  0  3  0  0  0  0  0  0
  186.8830  178.0420  141.4340 C   0  0  0  0  0  3  0  0  0  0  0  0
  184.5410  178.0740  142.1580 C   0  0  0  0  0  2  0  0  0  0  0  0
  183.7780  178.2800  140.8580 C   0  0  0  0  0  2  0  0  0  0  0  0
  179.9710  177.5350  140.6320 C   0  0  0  0  0  1  0  0  0  0  0  0
  182.3010  178.3200  141.1030 C   0  0  0  0  0  0  0  0  0  0  0  0
  181.3920  177.5510  140.2990 N   0  0  0  0  0  0  0  0  0  0  0  0
  181.8650  179.0260  142.0530 O   0  0  0  0  0  0  0  0  0  0  0  0
  181.1130  175.5070  138.9340 C   0  0  0  0  0  1  0  0  0  0  0  0
  181.8860  176.8030  139.1400 C   0  0  1  0  0  3  0  0  0  0  0  0
  181.9500  177.6710  137.8800 C   0  0  0  0  0  2  0  0  0  0  0  0
  184.8390  177.6110  137.5360 O   0  0  0  0  0  1  0  0  0  0  0  0
  184.5380  176.2640  135.7030 O   0  0  0  0  0  0  0  0  0  0  0  0
  182.6000  176.9770  136.7740 N   0  0  0  0  0  2  0  0  0  0  0  0
  184.0210  176.9250  136.6420 C   0  0  0  0  0  0  0  0  0  0  0  0
  190.0990  178.3620  144.7110 C   0  0  0  0  0  2  0  0  0  0  0  0
  188.9130  178.2770  145.6710 C   0  0  1  0  0  3  0  0  0  0  0  0
  186.5120  177.4940  145.4680 C   0  0  0  0  0  1  0  0  0  0  0  0
  187.9780  177.1300  145.2890 C   0  0  0  0  0  2  0  0  0  0  0  0
  189.3800  178.1550  147.1180 C   0  0  0  0  0  2  0  0  0  0  0  0
  189.8520  176.7370  147.4220 C   0  0  0  0  0  2  0  0  0  0  0  0
  191.3550  176.6790  147.6570 C   0  0  0  0  0  2  0  0  0  0  0  0
  193.2300  175.2630  147.2900 O   0  0  0  0  0  1  0  0  0  0  0  0
  191.8580  175.2510  147.5400 C   0  0  0  0  0  2  0  0  0  0  0  0
  1 11  1  0  0  0  0
  2 10  2  0  0  0  0
  3  9  2  0  0  0  0
  4 13  1  0  0  0  0
  7  4  2  0  0  0  0
  8 31  1  1  0  0  0
  8  3  1  0  0  0  0
  9 45  1  0  0  0  0
 10  4  1  0  0  0  0
 10 12  1  0  0  0  0
 11  5  2  0  0  0  0
 11  9  1  0  0  0  0
 12  6  2  0  0  0  0
 12 15  1  0  0  0  0
 13 15  1  0  0  0  0
 14 16  2  0  0  0  0
 15 14  2  0  0  0  0
 16  1  1  0  0  0  0
 16  8  1  0  0  0  0
 17 22  1  1  0  0  0
 17 23  1  0  0  0  0
 17 18  1  0  0  0  0
 18 26  1  6  0  0  0
 18 20  1  0  0  0  0
 19 20  1  0  0  0  0
 19  6  1  1  0  0  0
 23 19  1  0  0  0  0
 23 21  1  1  0  0  0
 24 26  1  0  0  0  0
 25 24  2  0  0  0  0
 27 26  1  0  0  0  0
 27 28  1  0  0  0  0
 28 29  1  0  0  0  0
 30 32  1  0  0  0  0
 31 30  2  0  0  0  0
 33 35  1  0  0  0  0
 33 32  1  0  0  0  0
 35 37  2  0  0  0  0
 36 34  1  0  0  0  0
 36 35  1  0  0  0  0
 39 38  1  6  0  0  0
 39 36  1  0  0  0  0
 40 39  1  0  0  0  0
 42 44  2  0  0  0  0
 43 40  1  0  0  0  0
 44 43  1  0  0  0  0
 44 41  1  0  0  0  0
 46 45  1  6  0  0  0
 46 49  1  0  0  0  0
 48 47  1  0  0  0  0
 48 46  1  0  0  0  0
 49 50  1  0  0  0  0
 50 51  1  0  0  0  0
 52 53  1  0  0  0  0
 53 51  1  0  0  0  0
M  END
>  <MODEL>
6

>  <REMARK>
 VINA RESULT:      -6.4      1.542      2.529
  Name = 
  18 active torsions:
  status: ('A' for Active; 'I' for Inactive)
    1  A    between atoms: C_1  and  C_47
    2  A    between atoms: C_1  and  N_48
    3  A    between atoms: C_6  and  C_16
    4  A    between atoms: C_6  and  C_26
    5  A    between atoms: C_9  and  C_41
    6  A    between atoms: C_9  and  C_44
    7  A    between atoms: C_9  and  C_50
    8  A    between atoms: C_12  and  N_48
    9  A    between atoms: C_14  and  C_19
   10  A    between atoms: C_16  and  C_18
   11  A    between atoms: C_17  and  C_22
   12  A    between atoms: C_20  and  N_27
   13  A    between atoms: C_20  and  C_31
   14  A    between atoms: C_21  and  C_50
   15  A    between atoms: C_30  and  C_38
   16  A    between atoms: C_31  and  N_42
   17  A    between atoms: C_38  and  C_51
   18  A    between atoms: C_44  and  C_51
                            x       y       z     vdW  Elec       q    Type
                         _______ _______ _______ _____ _____    ______ ____

>  <TORSDO>
F 18

$$$$
=
 OpenBabel10222417493D

 53 55  0  0  1  0  0  0  0  0999 V2000
  183.5520  178.2080  140.9160 C   0  0  0  0  0  2  0  0  0  0  0  0
  189.8050  176.6480  141.8560 N   0  0  0  0  0  2  0  0  0  0  0  0
  182.7330  179.9880  138.7170 C   0  0  0  0  0  3  0  0  0  0  0  0
  189.2580  177.6720  139.7340 C   0  0  0  0  0  0  0  0  0  0  0  0
  181.4690  178.8490  141.8690 O   0  0  0  0  0  0  0  0  0  0  0  0
  187.0540  177.6740  142.6440 C   0  0  0  0  0  3  0  0  0  0  0  0
  190.3190  177.4020  139.1110 O   0  0  0  0  0  0  0  0  0  0  0  0
  184.0210  179.2250  138.5790 C   0  0  1  0  0  3  0  0  0  0  0  0
  181.9090  179.8530  139.7620 C   0  0  0  0  0  0  0  0  0  0  0  0
  189.0730  177.4570  141.1620 C   0  0  0  0  0  0  0  0  0  0  0  0
  182.2640  178.9770  140.9010 C   0  0  0  0  0  0  0  0  0  0  0  0
  187.6840  177.7860  141.4690 C   0  0  0  0  0  0  0  0  0  0  0  0
  188.0290  178.2150  139.0840 C   0  0  0  0  0  2  0  0  0  0  0  0
  185.7950  178.5210  140.0800 C   0  0  0  0  0  0  0  0  0  0  0  0
  187.0690  178.2690  140.2310 C   0  0  0  0  0  0  0  0  0  0  0  0
  184.5240  178.7590  139.9190 C   0  0  0  0  0  0  0  0  0  0  0  0
  187.7920  177.2680  146.2200 C   0  0  1  0  0  3  0  0  0  0  0  0
  188.9690  177.9980  145.6000 C   0  0  2  0  0  3  0  0  0  0  0  0
  187.7140  177.2000  143.9020 C   0  0  1  0  0  3  0  0  0  0  0  0
  188.8530  177.9750  144.1930 O   0  0  0  0  0  0  0  0  0  0  0  0
  185.9940  178.3660  145.1030 O   0  0  0  0  0  1  0  0  0  0  0  0
  187.3090  177.9660  147.3300 O   0  0  0  0  0  1  0  0  0  0  0  0
  186.7890  177.2120  145.1030 C   0  0  2  0  0  3  0  0  0  0  0  0
  190.3890  176.8820  147.3430 C   0  0  0  0  0  3  0  0  0  0  0  0
  191.4710  176.3500  147.7080 O   0  0  0  0  0  0  0  0  0  0  0  0
  190.2340  177.4030  146.0160 N   0  0  0  0  0  0  0  0  0  0  0  0
  191.2970  177.2590  145.0310 C   0  0  0  0  0  2  0  0  0  0  0  0
  191.8130  178.6240  144.6000 C   0  0  0  0  0  2  0  0  0  0  0  0
  191.7250  178.7530  143.2140 O   0  0  0  0  0  1  0  0  0  0  0  0
  184.2690  176.8560  137.9730 C   0  0  0  0  0  3  0  0  0  0  0  0
  183.8180  178.0680  137.6500 C   0  0  0  0  0  3  0  0  0  0  0  0
  184.0660  175.7050  137.0460 C   0  0  0  0  0  2  0  0  0  0  0  0
  183.6330  174.4710  137.8240 C   0  0  0  0  0  2  0  0  0  0  0  0
  181.0740  172.5520  135.6190 C   0  0  0  0  0  1  0  0  0  0  0  0
  183.0160  173.4530  136.9150 C   0  0  0  0  0  0  0  0  0  0  0  0
  181.6180  173.4990  136.5880 N   0  0  0  0  0  0  0  0  0  0  0  0
  183.7550  172.5620  136.4150 O   0  0  0  0  0  0  0  0  0  0  0  0
  179.6790  175.0030  136.2810 C   0  0  0  0  0  1  0  0  0  0  0  0
  180.7410  174.4750  137.2370 C   0  0  1  0  0  3  0  0  0  0  0  0
  180.1550  173.9410  138.5480 C   0  0  0  0  0  2  0  0  0  0  0  0
  178.9370  173.4780  141.1490 O   0  0  0  0  0  0  0  0  0  0  0  0
  179.3040  175.6860  141.6530 O   0  0  0  0  0  1  0  0  0  0  0  0
  179.9620  175.0020  139.5290 N   0  0  0  0  0  2  0  0  0  0  0  0
  179.3980  174.7500  140.8170 C   0  0  0  0  0  0  0  0  0  0  0  0
  180.6240  180.6200  139.7640 C   0  0  0  0  0  2  0  0  0  0  0  0
  180.0380  180.7070  138.3560 C   0  0  1  0  0  3  0  0  0  0  0  0
  179.4700  178.2510  138.1060 C   0  0  0  0  0  1  0  0  0  0  0  0
  178.9310  179.6730  138.1560 C   0  0  0  0  0  2  0  0  0  0  0  0
  179.5450  182.1170  138.0470 C   0  0  0  0  0  2  0  0  0  0  0  0
  180.7100  183.0990  137.9750 C   0  0  0  0  0  2  0  0  0  0  0  0
  180.3080  184.4070  137.3100 C   0  0  0  0  0  2  0  0  0  0  0  0
  181.0590  183.6100  135.2000 O   0  0  0  0  0  1  0  0  0  0  0  0
  181.1730  184.6750  136.0910 C   0  0  0  0  0  2  0  0  0  0  0  0
  3  9  2  0  0  0  0
  4 10  1  0  0  0  0
  7  4  2  0  0  0  0
  8 31  1  6  0  0  0
  8  3  1  0  0  0  0
  8 16  1  0  0  0  0
  9 45  1  0  0  0  0
  9 11  1  0  0  0  0
 10 12  1  0  0  0  0
 10  2  2  0  0  0  0
 11  1  1  0  0  0  0
 11  5  2  0  0  0  0
 12  6  2  0  0  0  0
 13  4  1  0  0  0  0
 13 15  1  0  0  0  0
 14 15  2  0  0  0  0
 15 12  1  0  0  0  0
 16 14  2  0  0  0  0
 16  1  1  0  0  0  0
 17 22  1  1  0  0  0
 18 26  1  6  0  0  0
 18 17  1  0  0  0  0
 19  6  1  6  0  0  0
 19 20  1  0  0  0  0
 19 23  1  0  0  0  0
 20 18  1  0  0  0  0
 23 21  1  6  0  0  0
 23 17  1  0  0  0  0
 24 25  2  0  0  0  0
 26 24  1  0  0  0  0
 27 26  1  0  0  0  0
 28 27  1  0  0  0  0
 29 28  1  0  0  0  0
 31 30  2  0  0  0  0
 32 33  1  0  0  0  0
 32 30  1  0  0  0  0
 34 36  1  0  0  0  0
 35 33  1  0  0  0  0
 36 35  1  0  0  0  0
 36 39  1  0  0  0  0
 37 35  2  0  0  0  0
 39 38  1  6  0  0  0
 39 40  1  0  0  0  0
 40 43  1  0  0  0  0
 43 44  1  0  0  0  0
 44 41  2  0  0  0  0
 44 42  1  0  0  0  0
 46 49  1  1  0  0  0
 46 45  1  0  0  0  0
 47 48  1  0  0  0  0
 48 46  1  0  0  0  0
 50 49  1  0  0  0  0
 51 50  1  0  0  0  0
 52 53  1  0  0  0  0
 53 51  1  0  0  0  0
M  END
>  <MODEL>
7

>  <REMARK>
 VINA RESULT:      -6.2      4.001      9.651
  Name = 
  18 active torsions:
  status: ('A' for Active; 'I' for Inactive)
    1  A    between atoms: C_1  and  C_47
    2  A    between atoms: C_1  and  N_48
    3  A    between atoms: C_6  and  C_16
    4  A    between atoms: C_6  and  C_26
    5  A    between atoms: C_9  and  C_41
    6  A    between atoms: C_9  and  C_44
    7  A    between atoms: C_9  and  C_50
    8  A    between atoms: C_12  and  N_48
    9  A    between atoms: C_14  and  C_19
   10  A    between atoms: C_16  and  C_18
   11  A    between atoms: C_17  and  C_22
   12  A    between atoms: C_20  and  N_27
   13  A    between atoms: C_20  and  C_31
   14  A    between atoms: C_21  and  C_50
   15  A    between atoms: C_30  and  C_38
   16  A    between atoms: C_31  and  N_42
   17  A    between atoms: C_38  and  C_51
   18  A    between atoms: C_44  and  C_51
                            x       y       z     vdW  Elec       q    Type
                         _______ _______ _______ _____ _____    ______ ____

>  <TORSDO>
F 18

$$$$
=
 OpenBabel10222417493D

 53 55  0  0  1  0  0  0  0  0999 V2000
  185.9470  178.6330  139.5520 C   0  0  0  0  0  2  0  0  0  0  0  0
  186.5910  179.0160  146.0220 N   0  0  0  0  0  2  0  0  0  0  0  0
  183.4540  177.6680  138.3170 C   0  0  0  0  0  3  0  0  0  0  0  0
  184.3440  178.7120  145.1800 C   0  0  0  0  0  0  0  0  0  0  0  0
  186.9130  178.0340  137.4620 O   0  0  0  0  0  0  0  0  0  0  0  0
  187.3670  178.1870  143.2020 C   0  0  0  0  0  3  0  0  0  0  0  0
  183.7050  179.0010  146.2260 O   0  0  0  0  0  0  0  0  0  0  0  0
  183.3880  178.2590  139.6970 C   0  0  1  0  0  3  0  0  0  0  0  0
  184.5790  177.6130  137.5970 C   0  0  0  0  0  0  0  0  0  0  0  0
  185.7890  178.5400  145.1260 C   0  0  0  0  0  0  0  0  0  0  0  0
  185.8670  178.0780  138.1610 C   0  0  0  0  0  0  0  0  0  0  0  0
  186.1450  178.3270  143.7270 C   0  0  0  0  0  0  0  0  0  0  0  0
  183.7080  178.5420  143.8390 C   0  0  0  0  0  2  0  0  0  0  0  0
  184.8210  178.2700  141.6560 C   0  0  0  0  0  0  0  0  0  0  0  0
  184.8960  178.2970  142.9610 C   0  0  0  0  0  0  0  0  0  0  0  0
  184.7410  178.2590  140.3560 C   0  0  0  0  0  0  0  0  0  0  0  0
  190.9210  177.8470  144.0730 C   0  0  1  0  0  3  0  0  0  0  0  0
  190.1700  176.7620  144.8210 C   0  0  2  0  0  3  0  0  0  0  0  0
  188.6270  178.1960  144.0110 C   0  0  1  0  0  3  0  0  0  0  0  0
  188.7810  176.9860  144.7140 O   0  0  0  0  0  0  0  0  0  0  0  0
  189.8030  177.7410  141.9690 O   0  0  0  0  0  1  0  0  0  0  0  0
  191.9830  177.3010  143.3470 O   0  0  0  0  0  1  0  0  0  0  0  0
  189.8700  178.4440  143.1790 C   0  0  2  0  0  3  0  0  0  0  0  0
  191.7070  175.9390  146.6270 C   0  0  0  0  0  3  0  0  0  0  0  0
  192.0750  175.9080  147.8320 O   0  0  0  0  0  0  0  0  0  0  0  0
  190.5720  176.7170  146.2230 N   0  0  0  0  0  0  0  0  0  0  0  0
  189.8610  177.5510  147.1810 C   0  0  0  0  0  2  0  0  0  0  0  0
  188.6850  176.7930  147.7790 C   0  0  0  0  0  2  0  0  0  0  0  0
  188.0330  177.5870  148.7230 O   0  0  0  0  0  1  0  0  0  0  0  0
  182.1280  180.0320  138.5510 C   0  0  0  0  0  3  0  0  0  0  0  0
  182.8290  179.6470  139.6180 C   0  0  0  0  0  3  0  0  0  0  0  0
  181.5730  181.4140  138.4730 C   0  0  0  0  0  2  0  0  0  0  0  0
  180.0790  181.3670  138.1900 C   0  0  0  0  0  2  0  0  0  0  0  0
  178.9750  182.3860  134.6060 C   0  0  0  0  0  1  0  0  0  0  0  0
  179.7370  182.1850  136.9820 C   0  0  0  0  0  0  0  0  0  0  0  0
  179.4030  181.5610  135.7320 N   0  0  0  0  0  0  0  0  0  0  0  0
  179.7210  183.4410  137.0870 O   0  0  0  0  0  0  0  0  0  0  0  0
  180.9190  179.6820  135.1970 C   0  0  0  0  0  1  0  0  0  0  0  0
  179.5080  180.1080  135.5830 C   0  0  1  0  0  3  0  0  0  0  0  0
  178.9700  179.3620  136.8080 C   0  0  0  0  0  2  0  0  0  0  0  0
  179.3900  178.0070  139.3480 O   0  0  0  0  0  1  0  0  0  0  0  0
  180.0840  176.1560  138.1820 O   0  0  0  0  0  0  0  0  0  0  0  0
  179.5070  178.0100  136.9020 N   0  0  0  0  0  2  0  0  0  0  0  0
  179.6710  177.3450  138.1550 C   0  0  0  0  0  0  0  0  0  0  0  0
  184.5150  177.0550  136.2090 C   0  0  0  0  0  2  0  0  0  0  0  0
  184.7700  175.5490  136.2150 C   0  0  1  0  0  3  0  0  0  0  0  0
  182.7200  175.5380  134.7270 C   0  0  0  0  0  1  0  0  0  0  0  0
  183.5270  174.7790  135.7680 C   0  0  0  0  0  2  0  0  0  0  0  0
  185.9840  175.1890  135.3640 C   0  0  0  0  0  2  0  0  0  0  0  0
  187.1390  174.7100  136.2360 C   0  0  0  0  0  2  0  0  0  0  0  0
  188.2770  174.1360  135.4040 C   0  0  0  0  0  2  0  0  0  0  0  0
  189.7650  173.3480  137.0830 O   0  0  0  0  0  1  0  0  0  0  0  0
  188.8820  172.9250  136.0900 C   0  0  0  0  0  2  0  0  0  0  0  0
  1 16  1  0  0  0  0
  3  8  1  0  0  0  0
  4  7  2  0  0  0  0
  5 11  2  0  0  0  0
  6 12  2  0  0  0  0
  8 31  1  6  0  0  0
  8 16  1  0  0  0  0
  9 11  1  0  0  0  0
  9  3  2  0  0  0  0
 10  4  1  0  0  0  0
 10  2  2  0  0  0  0
 11  1  1  0  0  0  0
 12 10  1  0  0  0  0
 13  4  1  0  0  0  0
 14 15  2  0  0  0  0
 15 12  1  0  0  0  0
 15 13  1  0  0  0  0
 16 14  2  0  0  0  0
 17 22  1  6  0  0  0
 17 18  1  0  0  0  0
 18 26  1  1  0  0  0
 19  6  1  6  0  0  0
 19 20  1  0  0  0  0
 20 18  1  0  0  0  0
 23 21  1  6  0  0  0
 23 19  1  0  0  0  0
 23 17  1  0  0  0  0
 24 25  2  0  0  0  0
 26 24  1  0  0  0  0
 26 27  1  0  0  0  0
 27 28  1  0  0  0  0
 28 29  1  0  0  0  0
 30 31  2  0  0  0  0
 32 30  1  0  0  0  0
 33 32  1  0  0  0  0
 34 36  1  0  0  0  0
 35 37  2  0  0  0  0
 35 33  1  0  0  0  0
 36 35  1  0  0  0  0
 39 38  1  1  0  0  0
 39 36  1  0  0  0  0
 39 40  1  0  0  0  0
 40 43  1  0  0  0  0
 43 44  1  0  0  0  0
 44 42  2  0  0  0  0
 44 41  1  0  0  0  0
 45 46  1  0  0  0  0
 45  9  1  0  0  0  0
 46 49  1  6  0  0  0
 47 48  1  0  0  0  0
 48 46  1  0  0  0  0
 49 50  1  0  0  0  0
 51 53  1  0  0  0  0
 51 50  1  0  0  0  0
 53 52  1  0  0  0  0
M  END
>  <MODEL>
8

>  <REMARK>
 VINA RESULT:      -6.1      3.927      9.446
  Name = 
  18 active torsions:
  status: ('A' for Active; 'I' for Inactive)
    1  A    between atoms: C_1  and  C_47
    2  A    between atoms: C_1  and  N_48
    3  A    between atoms: C_6  and  C_16
    4  A    between atoms: C_6  and  C_26
    5  A    between atoms: C_9  and  C_41
    6  A    between atoms: C_9  and  C_44
    7  A    between atoms: C_9  and  C_50
    8  A    between atoms: C_12  and  N_48
    9  A    between atoms: C_14  and  C_19
   10  A    between atoms: C_16  and  C_18
   11  A    between atoms: C_17  and  C_22
   12  A    between atoms: C_20  and  N_27
   13  A    between atoms: C_20  and  C_31
   14  A    between atoms: C_21  and  C_50
   15  A    between atoms: C_30  and  C_38
   16  A    between atoms: C_31  and  N_42
   17  A    between atoms: C_38  and  C_51
   18  A    between atoms: C_44  and  C_51
                            x       y       z     vdW  Elec       q    Type
                         _______ _______ _______ _____ _____    ______ ____

>  <TORSDO>
F 18

$$$$
=
 OpenBabel10222417493D

 53 55  0  0  1  0  0  0  0  0999 V2000
  185.8580  178.6130  139.6100 C   0  0  0  0  0  2  0  0  0  0  0  0
  186.5320  178.8900  146.0830 N   0  0  0  0  0  2  0  0  0  0  0  0
  183.3320  177.7450  138.3710 C   0  0  0  0  0  3  0  0  0  0  0  0
  184.2750  178.6690  145.2440 C   0  0  0  0  0  0  0  0  0  0  0  0
  186.7980  178.0120  137.5090 O   0  0  0  0  0  0  0  0  0  0  0  0
  187.2740  178.0750  143.2490 C   0  0  0  0  0  3  0  0  0  0  0  0
  183.6480  178.9650  146.2960 O   0  0  0  0  0  0  0  0  0  0  0  0
  183.2880  178.3200  139.7590 C   0  0  1  0  0  3  0  0  0  0  0  0
  184.4530  177.6630  137.6460 C   0  0  0  0  0  0  0  0  0  0  0  0
  185.7130  178.4520  145.1830 C   0  0  0  0  0  0  0  0  0  0  0  0
  185.7560  178.0800  138.2120 C   0  0  0  0  0  0  0  0  0  0  0  0
  186.0580  178.2460  143.7800 C   0  0  0  0  0  0  0  0  0  0  0  0
  183.6300  178.5380  143.9030 C   0  0  0  0  0  2  0  0  0  0  0  0
  184.7270  178.2590  141.7130 C   0  0  0  0  0  0  0  0  0  0  0  0
  184.8060  178.2660  143.0180 C   0  0  0  0  0  0  0  0  0  0  0  0
  184.6430  178.2680  140.4130 C   0  0  0  0  0  0  0  0  0  0  0  0
  190.8550  177.9530  144.0620 C   0  0  1  0  0  3  0  0  0  0  0  0
  190.2490  176.6360  144.5080 C   0  0  2  0  0  3  0  0  0  0  0  0
  188.5360  178.0330  144.0540 C   0  0  1  0  0  3  0  0  0  0  0  0
  188.8420  176.7140  144.4400 O   0  0  0  0  0  0  0  0  0  0  0  0
  189.7260  178.2380  141.9810 O   0  0  0  0  0  1  0  0  0  0  0  0
  191.9630  177.7330  143.2400 O   0  0  0  0  0  1  0  0  0  0  0  0
  189.7280  178.6240  143.3280 C   0  0  2  0  0  3  0  0  0  0  0  0
  192.0350  175.9240  146.1220 C   0  0  0  0  0  3  0  0  0  0  0  0
  192.4180  175.6440  147.2900 O   0  0  0  0  0  0  0  0  0  0  0  0
  190.6750  176.2950  145.8610 N   0  0  0  0  0  0  0  0  0  0  0  0
  189.7190  176.4350  146.9510 C   0  0  0  0  0  2  0  0  0  0  0  0
  189.5710  177.8970  147.3460 C   0  0  0  0  0  2  0  0  0  0  0  0
  189.2620  177.9970  148.7030 O   0  0  0  0  0  1  0  0  0  0  0  0
  182.4290  180.2680  138.5320 C   0  0  0  0  0  3  0  0  0  0  0  0
  182.7740  179.7250  139.7000 C   0  0  0  0  0  3  0  0  0  0  0  0
  181.9170  181.6690  138.4750 C   0  0  0  0  0  2  0  0  0  0  0  0
  180.4060  181.6710  138.2990 C   0  0  0  0  0  2  0  0  0  0  0  0
  179.5940  178.2110  136.7270 C   0  0  0  0  0  1  0  0  0  0  0  0
  179.8870  180.2780  138.1070 C   0  0  0  0  0  0  0  0  0  0  0  0
  180.0200  179.6030  136.8460 N   0  0  0  0  0  0  0  0  0  0  0  0
  179.3490  179.6930  139.0860 O   0  0  0  0  0  0  0  0  0  0  0  0
  181.1180  179.3470  134.6460 C   0  0  0  0  0  1  0  0  0  0  0  0
  180.5610  180.3110  135.6840 C   0  0  1  0  0  3  0  0  0  0  0  0
  179.5560  181.3090  135.0990 C   0  0  0  0  0  2  0  0  0  0  0  0
  178.9960  183.9630  136.1510 O   0  0  0  0  0  1  0  0  0  0  0  0
  180.5870  184.8030  134.7280 O   0  0  0  0  0  0  0  0  0  0  0  0
  180.2120  182.5110  134.5990 N   0  0  0  0  0  2  0  0  0  0  0  0
  179.9540  183.8020  135.1530 C   0  0  0  0  0  0  0  0  0  0  0  0
  184.3670  177.1260  136.2520 C   0  0  0  0  0  2  0  0  0  0  0  0
  184.2280  175.6050  136.2620 C   0  0  1  0  0  3  0  0  0  0  0  0
  181.8120  175.5140  135.5050 C   0  0  0  0  0  1  0  0  0  0  0  0
  183.2500  175.1340  135.1850 C   0  0  0  0  0  2  0  0  0  0  0  0
  185.5860  174.9240  136.1160 C   0  0  0  0  0  2  0  0  0  0  0  0
  185.8370  173.9560  137.2670 C   0  0  0  0  0  2  0  0  0  0  0  0
  187.1060  173.1430  137.0560 C   0  0  0  0  0  2  0  0  0  0  0  0
  188.9380  174.6390  136.8090 O   0  0  0  0  0  1  0  0  0  0  0  0
  188.0400  173.8510  136.0900 C   0  0  0  0  0  2  0  0  0  0  0  0
  1 16  1  0  0  0  0
  3  8  1  0  0  0  0
  4  7  2  0  0  0  0
  5 11  2  0  0  0  0
  6 12  2  0  0  0  0
  8 31  1  6  0  0  0
  8 16  1  0  0  0  0
  9 11  1  0  0  0  0
  9  3  2  0  0  0  0
 10  4  1  0  0  0  0
 10  2  2  0  0  0  0
 11  1  1  0  0  0  0
 12 10  1  0  0  0  0
 13  4  1  0  0  0  0
 14 15  2  0  0  0  0
 15 12  1  0  0  0  0
 15 13  1  0  0  0  0
 16 14  2  0  0  0  0
 17 22  1  6  0  0  0
 17 18  1  0  0  0  0
 18 26  1  1  0  0  0
 19  6  1  6  0  0  0
 19 20  1  0  0  0  0
 20 18  1  0  0  0  0
 23 21  1  6  0  0  0
 23 19  1  0  0  0  0
 23 17  1  0  0  0  0
 24 25  2  0  0  0  0
 26 24  1  0  0  0  0
 26 27  1  0  0  0  0
 27 28  1  0  0  0  0
 28 29  1  0  0  0  0
 30 31  2  0  0  0  0
 32 30  1  0  0  0  0
 33 32  1  0  0  0  0
 34 36  1  0  0  0  0
 35 33  1  0  0  0  0
 35 37  2  0  0  0  0
 36 35  1  0  0  0  0
 39 38  1  6  0  0  0
 39 36  1  0  0  0  0
 40 39  1  0  0  0  0
 42 44  2  0  0  0  0
 43 40  1  0  0  0  0
 43 44  1  0  0  0  0
 44 41  1  0  0  0  0
 45 46  1  0  0  0  0
 45  9  1  0  0  0  0
 46 48  1  6  0  0  0
 48 47  1  0  0  0  0
 49 46  1  0  0  0  0
 49 50  1  0  0  0  0
 51 50  1  0  0  0  0
 53 52  1  0  0  0  0
 53 51  1  0  0  0  0
M  END
>  <MODEL>
9

>  <REMARK>
 VINA RESULT:      -6.0      4.099      9.347
  Name = 
  18 active torsions:
  status: ('A' for Active; 'I' for Inactive)
    1  A    between atoms: C_1  and  C_47
    2  A    between atoms: C_1  and  N_48
    3  A    between atoms: C_6  and  C_16
    4  A    between atoms: C_6  and  C_26
    5  A    between atoms: C_9  and  C_41
    6  A    between atoms: C_9  and  C_44
    7  A    between atoms: C_9  and  C_50
    8  A    between atoms: C_12  and  N_48
    9  A    between atoms: C_14  and  C_19
   10  A    between atoms: C_16  and  C_18
   11  A    between atoms: C_17  and  C_22
   12  A    between atoms: C_20  and  N_27
   13  A    between atoms: C_20  and  C_31
   14  A    between atoms: C_21  and  C_50
   15  A    between atoms: C_30  and  C_38
   16  A    between atoms: C_31  and  N_42
   17  A    between atoms: C_38  and  C_51
   18  A    between atoms: C_44  and  C_51
                            x       y       z     vdW  Elec       q    Type
                         _______ _______ _______ _____ _____    ______ ____

>  <TORSDO>
F 18

$$$$
