=
 OpenBabel10222419533D

 37 40  0  0  1  0  0  0  0  0999 V2000
  188.6680  177.3020  137.8670 C   0  0  0  0  0  0  0  0  0  0  0  0
  189.5550  177.0620  140.0700 N   0  0  0  0  0  0  0  0  0  0  0  0
  187.4780  178.2190  139.7750 C   0  0  0  0  0  0  0  0  0  0  0  0
  187.5830  177.9930  138.4020 C   0  0  0  0  0  3  0  0  0  0  0  0
  188.5010  177.7280  140.6190 C   0  0  0  0  0  0  0  0  0  0  0  0
  189.6770  176.8350  138.7340 C   0  0  0  0  0  0  0  0  0  0  0  0
  188.6630  176.9640  136.1040 S   0  0  0  0  0  1  0  0  0  0  0  0
  192.6430  174.6960  136.1870 C   0  0  0  0  0  3  0  0  0  0  0  0
  192.3930  177.3390  139.7520 O   0  0  0  0  0  1  0  0  0  0  0  0
  193.2900  176.5080  137.7650 C   0  0  0  0  0  3  0  0  0  0  0  0
  190.8680  176.1060  138.2490 C   0  0  0  0  0  0  0  0  0  0  0  0
  191.7590  174.0260  137.1830 C   0  0  0  0  0  2  0  0  0  0  0  0
  190.6650  174.9370  137.6280 C   0  0  0  0  0  3  0  0  0  0  0  0
  193.3500  175.7880  136.4780 C   0  0  0  0  0  3  0  0  0  0  0  0
  192.2270  176.6230  138.5720 C   0  0  0  0  0  0  0  0  0  0  0  0
  188.9730  175.8920  143.2700 C   0  0  0  0  0  2  0  0  0  0  0  0
  190.2130  178.2210  142.6950 S   0  0  0  0  0  0  0  0  0  0  0  0
  190.1120  176.7500  143.7630 C   0  0  2  0  0  3  0  0  0  0  0  0
  187.8670  176.8360  142.8630 C   0  0  0  0  0  2  0  0  0  0  0  0
  188.5060  177.9830  142.0980 C   0  0  2  0  0  3  0  0  0  0  0  0
  191.4080  175.9630  143.7050 C   0  0  0  0  0  2  0  0  0  0  0  0
  191.9470  175.7990  145.0440 N   0  0  0  0  0  2  0  0  0  0  0  0
  191.5960  176.9970  145.7840 C   0  0  0  0  0  2  0  0  0  0  0  0
  191.2400  176.6370  147.1840 C   0  0  0  0  0  0  0  0  0  0  0  0
  191.9220  175.7840  147.8090 O   0  0  0  0  0  1  0  0  0  0  0  0
  190.1370  177.2230  147.7910 O   0  0  0  0  0  0  0  0  0  0  0  0
  186.3350  178.9480  140.2440 N   0  0  0  0  0  2  0  0  0  0  0  0
  184.4830  180.0090  139.3150 O   0  0  0  0  0  1  0  0  0  0  0  0
  184.9670  178.7850  139.7770 C   0  0  2  0  0  3  0  0  0  0  0  0
  184.1670  178.3390  140.8290 O   0  0  0  0  0  0  0  0  0  0  0  0
  184.6360  179.0310  141.9490 C   0  0  0  0  0  2  0  0  0  0  0  0
  183.6490  178.8940  143.0960 C   0  0  0  0  0  2  0  0  0  0  0  0
  183.8000  178.7620  145.4430 C   0  0  0  0  0  2  0  0  0  0  0  0
  185.7720  178.9720  146.9190 C   0  0  0  0  0  1  0  0  0  0  0  0
  185.2190  178.2980  145.6790 C   0  0  2  0  0  3  0  0  0  0  0  0
  185.5420  179.1350  144.4610 C   0  0  0  0  0  2  0  0  0  0  0  0
  184.1610  179.5700  144.2840 N   0  0  0  0  0  0  0  0  0  0  0  0
  1  4  2  0  0  0  0
  1  6  1  0  0  0  0
  2  5  1  0  0  0  0
  3 27  1  0  0  0  0
  3  5  2  0  0  0  0
  4  3  1  0  0  0  0
  6  2  2  0  0  0  0
  7  1  1  0  0  0  0
  8 14  2  0  0  0  0
  8 12  1  0  0  0  0
 10 15  2  0  0  0  0
 11 15  1  0  0  0  0
 11  6  1  0  0  0  0
 12 13  1  0  0  0  0
 13 11  2  0  0  0  0
 14 10  1  0  0  0  0
 15  9  1  0  0  0  0
 16 18  1  0  0  0  0
 17 18  1  0  0  0  0
 18 21  1  6  0  0  0
 19 16  1  0  0  0  0
 20  5  1  6  0  0  0
 20 17  1  0  0  0  0
 20 19  1  0  0  0  0
 21 22  1  0  0  0  0
 22 23  1  0  0  0  0
 23 24  1  0  0  0  0
 24 26  2  0  0  0  0
 24 25  1  0  0  0  0
 29 28  1  1  0  0  0
 29 27  1  0  0  0  0
 29 30  1  0  0  0  0
 30 31  1  0  0  0  0
 31 32  1  0  0  0  0
 32 37  1  0  0  0  0
 33 35  1  0  0  0  0
 35 34  1  1  0  0  0
 36 35  1  0  0  0  0
 37 36  1  0  0  0  0
 37 33  1  0  0  0  0
M  END
>  <MODEL>
1

>  <REMARK>
 VINA RESULT:      -8.0      0.000      0.000
  Name = 
  12 active torsions:
  status: ('A' for Active; 'I' for Inactive)
    1  A    between atoms: C_1  and  C_9
    2  A    between atoms: C_1  and  N_13
    3  A    between atoms: C_5  and  N_29
    4  A    between atoms: C_11  and  C_35
    5  A    between atoms: C_12  and  C_20
    6  A    between atoms: N_13  and  C_17
    7  A    between atoms: C_15  and  N_32
    8  A    between atoms: C_15  and  C_37
    9  A    between atoms: C_17  and  C_18
   10  A    between atoms: N_29  and  C_31
   11  A    between atoms: C_31  and  O_34
   12  A    between atoms: O_34  and  C_37
                            x       y       z     vdW  Elec       q    Type
                         _______ _______ _______ _____ _____    ______ ____

>  <TORSDO>
F 12

$$$$
=
 OpenBabel10222419533D

 37 40  0  0  1  0  0  0  0  0999 V2000
  185.4330  178.5670  141.0790 C   0  0  0  0  0  0  0  0  0  0  0  0
  186.7380  178.3600  139.0920 N   0  0  0  0  0  0  0  0  0  0  0  0
  187.8580  178.5340  141.2020 C   0  0  0  0  0  0  0  0  0  0  0  0
  186.6110  178.6170  141.8220 C   0  0  0  0  0  3  0  0  0  0  0  0
  187.9050  178.3980  139.7950 C   0  0  0  0  0  0  0  0  0  0  0  0
  185.5120  178.4420  139.6770 C   0  0  0  0  0  0  0  0  0  0  0  0
  183.8750  178.5700  141.9720 S   0  0  0  0  0  1  0  0  0  0  0  0
  181.6860  177.2560  137.7250 C   0  0  0  0  0  3  0  0  0  0  0  0
  184.0530  180.8530  138.8260 O   0  0  0  0  0  1  0  0  0  0  0  0
  182.1270  179.5750  138.5130 C   0  0  0  0  0  3  0  0  0  0  0  0
  184.3140  178.3960  138.8130 C   0  0  0  0  0  0  0  0  0  0  0  0
  183.0270  177.1260  137.0860 C   0  0  0  0  0  2  0  0  0  0  0  0
  184.1180  177.2870  138.0890 C   0  0  0  0  0  3  0  0  0  0  0  0
  181.2870  178.3750  138.3290 C   0  0  0  0  0  3  0  0  0  0  0  0
  183.4560  179.6070  138.6850 C   0  0  0  0  0  0  0  0  0  0  0  0
  189.4080  176.2300  137.8840 C   0  0  0  0  0  2  0  0  0  0  0  0
  188.9240  178.8190  137.2920 S   0  0  0  0  0  0  0  0  0  0  0  0
  189.4830  177.1850  136.7180 C   0  0  2  0  0  3  0  0  0  0  0  0
  189.8540  177.0010  139.1020 C   0  0  0  0  0  2  0  0  0  0  0  0
  189.1990  178.3710  139.0380 C   0  0  2  0  0  3  0  0  0  0  0  0
  188.5980  176.6870  135.5910 C   0  0  0  0  0  2  0  0  0  0  0  0
  188.0040  175.4130  135.9560 N   0  0  0  0  0  2  0  0  0  0  0  0
  186.5680  175.5650  135.8120 C   0  0  0  0  0  2  0  0  0  0  0  0
  185.8750  174.3890  136.4030 C   0  0  0  0  0  0  0  0  0  0  0  0
  184.6890  174.1250  136.0770 O   0  0  0  0  0  0  0  0  0  0  0  0
  186.5290  173.5970  137.3380 O   0  0  0  0  0  1  0  0  0  0  0  0
  189.0230  178.6040  142.0380 N   0  0  0  0  0  2  0  0  0  0  0  0
  188.7750  176.3790  142.6760 O   0  0  0  0  0  1  0  0  0  0  0  0
  189.5720  177.5130  142.8290 C   0  0  2  0  0  3  0  0  0  0  0  0
  189.5970  177.8830  144.1740 O   0  0  0  0  0  0  0  0  0  0  0  0
  188.7450  176.9740  144.8080 C   0  0  0  0  0  2  0  0  0  0  0  0
  188.3070  177.5240  146.1540 C   0  0  0  0  0  2  0  0  0  0  0  0
  186.3280  178.5840  146.8690 C   0  0  0  0  0  2  0  0  0  0  0  0
  184.1430  178.7940  145.7330 C   0  0  0  0  0  1  0  0  0  0  0  0
  185.6420  178.9580  145.5760 C   0  0  2  0  0  3  0  0  0  0  0  0
  186.2390  177.6700  145.0540 C   0  0  0  0  0  2  0  0  0  0  0  0
  186.8690  177.3420  146.3280 N   0  0  0  0  0  0  0  0  0  0  0  0
  1  4  1  0  0  0  0
  1  7  1  0  0  0  0
  2  6  1  0  0  0  0
  2  5  2  0  0  0  0
  3  4  2  0  0  0  0
  3 27  1  0  0  0  0
  5  3  1  0  0  0  0
  6  1  2  0  0  0  0
  8 14  2  0  0  0  0
 10 15  2  0  0  0  0
 11  6  1  0  0  0  0
 12  8  1  0  0  0  0
 12 13  1  0  0  0  0
 13 11  2  0  0  0  0
 14 10  1  0  0  0  0
 15 11  1  0  0  0  0
 15  9  1  0  0  0  0
 16 19  1  0  0  0  0
 17 20  1  0  0  0  0
 18 21  1  6  0  0  0
 18 17  1  0  0  0  0
 18 16  1  0  0  0  0
 20 19  1  0  0  0  0
 20  5  1  1  0  0  0
 21 22  1  0  0  0  0
 23 22  1  0  0  0  0
 23 24  1  0  0  0  0
 24 26  1  0  0  0  0
 25 24  2  0  0  0  0
 27 29  1  0  0  0  0
 29 28  1  1  0  0  0
 29 30  1  0  0  0  0
 30 31  1  0  0  0  0
 31 32  1  0  0  0  0
 32 37  1  0  0  0  0
 35 34  1  1  0  0  0
 35 33  1  0  0  0  0
 36 35  1  0  0  0  0
 36 37  1  0  0  0  0
 37 33  1  0  0  0  0
M  END
>  <MODEL>
2

>  <REMARK>
 VINA RESULT:      -7.7      3.058      7.423
  Name = 
  12 active torsions:
  status: ('A' for Active; 'I' for Inactive)
    1  A    between atoms: C_1  and  C_9
    2  A    between atoms: C_1  and  N_13
    3  A    between atoms: C_5  and  N_29
    4  A    between atoms: C_11  and  C_35
    5  A    between atoms: C_12  and  C_20
    6  A    between atoms: N_13  and  C_17
    7  A    between atoms: C_15  and  N_32
    8  A    between atoms: C_15  and  C_37
    9  A    between atoms: C_17  and  C_18
   10  A    between atoms: N_29  and  C_31
   11  A    between atoms: C_31  and  O_34
   12  A    between atoms: O_34  and  C_37
                            x       y       z     vdW  Elec       q    Type
                         _______ _______ _______ _____ _____    ______ ____

>  <TORSDO>
F 12

$$$$
=
 OpenBabel10222419533D

 37 40  0  0  1  0  0  0  0  0999 V2000
  185.4220  178.8110  141.0270 C   0  0  0  0  0  0  0  0  0  0  0  0
  185.9970  178.4070  138.7460 N   0  0  0  0  0  0  0  0  0  0  0  0
  187.7190  178.3240  140.4080 C   0  0  0  0  0  0  0  0  0  0  0  0
  186.7590  178.6250  141.3740 C   0  0  0  0  0  3  0  0  0  0  0  0
  187.3080  178.2110  139.0600 C   0  0  0  0  0  0  0  0  0  0  0  0
  185.0450  178.7040  139.6720 C   0  0  0  0  0  0  0  0  0  0  0  0
  184.2400  179.0860  142.3490 S   0  0  0  0  0  1  0  0  0  0  0  0
  181.4300  179.8870  137.3530 C   0  0  0  0  0  3  0  0  0  0  0  0
  182.9300  176.6920  140.0540 O   0  0  0  0  0  1  0  0  0  0  0  0
  181.7550  177.5890  138.2490 C   0  0  0  0  0  3  0  0  0  0  0  0
  183.6540  178.9010  139.2150 C   0  0  0  0  0  0  0  0  0  0  0  0
  181.8570  180.5370  138.6250 C   0  0  0  0  0  2  0  0  0  0  0  0
  183.2550  180.1570  138.9790 C   0  0  0  0  0  3  0  0  0  0  0  0
  181.3550  178.5640  137.2150 C   0  0  0  0  0  3  0  0  0  0  0  0
  182.7280  177.7350  139.1570 C   0  0  0  0  0  0  0  0  0  0  0  0
  188.1440  175.6150  137.2770 C   0  0  0  0  0  2  0  0  0  0  0  0
  187.4370  178.0430  136.3330 S   0  0  0  0  0  0  0  0  0  0  0  0
  187.8110  176.2980  135.9740 C   0  0  2  0  0  3  0  0  0  0  0  0
  188.9500  176.6010  138.0880 C   0  0  0  0  0  2  0  0  0  0  0  0
  188.2820  177.9590  137.9460 C   0  0  2  0  0  3  0  0  0  0  0  0
  186.6140  175.6200  135.3330 C   0  0  0  0  0  2  0  0  0  0  0  0
  186.6360  174.1980  135.6280 N   0  0  0  0  0  2  0  0  0  0  0  0
  185.2610  173.8010  135.8690 C   0  0  0  0  0  2  0  0  0  0  0  0
  185.0160  173.6960  137.3330 C   0  0  0  0  0  0  0  0  0  0  0  0
  185.7310  172.9400  138.0400 O   0  0  0  0  0  1  0  0  0  0  0  0
  183.9790  174.4130  137.9150 O   0  0  0  0  0  0  0  0  0  0  0  0
  189.0750  178.1560  140.8470 N   0  0  0  0  0  2  0  0  0  0  0  0
  190.8620  178.0970  142.3380 O   0  0  0  0  0  1  0  0  0  0  0  0
  189.5010  177.8270  142.1990 C   0  0  2  0  0  3  0  0  0  0  0  0
  189.2710  176.4730  142.4410 O   0  0  0  0  0  0  0  0  0  0  0  0
  189.1960  176.3680  143.8320 C   0  0  0  0  0  2  0  0  0  0  0  0
  187.9110  177.0060  144.3330 C   0  0  0  0  0  2  0  0  0  0  0  0
  187.3360  177.6750  146.5180 C   0  0  0  0  0  2  0  0  0  0  0  0
  188.7820  178.1080  148.4750 C   0  0  0  0  0  1  0  0  0  0  0  0
  188.4650  177.1300  147.3610 C   0  0  2  0  0  3  0  0  0  0  0  0
  189.3240  177.4400  146.1550 C   0  0  0  0  0  2  0  0  0  0  0  0
  188.2060  177.9730  145.3850 N   0  0  0  0  0  0  0  0  0  0  0  0
  1  4  1  0  0  0  0
  1  7  1  0  0  0  0
  2  5  2  0  0  0  0
  2  6  1  0  0  0  0
  3 27  1  0  0  0  0
  3  4  2  0  0  0  0
  5  3  1  0  0  0  0
  6  1  2  0  0  0  0
  8 12  1  0  0  0  0
 10 15  2  0  0  0  0
 11  6  1  0  0  0  0
 12 13  1  0  0  0  0
 13 11  2  0  0  0  0
 14  8  2  0  0  0  0
 14 10  1  0  0  0  0
 15 11  1  0  0  0  0
 15  9  1  0  0  0  0
 16 19  1  0  0  0  0
 17 20  1  0  0  0  0
 18 21  1  1  0  0  0
 18 17  1  0  0  0  0
 18 16  1  0  0  0  0
 20 19  1  0  0  0  0
 20  5  1  1  0  0  0
 21 22  1  0  0  0  0
 22 23  1  0  0  0  0
 23 24  1  0  0  0  0
 24 26  2  0  0  0  0
 24 25  1  0  0  0  0
 27 29  1  0  0  0  0
 29 28  1  6  0  0  0
 29 30  1  0  0  0  0
 30 31  1  0  0  0  0
 31 32  1  0  0  0  0
 32 37  1  0  0  0  0
 33 35  1  0  0  0  0
 35 34  1  1  0  0  0
 36 35  1  0  0  0  0
 37 36  1  0  0  0  0
 37 33  1  0  0  0  0
M  END
>  <MODEL>
3

>  <REMARK>
 VINA RESULT:      -7.3      3.250      7.873
  Name = 
  12 active torsions:
  status: ('A' for Active; 'I' for Inactive)
    1  A    between atoms: C_1  and  C_9
    2  A    between atoms: C_1  and  N_13
    3  A    between atoms: C_5  and  N_29
    4  A    between atoms: C_11  and  C_35
    5  A    between atoms: C_12  and  C_20
    6  A    between atoms: N_13  and  C_17
    7  A    between atoms: C_15  and  N_32
    8  A    between atoms: C_15  and  C_37
    9  A    between atoms: C_17  and  C_18
   10  A    between atoms: N_29  and  C_31
   11  A    between atoms: C_31  and  O_34
   12  A    between atoms: O_34  and  C_37
                            x       y       z     vdW  Elec       q    Type
                         _______ _______ _______ _____ _____    ______ ____

>  <TORSDO>
F 12

$$$$
=
 OpenBabel10222419533D

 37 40  0  0  1  0  0  0  0  0999 V2000
  187.9620  178.0500  140.5130 C   0  0  0  0  0  0  0  0  0  0  0  0
  185.9950  178.4470  139.2210 N   0  0  0  0  0  0  0  0  0  0  0  0
  185.9530  178.9110  141.5700 C   0  0  0  0  0  0  0  0  0  0  0  0
  187.2800  178.4880  141.6460 C   0  0  0  0  0  3  0  0  0  0  0  0
  185.3080  178.8870  140.3120 C   0  0  0  0  0  0  0  0  0  0  0  0
  187.2890  178.0270  139.2750 C   0  0  0  0  0  0  0  0  0  0  0  0
  189.6990  177.6290  140.6870 S   0  0  0  0  0  1  0  0  0  0  0  0
  188.1730  175.9600  135.4270 C   0  0  0  0  0  3  0  0  0  0  0  0
  188.9440  179.7720  137.5780 O   0  0  0  0  0  1  0  0  0  0  0  0
  188.4960  178.4070  135.7400 C   0  0  0  0  0  3  0  0  0  0  0  0
  187.9320  177.5630  138.0270 C   0  0  0  0  0  0  0  0  0  0  0  0
  188.8200  175.6210  136.7270 C   0  0  0  0  0  2  0  0  0  0  0  0
  188.0910  176.2430  137.8690 C   0  0  0  0  0  3  0  0  0  0  0  0
  188.0700  177.2120  134.9850 C   0  0  0  0  0  3  0  0  0  0  0  0
  188.4820  178.5640  137.0700 C   0  0  0  0  0  0  0  0  0  0  0  0
  183.0480  178.3840  138.0190 C   0  0  0  0  0  2  0  0  0  0  0  0
  182.7910  177.8760  140.6580 S   0  0  0  0  0  0  0  0  0  0  0  0
  182.1040  177.7050  138.9810 C   0  0  2  0  0  3  0  0  0  0  0  0
  183.5450  179.6310  138.7090 C   0  0  0  0  0  2  0  0  0  0  0  0
  183.8640  179.2590  140.1470 C   0  0  2  0  0  3  0  0  0  0  0  0
  181.9630  176.2410  138.6110 C   0  0  0  0  0  2  0  0  0  0  0  0
  183.2760  175.6320  138.4960 N   0  0  0  0  0  2  0  0  0  0  0  0
  183.1950  174.6650  137.4170 C   0  0  0  0  0  2  0  0  0  0  0  0
  184.3270  174.8680  136.4730 C   0  0  0  0  0  0  0  0  0  0  0  0
  184.8980  175.9870  136.4030 O   0  0  0  0  0  1  0  0  0  0  0  0
  184.7360  173.8290  135.6470 O   0  0  0  0  0  0  0  0  0  0  0  0
  185.3200  179.3380  142.7850 N   0  0  0  0  0  2  0  0  0  0  0  0
  183.5920  178.5920  144.1560 O   0  0  0  0  0  1  0  0  0  0  0  0
  184.9600  178.4830  143.9060 C   0  0  2  0  0  3  0  0  0  0  0  0
  185.6700  178.8820  145.0390 O   0  0  0  0  0  0  0  0  0  0  0  0
  186.3740  177.7420  145.4360 C   0  0  0  0  0  2  0  0  0  0  0  0
  186.9430  177.9410  146.8310 C   0  0  0  0  0  2  0  0  0  0  0  0
  188.9840  177.7280  147.9880 C   0  0  0  0  0  2  0  0  0  0  0  0
  191.1490  176.8110  147.2260 C   0  0  0  0  0  1  0  0  0  0  0  0
  189.6560  176.5600  147.3030 C   0  0  2  0  0  3  0  0  0  0  0  0
  188.9890  177.0940  146.0550 C   0  0  0  0  0  2  0  0  0  0  0  0
  188.3740  178.2150  146.7560 N   0  0  0  0  0  0  0  0  0  0  0  0
  1  7  1  0  0  0  0
  1  4  1  0  0  0  0
  2  6  1  0  0  0  0
  2  5  2  0  0  0  0
  3  4  2  0  0  0  0
  3 27  1  0  0  0  0
  5  3  1  0  0  0  0
  6  1  2  0  0  0  0
  8 12  1  0  0  0  0
 10 15  2  0  0  0  0
 11  6  1  0  0  0  0
 12 13  1  0  0  0  0
 13 11  2  0  0  0  0
 14  8  2  0  0  0  0
 14 10  1  0  0  0  0
 15  9  1  0  0  0  0
 15 11  1  0  0  0  0
 16 19  1  0  0  0  0
 16 18  1  0  0  0  0
 18 21  1  6  0  0  0
 18 17  1  0  0  0  0
 19 20  1  0  0  0  0
 20  5  1  6  0  0  0
 20 17  1  0  0  0  0
 22 21  1  0  0  0  0
 23 22  1  0  0  0  0
 24 23  1  0  0  0  0
 25 24  1  0  0  0  0
 26 24  2  0  0  0  0
 27 29  1  0  0  0  0
 29 28  1  1  0  0  0
 29 30  1  0  0  0  0
 30 31  1  0  0  0  0
 31 32  1  0  0  0  0
 35 34  1  6  0  0  0
 35 33  1  0  0  0  0
 36 37  1  0  0  0  0
 36 35  1  0  0  0  0
 37 32  1  0  0  0  0
 37 33  1  0  0  0  0
M  END
>  <MODEL>
4

>  <REMARK>
 VINA RESULT:      -7.1      3.219      6.760
  Name = 
  12 active torsions:
  status: ('A' for Active; 'I' for Inactive)
    1  A    between atoms: C_1  and  C_9
    2  A    between atoms: C_1  and  N_13
    3  A    between atoms: C_5  and  N_29
    4  A    between atoms: C_11  and  C_35
    5  A    between atoms: C_12  and  C_20
    6  A    between atoms: N_13  and  C_17
    7  A    between atoms: C_15  and  N_32
    8  A    between atoms: C_15  and  C_37
    9  A    between atoms: C_17  and  C_18
   10  A    between atoms: N_29  and  C_31
   11  A    between atoms: C_31  and  O_34
   12  A    between atoms: O_34  and  C_37
                            x       y       z     vdW  Elec       q    Type
                         _______ _______ _______ _____ _____    ______ ____

>  <TORSDO>
F 12

$$$$
=
 OpenBabel10222419533D

 37 40  0  0  1  0  0  0  0  0999 V2000
  186.4180  178.4870  142.0130 C   0  0  0  0  0  0  0  0  0  0  0  0
  188.0620  178.1330  140.3190 N   0  0  0  0  0  0  0  0  0  0  0  0
  185.8270  178.6920  139.6670 C   0  0  0  0  0  0  0  0  0  0  0  0
  185.4770  178.7390  141.0170 C   0  0  0  0  0  3  0  0  0  0  0  0
  187.1640  178.3820  139.3260 C   0  0  0  0  0  0  0  0  0  0  0  0
  187.7410  178.1700  141.6410 C   0  0  0  0  0  0  0  0  0  0  0  0
  185.9040  178.6780  143.7220 S   0  0  0  0  0  1  0  0  0  0  0  0
  190.8310  178.5140  144.8330 C   0  0  0  0  0  3  0  0  0  0  0  0
  187.8310  175.6720  143.1970 O   0  0  0  0  0  1  0  0  0  0  0  0
  189.0780  176.7480  144.8490 C   0  0  0  0  0  3  0  0  0  0  0  0
  188.7970  177.8750  142.6320 C   0  0  0  0  0  0  0  0  0  0  0  0
  191.1400  178.3160  143.3880 C   0  0  0  0  0  2  0  0  0  0  0  0
  189.9380  178.5710  142.5420 C   0  0  0  0  0  3  0  0  0  0  0  0
  189.9290  177.7770  145.4800 C   0  0  0  0  0  3  0  0  0  0  0  0
  188.6080  176.7540  143.5940 C   0  0  0  0  0  0  0  0  0  0  0  0
  189.9770  177.6320  137.8620 C   0  0  0  0  0  2  0  0  0  0  0  0
  187.5750  176.4920  137.3920 S   0  0  0  0  0  0  0  0  0  0  0  0
  189.3740  176.4670  137.1170 C   0  0  2  0  0  3  0  0  0  0  0  0
  189.0180  178.7870  137.7040 C   0  0  0  0  0  2  0  0  0  0  0  0
  187.6130  178.2430  137.9010 C   0  0  2  0  0  3  0  0  0  0  0  0
  189.9710  175.1690  137.6280 C   0  0  0  0  0  2  0  0  0  0  0  0
  191.1450  175.4500  138.4360 N   0  0  0  0  0  2  0  0  0  0  0  0
  192.2900  174.9530  137.6960 C   0  0  0  0  0  2  0  0  0  0  0  0
  193.4460  175.8710  137.8790 C   0  0  0  0  0  0  0  0  0  0  0  0
  193.3870  176.7990  138.7270 O   0  0  0  0  0  1  0  0  0  0  0  0
  194.5810  175.7230  137.0930 O   0  0  0  0  0  0  0  0  0  0  0  0
  184.7960  178.9540  138.7030 N   0  0  0  0  0  2  0  0  0  0  0  0
  183.9500  177.2080  137.4160 O   0  0  0  0  0  1  0  0  0  0  0  0
  183.6420  178.1090  138.4360 C   0  0  2  0  0  3  0  0  0  0  0  0
  182.5660  178.9050  138.0410 O   0  0  0  0  0  0  0  0  0  0  0  0
  181.9380  179.2700  139.2350 C   0  0  0  0  0  2  0  0  0  0  0  0
  180.8270  178.2870  139.5600 C   0  0  0  0  0  2  0  0  0  0  0  0
  181.5150  178.8510  141.7410 C   0  0  0  0  0  2  0  0  0  0  0  0
  180.3610  178.5220  143.9020 C   0  0  0  0  0  1  0  0  0  0  0  0
  180.2120  179.0370  142.4840 C   0  0  2  0  0  3  0  0  0  0  0  0
  179.7110  177.9230  141.5920 C   0  0  0  0  0  2  0  0  0  0  0  0
  180.9930  177.7690  140.9140 N   0  0  0  0  0  0  0  0  0  0  0  0
  1  7  1  0  0  0  0
  2  6  2  0  0  0  0
  3  4  1  0  0  0  0
  4  1  2  0  0  0  0
  5  3  2  0  0  0  0
  5  2  1  0  0  0  0
  6  1  1  0  0  0  0
  6 11  1  0  0  0  0
  8 14  2  0  0  0  0
  9 15  1  0  0  0  0
 10 14  1  0  0  0  0
 11 15  1  0  0  0  0
 12  8  1  0  0  0  0
 13 11  2  0  0  0  0
 13 12  1  0  0  0  0
 15 10  2  0  0  0  0
 17 20  1  0  0  0  0
 18 17  1  0  0  0  0
 18 21  1  1  0  0  0
 18 16  1  0  0  0  0
 19 16  1  0  0  0  0
 19 20  1  0  0  0  0
 20  5  1  1  0  0  0
 21 22  1  0  0  0  0
 23 24  1  0  0  0  0
 23 22  1  0  0  0  0
 24 25  1  0  0  0  0
 26 24  2  0  0  0  0
 27  3  1  0  0  0  0
 29 28  1  6  0  0  0
 29 27  1  0  0  0  0
 30 29  1  0  0  0  0
 30 31  1  0  0  0  0
 31 32  1  0  0  0  0
 32 37  1  0  0  0  0
 33 35  1  0  0  0  0
 35 34  1  1  0  0  0
 36 35  1  0  0  0  0
 37 36  1  0  0  0  0
 37 33  1  0  0  0  0
M  END
>  <MODEL>
5

>  <REMARK>
 VINA RESULT:      -7.0      2.781      6.248
  Name = 
  12 active torsions:
  status: ('A' for Active; 'I' for Inactive)
    1  A    between atoms: C_1  and  C_9
    2  A    between atoms: C_1  and  N_13
    3  A    between atoms: C_5  and  N_29
    4  A    between atoms: C_11  and  C_35
    5  A    between atoms: C_12  and  C_20
    6  A    between atoms: N_13  and  C_17
    7  A    between atoms: C_15  and  N_32
    8  A    between atoms: C_15  and  C_37
    9  A    between atoms: C_17  and  C_18
   10  A    between atoms: N_29  and  C_31
   11  A    between atoms: C_31  and  O_34
   12  A    between atoms: O_34  and  C_37
                            x       y       z     vdW  Elec       q    Type
                         _______ _______ _______ _____ _____    ______ ____

>  <TORSDO>
F 12

$$$$
=
 OpenBabel10222419533D

 37 40  0  0  1  0  0  0  0  0999 V2000
  189.3310  177.1090  142.7950 C   0  0  0  0  0  0  0  0  0  0  0  0
  187.3300  178.2950  143.3330 N   0  0  0  0  0  0  0  0  0  0  0  0
  187.9620  178.0700  141.0340 C   0  0  0  0  0  0  0  0  0  0  0  0
  189.0880  177.3560  141.4450 C   0  0  0  0  0  3  0  0  0  0  0  0
  187.0650  178.5430  142.0200 C   0  0  0  0  0  0  0  0  0  0  0  0
  188.4240  177.6040  143.7550 C   0  0  0  0  0  0  0  0  0  0  0  0
  190.7440  176.0890  143.2220 S   0  0  0  0  0  1  0  0  0  0  0  0
  189.8650  177.8780  147.9630 C   0  0  0  0  0  3  0  0  0  0  0  0
  186.2040  177.0090  145.5950 O   0  0  0  0  0  1  0  0  0  0  0  0
  187.4480  177.8730  147.3700 C   0  0  0  0  0  3  0  0  0  0  0  0
  188.6130  177.4010  145.2070 C   0  0  0  0  0  0  0  0  0  0  0  0
  190.1810  176.7480  147.0420 C   0  0  0  0  0  2  0  0  0  0  0  0
  189.8460  177.0950  145.6310 C   0  0  0  0  0  3  0  0  0  0  0  0
  188.6270  178.3440  148.1240 C   0  0  0  0  0  3  0  0  0  0  0  0
  187.4290  177.4190  146.1100 C   0  0  0  0  0  0  0  0  0  0  0  0
  183.8680  177.9780  141.7500 C   0  0  0  0  0  2  0  0  0  0  0  0
  185.0290  179.9420  143.1930 S   0  0  0  0  0  0  0  0  0  0  0  0
  183.5110  179.0300  142.7710 C   0  0  2  0  0  3  0  0  0  0  0  0
  184.8770  178.6030  140.8190 C   0  0  0  0  0  2  0  0  0  0  0  0
  185.8670  179.3770  141.6750 C   0  0  2  0  0  3  0  0  0  0  0  0
  182.9290  178.3690  144.0060 C   0  0  0  0  0  2  0  0  0  0  0  0
  181.7060  179.0470  144.3990 N   0  0  0  0  0  2  0  0  0  0  0  0
  180.8860  179.1560  143.2070 C   0  0  0  0  0  2  0  0  0  0  0  0
  179.8680  178.0710  143.1960 C   0  0  0  0  0  0  0  0  0  0  0  0
  179.1570  177.8830  142.1750 O   0  0  0  0  0  0  0  0  0  0  0  0
  179.6810  177.2840  144.3250 O   0  0  0  0  0  1  0  0  0  0  0  0
  187.7900  178.2880  139.6260 N   0  0  0  0  0  2  0  0  0  0  0  0
  189.0560  179.3940  138.0140 O   0  0  0  0  0  1  0  0  0  0  0  0
  188.8220  178.1530  138.6080 C   0  0  2  0  0  3  0  0  0  0  0  0
  188.3980  177.2470  137.6360 O   0  0  0  0  0  0  0  0  0  0  0  0
  189.0380  176.0490  137.9650 C   0  0  0  0  0  2  0  0  0  0  0  0
  190.3600  175.9440  137.2240 C   0  0  0  0  0  2  0  0  0  0  0  0
  192.1430  174.4280  137.4890 C   0  0  0  0  0  2  0  0  0  0  0  0
  194.4870  174.8380  138.1560 C   0  0  0  0  0  1  0  0  0  0  0  0
  193.3670  175.2760  137.2330 C   0  0  2  0  0  3  0  0  0  0  0  0
  192.5670  176.3750  137.8950 C   0  0  0  0  0  2  0  0  0  0  0  0
  191.4150  175.5130  138.1350 N   0  0  0  0  0  0  0  0  0  0  0  0
  1  7  1  0  0  0  0
  1  6  1  0  0  0  0
  2  6  2  0  0  0  0
  3  4  1  0  0  0  0
  3  5  2  0  0  0  0
  4  1  2  0  0  0  0
  5  2  1  0  0  0  0
  6 11  1  0  0  0  0
  8 14  2  0  0  0  0
  9 15  1  0  0  0  0
 10 14  1  0  0  0  0
 11 13  2  0  0  0  0
 11 15  1  0  0  0  0
 12  8  1  0  0  0  0
 13 12  1  0  0  0  0
 15 10  2  0  0  0  0
 16 18  1  0  0  0  0
 18 17  1  0  0  0  0
 18 21  1  1  0  0  0
 19 20  1  0  0  0  0
 19 16  1  0  0  0  0
 20  5  1  1  0  0  0
 20 17  1  0  0  0  0
 21 22  1  0  0  0  0
 23 22  1  0  0  0  0
 24 23  1  0  0  0  0
 24 26  1  0  0  0  0
 25 24  2  0  0  0  0
 27  3  1  0  0  0  0
 29 28  1  6  0  0  0
 29 27  1  0  0  0  0
 30 31  1  0  0  0  0
 30 29  1  0  0  0  0
 32 31  1  0  0  0  0
 32 37  1  0  0  0  0
 33 37  1  0  0  0  0
 35 33  1  0  0  0  0
 35 36  1  0  0  0  0
 35 34  1  1  0  0  0
 36 37  1  0  0  0  0
M  END
>  <MODEL>
6

>  <REMARK>
 VINA RESULT:      -6.7      2.786      8.671
  Name = 
  12 active torsions:
  status: ('A' for Active; 'I' for Inactive)
    1  A    between atoms: C_1  and  C_9
    2  A    between atoms: C_1  and  N_13
    3  A    between atoms: C_5  and  N_29
    4  A    between atoms: C_11  and  C_35
    5  A    between atoms: C_12  and  C_20
    6  A    between atoms: N_13  and  C_17
    7  A    between atoms: C_15  and  N_32
    8  A    between atoms: C_15  and  C_37
    9  A    between atoms: C_17  and  C_18
   10  A    between atoms: N_29  and  C_31
   11  A    between atoms: C_31  and  O_34
   12  A    between atoms: O_34  and  C_37
                            x       y       z     vdW  Elec       q    Type
                         _______ _______ _______ _____ _____    ______ ____

>  <TORSDO>
F 12

$$$$
=
 OpenBabel10222419533D

 37 40  0  0  1  0  0  0  0  0999 V2000
  189.4080  177.0970  142.9370 C   0  0  0  0  0  0  0  0  0  0  0  0
  187.3970  178.2940  143.4070 N   0  0  0  0  0  0  0  0  0  0  0  0
  188.0990  178.0550  141.1300 C   0  0  0  0  0  0  0  0  0  0  0  0
  189.2080  177.3380  141.5790 C   0  0  0  0  0  3  0  0  0  0  0  0
  187.1740  178.5370  142.0850 C   0  0  0  0  0  0  0  0  0  0  0  0
  188.4740  177.5990  143.8660 C   0  0  0  0  0  0  0  0  0  0  0  0
  190.8020  176.0720  143.4130 S   0  0  0  0  0  1  0  0  0  0  0  0
  189.7860  177.8820  148.1150 C   0  0  0  0  0  3  0  0  0  0  0  0
  186.1940  177.0310  145.6400 O   0  0  0  0  0  1  0  0  0  0  0  0
  187.3880  177.8930  147.4490 C   0  0  0  0  0  3  0  0  0  0  0  0
  188.6160  177.4020  145.3240 C   0  0  0  0  0  0  0  0  0  0  0  0
  190.1220  176.7450  147.2100 C   0  0  0  0  0  2  0  0  0  0  0  0
  189.8330  177.0890  145.7870 C   0  0  0  0  0  3  0  0  0  0  0  0
  188.5480  178.3580  148.2360 C   0  0  0  0  0  3  0  0  0  0  0  0
  187.4050  177.4330  146.1900 C   0  0  0  0  0  0  0  0  0  0  0  0
  184.0050  177.9580  141.5960 C   0  0  0  0  0  2  0  0  0  0  0  0
  185.0550  179.8720  143.1840 S   0  0  0  0  0  0  0  0  0  0  0  0
  183.5750  178.9670  142.6330 C   0  0  2  0  0  3  0  0  0  0  0  0
  185.0640  178.6280  140.7550 C   0  0  0  0  0  2  0  0  0  0  0  0
  185.9910  179.3740  141.7000 C   0  0  2  0  0  3  0  0  0  0  0  0
  182.9250  178.2520  143.8020 C   0  0  0  0  0  2  0  0  0  0  0  0
  181.7810  179.0140  144.2710 N   0  0  0  0  0  2  0  0  0  0  0  0
  180.9350  179.2520  143.1160 C   0  0  0  0  0  2  0  0  0  0  0  0
  179.6910  178.4430  143.2280 C   0  0  0  0  0  0  0  0  0  0  0  0
  179.1600  178.2530  144.3530 O   0  0  0  0  0  1  0  0  0  0  0  0
  179.1320  177.8710  142.0930 O   0  0  0  0  0  0  0  0  0  0  0  0
  187.9720  178.2690  139.7160 N   0  0  0  0  0  2  0  0  0  0  0  0
  188.9660  179.3800  137.9280 O   0  0  0  0  0  1  0  0  0  0  0  0
  189.0600  178.2560  138.7500 C   0  0  2  0  0  3  0  0  0  0  0  0
  188.9740  177.1030  137.9690 O   0  0  0  0  0  0  0  0  0  0  0  0
  187.8880  177.3310  137.1200 C   0  0  0  0  0  2  0  0  0  0  0  0
  187.1620  176.0250  136.8420 C   0  0  0  0  0  2  0  0  0  0  0  0
  184.8630  175.5290  136.9760 C   0  0  0  0  0  2  0  0  0  0  0  0
  182.9150  177.0480  137.0290 C   0  0  0  0  0  1  0  0  0  0  0  0
  184.2760  176.7580  137.6300 C   0  0  2  0  0  3  0  0  0  0  0  0
  185.3400  177.5030  136.8550 C   0  0  0  0  0  2  0  0  0  0  0  0
  185.8620  176.2900  136.2350 N   0  0  0  0  0  0  0  0  0  0  0  0
  1  7  1  0  0  0  0
  1  6  1  0  0  0  0
  2  6  2  0  0  0  0
  3  4  1  0  0  0  0
  3  5  2  0  0  0  0
  4  1  2  0  0  0  0
  5  2  1  0  0  0  0
  6 11  1  0  0  0  0
  8 14  2  0  0  0  0
  9 15  1  0  0  0  0
 10 14  1  0  0  0  0
 11 13  2  0  0  0  0
 11 15  1  0  0  0  0
 12  8  1  0  0  0  0
 13 12  1  0  0  0  0
 15 10  2  0  0  0  0
 16 18  1  0  0  0  0
 18 17  1  0  0  0  0
 18 21  1  1  0  0  0
 19 16  1  0  0  0  0
 19 20  1  0  0  0  0
 20  5  1  1  0  0  0
 20 17  1  0  0  0  0
 21 22  1  0  0  0  0
 23 24  1  0  0  0  0
 23 22  1  0  0  0  0
 24 25  1  0  0  0  0
 26 24  2  0  0  0  0
 27  3  1  0  0  0  0
 29 28  1  6  0  0  0
 29 27  1  0  0  0  0
 30 29  1  0  0  0  0
 31 30  1  0  0  0  0
 32 31  1  0  0  0  0
 33 35  1  0  0  0  0
 35 34  1  6  0  0  0
 36 35  1  0  0  0  0
 37 32  1  0  0  0  0
 37 36  1  0  0  0  0
 37 33  1  0  0  0  0
M  END
>  <MODEL>
7

>  <REMARK>
 VINA RESULT:      -6.7      3.375      8.246
  Name = 
  12 active torsions:
  status: ('A' for Active; 'I' for Inactive)
    1  A    between atoms: C_1  and  C_9
    2  A    between atoms: C_1  and  N_13
    3  A    between atoms: C_5  and  N_29
    4  A    between atoms: C_11  and  C_35
    5  A    between atoms: C_12  and  C_20
    6  A    between atoms: N_13  and  C_17
    7  A    between atoms: C_15  and  N_32
    8  A    between atoms: C_15  and  C_37
    9  A    between atoms: C_17  and  C_18
   10  A    between atoms: N_29  and  C_31
   11  A    between atoms: C_31  and  O_34
   12  A    between atoms: O_34  and  C_37
                            x       y       z     vdW  Elec       q    Type
                         _______ _______ _______ _____ _____    ______ ____

>  <TORSDO>
F 12

$$$$
=
 OpenBabel10222419533D

 37 40  0  0  1  0  0  0  0  0999 V2000
  185.4950  178.6060  139.4400 C   0  0  0  0  0  0  0  0  0  0  0  0
  187.5070  177.9060  140.5170 N   0  0  0  0  0  0  0  0  0  0  0  0
  185.7690  178.8960  141.8350 C   0  0  0  0  0  0  0  0  0  0  0  0
  185.0090  179.0340  140.6730 C   0  0  0  0  0  3  0  0  0  0  0  0
  187.0520  178.3090  141.7360 C   0  0  0  0  0  0  0  0  0  0  0  0
  186.7820  178.0350  139.3720 C   0  0  0  0  0  0  0  0  0  0  0  0
  184.4040  178.7230  138.0190 S   0  0  0  0  0  1  0  0  0  0  0  0
  187.3900  176.3460  135.2930 C   0  0  0  0  0  3  0  0  0  0  0  0
  189.0590  179.3810  138.0790 O   0  0  0  0  0  1  0  0  0  0  0  0
  188.4110  178.4960  136.0200 C   0  0  0  0  0  3  0  0  0  0  0  0
  187.3800  177.5680  138.1030 C   0  0  0  0  0  0  0  0  0  0  0  0
  187.7640  175.6430  136.5540 C   0  0  0  0  0  2  0  0  0  0  0  0
  187.1440  176.3010  137.7400 C   0  0  0  0  0  3  0  0  0  0  0  0
  187.7210  177.6150  135.0570 C   0  0  0  0  0  3  0  0  0  0  0  0
  188.3060  178.4640  137.3560 C   0  0  0  0  0  0  0  0  0  0  0  0
  189.1600  176.0580  142.7880 C   0  0  0  0  0  2  0  0  0  0  0  0
  189.6580  178.6920  142.4720 S   0  0  0  0  0  0  0  0  0  0  0  0
  190.3160  177.0280  142.8050 C   0  0  2  0  0  3  0  0  0  0  0  0
  187.9980  176.7590  143.4490 C   0  0  0  0  0  2  0  0  0  0  0  0
  187.9650  178.1830  142.9200 C   0  0  2  0  0  3  0  0  0  0  0  0
  191.3280  176.6360  141.7450 C   0  0  0  0  0  2  0  0  0  0  0  0
  191.1400  177.4510  140.5580 N   0  0  0  0  0  2  0  0  0  0  0  0
  192.0370  176.9260  139.5450 C   0  0  0  0  0  2  0  0  0  0  0  0
  191.2500  176.2690  138.4670 C   0  0  0  0  0  0  0  0  0  0  0  0
  190.5560  175.2510  138.7220 O   0  0  0  0  0  1  0  0  0  0  0  0
  191.3040  176.7620  137.1700 O   0  0  0  0  0  0  0  0  0  0  0  0
  185.1990  179.3720  143.0640 N   0  0  0  0  0  2  0  0  0  0  0  0
  183.6220  178.6190  144.6020 O   0  0  0  0  0  1  0  0  0  0  0  0
  184.9750  178.5800  144.2640 C   0  0  2  0  0  3  0  0  0  0  0  0
  185.7300  179.1050  145.3130 O   0  0  0  0  0  0  0  0  0  0  0  0
  185.8150  178.0660  146.2440 C   0  0  0  0  0  2  0  0  0  0  0  0
  186.4750  178.5630  147.5190 C   0  0  0  0  0  2  0  0  0  0  0  0
  188.0430  176.9710  146.7720 C   0  0  0  0  0  2  0  0  0  0  0  0
  190.4440  176.7380  147.3110 C   0  0  0  0  0  1  0  0  0  0  0  0
  189.3620  177.7030  146.8710 C   0  0  2  0  0  3  0  0  0  0  0  0
  188.7430  178.3580  148.0850 C   0  0  0  0  0  2  0  0  0  0  0  0
  187.4940  177.6160  147.9590 N   0  0  0  0  0  0  0  0  0  0  0  0
  1  4  1  0  0  0  0
  2  5  2  0  0  0  0
  3 27  1  0  0  0  0
  4  3  2  0  0  0  0
  5  3  1  0  0  0  0
  6  1  2  0  0  0  0
  6  2  1  0  0  0  0
  7  1  1  0  0  0  0
  8 12  1  0  0  0  0
 10 15  2  0  0  0  0
 11  6  1  0  0  0  0
 12 13  1  0  0  0  0
 13 11  2  0  0  0  0
 14  8  2  0  0  0  0
 14 10  1  0  0  0  0
 15  9  1  0  0  0  0
 15 11  1  0  0  0  0
 16 18  1  0  0  0  0
 16 19  1  0  0  0  0
 17 18  1  0  0  0  0
 17 20  1  0  0  0  0
 18 21  1  6  0  0  0
 20  5  1  6  0  0  0
 20 19  1  0  0  0  0
 22 21  1  0  0  0  0
 23 22  1  0  0  0  0
 24 25  1  0  0  0  0
 24 23  1  0  0  0  0
 26 24  2  0  0  0  0
 27 29  1  0  0  0  0
 29 28  1  1  0  0  0
 29 30  1  0  0  0  0
 30 31  1  0  0  0  0
 31 32  1  0  0  0  0
 32 37  1  0  0  0  0
 33 35  1  0  0  0  0
 33 37  1  0  0  0  0
 35 34  1  1  0  0  0
 35 36  1  0  0  0  0
 37 36  1  0  0  0  0
M  END
>  <MODEL>
8

>  <REMARK>
 VINA RESULT:      -6.7      2.605      4.827
  Name = 
  12 active torsions:
  status: ('A' for Active; 'I' for Inactive)
    1  A    between atoms: C_1  and  C_9
    2  A    between atoms: C_1  and  N_13
    3  A    between atoms: C_5  and  N_29
    4  A    between atoms: C_11  and  C_35
    5  A    between atoms: C_12  and  C_20
    6  A    between atoms: N_13  and  C_17
    7  A    between atoms: C_15  and  N_32
    8  A    between atoms: C_15  and  C_37
    9  A    between atoms: C_17  and  C_18
   10  A    between atoms: N_29  and  C_31
   11  A    between atoms: C_31  and  O_34
   12  A    between atoms: O_34  and  C_37
                            x       y       z     vdW  Elec       q    Type
                         _______ _______ _______ _____ _____    ______ ____

>  <TORSDO>
F 12

$$$$
=
 OpenBabel10222419533D

 37 40  0  0  1  0  0  0  0  0999 V2000
  188.3700  178.1320  138.3390 C   0  0  0  0  0  0  0  0  0  0  0  0
  188.3810  177.5560  140.6560 N   0  0  0  0  0  0  0  0  0  0  0  0
  190.4010  177.3170  139.3920 C   0  0  0  0  0  0  0  0  0  0  0  0
  189.7160  177.7800  138.2680 C   0  0  0  0  0  3  0  0  0  0  0  0
  189.6990  177.2120  140.6140 C   0  0  0  0  0  0  0  0  0  0  0  0
  187.6940  178.0060  139.5700 C   0  0  0  0  0  0  0  0  0  0  0  0
  187.6020  178.8200  136.8700 S   0  0  0  0  0  1  0  0  0  0  0  0
  183.2400  177.8730  139.5800 C   0  0  0  0  0  3  0  0  0  0  0  0
  186.6660  179.6140  141.8110 O   0  0  0  0  0  1  0  0  0  0  0  0
  184.5630  178.6430  141.5420 C   0  0  0  0  0  3  0  0  0  0  0  0
  186.2640  178.3430  139.7310 C   0  0  0  0  0  0  0  0  0  0  0  0
  184.0510  178.6660  138.6120 C   0  0  0  0  0  2  0  0  0  0  0  0
  185.4840  178.2530  138.6470 C   0  0  0  0  0  3  0  0  0  0  0  0
  183.4610  177.9040  140.8930 C   0  0  0  0  0  3  0  0  0  0  0  0
  185.7790  178.8810  141.0330 C   0  0  0  0  0  0  0  0  0  0  0  0
  190.5300  178.4410  143.5150 C   0  0  0  0  0  2  0  0  0  0  0  0
  189.0580  176.2200  143.0810 S   0  0  0  0  0  0  0  0  0  0  0  0
  189.6870  177.4450  144.2730 C   0  0  2  0  0  3  0  0  0  0  0  0
  191.2980  177.6580  142.4780 C   0  0  0  0  0  2  0  0  0  0  0  0
  190.3350  176.6610  141.8560 C   0  0  2  0  0  3  0  0  0  0  0  0
  188.5370  178.1610  144.9540 C   0  0  0  0  0  2  0  0  0  0  0  0
  187.3890  177.2750  145.0450 N   0  0  0  0  0  2  0  0  0  0  0  0
  186.7920  177.4980  146.3490 C   0  0  0  0  0  2  0  0  0  0  0  0
  185.8300  178.6310  146.2750 C   0  0  0  0  0  0  0  0  0  0  0  0
  185.6610  179.3820  147.2700 O   0  0  0  0  0  1  0  0  0  0  0  0
  185.0950  178.8420  145.1150 O   0  0  0  0  0  0  0  0  0  0  0  0
  191.7840  176.9660  139.2310 N   0  0  0  0  0  2  0  0  0  0  0  0
  191.6990  174.9390  138.0890 O   0  0  0  0  0  1  0  0  0  0  0  0
  192.3430  176.1750  138.1450 C   0  0  2  0  0  3  0  0  0  0  0  0
  193.7050  175.9780  138.3690 O   0  0  0  0  0  0  0  0  0  0  0  0
  193.9510  174.6720  137.9340 C   0  0  0  0  0  2  0  0  0  0  0  0
  194.8850  174.6910  136.7360 C   0  0  0  0  0  2  0  0  0  0  0  0
  196.7290  174.1340  138.0920 C   0  0  0  0  0  2  0  0  0  0  0  0
  199.1290  173.9860  137.5200 C   0  0  0  0  0  1  0  0  0  0  0  0
  197.7300  173.5710  137.1100 C   0  0  2  0  0  3  0  0  0  0  0  0
  197.1570  174.5960  136.1570 C   0  0  0  0  0  2  0  0  0  0  0  0
  196.2190  175.1180  137.1440 N   0  0  0  0  0  0  0  0  0  0  0  0
  1  6  1  0  0  0  0
  3  5  2  0  0  0  0
  4  1  2  0  0  0  0
  4  3  1  0  0  0  0
  5  2  1  0  0  0  0
  6 11  1  0  0  0  0
  6  2  2  0  0  0  0
  7  1  1  0  0  0  0
  8 14  2  0  0  0  0
 11 15  1  0  0  0  0
 12 13  1  0  0  0  0
 12  8  1  0  0  0  0
 13 11  2  0  0  0  0
 14 10  1  0  0  0  0
 15 10  2  0  0  0  0
 15  9  1  0  0  0  0
 16 18  1  0  0  0  0
 17 18  1  0  0  0  0
 18 21  1  6  0  0  0
 19 16  1  0  0  0  0
 20  5  1  6  0  0  0
 20 19  1  0  0  0  0
 20 17  1  0  0  0  0
 21 22  1  0  0  0  0
 22 23  1  0  0  0  0
 24 23  1  0  0  0  0
 24 25  1  0  0  0  0
 26 24  2  0  0  0  0
 27  3  1  0  0  0  0
 29 28  1  1  0  0  0
 29 30  1  0  0  0  0
 29 27  1  0  0  0  0
 31 30  1  0  0  0  0
 32 37  1  0  0  0  0
 32 31  1  0  0  0  0
 35 34  1  1  0  0  0
 35 33  1  0  0  0  0
 36 35  1  0  0  0  0
 36 37  1  0  0  0  0
 37 33  1  0  0  0  0
M  END
>  <MODEL>
9

>  <REMARK>
 VINA RESULT:      -6.6      2.865      8.434
  Name = 
  12 active torsions:
  status: ('A' for Active; 'I' for Inactive)
    1  A    between atoms: C_1  and  C_9
    2  A    between atoms: C_1  and  N_13
    3  A    between atoms: C_5  and  N_29
    4  A    between atoms: C_11  and  C_35
    5  A    between atoms: C_12  and  C_20
    6  A    between atoms: N_13  and  C_17
    7  A    between atoms: C_15  and  N_32
    8  A    between atoms: C_15  and  C_37
    9  A    between atoms: C_17  and  C_18
   10  A    between atoms: N_29  and  C_31
   11  A    between atoms: C_31  and  O_34
   12  A    between atoms: O_34  and  C_37
                            x       y       z     vdW  Elec       q    Type
                         _______ _______ _______ _____ _____    ______ ____

>  <TORSDO>
F 12

$$$$
