=
 OpenBabel10222420223D

 47 54  0  0  1  0  0  0  0  0999 V2000
  189.5270  176.6500  137.9040 N   0  0  0  0  0  0  0  0  0  0  0  0
  187.6130  174.8370  136.4680 C   0  0  0  0  0  2  0  0  0  0  0  0
  189.2210  177.2820  140.1350 N   0  0  0  0  0  0  0  0  0  0  0  0
  191.7320  176.6420  136.9120 N   0  0  0  0  0  0  0  0  0  0  0  0
  193.6950  177.2400  139.8260 N   0  0  0  0  0  0  0  0  0  0  0  0
  190.0320  172.1000  135.5840 C   0  0  0  0  0  3  0  0  0  0  0  0
  193.5470  177.0690  138.4320 N   0  0  0  0  0  0  0  0  0  0  0  0
  188.8630  172.8380  135.7640 C   0  0  0  0  0  3  0  0  0  0  0  0
  188.9170  174.1740  136.1770 C   0  0  0  0  0  0  0  0  0  0  0  0
  190.1170  176.7100  139.1940 C   0  0  2  0  0  3  0  0  0  0  0  0
  188.3050  177.3980  138.0390 C   0  0  0  0  0  0  0  0  0  0  0  0
  188.1240  177.7270  139.3290 C   0  0  0  0  0  0  0  0  0  0  0  0
  190.1750  174.8060  136.3820 C   0  0  0  0  0  0  0  0  0  0  0  0
  192.3370  177.1100  140.4080 C   0  0  0  0  0  3  0  0  0  0  0  0
  189.5230  177.7150  141.4920 C   0  0  0  0  0  1  0  0  0  0  0  0
  191.2770  172.6900  135.8130 C   0  0  0  0  0  0  0  0  0  0  0  0
  190.3080  176.2920  136.7000 C   0  0  1  0  0  3  0  0  0  0  0  0
  187.3500  177.7490  136.9060 C   0  0  2  0  0  3  0  0  0  0  0  0
  191.4450  176.6670  139.3000 C   0  0  0  0  0  0  0  0  0  0  0  0
  191.3410  174.0380  136.1970 C   0  0  0  0  0  3  0  0  0  0  0  0
  187.1710  175.7670  135.3490 C   0  0  0  0  0  2  0  0  0  0  0  0
  192.2350  176.6690  138.1130 C   0  0  0  0  0  0  0  0  0  0  0  0
  187.7440  177.1690  135.5470 C   0  0  0  0  0  2  0  0  0  0  0  0
  193.5720  172.0650  136.4900 O   0  0  0  0  0  0  0  0  0  0  0  0
  193.9740  170.3560  135.2640 N   0  0  0  0  0  0  0  0  0  0  0  0
  192.7420  170.7940  134.9410 C   0  0  0  0  0  3  0  0  0  0  0  0
  194.4470  171.1550  136.2110 N   0  0  0  0  0  0  0  0  0  0  0  0
  192.5100  171.8920  135.7450 C   0  0  0  0  0  0  0  0  0  0  0  0
  188.2630  179.9890  136.9120 O   0  0  0  0  0  1  0  0  0  0  0  0
  187.0810  179.2490  136.7930 C   0  0  0  0  0  2  0  0  0  0  0  0
  187.0110  178.5740  139.8630 C   0  0  0  0  0  2  0  0  0  0  0  0
  186.7090  178.1630  141.3020 C   0  0  0  0  0  2  0  0  0  0  0  0
  184.4160  178.9500  140.6420 C   0  0  0  0  0  1  0  0  0  0  0  0
  185.3730  178.7100  141.8010 C   0  0  1  0  0  3  0  0  0  0  0  0
  184.7850  177.8230  142.7260 O   0  0  0  0  0  0  0  0  0  0  0  0
  185.1960  178.6360  145.8040 C   0  0  2  0  0  3  0  0  0  0  0  0
  184.3800  177.8360  144.9770 O   0  0  0  0  0  0  0  0  0  0  0  0
  184.7070  179.9510  143.9330 C   0  0  0  0  0  2  0  0  0  0  0  0
  185.7090  179.8170  145.0270 C   0  0  0  0  0  2  0  0  0  0  0  0
  184.1490  178.5400  143.7740 C   0  0  1  0  0  0  0  0  0  0  0  0
  182.6400  178.6090  143.5540 C   0  0  0  0  0  1  0  0  0  0  0  0
  186.3490  177.8270  146.3950 C   0  0  0  0  0  3  0  0  0  0  0  0
  188.0520  177.6110  148.2410 C   0  0  0  0  0  2  0  0  0  0  0  0
  187.3710  177.4790  145.3020 C   0  0  0  0  0  2  0  0  0  0  0  0
  188.8760  176.8060  147.2180 C   0  0  0  0  0  2  0  0  0  0  0  0
  187.0060  178.5210  147.5960 C   0  0  0  0  0  2  0  0  0  0  0  0
  188.8130  177.4200  145.8190 C   0  0  0  0  0  2  0  0  0  0  0  0
  1 11  1  0  0  0  0
  1 10  1  0  0  0  0
  3 15  1  0  0  0  0
  4 22  2  0  0  0  0
  5 14  1  0  0  0  0
  6  8  2  0  0  0  0
  6 16  1  0  0  0  0
  7  5  2  0  0  0  0
  8  9  1  0  0  0  0
  9 13  2  0  0  0  0
  9  2  1  0  0  0  0
 10 19  1  6  0  0  0
 10  3  1  0  0  0  0
 11 12  2  0  0  0  0
 12 31  1  0  0  0  0
 12  3  1  0  0  0  0
 16 20  2  0  0  0  0
 17 13  1  1  0  0  0
 17  4  1  0  0  0  0
 17  1  1  0  0  0  0
 18 30  1  6  0  0  0
 18 11  1  0  0  0  0
 19 14  2  0  0  0  0
 20 13  1  0  0  0  0
 21 23  1  0  0  0  0
 21  2  1  0  0  0  0
 22  7  1  0  0  0  0
 22 19  1  0  0  0  0
 23 18  1  0  0  0  0
 25 27  2  0  0  0  0
 26 25  1  0  0  0  0
 26 28  2  0  0  0  0
 27 24  1  0  0  0  0
 28 16  1  0  0  0  0
 28 24  1  0  0  0  0
 30 29  1  0  0  0  0
 31 32  1  0  0  0  0
 32 34  1  0  0  0  0
 34 33  1  6  0  0  0
 34 35  1  0  0  0  0
 35 40  1  0  0  0  0
 36 42  1  6  0  0  0
 37 36  1  0  0  0  0
 38 39  1  0  0  0  0
 39 36  1  0  0  0  0
 40 41  1  6  0  0  0
 40 38  1  0  0  0  0
 40 37  1  0  0  0  0
 42 46  1  0  0  0  0
 44 47  1  0  0  0  0
 44 42  1  0  0  0  0
 45 43  1  0  0  0  0
 46 43  1  0  0  0  0
 47 45  1  0  0  0  0
M  END
>  <MODEL>
1

>  <REMARK>
 VINA RESULT:      -8.1      0.000      0.000
  Name = 
  8 active torsions:
  status: ('A' for Active; 'I' for Inactive)
    1  A    between atoms: C_4  and  C_6
    2  A    between atoms: C_15  and  O_36
    3  A    between atoms: C_15  and  C_40
    4  A    between atoms: C_22  and  C_24
    5  A    between atoms: C_24  and  C_40
    6  A    between atoms: C_30  and  O_36
    7  A    between atoms: C_31  and  C_35
    8  A    between atoms: C_33  and  C_37
                            x       y       z     vdW  Elec       q    Type
                         _______ _______ _______ _____ _____    ______ ____

>  <TORSDO>
F 8

$$$$
=
 OpenBabel10222420223D

 47 54  0  0  1  0  0  0  0  0999 V2000
  189.5870  176.9380  139.4750 N   0  0  0  0  0  0  0  0  0  0  0  0
  190.1800  176.1580  142.3130 C   0  0  0  0  0  2  0  0  0  0  0  0
  189.6710  175.4050  137.7100 N   0  0  0  0  0  0  0  0  0  0  0  0
  188.2130  178.9210  139.3270 N   0  0  0  0  0  0  0  0  0  0  0  0
  186.4490  178.1970  136.3150 N   0  0  0  0  0  0  0  0  0  0  0  0
  186.8820  177.1270  143.8320 C   0  0  0  0  0  3  0  0  0  0  0  0
  186.7890  179.0450  137.3920 N   0  0  0  0  0  0  0  0  0  0  0  0
  188.1620  176.6090  143.6480 C   0  0  0  0  0  3  0  0  0  0  0  0
  188.8750  176.8630  142.4700 C   0  0  0  0  0  0  0  0  0  0  0  0
  188.8800  176.3760  138.3800 C   0  0  2  0  0  3  0  0  0  0  0  0
  190.9240  176.4240  139.3330 C   0  0  0  0  0  0  0  0  0  0  0  0
  190.9520  175.5210  138.3380 C   0  0  0  0  0  0  0  0  0  0  0  0
  188.3090  177.6890  141.4590 C   0  0  0  0  0  0  0  0  0  0  0  0
  187.2180  176.9430  136.5150 C   0  0  0  0  0  3  0  0  0  0  0  0
  189.3950  174.7740  136.4280 C   0  0  0  0  0  1  0  0  0  0  0  0
  186.2920  177.9120  142.8380 C   0  0  0  0  0  0  0  0  0  0  0  0
  189.0820  178.1140  140.2150 C   0  0  1  0  0  3  0  0  0  0  0  0
  192.1230  176.8220  140.1860 C   0  0  2  0  0  3  0  0  0  0  0  0
  187.8560  177.0510  137.8570 C   0  0  0  0  0  0  0  0  0  0  0  0
  187.0120  178.1970  141.6680 C   0  0  0  0  0  3  0  0  0  0  0  0
  191.3680  177.0660  142.5850 C   0  0  0  0  0  2  0  0  0  0  0  0
  187.5690  178.3600  138.3430 C   0  0  0  0  0  0  0  0  0  0  0  0
  191.7950  177.8000  141.3150 C   0  0  0  0  0  2  0  0  0  0  0  0
  183.9830  178.2820  142.0340 O   0  0  0  0  0  0  0  0  0  0  0  0
  183.0110  179.0970  143.7600 N   0  0  0  0  0  0  0  0  0  0  0  0
  184.2990  178.8890  144.0920 C   0  0  0  0  0  3  0  0  0  0  0  0
  182.8560  178.7140  142.4990 N   0  0  0  0  0  0  0  0  0  0  0  0
  184.8990  178.3640  142.9660 C   0  0  0  0  0  0  0  0  0  0  0  0
  194.5200  176.8660  139.8690 O   0  0  0  0  0  1  0  0  0  0  0  0
  193.3020  177.3300  139.3590 C   0  0  0  0  0  2  0  0  0  0  0  0
  192.1750  174.8240  137.8310 C   0  0  0  0  0  2  0  0  0  0  0  0
  191.7590  173.6730  136.9180 C   0  0  0  0  0  2  0  0  0  0  0  0
  193.5310  174.1380  135.2000 C   0  0  0  0  0  1  0  0  0  0  0  0
  192.9320  173.0940  136.1300 C   0  0  1  0  0  3  0  0  0  0  0  0
  193.9270  172.6070  137.0020 O   0  0  0  0  0  0  0  0  0  0  0  0
  196.6720  171.2410  136.0540 C   0  0  2  0  0  3  0  0  0  0  0  0
  195.4190  171.6530  135.5550 O   0  0  0  0  0  0  0  0  0  0  0  0
  195.1020  170.5580  137.6460 C   0  0  0  0  0  2  0  0  0  0  0  0
  196.5500  170.8790  137.5090 C   0  0  0  0  0  2  0  0  0  0  0  0
  194.4410  171.3690  136.5350 C   0  0  1  0  0  0  0  0  0  0  0  0
  193.3470  170.5340  135.8750 C   0  0  0  0  0  1  0  0  0  0  0  0
  197.7340  172.3210  135.8470 C   0  0  0  0  0  3  0  0  0  0  0  0
  199.1800  174.0940  136.9040 C   0  0  0  0  0  2  0  0  0  0  0  0
  197.3510  173.2240  134.6650 C   0  0  0  0  0  2  0  0  0  0  0  0
  199.1800  174.7490  135.5100 C   0  0  0  0  0  2  0  0  0  0  0  0
  198.0130  173.1290  137.1210 C   0  0  0  0  0  2  0  0  0  0  0  0
  197.8080  174.6770  134.8410 C   0  0  0  0  0  2  0  0  0  0  0  0
  1 17  1  0  0  0  0
  2  9  1  0  0  0  0
  2 21  1  0  0  0  0
  3 12  1  0  0  0  0
  3 10  1  0  0  0  0
  5 14  1  0  0  0  0
  5  7  2  0  0  0  0
  7 22  1  0  0  0  0
  8  6  1  0  0  0  0
  9  8  2  0  0  0  0
 10 19  1  6  0  0  0
 10  1  1  0  0  0  0
 11  1  1  0  0  0  0
 11 18  1  0  0  0  0
 12 11  2  0  0  0  0
 13 20  2  0  0  0  0
 13  9  1  0  0  0  0
 14 19  2  0  0  0  0
 15  3  1  0  0  0  0
 16 28  1  0  0  0  0
 16  6  2  0  0  0  0
 17  4  1  6  0  0  0
 17 13  1  0  0  0  0
 18 30  1  6  0  0  0
 18 23  1  0  0  0  0
 19 22  1  0  0  0  0
 20 16  1  0  0  0  0
 22  4  2  0  0  0  0
 23 21  1  0  0  0  0
 24 27  1  0  0  0  0
 24 28  1  0  0  0  0
 25 26  1  0  0  0  0
 27 25  2  0  0  0  0
 28 26  2  0  0  0  0
 30 29  1  0  0  0  0
 31 12  1  0  0  0  0
 32 31  1  0  0  0  0
 34 33  1  6  0  0  0
 34 32  1  0  0  0  0
 34 35  1  0  0  0  0
 36 42  1  1  0  0  0
 36 39  1  0  0  0  0
 37 36  1  0  0  0  0
 37 40  1  0  0  0  0
 39 38  1  0  0  0  0
 40 41  1  6  0  0  0
 40 35  1  0  0  0  0
 40 38  1  0  0  0  0
 42 46  1  0  0  0  0
 43 46  1  0  0  0  0
 44 47  1  0  0  0  0
 44 42  1  0  0  0  0
 45 43  1  0  0  0  0
 47 45  1  0  0  0  0
M  END
>  <MODEL>
2

>  <REMARK>
 VINA RESULT:      -8.1      3.297     10.860
  Name = 
  8 active torsions:
  status: ('A' for Active; 'I' for Inactive)
    1  A    between atoms: C_4  and  C_6
    2  A    between atoms: C_15  and  O_36
    3  A    between atoms: C_15  and  C_40
    4  A    between atoms: C_22  and  C_24
    5  A    between atoms: C_24  and  C_40
    6  A    between atoms: C_30  and  O_36
    7  A    between atoms: C_31  and  C_35
    8  A    between atoms: C_33  and  C_37
                            x       y       z     vdW  Elec       q    Type
                         _______ _______ _______ _____ _____    ______ ____

>  <TORSDO>
F 8

$$$$
=
 OpenBabel10222420223D

 47 54  0  0  1  0  0  0  0  0999 V2000
  186.3290  176.6190  137.4210 N   0  0  0  0  0  0  0  0  0  0  0  0
  188.3460  177.8440  139.2780 C   0  0  0  0  0  2  0  0  0  0  0  0
  186.4420  174.3820  136.7470 N   0  0  0  0  0  0  0  0  0  0  0  0
  184.2220  177.8040  137.4300 N   0  0  0  0  0  0  0  0  0  0  0  0
  182.0130  175.0880  136.7580 N   0  0  0  0  0  0  0  0  0  0  0  0
  185.9880  178.8880  142.0110 C   0  0  0  0  0  3  0  0  0  0  0  0
  182.2840  176.4610  136.9580 N   0  0  0  0  0  0  0  0  0  0  0  0
  187.1430  178.6180  141.2800 C   0  0  0  0  0  3  0  0  0  0  0  0
  187.0660  178.2370  139.9350 C   0  0  0  0  0  0  0  0  0  0  0  0
  185.6280  175.3880  137.3300 C   0  0  2  0  0  3  0  0  0  0  0  0
  187.5420  176.3900  136.6810 C   0  0  0  0  0  0  0  0  0  0  0  0
  187.6110  175.0950  136.3270 C   0  0  0  0  0  0  0  0  0  0  0  0
  185.8020  178.1580  139.2890 C   0  0  0  0  0  0  0  0  0  0  0  0
  183.3120  174.3850  136.8870 C   0  0  0  0  0  3  0  0  0  0  0  0
  186.0240  173.0660  136.2850 C   0  0  0  0  0  1  0  0  0  0  0  0
  184.7330  178.7820  141.4070 C   0  0  0  0  0  0  0  0  0  0  0  0
  185.6560  177.8810  137.7960 C   0  0  1  0  0  3  0  0  0  0  0  0
  188.5980  177.4390  136.3590 C   0  0  2  0  0  3  0  0  0  0  0  0
  184.2950  175.4010  137.3600 C   0  0  0  0  0  0  0  0  0  0  0  0
  184.6490  178.4310  140.0510 C   0  0  0  0  0  3  0  0  0  0  0  0
  188.8950  178.9360  138.3740 C   0  0  0  0  0  2  0  0  0  0  0  0
  183.6140  176.6530  137.3750 C   0  0  0  0  0  0  0  0  0  0  0  0
  188.3210  178.8170  136.9630 C   0  0  0  0  0  2  0  0  0  0  0  0
  182.2900  179.0150  141.7090 O   0  0  0  0  0  0  0  0  0  0  0  0
  182.0860  179.0840  143.8400 N   0  0  0  0  0  0  0  0  0  0  0  0
  183.4020  178.9890  143.5710 C   0  0  0  0  0  3  0  0  0  0  0  0
  181.4410  179.0960  142.6810 N   0  0  0  0  0  0  0  0  0  0  0  0
  183.5040  178.9450  142.1960 C   0  0  0  0  0  0  0  0  0  0  0  0
  190.2510  177.3720  134.5950 O   0  0  0  0  0  1  0  0  0  0  0  0
  188.8900  177.5560  134.8640 C   0  0  0  0  0  2  0  0  0  0  0  0
  188.6800  174.4800  135.4790 C   0  0  0  0  0  2  0  0  0  0  0  0
  189.3510  173.3490  136.2540 C   0  0  0  0  0  2  0  0  0  0  0  0
  191.4740  172.6330  135.1160 C   0  0  0  0  0  1  0  0  0  0  0  0
  190.8750  173.4560  136.2470 C   0  0  1  0  0  3  0  0  0  0  0  0
  191.2810  174.8010  136.1230 O   0  0  0  0  0  0  0  0  0  0  0  0
  194.0350  174.2810  137.6870 C   0  0  2  0  0  3  0  0  0  0  0  0
  192.6430  174.0860  137.8150 O   0  0  0  0  0  0  0  0  0  0  0  0
  193.0480  176.2720  136.9610 C   0  0  0  0  0  2  0  0  0  0  0  0
  194.3060  175.4860  136.8290 C   0  0  0  0  0  2  0  0  0  0  0  0
  191.9900  175.2190  137.2790 C   0  0  1  0  0  0  0  0  0  0  0  0
  191.0380  175.7570  138.3430 C   0  0  0  0  0  1  0  0  0  0  0  0
  194.7180  173.0390  137.1160 C   0  0  0  0  0  3  0  0  0  0  0  0
  196.5080  171.2880  137.4070 C   0  0  0  0  0  2  0  0  0  0  0  0
  195.0530  173.2500  135.6320 C   0  0  0  0  0  2  0  0  0  0  0  0
  196.4680  171.1690  135.8720 C   0  0  0  0  0  2  0  0  0  0  0  0
  195.9490  172.6130  137.9290 C   0  0  0  0  0  2  0  0  0  0  0  0
  196.3350  172.5330  135.1930 C   0  0  0  0  0  2  0  0  0  0  0  0
  1 17  1  0  0  0  0
  2  9  1  0  0  0  0
  3 10  1  0  0  0  0
  5 14  1  0  0  0  0
  5  7  2  0  0  0  0
  7 22  1  0  0  0  0
  8  6  2  0  0  0  0
  9  8  1  0  0  0  0
 10 19  1  6  0  0  0
 10  1  1  0  0  0  0
 11  1  1  0  0  0  0
 12 11  2  0  0  0  0
 12  3  1  0  0  0  0
 13  9  2  0  0  0  0
 13 20  1  0  0  0  0
 14 19  2  0  0  0  0
 15  3  1  0  0  0  0
 16  6  1  0  0  0  0
 16 28  1  0  0  0  0
 17  4  1  1  0  0  0
 17 13  1  0  0  0  0
 18 30  1  6  0  0  0
 18 11  1  0  0  0  0
 18 23  1  0  0  0  0
 19 22  1  0  0  0  0
 20 16  2  0  0  0  0
 21  2  1  0  0  0  0
 22  4  2  0  0  0  0
 23 21  1  0  0  0  0
 24 28  1  0  0  0  0
 24 27  1  0  0  0  0
 26 25  1  0  0  0  0
 27 25  2  0  0  0  0
 28 26  2  0  0  0  0
 29 30  1  0  0  0  0
 31 32  1  0  0  0  0
 31 12  1  0  0  0  0
 34 33  1  6  0  0  0
 34 32  1  0  0  0  0
 35 34  1  0  0  0  0
 35 40  1  0  0  0  0
 36 42  1  6  0  0  0
 36 37  1  0  0  0  0
 38 40  1  0  0  0  0
 39 38  1  0  0  0  0
 39 36  1  0  0  0  0
 40 37  1  0  0  0  0
 40 41  1  1  0  0  0
 42 46  1  0  0  0  0
 43 46  1  0  0  0  0
 44 42  1  0  0  0  0
 45 43  1  0  0  0  0
 47 44  1  0  0  0  0
 47 45  1  0  0  0  0
M  END
>  <MODEL>
3

>  <REMARK>
 VINA RESULT:      -7.7      3.598     10.128
  Name = 
  8 active torsions:
  status: ('A' for Active; 'I' for Inactive)
    1  A    between atoms: C_4  and  C_6
    2  A    between atoms: C_15  and  O_36
    3  A    between atoms: C_15  and  C_40
    4  A    between atoms: C_22  and  C_24
    5  A    between atoms: C_24  and  C_40
    6  A    between atoms: C_30  and  O_36
    7  A    between atoms: C_31  and  C_35
    8  A    between atoms: C_33  and  C_37
                            x       y       z     vdW  Elec       q    Type
                         _______ _______ _______ _____ _____    ______ ____

>  <TORSDO>
F 8

$$$$
=
 OpenBabel10222420223D

 47 54  0  0  1  0  0  0  0  0999 V2000
  186.3760  176.0530  137.3070 N   0  0  0  0  0  0  0  0  0  0  0  0
  184.8340  177.6860  139.3000 C   0  0  0  0  0  2  0  0  0  0  0  0
  188.4190  175.0410  137.8290 N   0  0  0  0  0  0  0  0  0  0  0  0
  184.9720  175.1710  135.5480 N   0  0  0  0  0  0  0  0  0  0  0  0
  186.7240  172.1460  134.8520 N   0  0  0  0  0  0  0  0  0  0  0  0
  181.6620  175.6720  139.3000 C   0  0  0  0  0  3  0  0  0  0  0  0
  185.7030  173.0880  134.5940 N   0  0  0  0  0  0  0  0  0  0  0  0
  182.6450  176.6070  139.6150 C   0  0  0  0  0  3  0  0  0  0  0  0
  183.7790  176.7530  138.8080 C   0  0  0  0  0  0  0  0  0  0  0  0
  187.1090  174.8380  137.3200 C   0  0  2  0  0  3  0  0  0  0  0  0
  187.3520  177.0580  137.6350 C   0  0  0  0  0  0  0  0  0  0  0  0
  188.5120  176.4640  137.9640 C   0  0  0  0  0  0  0  0  0  0  0  0
  183.9210  175.9680  137.6300 C   0  0  0  0  0  0  0  0  0  0  0  0
  187.4820  172.6630  136.0180 C   0  0  0  0  0  3  0  0  0  0  0  0
  189.5340  174.1050  137.7960 C   0  0  0  0  0  1  0  0  0  0  0  0
  181.7970  174.8650  138.1670 C   0  0  0  0  0  0  0  0  0  0  0  0
  185.0620  176.1700  136.6380 C   0  0  1  0  0  3  0  0  0  0  0  0
  187.1130  178.5630  137.6320 C   0  0  2  0  0  3  0  0  0  0  0  0
  186.7220  173.8410  136.5240 C   0  0  0  0  0  0  0  0  0  0  0  0
  182.9160  175.0260  137.3360 C   0  0  0  0  0  3  0  0  0  0  0  0
  184.8130  179.0220  138.5740 C   0  0  0  0  0  2  0  0  0  0  0  0
  185.6510  174.0610  135.6090 C   0  0  0  0  0  0  0  0  0  0  0  0
  185.6740  178.9710  137.3130 C   0  0  0  0  0  2  0  0  0  0  0  0
  181.1300  172.5410  137.6480 O   0  0  0  0  0  0  0  0  0  0  0  0
  178.9910  172.6560  137.6510 N   0  0  0  0  0  0  0  0  0  0  0  0
  179.4550  173.8960  137.8960 C   0  0  0  0  0  3  0  0  0  0  0  0
  180.0410  171.8580  137.5060 N   0  0  0  0  0  0  0  0  0  0  0  0
  180.8310  173.7920  137.8890 C   0  0  0  0  0  0  0  0  0  0  0  0
  188.8680  180.2200  137.4910 O   0  0  0  0  0  1  0  0  0  0  0  0
  188.0970  179.3230  136.7440 C   0  0  0  0  0  2  0  0  0  0  0  0
  189.7900  177.1700  138.2880 C   0  0  0  0  0  2  0  0  0  0  0  0
  189.6380  177.9090  139.6150 C   0  0  0  0  0  2  0  0  0  0  0  0
  191.9440  177.2230  140.3390 C   0  0  0  0  0  1  0  0  0  0  0  0
  190.4750  177.2900  140.7320 C   0  0  1  0  0  3  0  0  0  0  0  0
  190.3360  178.0250  141.9270 O   0  0  0  0  0  0  0  0  0  0  0  0
  188.3450  177.1230  144.2770 C   0  0  2  0  0  3  0  0  0  0  0  0
  189.5530  177.8210  144.0660 O   0  0  0  0  0  0  0  0  0  0  0  0
  189.5490  175.8510  142.7280 C   0  0  0  0  0  2  0  0  0  0  0  0
  188.1570  176.0890  143.2010 C   0  0  0  0  0  2  0  0  0  0  0  0
  190.2720  177.1560  143.0470 C   0  0  1  0  0  0  0  0  0  0  0  0
  191.6670  176.8480  143.5850 C   0  0  0  0  0  1  0  0  0  0  0  0
  187.1540  178.0790  144.3310 C   0  0  0  0  0  3  0  0  0  0  0  0
  185.0860  178.8130  145.5720 C   0  0  0  0  0  2  0  0  0  0  0  0
  186.4520  178.1320  142.9660 C   0  0  0  0  0  2  0  0  0  0  0  0
  184.5960  179.3220  144.2030 C   0  0  0  0  0  2  0  0  0  0  0  0
  186.1780  177.7470  145.4680 C   0  0  0  0  0  2  0  0  0  0  0  0
  184.9380  178.3510  143.0730 C   0  0  0  0  0  2  0  0  0  0  0  0
  1 10  1  0  0  0  0
  1 11  1  0  0  0  0
  3 12  1  0  0  0  0
  4 22  2  0  0  0  0
  5 14  1  0  0  0  0
  6  8  1  0  0  0  0
  7  5  2  0  0  0  0
  7 22  1  0  0  0  0
  9  2  1  0  0  0  0
  9  8  2  0  0  0  0
 10 19  1  6  0  0  0
 10  3  1  0  0  0  0
 11 12  2  0  0  0  0
 12 31  1  0  0  0  0
 13  9  1  0  0  0  0
 14 19  2  0  0  0  0
 15  3  1  0  0  0  0
 16  6  2  0  0  0  0
 17  4  1  6  0  0  0
 17  1  1  0  0  0  0
 17 13  1  0  0  0  0
 18 30  1  6  0  0  0
 18 11  1  0  0  0  0
 20 13  2  0  0  0  0
 20 16  1  0  0  0  0
 21  2  1  0  0  0  0
 22 19  1  0  0  0  0
 23 18  1  0  0  0  0
 23 21  1  0  0  0  0
 24 28  1  0  0  0  0
 25 26  1  0  0  0  0
 27 24  1  0  0  0  0
 27 25  2  0  0  0  0
 28 26  2  0  0  0  0
 28 16  1  0  0  0  0
 30 29  1  0  0  0  0
 31 32  1  0  0  0  0
 32 34  1  0  0  0  0
 34 33  1  6  0  0  0
 34 35  1  0  0  0  0
 35 40  1  0  0  0  0
 36 42  1  6  0  0  0
 37 36  1  0  0  0  0
 38 40  1  0  0  0  0
 38 39  1  0  0  0  0
 39 36  1  0  0  0  0
 40 41  1  1  0  0  0
 40 37  1  0  0  0  0
 42 46  1  0  0  0  0
 44 47  1  0  0  0  0
 44 42  1  0  0  0  0
 45 43  1  0  0  0  0
 46 43  1  0  0  0  0
 47 45  1  0  0  0  0
M  END
>  <MODEL>
4

>  <REMARK>
 VINA RESULT:      -7.4      4.037      7.127
  Name = 
  8 active torsions:
  status: ('A' for Active; 'I' for Inactive)
    1  A    between atoms: C_4  and  C_6
    2  A    between atoms: C_15  and  O_36
    3  A    between atoms: C_15  and  C_40
    4  A    between atoms: C_22  and  C_24
    5  A    between atoms: C_24  and  C_40
    6  A    between atoms: C_30  and  O_36
    7  A    between atoms: C_31  and  C_35
    8  A    between atoms: C_33  and  C_37
                            x       y       z     vdW  Elec       q    Type
                         _______ _______ _______ _____ _____    ______ ____

>  <TORSDO>
F 8

$$$$
=
 OpenBabel10222420223D

 47 54  0  0  1  0  0  0  0  0999 V2000
  183.4850  177.6270  138.1030 N   0  0  0  0  0  0  0  0  0  0  0  0
  184.2660  176.0100  135.6970 C   0  0  0  0  0  2  0  0  0  0  0  0
  181.8550  176.9100  139.6200 N   0  0  0  0  0  0  0  0  0  0  0  0
  185.2170  179.1700  138.7860 N   0  0  0  0  0  0  0  0  0  0  0  0
  184.6050  179.2320  142.2970 N   0  0  0  0  0  0  0  0  0  0  0  0
  187.9150  175.5990  136.4940 C   0  0  0  0  0  3  0  0  0  0  0  0
  185.2750  179.6780  141.1360 N   0  0  0  0  0  0  0  0  0  0  0  0
  186.6610  175.4820  135.9000 C   0  0  0  0  0  3  0  0  0  0  0  0
  185.5990  176.3020  136.3000 C   0  0  0  0  0  0  0  0  0  0  0  0
  183.1910  177.3660  139.4680 C   0  0  2  0  0  3  0  0  0  0  0  0
  182.2130  177.5120  137.4400 C   0  0  0  0  0  0  0  0  0  0  0  0
  181.2930  177.0680  138.3130 C   0  0  0  0  0  0  0  0  0  0  0  0
  185.8030  177.2940  137.2990 C   0  0  0  0  0  0  0  0  0  0  0  0
  183.6410  178.1970  141.8490 C   0  0  0  0  0  3  0  0  0  0  0  0
  181.1130  176.7510  140.8630 C   0  0  0  0  0  1  0  0  0  0  0  0
  188.1290  176.5430  137.5020 C   0  0  0  0  0  0  0  0  0  0  0  0
  184.7300  178.3060  137.6850 C   0  0  1  0  0  3  0  0  0  0  0  0
  181.9460  177.8220  135.9730 C   0  0  2  0  0  3  0  0  0  0  0  0
  183.9370  177.9420  140.4110 C   0  0  0  0  0  0  0  0  0  0  0  0
  187.0800  177.3890  137.8870 C   0  0  0  0  0  3  0  0  0  0  0  0
  183.8980  176.9940  134.5990 C   0  0  0  0  0  2  0  0  0  0  0  0
  184.9360  178.8820  140.0260 C   0  0  0  0  0  0  0  0  0  0  0  0
  183.1900  178.2180  135.1760 C   0  0  0  0  0  2  0  0  0  0  0  0
  190.5920  176.4050  137.6890 O   0  0  0  0  0  0  0  0  0  0  0  0
  190.9340  176.8970  139.7450 N   0  0  0  0  0  0  0  0  0  0  0  0
  189.6020  176.9140  139.5500 C   0  0  0  0  0  3  0  0  0  0  0  0
  191.5030  176.5840  138.5880 N   0  0  0  0  0  0  0  0  0  0  0  0
  189.4110  176.5960  138.2210 C   0  0  0  0  0  0  0  0  0  0  0  0
  181.1560  179.7660  134.7690 O   0  0  0  0  0  1  0  0  0  0  0  0
  180.8300  178.8460  135.7720 C   0  0  0  0  0  2  0  0  0  0  0  0
  179.8340  176.8950  138.0270 C   0  0  0  0  0  2  0  0  0  0  0  0
  179.4900  175.4080  138.0340 C   0  0  0  0  0  2  0  0  0  0  0  0
  178.9310  175.9270  135.6400 C   0  0  0  0  0  1  0  0  0  0  0  0
  179.3230  174.8370  136.6270 C   0  0  1  0  0  3  0  0  0  0  0  0
  180.5110  174.2120  136.1970 O   0  0  0  0  0  0  0  0  0  0  0  0
  181.8950  171.3190  136.3300 C   0  0  2  0  0  3  0  0  0  0  0  0
  181.4890  172.3030  135.4040 O   0  0  0  0  0  0  0  0  0  0  0  0
  179.7880  172.0340  137.0490 C   0  0  0  0  0  2  0  0  0  0  0  0
  181.0270  171.3830  137.5570 C   0  0  0  0  0  2  0  0  0  0  0  0
  180.2690  172.8550  135.8560 C   0  0  1  0  0  0  0  0  0  0  0  0
  179.2560  172.7460  134.7200 C   0  0  0  0  0  1  0  0  0  0  0  0
  183.3700  171.4770  136.6940 C   0  0  0  0  0  3  0  0  0  0  0  0
  185.1410  172.9110  137.7730 C   0  0  0  0  0  2  0  0  0  0  0  0
  184.2560  171.1550  135.4810 C   0  0  0  0  0  2  0  0  0  0  0  0
  186.1250  172.1830  136.8380 C   0  0  0  0  0  2  0  0  0  0  0  0
  183.6900  172.8540  137.2910 C   0  0  0  0  0  2  0  0  0  0  0  0
  185.5460  171.9830  135.4380 C   0  0  0  0  0  2  0  0  0  0  0  0
  1 10  1  0  0  0  0
  2  9  1  0  0  0  0
  3 15  1  0  0  0  0
  4 22  2  0  0  0  0
  6 16  1  0  0  0  0
  7  5  2  0  0  0  0
  8  9  1  0  0  0  0
  8  6  2  0  0  0  0
  9 13  2  0  0  0  0
 10  3  1  0  0  0  0
 10 19  1  1  0  0  0
 11  1  1  0  0  0  0
 11 12  2  0  0  0  0
 12  3  1  0  0  0  0
 13 20  1  0  0  0  0
 14  5  1  0  0  0  0
 16 20  2  0  0  0  0
 16 28  1  0  0  0  0
 17 13  1  1  0  0  0
 17  1  1  0  0  0  0
 17  4  1  0  0  0  0
 18 30  1  1  0  0  0
 18 11  1  0  0  0  0
 19 14  2  0  0  0  0
 21 23  1  0  0  0  0
 21  2  1  0  0  0  0
 22 19  1  0  0  0  0
 22  7  1  0  0  0  0
 23 18  1  0  0  0  0
 24 28  1  0  0  0  0
 24 27  1  0  0  0  0
 26 25  1  0  0  0  0
 27 25  2  0  0  0  0
 28 26  2  0  0  0  0
 29 30  1  0  0  0  0
 31 32  1  0  0  0  0
 31 12  1  0  0  0  0
 34 33  1  6  0  0  0
 34 32  1  0  0  0  0
 35 34  1  0  0  0  0
 36 42  1  1  0  0  0
 36 39  1  0  0  0  0
 37 40  1  0  0  0  0
 37 36  1  0  0  0  0
 38 39  1  0  0  0  0
 40 41  1  6  0  0  0
 40 35  1  0  0  0  0
 40 38  1  0  0  0  0
 42 46  1  0  0  0  0
 44 42  1  0  0  0  0
 45 43  1  0  0  0  0
 46 43  1  0  0  0  0
 47 44  1  0  0  0  0
 47 45  1  0  0  0  0
M  END
>  <MODEL>
5

>  <REMARK>
 VINA RESULT:      -7.2      5.058      8.415
  Name = 
  8 active torsions:
  status: ('A' for Active; 'I' for Inactive)
    1  A    between atoms: C_4  and  C_6
    2  A    between atoms: C_15  and  O_36
    3  A    between atoms: C_15  and  C_40
    4  A    between atoms: C_22  and  C_24
    5  A    between atoms: C_24  and  C_40
    6  A    between atoms: C_30  and  O_36
    7  A    between atoms: C_31  and  C_35
    8  A    between atoms: C_33  and  C_37
                            x       y       z     vdW  Elec       q    Type
                         _______ _______ _______ _____ _____    ______ ____

>  <TORSDO>
F 8

$$$$
=
 OpenBabel10222420223D

 47 54  0  0  1  0  0  0  0  0999 V2000
  182.0520  177.1240  138.6410 N   0  0  0  0  0  0  0  0  0  0  0  0
  180.3460  175.6310  140.6100 C   0  0  0  0  0  2  0  0  0  0  0  0
  184.2640  177.7280  139.1040 N   0  0  0  0  0  0  0  0  0  0  0  0
  181.2960  176.8460  136.3620 N   0  0  0  0  0  0  0  0  0  0  0  0
  184.4220  177.0860  134.6670 N   0  0  0  0  0  0  0  0  0  0  0  0
  179.6020  172.6170  138.4920 C   0  0  0  0  0  3  0  0  0  0  0  0
  183.0130  176.9780  134.6840 N   0  0  0  0  0  0  0  0  0  0  0  0
  179.6910  173.5020  139.5650 C   0  0  0  0  0  3  0  0  0  0  0  0
  180.1650  174.8060  139.3800 C   0  0  0  0  0  0  0  0  0  0  0  0
  183.3970  177.0660  138.1940 C   0  0  2  0  0  3  0  0  0  0  0  0
  182.0910  178.0270  139.7620 C   0  0  0  0  0  0  0  0  0  0  0  0
  183.3680  178.3400  140.0380 C   0  0  0  0  0  0  0  0  0  0  0  0
  180.5270  175.2550  138.0800 C   0  0  0  0  0  0  0  0  0  0  0  0
  184.8530  177.1260  136.0860 C   0  0  0  0  0  3  0  0  0  0  0  0
  185.6620  178.0760  138.8960 C   0  0  0  0  0  1  0  0  0  0  0  0
  179.9850  173.0260  137.2120 C   0  0  0  0  0  0  0  0  0  0  0  0
  180.9210  176.6990  137.7880 C   0  0  1  0  0  3  0  0  0  0  0  0
  180.8800  178.5380  140.5330 C   0  0  2  0  0  3  0  0  0  0  0  0
  183.6390  176.8400  136.9020 C   0  0  0  0  0  0  0  0  0  0  0  0
  180.4320  174.3400  137.0130 C   0  0  0  0  0  3  0  0  0  0  0  0
  179.2290  176.6440  140.8000 C   0  0  0  0  0  2  0  0  0  0  0  0
  182.5430  176.7690  135.9940 C   0  0  0  0  0  0  0  0  0  0  0  0
  179.5460  177.9490  140.0730 C   0  0  0  0  0  2  0  0  0  0  0  0
  181.0870  171.6390  135.4860 O   0  0  0  0  0  0  0  0  0  0  0  0
  179.4390  170.6000  134.5960 N   0  0  0  0  0  0  0  0  0  0  0  0
  178.9310  171.4160  135.5390 C   0  0  0  0  0  3  0  0  0  0  0  0
  180.7550  170.7640  134.5940 N   0  0  0  0  0  0  0  0  0  0  0  0
  180.0110  172.0700  136.0950 C   0  0  0  0  0  0  0  0  0  0  0  0
  180.0470  180.4980  141.6790 O   0  0  0  0  0  1  0  0  0  0  0  0
  180.8050  180.0630  140.5870 C   0  0  0  0  0  2  0  0  0  0  0  0
  183.8190  179.3150  141.0800 C   0  0  0  0  0  2  0  0  0  0  0  0
  184.0070  178.5840  142.4070 C   0  0  0  0  0  2  0  0  0  0  0  0
  185.1250  179.7320  144.3430 C   0  0  0  0  0  1  0  0  0  0  0  0
  185.3390  178.9150  143.0770 C   0  0  1  0  0  3  0  0  0  0  0  0
  186.0490  177.7370  143.3860 O   0  0  0  0  0  0  0  0  0  0  0  0
  189.0840  177.8600  144.4210 C   0  0  2  0  0  3  0  0  0  0  0  0
  188.1110  178.6470  143.7710 O   0  0  0  0  0  0  0  0  0  0  0  0
  188.0610  176.4450  142.8660 C   0  0  0  0  0  2  0  0  0  0  0  0
  188.8390  176.4030  144.1350 C   0  0  0  0  0  2  0  0  0  0  0  0
  187.3800  177.8090  142.8980 C   0  0  1  0  0  0  0  0  0  0  0  0
  187.4210  178.4350  141.5060 C   0  0  0  0  0  1  0  0  0  0  0  0
  189.0990  178.1270  145.9250 C   0  0  0  0  0  3  0  0  0  0  0  0
  190.0180  177.4740  148.1800 C   0  0  0  0  0  2  0  0  0  0  0  0
  187.6640  178.2550  146.4580 C   0  0  0  0  0  2  0  0  0  0  0  0
  188.7220  178.0830  148.7470 C   0  0  0  0  0  2  0  0  0  0  0  0
  189.9110  177.0830  146.7050 C   0  0  0  0  0  2  0  0  0  0  0  0
  187.5030  177.7380  147.8920 C   0  0  0  0  0  2  0  0  0  0  0  0
  1 11  1  0  0  0  0
  2 21  1  0  0  0  0
  3 12  1  0  0  0  0
  5  7  2  0  0  0  0
  5 14  1  0  0  0  0
  6  8  1  0  0  0  0
  7 22  1  0  0  0  0
  9  8  2  0  0  0  0
  9  2  1  0  0  0  0
 10 19  1  6  0  0  0
 10  1  1  0  0  0  0
 10  3  1  0  0  0  0
 11 12  2  0  0  0  0
 11 18  1  0  0  0  0
 12 31  1  0  0  0  0
 13  9  1  0  0  0  0
 14 19  2  0  0  0  0
 15  3  1  0  0  0  0
 16  6  2  0  0  0  0
 17  4  1  6  0  0  0
 17 13  1  0  0  0  0
 17  1  1  0  0  0  0
 18 30  1  6  0  0  0
 20 16  1  0  0  0  0
 20 13  2  0  0  0  0
 22  4  2  0  0  0  0
 22 19  1  0  0  0  0
 23 18  1  0  0  0  0
 23 21  1  0  0  0  0
 24 28  1  0  0  0  0
 25 26  1  0  0  0  0
 26 28  2  0  0  0  0
 27 25  2  0  0  0  0
 27 24  1  0  0  0  0
 28 16  1  0  0  0  0
 30 29  1  0  0  0  0
 31 32  1  0  0  0  0
 32 34  1  0  0  0  0
 34 35  1  0  0  0  0
 34 33  1  1  0  0  0
 36 42  1  1  0  0  0
 37 36  1  0  0  0  0
 38 40  1  0  0  0  0
 38 39  1  0  0  0  0
 39 36  1  0  0  0  0
 40 41  1  6  0  0  0
 40 35  1  0  0  0  0
 40 37  1  0  0  0  0
 42 44  1  0  0  0  0
 42 46  1  0  0  0  0
 43 45  1  0  0  0  0
 44 47  1  0  0  0  0
 46 43  1  0  0  0  0
 47 45  1  0  0  0  0
M  END
>  <MODEL>
6

>  <REMARK>
 VINA RESULT:      -7.2      5.487      8.116
  Name = 
  8 active torsions:
  status: ('A' for Active; 'I' for Inactive)
    1  A    between atoms: C_4  and  C_6
    2  A    between atoms: C_15  and  O_36
    3  A    between atoms: C_15  and  C_40
    4  A    between atoms: C_22  and  C_24
    5  A    between atoms: C_24  and  C_40
    6  A    between atoms: C_30  and  O_36
    7  A    between atoms: C_31  and  C_35
    8  A    between atoms: C_33  and  C_37
                            x       y       z     vdW  Elec       q    Type
                         _______ _______ _______ _____ _____    ______ ____

>  <TORSDO>
F 8

$$$$
=
 OpenBabel10222420223D

 47 54  0  0  1  0  0  0  0  0999 V2000
  182.6680  177.0500  138.2970 N   0  0  0  0  0  0  0  0  0  0  0  0
  180.5890  176.3020  140.3300 C   0  0  0  0  0  2  0  0  0  0  0  0
  184.9060  177.4150  138.8700 N   0  0  0  0  0  0  0  0  0  0  0  0
  182.0570  176.3770  136.0560 N   0  0  0  0  0  0  0  0  0  0  0  0
  185.3040  175.7740  134.7140 N   0  0  0  0  0  0  0  0  0  0  0  0
  179.5230  173.0290  138.8220 C   0  0  0  0  0  3  0  0  0  0  0  0
  183.9000  175.8780  134.5940 N   0  0  0  0  0  0  0  0  0  0  0  0
  179.6730  174.1100  139.6880 C   0  0  0  0  0  3  0  0  0  0  0  0
  180.3700  175.2570  139.2890 C   0  0  0  0  0  0  0  0  0  0  0  0
  184.0160  176.6980  138.0270 C   0  0  2  0  0  3  0  0  0  0  0  0
  182.7680  178.1670  139.1990 C   0  0  0  0  0  0  0  0  0  0  0  0
  184.0540  178.3460  139.5460 C   0  0  0  0  0  0  0  0  0  0  0  0
  180.9020  175.3440  137.9730 C   0  0  0  0  0  0  0  0  0  0  0  0
  185.6230  176.0700  136.1320 C   0  0  0  0  0  3  0  0  0  0  0  0
  186.3550  177.5010  138.7530 C   0  0  0  0  0  1  0  0  0  0  0  0
  180.0680  173.0790  137.5370 C   0  0  0  0  0  0  0  0  0  0  0  0
  181.5530  176.6120  137.4300 C   0  0  1  0  0  3  0  0  0  0  0  0
  181.6030  179.0080  139.7040 C   0  0  2  0  0  3  0  0  0  0  0  0
  184.3180  176.1540  136.8470 C   0  0  0  0  0  0  0  0  0  0  0  0
  180.7410  174.2360  137.1170 C   0  0  0  0  0  3  0  0  0  0  0  0
  179.6440  177.4830  140.1750 C   0  0  0  0  0  2  0  0  0  0  0  0
  183.3000  176.0400  135.8560 C   0  0  0  0  0  0  0  0  0  0  0  0
  180.2300  178.5300  139.2300 C   0  0  0  0  0  2  0  0  0  0  0  0
  179.0210  171.0640  136.5560 O   0  0  0  0  0  0  0  0  0  0  0  0
  180.4840  170.4240  135.1280 N   0  0  0  0  0  0  0  0  0  0  0  0
  180.9830  171.5120  135.7450 C   0  0  0  0  0  3  0  0  0  0  0  0
  179.2870  170.1830  135.6480 N   0  0  0  0  0  0  0  0  0  0  0  0
  180.0220  171.9020  136.6560 C   0  0  0  0  0  0  0  0  0  0  0  0
  181.4510  180.8160  138.1040 O   0  0  0  0  0  1  0  0  0  0  0  0
  181.7780  180.5000  139.4270 C   0  0  0  0  0  2  0  0  0  0  0  0
  184.5780  179.4540  140.4050 C   0  0  0  0  0  2  0  0  0  0  0  0
  184.2720  179.1480  141.8680 C   0  0  0  0  0  2  0  0  0  0  0  0
  186.7590  178.8020  141.7910 C   0  0  0  0  0  1  0  0  0  0  0  0
  185.5030  178.6740  142.6390 C   0  0  1  0  0  3  0  0  0  0  0  0
  185.6570  179.4090  143.8330 O   0  0  0  0  0  0  0  0  0  0  0  0
  186.7720  177.5170  146.1740 C   0  0  2  0  0  3  0  0  0  0  0  0
  185.9850  177.4720  145.0030 O   0  0  0  0  0  0  0  0  0  0  0  0
  185.3910  179.4020  146.2660 C   0  0  0  0  0  2  0  0  0  0  0  0
  186.6810  178.8820  146.7980 C   0  0  0  0  0  2  0  0  0  0  0  0
  185.2110  178.6530  144.9490 C   0  0  1  0  0  0  0  0  0  0  0  0
  183.7480  178.2470  144.7880 C   0  0  0  0  0  1  0  0  0  0  0  0
  188.2240  177.1450  145.8800 C   0  0  0  0  0  3  0  0  0  0  0  0
  190.5860  176.9950  146.7490 C   0  0  0  0  0  2  0  0  0  0  0  0
  188.6700  177.7550  144.5420 C   0  0  0  0  0  2  0  0  0  0  0  0
  191.0050  177.1220  145.2720 C   0  0  0  0  0  2  0  0  0  0  0  0
  189.1750  177.5170  147.0260 C   0  0  0  0  0  2  0  0  0  0  0  0
  190.1530  178.1420  144.5180 C   0  0  0  0  0  2  0  0  0  0  0  0
  1 11  1  0  0  0  0
  3 12  1  0  0  0  0
  5 14  1  0  0  0  0
  6  8  1  0  0  0  0
  7  5  2  0  0  0  0
  7 22  1  0  0  0  0
  9  8  2  0  0  0  0
  9  2  1  0  0  0  0
 10 19  1  6  0  0  0
 10  1  1  0  0  0  0
 10  3  1  0  0  0  0
 11 12  2  0  0  0  0
 11 18  1  0  0  0  0
 12 31  1  0  0  0  0
 13  9  1  0  0  0  0
 14 19  2  0  0  0  0
 15  3  1  0  0  0  0
 16  6  2  0  0  0  0
 17  4  1  6  0  0  0
 17 13  1  0  0  0  0
 17  1  1  0  0  0  0
 18 30  1  6  0  0  0
 20 16  1  0  0  0  0
 20 13  2  0  0  0  0
 21  2  1  0  0  0  0
 22  4  2  0  0  0  0
 22 19  1  0  0  0  0
 23 18  1  0  0  0  0
 23 21  1  0  0  0  0
 24 28  1  0  0  0  0
 25 27  2  0  0  0  0
 25 26  1  0  0  0  0
 26 28  2  0  0  0  0
 27 24  1  0  0  0  0
 28 16  1  0  0  0  0
 29 30  1  0  0  0  0
 31 32  1  0  0  0  0
 32 34  1  0  0  0  0
 34 33  1  6  0  0  0
 34 35  1  0  0  0  0
 35 40  1  0  0  0  0
 36 42  1  6  0  0  0
 36 39  1  0  0  0  0
 37 36  1  0  0  0  0
 38 39  1  0  0  0  0
 40 41  1  6  0  0  0
 40 37  1  0  0  0  0
 40 38  1  0  0  0  0
 42 46  1  0  0  0  0
 43 46  1  0  0  0  0
 44 42  1  0  0  0  0
 45 43  1  0  0  0  0
 47 44  1  0  0  0  0
 47 45  1  0  0  0  0
M  END
>  <MODEL>
7

>  <REMARK>
 VINA RESULT:      -7.1      5.099      7.652
  Name = 
  8 active torsions:
  status: ('A' for Active; 'I' for Inactive)
    1  A    between atoms: C_4  and  C_6
    2  A    between atoms: C_15  and  O_36
    3  A    between atoms: C_15  and  C_40
    4  A    between atoms: C_22  and  C_24
    5  A    between atoms: C_24  and  C_40
    6  A    between atoms: C_30  and  O_36
    7  A    between atoms: C_31  and  C_35
    8  A    between atoms: C_33  and  C_37
                            x       y       z     vdW  Elec       q    Type
                         _______ _______ _______ _____ _____    ______ ____

>  <TORSDO>
F 8

$$$$
=
 OpenBabel10222420223D

 47 54  0  0  1  0  0  0  0  0999 V2000
  186.3280  177.7380  138.5920 N   0  0  0  0  0  0  0  0  0  0  0  0
  188.7750  176.9360  140.1370 C   0  0  0  0  0  2  0  0  0  0  0  0
  185.2200  176.2690  137.1480 N   0  0  0  0  0  0  0  0  0  0  0  0
  185.1570  179.5930  139.6090 N   0  0  0  0  0  0  0  0  0  0  0  0
  181.8230  178.7960  138.6300 N   0  0  0  0  0  0  0  0  0  0  0  0
  187.4480  177.5620  143.5970 C   0  0  0  0  0  3  0  0  0  0  0  0
  182.7820  179.6420  139.2320 N   0  0  0  0  0  0  0  0  0  0  0  0
  188.2540  177.1670  142.5310 C   0  0  0  0  0  3  0  0  0  0  0  0
  187.9240  177.5160  141.2160 C   0  0  0  0  0  0  0  0  0  0  0  0
  185.0830  177.1460  138.2570 C   0  0  2  0  0  3  0  0  0  0  0  0
  187.2040  177.3520  137.5170 C   0  0  0  0  0  0  0  0  0  0  0  0
  186.5670  176.4830  136.7130 C   0  0  0  0  0  0  0  0  0  0  0  0
  186.7760  178.3150  140.9590 C   0  0  0  0  0  0  0  0  0  0  0  0
  182.5660  177.6130  138.1330 C   0  0  0  0  0  3  0  0  0  0  0  0
  184.1530  175.6520  136.3740 C   0  0  0  0  0  1  0  0  0  0  0  0
  186.2960  178.3170  143.3640 C   0  0  0  0  0  0  0  0  0  0  0  0
  186.4350  178.8430  139.5690 C   0  0  1  0  0  3  0  0  0  0  0  0
  188.6360  177.8320  137.3230 C   0  0  2  0  0  3  0  0  0  0  0  0
  183.9570  177.7400  138.6540 C   0  0  0  0  0  0  0  0  0  0  0  0
  185.9750  178.6990  142.0530 C   0  0  0  0  0  3  0  0  0  0  0  0
  189.7700  177.9400  139.5790 C   0  0  0  0  0  2  0  0  0  0  0  0
  184.0340  179.0040  139.3080 C   0  0  0  0  0  0  0  0  0  0  0  0
  189.1510  178.7440  138.4370 C   0  0  0  0  0  2  0  0  0  0  0  0
  184.1290  179.0190  144.3270 O   0  0  0  0  0  0  0  0  0  0  0  0
  184.4820  178.8710  146.4340 N   0  0  0  0  0  0  0  0  0  0  0  0
  185.6300  178.5360  145.8160 C   0  0  0  0  0  3  0  0  0  0  0  0
  183.5900  179.1590  145.4940 N   0  0  0  0  0  0  0  0  0  0  0  0
  185.3740  178.6380  144.4640 C   0  0  0  0  0  0  0  0  0  0  0  0
  189.9360  177.8520  135.2840 O   0  0  0  0  0  1  0  0  0  0  0  0
  188.8740  178.4670  135.9540 C   0  0  0  0  0  2  0  0  0  0  0  0
  187.1130  175.9130  135.4420 C   0  0  0  0  0  2  0  0  0  0  0  0
  186.1130  174.9150  134.8650 C   0  0  0  0  0  2  0  0  0  0  0  0
  185.4530  172.5060  134.5990 C   0  0  0  0  0  1  0  0  0  0  0  0
  186.4910  173.4650  135.1620 C   0  0  1  0  0  3  0  0  0  0  0  0
  187.7600  173.1610  134.6260 O   0  0  0  0  0  0  0  0  0  0  0  0
  190.5700  173.0860  136.1750 C   0  0  2  0  0  3  0  0  0  0  0  0
  189.8620  172.4290  135.1460 O   0  0  0  0  0  0  0  0  0  0  0  0
  188.3850  172.8330  136.9700 C   0  0  0  0  0  2  0  0  0  0  0  0
  189.6030  173.6670  137.1700 C   0  0  0  0  0  2  0  0  0  0  0  0
  188.5030  172.3540  135.5260 C   0  0  1  0  0  0  0  0  0  0  0  0
  188.0730  170.8920  135.4370 C   0  0  0  0  0  1  0  0  0  0  0  0
  191.4910  174.1670  135.6120 C   0  0  0  0  0  3  0  0  0  0  0  0
  193.7890  174.7520  134.7570 C   0  0  0  0  0  2  0  0  0  0  0  0
  191.3930  175.4440  136.4600 C   0  0  0  0  0  2  0  0  0  0  0  0
  193.4500  176.1890  135.1940 C   0  0  0  0  0  2  0  0  0  0  0  0
  192.9410  173.6890  135.4570 C   0  0  0  0  0  2  0  0  0  0  0  0
  192.7110  176.2240  136.5310 C   0  0  0  0  0  2  0  0  0  0  0  0
  1 17  1  0  0  0  0
  2  9  1  0  0  0  0
  3 10  1  0  0  0  0
  5  7  2  0  0  0  0
  7 22  1  0  0  0  0
  8  6  2  0  0  0  0
  9  8  1  0  0  0  0
 10  1  1  0  0  0  0
 10 19  1  6  0  0  0
 11  1  1  0  0  0  0
 12  3  1  0  0  0  0
 12 11  2  0  0  0  0
 13  9  2  0  0  0  0
 13 20  1  0  0  0  0
 14  5  1  0  0  0  0
 14 19  2  0  0  0  0
 15  3  1  0  0  0  0
 16  6  1  0  0  0  0
 16 28  1  0  0  0  0
 17  4  1  1  0  0  0
 17 13  1  0  0  0  0
 18 30  1  6  0  0  0
 18 11  1  0  0  0  0
 18 23  1  0  0  0  0
 19 22  1  0  0  0  0
 20 16  2  0  0  0  0
 21  2  1  0  0  0  0
 22  4  2  0  0  0  0
 23 21  1  0  0  0  0
 24 28  1  0  0  0  0
 24 27  1  0  0  0  0
 26 25  1  0  0  0  0
 27 25  2  0  0  0  0
 28 26  2  0  0  0  0
 29 30  1  0  0  0  0
 31 12  1  0  0  0  0
 32 34  1  0  0  0  0
 32 31  1  0  0  0  0
 34 33  1  6  0  0  0
 35 34  1  0  0  0  0
 35 40  1  0  0  0  0
 36 42  1  6  0  0  0
 36 39  1  0  0  0  0
 37 40  1  0  0  0  0
 37 36  1  0  0  0  0
 38 39  1  0  0  0  0
 40 41  1  6  0  0  0
 40 38  1  0  0  0  0
 42 44  1  0  0  0  0
 43 45  1  0  0  0  0
 43 46  1  0  0  0  0
 44 47  1  0  0  0  0
 45 47  1  0  0  0  0
 46 42  1  0  0  0  0
M  END
>  <MODEL>
8

>  <REMARK>
 VINA RESULT:      -7.0      3.385      9.785
  Name = 
  8 active torsions:
  status: ('A' for Active; 'I' for Inactive)
    1  A    between atoms: C_4  and  C_6
    2  A    between atoms: C_15  and  O_36
    3  A    between atoms: C_15  and  C_40
    4  A    between atoms: C_22  and  C_24
    5  A    between atoms: C_24  and  C_40
    6  A    between atoms: C_30  and  O_36
    7  A    between atoms: C_31  and  C_35
    8  A    between atoms: C_33  and  C_37
                            x       y       z     vdW  Elec       q    Type
                         _______ _______ _______ _____ _____    ______ ____

>  <TORSDO>
F 8

$$$$
=
 OpenBabel10222420223D

 47 54  0  0  1  0  0  0  0  0999 V2000
  186.4780  177.9030  139.2770 N   0  0  0  0  0  0  0  0  0  0  0  0
  189.2520  176.7540  139.2830 C   0  0  0  0  0  2  0  0  0  0  0  0
  184.6790  176.8310  138.2360 N   0  0  0  0  0  0  0  0  0  0  0  0
  186.1100  179.4470  141.1020 N   0  0  0  0  0  0  0  0  0  0  0  0
  182.6290  178.9040  141.6450 N   0  0  0  0  0  0  0  0  0  0  0  0
  189.7160  176.5030  143.0040 C   0  0  0  0  0  3  0  0  0  0  0  0
  183.8450  179.5780  141.8980 N   0  0  0  0  0  0  0  0  0  0  0  0
  189.9010  176.3860  141.6280 C   0  0  0  0  0  3  0  0  0  0  0  0
  189.0530  177.0480  140.7320 C   0  0  0  0  0  0  0  0  0  0  0  0
  185.1580  177.4070  139.4420 C   0  0  2  0  0  3  0  0  0  0  0  0
  186.7220  177.7970  137.8630 C   0  0  0  0  0  0  0  0  0  0  0  0
  185.6970  177.1510  137.2810 C   0  0  0  0  0  0  0  0  0  0  0  0
  188.0100  177.8810  141.2230 C   0  0  0  0  0  0  0  0  0  0  0  0
  182.9290  177.8810  140.6120 C   0  0  0  0  0  3  0  0  0  0  0  0
  183.3150  176.4200  137.9350 C   0  0  0  0  0  1  0  0  0  0  0  0
  188.6770  177.2890  143.5080 C   0  0  0  0  0  0  0  0  0  0  0  0
  187.1380  178.7340  140.3070 C   0  0  1  0  0  3  0  0  0  0  0  0
  187.9540  178.3150  137.1330 C   0  0  2  0  0  3  0  0  0  0  0  0
  184.4090  177.8820  140.4380 C   0  0  0  0  0  0  0  0  0  0  0  0
  187.8420  177.9800  142.6180 C   0  0  0  0  0  3  0  0  0  0  0  0
  189.9910  177.8680  138.5610 C   0  0  0  0  0  2  0  0  0  0  0  0
  184.9150  178.9450  141.2400 C   0  0  0  0  0  0  0  0  0  0  0  0
  189.0160  178.9270  138.0480 C   0  0  0  0  0  2  0  0  0  0  0  0
  187.2250  177.5490  145.4930 O   0  0  0  0  0  0  0  0  0  0  0  0
  188.5710  177.1600  147.1130 N   0  0  0  0  0  0  0  0  0  0  0  0
  189.2850  177.0730  145.9750 C   0  0  0  0  0  3  0  0  0  0  0  0
  187.3200  177.4510  146.7790 N   0  0  0  0  0  0  0  0  0  0  0  0
  188.3950  177.3260  144.9510 C   0  0  0  0  0  0  0  0  0  0  0  0
  187.1760  180.5070  136.4700 O   0  0  0  0  0  1  0  0  0  0  0  0
  187.6150  179.2690  135.9890 C   0  0  0  0  0  2  0  0  0  0  0  0
  185.5400  176.9130  135.8120 C   0  0  0  0  0  2  0  0  0  0  0  0
  186.4750  175.7880  135.3790 C   0  0  0  0  0  2  0  0  0  0  0  0
  184.4020  174.5610  134.6660 C   0  0  0  0  0  1  0  0  0  0  0  0
  185.7730  174.4330  135.3120 C   0  0  1  0  0  3  0  0  0  0  0  0
  186.5520  173.5020  134.5940 O   0  0  0  0  0  0  0  0  0  0  0  0
  189.1290  172.7550  136.3540 C   0  0  2  0  0  3  0  0  0  0  0  0
  188.4270  172.3430  135.2030 O   0  0  0  0  0  0  0  0  0  0  0  0
  186.8650  172.8420  136.9300 C   0  0  0  0  0  2  0  0  0  0  0  0
  188.1840  173.4100  137.3230 C   0  0  0  0  0  2  0  0  0  0  0  0
  187.0440  172.4880  135.4570 C   0  0  1  0  0  0  0  0  0  0  0  0
  186.3720  171.1480  135.1680 C   0  0  0  0  0  1  0  0  0  0  0  0
  190.2810  173.6930  135.9950 C   0  0  0  0  0  3  0  0  0  0  0  0
  192.2770  175.0000  136.8100 C   0  0  0  0  0  2  0  0  0  0  0  0
  189.7700  174.8570  135.1320 C   0  0  0  0  0  2  0  0  0  0  0  0
  192.0210  175.9110  135.5950 C   0  0  0  0  0  2  0  0  0  0  0  0
  191.0510  174.1860  137.2280 C   0  0  0  0  0  2  0  0  0  0  0  0
  190.5300  176.1670  135.3720 C   0  0  0  0  0  2  0  0  0  0  0  0
  1 10  1  0  0  0  0
  1 17  1  0  0  0  0
  2  9  1  0  0  0  0
  3 10  1  0  0  0  0
  4 22  2  0  0  0  0
  5  7  2  0  0  0  0
  6 16  1  0  0  0  0
  8  6  2  0  0  0  0
  9 13  2  0  0  0  0
  9  8  1  0  0  0  0
 10 19  1  6  0  0  0
 11  1  1  0  0  0  0
 12 11  2  0  0  0  0
 12  3  1  0  0  0  0
 13 20  1  0  0  0  0
 14  5  1  0  0  0  0
 15  3  1  0  0  0  0
 16 28  1  0  0  0  0
 17  4  1  1  0  0  0
 17 13  1  0  0  0  0
 18 30  1  6  0  0  0
 18 11  1  0  0  0  0
 18 23  1  0  0  0  0
 19 14  2  0  0  0  0
 19 22  1  0  0  0  0
 20 16  2  0  0  0  0
 21  2  1  0  0  0  0
 22  7  1  0  0  0  0
 23 21  1  0  0  0  0
 24 27  1  0  0  0  0
 26 25  1  0  0  0  0
 27 25  2  0  0  0  0
 28 24  1  0  0  0  0
 28 26  2  0  0  0  0
 30 29  1  0  0  0  0
 31 12  1  0  0  0  0
 32 31  1  0  0  0  0
 34 33  1  6  0  0  0
 34 32  1  0  0  0  0
 35 34  1  0  0  0  0
 35 40  1  0  0  0  0
 36 42  1  6  0  0  0
 36 39  1  0  0  0  0
 37 40  1  0  0  0  0
 37 36  1  0  0  0  0
 38 39  1  0  0  0  0
 40 41  1  6  0  0  0
 40 38  1  0  0  0  0
 42 46  1  0  0  0  0
 43 46  1  0  0  0  0
 44 47  1  0  0  0  0
 44 42  1  0  0  0  0
 45 43  1  0  0  0  0
 47 45  1  0  0  0  0
M  END
>  <MODEL>
9

>  <REMARK>
 VINA RESULT:      -6.8      3.593      8.946
  Name = 
  8 active torsions:
  status: ('A' for Active; 'I' for Inactive)
    1  A    between atoms: C_4  and  C_6
    2  A    between atoms: C_15  and  O_36
    3  A    between atoms: C_15  and  C_40
    4  A    between atoms: C_22  and  C_24
    5  A    between atoms: C_24  and  C_40
    6  A    between atoms: C_30  and  O_36
    7  A    between atoms: C_31  and  C_35
    8  A    between atoms: C_33  and  C_37
                            x       y       z     vdW  Elec       q    Type
                         _______ _______ _______ _____ _____    ______ ____

>  <TORSDO>
F 8

$$$$
