=
 OpenBabel10222415373D

 40 47  0  0  1  0  0  0  0  0999 V2000
  182.7200  174.8420  136.7520 C   0  0  0  0  0  0  0  0  0  0  0  0
  182.9690  173.6480  136.0050 N   0  0  0  0  0  2  0  0  0  0  0  0
  181.9490  175.9850  138.5900 N   0  0  0  0  0  0  0  0  0  0  0  0
  182.0200  177.3340  138.0240 C   0  0  2  0  0  3  0  0  0  0  0  0
  182.8880  177.2820  136.8380 N   0  0  0  0  0  0  0  0  0  0  0  0
  182.6490  177.8780  139.2380 C   0  0  1  0  0  3  0  0  0  0  0  0
  182.1560  174.7790  137.9220 N   0  0  0  0  0  0  0  0  0  0  0  0
  182.4840  176.5600  139.7810 N   0  0  0  0  0  2  0  0  0  0  0  0
  183.1960  176.1610  136.2280 C   0  0  0  0  0  0  0  0  0  0  0  0
  181.7070  170.7780  135.2700 C   0  0  0  0  0  2  0  0  0  0  0  0
  181.1570  171.8610  136.1670 C   0  0  0  0  0  2  0  0  0  0  0  0
  182.5640  172.3290  136.4650 C   0  0  1  0  0  0  0  0  0  0  0  0
  183.1090  171.3280  135.4470 C   0  0  1  0  0  3  0  0  0  0  0  0
  183.6160  171.3190  136.8700 C   0  0  0  0  0  2  0  0  0  0  0  0
  184.0760  178.1550  139.0560 N   0  0  1  0  0  0  0  0  0  0  0  0
  184.2070  179.6280  139.0700 C   0  0  0  0  0  2  0  0  0  0  0  0
  186.1690  178.5990  140.3430 C   0  0  0  0  0  1  0  0  0  0  0  0
  184.6800  178.8610  140.2110 C   0  0  2  0  0  0  0  0  0  0  0  0
  183.8610  178.8770  141.4250 N   0  0  0  0  0  2  0  0  0  0  0  0
  184.4380  177.9390  142.3760 C   0  0  0  0  0  2  0  0  0  0  0  0
  184.6170  178.6020  143.7010 C   0  0  0  0  0  0  0  0  0  0  0  0
  186.7440  177.3440  144.2220 C   0  0  0  0  0  3  0  0  0  0  0  0
  185.7010  178.2360  144.5680 N   0  0  0  0  0  0  0  0  0  0  0  0
  185.9560  178.8140  145.8770 C   0  0  1  0  0  3  0  0  0  0  0  0
  183.8040  179.4990  144.0460 O   0  0  0  0  0  0  0  0  0  0  0  0
  184.8890  178.3610  146.8610 C   0  0  0  0  0  1  0  0  0  0  0  0
  187.6620  177.3030  145.1670 C   0  0  0  0  0  3  0  0  0  0  0  0
  187.3020  178.2200  146.2910 C   0  0  0  0  0  2  0  0  0  0  0  0
  184.7790  177.4860  134.7550 C   0  0  0  0  0  2  0  0  0  0  0  0
  185.5660  176.2740  135.2240 C   0  0  2  0  0  3  0  0  0  0  0  0
  184.0490  176.1740  134.9790 C   0  0  1  0  0  3  0  0  0  0  0  0
  189.3760  178.3580  136.8130 C   0  0  0  0  0  1  0  0  0  0  0  0
  186.6790  175.2220  137.2700 C   0  0  2  0  0  3  0  0  0  0  0  0
  188.7460  176.0720  135.9640 C   0  0  0  0  0  2  0  0  0  0  0  0
  186.0040  176.4750  136.6850 C   0  0  1  0  0  3  0  0  0  0  0  0
  188.0940  174.9190  136.7380 C   0  0  0  0  0  2  0  0  0  0  0  0
  186.9730  177.6120  136.7900 C   0  0  0  0  0  0  0  0  0  0  0  0
  186.5730  178.7580  137.1330 O   0  0  0  0  0  0  0  0  0  0  0  0
  188.3570  177.3660  136.5120 N   0  0  0  0  0  0  0  0  0  0  0  0
  185.8670  174.0940  137.1500 O   0  0  0  0  0  1  0  0  0  0  0  0
  1  7  2  0  0  0  0
  2  1  1  0  0  0  0
  3  8  1  0  0  0  0
  4  5  1  6  0  0  0
  4  3  1  0  0  0  0
  4  6  1  0  0  0  0
  6  8  1  1  0  0  0
  7  3  1  0  0  0  0
  9  1  1  0  0  0  0
  9  5  2  0  0  0  0
 10 11  1  0  0  0  0
 11 12  1  0  0  0  0
 12  2  1  6  0  0  0
 12 14  1  0  0  0  0
 13 10  1  1  0  0  0
 13 12  1  0  0  0  0
 13 14  1  0  0  0  0
 15 16  1  6  0  0  0
 15  6  1  0  0  0  0
 15 18  1  0  0  0  0
 16 18  1  0  0  0  0
 18 17  1  1  0  0  0
 18 19  1  0  0  0  0
 19 20  1  0  0  0  0
 20 21  1  0  0  0  0
 21 25  2  0  0  0  0
 21 23  1  0  0  0  0
 22 23  1  0  0  0  0
 22 27  2  0  0  0  0
 23 24  1  0  0  0  0
 24 28  1  0  0  0  0
 24 26  1  1  0  0  0
 27 28  1  0  0  0  0
 29 31  1  0  0  0  0
 30 29  1  6  0  0  0
 30 35  1  0  0  0  0
 31 30  1  0  0  0  0
 31  9  1  1  0  0  0
 33 40  1  6  0  0  0
 34 39  1  0  0  0  0
 34 36  1  0  0  0  0
 35 37  1  6  0  0  0
 35 33  1  0  0  0  0
 36 33  1  0  0  0  0
 37 38  2  0  0  0  0
 39 37  1  0  0  0  0
 39 32  1  0  0  0  0
M  END
>  <MODEL>
1

>  <REMARK>
 VINA RESULT:      -7.1      0.000      0.000
  Name = 
  7 active torsions:
  status: ('A' for Active; 'I' for Inactive)
    1  A    between atoms: C_3  and  C_35
    2  A    between atoms: N_6  and  C_25
    3  A    between atoms: N_7  and  C_15
    4  A    between atoms: C_16  and  C_23
    5  A    between atoms: C_27  and  N_39
    6  A    between atoms: C_34  and  C_37
    7  A    between atoms: C_35  and  N_39
                            x       y       z     vdW  Elec       q    Type
                         _______ _______ _______ _____ _____    ______ ____

>  <TORSDO>
F 7

$$$$
=
 OpenBabel10222415373D

 40 47  0  0  1  0  0  0  0  0999 V2000
  184.3270  177.1800  137.4940 C   0  0  0  0  0  0  0  0  0  0  0  0
  184.0500  176.3630  136.3540 N   0  0  0  0  0  2  0  0  0  0  0  0
  183.9850  177.8510  139.6650 N   0  0  0  0  0  0  0  0  0  0  0  0
  184.7890  179.0740  139.6190 C   0  0  2  0  0  3  0  0  0  0  0  0
  185.6680  178.9950  138.4420 N   0  0  0  0  0  0  0  0  0  0  0  0
  185.4370  178.7720  140.9060 C   0  0  1  0  0  3  0  0  0  0  0  0
  183.6550  177.0190  138.5960 N   0  0  0  0  0  0  0  0  0  0  0  0
  184.5700  177.6300  140.9470 N   0  0  0  0  0  2  0  0  0  0  0  0
  185.4590  178.1590  137.4510 C   0  0  0  0  0  0  0  0  0  0  0  0
  182.0430  174.5590  134.5940 C   0  0  0  0  0  2  0  0  0  0  0  0
  181.7250  175.6780  135.5580 C   0  0  0  0  0  2  0  0  0  0  0  0
  182.9870  175.3700  136.3320 C   0  0  1  0  0  0  0  0  0  0  0  0
  183.3790  174.3370  135.2770 C   0  0  1  0  0  3  0  0  0  0  0  0
  183.2870  173.9410  136.7320 C   0  0  0  0  0  2  0  0  0  0  0  0
  186.8230  178.3270  140.7470 N   0  0  1  0  0  0  0  0  0  0  0  0
  187.6600  179.3900  141.3430 C   0  0  0  0  0  2  0  0  0  0  0  0
  188.6440  177.1090  141.9460 C   0  0  0  0  0  1  0  0  0  0  0  0
  187.5180  178.1220  142.0400 C   0  0  2  0  0  0  0  0  0  0  0  0
  186.6430  178.0890  143.2140 N   0  0  0  0  0  2  0  0  0  0  0  0
  187.1860  177.1270  144.1610 C   0  0  0  0  0  2  0  0  0  0  0  0
  187.3930  177.7790  145.4870 C   0  0  0  0  0  0  0  0  0  0  0  0
  189.6770  176.7530  145.8140 C   0  0  0  0  0  3  0  0  0  0  0  0
  188.5730  177.5170  146.2620 N   0  0  0  0  0  0  0  0  0  0  0  0
  188.8640  178.0930  147.5640 C   0  0  1  0  0  3  0  0  0  0  0  0
  186.5160  178.5740  145.9170 O   0  0  0  0  0  0  0  0  0  0  0  0
  187.9300  177.5050  148.6100 C   0  0  0  0  0  1  0  0  0  0  0  0
  190.6640  176.7940  146.6870 C   0  0  0  0  0  3  0  0  0  0  0  0
  190.2930  177.6430  147.8600 C   0  0  0  0  0  2  0  0  0  0  0  0
  187.7040  178.8320  136.4820 C   0  0  0  0  0  2  0  0  0  0  0  0
  187.6460  177.3170  136.3810 C   0  0  2  0  0  3  0  0  0  0  0  0
  186.3650  178.1600  136.2400 C   0  0  1  0  0  3  0  0  0  0  0  0
  191.6970  176.4200  138.4230 C   0  0  0  0  0  1  0  0  0  0  0  0
  187.7880  175.1610  137.7450 C   0  0  2  0  0  3  0  0  0  0  0  0
  190.1800  175.2850  136.7630 C   0  0  0  0  0  2  0  0  0  0  0  0
  187.8990  176.6950  137.7650 C   0  0  1  0  0  3  0  0  0  0  0  0
  188.9440  174.4200  137.0440 C   0  0  0  0  0  2  0  0  0  0  0  0
  189.2660  177.0520  138.2580 C   0  0  0  0  0  0  0  0  0  0  0  0
  189.4220  178.0120  139.0620 O   0  0  0  0  0  0  0  0  0  0  0  0
  190.3840  176.2750  137.8130 N   0  0  0  0  0  0  0  0  0  0  0  0
  186.5620  174.7380  137.2320 O   0  0  0  0  0  1  0  0  0  0  0  0
  1  7  2  0  0  0  0
  2  1  1  0  0  0  0
  3  8  1  0  0  0  0
  4  5  1  6  0  0  0
  4  3  1  0  0  0  0
  4  6  1  0  0  0  0
  6  8  1  6  0  0  0
  7  3  1  0  0  0  0
  9  1  1  0  0  0  0
  9  5  2  0  0  0  0
 10 11  1  0  0  0  0
 11 12  1  0  0  0  0
 12  2  1  1  0  0  0
 12 14  1  0  0  0  0
 13 10  1  6  0  0  0
 13 12  1  0  0  0  0
 13 14  1  0  0  0  0
 15  6  1  0  0  0  0
 15 16  1  6  0  0  0
 15 18  1  0  0  0  0
 16 18  1  0  0  0  0
 18 17  1  1  0  0  0
 18 19  1  0  0  0  0
 19 20  1  0  0  0  0
 20 21  1  0  0  0  0
 21 25  2  0  0  0  0
 21 23  1  0  0  0  0
 22 23  1  0  0  0  0
 22 27  2  0  0  0  0
 23 24  1  0  0  0  0
 24 28  1  0  0  0  0
 24 26  1  1  0  0  0
 27 28  1  0  0  0  0
 30 29  1  1  0  0  0
 30 35  1  0  0  0  0
 31 30  1  0  0  0  0
 31 29  1  0  0  0  0
 31  9  1  1  0  0  0
 33 40  1  6  0  0  0
 33 35  1  0  0  0  0
 34 36  1  0  0  0  0
 34 39  1  0  0  0  0
 35 37  1  6  0  0  0
 36 33  1  0  0  0  0
 37 38  2  0  0  0  0
 39 37  1  0  0  0  0
 39 32  1  0  0  0  0
M  END
>  <MODEL>
2

>  <REMARK>
 VINA RESULT:      -6.4      2.081      3.139
  Name = 
  7 active torsions:
  status: ('A' for Active; 'I' for Inactive)
    1  A    between atoms: C_3  and  C_35
    2  A    between atoms: N_6  and  C_25
    3  A    between atoms: N_7  and  C_15
    4  A    between atoms: C_16  and  C_23
    5  A    between atoms: C_27  and  N_39
    6  A    between atoms: C_34  and  C_37
    7  A    between atoms: C_35  and  N_39
                            x       y       z     vdW  Elec       q    Type
                         _______ _______ _______ _____ _____    ______ ____

>  <TORSDO>
F 7

$$$$
=
 OpenBabel10222415373D

 40 47  0  0  1  0  0  0  0  0999 V2000
  184.4680  176.4300  136.6850 C   0  0  0  0  0  0  0  0  0  0  0  0
  183.7210  175.4220  135.9970 N   0  0  0  0  0  2  0  0  0  0  0  0
  184.8610  177.8350  138.4600 N   0  0  0  0  0  0  0  0  0  0  0  0
  185.8990  178.6560  137.8320 C   0  0  2  0  0  3  0  0  0  0  0  0
  186.4040  177.9270  136.6590 N   0  0  0  0  0  0  0  0  0  0  0  0
  186.7580  178.5940  139.0250 C   0  0  1  0  0  3  0  0  0  0  0  0
  184.0790  176.8540  137.8510 N   0  0  0  0  0  0  0  0  0  0  0  0
  185.6800  177.8630  139.6270 N   0  0  0  0  0  2  0  0  0  0  0  0
  185.7550  176.9290  136.1040 C   0  0  0  0  0  0  0  0  0  0  0  0
  180.7610  174.3190  135.3680 C   0  0  0  0  0  2  0  0  0  0  0  0
  181.1780  175.5440  136.1480 C   0  0  0  0  0  2  0  0  0  0  0  0
  182.4800  174.8670  136.5150 C   0  0  1  0  0  0  0  0  0  0  0  0
  182.1200  173.6900  135.6090 C   0  0  1  0  0  3  0  0  0  0  0  0
  182.4600  173.4560  137.0630 C   0  0  0  0  0  2  0  0  0  0  0  0
  187.9080  177.7050  138.8450 N   0  0  1  0  0  0  0  0  0  0  0  0
  189.0980  178.5830  138.8190 C   0  0  0  0  0  2  0  0  0  0  0  0
  189.6490  176.4610  140.1320 C   0  0  0  0  0  1  0  0  0  0  0  0
  188.8560  177.7460  139.9830 C   0  0  2  0  0  0  0  0  0  0  0  0
  188.3450  178.3970  141.1910 N   0  0  0  0  0  2  0  0  0  0  0  0
  188.2930  177.4060  142.2550 C   0  0  0  0  0  2  0  0  0  0  0  0
  187.4730  177.9210  143.3910 C   0  0  0  0  0  0  0  0  0  0  0  0
  189.1110  177.1300  145.1420 C   0  0  0  0  0  3  0  0  0  0  0  0
  187.8790  177.7080  144.7510 N   0  0  0  0  0  0  0  0  0  0  0  0
  187.1500  178.1610  145.9240 C   0  0  1  0  0  3  0  0  0  0  0  0
  186.4160  178.5570  143.1380 O   0  0  0  0  0  0  0  0  0  0  0  0
  185.8700  177.3550  146.0790 C   0  0  0  0  0  1  0  0  0  0  0  0
  189.2630  177.1830  146.4510 C   0  0  0  0  0  3  0  0  0  0  0  0
  188.0850  177.8440  147.0900 C   0  0  0  0  0  2  0  0  0  0  0  0
  187.7620  176.5420  134.6050 C   0  0  0  0  0  2  0  0  0  0  0  0
  187.3620  175.1720  135.1230 C   0  0  2  0  0  3  0  0  0  0  0  0
  186.2960  176.2530  134.8650 C   0  0  1  0  0  3  0  0  0  0  0  0
  191.4600  173.7030  136.6810 C   0  0  0  0  0  1  0  0  0  0  0  0
  187.3320  173.6980  137.2100 C   0  0  2  0  0  3  0  0  0  0  0  0
  189.3060  172.6580  135.8970 C   0  0  0  0  0  2  0  0  0  0  0  0
  187.8260  175.0120  136.5810 C   0  0  1  0  0  3  0  0  0  0  0  0
  188.0220  172.4160  136.7010 C   0  0  0  0  0  2  0  0  0  0  0  0
  189.3210  175.0280  136.6600 C   0  0  0  0  0  0  0  0  0  0  0  0
  189.9300  176.0900  136.9620 O   0  0  0  0  0  0  0  0  0  0  0  0
  190.0370  173.8140  136.4010 N   0  0  0  0  0  0  0  0  0  0  0  0
  185.9460  173.5690  137.1170 O   0  0  0  0  0  1  0  0  0  0  0  0
  1  7  2  0  0  0  0
  2  1  1  0  0  0  0
  3  8  1  0  0  0  0
  4  5  1  6  0  0  0
  4  3  1  0  0  0  0
  4  6  1  0  0  0  0
  6  8  1  1  0  0  0
  7  3  1  0  0  0  0
  9  5  2  0  0  0  0
  9  1  1  0  0  0  0
 10 11  1  0  0  0  0
 11 12  1  0  0  0  0
 12  2  1  6  0  0  0
 12 14  1  0  0  0  0
 13 10  1  1  0  0  0
 13 12  1  0  0  0  0
 13 14  1  0  0  0  0
 15 16  1  6  0  0  0
 15  6  1  0  0  0  0
 15 18  1  0  0  0  0
 16 18  1  0  0  0  0
 18 17  1  1  0  0  0
 18 19  1  0  0  0  0
 19 20  1  0  0  0  0
 20 21  1  0  0  0  0
 21 23  1  0  0  0  0
 22 27  2  0  0  0  0
 23 22  1  0  0  0  0
 23 24  1  0  0  0  0
 24 26  1  1  0  0  0
 24 28  1  0  0  0  0
 25 21  2  0  0  0  0
 27 28  1  0  0  0  0
 29 31  1  0  0  0  0
 30 29  1  6  0  0  0
 30 35  1  0  0  0  0
 31 30  1  0  0  0  0
 31  9  1  1  0  0  0
 33 40  1  6  0  0  0
 34 39  1  0  0  0  0
 34 36  1  0  0  0  0
 35 37  1  6  0  0  0
 35 33  1  0  0  0  0
 36 33  1  0  0  0  0
 37 38  2  0  0  0  0
 39 37  1  0  0  0  0
 39 32  1  0  0  0  0
M  END
>  <MODEL>
3

>  <REMARK>
 VINA RESULT:      -5.9      2.181      3.199
  Name = 
  7 active torsions:
  status: ('A' for Active; 'I' for Inactive)
    1  A    between atoms: C_3  and  C_35
    2  A    between atoms: N_6  and  C_25
    3  A    between atoms: N_7  and  C_15
    4  A    between atoms: C_16  and  C_23
    5  A    between atoms: C_27  and  N_39
    6  A    between atoms: C_34  and  C_37
    7  A    between atoms: C_35  and  N_39
                            x       y       z     vdW  Elec       q    Type
                         _______ _______ _______ _____ _____    ______ ____

>  <TORSDO>
F 7

$$$$
=
 OpenBabel10222415373D

 40 47  0  0  1  0  0  0  0  0999 V2000
  183.9800  177.3940  137.9070 C   0  0  0  0  0  0  0  0  0  0  0  0
  182.7120  176.7420  137.7900 N   0  0  0  0  0  2  0  0  0  0  0  0
  185.6090  178.5090  139.0810 N   0  0  0  0  0  0  0  0  0  0  0  0
  186.4240  178.9240  137.9380 C   0  0  2  0  0  3  0  0  0  0  0  0
  186.0360  178.1000  136.7830 N   0  0  0  0  0  0  0  0  0  0  0  0
  187.6740  178.5220  138.6020 C   0  0  1  0  0  3  0  0  0  0  0  0
  184.3590  177.8920  139.0470 N   0  0  0  0  0  0  0  0  0  0  0  0
  186.8430  178.2060  139.7290 N   0  0  0  0  0  2  0  0  0  0  0  0
  184.9140  177.4180  136.7370 C   0  0  0  0  0  0  0  0  0  0  0  0
  179.7290  177.3010  138.8690 C   0  0  0  0  0  2  0  0  0  0  0  0
  181.0370  177.9050  139.3230 C   0  0  0  0  0  2  0  0  0  0  0  0
  181.7650  176.6520  138.8910 C   0  0  1  0  0  0  0  0  0  0  0  0
  180.4660  176.1030  138.3030 C   0  0  1  0  0  3  0  0  0  0  0  0
  181.2410  175.2980  139.3210 C   0  0  0  0  0  2  0  0  0  0  0  0
  188.2330  177.2860  138.0480 N   0  0  1  0  0  0  0  0  0  0  0  0
  189.4380  177.6910  137.2930 C   0  0  0  0  0  2  0  0  0  0  0  0
  189.9160  175.5050  138.5280 C   0  0  0  0  0  1  0  0  0  0  0  0
  189.5930  176.9880  138.5560 C   0  0  2  0  0  0  0  0  0  0  0  0
  190.0050  177.7720  139.7220 N   0  0  0  0  0  2  0  0  0  0  0  0
  190.1560  176.8660  140.8500 C   0  0  0  0  0  2  0  0  0  0  0  0
  189.8090  177.5690  142.1200 C   0  0  0  0  0  0  0  0  0  0  0  0
  191.3690  176.1580  143.5170 C   0  0  0  0  0  3  0  0  0  0  0  0
  190.3700  177.1510  143.3730 N   0  0  0  0  0  0  0  0  0  0  0  0
  190.0890  177.7620  144.6610 C   0  0  1  0  0  3  0  0  0  0  0  0
  189.0170  178.5470  142.0750 O   0  0  0  0  0  0  0  0  0  0  0  0
  188.6640  177.4470  145.0840 C   0  0  0  0  0  1  0  0  0  0  0  0
  191.7800  176.0800  144.7670 C   0  0  0  0  0  3  0  0  0  0  0  0
  191.0600  177.0740  145.6200 C   0  0  0  0  0  2  0  0  0  0  0  0
  185.7210  176.3220  134.5980 C   0  0  0  0  0  2  0  0  0  0  0  0
  185.1190  175.2060  135.4330 C   0  0  2  0  0  3  0  0  0  0  0  0
  184.5410  176.6320  135.5010 C   0  0  1  0  0  3  0  0  0  0  0  0
  188.7120  172.3020  135.2320 C   0  0  0  0  0  1  0  0  0  0  0  0
  185.5160  173.7310  137.4820 C   0  0  2  0  0  3  0  0  0  0  0  0
  186.2220  172.1300  135.5740 C   0  0  0  0  0  2  0  0  0  0  0  0
  186.0940  174.8160  136.5580 C   0  0  1  0  0  3  0  0  0  0  0  0
  185.4280  172.3170  136.8740 C   0  0  0  0  0  2  0  0  0  0  0  0
  187.3750  174.2980  135.9840 C   0  0  0  0  0  0  0  0  0  0  0  0
  188.3760  175.0580  135.8730 O   0  0  0  0  0  0  0  0  0  0  0  0
  187.4440  172.9250  135.5810 N   0  0  0  0  0  0  0  0  0  0  0  0
  184.2800  174.1060  138.0100 O   0  0  0  0  0  1  0  0  0  0  0  0
  1  7  2  0  0  0  0
  2  1  1  0  0  0  0
  3  8  1  0  0  0  0
  4  5  1  6  0  0  0
  4  6  1  0  0  0  0
  4  3  1  0  0  0  0
  6  8  1  1  0  0  0
  7  3  1  0  0  0  0
  9  5  2  0  0  0  0
  9  1  1  0  0  0  0
 10 11  1  0  0  0  0
 12  2  1  6  0  0  0
 12 14  1  0  0  0  0
 12 11  1  0  0  0  0
 13 10  1  1  0  0  0
 13 12  1  0  0  0  0
 13 14  1  0  0  0  0
 15 16  1  6  0  0  0
 15 18  1  0  0  0  0
 15  6  1  0  0  0  0
 16 18  1  0  0  0  0
 18 17  1  6  0  0  0
 18 19  1  0  0  0  0
 19 20  1  0  0  0  0
 20 21  1  0  0  0  0
 21 23  1  0  0  0  0
 22 27  2  0  0  0  0
 23 22  1  0  0  0  0
 23 24  1  0  0  0  0
 24 26  1  1  0  0  0
 24 28  1  0  0  0  0
 25 21  2  0  0  0  0
 27 28  1  0  0  0  0
 29 31  1  0  0  0  0
 30 29  1  6  0  0  0
 30 31  1  0  0  0  0
 30 35  1  0  0  0  0
 31  9  1  1  0  0  0
 32 39  1  0  0  0  0
 33 40  1  6  0  0  0
 34 39  1  0  0  0  0
 34 36  1  0  0  0  0
 35 37  1  6  0  0  0
 35 33  1  0  0  0  0
 36 33  1  0  0  0  0
 38 37  2  0  0  0  0
 39 37  1  0  0  0  0
M  END
>  <MODEL>
4

>  <REMARK>
 VINA RESULT:      -5.8      2.727      4.616
  Name = 
  7 active torsions:
  status: ('A' for Active; 'I' for Inactive)
    1  A    between atoms: C_3  and  C_35
    2  A    between atoms: N_6  and  C_25
    3  A    between atoms: N_7  and  C_15
    4  A    between atoms: C_16  and  C_23
    5  A    between atoms: C_27  and  N_39
    6  A    between atoms: C_34  and  C_37
    7  A    between atoms: C_35  and  N_39
                            x       y       z     vdW  Elec       q    Type
                         _______ _______ _______ _____ _____    ______ ____

>  <TORSDO>
F 7

$$$$
=
 OpenBabel10222415373D

 40 47  0  0  1  0  0  0  0  0999 V2000
  185.0550  178.3670  140.5420 C   0  0  0  0  0  0  0  0  0  0  0  0
  184.4910  178.4860  141.8510 N   0  0  0  0  0  2  0  0  0  0  0  0
  186.7880  178.4890  139.0390 N   0  0  0  0  0  0  0  0  0  0  0  0
  185.9940  178.3620  137.8150 C   0  0  2  0  0  3  0  0  0  0  0  0
  184.6750  177.8270  138.1850 N   0  0  0  0  0  0  0  0  0  0  0  0
  186.9280  177.3820  137.2360 C   0  0  1  0  0  3  0  0  0  0  0  0
  186.3120  178.6310  140.3410 N   0  0  0  0  0  0  0  0  0  0  0  0
  187.7140  177.6020  138.4160 N   0  0  0  0  0  2  0  0  0  0  0  0
  184.2170  177.8450  139.4150 C   0  0  0  0  0  0  0  0  0  0  0  0
  184.5440  179.1120  145.0100 C   0  0  0  0  0  2  0  0  0  0  0  0
  184.6700  180.0660  143.8450 C   0  0  0  0  0  2  0  0  0  0  0  0
  185.2510  178.9560  142.9980 C   0  0  1  0  0  0  0  0  0  0  0  0
  184.9900  177.9610  144.1290 C   0  0  1  0  0  3  0  0  0  0  0  0
  186.3780  178.1090  143.5500 C   0  0  0  0  0  2  0  0  0  0  0  0
  186.3940  176.0190  137.2530 N   0  0  1  0  0  0  0  0  0  0  0  0
  186.0630  175.6960  135.8480 C   0  0  0  0  0  2  0  0  0  0  0  0
  187.0840  173.6370  136.9640 C   0  0  0  0  0  1  0  0  0  0  0  0
  187.2160  175.0650  136.4710 C   0  0  2  0  0  0  0  0  0  0  0  0
  188.5430  175.5560  136.0940 N   0  0  0  0  0  2  0  0  0  0  0  0
  189.5090  174.4980  136.3470 C   0  0  0  0  0  2  0  0  0  0  0  0
  190.6890  175.0480  137.0770 C   0  0  0  0  0  0  0  0  0  0  0  0
  192.0170  175.4390  134.9650 C   0  0  0  0  0  3  0  0  0  0  0  0
  191.8820  175.4250  136.3750 N   0  0  0  0  0  0  0  0  0  0  0  0
  193.0840  175.9600  136.9930 C   0  0  1  0  0  3  0  0  0  0  0  0
  190.6190  175.1870  138.3270 O   0  0  0  0  0  0  0  0  0  0  0  0
  193.7820  174.8730  137.7940 C   0  0  0  0  0  1  0  0  0  0  0  0
  193.1770  175.9510  134.6070 C   0  0  0  0  0  3  0  0  0  0  0  0
  193.9670  176.3560  135.8100 C   0  0  0  0  0  2  0  0  0  0  0  0
  181.8630  178.4150  140.1670 C   0  0  0  0  0  2  0  0  0  0  0  0
  181.7220  177.8180  138.7770 C   0  0  2  0  0  3  0  0  0  0  0  0
  182.8300  177.3310  139.7280 C   0  0  1  0  0  3  0  0  0  0  0  0
  179.7960  181.9230  137.8660 C   0  0  0  0  0  1  0  0  0  0  0  0
  181.6100  178.5120  136.3200 C   0  0  2  0  0  3  0  0  0  0  0  0
  179.4020  179.5200  137.2200 C   0  0  0  0  0  2  0  0  0  0  0  0
  182.1420  178.8560  137.7220 C   0  0  1  0  0  3  0  0  0  0  0  0
  180.0940  178.7090  136.1170 C   0  0  0  0  0  2  0  0  0  0  0  0
  181.6300  180.2140  138.0880 C   0  0  0  0  0  0  0  0  0  0  0  0
  182.3820  181.0400  138.6750 O   0  0  0  0  0  0  0  0  0  0  0  0
  180.2810  180.5570  137.7470 N   0  0  0  0  0  0  0  0  0  0  0  0
  181.9860  177.2270  135.9250 O   0  0  0  0  0  1  0  0  0  0  0  0
  1  2  1  0  0  0  0
  3  7  1  0  0  0  0
  4  5  1  1  0  0  0
  4  3  1  0  0  0  0
  5  9  2  0  0  0  0
  6 15  1  0  0  0  0
  6  4  1  0  0  0  0
  6  8  1  1  0  0  0
  7  1  2  0  0  0  0
  8  3  1  0  0  0  0
  9  1  1  0  0  0  0
 11 10  1  0  0  0  0
 12  2  1  6  0  0  0
 12 14  1  0  0  0  0
 12 11  1  0  0  0  0
 12 13  1  0  0  0  0
 13 14  1  1  0  0  0
 13 10  1  0  0  0  0
 15 16  1  6  0  0  0
 16 18  1  0  0  0  0
 18 17  1  1  0  0  0
 18 15  1  0  0  0  0
 19 20  1  0  0  0  0
 19 18  1  0  0  0  0
 20 21  1  0  0  0  0
 21 25  2  0  0  0  0
 22 23  1  0  0  0  0
 23 24  1  0  0  0  0
 23 21  1  0  0  0  0
 24 26  1  6  0  0  0
 27 22  2  0  0  0  0
 27 28  1  0  0  0  0
 28 24  1  0  0  0  0
 30 31  1  0  0  0  0
 30 29  1  1  0  0  0
 31  9  1  6  0  0  0
 31 29  1  0  0  0  0
 33 40  1  1  0  0  0
 33 35  1  0  0  0  0
 34 39  1  0  0  0  0
 35 37  1  1  0  0  0
 35 30  1  0  0  0  0
 36 33  1  0  0  0  0
 36 34  1  0  0  0  0
 37 38  2  0  0  0  0
 39 32  1  0  0  0  0
 39 37  1  0  0  0  0
M  END
>  <MODEL>
5

>  <REMARK>
 VINA RESULT:      -5.7      3.070      8.310
  Name = 
  7 active torsions:
  status: ('A' for Active; 'I' for Inactive)
    1  A    between atoms: C_3  and  C_35
    2  A    between atoms: N_6  and  C_25
    3  A    between atoms: N_7  and  C_15
    4  A    between atoms: C_16  and  C_23
    5  A    between atoms: C_27  and  N_39
    6  A    between atoms: C_34  and  C_37
    7  A    between atoms: C_35  and  N_39
                            x       y       z     vdW  Elec       q    Type
                         _______ _______ _______ _____ _____    ______ ____

>  <TORSDO>
F 7

$$$$
=
 OpenBabel10222415373D

 40 47  0  0  1  0  0  0  0  0999 V2000
  188.3250  176.2260  137.7290 C   0  0  0  0  0  0  0  0  0  0  0  0
  187.0640  176.8880  137.5930 N   0  0  0  0  0  2  0  0  0  0  0  0
  189.8230  174.5530  137.2440 N   0  0  0  0  0  0  0  0  0  0  0  0
  190.7880  174.8420  138.3070 C   0  0  2  0  0  3  0  0  0  0  0  0
  190.5270  176.2030  138.7980 N   0  0  0  0  0  0  0  0  0  0  0  0
  191.9320  174.7160  137.3890 C   0  0  1  0  0  3  0  0  0  0  0  0
  188.5710  175.1380  137.0610 N   0  0  0  0  0  0  0  0  0  0  0  0
  190.9560  174.3570  136.4000 N   0  0  0  0  0  2  0  0  0  0  0  0
  189.4010  176.8400  138.5700 C   0  0  0  0  0  0  0  0  0  0  0  0
  183.9130  176.2900  137.2960 C   0  0  0  0  0  2  0  0  0  0  0  0
  185.0680  175.3180  137.3580 C   0  0  0  0  0  2  0  0  0  0  0  0
  185.9840  176.3680  136.7700 C   0  0  1  0  0  0  0  0  0  0  0  0
  184.8520  177.3920  136.8420 C   0  0  1  0  0  3  0  0  0  0  0  0
  185.5530  177.1240  135.5300 C   0  0  0  0  0  2  0  0  0  0  0  0
  192.5220  176.0120  137.0440 N   0  0  1  0  0  0  0  0  0  0  0  0
  193.6060  176.2360  138.0250 C   0  0  0  0  0  2  0  0  0  0  0  0
  194.3760  177.0350  135.7230 C   0  0  0  0  0  1  0  0  0  0  0  0
  193.9460  175.9130  136.6490 C   0  0  2  0  0  0  0  0  0  0  0  0
  194.4180  174.5550  136.3690 N   0  0  0  0  0  2  0  0  0  0  0  0
  195.7310  174.3940  136.9740 C   0  0  0  0  0  2  0  0  0  0  0  0
  195.8130  173.0780  137.6740 C   0  0  0  0  0  0  0  0  0  0  0  0
  196.9080  171.9230  135.7130 C   0  0  0  0  0  3  0  0  0  0  0  0
  196.3270  171.9180  137.0050 N   0  0  0  0  0  0  0  0  0  0  0  0
  196.4400  170.5940  137.5930 C   0  0  1  0  0  3  0  0  0  0  0  0
  195.4300  173.0020  138.8710 O   0  0  0  0  0  0  0  0  0  0  0  0
  195.0570  169.9910  137.7810 C   0  0  0  0  0  1  0  0  0  0  0  0
  197.4060  170.7400  135.4150 C   0  0  0  0  0  3  0  0  0  0  0  0
  197.2000  169.7830  136.5440 C   0  0  0  0  0  2  0  0  0  0  0  0
  188.0920  178.2540  140.2180 C   0  0  0  0  0  2  0  0  0  0  0  0
  189.5480  178.3810  140.6290 C   0  0  2  0  0  3  0  0  0  0  0  0
  189.1660  178.2180  139.1470 C   0  0  1  0  0  3  0  0  0  0  0  0
  188.7300  177.1440  145.0100 C   0  0  0  0  0  1  0  0  0  0  0  0
  191.4470  177.1900  141.8570 C   0  0  2  0  0  3  0  0  0  0  0  0
  190.4030  178.5720  143.7810 C   0  0  0  0  0  2  0  0  0  0  0  0
  189.9940  177.1010  141.3580 C   0  0  1  0  0  3  0  0  0  0  0  0
  191.6810  178.1270  143.0590 C   0  0  0  0  0  2  0  0  0  0  0  0
  189.1160  176.8390  142.5420 C   0  0  0  0  0  0  0  0  0  0  0  0
  188.1590  176.0210  142.4540 O   0  0  0  0  0  0  0  0  0  0  0  0
  189.3940  177.5190  143.7710 N   0  0  0  0  0  0  0  0  0  0  0  0
  192.3310  177.5020  140.8230 O   0  0  0  0  0  1  0  0  0  0  0  0
  1  9  1  0  0  0  0
  2  1  1  0  0  0  0
  3  4  1  0  0  0  0
  4  5  1  6  0  0  0
  6  8  1  6  0  0  0
  6  4  1  0  0  0  0
  7  3  1  0  0  0  0
  7  1  2  0  0  0  0
  8  3  1  0  0  0  0
  9  5  2  0  0  0  0
 10 11  1  0  0  0  0
 12 13  1  0  0  0  0
 12 11  1  0  0  0  0
 12  2  1  1  0  0  0
 13 14  1  6  0  0  0
 13 10  1  0  0  0  0
 14 12  1  0  0  0  0
 15  6  1  0  0  0  0
 15 16  1  1  0  0  0
 18 17  1  6  0  0  0
 18 15  1  0  0  0  0
 18 16  1  0  0  0  0
 19 18  1  0  0  0  0
 19 20  1  0  0  0  0
 20 21  1  0  0  0  0
 21 25  2  0  0  0  0
 22 23  1  0  0  0  0
 23 24  1  0  0  0  0
 23 21  1  0  0  0  0
 24 26  1  6  0  0  0
 27 22  2  0  0  0  0
 27 28  1  0  0  0  0
 28 24  1  0  0  0  0
 30 29  1  1  0  0  0
 30 35  1  0  0  0  0
 31  9  1  1  0  0  0
 31 29  1  0  0  0  0
 31 30  1  0  0  0  0
 33 40  1  6  0  0  0
 33 36  1  0  0  0  0
 35 33  1  0  0  0  0
 35 37  1  1  0  0  0
 36 34  1  0  0  0  0
 37 39  1  0  0  0  0
 38 37  2  0  0  0  0
 39 34  1  0  0  0  0
 39 32  1  0  0  0  0
M  END
>  <MODEL>
6

>  <REMARK>
 VINA RESULT:      -5.5      5.465      9.832
  Name = 
  7 active torsions:
  status: ('A' for Active; 'I' for Inactive)
    1  A    between atoms: C_3  and  C_35
    2  A    between atoms: N_6  and  C_25
    3  A    between atoms: N_7  and  C_15
    4  A    between atoms: C_16  and  C_23
    5  A    between atoms: C_27  and  N_39
    6  A    between atoms: C_34  and  C_37
    7  A    between atoms: C_35  and  N_39
                            x       y       z     vdW  Elec       q    Type
                         _______ _______ _______ _____ _____    ______ ____

>  <TORSDO>
F 7

$$$$
=
 OpenBabel10222415373D

 40 47  0  0  1  0  0  0  0  0999 V2000
  188.1330  177.8630  141.3640 C   0  0  0  0  0  0  0  0  0  0  0  0
  189.3910  177.2070  141.1850 N   0  0  0  0  0  2  0  0  0  0  0  0
  186.5200  179.3930  140.7860 N   0  0  0  0  0  0  0  0  0  0  0  0
  185.7090  179.2900  142.0020 C   0  0  2  0  0  3  0  0  0  0  0  0
  186.0850  178.0470  142.6920 N   0  0  0  0  0  0  0  0  0  0  0  0
  184.4540  179.2260  141.2350 C   0  0  1  0  0  3  0  0  0  0  0  0
  187.7610  178.8050  140.5480 N   0  0  0  0  0  0  0  0  0  0  0  0
  185.2820  179.4110  140.0780 N   0  0  0  0  0  2  0  0  0  0  0  0
  187.1970  177.3970  142.4370 C   0  0  0  0  0  0  0  0  0  0  0  0
  191.9680  176.4030  139.4270 C   0  0  0  0  0  2  0  0  0  0  0  0
  191.8170  177.5030  140.4520 C   0  0  0  0  0  2  0  0  0  0  0  0
  190.3380  177.5840  140.1470 C   0  0  1  0  0  0  0  0  0  0  0  0
  190.4660  176.3770  139.2180 C   0  0  1  0  0  3  0  0  0  0  0  0
  189.8760  177.6710  138.7070 C   0  0  0  0  0  2  0  0  0  0  0  0
  183.8780  177.8790  141.2110 N   0  0  1  0  0  0  0  0  0  0  0  0
  182.5350  178.0030  141.8190 C   0  0  0  0  0  2  0  0  0  0  0  0
  182.4150  176.3940  139.8370 C   0  0  0  0  0  1  0  0  0  0  0  0
  182.6510  177.7890  140.3860 C   0  0  2  0  0  0  0  0  0  0  0  0
  182.4100  178.9370  139.5080 N   0  0  0  0  0  2  0  0  0  0  0  0
  180.9940  178.9680  139.1760 C   0  0  0  0  0  2  0  0  0  0  0  0
  180.5710  180.3680  138.8770 C   0  0  0  0  0  0  0  0  0  0  0  0
  180.8050  180.0740  136.3800 C   0  0  0  0  0  3  0  0  0  0  0  0
  180.5580  180.8620  137.5300 N   0  0  0  0  0  0  0  0  0  0  0  0
  180.1720  182.2070  137.1360 C   0  0  1  0  0  3  0  0  0  0  0  0
  180.2150  181.1110  139.8290 O   0  0  0  0  0  0  0  0  0  0  0  0
  181.2260  183.2030  137.5940 C   0  0  0  0  0  1  0  0  0  0  0  0
  180.5970  180.7680  135.2790 C   0  0  0  0  0  3  0  0  0  0  0  0
  180.1590  182.1590  135.6080 C   0  0  0  0  0  2  0  0  0  0  0  0
  189.0110  176.1090  143.6530 C   0  0  0  0  0  2  0  0  0  0  0  0
  187.9380  176.3930  144.6900 C   0  0  2  0  0  3  0  0  0  0  0  0
  187.5580  176.1530  143.2170 C   0  0  1  0  0  3  0  0  0  0  0  0
  190.5580  178.2220  148.0330 C   0  0  0  0  0  1  0  0  0  0  0  0
  186.8790  178.2520  146.0880 C   0  0  2  0  0  3  0  0  0  0  0  0
  188.3300  177.0580  147.8690 C   0  0  0  0  0  2  0  0  0  0  0  0
  188.0250  177.8620  145.1370 C   0  0  1  0  0  3  0  0  0  0  0  0
  186.9670  177.6650  147.5110 C   0  0  0  0  0  2  0  0  0  0  0  0
  189.3190  178.1190  145.8460 C   0  0  0  0  0  0  0  0  0  0  0  0
  190.2920  178.6280  145.2260 O   0  0  0  0  0  0  0  0  0  0  0  0
  189.4200  177.7920  147.2370 N   0  0  0  0  0  0  0  0  0  0  0  0
  185.6300  177.9790  145.5300 O   0  0  0  0  0  1  0  0  0  0  0  0
  1  9  1  0  0  0  0
  2  1  1  0  0  0  0
  3  4  1  0  0  0  0
  4  5  1  6  0  0  0
  6  8  1  6  0  0  0
  6  4  1  0  0  0  0
  7  3  1  0  0  0  0
  7  1  2  0  0  0  0
  8  3  1  0  0  0  0
  9  5  2  0  0  0  0
 10 11  1  0  0  0  0
 12 11  1  0  0  0  0
 12  2  1  1  0  0  0
 13 14  1  6  0  0  0
 13 10  1  0  0  0  0
 13 12  1  0  0  0  0
 14 12  1  0  0  0  0
 15  6  1  0  0  0  0
 15 16  1  1  0  0  0
 18 17  1  6  0  0  0
 18 15  1  0  0  0  0
 18 16  1  0  0  0  0
 19 18  1  0  0  0  0
 20 19  1  0  0  0  0
 21 20  1  0  0  0  0
 21 25  2  0  0  0  0
 22 23  1  0  0  0  0
 23 21  1  0  0  0  0
 24 23  1  0  0  0  0
 24 26  1  6  0  0  0
 27 28  1  0  0  0  0
 27 22  2  0  0  0  0
 28 24  1  0  0  0  0
 30 29  1  6  0  0  0
 30 35  1  0  0  0  0
 31  9  1  6  0  0  0
 31 29  1  0  0  0  0
 31 30  1  0  0  0  0
 33 40  1  6  0  0  0
 33 36  1  0  0  0  0
 35 37  1  1  0  0  0
 35 33  1  0  0  0  0
 36 34  1  0  0  0  0
 37 39  1  0  0  0  0
 38 37  2  0  0  0  0
 39 34  1  0  0  0  0
 39 32  1  0  0  0  0
M  END
>  <MODEL>
7

>  <REMARK>
 VINA RESULT:      -5.5      4.117      8.817
  Name = 
  7 active torsions:
  status: ('A' for Active; 'I' for Inactive)
    1  A    between atoms: C_3  and  C_35
    2  A    between atoms: N_6  and  C_25
    3  A    between atoms: N_7  and  C_15
    4  A    between atoms: C_16  and  C_23
    5  A    between atoms: C_27  and  N_39
    6  A    between atoms: C_34  and  C_37
    7  A    between atoms: C_35  and  N_39
                            x       y       z     vdW  Elec       q    Type
                         _______ _______ _______ _____ _____    ______ ____

>  <TORSDO>
F 7

$$$$
=
 OpenBabel10222415373D

 40 47  0  0  1  0  0  0  0  0999 V2000
  184.1480  177.0410  137.4920 C   0  0  0  0  0  0  0  0  0  0  0  0
  183.4990  176.1860  136.5470 N   0  0  0  0  0  2  0  0  0  0  0  0
  184.3720  178.0050  139.5650 N   0  0  0  0  0  0  0  0  0  0  0  0
  185.3800  179.0050  139.2070 C   0  0  2  0  0  3  0  0  0  0  0  0
  185.9810  178.6040  137.9270 N   0  0  0  0  0  0  0  0  0  0  0  0
  186.1890  178.7090  140.4000 C   0  0  1  0  0  3  0  0  0  0  0  0
  183.6830  177.1560  138.7010 N   0  0  0  0  0  0  0  0  0  0  0  0
  185.1370  177.8000  140.7520 N   0  0  0  0  0  2  0  0  0  0  0  0
  185.4230  177.7320  137.1180 C   0  0  0  0  0  0  0  0  0  0  0  0
  180.5650  175.2750  135.5800 C   0  0  0  0  0  2  0  0  0  0  0  0
  180.9540  176.1840  136.7220 C   0  0  0  0  0  2  0  0  0  0  0  0
  182.2760  175.4600  136.8480 C   0  0  1  0  0  0  0  0  0  0  0  0
  181.9410  174.6380  135.6040 C   0  0  1  0  0  3  0  0  0  0  0  0
  182.2950  173.9460  136.9000 C   0  0  0  0  0  2  0  0  0  0  0  0
  187.4020  177.9510  140.0830 N   0  0  1  0  0  0  0  0  0  0  0  0
  188.5270  178.8940  140.2620 C   0  0  0  0  0  2  0  0  0  0  0  0
  189.2070  176.5970  141.1520 C   0  0  0  0  0  1  0  0  0  0  0  0
  188.3280  177.8310  141.2340 C   0  0  2  0  0  0  0  0  0  0  0  0
  187.7540  178.1970  142.5300 N   0  0  0  0  0  2  0  0  0  0  0  0
  187.5860  176.9830  143.3140 C   0  0  0  0  0  2  0  0  0  0  0  0
  187.1140  177.3240  144.6880 C   0  0  0  0  0  0  0  0  0  0  0  0
  184.9150  178.2610  143.8740 C   0  0  0  0  0  3  0  0  0  0  0  0
  185.8590  177.9890  144.8940 N   0  0  0  0  0  0  0  0  0  0  0  0
  185.3150  178.3710  146.1860 C   0  0  1  0  0  3  0  0  0  0  0  0
  187.8340  177.0110  145.6730 O   0  0  0  0  0  0  0  0  0  0  0  0
  186.1270  179.5160  146.7710 C   0  0  0  0  0  1  0  0  0  0  0  0
  183.8050  178.7610  144.3790 C   0  0  0  0  0  3  0  0  0  0  0  0
  183.9060  178.8680  145.8660 C   0  0  0  0  0  2  0  0  0  0  0  0
  187.5280  177.7730  135.7050 C   0  0  0  0  0  2  0  0  0  0  0  0
  187.1470  176.3090  135.8390 C   0  0  2  0  0  3  0  0  0  0  0  0
  186.0600  177.3980  135.7880 C   0  0  1  0  0  3  0  0  0  0  0  0
  191.2210  174.6520  137.2700 C   0  0  0  0  0  1  0  0  0  0  0  0
  187.0760  174.3490  137.4780 C   0  0  2  0  0  3  0  0  0  0  0  0
  189.1810  173.7590  136.0920 C   0  0  0  0  0  2  0  0  0  0  0  0
  187.5310  175.7990  137.2390 C   0  0  1  0  0  3  0  0  0  0  0  0
  187.8670  173.2690  136.7130 C   0  0  0  0  0  2  0  0  0  0  0  0
  189.0150  175.8530  137.4280 C   0  0  0  0  0  0  0  0  0  0  0  0
  189.5440  176.8250  138.0340 O   0  0  0  0  0  0  0  0  0  0  0  0
  189.8130  174.7760  136.9240 N   0  0  0  0  0  0  0  0  0  0  0  0
  185.7070  174.1940  137.2550 O   0  0  0  0  0  1  0  0  0  0  0  0
  1  7  2  0  0  0  0
  2  1  1  0  0  0  0
  3  8  1  0  0  0  0
  4  5  1  6  0  0  0
  4  3  1  0  0  0  0
  4  6  1  0  0  0  0
  6  8  1  1  0  0  0
  7  3  1  0  0  0  0
  9  1  1  0  0  0  0
  9  5  2  0  0  0  0
 10 11  1  0  0  0  0
 11 12  1  0  0  0  0
 12  2  1  1  0  0  0
 12 14  1  0  0  0  0
 13 10  1  1  0  0  0
 13 12  1  0  0  0  0
 13 14  1  0  0  0  0
 15 16  1  6  0  0  0
 15  6  1  0  0  0  0
 15 18  1  0  0  0  0
 16 18  1  0  0  0  0
 18 17  1  6  0  0  0
 18 19  1  0  0  0  0
 19 20  1  0  0  0  0
 20 21  1  0  0  0  0
 21 23  1  0  0  0  0
 21 25  2  0  0  0  0
 22 27  2  0  0  0  0
 22 23  1  0  0  0  0
 23 24  1  0  0  0  0
 24 26  1  6  0  0  0
 27 28  1  0  0  0  0
 28 24  1  0  0  0  0
 29 31  1  0  0  0  0
 30 29  1  1  0  0  0
 30 35  1  0  0  0  0
 31 30  1  0  0  0  0
 31  9  1  1  0  0  0
 33 40  1  6  0  0  0
 34 36  1  0  0  0  0
 34 39  1  0  0  0  0
 35 37  1  6  0  0  0
 35 33  1  0  0  0  0
 36 33  1  0  0  0  0
 37 38  2  0  0  0  0
 39 32  1  0  0  0  0
 39 37  1  0  0  0  0
M  END
>  <MODEL>
8

>  <REMARK>
 VINA RESULT:      -5.4      2.006      3.185
  Name = 
  7 active torsions:
  status: ('A' for Active; 'I' for Inactive)
    1  A    between atoms: C_3  and  C_35
    2  A    between atoms: N_6  and  C_25
    3  A    between atoms: N_7  and  C_15
    4  A    between atoms: C_16  and  C_23
    5  A    between atoms: C_27  and  N_39
    6  A    between atoms: C_34  and  C_37
    7  A    between atoms: C_35  and  N_39
                            x       y       z     vdW  Elec       q    Type
                         _______ _______ _______ _____ _____    ______ ____

>  <TORSDO>
F 7

$$$$
=
 OpenBabel10222415373D

 40 47  0  0  1  0  0  0  0  0999 V2000
  187.8830  177.9990  141.3080 C   0  0  0  0  0  0  0  0  0  0  0  0
  188.1140  177.8110  142.7070 N   0  0  0  0  0  2  0  0  0  0  0  0
  188.5550  178.0720  139.1130 N   0  0  0  0  0  0  0  0  0  0  0  0
  187.3430  178.6800  138.5580 C   0  0  2  0  0  3  0  0  0  0  0  0
  186.2660  178.5260  139.5480 N   0  0  0  0  0  0  0  0  0  0  0  0
  187.3030  177.7280  137.4360 C   0  0  1  0  0  3  0  0  0  0  0  0
  188.8600  177.8760  140.4590 N   0  0  0  0  0  0  0  0  0  0  0  0
  188.5340  177.2190  137.9690 N   0  0  0  0  0  2  0  0  0  0  0  0
  186.4920  178.2440  140.8100 C   0  0  0  0  0  0  0  0  0  0  0  0
  190.0260  177.7820  145.2990 C   0  0  0  0  0  2  0  0  0  0  0  0
  190.1220  178.6280  144.0510 C   0  0  0  0  0  2  0  0  0  0  0  0
  189.4320  177.5390  143.2600 C   0  0  1  0  0  0  0  0  0  0  0  0
  189.2070  176.7490  144.5490 C   0  0  1  0  0  3  0  0  0  0  0  0
  189.9160  176.1090  143.3780 C   0  0  0  0  0  2  0  0  0  0  0  0
  186.2510  176.7210  137.5900 N   0  0  1  0  0  0  0  0  0  0  0  0
  185.2830  176.9780  136.5010 C   0  0  0  0  0  2  0  0  0  0  0  0
  185.5710  174.4550  136.7920 C   0  0  0  0  0  1  0  0  0  0  0  0
  186.1470  175.8100  136.4250 C   0  0  2  0  0  0  0  0  0  0  0  0
  187.2770  175.8630  135.4950 N   0  0  0  0  0  2  0  0  0  0  0  0
  187.8400  174.5260  135.3870 C   0  0  0  0  0  2  0  0  0  0  0  0
  189.3300  174.6020  135.3390 C   0  0  0  0  0  0  0  0  0  0  0  0
  189.6030  172.1320  134.8940 C   0  0  0  0  0  3  0  0  0  0  0  0
  190.1250  173.4210  135.1620 N   0  0  0  0  0  0  0  0  0  0  0  0
  191.5770  173.3880  135.1100 C   0  0  1  0  0  3  0  0  0  0  0  0
  189.8840  175.7280  135.4470 O   0  0  0  0  0  0  0  0  0  0  0  0
  192.1510  173.6840  136.4860 C   0  0  0  0  0  1  0  0  0  0  0  0
  190.5720  171.2710  134.6510 C   0  0  0  0  0  3  0  0  0  0  0  0
  191.9040  171.9440  134.7310 C   0  0  0  0  0  2  0  0  0  0  0  0
  184.4540  179.3780  141.8050 C   0  0  0  0  0  2  0  0  0  0  0  0
  183.9450  178.0980  141.1640 C   0  0  2  0  0  3  0  0  0  0  0  0
  185.3480  178.1520  141.7950 C   0  0  1  0  0  3  0  0  0  0  0  0
  181.3900  181.0830  138.7240 C   0  0  0  0  0  1  0  0  0  0  0  0
  182.9620  177.2370  138.9680 C   0  0  2  0  0  3  0  0  0  0  0  0
  181.0730  178.8140  139.7720 C   0  0  0  0  0  2  0  0  0  0  0  0
  183.8810  178.2740  139.6370 C   0  0  1  0  0  3  0  0  0  0  0  0
  181.4510  177.4430  139.1970 C   0  0  0  0  0  2  0  0  0  0  0  0
  183.3710  179.6360  139.2860 C   0  0  0  0  0  0  0  0  0  0  0  0
  184.1780  180.5620  138.9950 O   0  0  0  0  0  0  0  0  0  0  0  0
  181.9560  179.8600  139.2720 N   0  0  0  0  0  0  0  0  0  0  0  0
  183.3260  175.9320  139.3000 O   0  0  0  0  0  1  0  0  0  0  0  0
  1  2  1  0  0  0  0
  3  7  1  0  0  0  0
  4  3  1  0  0  0  0
  4  5  1  1  0  0  0
  5  9  2  0  0  0  0
  6 15  1  0  0  0  0
  6  8  1  1  0  0  0
  6  4  1  0  0  0  0
  7  1  2  0  0  0  0
  8  3  1  0  0  0  0
  9  1  1  0  0  0  0
 11 10  1  0  0  0  0
 12  2  1  6  0  0  0
 12 14  1  0  0  0  0
 12 11  1  0  0  0  0
 12 13  1  0  0  0  0
 13 14  1  6  0  0  0
 13 10  1  0  0  0  0
 15 16  1  6  0  0  0
 18 16  1  0  0  0  0
 18 17  1  1  0  0  0
 18 15  1  0  0  0  0
 19 18  1  0  0  0  0
 20 19  1  0  0  0  0
 21 20  1  0  0  0  0
 21 25  2  0  0  0  0
 22 23  1  0  0  0  0
 23 21  1  0  0  0  0
 24 23  1  0  0  0  0
 24 26  1  1  0  0  0
 27 28  1  0  0  0  0
 27 22  2  0  0  0  0
 28 24  1  0  0  0  0
 30 31  1  0  0  0  0
 30 29  1  1  0  0  0
 31  9  1  6  0  0  0
 31 29  1  0  0  0  0
 32 39  1  0  0  0  0
 33 36  1  0  0  0  0
 33 40  1  1  0  0  0
 33 35  1  0  0  0  0
 35 37  1  1  0  0  0
 35 30  1  0  0  0  0
 36 34  1  0  0  0  0
 38 37  2  0  0  0  0
 39 37  1  0  0  0  0
 39 34  1  0  0  0  0
M  END
>  <MODEL>
9

>  <REMARK>
 VINA RESULT:      -5.2      3.047      8.795
  Name = 
  7 active torsions:
  status: ('A' for Active; 'I' for Inactive)
    1  A    between atoms: C_3  and  C_35
    2  A    between atoms: N_6  and  C_25
    3  A    between atoms: N_7  and  C_15
    4  A    between atoms: C_16  and  C_23
    5  A    between atoms: C_27  and  N_39
    6  A    between atoms: C_34  and  C_37
    7  A    between atoms: C_35  and  N_39
                            x       y       z     vdW  Elec       q    Type
                         _______ _______ _______ _____ _____    ______ ____

>  <TORSDO>
F 7

$$$$
