=
 OpenBabel10222415523D

 29 32  0  0  1  0  0  0  0  0999 V2000
  186.1640  177.9990  140.3430 C   0  0  0  0  0  2  0  0  0  0  0  0
  180.8310  177.8270  139.0050 N   0  0  2  0  0  0  0  0  0  0  0  0
  180.9550  176.3940  139.3420 C   0  0  2  0  0  3  0  0  0  0  0  0
  188.0930  175.3830  136.8370 N   0  0  0  0  0  2  0  0  0  0  0  0
  185.9460  178.9490  141.5080 C   0  0  0  0  0  2  0  0  0  0  0  0
  186.6890  177.2470  137.6060 C   0  0  0  0  0  0  0  0  0  0  0  0
  181.0150  178.1300  137.5720 C   0  0  1  0  0  3  0  0  0  0  0  0
  187.4290  178.2790  139.6830 N   0  0  0  0  0  0  0  0  0  0  0  0
  186.8700  176.1300  136.9060 C   0  0  0  0  0  0  0  0  0  0  0  0
  179.9330  176.0220  140.3990 C   0  0  0  0  0  1  0  0  0  0  0  0
  182.5420  178.1700  140.7570 N   0  0  2  0  0  0  0  0  0  0  0  0
  183.4980  179.2270  141.0780 C   0  0  0  0  0  2  0  0  0  0  0  0
  189.7000  177.1920  137.0180 C   0  0  0  0  0  2  0  0  0  0  0  0
  185.4180  175.5820  136.0170 S   0  0  0  0  0  0  0  0  0  0  0  0
  184.6060  177.1690  136.4160 C   0  0  2  0  0  3  0  0  0  0  0  0
  189.0630  179.5850  137.2560 C   0  0  0  0  0  1  0  0  0  0  0  0
  185.3980  177.8170  137.4520 N   0  0  0  0  0  2  0  0  0  0  0  0
  183.1810  176.9290  136.8910 C   0  0  0  0  0  2  0  0  0  0  0  0
  182.4650  178.2590  137.0750 C   0  0  0  0  0  2  0  0  0  0  0  0
  189.3520  175.7800  137.4510 C   0  0  0  0  0  2  0  0  0  0  0  0
  182.3480  175.9540  139.7910 C   0  0  0  0  0  2  0  0  0  0  0  0
  184.4140  179.5610  143.3590 C   0  0  0  0  0  1  0  0  0  0  0  0
  187.7120  177.8950  138.4730 C   0  0  0  0  0  0  0  0  0  0  0  0
  183.2590  177.1380  140.0200 C   0  0  0  0  0  2  0  0  0  0  0  0
  184.5480  178.7580  142.0830 C   0  0  2  0  0  3  0  0  0  0  0  0
  181.5710  178.7890  139.8500 C   0  0  0  0  0  2  0  0  0  0  0  0
  189.0820  178.2340  137.9450 C   0  0  1  0  0  3  0  0  0  0  0  0
  180.2660  177.7270  135.3170 F   0  0  0  0  0  0  0  0  0  0  0  0
  180.0630  177.3780  136.6410 C   0  0  0  0  0  2  0  0  0  0  0  0
  1  5  1  0  0  0  0
  2  3  1  0  0  0  0
  2 26  1  1  0  0  0
  3 21  1  0  0  0  0
  3 10  1  1  0  0  0
  4  9  1  0  0  0  0
  4 20  1  0  0  0  0
  5 25  1  0  0  0  0
  6 23  1  0  0  0  0
  7 29  1  6  0  0  0
  7  2  1  0  0  0  0
  8  1  1  0  0  0  0
  9  6  2  0  0  0  0
 11 26  1  6  0  0  0
 11 12  1  0  0  0  0
 12 25  1  0  0  0  0
 13 20  1  0  0  0  0
 13 27  1  0  0  0  0
 14 15  1  0  0  0  0
 14  9  1  0  0  0  0
 15 18  1  1  0  0  0
 15 17  1  0  0  0  0
 17  6  1  0  0  0  0
 18 19  1  0  0  0  0
 19  7  1  0  0  0  0
 21 24  1  0  0  0  0
 23  8  2  0  0  0  0
 24 11  1  0  0  0  0
 25 22  1  1  0  0  0
 27 16  1  6  0  0  0
 27 23  1  0  0  0  0
 28 29  1  0  0  0  0
M  END
>  <MODEL>
1

>  <REMARK>
 VINA RESULT:      -5.5      0.000      0.000
  Name = 
  1 active torsions:
  status: ('A' for Active; 'I' for Inactive)
    1  A    between atoms: C_7  and  C_24
                            x       y       z     vdW  Elec       q    Type
                         _______ _______ _______ _____ _____    ______ ____

>  <TORSDO>
F 1

$$$$
=
 OpenBabel10222415523D

 29 32  0  0  1  0  0  0  0  0999 V2000
  186.3010  178.8120  141.0690 C   0  0  0  0  0  2  0  0  0  0  0  0
  189.9050  176.7410  144.6720 N   0  0  2  0  0  0  0  0  0  0  0  0
  190.5620  178.0570  144.5300 C   0  0  2  0  0  3  0  0  0  0  0  0
  189.0050  179.1740  137.1420 N   0  0  0  0  0  2  0  0  0  0  0  0
  185.1350  178.7420  142.0400 C   0  0  0  0  0  2  0  0  0  0  0  0
  188.0890  177.8650  139.0100 C   0  0  0  0  0  0  0  0  0  0  0  0
  190.4430  175.6960  143.7780 C   0  0  1  0  0  3  0  0  0  0  0  0
  185.8560  178.5340  139.7120 N   0  0  0  0  0  0  0  0  0  0  0  0
  189.1130  178.3330  138.3000 C   0  0  0  0  0  0  0  0  0  0  0  0
  190.7120  178.7070  145.8920 C   0  0  0  0  0  1  0  0  0  0  0  0
  187.8030  177.9870  144.2900 N   0  0  2  0  0  0  0  0  0  0  0  0
  186.4550  177.6330  143.8520 C   0  0  0  0  0  2  0  0  0  0  0  0
  186.9260  178.3390  136.2110 C   0  0  0  0  0  2  0  0  0  0  0  0
  190.7160  177.8300  138.9120 S   0  0  0  0  0  0  0  0  0  0  0  0
  189.8890  176.6630  140.0480 C   0  0  2  0  0  3  0  0  0  0  0  0
  185.5870  176.5120  137.2410 C   0  0  0  0  0  1  0  0  0  0  0  0
  188.4740  177.0060  140.0720 N   0  0  0  0  0  2  0  0  0  0  0  0
  190.4960  176.7570  141.4390 C   0  0  0  0  0  2  0  0  0  0  0  0
  189.9070  175.6790  142.3370 C   0  0  0  0  0  2  0  0  0  0  0  0
  187.7550  179.5740  136.5130 C   0  0  0  0  0  2  0  0  0  0  0  0
  189.8720  179.0230  143.5680 C   0  0  0  0  0  2  0  0  0  0  0  0
  184.4600  178.9970  144.4120 C   0  0  0  0  0  1  0  0  0  0  0  0
  186.6540  178.1670  138.7520 C   0  0  0  0  0  0  0  0  0  0  0  0
  188.5190  178.5070  143.1340 C   0  0  0  0  0  2  0  0  0  0  0  0
  185.6390  178.8670  143.4720 C   0  0  2  0  0  3  0  0  0  0  0  0
  188.4260  176.7190  144.6830 C   0  0  0  0  0  2  0  0  0  0  0  0
  186.0420  177.9510  137.3930 C   0  0  1  0  0  3  0  0  0  0  0  0
  192.2640  175.0020  145.1950 F   0  0  0  0  0  0  0  0  0  0  0  0
  191.9460  175.4530  143.9260 C   0  0  0  0  0  2  0  0  0  0  0  0
  1  5  1  0  0  0  0
  2 26  1  6  0  0  0
  3  2  1  0  0  0  0
  3 10  1  1  0  0  0
  4  9  1  0  0  0  0
  5 25  1  0  0  0  0
  6 17  1  0  0  0  0
  7 29  1  6  0  0  0
  7  2  1  0  0  0  0
  8  1  1  0  0  0  0
  9 14  1  0  0  0  0
  9  6  2  0  0  0  0
 11 24  1  6  0  0  0
 11 26  1  0  0  0  0
 12 11  1  0  0  0  0
 13 20  1  0  0  0  0
 13 27  1  0  0  0  0
 14 15  1  0  0  0  0
 15 17  1  0  0  0  0
 15 18  1  1  0  0  0
 18 19  1  0  0  0  0
 19  7  1  0  0  0  0
 20  4  1  0  0  0  0
 21  3  1  0  0  0  0
 23  6  1  0  0  0  0
 23  8  2  0  0  0  0
 24 21  1  0  0  0  0
 25 12  1  0  0  0  0
 25 22  1  1  0  0  0
 27 16  1  6  0  0  0
 27 23  1  0  0  0  0
 29 28  1  0  0  0  0
M  END
>  <MODEL>
2

>  <REMARK>
 VINA RESULT:      -5.4      4.687      7.403
  Name = 
  1 active torsions:
  status: ('A' for Active; 'I' for Inactive)
    1  A    between atoms: C_7  and  C_24
                            x       y       z     vdW  Elec       q    Type
                         _______ _______ _______ _____ _____    ______ ____

>  <TORSDO>
F 1

$$$$
=
 OpenBabel10222415523D

 29 32  0  0  1  0  0  0  0  0999 V2000
  182.5450  177.9290  136.3670 C   0  0  0  0  0  2  0  0  0  0  0  0
  179.3660  179.6700  140.5050 N   0  0  2  0  0  0  0  0  0  0  0  0
  179.9980  180.9760  140.2320 C   0  0  2  0  0  3  0  0  0  0  0  0
  186.9020  178.3700  138.2860 N   0  0  0  0  0  2  0  0  0  0  0  0
  181.3670  177.5530  135.4850 C   0  0  0  0  0  2  0  0  0  0  0  0
  184.5970  177.5200  138.3560 C   0  0  0  0  0  0  0  0  0  0  0  0
  180.0320  178.8830  141.5620 C   0  0  1  0  0  3  0  0  0  0  0  0
  183.6470  176.9990  136.1760 N   0  0  0  0  0  0  0  0  0  0  0  0
  185.6090  178.2040  138.8860 C   0  0  0  0  0  0  0  0  0  0  0  0
  178.9310  182.0200  139.9640 C   0  0  0  0  0  1  0  0  0  0  0  0
  179.6170  179.2790  138.0760 N   0  0  2  0  0  0  0  0  0  0  0  0
  179.6450  178.0990  137.2150 C   0  0  0  0  0  2  0  0  0  0  0  0
  187.1050  176.2460  137.1310 C   0  0  0  0  0  2  0  0  0  0  0  0
  185.2380  178.9470  140.4690 S   0  0  0  0  0  0  0  0  0  0  0  0
  183.6780  177.9990  140.5210 C   0  0  2  0  0  3  0  0  0  0  0  0
  185.3550  174.4780  137.1740 C   0  0  0  0  0  1  0  0  0  0  0  0
  183.4480  177.4630  139.1860 N   0  0  0  0  0  2  0  0  0  0  0  0
  182.5280  178.8960  140.9530 C   0  0  0  0  0  2  0  0  0  0  0  0
  181.2650  178.0670  141.1400 C   0  0  0  0  0  2  0  0  0  0  0  0
  187.3370  177.7430  137.0450 C   0  0  0  0  0  2  0  0  0  0  0  0
  181.0180  180.9750  139.0940 C   0  0  0  0  0  2  0  0  0  0  0  0
  179.0680  178.1840  134.8040 C   0  0  0  0  0  1  0  0  0  0  0  0
  184.6170  176.8440  137.0290 C   0  0  0  0  0  0  0  0  0  0  0  0
  180.9960  179.6730  138.3270 C   0  0  0  0  0  2  0  0  0  0  0  0
  180.1650  178.4290  135.8170 C   0  0  2  0  0  3  0  0  0  0  0  0
  179.0340  178.8200  139.3410 C   0  0  0  0  0  2  0  0  0  0  0  0
  185.7020  175.8650  136.6670 C   0  0  1  0  0  3  0  0  0  0  0  0
  180.7180  178.7910  143.8700 F   0  0  0  0  0  0  0  0  0  0  0  0
  180.1470  179.6040  142.9060 C   0  0  0  0  0  2  0  0  0  0  0  0
  2 26  1  6  0  0  0
  2  7  1  0  0  0  0
  3 10  1  6  0  0  0
  3  2  1  0  0  0  0
  4  9  1  0  0  0  0
  5 25  1  0  0  0  0
  5  1  1  0  0  0  0
  6  9  2  0  0  0  0
  6 17  1  0  0  0  0
  7 29  1  1  0  0  0
  8  1  1  0  0  0  0
  8 23  2  0  0  0  0
  9 14  1  0  0  0  0
 11 12  1  6  0  0  0
 11 24  1  0  0  0  0
 11 26  1  0  0  0  0
 14 15  1  0  0  0  0
 15 18  1  6  0  0  0
 17 15  1  0  0  0  0
 18 19  1  0  0  0  0
 19  7  1  0  0  0  0
 20 13  1  0  0  0  0
 20  4  1  0  0  0  0
 21  3  1  0  0  0  0
 23  6  1  0  0  0  0
 24 21  1  0  0  0  0
 25 22  1  6  0  0  0
 25 12  1  0  0  0  0
 27 23  1  0  0  0  0
 27 13  1  0  0  0  0
 27 16  1  1  0  0  0
 29 28  1  0  0  0  0
M  END
>  <MODEL>
3

>  <REMARK>
 VINA RESULT:      -5.3      2.737      5.215
  Name = 
  1 active torsions:
  status: ('A' for Active; 'I' for Inactive)
    1  A    between atoms: C_7  and  C_24
                            x       y       z     vdW  Elec       q    Type
                         _______ _______ _______ _____ _____    ______ ____

>  <TORSDO>
F 1

$$$$
=
 OpenBabel10222415523D

 29 32  0  0  1  0  0  0  0  0999 V2000
  180.5480  175.7600  139.7970 C   0  0  0  0  0  2  0  0  0  0  0  0
  184.0000  175.1100  135.5630 N   0  0  2  0  0  0  0  0  0  0  0  0
  184.8400  174.4140  136.5600 C   0  0  2  0  0  3  0  0  0  0  0  0
  183.0430  178.7330  142.5900 N   0  0  0  0  0  2  0  0  0  0  0  0
  179.4440  174.9380  139.1550 C   0  0  0  0  0  2  0  0  0  0  0  0
  182.0490  178.1450  140.4200 C   0  0  0  0  0  0  0  0  0  0  0  0
  184.3200  176.5410  135.3960 C   0  0  1  0  0  3  0  0  0  0  0  0
  179.9880  176.8580  140.5690 N   0  0  0  0  0  0  0  0  0  0  0  0
  183.0890  178.4880  141.1770 C   0  0  0  0  0  0  0  0  0  0  0  0
  185.1670  173.0150  136.0720 C   0  0  0  0  0  1  0  0  0  0  0  0
  182.0930  174.2270  136.8680 N   0  0  2  0  0  0  0  0  0  0  0  0
  180.6840  174.5850  137.0120 C   0  0  0  0  0  2  0  0  0  0  0  0
  180.8100  179.6630  142.7810 C   0  0  0  0  0  2  0  0  0  0  0  0
  184.6300  178.6270  140.2800 S   0  0  0  0  0  0  0  0  0  0  0  0
  183.7020  178.4830  138.7130 C   0  0  2  0  0  3  0  0  0  0  0  0
  179.2710  179.9680  140.8500 C   0  0  0  0  0  1  0  0  0  0  0  0
  182.3600  178.0230  139.0410 N   0  0  0  0  0  2  0  0  0  0  0  0
  184.3970  177.5090  137.7740 C   0  0  0  0  0  2  0  0  0  0  0  0
  183.7040  177.5100  136.4190 C   0  0  0  0  0  2  0  0  0  0  0  0
  181.8330  178.7290  143.4010 C   0  0  0  0  0  2  0  0  0  0  0  0
  184.2500  174.3460  137.9680 C   0  0  0  0  0  2  0  0  0  0  0  0
  178.9560  172.9610  137.7400 C   0  0  0  0  0  1  0  0  0  0  0  0
  180.6630  177.9140  140.9160 C   0  0  0  0  0  0  0  0  0  0  0  0
  182.8120  174.8100  137.9920 C   0  0  0  0  0  2  0  0  0  0  0  0
  180.0440  173.8980  138.2170 C   0  0  2  0  0  3  0  0  0  0  0  0
  182.5380  174.8990  135.6420 C   0  0  0  0  0  2  0  0  0  0  0  0
  179.9480  178.9480  141.7450 C   0  0  1  0  0  3  0  0  0  0  0  0
  185.9460  178.1290  134.5940 F   0  0  0  0  0  0  0  0  0  0  0  0
  185.7740  176.8220  135.0140 C   0  0  0  0  0  2  0  0  0  0  0  0
  1  8  1  0  0  0  0
  2 26  1  1  0  0  0
  2  3  1  0  0  0  0
  3 10  1  6  0  0  0
  3 21  1  0  0  0  0
  4 20  1  0  0  0  0
  5  1  1  0  0  0  0
  6 23  1  0  0  0  0
  6  9  2  0  0  0  0
  7 29  1  1  0  0  0
  7  2  1  0  0  0  0
  7 19  1  0  0  0  0
  8 23  2  0  0  0  0
  9  4  1  0  0  0  0
 11 26  1  6  0  0  0
 11 12  1  0  0  0  0
 11 24  1  0  0  0  0
 12 25  1  0  0  0  0
 13 20  1  0  0  0  0
 14  9  1  0  0  0  0
 15 18  1  6  0  0  0
 15 17  1  0  0  0  0
 15 14  1  0  0  0  0
 17  6  1  0  0  0  0
 19 18  1  0  0  0  0
 21 24  1  0  0  0  0
 23 27  1  0  0  0  0
 25 22  1  6  0  0  0
 25  5  1  0  0  0  0
 27 16  1  6  0  0  0
 27 13  1  0  0  0  0
 28 29  1  0  0  0  0
M  END
>  <MODEL>
4

>  <REMARK>
 VINA RESULT:      -4.9      3.150      6.756
  Name = 
  1 active torsions:
  status: ('A' for Active; 'I' for Inactive)
    1  A    between atoms: C_7  and  C_24
                            x       y       z     vdW  Elec       q    Type
                         _______ _______ _______ _____ _____    ______ ____

>  <TORSDO>
F 1

$$$$
=
 OpenBabel10222415523D

 29 32  0  0  1  0  0  0  0  0999 V2000
  189.8240  174.3790  137.2130 C   0  0  0  0  0  2  0  0  0  0  0  0
  194.9320  173.6140  135.3190 N   0  0  2  0  0  0  0  0  0  0  0  0
  195.1280  172.8950  136.5950 C   0  0  2  0  0  3  0  0  0  0  0  0
  190.6280  177.2800  140.9270 N   0  0  0  0  0  2  0  0  0  0  0  0
  189.1790  173.5890  136.0870 C   0  0  0  0  0  2  0  0  0  0  0  0
  190.8630  176.7190  138.5460 C   0  0  0  0  0  0  0  0  0  0  0  0
  195.3320  175.0350  135.3570 C   0  0  1  0  0  3  0  0  0  0  0  0
  188.9800  175.4950  137.6070 N   0  0  0  0  0  0  0  0  0  0  0  0
  191.3810  177.0320  139.7310 C   0  0  0  0  0  0  0  0  0  0  0  0
  195.6190  171.4860  136.3220 C   0  0  0  0  0  1  0  0  0  0  0  0
  192.6030  172.7930  135.4580 N   0  0  2  0  0  0  0  0  0  0  0  0
  191.3280  173.1940  134.8690 C   0  0  0  0  0  2  0  0  0  0  0  0
  188.6360  178.2790  139.9670 C   0  0  0  0  0  2  0  0  0  0  0  0
  193.1670  177.1210  139.7460 S   0  0  0  0  0  0  0  0  0  0  0  0
  193.1640  177.0020  137.9240 C   0  0  2  0  0  3  0  0  0  0  0  0
  188.3050  178.6260  137.5260 C   0  0  0  0  0  1  0  0  0  0  0  0
  191.8300  176.5840  137.5160 N   0  0  0  0  0  2  0  0  0  0  0  0
  194.2130  176.0050  137.4560 C   0  0  0  0  0  2  0  0  0  0  0  0
  194.3070  176.0240  135.9380 C   0  0  0  0  0  2  0  0  0  0  0  0
  189.1740  177.3150  141.0090 C   0  0  0  0  0  2  0  0  0  0  0  0
  193.9010  172.8490  137.5050 C   0  0  0  0  0  2  0  0  0  0  0  0
  189.4260  171.6250  134.5940 C   0  0  0  0  0  1  0  0  0  0  0  0
  189.4130  176.5310  138.2630 C   0  0  0  0  0  0  0  0  0  0  0  0
  192.6640  173.3560  136.8000 C   0  0  0  0  0  2  0  0  0  0  0  0
  190.1450  172.5300  135.5710 C   0  0  2  0  0  3  0  0  0  0  0  0
  193.6290  173.4480  134.6390 C   0  0  0  0  0  2  0  0  0  0  0  0
  188.4030  177.5880  138.6270 C   0  0  1  0  0  3  0  0  0  0  0  0
  197.1470  176.5970  135.6260 F   0  0  0  0  0  0  0  0  0  0  0  0
  196.7850  175.2700  135.7740 C   0  0  0  0  0  2  0  0  0  0  0  0
  1  8  1  0  0  0  0
  2 26  1  1  0  0  0
  2  7  1  0  0  0  0
  2  3  1  0  0  0  0
  3 10  1  6  0  0  0
  3 21  1  0  0  0  0
  4 20  1  0  0  0  0
  5  1  1  0  0  0  0
  6  9  2  0  0  0  0
  7 29  1  1  0  0  0
  7 19  1  0  0  0  0
  8 23  2  0  0  0  0
  9 14  1  0  0  0  0
  9  4  1  0  0  0  0
 11 26  1  6  0  0  0
 11 24  1  0  0  0  0
 12 11  1  0  0  0  0
 12 25  1  0  0  0  0
 13 20  1  0  0  0  0
 15 18  1  1  0  0  0
 15 14  1  0  0  0  0
 17 15  1  0  0  0  0
 17  6  1  0  0  0  0
 19 18  1  0  0  0  0
 23  6  1  0  0  0  0
 23 27  1  0  0  0  0
 24 21  1  0  0  0  0
 25 22  1  6  0  0  0
 25  5  1  0  0  0  0
 27 16  1  6  0  0  0
 27 13  1  0  0  0  0
 28 29  1  0  0  0  0
M  END
>  <MODEL>
5

>  <REMARK>
 VINA RESULT:      -4.9      6.161     10.588
  Name = 
  1 active torsions:
  status: ('A' for Active; 'I' for Inactive)
    1  A    between atoms: C_7  and  C_24
                            x       y       z     vdW  Elec       q    Type
                         _______ _______ _______ _____ _____    ______ ____

>  <TORSDO>
F 1

$$$$
=
 OpenBabel10222415523D

 29 32  0  0  1  0  0  0  0  0999 V2000
  186.6550  174.0960  136.2660 C   0  0  0  0  0  2  0  0  0  0  0  0
  182.6410  177.0940  138.5400 N   0  0  2  0  0  0  0  0  0  0  0  0
  182.4360  177.5770  137.1590 C   0  0  2  0  0  3  0  0  0  0  0  0
  189.7460  177.5050  134.9660 N   0  0  0  0  0  2  0  0  0  0  0  0
  186.0040  172.7700  136.6190 C   0  0  0  0  0  2  0  0  0  0  0  0
  188.3510  176.3980  136.6600 C   0  0  0  0  0  0  0  0  0  0  0  0
  183.5230  177.9500  139.3570 C   0  0  1  0  0  3  0  0  0  0  0  0
  188.1030  173.9960  136.3530 N   0  0  0  0  0  0  0  0  0  0  0  0
  188.7270  177.4770  135.9760 C   0  0  0  0  0  0  0  0  0  0  0  0
  180.9980  177.3400  136.7380 C   0  0  0  0  0  1  0  0  0  0  0  0
  183.3230  174.9700  137.4690 N   0  0  2  0  0  0  0  0  0  0  0  0
  184.1100  173.8110  137.8790 C   0  0  0  0  0  2  0  0  0  0  0  0
  191.2480  175.8100  135.8390 C   0  0  0  0  0  2  0  0  0  0  0  0
  187.8350  178.9650  136.4100 S   0  0  0  0  0  0  0  0  0  0  0  0
  187.1030  178.0820  137.8310 C   0  0  2  0  0  3  0  0  0  0  0  0
  190.8310  174.5470  137.9410 C   0  0  0  0  0  1  0  0  0  0  0  0
  187.3620  176.6610  137.6440 N   0  0  0  0  0  2  0  0  0  0  0  0
  185.6090  178.3570  137.9140 C   0  0  0  0  0  2  0  0  0  0  0  0
  185.0380  177.7440  139.1830 C   0  0  0  0  0  2  0  0  0  0  0  0
  190.5870  176.3750  134.5950 C   0  0  0  0  0  2  0  0  0  0  0  0
  183.3850  176.9830  136.1190 C   0  0  0  0  0  2  0  0  0  0  0  0
  183.8440  171.5730  136.8430 C   0  0  0  0  0  1  0  0  0  0  0  0
  188.8920  175.0250  136.4680 C   0  0  0  0  0  0  0  0  0  0  0  0
  184.1920  175.8400  136.6890 C   0  0  0  0  0  2  0  0  0  0  0  0
  184.4910  172.9330  136.6890 C   0  0  2  0  0  3  0  0  0  0  0  0
  182.9790  175.6640  138.7150 C   0  0  0  0  0  2  0  0  0  0  0  0
  190.3730  174.7550  136.5110 C   0  0  1  0  0  3  0  0  0  0  0  0
  181.7170  179.4900  139.7700 F   0  0  0  0  0  0  0  0  0  0  0  0
  183.0640  179.4050  139.4660 C   0  0  0  0  0  2  0  0  0  0  0  0
  1  8  1  0  0  0  0
  1  5  1  0  0  0  0
  2 26  1  6  0  0  0
  2  7  1  0  0  0  0
  3 10  1  6  0  0  0
  3  2  1  0  0  0  0
  4  9  1  0  0  0  0
  5 25  1  0  0  0  0
  6 17  1  0  0  0  0
  7 29  1  6  0  0  0
  8 23  2  0  0  0  0
  9 14  1  0  0  0  0
  9  6  2  0  0  0  0
 11 24  1  6  0  0  0
 11 12  1  0  0  0  0
 11 26  1  0  0  0  0
 13 27  1  0  0  0  0
 14 15  1  0  0  0  0
 15 18  1  6  0  0  0
 17 15  1  0  0  0  0
 18 19  1  0  0  0  0
 19  7  1  0  0  0  0
 20  4  1  0  0  0  0
 20 13  1  0  0  0  0
 21 24  1  0  0  0  0
 21  3  1  0  0  0  0
 23 27  1  0  0  0  0
 23  6  1  0  0  0  0
 25 22  1  1  0  0  0
 25 12  1  0  0  0  0
 27 16  1  1  0  0  0
 29 28  1  0  0  0  0
M  END
>  <MODEL>
6

>  <REMARK>
 VINA RESULT:      -4.5      2.554      4.659
  Name = 
  1 active torsions:
  status: ('A' for Active; 'I' for Inactive)
    1  A    between atoms: C_7  and  C_24
                            x       y       z     vdW  Elec       q    Type
                         _______ _______ _______ _____ _____    ______ ____

>  <TORSDO>
F 1

$$$$
=
 OpenBabel10222415523D

 29 32  0  0  1  0  0  0  0  0999 V2000
  180.2190  177.5140  138.1790 C   0  0  0  0  0  2  0  0  0  0  0  0
  185.2010  176.2510  136.2160 N   0  0  2  0  0  0  0  0  0  0  0  0
  185.1100  175.1160  137.1560 C   0  0  2  0  0  3  0  0  0  0  0  0
  181.2640  178.6950  142.6920 N   0  0  0  0  0  2  0  0  0  0  0  0
  179.5320  177.3330  136.8360 C   0  0  0  0  0  2  0  0  0  0  0  0
  181.6040  178.9410  140.2700 C   0  0  0  0  0  0  0  0  0  0  0  0
  185.8930  177.4360  136.7610 C   0  0  1  0  0  3  0  0  0  0  0  0
  179.6020  178.5950  138.9300 N   0  0  0  0  0  0  0  0  0  0  0  0
  182.0590  178.6980  141.4980 C   0  0  0  0  0  0  0  0  0  0  0  0
  185.3080  173.8110  136.4100 C   0  0  0  0  0  1  0  0  0  0  0  0
  182.7470  176.0100  136.0190 N   0  0  2  0  0  0  0  0  0  0  0  0
  181.6530  176.8780  135.5900 C   0  0  0  0  0  2  0  0  0  0  0  0
  179.6390  180.4040  142.1180 C   0  0  0  0  0  2  0  0  0  0  0  0
  183.8110  178.3500  141.5710 S   0  0  0  0  0  0  0  0  0  0  0  0
  183.9610  178.8640  139.8240 C   0  0  2  0  0  3  0  0  0  0  0  0
  179.6330  181.6310  139.9540 C   0  0  0  0  0  1  0  0  0  0  0  0
  182.6150  178.9400  139.2740 N   0  0  0  0  0  2  0  0  0  0  0  0
  184.8100  177.8680  139.0500 C   0  0  0  0  0  2  0  0  0  0  0  0
  185.0550  178.3810  137.6390 C   0  0  0  0  0  2  0  0  0  0  0  0
  179.8510  179.0440  142.7580 C   0  0  0  0  0  2  0  0  0  0  0  0
  183.8190  175.0550  137.9720 C   0  0  0  0  0  2  0  0  0  0  0  0
  179.4920  175.9970  134.7480 C   0  0  0  0  0  1  0  0  0  0  0  0
  180.1820  179.2110  139.9180 C   0  0  0  0  0  0  0  0  0  0  0  0
  182.7960  176.0500  137.4730 C   0  0  0  0  0  2  0  0  0  0  0  0
  180.2910  176.3150  135.9930 C   0  0  2  0  0  3  0  0  0  0  0  0
  183.9650  176.6410  135.5010 C   0  0  0  0  0  2  0  0  0  0  0  0
  179.3950  180.2880  140.6160 C   0  0  1  0  0  3  0  0  0  0  0  0
  187.8810  178.2920  137.8200 F   0  0  0  0  0  0  0  0  0  0  0  0
  187.3140  177.1620  137.2560 C   0  0  0  0  0  2  0  0  0  0  0  0
  1  8  1  0  0  0  0
  2 26  1  1  0  0  0
  2  7  1  0  0  0  0
  2  3  1  0  0  0  0
  3 10  1  6  0  0  0
  3 21  1  0  0  0  0
  4 20  1  0  0  0  0
  5  1  1  0  0  0  0
  6  9  2  0  0  0  0
  7 29  1  1  0  0  0
  7 19  1  0  0  0  0
  8 23  2  0  0  0  0
  9 14  1  0  0  0  0
  9  4  1  0  0  0  0
 11 26  1  6  0  0  0
 11 24  1  0  0  0  0
 12 25  1  0  0  0  0
 12 11  1  0  0  0  0
 13 20  1  0  0  0  0
 15 18  1  6  0  0  0
 15 14  1  0  0  0  0
 17 15  1  0  0  0  0
 17  6  1  0  0  0  0
 19 18  1  0  0  0  0
 23  6  1  0  0  0  0
 23 27  1  0  0  0  0
 24 21  1  0  0  0  0
 25 22  1  6  0  0  0
 25  5  1  0  0  0  0
 27 16  1  6  0  0  0
 27 13  1  0  0  0  0
 29 28  1  0  0  0  0
M  END
>  <MODEL>
7

>  <REMARK>
 VINA RESULT:      -4.4      2.823      7.167
  Name = 
  1 active torsions:
  status: ('A' for Active; 'I' for Inactive)
    1  A    between atoms: C_7  and  C_24
                            x       y       z     vdW  Elec       q    Type
                         _______ _______ _______ _____ _____    ______ ____

>  <TORSDO>
F 1

$$$$
=
 OpenBabel10222415523D

 29 32  0  0  1  0  0  0  0  0999 V2000
  185.3030  179.0040  140.2140 C   0  0  0  0  0  2  0  0  0  0  0  0
  187.9250  175.9110  136.4950 N   0  0  2  0  0  0  0  0  0  0  0  0
  187.9430  177.1590  135.7040 C   0  0  2  0  0  3  0  0  0  0  0  0
  181.1810  179.8860  137.9580 N   0  0  0  0  0  0  0  0  0  0  0  0
  186.3950  178.8530  141.2590 C   0  0  0  0  0  2  0  0  0  0  0  0
  182.8780  178.3230  138.8040 C   0  0  2  0  0  3  0  0  0  0  0  0
  186.7860  175.0210  136.1950 C   0  0  1  0  0  3  0  0  0  0  0  0
  183.9930  179.0490  140.8430 N   0  0  0  0  0  0  0  0  0  0  0  0
  182.1350  178.8230  137.8190 C   0  0  0  0  0  0  0  0  0  0  0  0
  189.3690  177.5040  135.3190 C   0  0  0  0  0  1  0  0  0  0  0  0
  188.0760  177.4050  138.4600 N   0  0  2  0  0  0  0  0  0  0  0  0
  187.7680  177.2790  139.8830 C   0  0  0  0  0  2  0  0  0  0  0  0
  180.4040  179.4610  140.2170 C   0  0  0  0  0  2  0  0  0  0  0  0
  182.4160  178.0550  136.2290 S   0  0  0  0  0  0  0  0  0  0  0  0
  183.4150  176.7680  137.0560 C   0  0  2  0  0  3  0  0  0  0  0  0
  181.2470  177.6020  141.6390 C   0  0  0  0  0  1  0  0  0  0  0  0
  183.6970  177.2340  138.4060 N   0  0  0  0  0  2  0  0  0  0  0  0
  184.7020  176.5210  136.2850 C   0  0  0  0  0  2  0  0  0  0  0  0
  185.4540  175.3460  136.8930 C   0  0  0  0  0  2  0  0  0  0  0  0
  180.8150  180.5240  139.2150 C   0  0  0  0  0  2  0  0  0  0  0  0
  187.2840  178.3610  136.3780 C   0  0  0  0  0  2  0  0  0  0  0  0
  188.8420  178.6880  141.6190 C   0  0  0  0  0  1  0  0  0  0  0  0
  182.8810  178.8080  140.2120 C   0  0  0  0  0  0  0  0  0  0  0  0
  186.9510  178.0760  137.8240 C   0  0  0  0  0  2  0  0  0  0  0  0
  187.7420  178.6370  140.5810 C   0  0  2  0  0  3  0  0  0  0  0  0
  188.1350  176.0300  137.9540 C   0  0  0  0  0  2  0  0  0  0  0  0
  181.6020  178.9300  140.9980 C   0  0  1  0  0  3  0  0  0  0  0  0
  186.1630  173.3320  134.5940 F   0  0  0  0  0  0  0  0  0  0  0  0
  186.6780  174.6090  134.7260 C   0  0  0  0  0  2  0  0  0  0  0  0
  1  8  1  0  0  0  0
  1  5  1  0  0  0  0
  2 26  1  1  0  0  0
  3 10  1  1  0  0  0
  3 21  1  0  0  0  0
  3  2  1  0  0  0  0
  4 20  1  0  0  0  0
  6  9  1  1  0  0  0
  6 23  1  0  0  0  0
  7 29  1  6  0  0  0
  7  2  1  0  0  0  0
  7 19  1  0  0  0  0
  9  4  2  0  0  0  0
 11 24  1  6  0  0  0
 11 12  1  0  0  0  0
 12 25  1  0  0  0  0
 13 27  1  0  0  0  0
 14 15  1  0  0  0  0
 14  9  1  0  0  0  0
 15 18  1  6  0  0  0
 15 17  1  0  0  0  0
 17  6  1  0  0  0  0
 18 19  1  0  0  0  0
 20 13  1  0  0  0  0
 21 24  1  0  0  0  0
 23  8  2  0  0  0  0
 23 27  1  0  0  0  0
 25  5  1  0  0  0  0
 25 22  1  1  0  0  0
 26 11  1  0  0  0  0
 27 16  1  6  0  0  0
 28 29  1  0  0  0  0
M  END
>  <MODEL>
8

>  <REMARK>
 VINA RESULT:      -4.4      2.311      6.318
  Name = 
  1 active torsions:
  status: ('A' for Active; 'I' for Inactive)
    1  A    between atoms: C_7  and  C_24
                            x       y       z     vdW  Elec       q    Type
                         _______ _______ _______ _____ _____    ______ ____

>  <TORSDO>
F 1

$$$$
=
 OpenBabel10222415523D

 29 32  0  0  1  0  0  0  0  0999 V2000
  181.6770  175.0200  138.1690 C   0  0  0  0  0  2  0  0  0  0  0  0
  186.1610  174.1430  135.1060 N   0  0  2  0  0  0  0  0  0  0  0  0
  186.7520  173.6920  136.3830 C   0  0  2  0  0  3  0  0  0  0  0  0
  183.1400  178.6160  140.9600 N   0  0  0  0  0  2  0  0  0  0  0  0
  180.8390  174.0000  137.4180 C   0  0  0  0  0  2  0  0  0  0  0  0
  182.7970  177.6190  138.7410 C   0  0  0  0  0  0  0  0  0  0  0  0
  186.4180  175.5610  134.7870 C   0  0  1  0  0  3  0  0  0  0  0  0
  180.8610  176.1510  138.5810 N   0  0  0  0  0  0  0  0  0  0  0  0
  183.5750  178.1770  139.6650 C   0  0  0  0  0  0  0  0  0  0  0  0
  187.2880  172.2810  136.2330 C   0  0  0  0  0  1  0  0  0  0  0  0
  184.0400  173.2570  136.0190 N   0  0  2  0  0  0  0  0  0  0  0  0
  182.6220  173.4780  135.7430 C   0  0  0  0  0  2  0  0  0  0  0  0
  180.8790  179.3190  140.4280 C   0  0  0  0  0  2  0  0  0  0  0  0
  185.2850  178.3500  139.1730 S   0  0  0  0  0  0  0  0  0  0  0  0
  184.8170  177.8820  137.4710 C   0  0  2  0  0  3  0  0  0  0  0  0
  179.8900  179.1740  138.1500 C   0  0  0  0  0  1  0  0  0  0  0  0
  183.4690  177.3330  137.5230 N   0  0  0  0  0  2  0  0  0  0  0  0
  185.7980  176.8640  136.9120 C   0  0  0  0  0  2  0  0  0  0  0  0
  185.4900  176.5950  135.4470 C   0  0  0  0  0  2  0  0  0  0  0  0
  181.7620  178.5990  141.4310 C   0  0  0  0  0  2  0  0  0  0  0  0
  185.8160  173.7650  137.5890 C   0  0  0  0  0  2  0  0  0  0  0  0
  180.8750  171.7990  136.2770 C   0  0  0  0  0  1  0  0  0  0  0  0
  181.3490  177.3140  138.9040 C   0  0  0  0  0  0  0  0  0  0  0  0
  184.3950  174.0700  137.1740 C   0  0  0  0  0  2  0  0  0  0  0  0
  181.7340  172.9070  136.8470 C   0  0  2  0  0  3  0  0  0  0  0  0
  184.7480  173.7890  134.8500 C   0  0  0  0  0  2  0  0  0  0  0  0
  180.3720  178.3720  139.3430 C   0  0  1  0  0  3  0  0  0  0  0  0
  188.0710  177.3040  134.5970 F   0  0  0  0  0  0  0  0  0  0  0  0
  187.8990  175.9380  134.7410 C   0  0  0  0  0  2  0  0  0  0  0  0
  1  8  1  0  0  0  0
  2 26  1  1  0  0  0
  2  3  1  0  0  0  0
  3 10  1  6  0  0  0
  3 21  1  0  0  0  0
  4 20  1  0  0  0  0
  5  1  1  0  0  0  0
  6 23  1  0  0  0  0
  6  9  2  0  0  0  0
  7 29  1  1  0  0  0
  7  2  1  0  0  0  0
  7 19  1  0  0  0  0
  8 23  2  0  0  0  0
  9  4  1  0  0  0  0
 11 26  1  6  0  0  0
 11 24  1  0  0  0  0
 12 11  1  0  0  0  0
 12 25  1  0  0  0  0
 13 20  1  0  0  0  0
 14  9  1  0  0  0  0
 15 18  1  1  0  0  0
 15 17  1  0  0  0  0
 15 14  1  0  0  0  0
 17  6  1  0  0  0  0
 19 18  1  0  0  0  0
 23 27  1  0  0  0  0
 24 21  1  0  0  0  0
 25 22  1  6  0  0  0
 25  5  1  0  0  0  0
 27 16  1  6  0  0  0
 27 13  1  0  0  0  0
 28 29  1  0  0  0  0
M  END
>  <MODEL>
9

>  <REMARK>
 VINA RESULT:      -4.3      3.071      7.032
  Name = 
  1 active torsions:
  status: ('A' for Active; 'I' for Inactive)
    1  A    between atoms: C_7  and  C_24
                            x       y       z     vdW  Elec       q    Type
                         _______ _______ _______ _____ _____    ______ ____

>  <TORSDO>
F 1

$$$$
