=
 OpenBabel10222417103D

 25 27  0  0  1  0  0  0  0  0999 V2000
  183.9980  178.7130  146.3210 N   0  0  0  0  0  0  0  0  0  0  0  0
  184.6160  178.9820  144.0330 C   0  0  0  0  0  0  0  0  0  0  0  0
  185.9120  178.5710  144.3440 C   0  0  0  0  0  3  0  0  0  0  0  0
  183.6600  179.0440  145.0460 C   0  0  0  0  0  3  0  0  0  0  0  0
  186.2580  178.2400  145.6610 C   0  0  0  0  0  0  0  0  0  0  0  0
  185.2580  178.3150  146.6430 C   0  0  0  0  0  3  0  0  0  0  0  0
  189.7690  176.7730  145.3770 C   0  0  0  0  0  3  0  0  0  0  0  0
  188.0760  176.9080  143.5870 C   0  0  0  0  0  1  0  0  0  0  0  0
  189.3400  177.5210  147.6170 C   0  0  0  0  0  3  0  0  0  0  0  0
  190.2100  176.9460  146.6890 C   0  0  0  0  0  0  0  0  0  0  0  0
  188.0940  177.9090  147.2370 N   0  0  0  0  0  0  0  0  0  0  0  0
  187.6350  177.7660  145.9600 C   0  0  0  0  0  0  0  0  0  0  0  0
  188.4880  177.1750  144.9950 C   0  0  0  0  0  0  0  0  0  0  0  0
  191.5620  176.5220  147.0850 C   0  0  0  0  0  0  0  0  0  0  0  0
  192.2260  175.5350  146.3640 O   0  0  0  0  0  0  0  0  0  0  0  0
  192.1320  177.0490  148.0780 O   0  0  0  0  0  1  0  0  0  0  0  0
  184.2450  179.3060  142.6250 C   0  0  0  0  0  2  0  0  0  0  0  0
  184.0240  178.2080  138.4230 C   0  0  0  0  0  3  0  0  0  0  0  0
  185.1370  178.2660  137.6810 C   0  0  0  0  0  3  0  0  0  0  0  0
  185.4140  179.2150  141.7610 N   0  0  0  0  0  2  0  0  0  0  0  0
  185.3750  178.6600  140.4440 C   0  0  0  0  0  0  0  0  0  0  0  0
  186.4420  178.7120  139.6990 N   0  0  0  0  0  0  0  0  0  0  0  0
  187.5040  178.7700  137.5620 N   0  0  0  0  0  1  0  0  0  0  0  0
  184.1230  178.0030  139.9130 C   0  0  0  0  0  2  0  0  0  0  0  0
  186.4760  178.1240  138.3560 C   0  0  2  0  0  3  0  0  0  0  0  0
  1  6  1  0  0  0  0
  2  3  2  0  0  0  0
  2  4  1  0  0  0  0
  3  5  1  0  0  0  0
  4  1  2  0  0  0  0
  5 12  1  0  0  0  0
  5  6  2  0  0  0  0
  7 10  1  0  0  0  0
  8 13  1  0  0  0  0
 10 14  1  0  0  0  0
 10  9  2  0  0  0  0
 11  9  1  0  0  0  0
 12 11  2  0  0  0  0
 13  7  2  0  0  0  0
 13 12  1  0  0  0  0
 14 16  1  0  0  0  0
 15 14  2  0  0  0  0
 17  2  1  0  0  0  0
 18 24  1  0  0  0  0
 19 25  1  0  0  0  0
 19 18  2  0  0  0  0
 20 17  1  0  0  0  0
 21 20  1  0  0  0  0
 22 21  2  0  0  0  0
 24 21  1  0  0  0  0
 25 23  1  6  0  0  0
 25 22  1  0  0  0  0
M  END
>  <MODEL>
1

>  <REMARK>
 VINA RESULT:      -9.3      0.000      0.000
  Name = 
  4 active torsions:
  status: ('A' for Active; 'I' for Inactive)
    1  A    between atoms: C_4  and  C_16
    2  A    between atoms: C_8  and  C_9
    3  A    between atoms: C_8  and  N_13
    4  A    between atoms: C_18  and  C_20
                            x       y       z     vdW  Elec       q    Type
                         _______ _______ _______ _____ _____    ______ ____

>  <TORSDO>
F 4

$$$$
=
 OpenBabel10222417103D

 25 27  0  0  1  0  0  0  0  0999 V2000
  184.1200  178.6890  146.3060 N   0  0  0  0  0  0  0  0  0  0  0  0
  184.8460  178.9570  144.0500 C   0  0  0  0  0  0  0  0  0  0  0  0
  186.1270  178.5530  144.4250 C   0  0  0  0  0  3  0  0  0  0  0  0
  183.8420  179.0170  145.0160 C   0  0  0  0  0  3  0  0  0  0  0  0
  186.4110  178.2250  145.7570 C   0  0  0  0  0  0  0  0  0  0  0  0
  185.3640  178.2980  146.6900 C   0  0  0  0  0  3  0  0  0  0  0  0
  189.5870  177.3420  147.6790 C   0  0  0  0  0  3  0  0  0  0  0  0
  187.5560  178.4040  148.5930 C   0  0  0  0  0  1  0  0  0  0  0  0
  189.8190  176.7900  145.3550 C   0  0  0  0  0  3  0  0  0  0  0  0
  190.3600  176.8190  146.6410 C   0  0  0  0  0  0  0  0  0  0  0  0
  188.5620  177.2540  145.1300 N   0  0  0  0  0  0  0  0  0  0  0  0
  187.7740  177.7590  146.1230 C   0  0  0  0  0  0  0  0  0  0  0  0
  188.2960  177.8150  147.4400 C   0  0  0  0  0  0  0  0  0  0  0  0
  191.7190  176.3200  146.9000 C   0  0  0  0  0  0  0  0  0  0  0  0
  192.4000  176.7070  148.0500 O   0  0  0  0  0  1  0  0  0  0  0  0
  192.2780  175.5370  146.0870 O   0  0  0  0  0  0  0  0  0  0  0  0
  184.5420  179.2770  142.6250 C   0  0  0  0  0  2  0  0  0  0  0  0
  184.4380  178.3210  138.3850 C   0  0  0  0  0  3  0  0  0  0  0  0
  185.5850  178.3280  137.6930 C   0  0  0  0  0  3  0  0  0  0  0  0
  185.7410  179.1360  141.8100 N   0  0  0  0  0  2  0  0  0  0  0  0
  185.7250  178.6240  140.4750 C   0  0  0  0  0  0  0  0  0  0  0  0
  186.8250  178.6280  139.7780 N   0  0  0  0  0  0  0  0  0  0  0  0
  187.9820  178.6790  137.6900 N   0  0  0  0  0  1  0  0  0  0  0  0
  184.4580  178.0660  139.8700 C   0  0  0  0  0  2  0  0  0  0  0  0
  186.8800  178.0790  138.4190 C   0  0  2  0  0  3  0  0  0  0  0  0
  1  6  1  0  0  0  0
  2  3  2  0  0  0  0
  2  4  1  0  0  0  0
  3  5  1  0  0  0  0
  4  1  2  0  0  0  0
  5 12  1  0  0  0  0
  5  6  2  0  0  0  0
  9 10  1  0  0  0  0
 10 14  1  0  0  0  0
 10  7  2  0  0  0  0
 11  9  2  0  0  0  0
 11 12  1  0  0  0  0
 12 13  2  0  0  0  0
 13  7  1  0  0  0  0
 13  8  1  0  0  0  0
 14 15  1  0  0  0  0
 16 14  2  0  0  0  0
 17  2  1  0  0  0  0
 18 24  1  0  0  0  0
 19 18  2  0  0  0  0
 19 25  1  0  0  0  0
 20 17  1  0  0  0  0
 21 20  1  0  0  0  0
 22 21  2  0  0  0  0
 24 21  1  0  0  0  0
 25 23  1  6  0  0  0
 25 22  1  0  0  0  0
M  END
>  <MODEL>
2

>  <REMARK>
 VINA RESULT:      -9.1      0.787      1.587
  Name = 
  4 active torsions:
  status: ('A' for Active; 'I' for Inactive)
    1  A    between atoms: C_4  and  C_16
    2  A    between atoms: C_8  and  C_9
    3  A    between atoms: C_8  and  N_13
    4  A    between atoms: C_18  and  C_20
                            x       y       z     vdW  Elec       q    Type
                         _______ _______ _______ _____ _____    ______ ____

>  <TORSDO>
F 4

$$$$
=
 OpenBabel10222417103D

 25 27  0  0  1  0  0  0  0  0999 V2000
  184.1320  178.6980  146.2580 N   0  0  0  0  0  0  0  0  0  0  0  0
  184.8400  178.9780  143.9980 C   0  0  0  0  0  0  0  0  0  0  0  0
  186.1210  178.5600  144.3580 C   0  0  0  0  0  3  0  0  0  0  0  0
  183.8450  179.0380  144.9740 C   0  0  0  0  0  3  0  0  0  0  0  0
  186.4130  178.2180  145.6850 C   0  0  0  0  0  0  0  0  0  0  0  0
  185.3760  178.2920  146.6270 C   0  0  0  0  0  3  0  0  0  0  0  0
  189.9210  176.7230  145.5330 C   0  0  0  0  0  3  0  0  0  0  0  0
  188.2930  176.8580  143.6840 C   0  0  0  0  0  1  0  0  0  0  0  0
  189.4200  177.4900  147.7520 C   0  0  0  0  0  3  0  0  0  0  0  0
  190.3180  176.9020  146.8590 C   0  0  0  0  0  0  0  0  0  0  0  0
  188.1910  177.8840  147.3260 N   0  0  0  0  0  0  0  0  0  0  0  0
  187.7760  177.7370  146.0350 C   0  0  0  0  0  0  0  0  0  0  0  0
  188.6580  177.1320  145.1040 C   0  0  0  0  0  0  0  0  0  0  0  0
  191.6520  176.4710  147.3050 C   0  0  0  0  0  0  0  0  0  0  0  0
  192.2790  177.1160  148.3650 O   0  0  0  0  0  1  0  0  0  0  0  0
  192.2370  175.5120  146.7330 O   0  0  0  0  0  0  0  0  0  0  0  0
  184.5260  179.3130  142.5790 C   0  0  0  0  0  2  0  0  0  0  0  0
  184.8350  178.2990  138.3620 C   0  0  0  0  0  3  0  0  0  0  0  0
  184.1920  177.2150  137.9100 C   0  0  0  0  0  3  0  0  0  0  0  0
  183.7710  178.2320  141.9610 N   0  0  0  0  0  2  0  0  0  0  0  0
  183.7110  178.0260  140.5480 C   0  0  0  0  0  0  0  0  0  0  0  0
  183.0990  176.9750  140.0830 N   0  0  0  0  0  0  0  0  0  0  0  0
  182.7730  175.3130  138.4000 N   0  0  0  0  0  1  0  0  0  0  0  0
  184.3320  179.0140  139.5890 C   0  0  0  0  0  2  0  0  0  0  0  0
  182.9680  176.7300  138.6430 C   0  0  2  0  0  3  0  0  0  0  0  0
  1  6  1  0  0  0  0
  2  3  2  0  0  0  0
  2  4  1  0  0  0  0
  3  5  1  0  0  0  0
  4  1  2  0  0  0  0
  5 12  1  0  0  0  0
  5  6  2  0  0  0  0
  7 10  1  0  0  0  0
  8 13  1  0  0  0  0
 10 14  1  0  0  0  0
 10  9  2  0  0  0  0
 11  9  1  0  0  0  0
 12 11  2  0  0  0  0
 13  7  2  0  0  0  0
 13 12  1  0  0  0  0
 14 15  1  0  0  0  0
 16 14  2  0  0  0  0
 17  2  1  0  0  0  0
 18 24  1  0  0  0  0
 19 18  2  0  0  0  0
 19 25  1  0  0  0  0
 20 17  1  0  0  0  0
 21 20  1  0  0  0  0
 22 21  2  0  0  0  0
 24 21  1  0  0  0  0
 25 23  1  1  0  0  0
 25 22  1  0  0  0  0
M  END
>  <MODEL>
3

>  <REMARK>
 VINA RESULT:      -8.9      1.449      1.853
  Name = 
  4 active torsions:
  status: ('A' for Active; 'I' for Inactive)
    1  A    between atoms: C_4  and  C_16
    2  A    between atoms: C_8  and  C_9
    3  A    between atoms: C_8  and  N_13
    4  A    between atoms: C_18  and  C_20
                            x       y       z     vdW  Elec       q    Type
                         _______ _______ _______ _____ _____    ______ ____

>  <TORSDO>
F 4

$$$$
=
 OpenBabel10222417103D

 25 27  0  0  1  0  0  0  0  0999 V2000
  184.1830  179.0030  145.8960 N   0  0  0  0  0  0  0  0  0  0  0  0
  184.7550  178.4790  143.6410 C   0  0  0  0  0  0  0  0  0  0  0  0
  186.0340  178.1120  144.0610 C   0  0  0  0  0  3  0  0  0  0  0  0
  183.8310  178.9250  144.5860 C   0  0  0  0  0  3  0  0  0  0  0  0
  186.3940  178.2020  145.4120 C   0  0  0  0  0  0  0  0  0  0  0  0
  185.4260  178.6530  146.3220 C   0  0  0  0  0  3  0  0  0  0  0  0
  190.0530  177.1180  145.4430 C   0  0  0  0  0  3  0  0  0  0  0  0
  188.6740  177.6020  143.4550 C   0  0  0  0  0  1  0  0  0  0  0  0
  189.1760  177.2130  147.6750 C   0  0  0  0  0  3  0  0  0  0  0  0
  190.2490  176.9680  146.8170 C   0  0  0  0  0  0  0  0  0  0  0  0
  187.9730  177.5980  147.1750 N   0  0  0  0  0  0  0  0  0  0  0  0
  187.7500  177.7670  145.8390 C   0  0  0  0  0  0  0  0  0  0  0  0
  188.8140  177.5140  144.9370 C   0  0  0  0  0  0  0  0  0  0  0  0
  191.5580  176.5520  147.3440 C   0  0  0  0  0  0  0  0  0  0  0  0
  192.2600  175.5180  146.7350 O   0  0  0  0  0  0  0  0  0  0  0  0
  192.0550  177.1280  148.3480 O   0  0  0  0  0  1  0  0  0  0  0  0
  184.3670  178.3540  142.2060 C   0  0  0  0  0  2  0  0  0  0  0  0
  182.4720  178.8760  138.3280 C   0  0  0  0  0  3  0  0  0  0  0  0
  181.1400  179.0070  138.2720 C   0  0  0  0  0  3  0  0  0  0  0  0
  182.9450  178.6280  142.0430 N   0  0  0  0  0  2  0  0  0  0  0  0
  182.3580  179.0020  140.7950 C   0  0  0  0  0  0  0  0  0  0  0  0
  181.0640  179.1270  140.7120 N   0  0  0  0  0  0  0  0  0  0  0  0
  179.0310  179.0860  139.4610 N   0  0  0  0  0  1  0  0  0  0  0  0
  183.2140  179.2690  139.5790 C   0  0  0  0  0  2  0  0  0  0  0  0
  180.4060  179.5480  139.4710 C   0  0  2  0  0  3  0  0  0  0  0  0
  1  6  1  0  0  0  0
  2  3  2  0  0  0  0
  2  4  1  0  0  0  0
  3  5  1  0  0  0  0
  4  1  2  0  0  0  0
  5 12  1  0  0  0  0
  5  6  2  0  0  0  0
  7 10  1  0  0  0  0
  8 13  1  0  0  0  0
 10 14  1  0  0  0  0
 10  9  2  0  0  0  0
 11  9  1  0  0  0  0
 12 11  2  0  0  0  0
 13  7  2  0  0  0  0
 13 12  1  0  0  0  0
 14 16  1  0  0  0  0
 15 14  2  0  0  0  0
 17  2  1  0  0  0  0
 18 24  1  0  0  0  0
 19 18  2  0  0  0  0
 19 25  1  0  0  0  0
 20 17  1  0  0  0  0
 21 20  1  0  0  0  0
 22 21  2  0  0  0  0
 24 21  1  0  0  0  0
 25 23  1  1  0  0  0
 25 22  1  0  0  0  0
M  END
>  <MODEL>
4

>  <REMARK>
 VINA RESULT:      -8.8      2.121      2.746
  Name = 
  4 active torsions:
  status: ('A' for Active; 'I' for Inactive)
    1  A    between atoms: C_4  and  C_16
    2  A    between atoms: C_8  and  C_9
    3  A    between atoms: C_8  and  N_13
    4  A    between atoms: C_18  and  C_20
                            x       y       z     vdW  Elec       q    Type
                         _______ _______ _______ _____ _____    ______ ____

>  <TORSDO>
F 4

$$$$
=
 OpenBabel10222417103D

 25 27  0  0  1  0  0  0  0  0999 V2000
  183.9610  178.9360  145.6970 N   0  0  0  0  0  0  0  0  0  0  0  0
  184.6330  178.5660  143.4380 C   0  0  0  0  0  0  0  0  0  0  0  0
  185.9050  178.2120  143.8850 C   0  0  0  0  0  3  0  0  0  0  0  0
  183.6600  178.9270  144.3710 C   0  0  0  0  0  3  0  0  0  0  0  0
  186.2130  178.2320  145.2520 C   0  0  0  0  0  0  0  0  0  0  0  0
  185.1980  178.5980  146.1490 C   0  0  0  0  0  3  0  0  0  0  0  0
  189.2830  177.4420  147.3770 C   0  0  0  0  0  3  0  0  0  0  0  0
  187.1560  178.4180  148.1610 C   0  0  0  0  0  1  0  0  0  0  0  0
  189.6920  176.9290  145.0680 C   0  0  0  0  0  3  0  0  0  0  0  0
  190.1430  176.9610  146.3890 C   0  0  0  0  0  0  0  0  0  0  0  0
  188.4370  177.3480  144.7630 N   0  0  0  0  0  0  0  0  0  0  0  0
  187.5650  177.8120  145.7050 C   0  0  0  0  0  0  0  0  0  0  0  0
  187.9940  177.8710  147.0550 C   0  0  0  0  0  0  0  0  0  0  0  0
  191.4990  176.5090  146.7350 C   0  0  0  0  0  0  0  0  0  0  0  0
  192.0780  176.8900  147.9410 O   0  0  0  0  0  1  0  0  0  0  0  0
  192.1480  175.7730  145.9450 O   0  0  0  0  0  0  0  0  0  0  0  0
  184.3010  178.5160  141.9840 C   0  0  0  0  0  2  0  0  0  0  0  0
  182.4270  178.9170  138.0820 C   0  0  0  0  0  3  0  0  0  0  0  0
  181.0930  178.8350  137.9950 C   0  0  0  0  0  3  0  0  0  0  0  0
  182.8580  178.5660  141.7940 N   0  0  0  0  0  2  0  0  0  0  0  0
  182.2430  178.9020  140.5480 C   0  0  0  0  0  0  0  0  0  0  0  0
  180.9480  178.8210  140.4350 N   0  0  0  0  0  0  0  0  0  0  0  0
  178.9740  178.5150  139.1270 N   0  0  0  0  0  1  0  0  0  0  0  0
  183.0700  179.3610  139.3700 C   0  0  0  0  0  2  0  0  0  0  0  0
  180.2570  179.1910  139.1960 C   0  0  2  0  0  3  0  0  0  0  0  0
  1  6  1  0  0  0  0
  2  3  2  0  0  0  0
  2  4  1  0  0  0  0
  3  5  1  0  0  0  0
  4  1  2  0  0  0  0
  5 12  1  0  0  0  0
  5  6  2  0  0  0  0
  9 10  1  0  0  0  0
 10 14  1  0  0  0  0
 10  7  2  0  0  0  0
 11  9  2  0  0  0  0
 11 12  1  0  0  0  0
 12 13  2  0  0  0  0
 13  7  1  0  0  0  0
 13  8  1  0  0  0  0
 14 15  1  0  0  0  0
 16 14  2  0  0  0  0
 17  2  1  0  0  0  0
 18 24  1  0  0  0  0
 19 18  2  0  0  0  0
 19 25  1  0  0  0  0
 20 17  1  0  0  0  0
 21 20  1  0  0  0  0
 22 21  2  0  0  0  0
 24 21  1  0  0  0  0
 25 23  1  6  0  0  0
 25 22  1  0  0  0  0
M  END
>  <MODEL>
5

>  <REMARK>
 VINA RESULT:      -8.6      2.291      3.149
  Name = 
  4 active torsions:
  status: ('A' for Active; 'I' for Inactive)
    1  A    between atoms: C_4  and  C_16
    2  A    between atoms: C_8  and  C_9
    3  A    between atoms: C_8  and  N_13
    4  A    between atoms: C_18  and  C_20
                            x       y       z     vdW  Elec       q    Type
                         _______ _______ _______ _____ _____    ______ ____

>  <TORSDO>
F 4

$$$$
=
 OpenBabel10222417103D

 25 27  0  0  1  0  0  0  0  0999 V2000
  187.2800  178.4760  147.7170 N   0  0  0  0  0  0  0  0  0  0  0  0
  188.3640  177.4080  145.8800 C   0  0  0  0  0  0  0  0  0  0  0  0
  187.2280  177.6210  145.0990 C   0  0  0  0  0  3  0  0  0  0  0  0
  188.3720  177.8520  147.2030 C   0  0  0  0  0  3  0  0  0  0  0  0
  186.1010  178.2570  145.6370 C   0  0  0  0  0  0  0  0  0  0  0  0
  186.1630  178.6870  146.9710 C   0  0  0  0  0  3  0  0  0  0  0  0
  183.7900  178.7180  142.6350 C   0  0  0  0  0  3  0  0  0  0  0  0
  186.2130  178.2520  142.5750 C   0  0  0  0  0  1  0  0  0  0  0  0
  182.5850  179.0170  144.6890 C   0  0  0  0  0  3  0  0  0  0  0  0
  182.5890  178.9840  143.2940 C   0  0  0  0  0  0  0  0  0  0  0  0
  183.7300  178.7840  145.3830 N   0  0  0  0  0  0  0  0  0  0  0  0
  184.9190  178.5070  144.7720 C   0  0  0  0  0  0  0  0  0  0  0  0
  184.9620  178.4780  143.3550 C   0  0  0  0  0  0  0  0  0  0  0  0
  181.3580  179.2340  142.5290 C   0  0  0  0  0  0  0  0  0  0  0  0
  180.5440  180.3160  142.8470 O   0  0  0  0  0  1  0  0  0  0  0  0
  181.0300  178.4730  141.5800 O   0  0  0  0  0  0  0  0  0  0  0  0
  189.5710  176.7560  145.2950 C   0  0  0  0  0  2  0  0  0  0  0  0
  192.1820  177.8990  142.0110 C   0  0  0  0  0  3  0  0  0  0  0  0
  191.9340  177.4090  140.7890 C   0  0  0  0  0  3  0  0  0  0  0  0
  189.3210  176.3820  143.9100 N   0  0  0  0  0  2  0  0  0  0  0  0
  190.0540  176.9220  142.8080 C   0  0  0  0  0  0  0  0  0  0  0  0
  189.8390  176.4560  141.6110 N   0  0  0  0  0  0  0  0  0  0  0  0
  190.5550  176.0030  139.3790 N   0  0  0  0  0  1  0  0  0  0  0  0
  191.0600  178.0300  143.0090 C   0  0  0  0  0  2  0  0  0  0  0  0
  190.5290  176.9970  140.4360 C   0  0  2  0  0  3  0  0  0  0  0  0
  2  4  2  0  0  0  0
  3  5  2  0  0  0  0
  3  2  1  0  0  0  0
  4  1  1  0  0  0  0
  5  6  1  0  0  0  0
  6  1  2  0  0  0  0
  7 10  2  0  0  0  0
  7 13  1  0  0  0  0
  8 13  1  0  0  0  0
  9 11  2  0  0  0  0
 10  9  1  0  0  0  0
 12 11  1  0  0  0  0
 12  5  1  0  0  0  0
 13 12  2  0  0  0  0
 14 15  1  0  0  0  0
 14 10  1  0  0  0  0
 16 14  2  0  0  0  0
 17  2  1  0  0  0  0
 18 24  1  0  0  0  0
 19 18  2  0  0  0  0
 20 17  1  0  0  0  0
 21 24  1  0  0  0  0
 21 20  1  0  0  0  0
 22 21  2  0  0  0  0
 25 23  1  6  0  0  0
 25 19  1  0  0  0  0
 25 22  1  0  0  0  0
M  END
>  <MODEL>
6

>  <REMARK>
 VINA RESULT:      -8.5      4.379      6.713
  Name = 
  4 active torsions:
  status: ('A' for Active; 'I' for Inactive)
    1  A    between atoms: C_4  and  C_16
    2  A    between atoms: C_8  and  C_9
    3  A    between atoms: C_8  and  N_13
    4  A    between atoms: C_18  and  C_20
                            x       y       z     vdW  Elec       q    Type
                         _______ _______ _______ _____ _____    ______ ____

>  <TORSDO>
F 4

$$$$
=
 OpenBabel10222417103D

 25 27  0  0  1  0  0  0  0  0999 V2000
  190.5610  176.1890  141.1960 N   0  0  0  0  0  0  0  0  0  0  0  0
  189.4280  177.7410  139.7830 C   0  0  0  0  0  0  0  0  0  0  0  0
  188.5190  177.9970  140.8100 C   0  0  0  0  0  3  0  0  0  0  0  0
  190.4570  176.8240  139.9990 C   0  0  0  0  0  3  0  0  0  0  0  0
  188.6250  177.3320  142.0390 C   0  0  0  0  0  0  0  0  0  0  0  0
  189.6810  176.4230  142.2060 C   0  0  0  0  0  3  0  0  0  0  0  0
  187.0410  177.9670  145.4520 C   0  0  0  0  0  3  0  0  0  0  0  0
  189.3590  177.2470  145.0120 C   0  0  0  0  0  1  0  0  0  0  0  0
  185.4360  178.2900  143.6960 C   0  0  0  0  0  3  0  0  0  0  0  0
  185.7440  178.3000  145.0580 C   0  0  0  0  0  0  0  0  0  0  0  0
  186.3880  177.9700  142.7820 N   0  0  0  0  0  0  0  0  0  0  0  0
  187.6680  177.6520  143.1300 C   0  0  0  0  0  0  0  0  0  0  0  0
  188.0130  177.6400  144.5050 C   0  0  0  0  0  0  0  0  0  0  0  0
  184.7240  178.6450  146.0600 C   0  0  0  0  0  0  0  0  0  0  0  0
  183.4450  179.0150  145.6590 O   0  0  0  0  0  0  0  0  0  0  0  0
  184.9980  178.6070  147.2890 O   0  0  0  0  0  1  0  0  0  0  0  0
  189.3280  178.4720  138.4870 C   0  0  0  0  0  2  0  0  0  0  0  0
  186.7070  175.3040  137.0710 C   0  0  0  0  0  3  0  0  0  0  0  0
  185.4080  175.5740  136.8870 C   0  0  0  0  0  3  0  0  0  0  0  0
  187.9300  178.6890  138.1370 N   0  0  0  0  0  2  0  0  0  0  0  0
  187.1250  177.7070  137.4810 C   0  0  0  0  0  0  0  0  0  0  0  0
  185.8570  177.9410  137.2980 N   0  0  0  0  0  0  0  0  0  0  0  0
  183.6090  177.1940  136.9990 N   0  0  0  0  0  1  0  0  0  0  0  0
  187.7250  176.4120  136.9850 C   0  0  0  0  0  2  0  0  0  0  0  0
  184.9890  176.9910  136.5960 C   0  0  2  0  0  3  0  0  0  0  0  0
  1  6  1  0  0  0  0
  2  4  1  0  0  0  0
  2  3  2  0  0  0  0
  3  5  1  0  0  0  0
  4  1  2  0  0  0  0
  5  6  2  0  0  0  0
  5 12  1  0  0  0  0
  9 10  2  0  0  0  0
 10  7  1  0  0  0  0
 10 14  1  0  0  0  0
 11 12  2  0  0  0  0
 11  9  1  0  0  0  0
 12 13  1  0  0  0  0
 13  8  1  0  0  0  0
 13  7  2  0  0  0  0
 14 16  1  0  0  0  0
 15 14  2  0  0  0  0
 17  2  1  0  0  0  0
 19 18  2  0  0  0  0
 20 17  1  0  0  0  0
 21 20  1  0  0  0  0
 22 21  2  0  0  0  0
 24 18  1  0  0  0  0
 24 21  1  0  0  0  0
 25 19  1  0  0  0  0
 25 23  1  1  0  0  0
 25 22  1  0  0  0  0
M  END
>  <MODEL>
7

>  <REMARK>
 VINA RESULT:      -8.5      3.330      5.403
  Name = 
  4 active torsions:
  status: ('A' for Active; 'I' for Inactive)
    1  A    between atoms: C_4  and  C_16
    2  A    between atoms: C_8  and  C_9
    3  A    between atoms: C_8  and  N_13
    4  A    between atoms: C_18  and  C_20
                            x       y       z     vdW  Elec       q    Type
                         _______ _______ _______ _____ _____    ______ ____

>  <TORSDO>
F 4

$$$$
=
 OpenBabel10222417103D

 25 27  0  0  1  0  0  0  0  0999 V2000
  182.2520  179.0640  143.3850 N   0  0  0  0  0  0  0  0  0  0  0  0
  183.7380  178.6830  141.5590 C   0  0  0  0  0  0  0  0  0  0  0  0
  184.7770  178.4620  142.4620 C   0  0  0  0  0  3  0  0  0  0  0  0
  182.4660  178.9840  142.0450 C   0  0  0  0  0  3  0  0  0  0  0  0
  184.5540  178.5550  143.8430 C   0  0  0  0  0  0  0  0  0  0  0  0
  183.2550  178.8560  144.2800 C   0  0  0  0  0  3  0  0  0  0  0  0
  187.9060  177.5270  145.3500 C   0  0  0  0  0  3  0  0  0  0  0  0
  187.2370  177.3520  142.9810 C   0  0  0  0  0  1  0  0  0  0  0  0
  186.4190  178.3340  147.0540 C   0  0  0  0  0  3  0  0  0  0  0  0
  187.6680  177.8240  146.6930 C   0  0  0  0  0  0  0  0  0  0  0  0
  185.4660  178.5420  146.1080 N   0  0  0  0  0  0  0  0  0  0  0  0
  185.6680  178.2750  144.7850 C   0  0  0  0  0  0  0  0  0  0  0  0
  186.9210  177.7440  144.3850 C   0  0  0  0  0  0  0  0  0  0  0  0
  188.7110  177.5950  147.7050 C   0  0  0  0  0  0  0  0  0  0  0  0
  188.6340  178.2210  148.9440 O   0  0  0  0  0  1  0  0  0  0  0  0
  189.6810  176.8290  147.4600 O   0  0  0  0  0  0  0  0  0  0  0  0
  183.9740  178.5550  140.0910 C   0  0  0  0  0  2  0  0  0  0  0  0
  185.7840  177.5020  136.2800 C   0  0  0  0  0  3  0  0  0  0  0  0
  187.0530  177.8620  136.0470 C   0  0  0  0  0  3  0  0  0  0  0  0
  185.3780  178.7880  139.7840 N   0  0  0  0  0  2  0  0  0  0  0  0
  186.0240  178.2620  138.6210 C   0  0  0  0  0  0  0  0  0  0  0  0
  187.2550  178.6040  138.3670 N   0  0  0  0  0  0  0  0  0  0  0  0
  189.0540  178.9710  136.8420 N   0  0  0  0  0  1  0  0  0  0  0  0
  185.3060  177.3070  137.6960 C   0  0  0  0  0  2  0  0  0  0  0  0
  187.9830  178.0660  137.2130 C   0  0  2  0  0  3  0  0  0  0  0  0
  1  6  1  0  0  0  0
  2  4  1  0  0  0  0
  2  3  2  0  0  0  0
  3  5  1  0  0  0  0
  4  1  2  0  0  0  0
  5  6  2  0  0  0  0
  5 12  1  0  0  0  0
  7 10  1  0  0  0  0
  8 13  1  0  0  0  0
 10  9  2  0  0  0  0
 10 14  1  0  0  0  0
 11  9  1  0  0  0  0
 12 11  2  0  0  0  0
 13 12  1  0  0  0  0
 13  7  2  0  0  0  0
 14 15  1  0  0  0  0
 16 14  2  0  0  0  0
 17  2  1  0  0  0  0
 18 24  1  0  0  0  0
 19 18  2  0  0  0  0
 19 25  1  0  0  0  0
 20 17  1  0  0  0  0
 21 20  1  0  0  0  0
 22 21  2  0  0  0  0
 24 21  1  0  0  0  0
 25 23  1  6  0  0  0
 25 22  1  0  0  0  0
M  END
>  <MODEL>
8

>  <REMARK>
 VINA RESULT:      -8.5      1.640      2.668
  Name = 
  4 active torsions:
  status: ('A' for Active; 'I' for Inactive)
    1  A    between atoms: C_4  and  C_16
    2  A    between atoms: C_8  and  C_9
    3  A    between atoms: C_8  and  N_13
    4  A    between atoms: C_18  and  C_20
                            x       y       z     vdW  Elec       q    Type
                         _______ _______ _______ _____ _____    ______ ____

>  <TORSDO>
F 4

$$$$
=
 OpenBabel10222417103D

 25 27  0  0  1  0  0  0  0  0999 V2000
  189.0800  177.5030  146.5970 N   0  0  0  0  0  0  0  0  0  0  0  0
  189.7510  177.0160  144.3610 C   0  0  0  0  0  0  0  0  0  0  0  0
  188.4590  177.3040  143.9210 C   0  0  0  0  0  3  0  0  0  0  0  0
  190.0470  177.1260  145.7200 C   0  0  0  0  0  3  0  0  0  0  0  0
  187.4630  177.6830  144.8310 C   0  0  0  0  0  0  0  0  0  0  0  0
  187.8140  177.7820  146.1860 C   0  0  0  0  0  3  0  0  0  0  0  0
  183.8030  178.7400  144.6000 C   0  0  0  0  0  3  0  0  0  0  0  0
  185.1470  178.5130  146.6570 C   0  0  0  0  0  1  0  0  0  0  0  0
  184.6780  178.2240  142.4250 C   0  0  0  0  0  3  0  0  0  0  0  0
  183.6110  178.6440  143.2210 C   0  0  0  0  0  0  0  0  0  0  0  0
  185.8780  177.9280  142.9890 N   0  0  0  0  0  0  0  0  0  0  0  0
  186.1050  178.0230  144.3320 C   0  0  0  0  0  0  0  0  0  0  0  0
  185.0400  178.4340  145.1710 C   0  0  0  0  0  0  0  0  0  0  0  0
  182.3070  178.9700  142.6240 C   0  0  0  0  0  0  0  0  0  0  0  0
  182.1210  178.8700  141.2500 O   0  0  0  0  0  0  0  0  0  0  0  0
  181.3460  179.3400  143.3510 O   0  0  0  0  0  1  0  0  0  0  0  0
  190.8150  176.6410  143.3850 C   0  0  0  0  0  2  0  0  0  0  0  0
  192.9390  177.1050  139.6190 C   0  0  0  0  0  3  0  0  0  0  0  0
  192.3550  176.6780  138.4920 C   0  0  0  0  0  3  0  0  0  0  0  0
  190.2240  176.3250  142.0920 N   0  0  0  0  0  2  0  0  0  0  0  0
  190.8360  176.6660  140.8460 C   0  0  0  0  0  0  0  0  0  0  0  0
  190.2940  176.2550  139.7350 N   0  0  0  0  0  0  0  0  0  0  0  0
  190.4440  175.6270  137.4370 N   0  0  0  0  0  1  0  0  0  0  0  0
  192.0910  177.5070  140.7990 C   0  0  0  0  0  2  0  0  0  0  0  0
  190.8520  176.6070  138.4260 C   0  0  2  0  0  3  0  0  0  0  0  0
  2  4  1  0  0  0  0
  3  2  2  0  0  0  0
  3  5  1  0  0  0  0
  4  1  2  0  0  0  0
  5  6  2  0  0  0  0
  6  1  1  0  0  0  0
  7 13  1  0  0  0  0
  9 11  2  0  0  0  0
  9 10  1  0  0  0  0
 10  7  2  0  0  0  0
 11 12  1  0  0  0  0
 12  5  1  0  0  0  0
 12 13  2  0  0  0  0
 13  8  1  0  0  0  0
 14 10  1  0  0  0  0
 14 16  1  0  0  0  0
 15 14  2  0  0  0  0
 17  2  1  0  0  0  0
 18 24  1  0  0  0  0
 19 18  2  0  0  0  0
 20 17  1  0  0  0  0
 21 20  1  0  0  0  0
 22 21  2  0  0  0  0
 24 21  1  0  0  0  0
 25 23  1  6  0  0  0
 25 19  1  0  0  0  0
 25 22  1  0  0  0  0
M  END
>  <MODEL>
9

>  <REMARK>
 VINA RESULT:      -8.5      4.487      6.646
  Name = 
  4 active torsions:
  status: ('A' for Active; 'I' for Inactive)
    1  A    between atoms: C_4  and  C_16
    2  A    between atoms: C_8  and  C_9
    3  A    between atoms: C_8  and  N_13
    4  A    between atoms: C_18  and  C_20
                            x       y       z     vdW  Elec       q    Type
                         _______ _______ _______ _____ _____    ______ ____

>  <TORSDO>
F 4

$$$$
