=
 OpenBabel10222416443D

 45 50  0  0  1  0  0  0  0  0999 V2000
  185.2710  178.1630  137.7340 C   0  0  0  0  0  2  0  0  0  0  0  0
  181.9660  179.0410  137.1800 C   0  0  1  0  0  3  0  0  0  0  0  0
  180.7170  179.5570  140.4890 C   0  0  0  0  0  3  0  0  0  0  0  0
  183.2770  178.3540  139.2770 C   0  0  0  0  0  0  0  0  0  0  0  0
  181.2090  178.8880  141.5340 C   0  0  0  0  0  0  0  0  0  0  0  0
  182.3160  179.0990  138.6630 C   0  0  0  0  0  0  0  0  0  0  0  0
  183.5490  178.4350  140.7310 C   0  0  0  0  0  3  0  0  0  0  0  0
  182.3790  176.8230  136.8780 C   0  0  0  0  0  2  0  0  0  0  0  0
  183.5290  176.3140  137.7330 C   0  0  1  0  0  3  0  0  0  0  0  0
  184.2120  177.4230  138.5430 C   0  0  1  0  0  3  0  0  0  0  0  0
  182.6600  178.6540  141.7080 C   0  0  0  0  0  3  0  0  0  0  0  0
  181.5810  180.1540  139.4320 C   0  0  0  0  0  2  0  0  0  0  0  0
  183.0310  175.2180  138.6570 C   0  0  0  0  0  1  0  0  0  0  0  0
  182.6790  178.1060  136.3990 O   0  0  0  0  0  0  0  0  0  0  0  0
  180.2850  178.4370  142.5910 C   0  0  0  0  0  0  0  0  0  0  0  0
  179.3980  177.3950  142.3540 O   0  0  0  0  0  0  0  0  0  0  0  0
  180.2890  178.9940  143.7210 O   0  0  0  0  0  1  0  0  0  0  0  0
  180.5840  178.9060  136.9880 O   0  0  0  0  0  0  0  0  0  0  0  0
  180.3130  179.6100  135.8140 C   0  0  0  0  0  2  0  0  0  0  0  0
  180.6670  181.9630  135.2610 C   0  0  0  0  0  3  0  0  0  0  0  0
  180.2010  181.0640  136.1220 C   0  0  0  0  0  3  0  0  0  0  0  0
  181.1100  183.6890  136.9460 C   0  0  0  0  0  1  0  0  0  0  0  0
  180.5520  183.4160  135.5640 C   0  0  0  0  0  2  0  0  0  0  0  0
  187.5170  175.6400  136.4900 C   0  0  0  0  0  0  0  0  0  0  0  0
  189.1440  175.0790  134.8960 C   0  0  0  0  0  3  0  0  0  0  0  0
  189.6480  176.7840  136.5480 N   0  0  0  0  0  0  0  0  0  0  0  0
  187.6690  177.4490  137.8610 C   0  0  0  0  0  0  0  0  0  0  0  0
  186.3400  176.1710  136.5240 N   0  0  0  0  0  0  0  0  0  0  0  0
  186.4260  177.2630  137.4330 C   0  0  0  0  0  0  0  0  0  0  0  0
  188.5140  176.3310  137.3610 C   0  0  1  0  0  3  0  0  0  0  0  0
  189.9850  176.1740  135.4440 C   0  0  0  0  0  3  0  0  0  0  0  0
  187.9610  174.8510  135.3870 N   0  0  0  0  0  0  0  0  0  0  0  0
  188.1130  178.5140  138.8120 C   0  0  0  0  0  2  0  0  0  0  0  0
  189.3680  177.3350  140.6040 C   0  0  0  0  0  3  0  0  0  0  0  0
  187.3610  178.0650  141.0960 N   0  0  0  0  0  0  0  0  0  0  0  0
  187.8840  177.4860  142.1910 C   0  0  0  0  0  0  0  0  0  0  0  0
  189.1560  177.0050  141.9340 C   0  0  0  0  0  3  0  0  0  0  0  0
  188.2690  177.9580  140.1450 N   0  0  0  0  0  0  0  0  0  0  0  0
  187.1810  177.3800  143.5020 C   0  0  0  0  0  3  0  0  0  0  0  0
  185.9550  178.2930  143.5220 C   0  0  0  0  0  2  0  0  0  0  0  0
  185.3150  178.2650  144.9070 C   0  0  0  0  0  2  0  0  0  0  0  0
  185.6030  178.6360  147.1960 C   0  0  0  0  0  1  0  0  0  0  0  0
  186.2820  178.6990  145.9150 N   0  0  0  0  0  0  0  0  0  0  0  0
  188.1340  177.7280  144.6460 C   0  0  0  0  0  2  0  0  0  0  0  0
  187.3690  177.7220  145.9660 C   0  0  0  0  0  2  0  0  0  0  0  0
  2 18  1  1  0  0  0
  2  6  1  0  0  0  0
  3  5  2  0  0  0  0
  4  7  1  0  0  0  0
  5 11  1  0  0  0  0
  5 15  1  0  0  0  0
  6  4  2  0  0  0  0
  6 12  1  0  0  0  0
  7 11  2  0  0  0  0
  8  9  1  0  0  0  0
  9 10  1  0  0  0  0
  9 13  1  1  0  0  0
 10  1  1  6  0  0  0
 10  4  1  0  0  0  0
 12  3  1  0  0  0  0
 14  8  1  0  0  0  0
 14  2  1  0  0  0  0
 15 17  1  0  0  0  0
 16 15  2  0  0  0  0
 19 21  1  0  0  0  0
 19 18  1  0  0  0  0
 20 23  1  0  0  0  0
 20 21  2  0  0  0  0
 23 22  1  0  0  0  0
 24 28  2  0  0  0  0
 25 32  2  0  0  0  0
 25 31  1  0  0  0  0
 26 30  1  0  0  0  0
 27 33  1  0  0  0  0
 28 29  1  0  0  0  0
 29  1  1  0  0  0  0
 29 27  2  0  0  0  0
 30 24  1  6  0  0  0
 30 27  1  0  0  0  0
 31 26  2  0  0  0  0
 32 24  1  0  0  0  0
 33 38  1  0  0  0  0
 34 37  2  0  0  0  0
 35 36  2  0  0  0  0
 36 39  1  0  0  0  0
 37 36  1  0  0  0  0
 38 34  1  0  0  0  0
 38 35  1  0  0  0  0
 39 40  1  0  0  0  0
 39 44  1  0  0  0  0
 40 41  1  0  0  0  0
 41 43  1  0  0  0  0
 43 45  1  0  0  0  0
 43 42  1  0  0  0  0
 44 45  1  0  0  0  0
M  END
>  <MODEL>
1

>  <REMARK>
 VINA RESULT:      -7.7      0.000      0.000
  Name = 
  10 active torsions:
  status: ('A' for Active; 'I' for Inactive)
    1  A    between atoms: C_3  and  O_25
    2  A    between atoms: C_4  and  C_34
    3  A    between atoms: C_7  and  O_25
    4  A    between atoms: C_7  and  C_40
    5  A    between atoms: C_8  and  C_16
    6  A    between atoms: C_11  and  C_18
    7  A    between atoms: C_12  and  C_30
    8  A    between atoms: C_12  and  C_32
    9  A    between atoms: C_21  and  C_22
   10  A    between atoms: C_22  and  N_39
                            x       y       z     vdW  Elec       q    Type
                         _______ _______ _______ _____ _____    ______ ____

>  <TORSDO>
F 10

$$$$
=
 OpenBabel10222416443D

 45 50  0  0  1  0  0  0  0  0999 V2000
  189.1890  178.6050  142.1040 C   0  0  0  0  0  2  0  0  0  0  0  0
  187.4780  177.9400  145.0410 C   0  0  1  0  0  3  0  0  0  0  0  0
  190.1160  177.4000  147.3920 C   0  0  0  0  0  3  0  0  0  0  0  0
  189.9290  177.6660  144.3320 C   0  0  0  0  0  0  0  0  0  0  0  0
  191.2960  176.9020  147.0170 C   0  0  0  0  0  0  0  0  0  0  0  0
  188.9860  177.9610  145.2690 C   0  0  0  0  0  0  0  0  0  0  0  0
  191.3820  177.6750  144.6240 C   0  0  0  0  0  3  0  0  0  0  0  0
  187.4400  176.2140  143.5580 C   0  0  0  0  0  2  0  0  0  0  0  0
  188.6640  176.1820  142.6560 C   0  0  1  0  0  3  0  0  0  0  0  0
  189.6100  177.3670  142.8870 C   0  0  1  0  0  3  0  0  0  0  0  0
  191.9760  177.3380  145.7750 C   0  0  0  0  0  3  0  0  0  0  0  0
  189.4010  178.4560  146.6200 C   0  0  0  0  0  2  0  0  0  0  0  0
  189.4040  174.8720  142.8490 C   0  0  0  0  0  1  0  0  0  0  0  0
  187.0370  177.5430  143.7600 O   0  0  0  0  0  0  0  0  0  0  0  0
  191.9830  175.9490  147.9060 C   0  0  0  0  0  0  0  0  0  0  0  0
  193.0360  176.3680  148.7100 O   0  0  0  0  0  1  0  0  0  0  0  0
  191.6260  174.7410  147.9440 O   0  0  0  0  0  0  0  0  0  0  0  0
  186.8220  177.2150  146.0460 O   0  0  0  0  0  0  0  0  0  0  0  0
  185.9700  178.1350  146.6580 C   0  0  0  0  0  2  0  0  0  0  0  0
  183.9780  178.6320  145.3340 C   0  0  0  0  0  3  0  0  0  0  0  0
  185.2480  178.9130  145.6120 C   0  0  0  0  0  3  0  0  0  0  0  0
  183.5460  178.8260  142.9280 C   0  0  0  0  0  1  0  0  0  0  0  0
  183.2530  179.4120  144.2930 C   0  0  0  0  0  2  0  0  0  0  0  0
  187.5860  178.0550  138.9290 C   0  0  0  0  0  0  0  0  0  0  0  0
  187.1440  178.8980  136.7840 C   0  0  0  0  0  3  0  0  0  0  0  0
  189.4250  178.3200  137.3780 N   0  0  0  0  0  0  0  0  0  0  0  0
  189.6820  177.8140  139.7790 C   0  0  0  0  0  0  0  0  0  0  0  0
  187.5300  178.4560  140.1550 N   0  0  0  0  0  0  0  0  0  0  0  0
  188.8280  178.2420  140.7000 C   0  0  0  0  0  0  0  0  0  0  0  0
  188.9300  177.5460  138.5230 C   0  0  1  0  0  3  0  0  0  0  0  0
  188.6090  178.8920  136.5360 C   0  0  0  0  0  3  0  0  0  0  0  0
  186.6720  178.5200  137.9370 N   0  0  0  0  0  0  0  0  0  0  0  0
  191.1270  177.5040  140.0080 C   0  0  0  0  0  2  0  0  0  0  0  0
  190.8580  175.5060  138.5530 C   0  0  0  0  0  3  0  0  0  0  0  0
  192.7700  176.5730  138.4520 N   0  0  0  0  0  0  0  0  0  0  0  0
  192.8070  175.5490  137.5820 C   0  0  0  0  0  0  0  0  0  0  0  0
  191.6190  174.8390  137.6060 C   0  0  0  0  0  3  0  0  0  0  0  0
  191.5870  176.5270  139.0350 N   0  0  0  0  0  0  0  0  0  0  0  0
  193.9750  175.2280  136.7110 C   0  0  0  0  0  3  0  0  0  0  0  0
  195.1430  174.7210  137.5580 C   0  0  0  0  0  2  0  0  0  0  0  0
  196.3680  174.5110  136.6700 C   0  0  0  0  0  2  0  0  0  0  0  0
  197.8900  175.4800  135.1860 C   0  0  0  0  0  1  0  0  0  0  0  0
  196.7310  175.7650  136.0120 N   0  0  0  0  0  0  0  0  0  0  0  0
  194.3870  176.4580  135.9010 C   0  0  0  0  0  2  0  0  0  0  0  0
  195.6490  176.1430  135.1040 C   0  0  0  0  0  2  0  0  0  0  0  0
  2  6  1  0  0  0  0
  2 18  1  1  0  0  0
  4  7  1  0  0  0  0
  4  6  2  0  0  0  0
  5  3  2  0  0  0  0
  5 15  1  0  0  0  0
  6 12  1  0  0  0  0
  7 11  2  0  0  0  0
  8 14  1  0  0  0  0
  9 13  1  1  0  0  0
  9 10  1  0  0  0  0
  9  8  1  0  0  0  0
 10  1  1  1  0  0  0
 10  4  1  0  0  0  0
 11  5  1  0  0  0  0
 12  3  1  0  0  0  0
 14  2  1  0  0  0  0
 15 17  2  0  0  0  0
 15 16  1  0  0  0  0
 18 19  1  0  0  0  0
 20 21  2  0  0  0  0
 21 19  1  0  0  0  0
 22 23  1  0  0  0  0
 23 20  1  0  0  0  0
 24 28  2  0  0  0  0
 25 32  2  0  0  0  0
 27 33  1  0  0  0  0
 27 29  2  0  0  0  0
 28 29  1  0  0  0  0
 29  1  1  0  0  0  0
 30 26  1  6  0  0  0
 30 24  1  0  0  0  0
 30 27  1  0  0  0  0
 31 25  1  0  0  0  0
 31 26  2  0  0  0  0
 32 24  1  0  0  0  0
 34 38  1  0  0  0  0
 35 38  1  0  0  0  0
 36 37  1  0  0  0  0
 36 35  2  0  0  0  0
 37 34  2  0  0  0  0
 38 33  1  0  0  0  0
 39 40  1  0  0  0  0
 39 36  1  0  0  0  0
 41 40  1  0  0  0  0
 42 43  1  0  0  0  0
 43 41  1  0  0  0  0
 44 39  1  0  0  0  0
 45 44  1  0  0  0  0
 45 43  1  0  0  0  0
M  END
>  <MODEL>
2

>  <REMARK>
 VINA RESULT:      -7.1      4.513      9.359
  Name = 
  10 active torsions:
  status: ('A' for Active; 'I' for Inactive)
    1  A    between atoms: C_3  and  O_25
    2  A    between atoms: C_4  and  C_34
    3  A    between atoms: C_7  and  O_25
    4  A    between atoms: C_7  and  C_40
    5  A    between atoms: C_8  and  C_16
    6  A    between atoms: C_11  and  C_18
    7  A    between atoms: C_12  and  C_30
    8  A    between atoms: C_12  and  C_32
    9  A    between atoms: C_21  and  C_22
   10  A    between atoms: C_22  and  N_39
                            x       y       z     vdW  Elec       q    Type
                         _______ _______ _______ _____ _____    ______ ____

>  <TORSDO>
F 10

$$$$
=
 OpenBabel10222416443D

 45 50  0  0  1  0  0  0  0  0999 V2000
  185.0950  177.6130  137.4170 C   0  0  0  0  0  2  0  0  0  0  0  0
  181.9520  178.9700  136.8890 C   0  0  1  0  0  3  0  0  0  0  0  0
  180.8350  179.6980  140.2050 C   0  0  0  0  0  3  0  0  0  0  0  0
  183.1710  178.1150  138.9790 C   0  0  0  0  0  0  0  0  0  0  0  0
  181.2340  178.9730  141.2520 C   0  0  0  0  0  0  0  0  0  0  0  0
  182.3250  178.9900  138.3680 C   0  0  0  0  0  0  0  0  0  0  0  0
  183.4700  178.1670  140.4290 C   0  0  0  0  0  3  0  0  0  0  0  0
  182.0250  176.7130  136.6070 C   0  0  0  0  0  2  0  0  0  0  0  0
  183.0970  176.0450  137.4550 C   0  0  1  0  0  3  0  0  0  0  0  0
  183.9470  177.0470  138.2450 C   0  0  1  0  0  3  0  0  0  0  0  0
  182.6360  178.5260  141.4130 C   0  0  0  0  0  3  0  0  0  0  0  0
  181.7660  180.1500  139.1320 C   0  0  0  0  0  2  0  0  0  0  0  0
  182.4520  175.0450  138.3960 C   0  0  0  0  0  1  0  0  0  0  0  0
  182.5080  177.9320  136.1100 O   0  0  0  0  0  0  0  0  0  0  0  0
  180.2660  178.6750  142.3240 C   0  0  0  0  0  0  0  0  0  0  0  0
  179.6270  177.4420  142.3730 O   0  0  0  0  0  0  0  0  0  0  0  0
  180.0060  179.5360  143.2060 O   0  0  0  0  0  1  0  0  0  0  0  0
  180.5630  179.0420  136.7130 O   0  0  0  0  0  0  0  0  0  0  0  0
  180.3800  179.9110  135.6370 C   0  0  0  0  0  2  0  0  0  0  0  0
  179.6790  182.2450  135.8200 C   0  0  0  0  0  3  0  0  0  0  0  0
  180.5900  181.3150  136.0920 C   0  0  0  0  0  3  0  0  0  0  0  0
  180.7870  184.3700  135.3000 C   0  0  0  0  0  1  0  0  0  0  0  0
  179.8840  183.6460  136.2780 C   0  0  0  0  0  2  0  0  0  0  0  0
  187.2480  174.7660  136.9530 C   0  0  0  0  0  0  0  0  0  0  0  0
  188.7390  173.6480  135.5280 C   0  0  0  0  0  3  0  0  0  0  0  0
  189.3670  175.8110  136.4300 N   0  0  0  0  0  0  0  0  0  0  0  0
  187.5010  176.9370  137.5860 C   0  0  0  0  0  0  0  0  0  0  0  0
  186.0740  175.3010  136.8960 N   0  0  0  0  0  0  0  0  0  0  0  0
  186.2280  176.6400  137.3550 C   0  0  0  0  0  0  0  0  0  0  0  0
  188.3100  175.6960  137.4410 C   0  0  1  0  0  3  0  0  0  0  0  0
  189.6140  174.8470  135.5850 C   0  0  0  0  0  3  0  0  0  0  0  0
  187.6030  173.6320  136.1640 N   0  0  0  0  0  0  0  0  0  0  0  0
  188.0160  178.2570  138.0630 C   0  0  0  0  0  2  0  0  0  0  0  0
  187.1870  178.3600  140.4040 C   0  0  0  0  0  3  0  0  0  0  0  0
  189.3320  178.0190  140.1120 N   0  0  0  0  0  0  0  0  0  0  0  0
  189.0760  178.0150  141.4320 C   0  0  0  0  0  0  0  0  0  0  0  0
  187.7300  178.2280  141.6730 C   0  0  0  0  0  3  0  0  0  0  0  0
  188.1800  178.2360  139.5070 N   0  0  0  0  0  0  0  0  0  0  0  0
  190.1100  177.8100  142.4870 C   0  0  0  0  0  3  0  0  0  0  0  0
  190.5360  176.3420  142.5330 C   0  0  0  0  0  2  0  0  0  0  0  0
  191.5030  176.1240  143.6940 C   0  0  0  0  0  2  0  0  0  0  0  0
  191.8480  176.2760  146.0000 C   0  0  0  0  0  1  0  0  0  0  0  0
  190.8670  176.5030  144.9550 N   0  0  0  0  0  0  0  0  0  0  0  0
  189.5770  178.2620  143.8470 C   0  0  0  0  0  2  0  0  0  0  0  0
  190.6050  177.9410  144.9290 C   0  0  0  0  0  2  0  0  0  0  0  0
  2 18  1  1  0  0  0
  2  6  1  0  0  0  0
  3  5  2  0  0  0  0
  4  7  1  0  0  0  0
  5 11  1  0  0  0  0
  5 15  1  0  0  0  0
  6  4  2  0  0  0  0
  6 12  1  0  0  0  0
  7 11  2  0  0  0  0
  8  9  1  0  0  0  0
  9 10  1  0  0  0  0
  9 13  1  1  0  0  0
 10  1  1  6  0  0  0
 10  4  1  0  0  0  0
 12  3  1  0  0  0  0
 14  8  1  0  0  0  0
 14  2  1  0  0  0  0
 15 16  2  0  0  0  0
 15 17  1  0  0  0  0
 19 21  1  0  0  0  0
 19 18  1  0  0  0  0
 20 21  2  0  0  0  0
 20 23  1  0  0  0  0
 22 23  1  0  0  0  0
 24 30  1  0  0  0  0
 25 31  1  0  0  0  0
 25 32  2  0  0  0  0
 27 33  1  0  0  0  0
 28 24  2  0  0  0  0
 28 29  1  0  0  0  0
 29  1  1  0  0  0  0
 29 27  2  0  0  0  0
 30 26  1  6  0  0  0
 30 27  1  0  0  0  0
 31 26  2  0  0  0  0
 32 24  1  0  0  0  0
 33 38  1  0  0  0  0
 34 37  2  0  0  0  0
 35 36  2  0  0  0  0
 36 37  1  0  0  0  0
 36 39  1  0  0  0  0
 38 35  1  0  0  0  0
 38 34  1  0  0  0  0
 39 40  1  0  0  0  0
 39 44  1  0  0  0  0
 40 41  1  0  0  0  0
 41 43  1  0  0  0  0
 43 42  1  0  0  0  0
 44 45  1  0  0  0  0
 45 43  1  0  0  0  0
M  END
>  <MODEL>
3

>  <REMARK>
 VINA RESULT:      -7.1      1.625      2.138
  Name = 
  10 active torsions:
  status: ('A' for Active; 'I' for Inactive)
    1  A    between atoms: C_3  and  O_25
    2  A    between atoms: C_4  and  C_34
    3  A    between atoms: C_7  and  O_25
    4  A    between atoms: C_7  and  C_40
    5  A    between atoms: C_8  and  C_16
    6  A    between atoms: C_11  and  C_18
    7  A    between atoms: C_12  and  C_30
    8  A    between atoms: C_12  and  C_32
    9  A    between atoms: C_21  and  C_22
   10  A    between atoms: C_22  and  N_39
                            x       y       z     vdW  Elec       q    Type
                         _______ _______ _______ _____ _____    ______ ____

>  <TORSDO>
F 10

$$$$
=
 OpenBabel10222416443D

 45 50  0  0  1  0  0  0  0  0999 V2000
  188.1240  176.6450  138.3700 C   0  0  0  0  0  2  0  0  0  0  0  0
  184.9360  177.9960  138.2670 C   0  0  1  0  0  3  0  0  0  0  0  0
  182.9630  175.2810  137.0390 C   0  0  0  0  0  3  0  0  0  0  0  0
  185.9740  175.8590  137.2960 C   0  0  0  0  0  0  0  0  0  0  0  0
  183.4740  174.3590  136.2200 C   0  0  0  0  0  0  0  0  0  0  0  0
  184.9300  176.5250  137.8630 C   0  0  0  0  0  0  0  0  0  0  0  0
  185.8960  174.4340  136.8960 C   0  0  0  0  0  3  0  0  0  0  0  0
  186.2930  178.7430  136.5990 C   0  0  0  0  0  2  0  0  0  0  0  0
  187.3580  177.7310  136.2060 C   0  0  1  0  0  3  0  0  0  0  0  0
  187.3380  176.4690  137.0750 C   0  0  1  0  0  3  0  0  0  0  0  0
  184.8240  173.7860  136.4230 C   0  0  0  0  0  3  0  0  0  0  0  0
  183.6850  175.7840  138.2420 C   0  0  0  0  0  2  0  0  0  0  0  0
  187.1960  177.3650  134.7420 C   0  0  0  0  0  1  0  0  0  0  0  0
  186.1140  178.7230  137.9900 O   0  0  0  0  0  0  0  0  0  0  0  0
  182.6380  173.8350  135.1250 C   0  0  0  0  0  0  0  0  0  0  0  0
  182.8810  172.5740  134.5940 O   0  0  0  0  0  0  0  0  0  0  0  0
  181.6950  174.5260  134.6550 O   0  0  0  0  0  1  0  0  0  0  0  0
  183.8060  178.6630  137.7750 O   0  0  0  0  0  0  0  0  0  0  0  0
  183.5230  179.6430  138.7280 C   0  0  0  0  0  2  0  0  0  0  0  0
  181.5230  178.7660  139.8230 C   0  0  0  0  0  3  0  0  0  0  0  0
  182.8270  179.0190  139.8880 C   0  0  0  0  0  3  0  0  0  0  0  0
  181.2870  178.7960  142.2640 C   0  0  0  0  0  1  0  0  0  0  0  0
  180.8270  178.1380  140.9800 C   0  0  0  0  0  2  0  0  0  0  0  0
  191.1400  174.9460  137.3840 C   0  0  0  0  0  0  0  0  0  0  0  0
  193.0620  174.9860  136.0390 C   0  0  0  0  0  3  0  0  0  0  0  0
  192.8320  176.6210  137.8180 N   0  0  0  0  0  0  0  0  0  0  0  0
  190.5850  176.6070  138.8360 C   0  0  0  0  0  0  0  0  0  0  0  0
  189.8680  175.1300  137.2580 N   0  0  0  0  0  0  0  0  0  0  0  0
  189.5170  176.1250  138.2140 C   0  0  0  0  0  0  0  0  0  0  0  0
  191.7720  175.8080  138.4260 C   0  0  1  0  0  3  0  0  0  0  0  0
  193.4760  176.2210  136.7550 C   0  0  0  0  0  3  0  0  0  0  0  0
  191.9360  174.4030  136.3310 N   0  0  0  0  0  0  0  0  0  0  0  0
  190.5760  177.6700  139.8870 C   0  0  0  0  0  2  0  0  0  0  0  0
  190.8760  176.2310  141.8910 C   0  0  0  0  0  3  0  0  0  0  0  0
  189.0570  177.4510  141.7930 N   0  0  0  0  0  0  0  0  0  0  0  0
  189.0520  176.7700  142.9520 C   0  0  0  0  0  0  0  0  0  0  0  0
  190.1820  175.9800  143.0650 C   0  0  0  0  0  3  0  0  0  0  0  0
  190.1640  177.1070  141.1620 N   0  0  0  0  0  0  0  0  0  0  0  0
  187.9680  176.8600  143.9730 C   0  0  0  0  0  3  0  0  0  0  0  0
  186.8130  177.7120  143.4470 C   0  0  0  0  0  2  0  0  0  0  0  0
  185.7670  177.8940  144.5440 C   0  0  0  0  0  2  0  0  0  0  0  0
  185.3210  178.6610  146.7060 C   0  0  0  0  0  1  0  0  0  0  0  0
  186.3720  178.5330  145.7120 N   0  0  0  0  0  0  0  0  0  0  0  0
  188.5160  177.4370  145.2790 C   0  0  0  0  0  2  0  0  0  0  0  0
  187.3720  177.6250  146.2720 C   0  0  0  0  0  2  0  0  0  0  0  0
  2 18  1  6  0  0  0
  3 12  1  0  0  0  0
  4  6  2  0  0  0  0
  5 11  1  0  0  0  0
  5  3  2  0  0  0  0
  6 12  1  0  0  0  0
  6  2  1  0  0  0  0
  7  4  1  0  0  0  0
  8 14  1  0  0  0  0
  9 13  1  6  0  0  0
  9  8  1  0  0  0  0
  9 10  1  0  0  0  0
 10  4  1  0  0  0  0
 10  1  1  1  0  0  0
 11  7  2  0  0  0  0
 14  2  1  0  0  0  0
 15  5  1  0  0  0  0
 16 15  2  0  0  0  0
 17 15  1  0  0  0  0
 18 19  1  0  0  0  0
 19 21  1  0  0  0  0
 20 21  2  0  0  0  0
 20 23  1  0  0  0  0
 23 22  1  0  0  0  0
 25 32  2  0  0  0  0
 25 31  1  0  0  0  0
 26 30  1  0  0  0  0
 27 33  1  0  0  0  0
 28 24  2  0  0  0  0
 28 29  1  0  0  0  0
 29  1  1  0  0  0  0
 29 27  2  0  0  0  0
 30 24  1  6  0  0  0
 30 27  1  0  0  0  0
 31 26  2  0  0  0  0
 32 24  1  0  0  0  0
 33 38  1  0  0  0  0
 34 37  2  0  0  0  0
 35 36  2  0  0  0  0
 36 37  1  0  0  0  0
 36 39  1  0  0  0  0
 38 35  1  0  0  0  0
 38 34  1  0  0  0  0
 39 44  1  0  0  0  0
 40 39  1  0  0  0  0
 40 41  1  0  0  0  0
 41 43  1  0  0  0  0
 43 45  1  0  0  0  0
 43 42  1  0  0  0  0
 44 45  1  0  0  0  0
M  END
>  <MODEL>
4

>  <REMARK>
 VINA RESULT:      -7.0      2.643      4.702
  Name = 
  10 active torsions:
  status: ('A' for Active; 'I' for Inactive)
    1  A    between atoms: C_3  and  O_25
    2  A    between atoms: C_4  and  C_34
    3  A    between atoms: C_7  and  O_25
    4  A    between atoms: C_7  and  C_40
    5  A    between atoms: C_8  and  C_16
    6  A    between atoms: C_11  and  C_18
    7  A    between atoms: C_12  and  C_30
    8  A    between atoms: C_12  and  C_32
    9  A    between atoms: C_21  and  C_22
   10  A    between atoms: C_22  and  N_39
                            x       y       z     vdW  Elec       q    Type
                         _______ _______ _______ _____ _____    ______ ____

>  <TORSDO>
F 10

$$$$
=
 OpenBabel10222416443D

 45 50  0  0  1  0  0  0  0  0999 V2000
  188.3650  176.7190  139.9160 C   0  0  0  0  0  2  0  0  0  0  0  0
  188.5770  175.0920  136.8660 C   0  0  1  0  0  3  0  0  0  0  0  0
  192.1020  174.9170  136.3020 C   0  0  0  0  0  3  0  0  0  0  0  0
  190.2720  176.3920  138.2880 C   0  0  0  0  0  0  0  0  0  0  0  0
  192.9340  175.8460  136.7800 C   0  0  0  0  0  0  0  0  0  0  0  0
  189.9610  175.3680  137.4450 C   0  0  0  0  0  0  0  0  0  0  0  0
  191.6450  176.6260  138.7950 C   0  0  0  0  0  3  0  0  0  0  0  0
  187.9040  177.2600  136.6940 C   0  0  0  0  0  2  0  0  0  0  0  0
  188.4460  178.1380  137.8120 C   0  0  1  0  0  3  0  0  0  0  0  0
  189.2540  177.3540  138.8520 C   0  0  1  0  0  3  0  0  0  0  0  0
  192.7940  176.4020  138.1450 C   0  0  0  0  0  3  0  0  0  0  0  0
  190.9910  174.3360  137.1080 C   0  0  0  0  0  2  0  0  0  0  0  0
  189.2890  179.2510  137.2200 C   0  0  0  0  0  1  0  0  0  0  0  0
  187.5540  176.0030  137.2090 O   0  0  0  0  0  0  0  0  0  0  0  0
  194.0760  176.2740  135.9530 C   0  0  0  0  0  0  0  0  0  0  0  0
  194.4700  175.5230  134.8520 O   0  0  0  0  0  0  0  0  0  0  0  0
  194.7100  177.3260  136.2360 O   0  0  0  0  0  1  0  0  0  0  0  0
  188.6360  174.9020  135.4780 O   0  0  0  0  0  0  0  0  0  0  0  0
  188.1990  173.5930  135.2750 C   0  0  0  0  0  2  0  0  0  0  0  0
  186.3390  172.2650  136.1370 C   0  0  0  0  0  3  0  0  0  0  0  0
  186.7980  173.4560  135.7640 C   0  0  0  0  0  3  0  0  0  0  0  0
  184.6500  173.2220  137.6360 C   0  0  0  0  0  1  0  0  0  0  0  0
  184.9410  172.1270  136.6310 C   0  0  0  0  0  2  0  0  0  0  0  0
  190.0690  176.6790  143.0870 C   0  0  0  0  0  0  0  0  0  0  0  0
  191.9600  177.3460  144.3040 C   0  0  0  0  0  3  0  0  0  0  0  0
  190.4110  179.0360  143.5100 N   0  0  0  0  0  0  0  0  0  0  0  0
  188.7240  178.1250  141.9590 C   0  0  0  0  0  0  0  0  0  0  0  0
  189.7950  176.1160  141.9570 N   0  0  0  0  0  0  0  0  0  0  0  0
  188.9030  176.9960  141.2830 C   0  0  0  0  0  0  0  0  0  0  0  0
  189.3990  177.9990  143.2790 C   0  0  1  0  0  3  0  0  0  0  0  0
  191.5700  178.7550  144.0410 C   0  0  0  0  0  3  0  0  0  0  0  0
  191.2500  176.3660  143.8240 N   0  0  0  0  0  0  0  0  0  0  0  0
  187.8610  179.2690  141.5310 C   0  0  0  0  0  2  0  0  0  0  0  0
  185.8250  178.4390  142.6900 C   0  0  0  0  0  3  0  0  0  0  0  0
  185.6210  179.0060  140.5830 N   0  0  0  0  0  0  0  0  0  0  0  0
  184.4180  178.6130  141.0370 C   0  0  0  0  0  0  0  0  0  0  0  0
  184.4910  178.2410  142.3680 C   0  0  0  0  0  3  0  0  0  0  0  0
  186.4600  178.8870  141.5940 N   0  0  0  0  0  0  0  0  0  0  0  0
  183.1770  178.5830  140.2090 C   0  0  0  0  0  3  0  0  0  0  0  0
  182.9740  177.1920  139.6080 C   0  0  0  0  0  2  0  0  0  0  0  0
  181.7700  177.2080  138.6700 C   0  0  0  0  0  2  0  0  0  0  0  0
  180.7910  178.1510  136.7690 C   0  0  0  0  0  1  0  0  0  0  0  0
  181.9760  178.1910  137.6070 N   0  0  0  0  0  0  0  0  0  0  0  0
  183.2460  179.6440  139.1100 C   0  0  0  0  0  2  0  0  0  0  0  0
  182.0210  179.5230  138.2080 C   0  0  0  0  0  2  0  0  0  0  0  0
  1 29  1  0  0  0  0
  2 18  1  6  0  0  0
  2 14  1  0  0  0  0
  2  6  1  0  0  0  0
  3  5  2  0  0  0  0
  3 12  1  0  0  0  0
  4  7  1  0  0  0  0
  4 10  1  0  0  0  0
  5 11  1  0  0  0  0
  6  4  2  0  0  0  0
  8 14  1  0  0  0  0
  8  9  1  0  0  0  0
  9 13  1  6  0  0  0
  9 10  1  0  0  0  0
 10  1  1  6  0  0  0
 11  7  2  0  0  0  0
 12  6  1  0  0  0  0
 15 17  1  0  0  0  0
 15  5  1  0  0  0  0
 16 15  2  0  0  0  0
 19 18  1  0  0  0  0
 19 21  1  0  0  0  0
 20 23  1  0  0  0  0
 21 20  2  0  0  0  0
 23 22  1  0  0  0  0
 24 30  1  0  0  0  0
 24 32  1  0  0  0  0
 26 31  2  0  0  0  0
 28 24  2  0  0  0  0
 29 28  1  0  0  0  0
 29 27  2  0  0  0  0
 30 27  1  6  0  0  0
 30 26  1  0  0  0  0
 31 25  1  0  0  0  0
 32 25  2  0  0  0  0
 33 38  1  0  0  0  0
 33 27  1  0  0  0  0
 35 36  2  0  0  0  0
 35 38  1  0  0  0  0
 36 37  1  0  0  0  0
 37 34  2  0  0  0  0
 38 34  1  0  0  0  0
 39 36  1  0  0  0  0
 40 39  1  0  0  0  0
 41 40  1  0  0  0  0
 42 43  1  0  0  0  0
 43 45  1  0  0  0  0
 43 41  1  0  0  0  0
 44 39  1  0  0  0  0
 45 44  1  0  0  0  0
M  END
>  <MODEL>
5

>  <REMARK>
 VINA RESULT:      -6.9      3.754      8.883
  Name = 
  10 active torsions:
  status: ('A' for Active; 'I' for Inactive)
    1  A    between atoms: C_3  and  O_25
    2  A    between atoms: C_4  and  C_34
    3  A    between atoms: C_7  and  O_25
    4  A    between atoms: C_7  and  C_40
    5  A    between atoms: C_8  and  C_16
    6  A    between atoms: C_11  and  C_18
    7  A    between atoms: C_12  and  C_30
    8  A    between atoms: C_12  and  C_32
    9  A    between atoms: C_21  and  C_22
   10  A    between atoms: C_22  and  N_39
                            x       y       z     vdW  Elec       q    Type
                         _______ _______ _______ _____ _____    ______ ____

>  <TORSDO>
F 10

$$$$
=
 OpenBabel10222416443D

 45 50  0  0  1  0  0  0  0  0999 V2000
  185.1490  177.0260  137.6070 C   0  0  0  0  0  2  0  0  0  0  0  0
  181.9410  177.7190  138.7150 C   0  0  1  0  0  3  0  0  0  0  0  0
  180.3070  174.5510  138.4430 C   0  0  0  0  0  3  0  0  0  0  0  0
  182.9860  175.7230  137.4850 C   0  0  0  0  0  0  0  0  0  0  0  0
  180.6650  173.6560  137.5200 C   0  0  0  0  0  0  0  0  0  0  0  0
  182.1100  176.2370  138.3930 C   0  0  0  0  0  0  0  0  0  0  0  0
  183.0820  174.2730  137.1940 C   0  0  0  0  0  3  0  0  0  0  0  0
  182.3710  178.5140  136.6270 C   0  0  0  0  0  2  0  0  0  0  0  0
  183.4080  177.6870  135.8810 C   0  0  1  0  0  3  0  0  0  0  0  0
  183.9950  176.5540  136.7300 C   0  0  1  0  0  3  0  0  0  0  0  0
  182.0840  173.3810  137.1980 C   0  0  0  0  0  3  0  0  0  0  0  0
  181.2960  175.3190  139.2520 C   0  0  0  0  0  2  0  0  0  0  0  0
  182.7950  177.1300  134.6100 C   0  0  0  0  0  1  0  0  0  0  0  0
  182.7360  178.6210  137.9770 O   0  0  0  0  0  0  0  0  0  0  0  0
  179.6190  172.8580  136.8560 C   0  0  0  0  0  0  0  0  0  0  0  0
  179.1240  171.7060  137.4550 O   0  0  0  0  0  1  0  0  0  0  0  0
  179.1620  173.2110  135.7360 O   0  0  0  0  0  0  0  0  0  0  0  0
  180.5910  178.0950  138.6820 O   0  0  0  0  0  0  0  0  0  0  0  0
  180.4800  179.1230  139.6200 C   0  0  0  0  0  2  0  0  0  0  0  0
  180.7680  179.3590  142.0340 C   0  0  0  0  0  3  0  0  0  0  0  0
  181.0120  178.6570  140.9310 C   0  0  0  0  0  3  0  0  0  0  0  0
  180.1360  178.5290  144.2540 C   0  0  0  0  0  1  0  0  0  0  0  0
  181.2930  178.8920  143.3470 C   0  0  0  0  0  2  0  0  0  0  0  0
  187.6350  174.6720  136.4980 C   0  0  0  0  0  0  0  0  0  0  0  0
  189.0740  174.0110  134.7670 C   0  0  0  0  0  3  0  0  0  0  0  0
  189.4760  176.1220  135.8950 N   0  0  0  0  0  0  0  0  0  0  0  0
  187.6310  176.7580  137.4050 C   0  0  0  0  0  0  0  0  0  0  0  0
  186.3950  175.0000  136.6520 N   0  0  0  0  0  0  0  0  0  0  0  0
  186.4000  176.2780  137.2780 C   0  0  0  0  0  0  0  0  0  0  0  0
  188.5960  175.7020  136.9920 C   0  0  1  0  0  3  0  0  0  0  0  0
  189.7530  175.3270  134.8980 C   0  0  0  0  0  3  0  0  0  0  0  0
  188.0520  173.7220  135.5190 N   0  0  0  0  0  0  0  0  0  0  0  0
  187.9950  178.0780  138.0060 C   0  0  0  0  0  2  0  0  0  0  0  0
  189.8870  177.4420  139.4880 C   0  0  0  0  0  3  0  0  0  0  0  0
  188.0600  178.1770  140.4500 N   0  0  0  0  0  0  0  0  0  0  0  0
  188.9680  177.9130  141.4050 C   0  0  0  0  0  0  0  0  0  0  0  0
  190.1450  177.4430  140.8490 C   0  0  0  0  0  3  0  0  0  0  0  0
  188.6300  177.8790  139.2980 N   0  0  0  0  0  0  0  0  0  0  0  0
  188.7310  178.1040  142.8660 C   0  0  0  0  0  3  0  0  0  0  0  0
  190.0610  178.1690  143.6150 C   0  0  0  0  0  2  0  0  0  0  0  0
  189.8020  178.2430  145.1180 C   0  0  0  0  0  2  0  0  0  0  0  0
  188.8240  177.2270  146.9810 C   0  0  0  0  0  1  0  0  0  0  0  0
  189.0350  177.0760  145.5530 N   0  0  0  0  0  0  0  0  0  0  0  0
  187.8550  176.9760  143.4120 C   0  0  0  0  0  2  0  0  0  0  0  0
  187.7160  177.1270  144.9250 C   0  0  0  0  0  2  0  0  0  0  0  0
  2 18  1  6  0  0  0
  3 12  1  0  0  0  0
  4  6  2  0  0  0  0
  5  3  2  0  0  0  0
  6  2  1  0  0  0  0
  6 12  1  0  0  0  0
  7 11  2  0  0  0  0
  7  4  1  0  0  0  0
  8 14  1  0  0  0  0
  9 13  1  6  0  0  0
  9  8  1  0  0  0  0
  9 10  1  0  0  0  0
 10  4  1  0  0  0  0
 10  1  1  1  0  0  0
 11  5  1  0  0  0  0
 14  2  1  0  0  0  0
 15 16  1  0  0  0  0
 15  5  1  0  0  0  0
 17 15  2  0  0  0  0
 18 19  1  0  0  0  0
 19 21  1  0  0  0  0
 20 23  1  0  0  0  0
 21 20  2  0  0  0  0
 23 22  1  0  0  0  0
 24 28  2  0  0  0  0
 24 30  1  0  0  0  0
 25 31  1  0  0  0  0
 25 32  2  0  0  0  0
 27 33  1  0  0  0  0
 28 29  1  0  0  0  0
 29 27  2  0  0  0  0
 29  1  1  0  0  0  0
 30 26  1  6  0  0  0
 30 27  1  0  0  0  0
 31 26  2  0  0  0  0
 32 24  1  0  0  0  0
 33 38  1  0  0  0  0
 34 37  2  0  0  0  0
 35 36  2  0  0  0  0
 36 39  1  0  0  0  0
 37 36  1  0  0  0  0
 38 34  1  0  0  0  0
 38 35  1  0  0  0  0
 39 44  1  0  0  0  0
 39 40  1  0  0  0  0
 40 41  1  0  0  0  0
 41 43  1  0  0  0  0
 43 42  1  0  0  0  0
 44 45  1  0  0  0  0
 45 43  1  0  0  0  0
M  END
>  <MODEL>
6

>  <REMARK>
 VINA RESULT:      -6.4      2.200      4.219
  Name = 
  10 active torsions:
  status: ('A' for Active; 'I' for Inactive)
    1  A    between atoms: C_3  and  O_25
    2  A    between atoms: C_4  and  C_34
    3  A    between atoms: C_7  and  O_25
    4  A    between atoms: C_7  and  C_40
    5  A    between atoms: C_8  and  C_16
    6  A    between atoms: C_11  and  C_18
    7  A    between atoms: C_12  and  C_30
    8  A    between atoms: C_12  and  C_32
    9  A    between atoms: C_21  and  C_22
   10  A    between atoms: C_22  and  N_39
                            x       y       z     vdW  Elec       q    Type
                         _______ _______ _______ _____ _____    ______ ____

>  <TORSDO>
F 10

$$$$
=
 OpenBabel10222416443D

 45 50  0  0  1  0  0  0  0  0999 V2000
  188.6800  178.9600  142.2450 C   0  0  0  0  0  2  0  0  0  0  0  0
  187.2360  177.9700  145.2340 C   0  0  1  0  0  3  0  0  0  0  0  0
  190.0700  177.4410  147.3470 C   0  0  0  0  0  3  0  0  0  0  0  0
  189.6410  177.9150  144.3370 C   0  0  0  0  0  0  0  0  0  0  0  0
  191.2490  177.0540  146.8530 C   0  0  0  0  0  0  0  0  0  0  0  0
  188.7530  178.0770  145.3570 C   0  0  0  0  0  0  0  0  0  0  0  0
  191.1080  178.0010  144.5270 C   0  0  0  0  0  3  0  0  0  0  0  0
  187.1960  176.3570  143.6280 C   0  0  0  0  0  2  0  0  0  0  0  0
  188.3500  176.4740  142.6430 C   0  0  1  0  0  3  0  0  0  0  0  0
  189.2350  177.7000  142.8980 C   0  0  1  0  0  3  0  0  0  0  0  0
  191.8060  177.6220  145.6050 C   0  0  0  0  0  3  0  0  0  0  0  0
  189.2360  178.5000  146.7100 C   0  0  0  0  0  2  0  0  0  0  0  0
  189.1820  175.2060  142.6830 C   0  0  0  0  0  1  0  0  0  0  0  0
  186.7280  177.6370  143.9600 O   0  0  0  0  0  0  0  0  0  0  0  0
  192.0580  176.0870  147.6160 C   0  0  0  0  0  0  0  0  0  0  0  0
  192.7680  176.4930  148.7400 O   0  0  0  0  0  1  0  0  0  0  0  0
  192.1190  174.8810  147.2560 O   0  0  0  0  0  0  0  0  0  0  0  0
  186.7040  177.1310  146.2220 O   0  0  0  0  0  0  0  0  0  0  0  0
  185.7100  177.8890  146.8420 C   0  0  0  0  0  2  0  0  0  0  0  0
  183.9750  178.6570  145.3020 C   0  0  0  0  0  3  0  0  0  0  0  0
  185.1590  178.8740  145.8680 C   0  0  0  0  0  3  0  0  0  0  0  0
  182.2700  179.0110  143.5750 C   0  0  0  0  0  1  0  0  0  0  0  0
  183.4200  179.6420  144.3330 C   0  0  0  0  0  2  0  0  0  0  0  0
  188.6180  178.1710  138.7340 C   0  0  0  0  0  0  0  0  0  0  0  0
  188.3340  176.5080  137.1040 C   0  0  0  0  0  3  0  0  0  0  0  0
  186.4410  177.1450  138.4810 N   0  0  0  0  0  0  0  0  0  0  0  0
  187.0800  178.6280  140.3460 C   0  0  0  0  0  0  0  0  0  0  0  0
  189.2790  178.3490  139.8280 N   0  0  0  0  0  0  0  0  0  0  0  0
  188.3180  178.6970  140.8190 C   0  0  0  0  0  0  0  0  0  0  0  0
  187.1450  178.3680  138.8820 C   0  0  1  0  0  3  0  0  0  0  0  0
  186.9530  176.3140  137.6140 C   0  0  0  0  0  3  0  0  0  0  0  0
  189.1250  177.3780  137.6610 N   0  0  0  0  0  0  0  0  0  0  0  0
  185.8340  178.9170  141.1210 C   0  0  0  0  0  2  0  0  0  0  0  0
  184.3920  179.7490  139.2750 C   0  0  0  0  0  3  0  0  0  0  0  0
  183.7950  177.8790  140.2510 N   0  0  0  0  0  0  0  0  0  0  0  0
  182.9160  178.1480  139.2710 C   0  0  0  0  0  0  0  0  0  0  0  0
  183.2470  179.3240  138.6200 C   0  0  0  0  0  3  0  0  0  0  0  0
  184.6770  178.8620  140.2430 N   0  0  0  0  0  0  0  0  0  0  0  0
  181.7420  177.2890  138.9370 C   0  0  0  0  0  3  0  0  0  0  0  0
  181.0950  176.7560  140.2150 C   0  0  0  0  0  2  0  0  0  0  0  0
  179.9730  175.7850  139.8570 C   0  0  0  0  0  2  0  0  0  0  0  0
  179.3790  173.8120  138.7560 C   0  0  0  0  0  1  0  0  0  0  0  0
  180.5030  174.6790  139.0610 N   0  0  0  0  0  0  0  0  0  0  0  0
  182.1690  176.1390  138.0250 C   0  0  0  0  0  2  0  0  0  0  0  0
  180.9820  175.2110  137.7860 C   0  0  0  0  0  2  0  0  0  0  0  0
  2  6  1  0  0  0  0
  2 18  1  1  0  0  0
  4  7  1  0  0  0  0
  4  6  2  0  0  0  0
  5  3  2  0  0  0  0
  5 15  1  0  0  0  0
  6 12  1  0  0  0  0
  7 11  2  0  0  0  0
  8 14  1  0  0  0  0
  9 13  1  1  0  0  0
  9 10  1  0  0  0  0
  9  8  1  0  0  0  0
 10  1  1  1  0  0  0
 10  4  1  0  0  0  0
 11  5  1  0  0  0  0
 12  3  1  0  0  0  0
 14  2  1  0  0  0  0
 15 16  1  0  0  0  0
 17 15  2  0  0  0  0
 18 19  1  0  0  0  0
 20 21  2  0  0  0  0
 21 19  1  0  0  0  0
 22 23  1  0  0  0  0
 23 20  1  0  0  0  0
 24 30  1  0  0  0  0
 24 28  2  0  0  0  0
 25 31  1  0  0  0  0
 25 32  2  0  0  0  0
 27 29  2  0  0  0  0
 27 33  1  0  0  0  0
 28 29  1  0  0  0  0
 29  1  1  0  0  0  0
 30 26  1  1  0  0  0
 30 27  1  0  0  0  0
 31 26  2  0  0  0  0
 32 24  1  0  0  0  0
 34 38  1  0  0  0  0
 36 35  2  0  0  0  0
 37 36  1  0  0  0  0
 37 34  2  0  0  0  0
 38 35  1  0  0  0  0
 38 33  1  0  0  0  0
 39 36  1  0  0  0  0
 39 40  1  0  0  0  0
 41 40  1  0  0  0  0
 42 43  1  0  0  0  0
 43 41  1  0  0  0  0
 44 39  1  0  0  0  0
 45 44  1  0  0  0  0
 45 43  1  0  0  0  0
M  END
>  <MODEL>
7

>  <REMARK>
 VINA RESULT:      -6.1      3.924      8.466
  Name = 
  10 active torsions:
  status: ('A' for Active; 'I' for Inactive)
    1  A    between atoms: C_3  and  O_25
    2  A    between atoms: C_4  and  C_34
    3  A    between atoms: C_7  and  O_25
    4  A    between atoms: C_7  and  C_40
    5  A    between atoms: C_8  and  C_16
    6  A    between atoms: C_11  and  C_18
    7  A    between atoms: C_12  and  C_30
    8  A    between atoms: C_12  and  C_32
    9  A    between atoms: C_21  and  C_22
   10  A    between atoms: C_22  and  N_39
                            x       y       z     vdW  Elec       q    Type
                         _______ _______ _______ _____ _____    ______ ____

>  <TORSDO>
F 10

$$$$
=
 OpenBabel10222416443D

 45 50  0  0  1  0  0  0  0  0999 V2000
  188.6110  176.9870  140.3370 C   0  0  0  0  0  2  0  0  0  0  0  0
  187.9910  175.2480  137.4060 C   0  0  1  0  0  3  0  0  0  0  0  0
  191.2770  174.6200  136.1470 C   0  0  0  0  0  3  0  0  0  0  0  0
  190.0840  176.3740  138.3760 C   0  0  0  0  0  0  0  0  0  0  0  0
  192.2910  175.4540  136.3910 C   0  0  0  0  0  0  0  0  0  0  0  0
  189.4880  175.3700  137.6750 C   0  0  0  0  0  0  0  0  0  0  0  0
  191.5500  176.4530  138.5770 C   0  0  0  0  0  3  0  0  0  0  0  0
  187.5490  177.4760  137.2510 C   0  0  0  0  0  2  0  0  0  0  0  0
  188.4100  178.3160  138.1820 C   0  0  1  0  0  3  0  0  0  0  0  0
  189.3230  177.4720  139.0800 C   0  0  1  0  0  3  0  0  0  0  0  0
  192.5040  176.0670  137.7210 C   0  0  0  0  0  3  0  0  0  0  0  0
  190.3000  174.2070  137.1940 C   0  0  0  0  0  2  0  0  0  0  0  0
  189.2330  179.2960  137.3680 C   0  0  0  0  0  1  0  0  0  0  0  0
  187.1740  176.2890  137.8980 O   0  0  0  0  0  0  0  0  0  0  0  0
  193.2760  175.7100  135.3240 C   0  0  0  0  0  0  0  0  0  0  0  0
  193.7640  176.9930  135.1100 O   0  0  0  0  0  1  0  0  0  0  0  0
  193.6840  174.7680  134.5940 O   0  0  0  0  0  0  0  0  0  0  0  0
  187.7360  175.0080  136.0490 O   0  0  0  0  0  0  0  0  0  0  0  0
  187.2780  173.6900  135.9970 C   0  0  0  0  0  2  0  0  0  0  0  0
  185.2150  172.6070  136.7280 C   0  0  0  0  0  3  0  0  0  0  0  0
  185.8010  173.6720  136.1890 C   0  0  0  0  0  3  0  0  0  0  0  0
  183.2440  171.1560  136.8970 C   0  0  0  0  0  1  0  0  0  0  0  0
  183.7390  172.5880  136.9260 C   0  0  0  0  0  2  0  0  0  0  0  0
  191.2230  177.7520  142.6920 C   0  0  0  0  0  0  0  0  0  0  0  0
  192.0010  179.2200  144.3480 C   0  0  0  0  0  3  0  0  0  0  0  0
  190.0000  177.9140  144.7740 N   0  0  0  0  0  0  0  0  0  0  0  0
  189.1870  176.7390  142.7620 C   0  0  0  0  0  0  0  0  0  0  0  0
  190.7450  177.8120  141.4940 N   0  0  0  0  0  0  0  0  0  0  0  0
  189.5010  177.1210  141.5300 C   0  0  0  0  0  0  0  0  0  0  0  0
  190.3430  177.0270  143.6560 C   0  0  1  0  0  3  0  0  0  0  0  0
  190.7890  178.8880  145.1400 C   0  0  0  0  0  3  0  0  0  0  0  0
  192.1840  178.6910  143.1730 N   0  0  0  0  0  0  0  0  0  0  0  0
  187.9470  176.0040  143.1580 C   0  0  0  0  0  2  0  0  0  0  0  0
  186.8570  177.5890  144.7320 C   0  0  0  0  0  3  0  0  0  0  0  0
  185.9330  177.3350  142.7600 N   0  0  0  0  0  0  0  0  0  0  0  0
  185.2220  178.2430  143.4510 C   0  0  0  0  0  0  0  0  0  0  0  0
  185.7640  178.4420  144.7080 C   0  0  0  0  0  3  0  0  0  0  0  0
  186.9130  176.9450  143.5530 N   0  0  0  0  0  0  0  0  0  0  0  0
  184.0120  178.9390  142.9240 C   0  0  0  0  0  3  0  0  0  0  0  0
  182.8560  178.8160  143.9160 C   0  0  0  0  0  2  0  0  0  0  0  0
  181.5930  179.4270  143.3130 C   0  0  0  0  0  2  0  0  0  0  0  0
  180.0590  179.3900  141.5510 C   0  0  0  0  0  1  0  0  0  0  0  0
  181.2570  178.7490  142.0620 N   0  0  0  0  0  0  0  0  0  0  0  0
  183.6210  178.3640  141.5620 C   0  0  0  0  0  2  0  0  0  0  0  0
  182.3200  179.0090  141.0920 C   0  0  0  0  0  2  0  0  0  0  0  0
  1 29  1  0  0  0  0
  2 18  1  6  0  0  0
  2  6  1  0  0  0  0
  2 14  1  0  0  0  0
  3  5  2  0  0  0  0
  3 12  1  0  0  0  0
  4  7  1  0  0  0  0
  4 10  1  0  0  0  0
  5 11  1  0  0  0  0
  6  4  2  0  0  0  0
  8 14  1  0  0  0  0
  8  9  1  0  0  0  0
  9 13  1  6  0  0  0
  9 10  1  0  0  0  0
 10  1  1  1  0  0  0
 11  7  2  0  0  0  0
 12  6  1  0  0  0  0
 15  5  1  0  0  0  0
 16 15  1  0  0  0  0
 17 15  2  0  0  0  0
 19 18  1  0  0  0  0
 19 21  1  0  0  0  0
 20 23  1  0  0  0  0
 21 20  2  0  0  0  0
 22 23  1  0  0  0  0
 24 32  1  0  0  0  0
 25 31  1  0  0  0  0
 26 31  2  0  0  0  0
 27 33  1  0  0  0  0
 27 30  1  0  0  0  0
 28 29  1  0  0  0  0
 28 24  2  0  0  0  0
 29 27  2  0  0  0  0
 30 24  1  6  0  0  0
 30 26  1  0  0  0  0
 32 25  2  0  0  0  0
 33 38  1  0  0  0  0
 35 36  2  0  0  0  0
 35 38  1  0  0  0  0
 36 37  1  0  0  0  0
 37 34  2  0  0  0  0
 38 34  1  0  0  0  0
 39 36  1  0  0  0  0
 39 40  1  0  0  0  0
 41 40  1  0  0  0  0
 42 43  1  0  0  0  0
 43 41  1  0  0  0  0
 44 39  1  0  0  0  0
 45 44  1  0  0  0  0
 45 43  1  0  0  0  0
M  END
>  <MODEL>
8

>  <REMARK>
 VINA RESULT:      -6.0      4.008      8.545
  Name = 
  10 active torsions:
  status: ('A' for Active; 'I' for Inactive)
    1  A    between atoms: C_3  and  O_25
    2  A    between atoms: C_4  and  C_34
    3  A    between atoms: C_7  and  O_25
    4  A    between atoms: C_7  and  C_40
    5  A    between atoms: C_8  and  C_16
    6  A    between atoms: C_11  and  C_18
    7  A    between atoms: C_12  and  C_30
    8  A    between atoms: C_12  and  C_32
    9  A    between atoms: C_21  and  C_22
   10  A    between atoms: C_22  and  N_39
                            x       y       z     vdW  Elec       q    Type
                         _______ _______ _______ _____ _____    ______ ____

>  <TORSDO>
F 10

$$$$
=
 OpenBabel10222416443D

 45 50  0  0  1  0  0  0  0  0999 V2000
  186.1480  176.6260  137.5960 C   0  0  0  0  0  2  0  0  0  0  0  0
  183.0440  177.7100  138.6870 C   0  0  1  0  0  3  0  0  0  0  0  0
  181.0660  174.7380  138.5320 C   0  0  0  0  0  3  0  0  0  0  0  0
  183.8520  175.5680  137.5250 C   0  0  0  0  0  0  0  0  0  0  0  0
  181.3160  173.7760  137.6400 C   0  0  0  0  0  0  0  0  0  0  0  0
  183.0450  176.2090  138.4170 C   0  0  0  0  0  0  0  0  0  0  0  0
  183.7840  174.1080  137.2860 C   0  0  0  0  0  3  0  0  0  0  0  0
  183.5470  178.3790  136.5700 C   0  0  0  0  0  2  0  0  0  0  0  0
  184.4800  177.4160  135.8510 C   0  0  1  0  0  3  0  0  0  0  0  0
  184.9430  176.2550  136.7390 C   0  0  1  0  0  3  0  0  0  0  0  0
  182.6930  173.3340  137.3240 C   0  0  0  0  0  3  0  0  0  0  0  0
  182.1400  175.4180  139.3100 C   0  0  0  0  0  2  0  0  0  0  0  0
  183.8000  176.8860  134.6030 C   0  0  0  0  0  1  0  0  0  0  0  0
  183.9300  178.4920  137.9140 O   0  0  0  0  0  0  0  0  0  0  0  0
  180.1820  173.0770  137.0080 C   0  0  0  0  0  0  0  0  0  0  0  0
  179.1840  173.7960  136.3610 O   0  0  0  0  0  0  0  0  0  0  0  0
  180.1050  171.8210  137.0480 O   0  0  0  0  0  1  0  0  0  0  0  0
  181.7450  178.2330  138.6440 O   0  0  0  0  0  0  0  0  0  0  0  0
  181.7300  179.2420  139.6080 C   0  0  0  0  0  2  0  0  0  0  0  0
  181.8750  181.3280  138.3440 C   0  0  0  0  0  3  0  0  0  0  0  0
  181.1210  180.4730  139.0290 C   0  0  0  0  0  3  0  0  0  0  0  0
  180.6390  182.2200  136.4220 C   0  0  0  0  0  1  0  0  0  0  0  0
  181.2670  182.5550  137.7600 C   0  0  0  0  0  2  0  0  0  0  0  0
  188.4280  174.0830  136.4610 C   0  0  0  0  0  0  0  0  0  0  0  0
  189.6930  173.2410  134.6730 C   0  0  0  0  0  3  0  0  0  0  0  0
  190.2780  175.3970  135.6200 N   0  0  0  0  0  0  0  0  0  0  0  0
  188.5910  176.2210  137.2210 C   0  0  0  0  0  0  0  0  0  0  0  0
  187.2210  174.4820  136.6870 N   0  0  0  0  0  0  0  0  0  0  0  0
  187.3340  175.7960  137.2230 C   0  0  0  0  0  0  0  0  0  0  0  0
  189.4710  175.0940  136.8080 C   0  0  1  0  0  3  0  0  0  0  0  0
  190.4380  174.5260  134.6610 C   0  0  0  0  0  3  0  0  0  0  0  0
  188.7220  173.0520  135.5190 N   0  0  0  0  0  0  0  0  0  0  0  0
  189.0610  177.5560  137.7010 C   0  0  0  0  0  2  0  0  0  0  0  0
  190.7380  177.0760  139.4720 C   0  0  0  0  0  3  0  0  0  0  0  0
  188.7770  177.8120  140.1180 N   0  0  0  0  0  0  0  0  0  0  0  0
  189.5470  177.6390  141.2060 C   0  0  0  0  0  0  0  0  0  0  0  0
  190.8010  177.1730  140.8540 C   0  0  0  0  0  3  0  0  0  0  0  0
  189.5110  177.4610  139.0800 N   0  0  0  0  0  0  0  0  0  0  0  0
  189.1010  177.9150  142.6030 C   0  0  0  0  0  3  0  0  0  0  0  0
  190.3100  178.0680  143.5260 C   0  0  0  0  0  2  0  0  0  0  0  0
  189.8380  178.2300  144.9690 C   0  0  0  0  0  2  0  0  0  0  0  0
  188.6290  177.3040  146.7400 C   0  0  0  0  0  1  0  0  0  0  0  0
  189.0430  177.0700  145.3690 N   0  0  0  0  0  0  0  0  0  0  0  0
  188.1810  176.7970  143.0960 C   0  0  0  0  0  2  0  0  0  0  0  0
  187.8260  177.0400  144.5610 C   0  0  0  0  0  2  0  0  0  0  0  0
  2 18  1  6  0  0  0
  3 12  1  0  0  0  0
  4  6  2  0  0  0  0
  5  3  2  0  0  0  0
  6  2  1  0  0  0  0
  6 12  1  0  0  0  0
  7 11  2  0  0  0  0
  7  4  1  0  0  0  0
  8 14  1  0  0  0  0
  9 13  1  6  0  0  0
  9  8  1  0  0  0  0
  9 10  1  0  0  0  0
 10  4  1  0  0  0  0
 10  1  1  1  0  0  0
 11  5  1  0  0  0  0
 14  2  1  0  0  0  0
 15 17  1  0  0  0  0
 15  5  1  0  0  0  0
 16 15  2  0  0  0  0
 18 19  1  0  0  0  0
 20 21  2  0  0  0  0
 21 19  1  0  0  0  0
 22 23  1  0  0  0  0
 23 20  1  0  0  0  0
 24 28  2  0  0  0  0
 24 30  1  0  0  0  0
 25 32  2  0  0  0  0
 27 29  2  0  0  0  0
 27 33  1  0  0  0  0
 28 29  1  0  0  0  0
 29  1  1  0  0  0  0
 30 26  1  6  0  0  0
 30 27  1  0  0  0  0
 31 25  1  0  0  0  0
 31 26  2  0  0  0  0
 32 24  1  0  0  0  0
 33 38  1  0  0  0  0
 34 37  2  0  0  0  0
 35 36  2  0  0  0  0
 36 39  1  0  0  0  0
 37 36  1  0  0  0  0
 38 34  1  0  0  0  0
 38 35  1  0  0  0  0
 39 44  1  0  0  0  0
 39 40  1  0  0  0  0
 40 41  1  0  0  0  0
 41 43  1  0  0  0  0
 43 42  1  0  0  0  0
 44 45  1  0  0  0  0
 45 43  1  0  0  0  0
M  END
>  <MODEL>
9

>  <REMARK>
 VINA RESULT:      -5.9      2.135      3.693
  Name = 
  10 active torsions:
  status: ('A' for Active; 'I' for Inactive)
    1  A    between atoms: C_3  and  O_25
    2  A    between atoms: C_4  and  C_34
    3  A    between atoms: C_7  and  O_25
    4  A    between atoms: C_7  and  C_40
    5  A    between atoms: C_8  and  C_16
    6  A    between atoms: C_11  and  C_18
    7  A    between atoms: C_12  and  C_30
    8  A    between atoms: C_12  and  C_32
    9  A    between atoms: C_21  and  C_22
   10  A    between atoms: C_22  and  N_39
                            x       y       z     vdW  Elec       q    Type
                         _______ _______ _______ _____ _____    ______ ____

>  <TORSDO>
F 10

$$$$
