=
 OpenBabel10222415173D

 43 47  0  0  1  0  0  0  0  0999 V2000
  183.3030  178.6830  142.3680 C   0  0  0  0  0  2  0  0  0  0  0  0
  186.3540  178.4320  142.5260 C   0  0  0  0  0  2  0  0  0  0  0  0
  185.6690  179.0390  141.2920 C   0  0  2  0  0  3  0  0  0  0  0  0
  185.8130  178.4970  145.0150 N   0  0  0  0  0  0  0  0  0  0  0  0
  184.5390  178.4940  146.9290 O   0  0  0  0  0  0  0  0  0  0  0  0
  184.2300  178.5640  141.1790 C   0  0  0  0  0  0  0  0  0  0  0  0
  184.0850  178.6090  143.6440 C   0  0  0  0  0  0  0  0  0  0  0  0
  183.6020  178.5960  144.8640 O   0  0  0  0  0  0  0  0  0  0  0  0
  183.8010  178.1320  140.1240 O   0  0  0  0  0  0  0  0  0  0  0  0
  185.4590  178.5550  143.7180 C   0  0  0  0  0  0  0  0  0  0  0  0
  184.6380  178.5330  145.6740 C   0  0  0  0  0  0  0  0  0  0  0  0
  189.4550  177.9720  144.7340 C   0  0  0  0  0  2  0  0  0  0  0  0
  188.0200  177.4870  144.7310 C   0  0  0  0  0  2  0  0  0  0  0  0
  190.3860  176.9120  145.3250 C   0  0  2  0  0  3  0  0  0  0  0  0
  190.5060  176.9600  146.8570 C   0  0  2  0  0  3  0  0  0  0  0  0
  191.4240  176.0020  147.2840 O   0  0  0  0  0  1  0  0  0  0  0  0
  187.1540  178.3940  145.5910 C   0  0  2  0  0  3  0  0  0  0  0  0
  187.0700  177.9130  147.0380 C   0  0  0  0  0  2  0  0  0  0  0  0
  189.1750  176.6910  147.5390 C   0  0  0  0  0  2  0  0  0  0  0  0
  188.4110  177.9840  147.7440 C   0  0  0  0  0  2  0  0  0  0  0  0
  191.6970  177.9460  143.7570 C   0  0  0  0  0  1  0  0  0  0  0  0
  191.6380  176.8810  144.6710 O   0  0  0  0  0  0  0  0  0  0  0  0
  186.4030  178.7030  140.1500 O   0  0  0  0  0  0  0  0  0  0  0  0
  187.6710  178.3280  140.6140 C   0  0  0  0  0  2  0  0  0  0  0  0
  188.7240  178.4880  139.5200 C   0  0  0  0  0  2  0  0  0  0  0  0
  188.1130  178.7570  138.2930 O   0  0  0  0  0  0  0  0  0  0  0  0
  188.6410  177.8070  137.4140 C   0  0  0  0  0  2  0  0  0  0  0  0
  187.5320  176.9880  136.7540 C   0  0  2  0  0  3  0  0  0  0  0  0
  186.2840  177.5660  137.0090 O   0  0  0  0  0  0  0  0  0  0  0  0
  185.4210  176.4850  137.1940 C   0  0  0  0  0  2  0  0  0  0  0  0
  182.9850  175.9050  136.6380 C   0  0  2  0  0  3  0  0  0  0  0  0
  182.9960  175.3420  138.0570 C   0  0  0  0  0  1  0  0  0  0  0  0
  184.2960  176.5470  136.1750 C   0  0  1  0  0  3  0  0  0  0  0  0
  183.1690  177.4070  136.6960 C   0  0  0  0  0  2  0  0  0  0  0  0
  187.5400  175.5560  137.2680 C   0  0  0  0  0  2  0  0  0  0  0  0
  188.2940  174.6950  136.3600 N   0  0  0  0  0  0  0  0  0  0  0  0
  191.5260  174.4610  137.9470 O   0  0  0  0  0  1  0  0  0  0  0  0
  190.3410  173.3720  136.2070 C   0  0  0  0  0  2  0  0  0  0  0  0
  189.3360  174.0280  137.1350 C   0  0  1  0  0  3  0  0  0  0  0  0
  190.6780  174.6900  136.8630 C   0  0  1  0  0  3  0  0  0  0  0  0
  187.3890  173.6940  135.7720 C   0  0  0  0  0  2  0  0  0  0  0  0
  186.8030  172.7210  136.8000 C   0  0  0  0  0  2  0  0  0  0  0  0
  185.2940  172.7720  136.7410 C   0  0  0  0  0  1  0  0  0  0  0  0
  1  7  1  0  0  0  0
  2 10  1  0  0  0  0
  3 23  1  6  0  0  0
  3  2  1  0  0  0  0
  4 17  1  0  0  0  0
  4 11  1  0  0  0  0
  6  3  1  0  0  0  0
  6  1  1  0  0  0  0
  7 10  2  0  0  0  0
  7  8  1  0  0  0  0
  8 11  1  0  0  0  0
  9  6  2  0  0  0  0
 10  4  1  0  0  0  0
 11  5  2  0  0  0  0
 12 14  1  0  0  0  0
 13 12  1  0  0  0  0
 14 22  1  6  0  0  0
 14 15  1  0  0  0  0
 15 16  1  1  0  0  0
 15 19  1  0  0  0  0
 17 13  1  6  0  0  0
 17 18  1  0  0  0  0
 18 20  1  0  0  0  0
 19 20  1  0  0  0  0
 21 22  1  0  0  0  0
 23 24  1  0  0  0  0
 25 24  1  0  0  0  0
 26 25  1  0  0  0  0
 27 26  1  0  0  0  0
 28 29  1  0  0  0  0
 28 35  1  1  0  0  0
 28 27  1  0  0  0  0
 29 30  1  0  0  0  0
 31 34  1  0  0  0  0
 31 32  1  1  0  0  0
 33 31  1  0  0  0  0
 33 34  1  0  0  0  0
 33 30  1  1  0  0  0
 36 35  1  0  0  0  0
 38 40  1  0  0  0  0
 38 39  1  0  0  0  0
 39 36  1  6  0  0  0
 40 39  1  0  0  0  0
 40 37  1  1  0  0  0
 41 36  1  0  0  0  0
 41 42  1  0  0  0  0
 43 42  1  0  0  0  0
M  END
>  <MODEL>
1

>  <REMARK>
 VINA RESULT:      -8.0      0.000      0.000
  Name = 
  16 active torsions:
  status: ('A' for Active; 'I' for Inactive)
    1  A    between atoms: C_7  and  O_39
    2  A    between atoms: N_9  and  C_20
    3  A    between atoms: C_11  and  C_24
    4  A    between atoms: C_11  and  O_30
    5  A    between atoms: C_13  and  O_42
    6  A    between atoms: C_15  and  C_17
    7  A    between atoms: C_15  and  N_33
    8  A    between atoms: C_16  and  C_18
    9  A    between atoms: C_16  and  O_21
   10  A    between atoms: O_21  and  C_22
   11  A    between atoms: C_22  and  C_26
   12  A    between atoms: C_22  and  C_43
   13  A    between atoms: C_24  and  O_39
   14  A    between atoms: C_26  and  N_33
   15  A    between atoms: O_30  and  C_43
   16  A    between atoms: C_32  and  N_33
                            x       y       z     vdW  Elec       q    Type
                         _______ _______ _______ _____ _____    ______ ____

>  <TORSDO>
F 16

$$$$
=
 OpenBabel10222415173D

 43 47  0  0  1  0  0  0  0  0999 V2000
  183.3450  178.6770  142.4040 C   0  0  0  0  0  2  0  0  0  0  0  0
  186.3930  178.4090  142.5890 C   0  0  0  0  0  2  0  0  0  0  0  0
  185.7230  179.0120  141.3450 C   0  0  2  0  0  3  0  0  0  0  0  0
  185.8320  178.4960  145.0730 N   0  0  0  0  0  0  0  0  0  0  0  0
  184.5420  178.5150  146.9760 O   0  0  0  0  0  0  0  0  0  0  0  0
  184.2820  178.5450  141.2240 C   0  0  0  0  0  0  0  0  0  0  0  0
  184.1170  178.6090  143.6860 C   0  0  0  0  0  0  0  0  0  0  0  0
  183.6230  178.6070  144.9030 O   0  0  0  0  0  0  0  0  0  0  0  0
  183.8590  178.1070  140.1680 O   0  0  0  0  0  0  0  0  0  0  0  0
  185.4890  178.5470  143.7720 C   0  0  0  0  0  0  0  0  0  0  0  0
  184.6520  178.5440  145.7220 C   0  0  0  0  0  0  0  0  0  0  0  0
  189.4720  177.9380  144.8280 C   0  0  0  0  0  2  0  0  0  0  0  0
  188.0330  177.4650  144.8190 C   0  0  0  0  0  2  0  0  0  0  0  0
  190.3890  176.8790  145.4390 C   0  0  2  0  0  3  0  0  0  0  0  0
  190.4980  176.9440  146.9720 C   0  0  2  0  0  3  0  0  0  0  0  0
  191.4040  175.9840  147.4180 O   0  0  0  0  0  1  0  0  0  0  0  0
  187.1680  178.3890  145.6610 C   0  0  2  0  0  3  0  0  0  0  0  0
  187.0690  177.9270  147.1130 C   0  0  0  0  0  2  0  0  0  0  0  0
  189.1600  176.6950  147.6460 C   0  0  0  0  0  2  0  0  0  0  0  0
  188.4040  177.9960  147.8290 C   0  0  0  0  0  2  0  0  0  0  0  0
  191.4530  176.4650  143.4530 C   0  0  0  0  0  1  0  0  0  0  0  0
  191.6460  176.8290  144.7960 O   0  0  0  0  0  0  0  0  0  0  0  0
  186.4640  178.6630  140.2120 O   0  0  0  0  0  0  0  0  0  0  0  0
  187.7630  178.4130  140.6740 C   0  0  0  0  0  2  0  0  0  0  0  0
  188.7760  178.4940  139.5330 C   0  0  0  0  0  2  0  0  0  0  0  0
  188.1170  178.5550  138.3020 O   0  0  0  0  0  0  0  0  0  0  0  0
  189.0330  178.0410  137.3810 C   0  0  0  0  0  2  0  0  0  0  0  0
  188.6230  176.6450  136.9130 C   0  0  2  0  0  3  0  0  0  0  0  0
  187.2930  176.3880  137.2600 O   0  0  0  0  0  0  0  0  0  0  0  0
  186.9370  175.2680  136.5060 C   0  0  0  0  0  2  0  0  0  0  0  0
  185.0800  173.5260  136.2010 C   0  0  2  0  0  3  0  0  0  0  0  0
  185.9530  173.0810  135.0300 C   0  0  0  0  0  1  0  0  0  0  0  0
  185.6250  174.7010  137.0190 C   0  0  1  0  0  3  0  0  0  0  0  0
  185.8240  173.2820  137.4980 C   0  0  0  0  0  2  0  0  0  0  0  0
  189.5210  175.5840  137.5300 C   0  0  0  0  0  2  0  0  0  0  0  0
  190.8200  175.5650  136.8600 N   0  0  0  0  0  0  0  0  0  0  0  0
  193.6310  176.7450  138.7890 O   0  0  0  0  0  1  0  0  0  0  0  0
  193.1580  174.9900  137.2670 C   0  0  0  0  0  2  0  0  0  0  0  0
  191.8530  175.4550  137.8850 C   0  0  1  0  0  3  0  0  0  0  0  0
  192.9650  176.4520  137.5990 C   0  0  1  0  0  3  0  0  0  0  0  0
  190.8850  174.4050  135.9570 C   0  0  0  0  0  2  0  0  0  0  0  0
  189.8570  173.3160  136.2840 C   0  0  0  0  0  2  0  0  0  0  0  0
  189.7840  172.3300  135.1400 C   0  0  0  0  0  1  0  0  0  0  0  0
  1  7  1  0  0  0  0
  2 10  1  0  0  0  0
  3 23  1  6  0  0  0
  3  2  1  0  0  0  0
  4 17  1  0  0  0  0
  4 11  1  0  0  0  0
  6  3  1  0  0  0  0
  6  1  1  0  0  0  0
  7 10  2  0  0  0  0
  7  8  1  0  0  0  0
  8 11  1  0  0  0  0
  9  6  2  0  0  0  0
 10  4  1  0  0  0  0
 11  5  2  0  0  0  0
 12 14  1  0  0  0  0
 13 12  1  0  0  0  0
 14 22  1  6  0  0  0
 14 15  1  0  0  0  0
 15 16  1  1  0  0  0
 15 19  1  0  0  0  0
 17 13  1  6  0  0  0
 17 18  1  0  0  0  0
 18 20  1  0  0  0  0
 19 20  1  0  0  0  0
 21 22  1  0  0  0  0
 23 24  1  0  0  0  0
 25 24  1  0  0  0  0
 26 25  1  0  0  0  0
 27 26  1  0  0  0  0
 28 29  1  0  0  0  0
 28 27  1  1  0  0  0
 28 35  1  0  0  0  0
 30 29  1  0  0  0  0
 31 32  1  6  0  0  0
 31 33  1  0  0  0  0
 31 34  1  0  0  0  0
 33 30  1  6  0  0  0
 33 34  1  0  0  0  0
 36 35  1  0  0  0  0
 38 40  1  0  0  0  0
 38 39  1  0  0  0  0
 39 36  1  6  0  0  0
 40 39  1  0  0  0  0
 40 37  1  1  0  0  0
 41 42  1  0  0  0  0
 41 36  1  0  0  0  0
 43 42  1  0  0  0  0
M  END
>  <MODEL>
2

>  <REMARK>
 VINA RESULT:      -8.0      1.305      1.997
  Name = 
  16 active torsions:
  status: ('A' for Active; 'I' for Inactive)
    1  A    between atoms: C_7  and  O_39
    2  A    between atoms: N_9  and  C_20
    3  A    between atoms: C_11  and  C_24
    4  A    between atoms: C_11  and  O_30
    5  A    between atoms: C_13  and  O_42
    6  A    between atoms: C_15  and  C_17
    7  A    between atoms: C_15  and  N_33
    8  A    between atoms: C_16  and  C_18
    9  A    between atoms: C_16  and  O_21
   10  A    between atoms: O_21  and  C_22
   11  A    between atoms: C_22  and  C_26
   12  A    between atoms: C_22  and  C_43
   13  A    between atoms: C_24  and  O_39
   14  A    between atoms: C_26  and  N_33
   15  A    between atoms: O_30  and  C_43
   16  A    between atoms: C_32  and  N_33
                            x       y       z     vdW  Elec       q    Type
                         _______ _______ _______ _____ _____    ______ ____

>  <TORSDO>
F 16

$$$$
=
 OpenBabel10222415173D

 43 47  0  0  1  0  0  0  0  0999 V2000
  183.3620  178.6790  142.3780 C   0  0  0  0  0  2  0  0  0  0  0  0
  186.4090  178.4110  142.5820 C   0  0  0  0  0  2  0  0  0  0  0  0
  185.7460  179.0140  141.3340 C   0  0  2  0  0  3  0  0  0  0  0  0
  185.8330  178.4960  145.0620 N   0  0  0  0  0  0  0  0  0  0  0  0
  184.5310  178.5140  146.9580 O   0  0  0  0  0  0  0  0  0  0  0  0
  184.3060  178.5470  141.2030 C   0  0  0  0  0  0  0  0  0  0  0  0
  184.1260  178.6100  143.6650 C   0  0  0  0  0  0  0  0  0  0  0  0
  183.6250  178.6080  144.8780 O   0  0  0  0  0  0  0  0  0  0  0  0
  183.8890  178.1100  140.1450 O   0  0  0  0  0  0  0  0  0  0  0  0
  185.4970  178.5470  143.7590 C   0  0  0  0  0  0  0  0  0  0  0  0
  184.6480  178.5440  145.7040 C   0  0  0  0  0  0  0  0  0  0  0  0
  189.4770  177.9570  144.8360 C   0  0  0  0  0  2  0  0  0  0  0  0
  188.0400  177.4780  144.8110 C   0  0  0  0  0  2  0  0  0  0  0  0
  190.3940  176.8950  145.4420 C   0  0  2  0  0  3  0  0  0  0  0  0
  190.4920  176.9430  146.9760 C   0  0  2  0  0  3  0  0  0  0  0  0
  191.3990  175.9830  147.4170 O   0  0  0  0  0  1  0  0  0  0  0  0
  187.1640  178.3880  145.6580 C   0  0  2  0  0  3  0  0  0  0  0  0
  187.0570  177.9090  147.1040 C   0  0  0  0  0  2  0  0  0  0  0  0
  189.1500  176.6810  147.6370 C   0  0  0  0  0  2  0  0  0  0  0  0
  188.3870  177.9760  147.8300 C   0  0  0  0  0  2  0  0  0  0  0  0
  191.5640  177.5390  143.5810 C   0  0  0  0  0  1  0  0  0  0  0  0
  191.6560  176.8590  144.8070 O   0  0  0  0  0  0  0  0  0  0  0  0
  186.4940  178.6660  140.2050 O   0  0  0  0  0  0  0  0  0  0  0  0
  187.7590  178.3060  140.6880 C   0  0  0  0  0  2  0  0  0  0  0  0
  188.8420  178.5740  139.6450 C   0  0  0  0  0  2  0  0  0  0  0  0
  189.5090  177.3900  139.3210 O   0  0  0  0  0  0  0  0  0  0  0  0
  188.8200  176.8810  138.2180 C   0  0  0  0  0  2  0  0  0  0  0  0
  189.0960  177.7080  136.9620 C   0  0  2  0  0  3  0  0  0  0  0  0
  187.9020  178.2290  136.4520 O   0  0  0  0  0  0  0  0  0  0  0  0
  187.3650  177.1990  135.6790 C   0  0  0  0  0  2  0  0  0  0  0  0
  185.1160  176.1030  136.2420 C   0  0  2  0  0  3  0  0  0  0  0  0
  186.0110  174.9950  136.7930 C   0  0  0  0  0  1  0  0  0  0  0  0
  185.8500  177.3120  135.6570 C   0  0  1  0  0  3  0  0  0  0  0  0
  185.3120  177.3570  137.0670 C   0  0  0  0  0  2  0  0  0  0  0  0
  189.7740  176.8600  135.8960 C   0  0  0  0  0  2  0  0  0  0  0  0
  190.4990  175.7520  136.5130 N   0  0  0  0  0  0  0  0  0  0  0  0
  188.7060  172.6290  136.2920 O   0  0  0  0  0  1  0  0  0  0  0  0
  190.9590  173.3640  136.2920 C   0  0  0  0  0  2  0  0  0  0  0  0
  190.0780  174.5190  135.8560 C   0  0  1  0  0  3  0  0  0  0  0  0
  189.5850  173.5270  136.8980 C   0  0  1  0  0  3  0  0  0  0  0  0
  191.9450  175.9510  136.3270 C   0  0  0  0  0  2  0  0  0  0  0  0
  192.6740  176.3790  137.6050 C   0  0  0  0  0  2  0  0  0  0  0  0
  193.7930  175.4070  137.8980 C   0  0  0  0  0  1  0  0  0  0  0  0
  1  7  1  0  0  0  0
  2 10  1  0  0  0  0
  3 23  1  6  0  0  0
  3  2  1  0  0  0  0
  4 17  1  0  0  0  0
  4 11  1  0  0  0  0
  6  3  1  0  0  0  0
  6  1  1  0  0  0  0
  7 10  2  0  0  0  0
  7  8  1  0  0  0  0
  8 11  1  0  0  0  0
  9  6  2  0  0  0  0
 10  4  1  0  0  0  0
 11  5  2  0  0  0  0
 12 14  1  0  0  0  0
 13 12  1  0  0  0  0
 14 22  1  6  0  0  0
 14 15  1  0  0  0  0
 15 16  1  1  0  0  0
 15 19  1  0  0  0  0
 17 13  1  6  0  0  0
 17 18  1  0  0  0  0
 18 20  1  0  0  0  0
 19 20  1  0  0  0  0
 21 22  1  0  0  0  0
 23 24  1  0  0  0  0
 25 24  1  0  0  0  0
 26 25  1  0  0  0  0
 27 26  1  0  0  0  0
 28 35  1  6  0  0  0
 28 27  1  0  0  0  0
 29 28  1  0  0  0  0
 30 29  1  0  0  0  0
 31 32  1  1  0  0  0
 31 34  1  0  0  0  0
 33 30  1  1  0  0  0
 33 31  1  0  0  0  0
 33 34  1  0  0  0  0
 35 36  1  0  0  0  0
 38 40  1  0  0  0  0
 39 38  1  0  0  0  0
 39 36  1  1  0  0  0
 39 40  1  0  0  0  0
 40 37  1  6  0  0  0
 41 36  1  0  0  0  0
 41 42  1  0  0  0  0
 42 43  1  0  0  0  0
M  END
>  <MODEL>
3

>  <REMARK>
 VINA RESULT:      -7.9      1.273      2.325
  Name = 
  16 active torsions:
  status: ('A' for Active; 'I' for Inactive)
    1  A    between atoms: C_7  and  O_39
    2  A    between atoms: N_9  and  C_20
    3  A    between atoms: C_11  and  C_24
    4  A    between atoms: C_11  and  O_30
    5  A    between atoms: C_13  and  O_42
    6  A    between atoms: C_15  and  C_17
    7  A    between atoms: C_15  and  N_33
    8  A    between atoms: C_16  and  C_18
    9  A    between atoms: C_16  and  O_21
   10  A    between atoms: O_21  and  C_22
   11  A    between atoms: C_22  and  C_26
   12  A    between atoms: C_22  and  C_43
   13  A    between atoms: C_24  and  O_39
   14  A    between atoms: C_26  and  N_33
   15  A    between atoms: O_30  and  C_43
   16  A    between atoms: C_32  and  N_33
                            x       y       z     vdW  Elec       q    Type
                         _______ _______ _______ _____ _____    ______ ____

>  <TORSDO>
F 16

$$$$
=
 OpenBabel10222415173D

 43 47  0  0  1  0  0  0  0  0999 V2000
  183.1400  178.8000  143.0180 C   0  0  0  0  0  2  0  0  0  0  0  0
  186.1730  178.4370  142.7570 C   0  0  0  0  0  2  0  0  0  0  0  0
  185.3460  179.0550  141.6190 C   0  0  2  0  0  3  0  0  0  0  0  0
  185.9850  178.5500  145.2950 N   0  0  0  0  0  0  0  0  0  0  0  0
  184.9900  178.6160  147.3670 O   0  0  0  0  0  0  0  0  0  0  0  0
  183.8890  178.6340  141.7150 C   0  0  0  0  0  0  0  0  0  0  0  0
  184.0890  178.7110  144.1740 C   0  0  0  0  0  0  0  0  0  0  0  0
  183.7800  178.7300  145.4500 O   0  0  0  0  0  0  0  0  0  0  0  0
  183.3030  178.2060  140.7350 O   0  0  0  0  0  0  0  0  0  0  0  0
  185.4570  178.6070  144.0580 C   0  0  0  0  0  0  0  0  0  0  0  0
  184.9150  178.6370  146.1100 C   0  0  0  0  0  0  0  0  0  0  0  0
  189.5390  177.9330  144.5150 C   0  0  0  0  0  2  0  0  0  0  0  0
  188.1040  177.4870  144.7010 C   0  0  0  0  0  2  0  0  0  0  0  0
  190.5120  176.8420  144.9620 C   0  0  2  0  0  3  0  0  0  0  0  0
  190.8410  176.8630  146.4640 C   0  0  2  0  0  3  0  0  0  0  0  0
  191.7800  175.8750  146.7510 O   0  0  0  0  0  1  0  0  0  0  0  0
  187.3890  178.4030  145.6820 C   0  0  2  0  0  3  0  0  0  0  0  0
  187.4890  177.9020  147.1210 C   0  0  0  0  0  2  0  0  0  0  0  0
  189.6080  176.6200  147.3170 C   0  0  0  0  0  2  0  0  0  0  0  0
  188.9150  177.9280  147.6390 C   0  0  0  0  0  2  0  0  0  0  0  0
  191.7710  177.9960  143.4360 C   0  0  0  0  0  1  0  0  0  0  0  0
  191.6620  176.7880  144.1430 O   0  0  0  0  0  0  0  0  0  0  0  0
  185.9020  178.6800  140.3930 O   0  0  0  0  0  0  0  0  0  0  0  0
  187.2770  178.5460  140.6280 C   0  0  0  0  0  2  0  0  0  0  0  0
  188.0000  178.0440  139.3800 C   0  0  0  0  0  2  0  0  0  0  0  0
  189.0440  178.9090  139.0420 O   0  0  0  0  0  0  0  0  0  0  0  0
  189.0650  178.9160  137.6450 C   0  0  0  0  0  2  0  0  0  0  0  0
  188.9420  177.5000  137.0830 C   0  0  2  0  0  3  0  0  0  0  0  0
  190.2010  177.0140  136.7140 O   0  0  0  0  0  0  0  0  0  0  0  0
  190.3500  175.8270  137.4340 C   0  0  0  0  0  2  0  0  0  0  0  0
  192.6440  174.6950  137.6220 C   0  0  2  0  0  3  0  0  0  0  0  0
  192.0860  173.8120  136.5080 C   0  0  0  0  0  1  0  0  0  0  0  0
  191.7100  175.8060  138.1110 C   0  0  1  0  0  3  0  0  0  0  0  0
  192.7960  176.1110  137.1060 C   0  0  0  0  0  2  0  0  0  0  0  0
  188.0180  177.4770  135.8750 C   0  0  0  0  0  2  0  0  0  0  0  0
  186.9150  176.5450  136.0970 N   0  0  0  0  0  0  0  0  0  0  0  0
  183.9030  177.9420  137.5100 O   0  0  0  0  0  1  0  0  0  0  0  0
  184.4930  176.3730  135.8340 C   0  0  0  0  0  2  0  0  0  0  0  0
  185.6700  177.3050  136.0550 C   0  0  1  0  0  3  0  0  0  0  0  0
  184.7820  176.8980  137.2210 C   0  0  1  0  0  3  0  0  0  0  0  0
  186.9160  175.5260  135.0350 C   0  0  0  0  0  2  0  0  0  0  0  0
  187.3880  174.1470  135.5120 C   0  0  0  0  0  2  0  0  0  0  0  0
  187.1780  174.0290  137.0030 C   0  0  0  0  0  1  0  0  0  0  0  0
  1  7  1  0  0  0  0
  2 10  1  0  0  0  0
  3 23  1  6  0  0  0
  3  6  1  0  0  0  0
  3  2  1  0  0  0  0
  4 17  1  0  0  0  0
  4 11  1  0  0  0  0
  6  1  1  0  0  0  0
  7  8  1  0  0  0  0
  8 11  1  0  0  0  0
  9  6  2  0  0  0  0
 10  7  2  0  0  0  0
 10  4  1  0  0  0  0
 11  5  2  0  0  0  0
 12 13  1  0  0  0  0
 12 14  1  0  0  0  0
 14 22  1  6  0  0  0
 14 15  1  0  0  0  0
 15 16  1  6  0  0  0
 15 19  1  0  0  0  0
 17 13  1  6  0  0  0
 17 18  1  0  0  0  0
 18 20  1  0  0  0  0
 19 20  1  0  0  0  0
 21 22  1  0  0  0  0
 23 24  1  0  0  0  0
 25 24  1  0  0  0  0
 26 25  1  0  0  0  0
 27 26  1  0  0  0  0
 28 35  1  6  0  0  0
 28 27  1  0  0  0  0
 29 28  1  0  0  0  0
 29 30  1  0  0  0  0
 31 32  1  6  0  0  0
 31 33  1  0  0  0  0
 33 30  1  6  0  0  0
 34 31  1  0  0  0  0
 34 33  1  0  0  0  0
 35 36  1  0  0  0  0
 38 39  1  0  0  0  0
 38 40  1  0  0  0  0
 39 36  1  1  0  0  0
 39 40  1  0  0  0  0
 40 37  1  6  0  0  0
 41 42  1  0  0  0  0
 41 36  1  0  0  0  0
 42 43  1  0  0  0  0
M  END
>  <MODEL>
4

>  <REMARK>
 VINA RESULT:      -7.9      1.216      3.713
  Name = 
  16 active torsions:
  status: ('A' for Active; 'I' for Inactive)
    1  A    between atoms: C_7  and  O_39
    2  A    between atoms: N_9  and  C_20
    3  A    between atoms: C_11  and  C_24
    4  A    between atoms: C_11  and  O_30
    5  A    between atoms: C_13  and  O_42
    6  A    between atoms: C_15  and  C_17
    7  A    between atoms: C_15  and  N_33
    8  A    between atoms: C_16  and  C_18
    9  A    between atoms: C_16  and  O_21
   10  A    between atoms: O_21  and  C_22
   11  A    between atoms: C_22  and  C_26
   12  A    between atoms: C_22  and  C_43
   13  A    between atoms: C_24  and  O_39
   14  A    between atoms: C_26  and  N_33
   15  A    between atoms: O_30  and  C_43
   16  A    between atoms: C_32  and  N_33
                            x       y       z     vdW  Elec       q    Type
                         _______ _______ _______ _____ _____    ______ ____

>  <TORSDO>
F 16

$$$$
=
 OpenBabel10222415173D

 43 47  0  0  1  0  0  0  0  0999 V2000
  189.5720  177.1380  147.2650 C   0  0  0  0  0  2  0  0  0  0  0  0
  188.7470  177.7980  144.3880 C   0  0  0  0  0  2  0  0  0  0  0  0
  189.8800  176.8020  144.6810 C   0  0  2  0  0  3  0  0  0  0  0  0
  186.5600  178.3340  145.5800 N   0  0  0  0  0  0  0  0  0  0  0  0
  185.1060  178.6910  147.3250 O   0  0  0  0  0  0  0  0  0  0  0  0
  190.4770  177.0480  146.0560 C   0  0  0  0  0  0  0  0  0  0  0  0
  188.2210  177.6460  146.8630 C   0  0  0  0  0  0  0  0  0  0  0  0
  187.2160  177.9250  147.6590 O   0  0  0  0  0  0  0  0  0  0  0  0
  191.6850  177.1250  146.2030 O   0  0  0  0  0  0  0  0  0  0  0  0
  187.8300  177.8870  145.5660 C   0  0  0  0  0  0  0  0  0  0  0  0
  186.2300  178.3300  146.8870 C   0  0  0  0  0  0  0  0  0  0  0  0
  183.3680  179.4860  144.1320 C   0  0  0  0  0  2  0  0  0  0  0  0
  184.2690  178.4300  144.7380 C   0  0  0  0  0  2  0  0  0  0  0  0
  182.4370  178.8730  143.0860 C   0  0  2  0  0  3  0  0  0  0  0  0
  183.0450  178.7750  141.6770 C   0  0  2  0  0  3  0  0  0  0  0  0
  182.0970  178.2670  140.7920 O   0  0  0  0  0  1  0  0  0  0  0  0
  185.7270  178.7530  144.4530 C   0  0  2  0  0  3  0  0  0  0  0  0
  186.2230  178.1060  143.1620 C   0  0  0  0  0  2  0  0  0  0  0  0
  184.2660  177.8710  141.6490 C   0  0  0  0  0  2  0  0  0  0  0  0
  185.5250  178.6640  141.9360 C   0  0  0  0  0  2  0  0  0  0  0  0
  180.2930  178.6780  143.8670 C   0  0  0  0  0  1  0  0  0  0  0  0
  181.1580  179.4730  143.0970 O   0  0  0  0  0  0  0  0  0  0  0  0
  190.8520  176.9090  143.6810 O   0  0  0  0  0  0  0  0  0  0  0  0
  190.2400  177.6080  142.6330 C   0  0  0  0  0  2  0  0  0  0  0  0
  190.3460  176.8330  141.3210 C   0  0  0  0  0  2  0  0  0  0  0  0
  190.8950  177.6420  140.3220 O   0  0  0  0  0  0  0  0  0  0  0  0
  189.8820  177.7700  139.3690 C   0  0  0  0  0  2  0  0  0  0  0  0
  190.1490  176.8800  138.1550 C   0  0  2  0  0  3  0  0  0  0  0  0
  191.5260  176.7290  137.9580 O   0  0  0  0  0  0  0  0  0  0  0  0
  191.6370  175.8610  136.8700 C   0  0  0  0  0  2  0  0  0  0  0  0
  191.9610  173.3890  136.2660 C   0  0  2  0  0  3  0  0  0  0  0  0
  192.1330  173.9540  134.8580 C   0  0  0  0  0  1  0  0  0  0  0  0
  191.7150  174.4270  137.3650 C   0  0  1  0  0  3  0  0  0  0  0  0
  193.1010  173.8730  137.1380 C   0  0  0  0  0  2  0  0  0  0  0  0
  189.5210  177.4720  136.9030 C   0  0  0  0  0  2  0  0  0  0  0  0
  188.1940  176.9030  136.6820 N   0  0  0  0  0  0  0  0  0  0  0  0
  185.7070  178.9330  138.3290 O   0  0  0  0  0  1  0  0  0  0  0  0
  185.8260  177.4650  136.4720 C   0  0  0  0  0  2  0  0  0  0  0  0
  187.2210  177.9880  136.7610 C   0  0  1  0  0  3  0  0  0  0  0  0
  186.2480  177.7220  137.9000 C   0  0  1  0  0  3  0  0  0  0  0  0
  188.1450  176.2820  135.3490 C   0  0  0  0  0  2  0  0  0  0  0  0
  188.5280  174.7980  135.3510 C   0  0  0  0  0  2  0  0  0  0  0  0
  188.0210  174.1460  136.6160 C   0  0  0  0  0  1  0  0  0  0  0  0
  2  3  1  0  0  0  0
  2 10  1  0  0  0  0
  3 23  1  6  0  0  0
  3  6  1  0  0  0  0
  4 11  1  0  0  0  0
  6  9  2  0  0  0  0
  6  1  1  0  0  0  0
  7  1  1  0  0  0  0
  7  8  1  0  0  0  0
 10  4  1  0  0  0  0
 10  7  2  0  0  0  0
 11  5  2  0  0  0  0
 11  8  1  0  0  0  0
 12 13  1  0  0  0  0
 14 22  1  6  0  0  0
 14 12  1  0  0  0  0
 15 16  1  6  0  0  0
 15 14  1  0  0  0  0
 17 18  1  6  0  0  0
 17 13  1  0  0  0  0
 17  4  1  0  0  0  0
 19 15  1  0  0  0  0
 19 20  1  0  0  0  0
 20 18  1  0  0  0  0
 22 21  1  0  0  0  0
 24 23  1  0  0  0  0
 25 24  1  0  0  0  0
 26 25  1  0  0  0  0
 27 26  1  0  0  0  0
 28 35  1  6  0  0  0
 28 27  1  0  0  0  0
 29 28  1  0  0  0  0
 30 29  1  0  0  0  0
 31 32  1  6  0  0  0
 31 34  1  0  0  0  0
 31 33  1  0  0  0  0
 33 30  1  6  0  0  0
 34 33  1  0  0  0  0
 36 35  1  0  0  0  0
 38 39  1  0  0  0  0
 38 40  1  0  0  0  0
 39 36  1  1  0  0  0
 39 40  1  0  0  0  0
 40 37  1  6  0  0  0
 41 42  1  0  0  0  0
 41 36  1  0  0  0  0
 42 43  1  0  0  0  0
M  END
>  <MODEL>
5

>  <REMARK>
 VINA RESULT:      -7.9      1.715      6.368
  Name = 
  16 active torsions:
  status: ('A' for Active; 'I' for Inactive)
    1  A    between atoms: C_7  and  O_39
    2  A    between atoms: N_9  and  C_20
    3  A    between atoms: C_11  and  C_24
    4  A    between atoms: C_11  and  O_30
    5  A    between atoms: C_13  and  O_42
    6  A    between atoms: C_15  and  C_17
    7  A    between atoms: C_15  and  N_33
    8  A    between atoms: C_16  and  C_18
    9  A    between atoms: C_16  and  O_21
   10  A    between atoms: O_21  and  C_22
   11  A    between atoms: C_22  and  C_26
   12  A    between atoms: C_22  and  C_43
   13  A    between atoms: C_24  and  O_39
   14  A    between atoms: C_26  and  N_33
   15  A    between atoms: O_30  and  C_43
   16  A    between atoms: C_32  and  N_33
                            x       y       z     vdW  Elec       q    Type
                         _______ _______ _______ _____ _____    ______ ____

>  <TORSDO>
F 16

$$$$
=
 OpenBabel10222415173D

 43 47  0  0  1  0  0  0  0  0999 V2000
  189.6050  177.0390  147.0690 C   0  0  0  0  0  2  0  0  0  0  0  0
  188.7240  177.7730  144.2260 C   0  0  0  0  0  2  0  0  0  0  0  0
  189.8670  176.7770  144.4710 C   0  0  2  0  0  3  0  0  0  0  0  0
  186.5570  178.2650  145.4730 N   0  0  0  0  0  0  0  0  0  0  0  0
  185.1330  178.5660  147.2540 O   0  0  0  0  0  0  0  0  0  0  0  0
  190.4880  176.9870  145.8410 C   0  0  0  0  0  0  0  0  0  0  0  0
  188.2450  177.5510  146.7060 C   0  0  0  0  0  0  0  0  0  0  0  0
  187.2530  177.8030  147.5280 O   0  0  0  0  0  0  0  0  0  0  0  0
  191.6980  177.0670  145.9680 O   0  0  0  0  0  0  0  0  0  0  0  0
  187.8290  177.8260  145.4230 C   0  0  0  0  0  0  0  0  0  0  0  0
  186.2510  178.2240  146.7860 C   0  0  0  0  0  0  0  0  0  0  0  0
  183.3590  179.5260  144.1310 C   0  0  0  0  0  2  0  0  0  0  0  0
  184.2430  178.4400  144.7090 C   0  0  0  0  0  2  0  0  0  0  0  0
  182.3720  178.9430  143.1190 C   0  0  2  0  0  3  0  0  0  0  0  0
  182.9280  178.8210  141.6910 C   0  0  2  0  0  3  0  0  0  0  0  0
  181.9330  178.3440  140.8410 O   0  0  0  0  0  1  0  0  0  0  0  0
  185.7010  178.7110  144.3740 C   0  0  2  0  0  3  0  0  0  0  0  0
  186.1290  178.0430  143.0690 C   0  0  0  0  0  2  0  0  0  0  0  0
  184.1140  177.8740  141.6240 C   0  0  0  0  0  2  0  0  0  0  0  0
  185.4100  178.6230  141.8650 C   0  0  0  0  0  2  0  0  0  0  0  0
  180.1800  178.7090  143.7410 C   0  0  0  0  0  1  0  0  0  0  0  0
  181.1160  179.5880  143.1710 O   0  0  0  0  0  0  0  0  0  0  0  0
  190.8190  176.9150  143.4570 O   0  0  0  0  0  0  0  0  0  0  0  0
  190.2140  176.4090  142.2990 C   0  0  0  0  0  2  0  0  0  0  0  0
  190.2390  177.4390  141.1720 C   0  0  0  0  0  2  0  0  0  0  0  0
  189.3510  177.0710  140.1580 O   0  0  0  0  0  0  0  0  0  0  0  0
  188.8840  178.2800  139.6350 C   0  0  0  0  0  2  0  0  0  0  0  0
  188.0560  178.0520  138.3710 C   0  0  2  0  0  3  0  0  0  0  0  0
  186.7690  178.5770  138.5330 O   0  0  0  0  0  0  0  0  0  0  0  0
  185.9750  177.8600  137.6360 C   0  0  0  0  0  2  0  0  0  0  0  0
  183.5190  177.5300  136.9790 C   0  0  2  0  0  3  0  0  0  0  0  0
  184.1320  177.0670  135.6600 C   0  0  0  0  0  1  0  0  0  0  0  0
  184.5200  177.9400  138.0630 C   0  0  1  0  0  3  0  0  0  0  0  0
  183.9060  176.5600  138.0760 C   0  0  0  0  0  2  0  0  0  0  0  0
  187.9600  176.5690  138.0480 C   0  0  0  0  0  2  0  0  0  0  0  0
  188.8680  176.2280  136.9550 N   0  0  0  0  0  0  0  0  0  0  0  0
  192.2180  175.8930  138.2520 O   0  0  0  0  0  1  0  0  0  0  0  0
  190.9530  175.0740  136.4230 C   0  0  0  0  0  2  0  0  0  0  0  0
  189.9940  175.4910  137.5210 C   0  0  1  0  0  3  0  0  0  0  0  0
  191.2810  176.2670  137.2890 C   0  0  1  0  0  3  0  0  0  0  0  0
  188.1600  175.3870  135.9770 C   0  0  0  0  0  2  0  0  0  0  0  0
  187.0680  174.5090  136.6010 C   0  0  0  0  0  2  0  0  0  0  0  0
  187.4900  173.0600  136.5410 C   0  0  0  0  0  1  0  0  0  0  0  0
  2  3  1  0  0  0  0
  2 10  1  0  0  0  0
  3 23  1  6  0  0  0
  3  6  1  0  0  0  0
  4 11  1  0  0  0  0
  6  9  2  0  0  0  0
  6  1  1  0  0  0  0
  7  1  1  0  0  0  0
  7  8  1  0  0  0  0
 10  4  1  0  0  0  0
 10  7  2  0  0  0  0
 11  5  2  0  0  0  0
 11  8  1  0  0  0  0
 12 13  1  0  0  0  0
 14 22  1  6  0  0  0
 14 12  1  0  0  0  0
 15 16  1  6  0  0  0
 15 14  1  0  0  0  0
 17 18  1  6  0  0  0
 17 13  1  0  0  0  0
 17  4  1  0  0  0  0
 19 15  1  0  0  0  0
 19 20  1  0  0  0  0
 20 18  1  0  0  0  0
 22 21  1  0  0  0  0
 24 23  1  0  0  0  0
 25 24  1  0  0  0  0
 26 25  1  0  0  0  0
 27 26  1  0  0  0  0
 28 35  1  1  0  0  0
 28 29  1  0  0  0  0
 28 27  1  0  0  0  0
 30 29  1  0  0  0  0
 31 32  1  6  0  0  0
 31 33  1  0  0  0  0
 31 34  1  0  0  0  0
 33 30  1  6  0  0  0
 33 34  1  0  0  0  0
 36 35  1  0  0  0  0
 38 40  1  0  0  0  0
 38 39  1  0  0  0  0
 39 36  1  6  0  0  0
 40 39  1  0  0  0  0
 40 37  1  1  0  0  0
 41 42  1  0  0  0  0
 41 36  1  0  0  0  0
 43 42  1  0  0  0  0
M  END
>  <MODEL>
6

>  <REMARK>
 VINA RESULT:      -7.8      1.535      5.259
  Name = 
  16 active torsions:
  status: ('A' for Active; 'I' for Inactive)
    1  A    between atoms: C_7  and  O_39
    2  A    between atoms: N_9  and  C_20
    3  A    between atoms: C_11  and  C_24
    4  A    between atoms: C_11  and  O_30
    5  A    between atoms: C_13  and  O_42
    6  A    between atoms: C_15  and  C_17
    7  A    between atoms: C_15  and  N_33
    8  A    between atoms: C_16  and  C_18
    9  A    between atoms: C_16  and  O_21
   10  A    between atoms: O_21  and  C_22
   11  A    between atoms: C_22  and  C_26
   12  A    between atoms: C_22  and  C_43
   13  A    between atoms: C_24  and  O_39
   14  A    between atoms: C_26  and  N_33
   15  A    between atoms: O_30  and  C_43
   16  A    between atoms: C_32  and  N_33
                            x       y       z     vdW  Elec       q    Type
                         _______ _______ _______ _____ _____    ______ ____

>  <TORSDO>
F 16

$$$$
=
 OpenBabel10222415173D

 43 47  0  0  1  0  0  0  0  0999 V2000
  183.2710  178.6830  142.4730 C   0  0  0  0  0  2  0  0  0  0  0  0
  186.3210  178.4070  142.6040 C   0  0  0  0  0  2  0  0  0  0  0  0
  185.6290  178.9940  141.3640 C   0  0  2  0  0  3  0  0  0  0  0  0
  185.8090  178.5310  145.0960 N   0  0  0  0  0  0  0  0  0  0  0  0
  184.5560  178.5820  147.0240 O   0  0  0  0  0  0  0  0  0  0  0  0
  184.1850  178.5300  141.2770 C   0  0  0  0  0  0  0  0  0  0  0  0
  184.0670  178.6300  143.7420 C   0  0  0  0  0  0  0  0  0  0  0  0
  183.5970  178.6470  144.9670 O   0  0  0  0  0  0  0  0  0  0  0  0
  183.7400  178.0790  140.2360 O   0  0  0  0  0  0  0  0  0  0  0  0
  185.4410  178.5640  143.8020 C   0  0  0  0  0  0  0  0  0  0  0  0
  184.6410  178.5920  145.7670 C   0  0  0  0  0  0  0  0  0  0  0  0
  189.4410  177.9580  144.7890 C   0  0  0  0  0  2  0  0  0  0  0  0
  188.0010  177.4900  144.8140 C   0  0  0  0  0  2  0  0  0  0  0  0
  190.3670  176.9040  145.3970 C   0  0  2  0  0  3  0  0  0  0  0  0
  190.5060  176.9900  146.9260 C   0  0  2  0  0  3  0  0  0  0  0  0
  191.4170  176.0330  147.3680 O   0  0  0  0  0  1  0  0  0  0  0  0
  187.1550  178.4280  145.6600 C   0  0  2  0  0  3  0  0  0  0  0  0
  187.0820  177.9850  147.1200 C   0  0  0  0  0  2  0  0  0  0  0  0
  189.1800  176.7540  147.6290 C   0  0  0  0  0  2  0  0  0  0  0  0
  188.4310  178.0610  147.8090 C   0  0  0  0  0  2  0  0  0  0  0  0
  191.5780  175.7830  143.8090 C   0  0  0  0  0  1  0  0  0  0  0  0
  191.6110  176.8420  144.7310 O   0  0  0  0  0  0  0  0  0  0  0  0
  186.3470  178.6270  140.2220 O   0  0  0  0  0  0  0  0  0  0  0  0
  187.6210  178.2630  140.6790 C   0  0  0  0  0  2  0  0  0  0  0  0
  188.6000  178.1190  139.5160 C   0  0  0  0  0  2  0  0  0  0  0  0
  188.3900  176.9080  138.8510 O   0  0  0  0  0  0  0  0  0  0  0  0
  188.6370  177.1910  137.5050 C   0  0  0  0  0  2  0  0  0  0  0  0
  188.2950  175.9950  136.6170 C   0  0  2  0  0  3  0  0  0  0  0  0
  189.2900  175.8090  135.6500 O   0  0  0  0  0  0  0  0  0  0  0  0
  190.4380  176.3770  136.2060 C   0  0  0  0  0  2  0  0  0  0  0  0
  192.5960  175.4670  137.2510 C   0  0  2  0  0  3  0  0  0  0  0  0
  192.2530  176.4610  138.3580 C   0  0  0  0  0  1  0  0  0  0  0  0
  191.5980  175.4030  136.0910 C   0  0  1  0  0  3  0  0  0  0  0  0
  191.5350  174.3860  137.2070 C   0  0  0  0  0  2  0  0  0  0  0  0
  186.9540  176.1990  135.9280 C   0  0  0  0  0  2  0  0  0  0  0  0
  186.0770  175.0580  136.1770 N   0  0  0  0  0  0  0  0  0  0  0  0
  187.9270  172.1390  137.2140 O   0  0  0  0  0  1  0  0  0  0  0  0
  185.7890  173.0890  137.5930 C   0  0  0  0  0  2  0  0  0  0  0  0
  186.7330  174.1910  137.1520 C   0  0  1  0  0  3  0  0  0  0  0  0
  186.8690  172.7890  136.5800 C   0  0  1  0  0  3  0  0  0  0  0  0
  184.7940  175.5360  136.7150 C   0  0  0  0  0  2  0  0  0  0  0  0
  184.7130  177.0620  136.8380 C   0  0  0  0  0  2  0  0  0  0  0  0
  183.2650  177.4940  136.8190 C   0  0  0  0  0  1  0  0  0  0  0  0
  1  7  1  0  0  0  0
  2 10  1  0  0  0  0
  3 23  1  6  0  0  0
  3  2  1  0  0  0  0
  4 17  1  0  0  0  0
  4 11  1  0  0  0  0
  6  3  1  0  0  0  0
  6  1  1  0  0  0  0
  7 10  2  0  0  0  0
  7  8  1  0  0  0  0
  8 11  1  0  0  0  0
  9  6  2  0  0  0  0
 10  4  1  0  0  0  0
 11  5  2  0  0  0  0
 12 13  1  0  0  0  0
 12 14  1  0  0  0  0
 14 22  1  6  0  0  0
 14 15  1  0  0  0  0
 15 16  1  1  0  0  0
 15 19  1  0  0  0  0
 17 13  1  6  0  0  0
 17 18  1  0  0  0  0
 18 20  1  0  0  0  0
 19 20  1  0  0  0  0
 21 22  1  0  0  0  0
 23 24  1  0  0  0  0
 25 24  1  0  0  0  0
 26 25  1  0  0  0  0
 27 26  1  0  0  0  0
 28 35  1  6  0  0  0
 28 27  1  0  0  0  0
 29 30  1  0  0  0  0
 29 28  1  0  0  0  0
 31 32  1  1  0  0  0
 33 30  1  1  0  0  0
 33 34  1  0  0  0  0
 33 31  1  0  0  0  0
 34 31  1  0  0  0  0
 35 36  1  0  0  0  0
 36 41  1  0  0  0  0
 39 36  1  6  0  0  0
 39 38  1  0  0  0  0
 40 39  1  0  0  0  0
 40 37  1  1  0  0  0
 40 38  1  0  0  0  0
 41 42  1  0  0  0  0
 43 42  1  0  0  0  0
M  END
>  <MODEL>
7

>  <REMARK>
 VINA RESULT:      -7.7      1.298      3.409
  Name = 
  16 active torsions:
  status: ('A' for Active; 'I' for Inactive)
    1  A    between atoms: C_7  and  O_39
    2  A    between atoms: N_9  and  C_20
    3  A    between atoms: C_11  and  C_24
    4  A    between atoms: C_11  and  O_30
    5  A    between atoms: C_13  and  O_42
    6  A    between atoms: C_15  and  C_17
    7  A    between atoms: C_15  and  N_33
    8  A    between atoms: C_16  and  C_18
    9  A    between atoms: C_16  and  O_21
   10  A    between atoms: O_21  and  C_22
   11  A    between atoms: C_22  and  C_26
   12  A    between atoms: C_22  and  C_43
   13  A    between atoms: C_24  and  O_39
   14  A    between atoms: C_26  and  N_33
   15  A    between atoms: O_30  and  C_43
   16  A    between atoms: C_32  and  N_33
                            x       y       z     vdW  Elec       q    Type
                         _______ _______ _______ _____ _____    ______ ____

>  <TORSDO>
F 16

$$$$
=
 OpenBabel10222415173D

 43 47  0  0  1  0  0  0  0  0999 V2000
  189.3570  176.9720  146.6370 C   0  0  0  0  0  2  0  0  0  0  0  0
  188.3130  177.5520  143.8130 C   0  0  0  0  0  2  0  0  0  0  0  0
  189.3890  176.4820  144.0590 C   0  0  2  0  0  3  0  0  0  0  0  0
  186.3000  178.3260  145.1680 N   0  0  0  0  0  0  0  0  0  0  0  0
  185.0510  178.8900  147.0150 O   0  0  0  0  0  0  0  0  0  0  0  0
  190.1320  176.7460  145.3570 C   0  0  0  0  0  0  0  0  0  0  0  0
  188.0170  177.5690  146.3310 C   0  0  0  0  0  0  0  0  0  0  0  0
  187.1180  177.9700  147.1980 O   0  0  0  0  0  0  0  0  0  0  0  0
  191.3510  176.7310  145.3880 O   0  0  0  0  0  0  0  0  0  0  0  0
  187.5240  177.7760  145.0630 C   0  0  0  0  0  0  0  0  0  0  0  0
  186.0970  178.4160  146.4970 C   0  0  0  0  0  0  0  0  0  0  0  0
  183.0040  179.4280  143.9230 C   0  0  0  0  0  2  0  0  0  0  0  0
  183.9650  178.3810  144.4470 C   0  0  0  0  0  2  0  0  0  0  0  0
  182.0380  178.8200  142.9060 C   0  0  2  0  0  3  0  0  0  0  0  0
  182.5750  178.7850  141.4660 C   0  0  2  0  0  3  0  0  0  0  0  0
  181.5960  178.2760  140.6150 O   0  0  0  0  0  1  0  0  0  0  0  0
  185.3970  178.7550  144.0990 C   0  0  2  0  0  3  0  0  0  0  0  0
  185.8430  178.1640  142.7630 C   0  0  0  0  0  2  0  0  0  0  0  0
  183.8170  177.9190  141.3460 C   0  0  0  0  0  2  0  0  0  0  0  0
  185.0670  178.7400  141.5940 C   0  0  0  0  0  2  0  0  0  0  0  0
  180.0130  178.6670  143.9660 C   0  0  0  0  0  1  0  0  0  0  0  0
  180.7450  179.3810  143.0030 O   0  0  0  0  0  0  0  0  0  0  0  0
  190.2660  176.4570  142.9700 O   0  0  0  0  0  0  0  0  0  0  0  0
  189.6830  177.2810  141.9980 C   0  0  0  0  0  2  0  0  0  0  0  0
  190.6350  177.5010  140.8240 C   0  0  0  0  0  2  0  0  0  0  0  0
  190.6710  176.3670  140.0080 O   0  0  0  0  0  0  0  0  0  0  0  0
  189.5800  176.5100  139.1480 C   0  0  0  0  0  2  0  0  0  0  0  0
  189.8170  177.6300  138.1360 C   0  0  2  0  0  3  0  0  0  0  0  0
  188.6790  178.4370  138.0290 O   0  0  0  0  0  0  0  0  0  0  0  0
  187.6030  177.5550  138.1450 C   0  0  0  0  0  2  0  0  0  0  0  0
  185.8060  177.6490  136.3190 C   0  0  2  0  0  3  0  0  0  0  0  0
  186.5990  176.4770  135.7450 C   0  0  0  0  0  1  0  0  0  0  0  0
  186.3370  178.2210  137.6360 C   0  0  1  0  0  3  0  0  0  0  0  0
  185.1930  177.2350  137.6400 C   0  0  0  0  0  2  0  0  0  0  0  0
  190.1610  177.0590  136.7680 C   0  0  0  0  0  2  0  0  0  0  0  0
  190.7000  175.7070  136.9040 N   0  0  0  0  0  0  0  0  0  0  0  0
  188.1500  173.2660  136.1590 O   0  0  0  0  0  1  0  0  0  0  0  0
  190.5120  173.4260  136.0530 C   0  0  0  0  0  2  0  0  0  0  0  0
  189.9340  174.8290  136.0260 C   0  0  1  0  0  3  0  0  0  0  0  0
  189.2660  173.7380  136.8490 C   0  0  1  0  0  3  0  0  0  0  0  0
  192.1160  175.7050  136.5050 C   0  0  0  0  0  2  0  0  0  0  0  0
  193.0770  175.4050  137.6610 C   0  0  0  0  0  2  0  0  0  0  0  0
  194.3990  174.9270  137.1070 C   0  0  0  0  0  1  0  0  0  0  0  0
  2  3  1  0  0  0  0
  2 10  1  0  0  0  0
  3 23  1  6  0  0  0
  3  6  1  0  0  0  0
  4 11  1  0  0  0  0
  6  9  2  0  0  0  0
  6  1  1  0  0  0  0
  7  1  1  0  0  0  0
  7  8  1  0  0  0  0
 10  4  1  0  0  0  0
 10  7  2  0  0  0  0
 11  5  2  0  0  0  0
 11  8  1  0  0  0  0
 12 13  1  0  0  0  0
 14 22  1  6  0  0  0
 14 12  1  0  0  0  0
 15 16  1  6  0  0  0
 15 14  1  0  0  0  0
 17 18  1  6  0  0  0
 17 13  1  0  0  0  0
 17  4  1  0  0  0  0
 19 15  1  0  0  0  0
 19 20  1  0  0  0  0
 20 18  1  0  0  0  0
 22 21  1  0  0  0  0
 24 23  1  0  0  0  0
 25 24  1  0  0  0  0
 26 25  1  0  0  0  0
 27 26  1  0  0  0  0
 28 35  1  6  0  0  0
 28 27  1  0  0  0  0
 29 28  1  0  0  0  0
 29 30  1  0  0  0  0
 31 32  1  1  0  0  0
 31 33  1  0  0  0  0
 31 34  1  0  0  0  0
 33 34  1  0  0  0  0
 33 30  1  1  0  0  0
 35 36  1  0  0  0  0
 38 40  1  0  0  0  0
 39 38  1  0  0  0  0
 39 40  1  0  0  0  0
 39 36  1  1  0  0  0
 40 37  1  6  0  0  0
 41 36  1  0  0  0  0
 41 42  1  0  0  0  0
 43 42  1  0  0  0  0
M  END
>  <MODEL>
8

>  <REMARK>
 VINA RESULT:      -7.4      1.878      5.717
  Name = 
  16 active torsions:
  status: ('A' for Active; 'I' for Inactive)
    1  A    between atoms: C_7  and  O_39
    2  A    between atoms: N_9  and  C_20
    3  A    between atoms: C_11  and  C_24
    4  A    between atoms: C_11  and  O_30
    5  A    between atoms: C_13  and  O_42
    6  A    between atoms: C_15  and  C_17
    7  A    between atoms: C_15  and  N_33
    8  A    between atoms: C_16  and  C_18
    9  A    between atoms: C_16  and  O_21
   10  A    between atoms: O_21  and  C_22
   11  A    between atoms: C_22  and  C_26
   12  A    between atoms: C_22  and  C_43
   13  A    between atoms: C_24  and  O_39
   14  A    between atoms: C_26  and  N_33
   15  A    between atoms: O_30  and  C_43
   16  A    between atoms: C_32  and  N_33
                            x       y       z     vdW  Elec       q    Type
                         _______ _______ _______ _____ _____    ______ ____

>  <TORSDO>
F 16

$$$$
=
 OpenBabel10222415173D

 43 47  0  0  1  0  0  0  0  0999 V2000
  189.5690  177.0570  147.3380 C   0  0  0  0  0  2  0  0  0  0  0  0
  188.7980  177.7900  144.4630 C   0  0  0  0  0  2  0  0  0  0  0  0
  189.9320  176.7930  144.7520 C   0  0  2  0  0  3  0  0  0  0  0  0
  186.5850  178.2810  145.6240 N   0  0  0  0  0  0  0  0  0  0  0  0
  185.0920  178.5820  147.3480 O   0  0  0  0  0  0  0  0  0  0  0  0
  190.4990  177.0050  146.1460 C   0  0  0  0  0  0  0  0  0  0  0  0
  188.2230  177.5680  146.9220 C   0  0  0  0  0  0  0  0  0  0  0  0
  187.2000  177.8190  147.7050 O   0  0  0  0  0  0  0  0  0  0  0  0
  191.7020  177.0850  146.3200 O   0  0  0  0  0  0  0  0  0  0  0  0
  187.8570  177.8420  145.6240 C   0  0  0  0  0  0  0  0  0  0  0  0
  186.2280  178.2400  146.9240 C   0  0  0  0  0  0  0  0  0  0  0  0
  183.4520  179.5740  144.1630 C   0  0  0  0  0  2  0  0  0  0  0  0
  184.2990  178.4820  144.7830 C   0  0  0  0  0  2  0  0  0  0  0  0
  182.4900  178.9930  143.1260 C   0  0  2  0  0  3  0  0  0  0  0  0
  183.0900  178.8440  141.7180 C   0  0  2  0  0  3  0  0  0  0  0  0
  182.1150  178.3720  140.8420 O   0  0  0  0  0  1  0  0  0  0  0  0
  185.7720  178.7250  144.4920 C   0  0  2  0  0  3  0  0  0  0  0  0
  186.2310  178.0350  143.2100 C   0  0  0  0  0  2  0  0  0  0  0  0
  184.2630  177.8790  141.7020 C   0  0  0  0  0  2  0  0  0  0  0  0
  185.5610  178.6110  141.9770 C   0  0  0  0  0  2  0  0  0  0  0  0
  180.3670  178.9710  143.9860 C   0  0  0  0  0  1  0  0  0  0  0  0
  181.2430  179.6580  143.1300 O   0  0  0  0  0  0  0  0  0  0  0  0
  190.9230  176.9320  143.7760 O   0  0  0  0  0  0  0  0  0  0  0  0
  190.4400  176.2550  142.6490 C   0  0  0  0  0  2  0  0  0  0  0  0
  190.5690  177.1160  141.3950 C   0  0  0  0  0  2  0  0  0  0  0  0
  190.2580  176.3670  140.2570 O   0  0  0  0  0  0  0  0  0  0  0  0
  190.1030  177.3100  139.2380 C   0  0  0  0  0  2  0  0  0  0  0  0
  189.3470  176.7200  138.0480 C   0  0  2  0  0  3  0  0  0  0  0  0
  189.8590  177.2270  136.8480 O   0  0  0  0  0  0  0  0  0  0  0  0
  190.9650  176.4240  136.5650 C   0  0  0  0  0  2  0  0  0  0  0  0
  191.2300  174.0020  135.7640 C   0  0  2  0  0  3  0  0  0  0  0  0
  192.1430  174.6470  134.7240 C   0  0  0  0  0  1  0  0  0  0  0  0
  190.6070  174.9640  136.7800 C   0  0  1  0  0  3  0  0  0  0  0  0
  191.8420  174.1730  137.1390 C   0  0  0  0  0  2  0  0  0  0  0  0
  187.8630  177.0390  138.1390 C   0  0  0  0  0  2  0  0  0  0  0  0
  187.1680  176.5670  136.9440 N   0  0  0  0  0  0  0  0  0  0  0  0
  187.3410  172.9800  136.6070 O   0  0  0  0  0  1  0  0  0  0  0  0
  185.8310  174.7230  136.0640 C   0  0  0  0  0  2  0  0  0  0  0  0
  186.7270  175.1980  137.1920 C   0  0  1  0  0  3  0  0  0  0  0  0
  187.2750  174.2810  136.1100 C   0  0  1  0  0  3  0  0  0  0  0  0
  186.0030  177.4290  136.6850 C   0  0  0  0  0  2  0  0  0  0  0  0
  185.2690  177.8650  137.9580 C   0  0  0  0  0  2  0  0  0  0  0  0
  183.7870  177.9630  137.6780 C   0  0  0  0  0  1  0  0  0  0  0  0
  2  3  1  0  0  0  0
  2 10  1  0  0  0  0
  3 23  1  6  0  0  0
  3  6  1  0  0  0  0
  4 11  1  0  0  0  0
  6  9  2  0  0  0  0
  6  1  1  0  0  0  0
  7  1  1  0  0  0  0
  7  8  1  0  0  0  0
 10  4  1  0  0  0  0
 10  7  2  0  0  0  0
 11  5  2  0  0  0  0
 11  8  1  0  0  0  0
 12 13  1  0  0  0  0
 14 22  1  6  0  0  0
 14 12  1  0  0  0  0
 15 16  1  6  0  0  0
 15 14  1  0  0  0  0
 17 18  1  6  0  0  0
 17 13  1  0  0  0  0
 17  4  1  0  0  0  0
 19 15  1  0  0  0  0
 19 20  1  0  0  0  0
 20 18  1  0  0  0  0
 22 21  1  0  0  0  0
 24 23  1  0  0  0  0
 25 24  1  0  0  0  0
 26 25  1  0  0  0  0
 27 26  1  0  0  0  0
 28 35  1  1  0  0  0
 28 27  1  0  0  0  0
 29 28  1  0  0  0  0
 30 29  1  0  0  0  0
 31 32  1  6  0  0  0
 31 33  1  0  0  0  0
 31 34  1  0  0  0  0
 33 30  1  6  0  0  0
 33 34  1  0  0  0  0
 36 35  1  0  0  0  0
 38 40  1  0  0  0  0
 38 39  1  0  0  0  0
 39 36  1  6  0  0  0
 40 37  1  1  0  0  0
 40 39  1  0  0  0  0
 41 36  1  0  0  0  0
 41 42  1  0  0  0  0
 43 42  1  0  0  0  0
M  END
>  <MODEL>
9

>  <REMARK>
 VINA RESULT:      -7.4      1.790      6.165
  Name = 
  16 active torsions:
  status: ('A' for Active; 'I' for Inactive)
    1  A    between atoms: C_7  and  O_39
    2  A    between atoms: N_9  and  C_20
    3  A    between atoms: C_11  and  C_24
    4  A    between atoms: C_11  and  O_30
    5  A    between atoms: C_13  and  O_42
    6  A    between atoms: C_15  and  C_17
    7  A    between atoms: C_15  and  N_33
    8  A    between atoms: C_16  and  C_18
    9  A    between atoms: C_16  and  O_21
   10  A    between atoms: O_21  and  C_22
   11  A    between atoms: C_22  and  C_26
   12  A    between atoms: C_22  and  C_43
   13  A    between atoms: C_24  and  O_39
   14  A    between atoms: C_26  and  N_33
   15  A    between atoms: O_30  and  C_43
   16  A    between atoms: C_32  and  N_33
                            x       y       z     vdW  Elec       q    Type
                         _______ _______ _______ _____ _____    ______ ____

>  <TORSDO>
F 16

$$$$
