=
 OpenBabel10222417003D

 40 45  0  0  1  0  0  0  0  0999 V2000
  187.1130  178.1190  139.3560 C   0  0  0  0  0  0  0  0  0  0  0  0
  187.9480  176.6830  137.5460 C   0  0  0  0  0  3  0  0  0  0  0  0
  186.0910  178.8210  139.9040 N   0  0  0  0  0  0  0  0  0  0  0  0
  191.2580  176.3480  138.9230 C   0  0  0  0  0  3  0  0  0  0  0  0
  189.3800  177.3410  139.3790 C   0  0  0  0  0  0  0  0  0  0  0  0
  189.1800  176.6680  138.2010 C   0  0  0  0  0  0  0  0  0  0  0  0
  188.3660  178.0790  139.9920 C   0  0  0  0  0  3  0  0  0  0  0  0
  190.6390  177.1600  139.8170 N   0  0  0  0  0  0  0  0  0  0  0  0
  185.6510  177.4820  137.5420 C   0  0  0  0  0  3  0  0  0  0  0  0
  190.3710  176.0320  137.8940 C   0  0  0  0  0  0  0  0  0  0  0  0
  184.8720  178.8660  139.3030 C   0  0  0  0  0  0  0  0  0  0  0  0
  184.6610  178.2000  138.1350 N   0  0  0  0  0  0  0  0  0  0  0  0
  183.8150  179.6090  139.8960 N   0  0  0  0  0  1  0  0  0  0  0  0
  186.9090  177.4210  138.1350 C   0  0  0  0  0  0  0  0  0  0  0  0
  194.2610  173.9080  134.7190 C   0  0  1  0  0  3  0  0  0  0  0  0
  194.1820  172.9770  136.2760 S   0  0  0  0  0  0  0  0  0  0  0  0
  191.1450  173.9810  136.9070 N   0  0  0  0  0  2  0  0  0  0  0  0
  193.1990  174.9900  134.7460 C   0  0  0  0  0  2  0  0  0  0  0  0
  192.5680  172.2550  135.8400 C   0  0  0  0  0  2  0  0  0  0  0  0
  190.6190  175.7430  135.0390 S   0  0  0  0  0  0  0  0  0  0  0  0
  191.7870  174.4110  134.6290 C   0  0  2  0  0  3  0  0  0  0  0  0
  195.6260  174.5510  134.5950 C   0  0  0  0  0  1  0  0  0  0  0  0
  191.4860  173.3190  135.6640 C   0  0  2  0  0  3  0  0  0  0  0  0
  190.6790  175.1720  136.7390 C   0  0  2  0  0  3  0  0  0  0  0  0
  192.7190  177.6050  141.0660 C   0  0  0  0  0  1  0  0  0  0  0  0
  191.1990  177.6670  141.0720 C   0  0  2  0  0  3  0  0  0  0  0  0
  190.6380  176.9600  142.2770 C   0  0  0  0  0  0  0  0  0  0  0  0
  190.4240  175.7590  142.2130 O   0  0  0  0  0  0  0  0  0  0  0  0
  190.3720  177.6840  143.5670 C   0  0  0  0  0  2  0  0  0  0  0  0
  189.4870  176.8850  144.5270 C   0  0  1  0  0  3  0  0  0  0  0  0
  190.0520  176.8260  145.7900 F   0  0  0  0  0  0  0  0  0  0  0  0
  185.4440  178.3720  144.6130 C   0  0  0  0  0  0  0  0  0  0  0  0
  186.0020  177.8860  143.4210 C   0  0  0  0  0  3  0  0  0  0  0  0
  188.0780  177.3920  144.5710 C   0  0  0  0  0  0  0  0  0  0  0  0
  187.5270  177.8840  145.7620 C   0  0  0  0  0  3  0  0  0  0  0  0
  186.2160  178.3690  145.7820 C   0  0  0  0  0  3  0  0  0  0  0  0
  187.3120  177.4000  143.4010 C   0  0  0  0  0  3  0  0  0  0  0  0
  184.0610  178.8800  144.6360 C   0  0  0  0  0  0  0  0  0  0  0  0
  183.3630  179.1280  143.4190 N   0  0  0  0  0  1  0  0  0  0  0  0
  183.4850  179.1050  145.7330 O   0  0  0  0  0  0  0  0  0  0  0  0
  1  3  1  0  0  0  0
  1  7  1  0  0  0  0
  2 14  1  0  0  0  0
  2  6  2  0  0  0  0
  4  8  1  0  0  0  0
  5  8  1  0  0  0  0
  5  7  2  0  0  0  0
  6  5  1  0  0  0  0
  8 26  1  0  0  0  0
  9 14  1  0  0  0  0
  9 12  2  0  0  0  0
 10  6  1  0  0  0  0
 10  4  2  0  0  0  0
 11 13  1  0  0  0  0
 11  3  2  0  0  0  0
 12 11  1  0  0  0  0
 14  1  2  0  0  0  0
 15 22  1  1  0  0  0
 15 18  1  0  0  0  0
 15 16  1  0  0  0  0
 19 16  1  0  0  0  0
 20 24  1  0  0  0  0
 21 18  1  1  0  0  0
 21 20  1  0  0  0  0
 21 23  1  0  0  0  0
 23 19  1  1  0  0  0
 23 17  1  0  0  0  0
 24 17  1  0  0  0  0
 24 10  1  1  0  0  0
 26 25  1  6  0  0  0
 26 27  1  0  0  0  0
 27 29  1  0  0  0  0
 28 27  2  0  0  0  0
 29 30  1  0  0  0  0
 30 34  1  0  0  0  0
 30 31  1  1  0  0  0
 32 38  1  0  0  0  0
 32 36  1  0  0  0  0
 33 32  2  0  0  0  0
 34 35  1  0  0  0  0
 35 36  2  0  0  0  0
 37 33  1  0  0  0  0
 37 34  2  0  0  0  0
 38 40  2  0  0  0  0
 39 38  1  0  0  0  0
M  END
>  <MODEL>
1

>  <REMARK>
 VINA RESULT:      -9.4      0.000      0.000
  Name = 
  7 active torsions:
  status: ('A' for Active; 'I' for Inactive)
    1  A    between atoms: C_1  and  C_5
    2  A    between atoms: C_7  and  C_21
    3  A    between atoms: C_7  and  C_23
    4  A    between atoms: C_14  and  N_20
    5  A    between atoms: C_14  and  C_23
    6  A    between atoms: C_16  and  C_21
    7  A    between atoms: C_27  and  C_40
                            x       y       z     vdW  Elec       q    Type
                         _______ _______ _______ _____ _____    ______ ____

>  <TORSDO>
F 7

$$$$
=
 OpenBabel10222417003D

 40 45  0  0  1  0  0  0  0  0999 V2000
  185.2750  178.7660  142.7380 C   0  0  0  0  0  0  0  0  0  0  0  0
  183.7090  178.3490  140.8920 C   0  0  0  0  0  3  0  0  0  0  0  0
  185.4830  178.9610  144.0640 N   0  0  0  0  0  0  0  0  0  0  0  0
  186.2540  178.2610  138.3460 C   0  0  0  0  0  3  0  0  0  0  0  0
  186.0830  178.5620  140.4910 C   0  0  0  0  0  0  0  0  0  0  0  0
  184.8070  178.3600  140.0310 C   0  0  0  0  0  0  0  0  0  0  0  0
  186.3600  178.7670  141.8440 C   0  0  0  0  0  3  0  0  0  0  0  0
  186.9630  178.5120  139.4750 N   0  0  0  0  0  0  0  0  0  0  0  0
  182.9100  178.5580  143.1800 C   0  0  0  0  0  3  0  0  0  0  0  0
  184.8990  178.1710  138.6630 C   0  0  0  0  0  0  0  0  0  0  0  0
  184.4440  178.9590  144.9420 C   0  0  0  0  0  0  0  0  0  0  0  0
  183.1730  178.7580  144.4980 N   0  0  0  0  0  0  0  0  0  0  0  0
  184.6860  179.1660  146.3280 N   0  0  0  0  0  1  0  0  0  0  0  0
  183.9540  178.5570  142.2590 C   0  0  0  0  0  0  0  0  0  0  0  0
  179.9760  175.9710  137.8560 C   0  0  1  0  0  3  0  0  0  0  0  0
  179.7880  177.5730  138.6880 S   0  0  0  0  0  0  0  0  0  0  0  0
  182.7270  178.5990  137.7220 N   0  0  0  0  0  2  0  0  0  0  0  0
  181.4510  175.7250  137.6030 C   0  0  0  0  0  2  0  0  0  0  0  0
  180.3080  178.4830  137.1990 C   0  0  0  0  0  2  0  0  0  0  0  0
  183.8200  176.5150  136.5670 S   0  0  0  0  0  0  0  0  0  0  0  0
  182.0070  176.6470  136.5150 C   0  0  2  0  0  3  0  0  0  0  0  0
  179.4350  174.8790  138.7550 C   0  0  0  0  0  1  0  0  0  0  0  0
  181.7340  178.1340  136.7750 C   0  0  2  0  0  3  0  0  0  0  0  0
  183.8150  177.9050  137.7010 C   0  0  2  0  0  3  0  0  0  0  0  0
  189.0690  178.8190  138.2270 C   0  0  0  0  0  1  0  0  0  0  0  0
  188.4210  178.6150  139.5880 C   0  0  2  0  0  3  0  0  0  0  0  0
  189.0260  177.4330  140.2980 C   0  0  0  0  0  0  0  0  0  0  0  0
  188.9780  176.3350  139.7660 O   0  0  0  0  0  0  0  0  0  0  0  0
  189.7190  177.5770  141.6240 C   0  0  0  0  0  2  0  0  0  0  0  0
  189.4790  176.3860  142.5540 C   0  0  1  0  0  3  0  0  0  0  0  0
  190.4570  175.4200  142.3860 F   0  0  0  0  0  0  0  0  0  0  0  0
  189.1010  177.5140  146.6950 C   0  0  0  0  0  0  0  0  0  0  0  0
  190.3630  177.2770  146.1300 C   0  0  0  0  0  3  0  0  0  0  0  0
  189.3370  176.7920  143.9890 C   0  0  0  0  0  0  0  0  0  0  0  0
  188.0730  177.0200  144.5510 C   0  0  0  0  0  3  0  0  0  0  0  0
  187.9570  177.3810  145.8960 C   0  0  0  0  0  3  0  0  0  0  0  0
  190.4790  176.9170  144.7850 C   0  0  0  0  0  3  0  0  0  0  0  0
  188.9780  177.8990  148.1120 C   0  0  0  0  0  0  0  0  0  0  0  0
  187.7460  177.7200  148.8040 N   0  0  0  0  0  1  0  0  0  0  0  0
  189.9610  178.3950  148.7230 O   0  0  0  0  0  0  0  0  0  0  0  0
  1  3  1  0  0  0  0
  2 14  2  0  0  0  0
  3 11  2  0  0  0  0
  4 10  2  0  0  0  0
  4  8  1  0  0  0  0
  5  7  1  0  0  0  0
  6  5  2  0  0  0  0
  6  2  1  0  0  0  0
  7  1  2  0  0  0  0
  8 26  1  0  0  0  0
  8  5  1  0  0  0  0
  9 12  2  0  0  0  0
 10  6  1  0  0  0  0
 11 13  1  0  0  0  0
 12 11  1  0  0  0  0
 14  1  1  0  0  0  0
 14  9  1  0  0  0  0
 15 16  1  0  0  0  0
 15 22  1  1  0  0  0
 18 15  1  0  0  0  0
 19 16  1  0  0  0  0
 20 24  1  0  0  0  0
 21 20  1  0  0  0  0
 21 23  1  0  0  0  0
 21 18  1  1  0  0  0
 23 19  1  1  0  0  0
 23 17  1  0  0  0  0
 24 17  1  0  0  0  0
 24 10  1  1  0  0  0
 26 25  1  6  0  0  0
 26 27  1  0  0  0  0
 27 29  1  0  0  0  0
 28 27  2  0  0  0  0
 29 30  1  0  0  0  0
 30 31  1  1  0  0  0
 30 34  1  0  0  0  0
 32 38  1  0  0  0  0
 33 32  1  0  0  0  0
 34 35  2  0  0  0  0
 34 37  1  0  0  0  0
 35 36  1  0  0  0  0
 36 32  2  0  0  0  0
 37 33  2  0  0  0  0
 38 40  2  0  0  0  0
 38 39  1  0  0  0  0
M  END
>  <MODEL>
2

>  <REMARK>
 VINA RESULT:      -8.9      4.238      7.319
  Name = 
  7 active torsions:
  status: ('A' for Active; 'I' for Inactive)
    1  A    between atoms: C_1  and  C_5
    2  A    between atoms: C_7  and  C_21
    3  A    between atoms: C_7  and  C_23
    4  A    between atoms: C_14  and  N_20
    5  A    between atoms: C_14  and  C_23
    6  A    between atoms: C_16  and  C_21
    7  A    between atoms: C_27  and  C_40
                            x       y       z     vdW  Elec       q    Type
                         _______ _______ _______ _____ _____    ______ ____

>  <TORSDO>
F 7

$$$$
=
 OpenBabel10222417003D

 40 45  0  0  1  0  0  0  0  0999 V2000
  184.9100  178.7720  142.0260 C   0  0  0  0  0  0  0  0  0  0  0  0
  183.6260  178.1180  140.0370 C   0  0  0  0  0  3  0  0  0  0  0  0
  184.9300  179.0740  143.3490 N   0  0  0  0  0  0  0  0  0  0  0  0
  186.4820  178.0360  137.8450 C   0  0  0  0  0  3  0  0  0  0  0  0
  186.0150  178.4720  139.9210 C   0  0  0  0  0  0  0  0  0  0  0  0
  184.8240  178.1480  139.3220 C   0  0  0  0  0  0  0  0  0  0  0  0
  186.0990  178.7900  141.2780 C   0  0  0  0  0  3  0  0  0  0  0  0
  187.0210  178.4160  139.0300 N   0  0  0  0  0  0  0  0  0  0  0  0
  182.5240  178.4270  142.1830 C   0  0  0  0  0  3  0  0  0  0  0  0
  185.1050  177.8720  137.9950 C   0  0  0  0  0  0  0  0  0  0  0  0
  183.7880  179.0570  144.0870 C   0  0  0  0  0  0  0  0  0  0  0  0
  182.6010  178.7360  143.5040 N   0  0  0  0  0  0  0  0  0  0  0  0
  183.8340  179.3770  145.4720 N   0  0  0  0  0  1  0  0  0  0  0  0
  183.6780  178.4370  141.4030 C   0  0  0  0  0  0  0  0  0  0  0  0
  180.9230  174.6660  136.5930 C   0  0  1  0  0  3  0  0  0  0  0  0
  180.3030  176.0770  137.5530 S   0  0  0  0  0  0  0  0  0  0  0  0
  182.9500  177.8720  136.9270 N   0  0  0  0  0  2  0  0  0  0  0  0
  182.4250  174.8080  136.4380 C   0  0  0  0  0  2  0  0  0  0  0  0
  180.6660  177.2420  136.2020 C   0  0  0  0  0  2  0  0  0  0  0  0
  184.5830  176.2470  135.6750 S   0  0  0  0  0  0  0  0  0  0  0  0
  182.7980  175.9490  135.4890 C   0  0  2  0  0  3  0  0  0  0  0  0
  180.6170  173.3850  137.3410 C   0  0  0  0  0  1  0  0  0  0  0  0
  182.1560  177.2910  135.8640 C   0  0  2  0  0  3  0  0  0  0  0  0
  184.1740  177.4630  136.9280 C   0  0  2  0  0  3  0  0  0  0  0  0
  189.2250  178.9200  138.0450 C   0  0  0  0  0  1  0  0  0  0  0  0
  188.4420  178.6300  139.3160 C   0  0  2  0  0  3  0  0  0  0  0  0
  189.0540  177.4820  140.0740 C   0  0  0  0  0  0  0  0  0  0  0  0
  189.0840  176.3780  139.5520 O   0  0  0  0  0  0  0  0  0  0  0  0
  189.6620  177.6670  141.4360 C   0  0  0  0  0  2  0  0  0  0  0  0
  189.4050  176.4820  142.3690 C   0  0  1  0  0  3  0  0  0  0  0  0
  190.5170  175.6610  142.4480 F   0  0  0  0  0  0  0  0  0  0  0  0
  187.9990  177.7310  146.2460 C   0  0  0  0  0  0  0  0  0  0  0  0
  187.1090  177.2080  145.2960 C   0  0  0  0  0  3  0  0  0  0  0  0
  188.9290  176.9060  143.7240 C   0  0  0  0  0  0  0  0  0  0  0  0
  189.8210  177.4370  144.6670 C   0  0  0  0  0  3  0  0  0  0  0  0
  189.3580  177.8440  145.9210 C   0  0  0  0  0  3  0  0  0  0  0  0
  187.5720  176.7990  144.0430 C   0  0  0  0  0  3  0  0  0  0  0  0
  187.5130  178.1580  147.5700 C   0  0  0  0  0  0  0  0  0  0  0  0
  188.2630  177.8600  148.7440 N   0  0  0  0  0  1  0  0  0  0  0  0
  186.4250  178.7840  147.6760 O   0  0  0  0  0  0  0  0  0  0  0  0
  1  3  1  0  0  0  0
  2 14  2  0  0  0  0
  3 11  2  0  0  0  0
  4 10  2  0  0  0  0
  4  8  1  0  0  0  0
  5  7  1  0  0  0  0
  6  5  2  0  0  0  0
  6  2  1  0  0  0  0
  7  1  2  0  0  0  0
  8 26  1  0  0  0  0
  8  5  1  0  0  0  0
  9 12  2  0  0  0  0
 10  6  1  0  0  0  0
 11 13  1  0  0  0  0
 12 11  1  0  0  0  0
 14  1  1  0  0  0  0
 14  9  1  0  0  0  0
 15 22  1  1  0  0  0
 15 16  1  0  0  0  0
 17 24  1  0  0  0  0
 18 15  1  0  0  0  0
 19 16  1  0  0  0  0
 20 24  1  0  0  0  0
 21 20  1  0  0  0  0
 21 23  1  0  0  0  0
 21 18  1  1  0  0  0
 23 19  1  1  0  0  0
 23 17  1  0  0  0  0
 24 10  1  1  0  0  0
 26 25  1  6  0  0  0
 26 27  1  0  0  0  0
 27 29  1  0  0  0  0
 28 27  2  0  0  0  0
 29 30  1  0  0  0  0
 30 31  1  1  0  0  0
 30 34  1  0  0  0  0
 32 38  1  0  0  0  0
 33 32  2  0  0  0  0
 34 37  2  0  0  0  0
 34 35  1  0  0  0  0
 35 36  2  0  0  0  0
 36 32  1  0  0  0  0
 37 33  1  0  0  0  0
 38 40  2  0  0  0  0
 38 39  1  0  0  0  0
M  END
>  <MODEL>
3

>  <REMARK>
 VINA RESULT:      -8.8      4.000      6.646
  Name = 
  7 active torsions:
  status: ('A' for Active; 'I' for Inactive)
    1  A    between atoms: C_1  and  C_5
    2  A    between atoms: C_7  and  C_21
    3  A    between atoms: C_7  and  C_23
    4  A    between atoms: C_14  and  N_20
    5  A    between atoms: C_14  and  C_23
    6  A    between atoms: C_16  and  C_21
    7  A    between atoms: C_27  and  C_40
                            x       y       z     vdW  Elec       q    Type
                         _______ _______ _______ _____ _____    ______ ____

>  <TORSDO>
F 7

$$$$
=
 OpenBabel10222417003D

 40 45  0  0  1  0  0  0  0  0999 V2000
  182.2720  174.8330  137.7060 C   0  0  0  0  0  0  0  0  0  0  0  0
  184.3970  174.9360  136.4780 C   0  0  0  0  0  3  0  0  0  0  0  0
  181.1120  174.1810  137.9680 N   0  0  0  0  0  0  0  0  0  0  0  0
  185.4750  178.0200  137.9910 C   0  0  0  0  0  3  0  0  0  0  0  0
  183.7760  176.6670  138.0460 C   0  0  0  0  0  0  0  0  0  0  0  0
  184.6580  176.1360  137.1410 C   0  0  0  0  0  0  0  0  0  0  0  0
  182.5680  176.0420  138.3590 C   0  0  0  0  0  3  0  0  0  0  0  0
  184.2600  177.8140  138.5580 N   0  0  0  0  0  0  0  0  0  0  0  0
  182.8570  173.0820  136.1480 C   0  0  0  0  0  3  0  0  0  0  0  0
  185.7460  176.9900  137.0910 C   0  0  0  0  0  0  0  0  0  0  0  0
  180.8140  173.0090  137.3470 C   0  0  0  0  0  0  0  0  0  0  0  0
  181.6810  172.4700  136.4480 N   0  0  0  0  0  0  0  0  0  0  0  0
  179.5910  172.3420  137.6380 N   0  0  0  0  0  1  0  0  0  0  0  0
  183.1880  174.2840  136.7680 C   0  0  0  0  0  0  0  0  0  0  0  0
  191.1060  175.9880  137.0850 C   0  0  1  0  0  3  0  0  0  0  0  0
  190.2010  174.4190  137.2190 S   0  0  0  0  0  0  0  0  0  0  0  0
  187.4650  175.7070  136.0030 N   0  0  0  0  0  2  0  0  0  0  0  0
  190.1010  177.1200  136.9850 C   0  0  0  0  0  2  0  0  0  0  0  0
  189.5960  174.5440  135.5070 C   0  0  0  0  0  2  0  0  0  0  0  0
  187.9700  178.2710  135.7830 S   0  0  0  0  0  0  0  0  0  0  0  0
  189.3750  177.1240  135.6370 C   0  0  2  0  0  3  0  0  0  0  0  0
  191.9520  176.1800  138.3250 C   0  0  0  0  0  1  0  0  0  0  0  0
  188.7240  175.7800  135.2890 C   0  0  2  0  0  3  0  0  0  0  0  0
  186.9710  176.8670  136.2820 C   0  0  2  0  0  3  0  0  0  0  0  0
  183.1880  179.9780  139.0590 C   0  0  0  0  0  1  0  0  0  0  0  0
  183.6310  178.6280  139.6010 C   0  0  2  0  0  3  0  0  0  0  0  0
  184.5170  178.7990  140.8070 C   0  0  0  0  0  0  0  0  0  0  0  0
  185.3870  179.6550  140.7850 O   0  0  0  0  0  0  0  0  0  0  0  0
  184.3320  177.9710  142.0480 C   0  0  0  0  0  2  0  0  0  0  0  0
  184.2410  178.8180  143.3200 C   0  0  1  0  0  3  0  0  0  0  0  0
  182.9670  178.7640  143.8620 F   0  0  0  0  0  0  0  0  0  0  0  0
  187.2590  177.8420  146.2360 C   0  0  0  0  0  0  0  0  0  0  0  0
  186.0860  178.5110  146.6170 C   0  0  0  0  0  3  0  0  0  0  0  0
  185.2900  178.4620  144.3280 C   0  0  0  0  0  0  0  0  0  0  0  0
  186.4650  177.8010  143.9410 C   0  0  0  0  0  3  0  0  0  0  0  0
  187.4420  177.4910  144.8910 C   0  0  0  0  0  3  0  0  0  0  0  0
  185.1080  178.8190  145.6670 C   0  0  0  0  0  3  0  0  0  0  0  0
  188.2880  177.5120  147.2370 C   0  0  0  0  0  0  0  0  0  0  0  0
  189.6670  177.4930  146.8760 N   0  0  0  0  0  1  0  0  0  0  0  0
  187.9580  177.2370  148.4210 O   0  0  0  0  0  0  0  0  0  0  0  0
  1  3  1  0  0  0  0
  1  7  1  0  0  0  0
  2 14  1  0  0  0  0
  2  6  2  0  0  0  0
  4  8  1  0  0  0  0
  5  7  2  0  0  0  0
  5  8  1  0  0  0  0
  6  5  1  0  0  0  0
  8 26  1  0  0  0  0
  9 12  2  0  0  0  0
  9 14  1  0  0  0  0
 10  6  1  0  0  0  0
 10  4  2  0  0  0  0
 11 13  1  0  0  0  0
 11  3  2  0  0  0  0
 12 11  1  0  0  0  0
 14  1  2  0  0  0  0
 15 16  1  0  0  0  0
 15 22  1  1  0  0  0
 17 24  1  0  0  0  0
 18 15  1  0  0  0  0
 19 16  1  0  0  0  0
 20 24  1  0  0  0  0
 21 20  1  0  0  0  0
 21 18  1  1  0  0  0
 23 19  1  1  0  0  0
 23 21  1  0  0  0  0
 23 17  1  0  0  0  0
 24 10  1  1  0  0  0
 26 25  1  6  0  0  0
 26 27  1  0  0  0  0
 27 29  1  0  0  0  0
 28 27  2  0  0  0  0
 29 30  1  0  0  0  0
 30 31  1  1  0  0  0
 30 34  1  0  0  0  0
 32 33  1  0  0  0  0
 32 38  1  0  0  0  0
 34 37  1  0  0  0  0
 35 34  2  0  0  0  0
 35 36  1  0  0  0  0
 36 32  2  0  0  0  0
 37 33  2  0  0  0  0
 38 40  2  0  0  0  0
 39 38  1  0  0  0  0
M  END
>  <MODEL>
4

>  <REMARK>
 VINA RESULT:      -8.5      3.607      5.574
  Name = 
  7 active torsions:
  status: ('A' for Active; 'I' for Inactive)
    1  A    between atoms: C_1  and  C_5
    2  A    between atoms: C_7  and  C_21
    3  A    between atoms: C_7  and  C_23
    4  A    between atoms: C_14  and  N_20
    5  A    between atoms: C_14  and  C_23
    6  A    between atoms: C_16  and  C_21
    7  A    between atoms: C_27  and  C_40
                            x       y       z     vdW  Elec       q    Type
                         _______ _______ _______ _____ _____    ______ ____

>  <TORSDO>
F 7

$$$$
=
 OpenBabel10222417003D

 40 45  0  0  1  0  0  0  0  0999 V2000
  185.8170  178.4430  139.9740 C   0  0  0  0  0  0  0  0  0  0  0  0
  183.7120  178.9060  138.7950 C   0  0  0  0  0  3  0  0  0  0  0  0
  187.1590  178.2520  139.9250 N   0  0  0  0  0  0  0  0  0  0  0  0
  181.6810  178.8640  141.7670 C   0  0  0  0  0  3  0  0  0  0  0  0
  183.7570  178.5910  141.1910 C   0  0  0  0  0  0  0  0  0  0  0  0
  183.0690  178.8410  140.0320 C   0  0  0  0  0  0  0  0  0  0  0  0
  185.1390  178.3880  141.2040 C   0  0  0  0  0  3  0  0  0  0  0  0
  182.9210  178.5940  142.2450 N   0  0  0  0  0  0  0  0  0  0  0  0
  185.8130  178.7530  137.5790 C   0  0  0  0  0  3  0  0  0  0  0  0
  181.7410  179.0130  140.3820 C   0  0  0  0  0  0  0  0  0  0  0  0
  187.8290  178.3060  138.7430 C   0  0  0  0  0  0  0  0  0  0  0  0
  187.1580  178.5540  137.5860 N   0  0  0  0  0  0  0  0  0  0  0  0
  189.2370  178.1020  138.7160 N   0  0  0  0  0  1  0  0  0  0  0  0
  185.1010  178.7010  138.7740 C   0  0  0  0  0  0  0  0  0  0  0  0
  180.0620  181.2380  135.6960 C   0  0  1  0  0  3  0  0  0  0  0  0
  180.7810  179.6050  135.3620 S   0  0  0  0  0  0  0  0  0  0  0  0
  180.3760  178.6190  138.4420 N   0  0  0  0  0  2  0  0  0  0  0  0
  180.1140  181.4950  137.1900 C   0  0  0  0  0  2  0  0  0  0  0  0
  179.3910  178.7530  136.1720 C   0  0  0  0  0  2  0  0  0  0  0  0
  179.5370  180.7470  139.7240 S   0  0  0  0  0  0  0  0  0  0  0  0
  179.1240  180.6150  137.9580 C   0  0  2  0  0  3  0  0  0  0  0  0
  180.8770  182.2950  134.9800 C   0  0  0  0  0  1  0  0  0  0  0  0
  179.2700  179.1190  137.6510 C   0  0  2  0  0  3  0  0  0  0  0  0
  180.5950  179.3140  139.5070 C   0  0  2  0  0  3  0  0  0  0  0  0
  182.1840  178.8750  144.5820 C   0  0  0  0  0  1  0  0  0  0  0  0
  183.3020  178.4320  143.6510 C   0  0  2  0  0  3  0  0  0  0  0  0
  184.5880  179.1410  143.9820 C   0  0  0  0  0  0  0  0  0  0  0  0
  184.6150  180.3610  143.9580 O   0  0  0  0  0  0  0  0  0  0  0  0
  185.8270  178.3880  144.3790 C   0  0  0  0  0  2  0  0  0  0  0  0
  186.1170  178.4680  145.8790 C   0  0  1  0  0  3  0  0  0  0  0  0
  185.1500  177.7960  146.6090 F   0  0  0  0  0  0  0  0  0  0  0  0
  190.0850  177.0940  146.8470 C   0  0  0  0  0  0  0  0  0  0  0  0
  189.6760  177.2170  145.5110 C   0  0  0  0  0  3  0  0  0  0  0  0
  187.4990  178.0050  146.2270 C   0  0  0  0  0  0  0  0  0  0  0  0
  187.9000  177.8750  147.5640 C   0  0  0  0  0  3  0  0  0  0  0  0
  189.1870  177.4250  147.8710 C   0  0  0  0  0  3  0  0  0  0  0  0
  188.3900  177.6690  145.2030 C   0  0  0  0  0  3  0  0  0  0  0  0
  191.4430  176.6230  147.1720 C   0  0  0  0  0  0  0  0  0  0  0  0
  192.0750  175.6320  146.3670 N   0  0  0  0  0  1  0  0  0  0  0  0
  192.0550  177.0890  148.1700 O   0  0  0  0  0  0  0  0  0  0  0  0
  1  7  1  0  0  0  0
  2  6  2  0  0  0  0
  3  1  1  0  0  0  0
  4  8  1  0  0  0  0
  5  7  2  0  0  0  0
  5  8  1  0  0  0  0
  6 10  1  0  0  0  0
  6  5  1  0  0  0  0
  8 26  1  0  0  0  0
  9 12  2  0  0  0  0
  9 14  1  0  0  0  0
 10  4  2  0  0  0  0
 11  3  2  0  0  0  0
 12 11  1  0  0  0  0
 13 11  1  0  0  0  0
 14  2  1  0  0  0  0
 14  1  2  0  0  0  0
 15 22  1  6  0  0  0
 15 18  1  0  0  0  0
 16 15  1  0  0  0  0
 16 19  1  0  0  0  0
 17 24  1  0  0  0  0
 21 18  1  6  0  0  0
 21 20  1  0  0  0  0
 23 19  1  6  0  0  0
 23 21  1  0  0  0  0
 23 17  1  0  0  0  0
 24 20  1  0  0  0  0
 24 10  1  6  0  0  0
 26 27  1  0  0  0  0
 26 25  1  1  0  0  0
 27 29  1  0  0  0  0
 28 27  2  0  0  0  0
 29 30  1  0  0  0  0
 30 34  1  0  0  0  0
 30 31  1  1  0  0  0
 32 38  1  0  0  0  0
 32 36  1  0  0  0  0
 33 32  2  0  0  0  0
 34 35  1  0  0  0  0
 35 36  2  0  0  0  0
 37 33  1  0  0  0  0
 37 34  2  0  0  0  0
 38 40  2  0  0  0  0
 39 38  1  0  0  0  0
M  END
>  <MODEL>
5

>  <REMARK>
 VINA RESULT:      -8.4      4.952      8.868
  Name = 
  7 active torsions:
  status: ('A' for Active; 'I' for Inactive)
    1  A    between atoms: C_1  and  C_5
    2  A    between atoms: C_7  and  C_21
    3  A    between atoms: C_7  and  C_23
    4  A    between atoms: C_14  and  N_20
    5  A    between atoms: C_14  and  C_23
    6  A    between atoms: C_16  and  C_21
    7  A    between atoms: C_27  and  C_40
                            x       y       z     vdW  Elec       q    Type
                         _______ _______ _______ _____ _____    ______ ____

>  <TORSDO>
F 7

$$$$
=
 OpenBabel10222417003D

 40 45  0  0  1  0  0  0  0  0999 V2000
  186.2520  177.9720  137.6590 C   0  0  0  0  0  0  0  0  0  0  0  0
  183.8620  177.4140  137.7380 C   0  0  0  0  0  3  0  0  0  0  0  0
  187.4070  178.0430  136.9490 N   0  0  0  0  0  0  0  0  0  0  0  0
  183.4370  178.3800  141.1810 C   0  0  0  0  0  3  0  0  0  0  0  0
  185.0080  178.2740  139.6850 C   0  0  0  0  0  0  0  0  0  0  0  0
  183.8700  177.8140  139.0750 C   0  0  0  0  0  0  0  0  0  0  0  0
  186.2250  178.3710  139.0060 C   0  0  0  0  0  3  0  0  0  0  0  0
  184.7560  178.6100  140.9630 N   0  0  0  0  0  0  0  0  0  0  0  0
  185.1430  177.1150  135.6920 C   0  0  0  0  0  3  0  0  0  0  0  0
  182.8580  177.8710  140.0190 C   0  0  0  0  0  0  0  0  0  0  0  0
  187.4480  177.6640  135.6440 C   0  0  0  0  0  0  0  0  0  0  0  0
  186.3240  177.2070  135.0280 N   0  0  0  0  0  0  0  0  0  0  0  0
  188.6690  177.7470  134.9200 N   0  0  0  0  0  1  0  0  0  0  0  0
  185.0710  177.4950  137.0300 C   0  0  0  0  0  0  0  0  0  0  0  0
  179.1840  175.0570  137.1360 C   0  0  1  0  0  3  0  0  0  0  0  0
  180.0850  173.9230  138.2310 S   0  0  0  0  0  0  0  0  0  0  0  0
  181.0220  176.3300  140.2180 N   0  0  0  0  0  2  0  0  0  0  0  0
  179.7010  176.4640  137.3650 C   0  0  0  0  0  2  0  0  0  0  0  0
  179.2980  174.6240  139.7150 C   0  0  0  0  0  2  0  0  0  0  0  0
  180.2360  178.5290  139.0260 S   0  0  0  0  0  0  0  0  0  0  0  0
  179.2670  177.0200  138.7240 C   0  0  2  0  0  3  0  0  0  0  0  0
  179.4370  174.6610  135.6960 C   0  0  0  0  0  1  0  0  0  0  0  0
  179.6260  176.1040  139.9010 C   0  0  2  0  0  3  0  0  0  0  0  0
  181.4410  177.4990  139.8650 C   0  0  2  0  0  3  0  0  0  0  0  0
  187.1050  178.6300  141.7150 C   0  0  0  0  0  1  0  0  0  0  0  0
  185.7090  179.2020  141.9050 C   0  0  2  0  0  3  0  0  0  0  0  0
  185.2620  179.0620  143.3360 C   0  0  0  0  0  0  0  0  0  0  0  0
  184.5060  179.8990  143.8050 O   0  0  0  0  0  0  0  0  0  0  0  0
  185.6920  177.9010  144.1890 C   0  0  0  0  0  2  0  0  0  0  0  0
  186.0910  178.3190  145.6060 C   0  0  1  0  0  3  0  0  0  0  0  0
  185.1530  177.8920  146.5320 F   0  0  0  0  0  0  0  0  0  0  0  0
  190.0670  177.0060  146.6240 C   0  0  0  0  0  0  0  0  0  0  0  0
  189.6770  177.1330  145.2820 C   0  0  0  0  0  3  0  0  0  0  0  0
  187.4750  177.8760  145.9710 C   0  0  0  0  0  0  0  0  0  0  0  0
  187.8570  177.7420  147.3130 C   0  0  0  0  0  3  0  0  0  0  0  0
  189.1470  177.3120  147.6360 C   0  0  0  0  0  3  0  0  0  0  0  0
  188.3870  177.5650  144.9590 C   0  0  0  0  0  3  0  0  0  0  0  0
  191.4270  176.5550  146.9660 C   0  0  0  0  0  0  0  0  0  0  0  0
  192.0520  176.9970  148.1670 N   0  0  0  0  0  1  0  0  0  0  0  0
  192.0530  175.7800  146.1950 O   0  0  0  0  0  0  0  0  0  0  0  0
  1  7  1  0  0  0  0
  2  6  2  0  0  0  0
  3  1  1  0  0  0  0
  5  8  1  0  0  0  0
  6  5  1  0  0  0  0
  6 10  1  0  0  0  0
  7  5  2  0  0  0  0
  8  4  1  0  0  0  0
  8 26  1  0  0  0  0
  9 14  1  0  0  0  0
 10  4  2  0  0  0  0
 11  3  2  0  0  0  0
 12 11  1  0  0  0  0
 12  9  2  0  0  0  0
 13 11  1  0  0  0  0
 14  1  2  0  0  0  0
 14  2  1  0  0  0  0
 15 22  1  6  0  0  0
 15 18  1  0  0  0  0
 15 16  1  0  0  0  0
 16 19  1  0  0  0  0
 20 24  1  0  0  0  0
 21 18  1  6  0  0  0
 21 20  1  0  0  0  0
 21 23  1  0  0  0  0
 23 19  1  6  0  0  0
 23 17  1  0  0  0  0
 24 10  1  6  0  0  0
 24 17  1  0  0  0  0
 26 25  1  1  0  0  0
 26 27  1  0  0  0  0
 27 28  2  0  0  0  0
 27 29  1  0  0  0  0
 29 30  1  0  0  0  0
 30 34  1  0  0  0  0
 30 31  1  1  0  0  0
 32 38  1  0  0  0  0
 32 36  1  0  0  0  0
 33 32  2  0  0  0  0
 34 35  1  0  0  0  0
 35 36  2  0  0  0  0
 37 33  1  0  0  0  0
 37 34  2  0  0  0  0
 38 39  1  0  0  0  0
 40 38  2  0  0  0  0
M  END
>  <MODEL>
6

>  <REMARK>
 VINA RESULT:      -8.4      4.764      8.185
  Name = 
  7 active torsions:
  status: ('A' for Active; 'I' for Inactive)
    1  A    between atoms: C_1  and  C_5
    2  A    between atoms: C_7  and  C_21
    3  A    between atoms: C_7  and  C_23
    4  A    between atoms: C_14  and  N_20
    5  A    between atoms: C_14  and  C_23
    6  A    between atoms: C_16  and  C_21
    7  A    between atoms: C_27  and  C_40
                            x       y       z     vdW  Elec       q    Type
                         _______ _______ _______ _____ _____    ______ ____

>  <TORSDO>
F 7

$$$$
=
 OpenBabel10222417003D

 40 45  0  0  1  0  0  0  0  0999 V2000
  190.9600  174.8080  137.3860 C   0  0  0  0  0  0  0  0  0  0  0  0
  188.7420  175.7490  136.9090 C   0  0  0  0  0  3  0  0  0  0  0  0
  191.9600  173.9570  137.0440 N   0  0  0  0  0  0  0  0  0  0  0  0
  188.7410  177.9790  139.7360 C   0  0  0  0  0  3  0  0  0  0  0  0
  190.0180  176.4730  138.8300 C   0  0  0  0  0  0  0  0  0  0  0  0
  188.8920  176.5370  138.0510 C   0  0  0  0  0  0  0  0  0  0  0  0
  191.0810  175.6190  138.5280 C   0  0  0  0  0  3  0  0  0  0  0  0
  189.9300  177.3370  139.8580 N   0  0  0  0  0  0  0  0  0  0  0  0
  189.7160  174.0580  135.4570 C   0  0  0  0  0  3  0  0  0  0  0  0
  188.0650  177.4900  138.6190 C   0  0  0  0  0  0  0  0  0  0  0  0
  191.8590  173.1690  135.9410 C   0  0  0  0  0  0  0  0  0  0  0  0
  190.7470  173.2240  135.1590 N   0  0  0  0  0  0  0  0  0  0  0  0
  192.9200  172.2840  135.6020 N   0  0  0  0  0  1  0  0  0  0  0  0
  189.7910  174.8750  136.5810 C   0  0  0  0  0  0  0  0  0  0  0  0
  182.6610  176.9000  139.0450 C   0  0  1  0  0  3  0  0  0  0  0  0
  183.2730  177.8620  140.4570 S   0  0  0  0  0  0  0  0  0  0  0  0
  186.0100  178.7080  138.9010 N   0  0  0  0  0  2  0  0  0  0  0  0
  183.8320  176.5650  138.1420 C   0  0  0  0  0  2  0  0  0  0  0  0
  183.6550  179.2950  139.4020 C   0  0  0  0  0  2  0  0  0  0  0  0
  185.9560  177.3450  136.6620 S   0  0  0  0  0  0  0  0  0  0  0  0
  184.3590  177.7990  137.4050 C   0  0  2  0  0  3  0  0  0  0  0  0
  182.0380  175.6170  139.5520 C   0  0  0  0  0  1  0  0  0  0  0  0
  184.7010  178.9690  138.3370 C   0  0  2  0  0  3  0  0  0  0  0  0
  186.7400  177.9440  138.1600 C   0  0  2  0  0  3  0  0  0  0  0  0
  192.3590  177.5020  140.2520 C   0  0  0  0  0  1  0  0  0  0  0  0
  190.9680  177.5980  140.8590 C   0  0  2  0  0  3  0  0  0  0  0  0
  190.8440  176.7000  142.0610 C   0  0  0  0  0  0  0  0  0  0  0  0
  191.8590  176.3290  142.6300 O   0  0  0  0  0  0  0  0  0  0  0  0
  189.5050  176.2800  142.6000 C   0  0  0  0  0  2  0  0  0  0  0  0
  189.2640  176.7600  144.0330 C   0  0  1  0  0  3  0  0  0  0  0  0
  190.2430  177.6570  144.4290 F   0  0  0  0  0  0  0  0  0  0  0  0
  185.3130  178.3940  144.5700 C   0  0  0  0  0  0  0  0  0  0  0  0
  185.7740  178.0420  143.2930 C   0  0  0  0  0  3  0  0  0  0  0  0
  187.8870  177.3160  144.2330 C   0  0  0  0  0  0  0  0  0  0  0  0
  187.4330  177.6740  145.5100 C   0  0  0  0  0  3  0  0  0  0  0  0
  186.1530  178.2080  145.6770 C   0  0  0  0  0  3  0  0  0  0  0  0
  187.0550  177.5070  143.1260 C   0  0  0  0  0  3  0  0  0  0  0  0
  183.9610  178.9530  144.7470 C   0  0  0  0  0  0  0  0  0  0  0  0
  183.2360  179.4570  143.6290 N   0  0  0  0  0  1  0  0  0  0  0  0
  183.4370  178.9960  145.8910 O   0  0  0  0  0  0  0  0  0  0  0  0
  1  7  1  0  0  0  0
  2  6  2  0  0  0  0
  3  1  1  0  0  0  0
  4  8  1  0  0  0  0
  5  8  1  0  0  0  0
  6 10  1  0  0  0  0
  6  5  1  0  0  0  0
  7  5  2  0  0  0  0
  8 26  1  0  0  0  0
  9 14  1  0  0  0  0
 10  4  2  0  0  0  0
 11  3  2  0  0  0  0
 12  9  2  0  0  0  0
 12 11  1  0  0  0  0
 13 11  1  0  0  0  0
 14  2  1  0  0  0  0
 14  1  2  0  0  0  0
 15 22  1  1  0  0  0
 15 16  1  0  0  0  0
 18 15  1  0  0  0  0
 19 16  1  0  0  0  0
 20 21  1  0  0  0  0
 20 24  1  0  0  0  0
 21 18  1  1  0  0  0
 21 23  1  0  0  0  0
 23 17  1  0  0  0  0
 23 19  1  1  0  0  0
 24 10  1  1  0  0  0
 24 17  1  0  0  0  0
 26 25  1  6  0  0  0
 26 27  1  0  0  0  0
 27 29  1  0  0  0  0
 27 28  2  0  0  0  0
 29 30  1  0  0  0  0
 30 34  1  0  0  0  0
 30 31  1  6  0  0  0
 32 38  1  0  0  0  0
 32 36  1  0  0  0  0
 33 32  2  0  0  0  0
 34 35  1  0  0  0  0
 35 36  2  0  0  0  0
 37 33  1  0  0  0  0
 37 34  2  0  0  0  0
 38 40  2  0  0  0  0
 39 38  1  0  0  0  0
M  END
>  <MODEL>
7

>  <REMARK>
 VINA RESULT:      -8.3      2.154      6.231
  Name = 
  7 active torsions:
  status: ('A' for Active; 'I' for Inactive)
    1  A    between atoms: C_1  and  C_5
    2  A    between atoms: C_7  and  C_21
    3  A    between atoms: C_7  and  C_23
    4  A    between atoms: C_14  and  N_20
    5  A    between atoms: C_14  and  C_23
    6  A    between atoms: C_16  and  C_21
    7  A    between atoms: C_27  and  C_40
                            x       y       z     vdW  Elec       q    Type
                         _______ _______ _______ _____ _____    ______ ____

>  <TORSDO>
F 7

$$$$
=
 OpenBabel10222417003D

 40 45  0  0  1  0  0  0  0  0999 V2000
  186.6640  178.3300  143.4860 C   0  0  0  0  0  0  0  0  0  0  0  0
  184.6060  178.5130  142.1580 C   0  0  0  0  0  3  0  0  0  0  0  0
  187.2580  178.2160  144.7010 N   0  0  0  0  0  0  0  0  0  0  0  0
  186.3000  178.6280  138.9830 C   0  0  0  0  0  3  0  0  0  0  0  0
  186.7780  178.4960  141.0980 C   0  0  0  0  0  0  0  0  0  0  0  0
  185.4110  178.5610  141.0190 C   0  0  0  0  0  0  0  0  0  0  0  0
  187.4450  178.3770  142.3180 C   0  0  0  0  0  3  0  0  0  0  0  0
  187.3230  178.5450  139.8690 N   0  0  0  0  0  0  0  0  0  0  0  0
  184.5130  178.3430  144.5830 C   0  0  0  0  0  3  0  0  0  0  0  0
  185.0900  178.6500  139.6760 C   0  0  0  0  0  0  0  0  0  0  0  0
  186.5150  178.1660  145.8390 C   0  0  0  0  0  0  0  0  0  0  0  0
  185.1570  178.2290  145.7740 N   0  0  0  0  0  0  0  0  0  0  0  0
  187.1590  178.0470  147.1010 N   0  0  0  0  0  1  0  0  0  0  0  0
  185.2470  178.3980  143.4020 C   0  0  0  0  0  0  0  0  0  0  0  0
  179.7970  177.4090  140.1000 C   0  0  1  0  0  3  0  0  0  0  0  0
  180.1640  178.8410  141.1540 S   0  0  0  0  0  0  0  0  0  0  0  0
  182.8740  179.5690  139.4950 N   0  0  0  0  0  2  0  0  0  0  0  0
  181.0690  176.9930  139.3860 C   0  0  0  0  0  2  0  0  0  0  0  0
  180.4310  179.9190  139.7110 C   0  0  0  0  0  2  0  0  0  0  0  0
  183.1760  177.5910  137.8010 S   0  0  0  0  0  0  0  0  0  0  0  0
  181.4810  178.0040  138.3130 C   0  0  2  0  0  3  0  0  0  0  0  0
  179.3150  176.2650  140.9680 C   0  0  0  0  0  1  0  0  0  0  0  0
  181.5900  179.4420  138.8370 C   0  0  2  0  0  3  0  0  0  0  0  0
  183.7550  178.7340  139.0570 C   0  0  2  0  0  3  0  0  0  0  0  0
  189.0560  179.0020  138.1750 C   0  0  0  0  0  1  0  0  0  0  0  0
  188.7490  178.4320  139.5510 C   0  0  2  0  0  3  0  0  0  0  0  0
  189.2530  177.0190  139.6710 C   0  0  0  0  0  0  0  0  0  0  0  0
  189.4300  176.3650  138.6550 O   0  0  0  0  0  0  0  0  0  0  0  0
  189.5810  176.4060  141.0040 C   0  0  0  0  0  2  0  0  0  0  0  0
  190.9930  176.7480  141.4850 C   0  0  1  0  0  3  0  0  0  0  0  0
  191.4370  177.9320  140.9210 F   0  0  0  0  0  0  0  0  0  0  0  0
  191.2930  176.7550  145.7830 C   0  0  0  0  0  0  0  0  0  0  0  0
  191.6810  175.6300  145.0410 C   0  0  0  0  0  3  0  0  0  0  0  0
  191.1060  176.7660  142.9790 C   0  0  0  0  0  0  0  0  0  0  0  0
  190.7080  177.8890  143.7170 C   0  0  0  0  0  3  0  0  0  0  0  0
  190.8040  177.8840  145.1110 C   0  0  0  0  0  3  0  0  0  0  0  0
  191.5870  175.6360  143.6470 C   0  0  0  0  0  3  0  0  0  0  0  0
  191.3960  176.7520  147.2530 C   0  0  0  0  0  0  0  0  0  0  0  0
  192.4390  176.0280  147.9010 N   0  0  0  0  0  1  0  0  0  0  0  0
  190.5600  177.3840  147.9510 O   0  0  0  0  0  0  0  0  0  0  0  0
  1  3  1  0  0  0  0
  2 14  2  0  0  0  0
  3 11  2  0  0  0  0
  4 10  2  0  0  0  0
  4  8  1  0  0  0  0
  5  7  1  0  0  0  0
  6  5  2  0  0  0  0
  6  2  1  0  0  0  0
  7  1  2  0  0  0  0
  8  5  1  0  0  0  0
  9 12  2  0  0  0  0
 10  6  1  0  0  0  0
 11 13  1  0  0  0  0
 12 11  1  0  0  0  0
 14  1  1  0  0  0  0
 14  9  1  0  0  0  0
 15 22  1  1  0  0  0
 15 16  1  0  0  0  0
 18 15  1  0  0  0  0
 19 16  1  0  0  0  0
 20 21  1  0  0  0  0
 20 24  1  0  0  0  0
 21 23  1  0  0  0  0
 21 18  1  1  0  0  0
 23 17  1  0  0  0  0
 23 19  1  1  0  0  0
 24 17  1  0  0  0  0
 24 10  1  1  0  0  0
 26 25  1  6  0  0  0
 26 27  1  0  0  0  0
 26  8  1  0  0  0  0
 27 29  1  0  0  0  0
 28 27  2  0  0  0  0
 29 30  1  0  0  0  0
 30 31  1  1  0  0  0
 30 34  1  0  0  0  0
 32 38  1  0  0  0  0
 33 32  2  0  0  0  0
 34 37  2  0  0  0  0
 34 35  1  0  0  0  0
 35 36  2  0  0  0  0
 36 32  1  0  0  0  0
 37 33  1  0  0  0  0
 38 39  1  0  0  0  0
 38 40  2  0  0  0  0
M  END
>  <MODEL>
8

>  <REMARK>
 VINA RESULT:      -8.3      4.309      8.163
  Name = 
  7 active torsions:
  status: ('A' for Active; 'I' for Inactive)
    1  A    between atoms: C_1  and  C_5
    2  A    between atoms: C_7  and  C_21
    3  A    between atoms: C_7  and  C_23
    4  A    between atoms: C_14  and  N_20
    5  A    between atoms: C_14  and  C_23
    6  A    between atoms: C_16  and  C_21
    7  A    between atoms: C_27  and  C_40
                            x       y       z     vdW  Elec       q    Type
                         _______ _______ _______ _____ _____    ______ ____

>  <TORSDO>
F 7

$$$$
=
 OpenBabel10222417003D

 40 45  0  0  1  0  0  0  0  0999 V2000
  192.5470  176.3370  138.2220 C   0  0  0  0  0  0  0  0  0  0  0  0
  190.3890  176.7450  137.1230 C   0  0  0  0  0  3  0  0  0  0  0  0
  193.8500  175.9710  138.1250 N   0  0  0  0  0  0  0  0  0  0  0  0
  188.6900  177.7270  140.1420 C   0  0  0  0  0  3  0  0  0  0  0  0
  190.6540  177.0530  139.5060 C   0  0  0  0  0  0  0  0  0  0  0  0
  189.8770  177.0820  138.3770 C   0  0  0  0  0  0  0  0  0  0  0  0
  192.0010  176.6860  139.4690 C   0  0  0  0  0  3  0  0  0  0  0  0
  189.9390  177.4330  140.5800 N   0  0  0  0  0  0  0  0  0  0  0  0
  192.3230  176.0180  135.8380 C   0  0  0  0  0  3  0  0  0  0  0  0
  188.6180  177.5060  138.7670 C   0  0  0  0  0  0  0  0  0  0  0  0
  194.3940  175.6340  136.9260 C   0  0  0  0  0  0  0  0  0  0  0  0
  193.6330  175.6600  135.7980 N   0  0  0  0  0  0  0  0  0  0  0  0
  195.7620  175.2530  136.8490 N   0  0  0  0  0  1  0  0  0  0  0  0
  191.7390  176.3670  137.0540 C   0  0  0  0  0  0  0  0  0  0  0  0
  184.9040  175.2180  135.4950 C   0  0  1  0  0  3  0  0  0  0  0  0
  184.4880  174.8530  137.2240 S   0  0  0  0  0  0  0  0  0  0  0  0
  186.2560  177.3520  138.3450 N   0  0  0  0  0  2  0  0  0  0  0  0
  186.1520  176.0790  135.4680 C   0  0  0  0  0  2  0  0  0  0  0  0
  184.0370  176.5850  137.5520 C   0  0  0  0  0  2  0  0  0  0  0  0
  187.4920  178.2980  136.2360 S   0  0  0  0  0  0  0  0  0  0  0  0
  185.8800  177.4980  135.9740 C   0  0  2  0  0  3  0  0  0  0  0  0
  185.1780  173.9190  134.7670 C   0  0  0  0  0  1  0  0  0  0  0  0
  185.2140  177.5390  137.3550 C   0  0  2  0  0  3  0  0  0  0  0  0
  187.4230  177.7140  137.9310 C   0  0  2  0  0  3  0  0  0  0  0  0
  191.9470  177.8450  141.9510 C   0  0  0  0  0  1  0  0  0  0  0  0
  190.4480  177.5910  141.9450 C   0  0  2  0  0  3  0  0  0  0  0  0
  190.0980  176.4210  142.8260 C   0  0  0  0  0  0  0  0  0  0  0  0
  190.9820  175.6490  143.1650 O   0  0  0  0  0  0  0  0  0  0  0  0
  188.6990  176.2010  143.3310 C   0  0  0  0  0  2  0  0  0  0  0  0
  188.2780  177.2280  144.3830 C   0  0  1  0  0  3  0  0  0  0  0  0
  189.1500  178.3040  144.4050 F   0  0  0  0  0  0  0  0  0  0  0  0
  184.2000  178.5320  143.8910 C   0  0  0  0  0  0  0  0  0  0  0  0
  184.9970  178.2360  142.7740 C   0  0  0  0  0  3  0  0  0  0  0  0
  186.8550  177.6690  144.2240 C   0  0  0  0  0  0  0  0  0  0  0  0
  186.0650  177.9720  145.3420 C   0  0  0  0  0  3  0  0  0  0  0  0
  184.7450  178.3980  145.1750 C   0  0  0  0  0  3  0  0  0  0  0  0
  186.3170  177.8080  142.9410 C   0  0  0  0  0  3  0  0  0  0  0  0
  182.8070  178.9790  143.7160 C   0  0  0  0  0  0  0  0  0  0  0  0
  182.2900  179.2360  142.4140 N   0  0  0  0  0  1  0  0  0  0  0  0
  182.0620  179.1430  144.7190 O   0  0  0  0  0  0  0  0  0  0  0  0
  1  7  1  0  0  0  0
  2  6  2  0  0  0  0
  3  1  1  0  0  0  0
  4  8  1  0  0  0  0
  5  8  1  0  0  0  0
  6 10  1  0  0  0  0
  6  5  1  0  0  0  0
  7  5  2  0  0  0  0
  8 26  1  0  0  0  0
  9 14  1  0  0  0  0
 10  4  2  0  0  0  0
 11  3  2  0  0  0  0
 12  9  2  0  0  0  0
 12 11  1  0  0  0  0
 13 11  1  0  0  0  0
 14  2  1  0  0  0  0
 14  1  2  0  0  0  0
 15 22  1  6  0  0  0
 15 16  1  0  0  0  0
 16 19  1  0  0  0  0
 18 15  1  0  0  0  0
 20 24  1  0  0  0  0
 21 18  1  1  0  0  0
 21 20  1  0  0  0  0
 21 23  1  0  0  0  0
 23 19  1  6  0  0  0
 23 17  1  0  0  0  0
 24 17  1  0  0  0  0
 24 10  1  6  0  0  0
 26 25  1  6  0  0  0
 26 27  1  0  0  0  0
 27 28  2  0  0  0  0
 27 29  1  0  0  0  0
 29 30  1  0  0  0  0
 30 31  1  6  0  0  0
 32 36  1  0  0  0  0
 33 37  1  0  0  0  0
 33 32  2  0  0  0  0
 34 30  1  0  0  0  0
 34 35  1  0  0  0  0
 36 35  2  0  0  0  0
 37 34  2  0  0  0  0
 38 32  1  0  0  0  0
 38 40  2  0  0  0  0
 39 38  1  0  0  0  0
M  END
>  <MODEL>
9

>  <REMARK>
 VINA RESULT:      -7.9      2.266      5.593
  Name = 
  7 active torsions:
  status: ('A' for Active; 'I' for Inactive)
    1  A    between atoms: C_1  and  C_5
    2  A    between atoms: C_7  and  C_21
    3  A    between atoms: C_7  and  C_23
    4  A    between atoms: C_14  and  N_20
    5  A    between atoms: C_14  and  C_23
    6  A    between atoms: C_16  and  C_21
    7  A    between atoms: C_27  and  C_40
                            x       y       z     vdW  Elec       q    Type
                         _______ _______ _______ _____ _____    ______ ____

>  <TORSDO>
F 7

$$$$
