=
 OpenBabel10222420193D

 27 29  0  0  0  0  0  0  0  0999 V2000
  188.0330  178.0410  140.6230 C   0  0  0  0  0  0  0  0  0  0  0  0
  189.3420  177.5220  138.5860 C   0  0  0  0  0  0  0  0  0  0  0  0
  191.2070  176.8300  137.3230 N   0  0  0  0  0  0  0  0  0  0  0  0
  190.0340  177.2520  139.7510 C   0  0  0  0  0  0  0  0  0  0  0  0
  191.8900  176.5640  138.4750 C   0  0  0  0  0  3  0  0  0  0  0  0
  187.8180  178.1170  138.9410 S   0  0  0  0  0  0  0  0  0  0  0  0
  189.9330  177.3110  137.3500 C   0  0  0  0  0  3  0  0  0  0  0  0
  189.3090  177.5350  140.9270 C   0  0  0  0  0  0  0  0  0  0  0  0
  191.3060  176.7780  139.6900 N   0  0  0  0  0  0  0  0  0  0  0  0
  185.4280  179.3450  140.1970 O   0  0  0  0  0  0  0  0  0  0  0  0
  187.0480  178.3940  141.6040 N   0  0  0  0  0  2  0  0  0  0  0  0
  185.7900  179.0330  141.3610 C   0  0  0  0  0  0  0  0  0  0  0  0
  184.8850  179.3240  142.5100 C   0  0  0  0  0  2  0  0  0  0  0  0
  185.2880  178.5630  143.6830 N   0  0  0  0  0  0  0  0  0  0  0  0
  185.1530  179.0510  144.8730 C   0  0  0  0  0  3  0  0  0  0  0  0
  185.5580  178.2830  146.0520 C   0  0  0  0  0  0  0  0  0  0  0  0
  186.4130  177.3640  145.9570 O   0  0  0  0  0  0  0  0  0  0  0  0
  184.9910  178.5710  147.2860 O   0  0  0  0  0  1  0  0  0  0  0  0
  190.1210  175.8570  142.9210 S   0  0  0  0  0  0  0  0  0  0  0  0
  189.8230  177.3480  142.3120 C   0  0  0  0  0  0  0  0  0  0  0  0
  190.0520  178.5180  143.2110 C   0  0  0  0  0  2  0  0  0  0  0  0
  190.7920  178.0780  144.4620 C   0  0  0  0  0  2  0  0  0  0  0  0
  189.8270  177.9700  145.6280 C   0  0  0  0  0  2  0  0  0  0  0  0
  190.2010  176.8550  146.4810 N   0  0  0  0  0  2  0  0  0  0  0  0
  192.0960  175.3490  146.4290 C   0  0  0  0  0  2  0  0  0  0  0  0
  192.1170  176.0970  147.7440 C   0  0  0  0  0  2  0  0  0  0  0  0
  191.6510  176.7970  146.4830 C   0  0  0  0  0  3  0  0  0  0  0  0
  1  8  2  0  0  0  0
  1 11  1  0  0  0  0
  2  6  1  0  0  0  0
  2  4  1  0  0  0  0
  3  7  1  0  0  0  0
  3  5  2  0  0  0  0
  4  8  1  0  0  0  0
  5  9  1  0  0  0  0
  6  1  1  0  0  0  0
  7  2  2  0  0  0  0
  8 20  1  0  0  0  0
  9  4  2  0  0  0  0
 10 12  2  0  0  0  0
 12 11  1  0  0  0  0
 12 13  1  0  0  0  0
 13 14  1  0  0  0  0
 14 15  2  0  0  0  0
 15 16  1  0  0  0  0
 16 18  1  0  0  0  0
 17 16  2  0  0  0  0
 20 19  2  0  0  0  0
 20 21  1  0  0  0  0
 21 22  1  0  0  0  0
 22 23  1  0  0  0  0
 23 24  1  0  0  0  0
 24 27  1  0  0  0  0
 25 27  1  0  0  0  0
 25 26  1  0  0  0  0
 27 26  1  0  0  0  0
M  END
>  <MODEL>
1

>  <REMARK>
 VINA RESULT:      -7.1      0.000      0.000
  Name = 
  10 active torsions:
  status: ('A' for Active; 'I' for Inactive)
    1  A    between atoms: C_1  and  N_17
    2  A    between atoms: C_2  and  C_11
    3  A    between atoms: C_5  and  C_13
    4  A    between atoms: C_5  and  C_16
    5  A    between atoms: N_9  and  C_10
    6  A    between atoms: C_10  and  C_23
    7  A    between atoms: C_13  and  C_19
    8  A    between atoms: C_16  and  N_25
    9  A    between atoms: C_18  and  N_25
   10  A    between atoms: C_19  and  C_26
                            x       y       z     vdW  Elec       q    Type
                         _______ _______ _______ _____ _____    ______ ____

>  <TORSDO>
F 10

$$$$
=
 OpenBabel10222420193D

 27 29  0  0  0  0  0  0  0  0999 V2000
  189.0750  177.8120  141.4560 C   0  0  0  0  0  0  0  0  0  0  0  0
  190.4740  177.2240  139.4990 C   0  0  0  0  0  0  0  0  0  0  0  0
  192.4520  176.7480  138.3100 N   0  0  0  0  0  0  0  0  0  0  0  0
  191.2060  177.3500  140.6630 C   0  0  0  0  0  0  0  0  0  0  0  0
  193.1750  176.8730  139.4620 C   0  0  0  0  0  3  0  0  0  0  0  0
  188.8520  177.5100  139.8010 S   0  0  0  0  0  0  0  0  0  0  0  0
  191.1000  176.9200  138.3000 C   0  0  0  0  0  3  0  0  0  0  0  0
  190.4330  177.6810  141.7950 C   0  0  0  0  0  0  0  0  0  0  0  0
  192.5540  177.1780  140.6380 N   0  0  0  0  0  0  0  0  0  0  0  0
  187.8870  176.0360  143.4820 O   0  0  0  0  0  0  0  0  0  0  0  0
  188.0330  178.1110  142.3940 N   0  0  0  0  0  2  0  0  0  0  0  0
  187.4740  177.2200  143.3660 C   0  0  0  0  0  0  0  0  0  0  0  0
  186.3900  177.7070  144.2670 C   0  0  0  0  0  2  0  0  0  0  0  0
  185.1550  177.8990  143.5200 N   0  0  0  0  0  0  0  0  0  0  0  0
  184.2230  178.6790  143.9640 C   0  0  0  0  0  3  0  0  0  0  0  0
  182.9820  178.8720  143.2110 C   0  0  0  0  0  0  0  0  0  0  0  0
  181.8980  179.1000  143.8090 O   0  0  0  0  0  1  0  0  0  0  0  0
  183.0030  178.8020  141.8250 O   0  0  0  0  0  0  0  0  0  0  0  0
  191.1850  179.3880  143.7870 S   0  0  0  0  0  0  0  0  0  0  0  0
  190.9730  177.8870  143.1670 C   0  0  0  0  0  0  0  0  0  0  0  0
  191.3750  176.7270  144.0170 C   0  0  0  0  0  2  0  0  0  0  0  0
  191.4790  177.1570  145.4710 C   0  0  0  0  0  2  0  0  0  0  0  0
  190.3090  176.6020  146.2620 C   0  0  0  0  0  2  0  0  0  0  0  0
  189.3160  177.6410  146.4740 N   0  0  0  0  0  2  0  0  0  0  0  0
  187.3500  178.1980  147.7730 C   0  0  0  0  0  2  0  0  0  0  0  0
  188.5410  178.1470  148.7060 C   0  0  0  0  0  2  0  0  0  0  0  0
  188.4500  177.1800  147.5430 C   0  0  0  0  0  3  0  0  0  0  0  0
  1  8  2  0  0  0  0
  1 11  1  0  0  0  0
  2  6  1  0  0  0  0
  2  4  1  0  0  0  0
  3  5  2  0  0  0  0
  4  8  1  0  0  0  0
  5  9  1  0  0  0  0
  6  1  1  0  0  0  0
  7  3  1  0  0  0  0
  7  2  2  0  0  0  0
  8 20  1  0  0  0  0
  9  4  2  0  0  0  0
 11 12  1  0  0  0  0
 12 10  2  0  0  0  0
 12 13  1  0  0  0  0
 14 15  2  0  0  0  0
 14 13  1  0  0  0  0
 16 17  1  0  0  0  0
 16 15  1  0  0  0  0
 18 16  2  0  0  0  0
 20 19  2  0  0  0  0
 20 21  1  0  0  0  0
 21 22  1  0  0  0  0
 22 23  1  0  0  0  0
 23 24  1  0  0  0  0
 24 27  1  0  0  0  0
 25 26  1  0  0  0  0
 27 25  1  0  0  0  0
 27 26  1  0  0  0  0
M  END
>  <MODEL>
2

>  <REMARK>
 VINA RESULT:      -7.1      2.107      2.969
  Name = 
  10 active torsions:
  status: ('A' for Active; 'I' for Inactive)
    1  A    between atoms: C_1  and  N_17
    2  A    between atoms: C_2  and  C_11
    3  A    between atoms: C_5  and  C_13
    4  A    between atoms: C_5  and  C_16
    5  A    between atoms: N_9  and  C_10
    6  A    between atoms: C_10  and  C_23
    7  A    between atoms: C_13  and  C_19
    8  A    between atoms: C_16  and  N_25
    9  A    between atoms: C_18  and  N_25
   10  A    between atoms: C_19  and  C_26
                            x       y       z     vdW  Elec       q    Type
                         _______ _______ _______ _____ _____    ______ ____

>  <TORSDO>
F 10

$$$$
=
 OpenBabel10222420193D

 27 29  0  0  0  0  0  0  0  0999 V2000
  185.3880  178.6270  142.1380 C   0  0  0  0  0  0  0  0  0  0  0  0
  184.7080  178.7470  144.5160 C   0  0  0  0  0  0  0  0  0  0  0  0
  184.9020  178.4520  146.8460 N   0  0  0  0  0  0  0  0  0  0  0  0
  185.9730  178.2180  144.3460 C   0  0  0  0  0  0  0  0  0  0  0  0
  186.1520  177.9270  146.6770 C   0  0  0  0  0  3  0  0  0  0  0  0
  184.0420  179.1460  143.0330 S   0  0  0  0  0  0  0  0  0  0  0  0
  184.1590  178.8680  145.7830 C   0  0  0  0  0  3  0  0  0  0  0  0
  186.3860  178.1410  143.0000 C   0  0  0  0  0  0  0  0  0  0  0  0
  186.6860  177.8060  145.4270 N   0  0  0  0  0  0  0  0  0  0  0  0
  183.5430  177.6150  140.0780 O   0  0  0  0  0  0  0  0  0  0  0  0
  185.5210  178.7100  140.7130 N   0  0  0  0  0  2  0  0  0  0  0  0
  184.6040  178.2020  139.7370 C   0  0  0  0  0  0  0  0  0  0  0  0
  184.9050  178.3810  138.2870 C   0  0  0  0  0  2  0  0  0  0  0  0
  186.2830  178.8110  138.1030 N   0  0  0  0  0  0  0  0  0  0  0  0
  187.1480  178.0440  137.5200 C   0  0  0  0  0  3  0  0  0  0  0  0
  188.5330  178.4790  137.3340 C   0  0  0  0  0  0  0  0  0  0  0  0
  188.8850  179.6490  137.6370 O   0  0  0  0  0  1  0  0  0  0  0  0
  189.4660  177.5910  136.8160 O   0  0  0  0  0  0  0  0  0  0  0  0
  188.5790  178.3600  141.3880 S   0  0  0  0  0  0  0  0  0  0  0  0
  187.6950  177.6000  142.5390 C   0  0  0  0  0  0  0  0  0  0  0  0
  188.2320  176.3190  143.0860 C   0  0  0  0  0  2  0  0  0  0  0  0
  189.7510  176.3550  143.1020 C   0  0  0  0  0  2  0  0  0  0  0  0
  190.2430  177.0290  144.3690 C   0  0  0  0  0  2  0  0  0  0  0  0
  191.4120  176.3330  144.8800 N   0  0  0  0  0  2  0  0  0  0  0  0
  192.0010  175.7960  147.1660 C   0  0  0  0  0  2  0  0  0  0  0  0
  190.6460  176.4700  147.1680 C   0  0  0  0  0  2  0  0  0  0  0  0
  191.7070  176.9080  146.1780 C   0  0  0  0  0  3  0  0  0  0  0  0
  1  8  2  0  0  0  0
  1  6  1  0  0  0  0
  2  7  1  0  0  0  0
  4  2  2  0  0  0  0
  4  9  1  0  0  0  0
  5  3  1  0  0  0  0
  6  2  1  0  0  0  0
  7  3  2  0  0  0  0
  8  4  1  0  0  0  0
  9  5  2  0  0  0  0
 11  1  1  0  0  0  0
 12 10  2  0  0  0  0
 12 11  1  0  0  0  0
 13 12  1  0  0  0  0
 14 13  1  0  0  0  0
 15 14  2  0  0  0  0
 16 15  1  0  0  0  0
 16 17  1  0  0  0  0
 18 16  2  0  0  0  0
 19 20  2  0  0  0  0
 20  8  1  0  0  0  0
 20 21  1  0  0  0  0
 21 22  1  0  0  0  0
 22 23  1  0  0  0  0
 23 24  1  0  0  0  0
 24 27  1  0  0  0  0
 25 26  1  0  0  0  0
 27 25  1  0  0  0  0
 27 26  1  0  0  0  0
M  END
>  <MODEL>
3

>  <REMARK>
 VINA RESULT:      -7.1      3.020      6.115
  Name = 
  10 active torsions:
  status: ('A' for Active; 'I' for Inactive)
    1  A    between atoms: C_1  and  N_17
    2  A    between atoms: C_2  and  C_11
    3  A    between atoms: C_5  and  C_13
    4  A    between atoms: C_5  and  C_16
    5  A    between atoms: N_9  and  C_10
    6  A    between atoms: C_10  and  C_23
    7  A    between atoms: C_13  and  C_19
    8  A    between atoms: C_16  and  N_25
    9  A    between atoms: C_18  and  N_25
   10  A    between atoms: C_19  and  C_26
                            x       y       z     vdW  Elec       q    Type
                         _______ _______ _______ _____ _____    ______ ____

>  <TORSDO>
F 10

$$$$
=
 OpenBabel10222420193D

 27 29  0  0  0  0  0  0  0  0999 V2000
  190.8950  177.4660  141.9580 C   0  0  0  0  0  0  0  0  0  0  0  0
  191.0210  177.0830  139.5150 C   0  0  0  0  0  0  0  0  0  0  0  0
  190.2140  176.7670  137.3240 N   0  0  0  0  0  0  0  0  0  0  0  0
  189.7250  177.2500  139.9660 C   0  0  0  0  0  0  0  0  0  0  0  0
  188.9340  176.9300  137.7710 C   0  0  0  0  0  3  0  0  0  0  0  0
  192.0980  177.2030  140.7910 S   0  0  0  0  0  0  0  0  0  0  0  0
  191.2750  176.8370  138.1750 C   0  0  0  0  0  3  0  0  0  0  0  0
  189.6250  177.4730  141.3540 C   0  0  0  0  0  0  0  0  0  0  0  0
  188.6880  177.1680  139.0920 N   0  0  0  0  0  0  0  0  0  0  0  0
  191.5790  175.4970  144.0380 O   0  0  0  0  0  0  0  0  0  0  0  0
  191.1270  177.6970  143.3550 N   0  0  0  0  0  2  0  0  0  0  0  0
  191.4550  176.7130  144.3410 C   0  0  0  0  0  0  0  0  0  0  0  0
  191.6640  177.1370  145.7560 C   0  0  0  0  0  2  0  0  0  0  0  0
  190.4560  176.9170  146.5380 N   0  0  0  0  0  0  0  0  0  0  0  0
  189.4660  177.7480  146.4810 C   0  0  0  0  0  3  0  0  0  0  0  0
  188.2510  177.5250  147.2670 C   0  0  0  0  0  0  0  0  0  0  0  0
  187.1490  177.3120  146.6980 O   0  0  0  0  0  0  0  0  0  0  0  0
  188.3170  177.5520  148.6530 O   0  0  0  0  0  1  0  0  0  0  0  0
  187.8200  176.5760  143.1950 S   0  0  0  0  0  0  0  0  0  0  0  0
  188.3500  177.6700  142.0970 C   0  0  0  0  0  0  0  0  0  0  0  0
  187.4870  178.8620  141.8400 C   0  0  0  0  0  2  0  0  0  0  0  0
  186.2510  178.4510  141.0590 C   0  0  0  0  0  2  0  0  0  0  0  0
  185.0200  179.1190  141.6420 C   0  0  0  0  0  2  0  0  0  0  0  0
  184.5950  178.4170  142.8410 N   0  0  0  0  0  2  0  0  0  0  0  0
  184.5570  178.8880  145.2160 C   0  0  0  0  0  2  0  0  0  0  0  0
  183.1370  178.9350  144.6970 C   0  0  0  0  0  2  0  0  0  0  0  0
  184.2760  179.4310  143.8280 C   0  0  0  0  0  3  0  0  0  0  0  0
  1 11  1  0  0  0  0
  2  4  1  0  0  0  0
  2  6  1  0  0  0  0
  3  5  2  0  0  0  0
  3  7  1  0  0  0  0
  4  8  1  0  0  0  0
  5  9  1  0  0  0  0
  6  1  1  0  0  0  0
  7  2  2  0  0  0  0
  8  1  2  0  0  0  0
  8 20  1  0  0  0  0
  9  4  2  0  0  0  0
 10 12  2  0  0  0  0
 11 12  1  0  0  0  0
 12 13  1  0  0  0  0
 13 14  1  0  0  0  0
 15 14  2  0  0  0  0
 15 16  1  0  0  0  0
 16 18  1  0  0  0  0
 17 16  2  0  0  0  0
 20 19  2  0  0  0  0
 21 20  1  0  0  0  0
 22 23  1  0  0  0  0
 22 21  1  0  0  0  0
 23 24  1  0  0  0  0
 24 27  1  0  0  0  0
 26 25  1  0  0  0  0
 27 26  1  0  0  0  0
 27 25  1  0  0  0  0
M  END
>  <MODEL>
4

>  <REMARK>
 VINA RESULT:      -7.0      2.171      5.133
  Name = 
  10 active torsions:
  status: ('A' for Active; 'I' for Inactive)
    1  A    between atoms: C_1  and  N_17
    2  A    between atoms: C_2  and  C_11
    3  A    between atoms: C_5  and  C_13
    4  A    between atoms: C_5  and  C_16
    5  A    between atoms: N_9  and  C_10
    6  A    between atoms: C_10  and  C_23
    7  A    between atoms: C_13  and  C_19
    8  A    between atoms: C_16  and  N_25
    9  A    between atoms: C_18  and  N_25
   10  A    between atoms: C_19  and  C_26
                            x       y       z     vdW  Elec       q    Type
                         _______ _______ _______ _____ _____    ______ ____

>  <TORSDO>
F 10

$$$$
=
 OpenBabel10222420193D

 27 29  0  0  0  0  0  0  0  0999 V2000
  185.6150  178.2430  144.8660 C   0  0  0  0  0  0  0  0  0  0  0  0
  183.5470  178.6940  143.5810 C   0  0  0  0  0  0  0  0  0  0  0  0
  182.1940  178.9580  141.6690 N   0  0  0  0  0  0  0  0  0  0  0  0
  184.6180  178.3600  142.7740 C   0  0  0  0  0  0  0  0  0  0  0  0
  183.2540  178.6290  140.8730 C   0  0  0  0  0  3  0  0  0  0  0  0
  184.0070  178.6770  145.1910 S   0  0  0  0  0  0  0  0  0  0  0  0
  182.3140  178.9990  143.0260 C   0  0  0  0  0  3  0  0  0  0  0  0
  185.8080  178.0950  143.4820 C   0  0  0  0  0  0  0  0  0  0  0  0
  184.4680  178.3340  141.4240 N   0  0  0  0  0  0  0  0  0  0  0  0
  185.8420  179.4270  147.5530 O   0  0  0  0  0  0  0  0  0  0  0  0
  186.6290  178.0100  145.8540 N   0  0  0  0  0  2  0  0  0  0  0  0
  186.7110  178.6080  147.1520 C   0  0  0  0  0  0  0  0  0  0  0  0
  187.8420  178.2450  148.0540 C   0  0  0  0  0  2  0  0  0  0  0  0
  189.0740  178.1020  147.2930 N   0  0  0  0  0  0  0  0  0  0  0  0
  189.7590  177.0050  147.3340 C   0  0  0  0  0  3  0  0  0  0  0  0
  190.9980  176.8620  146.5670 C   0  0  0  0  0  0  0  0  0  0  0  0
  191.0480  177.2120  145.3590 O   0  0  0  0  0  0  0  0  0  0  0  0
  192.1260  176.3330  147.1790 O   0  0  0  0  0  1  0  0  0  0  0  0
  187.9860  176.4510  143.3930 S   0  0  0  0  0  0  0  0  0  0  0  0
  187.1090  177.7260  142.8570 C   0  0  0  0  0  0  0  0  0  0  0  0
  187.6790  178.5330  141.7370 C   0  0  0  0  0  2  0  0  0  0  0  0
  189.0380  177.9840  141.3390 C   0  0  0  0  0  2  0  0  0  0  0  0
  189.0530  177.6500  139.8590 C   0  0  0  0  0  2  0  0  0  0  0  0
  188.1040  178.4910  139.1510 N   0  0  0  0  0  2  0  0  0  0  0  0
  187.0920  178.5420  136.9520 C   0  0  0  0  0  2  0  0  0  0  0  0
  186.0520  178.0730  137.9450 C   0  0  0  0  0  2  0  0  0  0  0  0
  187.5010  177.6670  138.1200 C   0  0  0  0  0  3  0  0  0  0  0  0
  1  6  1  0  0  0  0
  1 11  1  0  0  0  0
  2  6  1  0  0  0  0
  3  7  2  0  0  0  0
  4  8  1  0  0  0  0
  4  2  2  0  0  0  0
  5  9  2  0  0  0  0
  5  3  1  0  0  0  0
  7  2  1  0  0  0  0
  8  1  2  0  0  0  0
  9  4  1  0  0  0  0
 11 12  1  0  0  0  0
 12 10  2  0  0  0  0
 12 13  1  0  0  0  0
 14 15  2  0  0  0  0
 14 13  1  0  0  0  0
 16 18  1  0  0  0  0
 16 15  1  0  0  0  0
 17 16  2  0  0  0  0
 20 19  2  0  0  0  0
 20  8  1  0  0  0  0
 21 20  1  0  0  0  0
 22 21  1  0  0  0  0
 23 22  1  0  0  0  0
 24 23  1  0  0  0  0
 25 26  1  0  0  0  0
 25 27  1  0  0  0  0
 26 27  1  0  0  0  0
 27 24  1  0  0  0  0
M  END
>  <MODEL>
5

>  <REMARK>
 VINA RESULT:      -6.9      2.862      7.007
  Name = 
  10 active torsions:
  status: ('A' for Active; 'I' for Inactive)
    1  A    between atoms: C_1  and  N_17
    2  A    between atoms: C_2  and  C_11
    3  A    between atoms: C_5  and  C_13
    4  A    between atoms: C_5  and  C_16
    5  A    between atoms: N_9  and  C_10
    6  A    between atoms: C_10  and  C_23
    7  A    between atoms: C_13  and  C_19
    8  A    between atoms: C_16  and  N_25
    9  A    between atoms: C_18  and  N_25
   10  A    between atoms: C_19  and  C_26
                            x       y       z     vdW  Elec       q    Type
                         _______ _______ _______ _____ _____    ______ ____

>  <TORSDO>
F 10

$$$$
=
 OpenBabel10222420193D

 27 29  0  0  0  0  0  0  0  0999 V2000
  187.3210  177.6040  145.1760 C   0  0  0  0  0  0  0  0  0  0  0  0
  189.2540  177.2680  146.6870 C   0  0  0  0  0  0  0  0  0  0  0  0
  191.4860  176.8050  147.2850 N   0  0  0  0  0  0  0  0  0  0  0  0
  189.5920  177.1630  145.3520 C   0  0  0  0  0  0  0  0  0  0  0  0
  191.8190  176.7000  145.9650 C   0  0  0  0  0  3  0  0  0  0  0  0
  187.6210  177.6000  146.8470 S   0  0  0  0  0  0  0  0  0  0  0  0
  190.2110  177.0860  147.6740 C   0  0  0  0  0  3  0  0  0  0  0  0
  188.5100  177.3540  144.4690 C   0  0  0  0  0  0  0  0  0  0  0  0
  190.8720  176.8740  144.9970 N   0  0  0  0  0  0  0  0  0  0  0  0
  185.1800  179.3940  146.1180 O   0  0  0  0  0  0  0  0  0  0  0  0
  186.0540  177.8700  144.5600 N   0  0  0  0  0  2  0  0  0  0  0  0
  185.0320  178.7460  145.0480 C   0  0  0  0  0  0  0  0  0  0  0  0
  183.7690  178.9030  144.2700 C   0  0  0  0  0  2  0  0  0  0  0  0
  184.0640  179.1790  142.8710 N   0  0  0  0  0  0  0  0  0  0  0  0
  183.6860  178.3660  141.9380 C   0  0  0  0  0  3  0  0  0  0  0  0
  183.9820  178.6460  140.5320 C   0  0  0  0  0  0  0  0  0  0  0  0
  183.4300  177.9820  139.6160 O   0  0  0  0  0  0  0  0  0  0  0  0
  184.8820  179.6520  140.2080 O   0  0  0  0  0  1  0  0  0  0  0  0
  187.7190  178.2780  142.0250 S   0  0  0  0  0  0  0  0  0  0  0  0
  188.5960  177.2810  142.9840 C   0  0  0  0  0  0  0  0  0  0  0  0
  189.4630  176.2670  142.3140 C   0  0  0  0  0  2  0  0  0  0  0  0
  190.5580  176.9600  141.5200 C   0  0  0  0  0  2  0  0  0  0  0  0
  190.4310  176.6160  140.0480 C   0  0  0  0  0  2  0  0  0  0  0  0
  190.1980  177.8230  139.2730 N   0  0  0  0  0  2  0  0  0  0  0  0
  189.0760  178.6670  137.3020 C   0  0  0  0  0  2  0  0  0  0  0  0
  188.0320  178.1040  138.2410 C   0  0  0  0  0  2  0  0  0  0  0  0
  189.3890  177.4380  138.1320 C   0  0  0  0  0  3  0  0  0  0  0  0
  1  6  1  0  0  0  0
  2  6  1  0  0  0  0
  2  7  1  0  0  0  0
  3  7  2  0  0  0  0
  4  2  2  0  0  0  0
  5  3  1  0  0  0  0
  8  1  2  0  0  0  0
  8  4  1  0  0  0  0
  9  4  1  0  0  0  0
  9  5  2  0  0  0  0
 11 12  1  0  0  0  0
 11  1  1  0  0  0  0
 12 10  2  0  0  0  0
 13 12  1  0  0  0  0
 14 13  1  0  0  0  0
 15 14  2  0  0  0  0
 16 15  1  0  0  0  0
 17 16  2  0  0  0  0
 18 16  1  0  0  0  0
 19 20  2  0  0  0  0
 20  8  1  0  0  0  0
 21 20  1  0  0  0  0
 22 21  1  0  0  0  0
 23 22  1  0  0  0  0
 24 23  1  0  0  0  0
 25 27  1  0  0  0  0
 25 26  1  0  0  0  0
 27 26  1  0  0  0  0
 27 24  1  0  0  0  0
M  END
>  <MODEL>
6

>  <REMARK>
 VINA RESULT:      -6.9      1.828      6.392
  Name = 
  10 active torsions:
  status: ('A' for Active; 'I' for Inactive)
    1  A    between atoms: C_1  and  N_17
    2  A    between atoms: C_2  and  C_11
    3  A    between atoms: C_5  and  C_13
    4  A    between atoms: C_5  and  C_16
    5  A    between atoms: N_9  and  C_10
    6  A    between atoms: C_10  and  C_23
    7  A    between atoms: C_13  and  C_19
    8  A    between atoms: C_16  and  N_25
    9  A    between atoms: C_18  and  N_25
   10  A    between atoms: C_19  and  C_26
                            x       y       z     vdW  Elec       q    Type
                         _______ _______ _______ _____ _____    ______ ____

>  <TORSDO>
F 10

$$$$
=
 OpenBabel10222420193D

 27 29  0  0  0  0  0  0  0  0999 V2000
  186.7190  177.7600  143.9090 C   0  0  0  0  0  0  0  0  0  0  0  0
  187.3770  177.8360  146.2950 C   0  0  0  0  0  0  0  0  0  0  0  0
  188.8100  177.6570  148.1580 N   0  0  0  0  0  0  0  0  0  0  0  0
  188.4330  177.5330  145.4570 C   0  0  0  0  0  0  0  0  0  0  0  0
  189.8520  177.3560  147.3280 C   0  0  0  0  0  3  0  0  0  0  0  0
  185.9770  178.0610  145.4050 S   0  0  0  0  0  0  0  0  0  0  0  0
  187.5620  177.9000  147.6670 C   0  0  0  0  0  3  0  0  0  0  0  0
  188.0860  177.4870  144.0910 C   0  0  0  0  0  0  0  0  0  0  0  0
  189.6640  177.2900  145.9780 N   0  0  0  0  0  0  0  0  0  0  0  0
  185.6750  180.1280  142.5060 O   0  0  0  0  0  0  0  0  0  0  0  0
  186.0690  177.8180  142.6320 N   0  0  0  0  0  2  0  0  0  0  0  0
  185.5690  178.9890  141.9790 C   0  0  0  0  0  0  0  0  0  0  0  0
  184.9180  178.8610  140.6430 C   0  0  0  0  0  2  0  0  0  0  0  0
  185.9170  178.6280  139.6110 N   0  0  0  0  0  0  0  0  0  0  0  0
  185.5690  178.2730  138.4160 C   0  0  0  0  0  3  0  0  0  0  0  0
  186.5750  178.0400  137.3780 C   0  0  0  0  0  0  0  0  0  0  0  0
  187.1850  179.0050  136.8470 O   0  0  0  0  0  0  0  0  0  0  0  0
  186.8560  176.7420  136.9750 O   0  0  0  0  0  1  0  0  0  0  0  0
  189.7980  175.7280  142.8960 S   0  0  0  0  0  0  0  0  0  0  0  0
  189.0270  177.1710  142.9810 C   0  0  0  0  0  0  0  0  0  0  0  0
  189.3310  178.1780  141.9210 C   0  0  0  0  0  2  0  0  0  0  0  0
  190.1100  177.5260  140.7910 C   0  0  0  0  0  2  0  0  0  0  0  0
  189.3680  177.7000  139.4790 C   0  0  0  0  0  2  0  0  0  0  0  0
  190.2290  177.3300  138.3690 N   0  0  0  0  0  2  0  0  0  0  0  0
  192.4110  176.3600  137.9720 C   0  0  0  0  0  2  0  0  0  0  0  0
  191.3790  175.2560  137.9030 C   0  0  0  0  0  2  0  0  0  0  0  0
  191.2060  176.3930  138.8910 C   0  0  0  0  0  3  0  0  0  0  0  0
  1  8  2  0  0  0  0
  1  6  1  0  0  0  0
  2  7  1  0  0  0  0
  4  9  1  0  0  0  0
  4  2  2  0  0  0  0
  5  3  1  0  0  0  0
  6  2  1  0  0  0  0
  7  3  2  0  0  0  0
  8  4  1  0  0  0  0
  9  5  2  0  0  0  0
 11  1  1  0  0  0  0
 12 10  2  0  0  0  0
 12 11  1  0  0  0  0
 13 12  1  0  0  0  0
 14 13  1  0  0  0  0
 15 14  2  0  0  0  0
 16 15  1  0  0  0  0
 17 16  2  0  0  0  0
 18 16  1  0  0  0  0
 19 20  2  0  0  0  0
 20  8  1  0  0  0  0
 21 20  1  0  0  0  0
 22 21  1  0  0  0  0
 23 22  1  0  0  0  0
 24 27  1  0  0  0  0
 24 23  1  0  0  0  0
 25 27  1  0  0  0  0
 26 25  1  0  0  0  0
 26 27  1  0  0  0  0
M  END
>  <MODEL>
7

>  <REMARK>
 VINA RESULT:      -6.8      2.289      6.744
  Name = 
  10 active torsions:
  status: ('A' for Active; 'I' for Inactive)
    1  A    between atoms: C_1  and  N_17
    2  A    between atoms: C_2  and  C_11
    3  A    between atoms: C_5  and  C_13
    4  A    between atoms: C_5  and  C_16
    5  A    between atoms: N_9  and  C_10
    6  A    between atoms: C_10  and  C_23
    7  A    between atoms: C_13  and  C_19
    8  A    between atoms: C_16  and  N_25
    9  A    between atoms: C_18  and  N_25
   10  A    between atoms: C_19  and  C_26
                            x       y       z     vdW  Elec       q    Type
                         _______ _______ _______ _____ _____    ______ ____

>  <TORSDO>
F 10

$$$$
=
 OpenBabel10222420193D

 27 29  0  0  0  0  0  0  0  0999 V2000
  185.7360  178.1840  144.9330 C   0  0  0  0  0  0  0  0  0  0  0  0
  187.0140  178.2010  147.0530 C   0  0  0  0  0  0  0  0  0  0  0  0
  188.8670  177.8770  148.4730 N   0  0  0  0  0  0  0  0  0  0  0  0
  187.7690  177.7800  145.9750 C   0  0  0  0  0  0  0  0  0  0  0  0
  189.6120  177.4590  147.4070 C   0  0  0  0  0  3  0  0  0  0  0  0
  185.4580  178.5730  146.5610 S   0  0  0  0  0  0  0  0  0  0  0  0
  187.5660  178.2520  148.3240 C   0  0  0  0  0  3  0  0  0  0  0  0
  187.0650  177.7640  144.7540 C   0  0  0  0  0  0  0  0  0  0  0  0
  189.0620  177.4070  146.1580 N   0  0  0  0  0  0  0  0  0  0  0  0
  183.0380  179.3590  145.0470 O   0  0  0  0  0  0  0  0  0  0  0  0
  184.7770  178.3050  143.8730 N   0  0  0  0  0  2  0  0  0  0  0  0
  183.4690  178.8800  143.9650 C   0  0  0  0  0  0  0  0  0  0  0  0
  182.6020  178.9240  142.7520 C   0  0  0  0  0  2  0  0  0  0  0  0
  183.4090  179.1110  141.5560 N   0  0  0  0  0  0  0  0  0  0  0  0
  182.8940  178.9760  140.3760 C   0  0  0  0  0  3  0  0  0  0  0  0
  183.7060  179.1670  139.1740 C   0  0  0  0  0  0  0  0  0  0  0  0
  184.5200  180.1240  139.0940 O   0  0  0  0  0  1  0  0  0  0  0  0
  183.5760  178.2830  138.1110 O   0  0  0  0  0  0  0  0  0  0  0  0
  187.4560  178.2520  142.0960 S   0  0  0  0  0  0  0  0  0  0  0  0
  187.6370  177.3410  143.4450 C   0  0  0  0  0  0  0  0  0  0  0  0
  188.3690  176.0470  143.3090 C   0  0  0  0  0  2  0  0  0  0  0  0
  189.4780  176.1800  142.2790 C   0  0  0  0  0  2  0  0  0  0  0  0
  190.8210  175.8810  142.9190 C   0  0  0  0  0  2  0  0  0  0  0  0
  191.0990  176.8480  143.9670 N   0  0  0  0  0  2  0  0  0  0  0  0
  192.0560  179.0390  144.3440 C   0  0  0  0  0  2  0  0  0  0  0  0
  190.6600  179.2170  143.7890 C   0  0  0  0  0  2  0  0  0  0  0  0
  191.5240  178.0690  143.3080 C   0  0  0  0  0  3  0  0  0  0  0  0
  1  6  1  0  0  0  0
  2  7  1  0  0  0  0
  4  9  1  0  0  0  0
  4  2  2  0  0  0  0
  5  3  1  0  0  0  0
  6  2  1  0  0  0  0
  7  3  2  0  0  0  0
  8  1  2  0  0  0  0
  8  4  1  0  0  0  0
  9  5  2  0  0  0  0
 11 12  1  0  0  0  0
 11  1  1  0  0  0  0
 12 10  2  0  0  0  0
 13 12  1  0  0  0  0
 14 13  1  0  0  0  0
 15 14  2  0  0  0  0
 16 15  1  0  0  0  0
 17 16  1  0  0  0  0
 18 16  2  0  0  0  0
 19 20  2  0  0  0  0
 20  8  1  0  0  0  0
 21 20  1  0  0  0  0
 22 23  1  0  0  0  0
 22 21  1  0  0  0  0
 23 24  1  0  0  0  0
 26 25  1  0  0  0  0
 27 26  1  0  0  0  0
 27 24  1  0  0  0  0
 27 25  1  0  0  0  0
M  END
>  <MODEL>
8

>  <REMARK>
 VINA RESULT:      -6.8      3.087      6.154
  Name = 
  10 active torsions:
  status: ('A' for Active; 'I' for Inactive)
    1  A    between atoms: C_1  and  N_17
    2  A    between atoms: C_2  and  C_11
    3  A    between atoms: C_5  and  C_13
    4  A    between atoms: C_5  and  C_16
    5  A    between atoms: N_9  and  C_10
    6  A    between atoms: C_10  and  C_23
    7  A    between atoms: C_13  and  C_19
    8  A    between atoms: C_16  and  N_25
    9  A    between atoms: C_18  and  N_25
   10  A    between atoms: C_19  and  C_26
                            x       y       z     vdW  Elec       q    Type
                         _______ _______ _______ _____ _____    ______ ____

>  <TORSDO>
F 10

$$$$
=
 OpenBabel10222420193D

 27 29  0  0  0  0  0  0  0  0999 V2000
  190.3020  176.4870  143.0040 C   0  0  0  0  0  0  0  0  0  0  0  0
  191.0750  176.5140  145.3560 C   0  0  0  0  0  0  0  0  0  0  0  0
  190.9840  176.9760  147.6650 N   0  0  0  0  0  0  0  0  0  0  0  0
  189.8180  177.0650  145.1980 C   0  0  0  0  0  0  0  0  0  0  0  0
  189.7420  177.5230  147.5070 C   0  0  0  0  0  3  0  0  0  0  0  0
  191.6700  175.9940  143.8800 S   0  0  0  0  0  0  0  0  0  0  0  0
  191.6720  176.4660  146.6060 C   0  0  0  0  0  3  0  0  0  0  0  0
  189.3520  177.0590  143.8670 C   0  0  0  0  0  0  0  0  0  0  0  0
  189.1600  177.5710  146.2730 N   0  0  0  0  0  0  0  0  0  0  0  0
  191.9350  177.5500  140.7960 O   0  0  0  0  0  0  0  0  0  0  0  0
  190.1100  176.3080  141.5940 N   0  0  0  0  0  2  0  0  0  0  0  0
  190.9230  176.8440  140.5450 C   0  0  0  0  0  0  0  0  0  0  0  0
  190.5710  176.5530  139.1250 C   0  0  0  0  0  2  0  0  0  0  0  0
  189.6200  177.5340  138.6240 N   0  0  0  0  0  0  0  0  0  0  0  0
  188.3580  177.2600  138.5490 C   0  0  0  0  0  3  0  0  0  0  0  0
  187.4020  178.2480  138.0460 C   0  0  0  0  0  0  0  0  0  0  0  0
  186.2710  178.3790  138.5830 O   0  0  0  0  0  1  0  0  0  0  0  0
  187.7480  179.0470  136.9640 O   0  0  0  0  0  0  0  0  0  0  0  0
  187.9180  178.5710  142.1040 S   0  0  0  0  0  0  0  0  0  0  0  0
  188.0400  177.6030  143.4200 C   0  0  0  0  0  0  0  0  0  0  0  0
  186.7890  177.3130  144.1800 C   0  0  0  0  0  2  0  0  0  0  0  0
  185.6330  178.1180  143.6100 C   0  0  0  0  0  2  0  0  0  0  0  0
  185.0270  178.9950  144.6900 C   0  0  0  0  0  2  0  0  0  0  0  0
  183.8690  179.6990  144.1660 N   0  0  0  0  0  2  0  0  0  0  0  0
  181.7610  179.3700  143.0220 C   0  0  0  0  0  2  0  0  0  0  0  0
  181.7110  178.6280  144.3390 C   0  0  0  0  0  2  0  0  0  0  0  0
  183.0090  178.7000  143.5610 C   0  0  0  0  0  3  0  0  0  0  0  0
  1  8  2  0  0  0  0
  1  6  1  0  0  0  0
  2  7  1  0  0  0  0
  4  2  2  0  0  0  0
  4  9  1  0  0  0  0
  5  3  1  0  0  0  0
  6  2  1  0  0  0  0
  7  3  2  0  0  0  0
  8  4  1  0  0  0  0
  9  5  2  0  0  0  0
 11  1  1  0  0  0  0
 12 10  2  0  0  0  0
 12 11  1  0  0  0  0
 13 12  1  0  0  0  0
 14 13  1  0  0  0  0
 15 14  2  0  0  0  0
 16 15  1  0  0  0  0
 16 17  1  0  0  0  0
 18 16  2  0  0  0  0
 19 20  2  0  0  0  0
 20  8  1  0  0  0  0
 20 21  1  0  0  0  0
 22 21  1  0  0  0  0
 22 23  1  0  0  0  0
 24 23  1  0  0  0  0
 25 27  1  0  0  0  0
 25 26  1  0  0  0  0
 27 24  1  0  0  0  0
 27 26  1  0  0  0  0
M  END
>  <MODEL>
9

>  <REMARK>
 VINA RESULT:      -6.8      2.844      7.305
  Name = 
  10 active torsions:
  status: ('A' for Active; 'I' for Inactive)
    1  A    between atoms: C_1  and  N_17
    2  A    between atoms: C_2  and  C_11
    3  A    between atoms: C_5  and  C_13
    4  A    between atoms: C_5  and  C_16
    5  A    between atoms: N_9  and  C_10
    6  A    between atoms: C_10  and  C_23
    7  A    between atoms: C_13  and  C_19
    8  A    between atoms: C_16  and  N_25
    9  A    between atoms: C_18  and  N_25
   10  A    between atoms: C_19  and  C_26
                            x       y       z     vdW  Elec       q    Type
                         _______ _______ _______ _____ _____    ______ ____

>  <TORSDO>
F 10

$$$$
