=
 OpenBabel10222417183D

 46 50  0  0  1  0  0  0  0  0999 V2000
  189.2820  177.9810  147.0570 O   0  0  0  0  0  1  0  0  0  0  0  0
  185.8820  177.9960  145.7150 C   0  0  0  0  0  3  0  0  0  0  0  0
  186.9220  177.7520  146.5090 C   0  0  0  0  0  3  0  0  0  0  0  0
  188.3350  177.6520  146.0920 C   0  0  0  0  0  0  0  0  0  0  0  0
  186.0110  178.2730  144.2540 C   0  0  1  0  0  3  0  0  0  0  0  0
  188.7590  177.2140  144.8840 C   0  0  0  0  0  0  0  0  0  0  0  0
  186.6550  177.1360  143.5340 C   0  0  0  0  0  3  0  0  0  0  0  0
  187.8810  176.7070  143.8100 C   0  0  0  0  0  3  0  0  0  0  0  0
  190.2260  177.0840  144.6260 C   0  0  0  0  0  2  0  0  0  0  0  0
  190.6720  178.1040  143.5840 C   0  0  0  0  0  2  0  0  0  0  0  0
  191.1860  177.4150  142.3280 C   0  0  0  0  0  2  0  0  0  0  0  0
  190.1390  177.4730  141.2240 C   0  0  0  0  0  2  0  0  0  0  0  0
  189.9280  177.0860  138.7370 C   0  0  0  0  0  0  0  0  0  0  0  0
  192.6850  176.6030  138.5550 C   0  0  0  0  0  0  0  0  0  0  0  0
  190.7330  177.1290  139.8950 C   0  0  0  0  0  0  0  0  0  0  0  0
  190.5170  176.7930  137.4980 C   0  0  0  0  0  3  0  0  0  0  0  0
  191.8880  176.5500  137.4080 C   0  0  0  0  0  3  0  0  0  0  0  0
  194.0470  176.3630  138.4650 O   0  0  0  0  0  1  0  0  0  0  0  0
  192.1090  176.8970  139.7920 C   0  0  0  0  0  3  0  0  0  0  0  0
  188.4470  177.3590  138.8220 C   0  0  2  0  0  3  0  0  0  0  0  0
  187.2150  175.7070  137.2960 C   0  0  0  0  0  2  0  0  0  0  0  0
  187.7420  177.1070  137.5190 C   0  0  0  0  0  0  0  0  0  0  0  0
  187.5480  178.1320  136.6580 C   0  0  0  0  0  3  0  0  0  0  0  0
  185.7260  177.1220  135.2420 C   0  0  0  0  0  2  0  0  0  0  0  0
  186.1480  175.6700  135.0190 C   0  0  0  0  0  2  0  0  0  0  0  0
  187.3560  175.2420  135.8580 C   0  0  0  0  0  2  0  0  0  0  0  0
  186.9320  178.0480  135.2800 C   0  0  0  0  0  2  0  0  0  0  0  0
  188.1860  178.6490  139.2990 O   0  0  0  0  0  0  0  0  0  0  0  0
  187.1240  178.4970  140.1870 C   0  0  0  0  0  1  0  0  0  0  0  0
  184.6590  178.6240  143.6330 C   0  0  0  0  0  2  0  0  0  0  0  0
  183.6290  178.9960  144.6650 C   0  0  0  0  0  3  0  0  0  0  0  0
  182.3150  178.9810  144.4170 C   0  0  0  0  0  3  0  0  0  0  0  0
  181.7340  178.5890  143.0840 C   0  0  1  0  0  3  0  0  0  0  0  0
  180.2650  178.4620  143.0250 C   0  0  2  0  0  3  0  0  0  0  0  0
  180.9180  179.6970  142.5610 N   0  0  2  0  0  0  0  0  0  0  0  0
  179.5150  178.7470  144.3210 C   0  0  0  0  0  1  0  0  0  0  0  0
  182.4150  178.6070  140.6040 S   0  0  0  0  0  0  0  0  0  0  0  0
  182.1500  178.9340  138.8200 C   0  0  2  0  0  3  0  0  0  0  0  0
  179.5940  180.5070  138.6840 O   0  0  0  0  0  1  0  0  0  0  0  0
  179.7100  179.0150  140.5610 C   0  0  0  0  0  2  0  0  0  0  0  0
  180.6620  178.6070  136.9530 O   0  0  0  0  0  1  0  0  0  0  0  0
  180.7790  178.4330  138.3340 C   0  0  2  0  0  3  0  0  0  0  0  0
  179.6300  179.1580  139.0440 C   0  0  2  0  0  3  0  0  0  0  0  0
  180.9920  179.6330  141.1090 C   0  0  1  0  0  3  0  0  0  0  0  0
  183.2290  178.4970  138.0210 O   0  0  0  0  0  0  0  0  0  0  0  0
  183.7680  177.3280  138.5820 C   0  0  0  0  0  1  0  0  0  0  0  0
  2  3  2  0  0  0  0
  4  3  1  0  0  0  0
  4  1  1  0  0  0  0
  5 30  1  6  0  0  0
  5  2  1  0  0  0  0
  6  4  2  0  0  0  0
  7  8  2  0  0  0  0
  7  5  1  0  0  0  0
  8  6  1  0  0  0  0
  9  6  1  0  0  0  0
 10  9  1  0  0  0  0
 11 10  1  0  0  0  0
 12 11  1  0  0  0  0
 13 20  1  0  0  0  0
 13 15  1  0  0  0  0
 14 19  1  0  0  0  0
 15 12  1  0  0  0  0
 16 13  2  0  0  0  0
 17 16  1  0  0  0  0
 17 14  2  0  0  0  0
 18 14  1  0  0  0  0
 19 15  2  0  0  0  0
 20 28  1  6  0  0  0
 21 22  1  0  0  0  0
 22 20  1  0  0  0  0
 23 22  2  0  0  0  0
 24 27  1  0  0  0  0
 25 24  1  0  0  0  0
 25 26  1  0  0  0  0
 26 21  1  0  0  0  0
 27 23  1  0  0  0  0
 28 29  1  0  0  0  0
 30 31  1  0  0  0  0
 32 31  2  0  0  0  0
 33 32  1  1  0  0  0
 34 33  1  0  0  0  0
 34 36  1  1  0  0  0
 35 44  1  6  0  0  0
 35 34  1  0  0  0  0
 35 33  1  0  0  0  0
 37 44  1  0  0  0  0
 38 45  1  6  0  0  0
 38 37  1  0  0  0  0
 42 41  1  6  0  0  0
 42 38  1  0  0  0  0
 42 43  1  0  0  0  0
 43 39  1  1  0  0  0
 43 40  1  0  0  0  0
 44 40  1  1  0  0  0
 45 46  1  0  0  0  0
M  END
>  <MODEL>
1

>  <REMARK>
 VINA RESULT:      -8.8      0.000      0.000
  Name = 
  13 active torsions:
  status: ('A' for Active; 'I' for Inactive)
    1  A    between atoms: C_2  and  C_7
    2  A    between atoms: C_2  and  C_18
    3  A    between atoms: C_3  and  O_20
    4  A    between atoms: C_6  and  C_27
    5  A    between atoms: C_7  and  C_12
    6  A    between atoms: C_10  and  C_42
    7  A    between atoms: C_11  and  C_27
    8  A    between atoms: C_12  and  C_24
    9  A    between atoms: C_24  and  C_40
   10  A    between atoms: C_27  and  O_41
   11  A    between atoms: N_28  and  C_38
   12  A    between atoms: C_30  and  C_35
   13  A    between atoms: C_35  and  C_36
                            x       y       z     vdW  Elec       q    Type
                         _______ _______ _______ _____ _____    ______ ____

>  <TORSDO>
F 13

$$$$
=
 OpenBabel10222417183D

 46 50  0  0  1  0  0  0  0  0999 V2000
  188.2990  177.1150  146.5320 O   0  0  0  0  0  1  0  0  0  0  0  0
  190.3280  177.4390  143.5080 C   0  0  0  0  0  3  0  0  0  0  0  0
  189.8730  177.6200  144.7460 C   0  0  0  0  0  3  0  0  0  0  0  0
  188.4760  177.4620  145.1960 C   0  0  0  0  0  0  0  0  0  0  0  0
  189.4690  176.9760  142.3770 C   0  0  1  0  0  3  0  0  0  0  0  0
  187.3830  177.6890  144.4300 C   0  0  0  0  0  0  0  0  0  0  0  0
  188.3360  177.9150  142.1290 C   0  0  0  0  0  3  0  0  0  0  0  0
  187.4110  178.1890  143.0410 C   0  0  0  0  0  3  0  0  0  0  0  0
  186.0240  177.5720  145.0410 C   0  0  0  0  0  2  0  0  0  0  0  0
  185.3210  178.9250  145.0280 C   0  0  0  0  0  2  0  0  0  0  0  0
  183.8400  178.7690  144.7090 C   0  0  0  0  0  2  0  0  0  0  0  0
  183.6020  178.9070  143.2120 C   0  0  0  0  0  2  0  0  0  0  0  0
  181.7040  178.8630  141.5450 C   0  0  0  0  0  0  0  0  0  0  0  0
  179.8490  178.5900  143.6310 C   0  0  0  0  0  0  0  0  0  0  0  0
  182.1440  178.8350  142.8860 C   0  0  0  0  0  0  0  0  0  0  0  0
  180.3330  178.7600  141.2670 C   0  0  0  0  0  3  0  0  0  0  0  0
  179.4100  178.6270  142.3050 C   0  0  0  0  0  3  0  0  0  0  0  0
  178.9320  178.4570  144.6620 O   0  0  0  0  0  1  0  0  0  0  0  0
  181.2120  178.6880  143.9180 C   0  0  0  0  0  3  0  0  0  0  0  0
  182.6950  178.9930  140.4160 C   0  0  2  0  0  3  0  0  0  0  0  0
  181.5470  178.3080  138.2270 C   0  0  0  0  0  2  0  0  0  0  0  0
  182.0440  179.4160  139.1290 C   0  0  0  0  0  0  0  0  0  0  0  0
  181.8670  180.7330  138.8750 C   0  0  0  0  0  3  0  0  0  0  0  0
  180.1160  180.5560  137.0720 C   0  0  0  0  0  2  0  0  0  0  0  0
  180.5680  179.3980  136.1830 C   0  0  0  0  0  2  0  0  0  0  0  0
  181.7510  178.6070  136.7530 C   0  0  0  0  0  2  0  0  0  0  0  0
  181.3060  181.3380  137.6080 C   0  0  0  0  0  2  0  0  0  0  0  0
  183.4420  177.8210  140.2450 O   0  0  0  0  0  0  0  0  0  0  0  0
  184.7320  178.2560  139.9520 C   0  0  0  0  0  1  0  0  0  0  0  0
  190.2920  176.7550  141.1080 C   0  0  0  0  0  2  0  0  0  0  0  0
  189.5910  177.2500  139.8720 C   0  0  0  0  0  3  0  0  0  0  0  0
  190.0350  176.9990  138.6360 C   0  0  0  0  0  3  0  0  0  0  0  0
  191.2780  176.1960  138.3560 C   0  0  1  0  0  3  0  0  0  0  0  0
  191.0970  174.9810  137.5380 C   0  0  2  0  0  3  0  0  0  0  0  0
  191.5660  176.2290  136.9130 N   0  0  2  0  0  0  0  0  0  0  0  0
  189.6750  174.6900  137.0740 C   0  0  0  0  0  1  0  0  0  0  0  0
  193.6100  174.5950  137.5550 S   0  0  0  0  0  0  0  0  0  0  0  0
  195.3690  174.9880  137.2190 C   0  0  2  0  0  3  0  0  0  0  0  0
  195.3080  177.4850  135.5500 O   0  0  0  0  0  1  0  0  0  0  0  0
  193.3670  176.0980  135.2820 C   0  0  0  0  0  2  0  0  0  0  0  0
  197.0280  175.2970  135.5000 O   0  0  0  0  0  1  0  0  0  0  0  0
  195.6620  175.1020  135.7140 C   0  0  2  0  0  3  0  0  0  0  0  0
  194.8720  176.2480  135.0710 C   0  0  2  0  0  3  0  0  0  0  0  0
  193.0100  176.1270  136.7640 C   0  0  1  0  0  3  0  0  0  0  0  0
  196.2570  174.1320  137.9060 O   0  0  0  0  0  0  0  0  0  0  0  0
  196.0490  174.2700  139.2870 C   0  0  0  0  0  1  0  0  0  0  0  0
  2  3  2  0  0  0  0
  3  4  1  0  0  0  0
  4  1  1  0  0  0  0
  5 30  1  6  0  0  0
  5  2  1  0  0  0  0
  6  9  1  0  0  0  0
  6  4  2  0  0  0  0
  7  5  1  0  0  0  0
  7  8  2  0  0  0  0
  8  6  1  0  0  0  0
 10  9  1  0  0  0  0
 11 10  1  0  0  0  0
 12 11  1  0  0  0  0
 13 15  1  0  0  0  0
 14 19  1  0  0  0  0
 14 18  1  0  0  0  0
 15 12  1  0  0  0  0
 15 19  2  0  0  0  0
 16 13  2  0  0  0  0
 16 17  1  0  0  0  0
 17 14  2  0  0  0  0
 20 28  1  6  0  0  0
 20 13  1  0  0  0  0
 21 22  1  0  0  0  0
 22 20  1  0  0  0  0
 23 22  2  0  0  0  0
 24 27  1  0  0  0  0
 25 26  1  0  0  0  0
 25 24  1  0  0  0  0
 26 21  1  0  0  0  0
 27 23  1  0  0  0  0
 29 28  1  0  0  0  0
 31 30  1  0  0  0  0
 32 31  2  0  0  0  0
 33 32  1  6  0  0  0
 34 36  1  6  0  0  0
 34 33  1  0  0  0  0
 35 44  1  1  0  0  0
 35 34  1  0  0  0  0
 35 33  1  0  0  0  0
 38 37  1  0  0  0  0
 38 45  1  6  0  0  0
 42 41  1  1  0  0  0
 42 38  1  0  0  0  0
 43 40  1  0  0  0  0
 43 39  1  1  0  0  0
 43 42  1  0  0  0  0
 44 40  1  6  0  0  0
 44 37  1  0  0  0  0
 45 46  1  0  0  0  0
M  END
>  <MODEL>
2

>  <REMARK>
 VINA RESULT:      -8.2      3.404     10.023
  Name = 
  13 active torsions:
  status: ('A' for Active; 'I' for Inactive)
    1  A    between atoms: C_2  and  C_7
    2  A    between atoms: C_2  and  C_18
    3  A    between atoms: C_3  and  O_20
    4  A    between atoms: C_6  and  C_27
    5  A    between atoms: C_7  and  C_12
    6  A    between atoms: C_10  and  C_42
    7  A    between atoms: C_11  and  C_27
    8  A    between atoms: C_12  and  C_24
    9  A    between atoms: C_24  and  C_40
   10  A    between atoms: C_27  and  O_41
   11  A    between atoms: N_28  and  C_38
   12  A    between atoms: C_30  and  C_35
   13  A    between atoms: C_35  and  C_36
                            x       y       z     vdW  Elec       q    Type
                         _______ _______ _______ _____ _____    ______ ____

>  <TORSDO>
F 13

$$$$
=
 OpenBabel10222417183D

 46 50  0  0  1  0  0  0  0  0999 V2000
  191.3810  175.0780  138.4180 O   0  0  0  0  0  1  0  0  0  0  0  0
  189.4940  177.1930  136.1090 C   0  0  0  0  0  3  0  0  0  0  0  0
  190.4910  176.5000  136.6540 C   0  0  0  0  0  3  0  0  0  0  0  0
  190.6910  176.2430  138.0940 C   0  0  0  0  0  0  0  0  0  0  0  0
  188.3690  177.7750  136.8990 C   0  0  1  0  0  3  0  0  0  0  0  0
  190.3120  177.0760  139.0920 C   0  0  0  0  0  0  0  0  0  0  0  0
  188.8610  178.7430  137.9230 C   0  0  0  0  0  3  0  0  0  0  0  0
  189.6940  178.4030  138.8990 C   0  0  0  0  0  3  0  0  0  0  0  0
  190.6550  176.7290  140.5050 C   0  0  0  0  0  2  0  0  0  0  0  0
  191.7390  177.6630  141.0300 C   0  0  0  0  0  2  0  0  0  0  0  0
  191.8010  177.6300  142.5510 C   0  0  0  0  0  2  0  0  0  0  0  0
  190.8760  176.5510  143.0960 C   0  0  0  0  0  2  0  0  0  0  0  0
  189.4100  177.2150  145.0430 C   0  0  0  0  0  0  0  0  0  0  0  0
  191.4320  176.4850  146.8450 C   0  0  0  0  0  0  0  0  0  0  0  0
  190.6440  176.7260  144.5640 C   0  0  0  0  0  0  0  0  0  0  0  0
  189.2080  177.3380  146.4260 C   0  0  0  0  0  3  0  0  0  0  0  0
  190.2150  176.9770  147.3220 C   0  0  0  0  0  3  0  0  0  0  0  0
  192.4320  176.1250  147.7350 O   0  0  0  0  0  1  0  0  0  0  0  0
  191.6420  176.3550  145.4700 C   0  0  0  0  0  3  0  0  0  0  0  0
  188.3100  177.5950  144.0840 C   0  0  2  0  0  3  0  0  0  0  0  0
  185.8010  178.1070  143.9590 C   0  0  0  0  0  2  0  0  0  0  0  0
  187.0620  178.0420  144.7910 C   0  0  0  0  0  0  0  0  0  0  0  0
  187.1020  178.2860  146.1210 C   0  0  0  0  0  3  0  0  0  0  0  0
  184.6350  178.1790  146.6180 C   0  0  0  0  0  2  0  0  0  0  0  0
  183.9590  178.9210  145.4650 C   0  0  0  0  0  2  0  0  0  0  0  0
  184.9110  179.2830  144.3210 C   0  0  0  0  0  2  0  0  0  0  0  0
  185.9710  178.8130  146.9750 C   0  0  0  0  0  2  0  0  0  0  0  0
  188.0380  176.5650  143.1750 O   0  0  0  0  0  0  0  0  0  0  0  0
  187.7430  177.2120  141.9770 C   0  0  0  0  0  1  0  0  0  0  0  0
  187.3230  178.4170  135.9890 C   0  0  0  0  0  2  0  0  0  0  0  0
  186.9950  177.5630  134.7940 C   0  0  0  0  0  3  0  0  0  0  0  0
  185.7840  177.0310  134.5940 C   0  0  0  0  0  3  0  0  0  0  0  0
  184.6300  177.2340  135.5380 C   0  0  1  0  0  3  0  0  0  0  0  0
  183.9020  176.0170  135.9500 C   0  0  2  0  0  3  0  0  0  0  0  0
  184.9340  176.5920  136.8280 N   0  0  2  0  0  0  0  0  0  0  0  0
  184.4120  174.7030  135.3700 C   0  0  0  0  0  1  0  0  0  0  0  0
  182.9690  176.3340  138.6510 S   0  0  0  0  0  0  0  0  0  0  0  0
  182.3700  177.7120  139.7030 C   0  0  2  0  0  3  0  0  0  0  0  0
  184.2770  179.9750  139.1860 O   0  0  0  0  0  1  0  0  0  0  0  0
  185.2610  177.8030  138.9140 C   0  0  0  0  0  2  0  0  0  0  0  0
  182.9360  179.2100  141.5030 O   0  0  0  0  0  1  0  0  0  0  0  0
  183.4620  178.2360  140.6500 C   0  0  2  0  0  3  0  0  0  0  0  0
  184.6490  178.8180  139.8750 C   0  0  2  0  0  3  0  0  0  0  0  0
  184.2530  177.3610  137.8590 C   0  0  1  0  0  3  0  0  0  0  0  0
  181.1530  177.4100  140.3520 O   0  0  0  0  0  0  0  0  0  0  0  0
  180.3200  176.7140  139.4630 C   0  0  0  0  0  1  0  0  0  0  0  0
  2  3  2  0  0  0  0
  2  5  1  0  0  0  0
  3  4  1  0  0  0  0
  4  1  1  0  0  0  0
  4  6  2  0  0  0  0
  5 30  1  6  0  0  0
  5  7  1  0  0  0  0
  6  9  1  0  0  0  0
  7  8  2  0  0  0  0
  8  6  1  0  0  0  0
  9 10  1  0  0  0  0
 10 11  1  0  0  0  0
 11 12  1  0  0  0  0
 12 15  1  0  0  0  0
 13 16  1  0  0  0  0
 14 17  1  0  0  0  0
 14 18  1  0  0  0  0
 15 13  2  0  0  0  0
 15 19  1  0  0  0  0
 16 17  2  0  0  0  0
 19 14  2  0  0  0  0
 20 28  1  1  0  0  0
 20 22  1  0  0  0  0
 20 13  1  0  0  0  0
 21 26  1  0  0  0  0
 21 22  1  0  0  0  0
 22 23  2  0  0  0  0
 23 27  1  0  0  0  0
 24 27  1  0  0  0  0
 25 24  1  0  0  0  0
 26 25  1  0  0  0  0
 29 28  1  0  0  0  0
 31 30  1  0  0  0  0
 32 31  2  0  0  0  0
 33 32  1  6  0  0  0
 33 34  1  0  0  0  0
 33 35  1  0  0  0  0
 34 36  1  6  0  0  0
 34 35  1  0  0  0  0
 35 44  1  1  0  0  0
 37 38  1  0  0  0  0
 38 45  1  1  0  0  0
 38 42  1  0  0  0  0
 40 43  1  0  0  0  0
 42 41  1  1  0  0  0
 43 39  1  6  0  0  0
 43 42  1  0  0  0  0
 44 37  1  0  0  0  0
 44 40  1  1  0  0  0
 46 45  1  0  0  0  0
M  END
>  <MODEL>
3

>  <REMARK>
 VINA RESULT:      -8.1      2.409      7.422
  Name = 
  13 active torsions:
  status: ('A' for Active; 'I' for Inactive)
    1  A    between atoms: C_2  and  C_7
    2  A    between atoms: C_2  and  C_18
    3  A    between atoms: C_3  and  O_20
    4  A    between atoms: C_6  and  C_27
    5  A    between atoms: C_7  and  C_12
    6  A    between atoms: C_10  and  C_42
    7  A    between atoms: C_11  and  C_27
    8  A    between atoms: C_12  and  C_24
    9  A    between atoms: C_24  and  C_40
   10  A    between atoms: C_27  and  O_41
   11  A    between atoms: N_28  and  C_38
   12  A    between atoms: C_30  and  C_35
   13  A    between atoms: C_35  and  C_36
                            x       y       z     vdW  Elec       q    Type
                         _______ _______ _______ _____ _____    ______ ____

>  <TORSDO>
F 13

$$$$
=
 OpenBabel10222417183D

 46 50  0  0  1  0  0  0  0  0999 V2000
  181.8600  178.8180  136.7410 O   0  0  0  0  0  1  0  0  0  0  0  0
  183.7100  175.8080  135.8040 C   0  0  0  0  0  3  0  0  0  0  0  0
  182.7820  176.7610  135.8230 C   0  0  0  0  0  3  0  0  0  0  0  0
  182.3580  177.5450  137.0000 C   0  0  0  0  0  0  0  0  0  0  0  0
  184.5220  175.4280  136.9990 C   0  0  1  0  0  3  0  0  0  0  0  0
  182.3630  177.0940  138.2770 C   0  0  0  0  0  0  0  0  0  0  0  0
  183.6590  174.9610  138.1230 C   0  0  0  0  0  3  0  0  0  0  0  0
  182.7340  175.7250  138.6900 C   0  0  0  0  0  3  0  0  0  0  0  0
  181.8250  177.9670  139.3640 C   0  0  0  0  0  2  0  0  0  0  0  0
  182.9170  178.8910  139.8890 C   0  0  0  0  0  2  0  0  0  0  0  0
  183.2920  178.5380  141.3210 C   0  0  0  0  0  2  0  0  0  0  0  0
  184.8020  178.3900  141.4540 C   0  0  0  0  0  2  0  0  0  0  0  0
  186.5510  178.0360  143.2420 C   0  0  0  0  0  0  0  0  0  0  0  0
  184.6610  178.6030  145.2350 C   0  0  0  0  0  0  0  0  0  0  0  0
  185.2170  178.3320  142.8900 C   0  0  0  0  0  0  0  0  0  0  0  0
  186.9210  178.0220  144.5940 C   0  0  0  0  0  3  0  0  0  0  0  0
  185.9790  178.3010  145.5870 C   0  0  0  0  0  3  0  0  0  0  0  0
  183.7270  178.8820  146.2210 O   0  0  0  0  0  1  0  0  0  0  0  0
  184.2840  178.6240  143.8910 C   0  0  0  0  0  3  0  0  0  0  0  0
  187.5790  177.7460  142.1770 C   0  0  2  0  0  3  0  0  0  0  0  0
  189.7770  178.4840  143.2700 C   0  0  0  0  0  2  0  0  0  0  0  0
  188.9100  177.3570  142.7560 C   0  0  0  0  0  0  0  0  0  0  0  0
  189.2340  176.0480  142.8590 C   0  0  0  0  0  3  0  0  0  0  0  0
  191.0960  176.2320  144.5460 C   0  0  0  0  0  2  0  0  0  0  0  0
  191.9090  177.4530  144.1160 C   0  0  0  0  0  2  0  0  0  0  0  0
  191.2550  178.2680  142.9960 C   0  0  0  0  0  2  0  0  0  0  0  0
  190.5500  175.4800  143.3410 C   0  0  0  0  0  2  0  0  0  0  0  0
  187.7080  178.8120  141.2780 O   0  0  0  0  0  0  0  0  0  0  0  0
  187.9800  178.2150  140.0490 C   0  0  0  0  0  1  0  0  0  0  0  0
  185.5790  174.3830  136.6430 C   0  0  0  0  0  2  0  0  0  0  0  0
  186.3170  174.7160  135.3750 C   0  0  0  0  0  3  0  0  0  0  0  0
  187.6490  174.8230  135.3170 C   0  0  0  0  0  3  0  0  0  0  0  0
  188.5430  174.6170  136.5110 C   0  0  1  0  0  3  0  0  0  0  0  0
  189.0940  173.2590  136.6870 C   0  0  2  0  0  3  0  0  0  0  0  0
  189.9080  174.3100  136.0530 N   0  0  2  0  0  0  0  0  0  0  0  0
  188.6930  172.2320  135.6350 C   0  0  0  0  0  1  0  0  0  0  0  0
  192.5410  174.7110  136.4570 S   0  0  0  0  0  0  0  0  0  0  0  0
  193.2460  175.3180  138.0360 C   0  0  2  0  0  3  0  0  0  0  0  0
  190.8710  176.0680  139.7170 O   0  0  0  0  0  1  0  0  0  0  0  0
  190.4890  176.2810  137.3560 C   0  0  0  0  0  2  0  0  0  0  0  0
  193.4070  177.2010  139.5310 O   0  0  0  0  0  1  0  0  0  0  0  0
  192.7660  176.7390  138.3790 C   0  0  2  0  0  3  0  0  0  0  0  0
  191.2480  176.7880  138.5800 C   0  0  2  0  0  3  0  0  0  0  0  0
  190.8230  174.8230  137.0620 C   0  0  1  0  0  3  0  0  0  0  0  0
  194.6480  175.1630  138.1010 O   0  0  0  0  0  0  0  0  0  0  0  0
  194.9490  173.8080  138.3090 C   0  0  0  0  0  1  0  0  0  0  0  0
  1  4  1  0  0  0  0
  2  3  2  0  0  0  0
  2  5  1  0  0  0  0
  3  4  1  0  0  0  0
  4  6  2  0  0  0  0
  5 30  1  6  0  0  0
  5  7  1  0  0  0  0
  6  8  1  0  0  0  0
  6  9  1  0  0  0  0
  7  8  2  0  0  0  0
  9 10  1  0  0  0  0
 10 11  1  0  0  0  0
 11 12  1  0  0  0  0
 12 15  1  0  0  0  0
 13 16  1  0  0  0  0
 14 17  1  0  0  0  0
 14 18  1  0  0  0  0
 15 13  2  0  0  0  0
 15 19  1  0  0  0  0
 16 17  2  0  0  0  0
 19 14  2  0  0  0  0
 20 28  1  1  0  0  0
 20 22  1  0  0  0  0
 20 13  1  0  0  0  0
 22 23  2  0  0  0  0
 22 21  1  0  0  0  0
 23 27  1  0  0  0  0
 25 24  1  0  0  0  0
 26 21  1  0  0  0  0
 26 25  1  0  0  0  0
 27 24  1  0  0  0  0
 29 28  1  0  0  0  0
 31 30  1  0  0  0  0
 32 31  2  0  0  0  0
 33 32  1  6  0  0  0
 33 34  1  0  0  0  0
 34 36  1  6  0  0  0
 35 33  1  0  0  0  0
 35 34  1  0  0  0  0
 35 44  1  1  0  0  0
 37 44  1  0  0  0  0
 37 38  1  0  0  0  0
 38 45  1  6  0  0  0
 38 42  1  0  0  0  0
 40 43  1  0  0  0  0
 42 43  1  0  0  0  0
 42 41  1  1  0  0  0
 43 39  1  1  0  0  0
 44 40  1  6  0  0  0
 45 46  1  0  0  0  0
M  END
>  <MODEL>
4

>  <REMARK>
 VINA RESULT:      -7.9      3.261      9.912
  Name = 
  13 active torsions:
  status: ('A' for Active; 'I' for Inactive)
    1  A    between atoms: C_2  and  C_7
    2  A    between atoms: C_2  and  C_18
    3  A    between atoms: C_3  and  O_20
    4  A    between atoms: C_6  and  C_27
    5  A    between atoms: C_7  and  C_12
    6  A    between atoms: C_10  and  C_42
    7  A    between atoms: C_11  and  C_27
    8  A    between atoms: C_12  and  C_24
    9  A    between atoms: C_24  and  C_40
   10  A    between atoms: C_27  and  O_41
   11  A    between atoms: N_28  and  C_38
   12  A    between atoms: C_30  and  C_35
   13  A    between atoms: C_35  and  C_36
                            x       y       z     vdW  Elec       q    Type
                         _______ _______ _______ _____ _____    ______ ____

>  <TORSDO>
F 13

$$$$
=
 OpenBabel10222417183D

 46 50  0  0  1  0  0  0  0  0999 V2000
  189.0440  176.9240  134.9110 O   0  0  0  0  0  1  0  0  0  0  0  0
  188.6600  178.7660  138.0460 C   0  0  0  0  0  3  0  0  0  0  0  0
  189.0330  178.4490  136.8080 C   0  0  0  0  0  3  0  0  0  0  0  0
  189.2410  177.0870  136.2790 C   0  0  0  0  0  0  0  0  0  0  0  0
  188.3290  177.7500  139.0890 C   0  0  1  0  0  3  0  0  0  0  0  0
  189.6600  176.0260  137.0090 C   0  0  0  0  0  0  0  0  0  0  0  0
  189.4860  176.8490  139.3640 C   0  0  0  0  0  3  0  0  0  0  0  0
  190.0370  176.0750  138.4360 C   0  0  0  0  0  3  0  0  0  0  0  0
  189.9110  174.7210  136.3250 C   0  0  0  0  0  2  0  0  0  0  0  0
  188.8950  173.6800  136.7830 C   0  0  0  0  0  2  0  0  0  0  0  0
  187.5240  173.9500  136.1780 C   0  0  0  0  0  2  0  0  0  0  0  0
  186.5680  174.4740  137.2410 C   0  0  0  0  0  2  0  0  0  0  0  0
  184.1170  174.8460  136.7590 C   0  0  0  0  0  0  0  0  0  0  0  0
  183.6630  172.0790  136.8050 C   0  0  0  0  0  0  0  0  0  0  0  0
  185.1810  173.9580  137.0240 C   0  0  0  0  0  0  0  0  0  0  0  0
  182.8320  174.3340  136.5270 C   0  0  0  0  0  3  0  0  0  0  0  0
  182.6060  172.9570  136.5520 C   0  0  0  0  0  3  0  0  0  0  0  0
  183.4390  170.7110  136.8290 O   0  0  0  0  0  1  0  0  0  0  0  0
  184.9470  172.5790  137.0340 C   0  0  0  0  0  3  0  0  0  0  0  0
  184.3520  176.3360  136.7160 C   0  0  2  0  0  3  0  0  0  0  0  0
  183.5790  176.6790  139.1370 C   0  0  0  0  0  2  0  0  0  0  0  0
  183.4770  177.0820  137.6830 C   0  0  0  0  0  0  0  0  0  0  0  0
  182.7140  178.1050  137.2350 C   0  0  0  0  0  3  0  0  0  0  0  0
  182.2460  179.2430  139.4340 C   0  0  0  0  0  2  0  0  0  0  0  0
  181.9570  178.1100  140.4190 C   0  0  0  0  0  2  0  0  0  0  0  0
  182.2430  176.7140  139.8570 C   0  0  0  0  0  2  0  0  0  0  0  0
  181.7230  178.9120  138.0440 C   0  0  0  0  0  2  0  0  0  0  0  0
  184.2230  176.8420  135.4180 O   0  0  0  0  0  0  0  0  0  0  0  0
  185.5220  177.1540  135.0220 C   0  0  0  0  0  1  0  0  0  0  0  0
  187.8290  178.4140  140.3720 C   0  0  0  0  0  2  0  0  0  0  0  0
  186.3360  178.6040  140.3790 C   0  0  0  0  0  3  0  0  0  0  0  0
  185.6310  178.7630  141.5040 C   0  0  0  0  0  3  0  0  0  0  0  0
  186.2560  178.7700  142.8730 C   0  0  1  0  0  3  0  0  0  0  0  0
  185.3240  178.7160  144.0160 C   0  0  2  0  0  3  0  0  0  0  0  0
  185.9830  177.4880  143.5430 N   0  0  2  0  0  0  0  0  0  0  0  0
  183.8410  178.6560  143.6700 C   0  0  0  0  0  1  0  0  0  0  0  0
  188.6770  177.4720  143.5380 S   0  0  0  0  0  0  0  0  0  0  0  0
  189.6920  176.9250  144.9630 C   0  0  2  0  0  3  0  0  0  0  0  0
  187.7360  176.5090  147.2050 O   0  0  0  0  0  1  0  0  0  0  0  0
  187.0480  178.1760  145.6200 C   0  0  0  0  0  2  0  0  0  0  0  0
  190.3610  177.4350  147.2210 O   0  0  0  0  0  1  0  0  0  0  0  0
  189.4940  177.8220  146.1970 C   0  0  2  0  0  3  0  0  0  0  0  0
  188.0470  177.7740  146.7010 C   0  0  2  0  0  3  0  0  0  0  0  0
  187.1040  177.2220  144.4310 C   0  0  1  0  0  3  0  0  0  0  0  0
  191.0470  176.7260  144.6200 O   0  0  0  0  0  0  0  0  0  0  0  0
  191.1140  175.9320  143.4640 C   0  0  0  0  0  1  0  0  0  0  0  0
  1  4  1  0  0  0  0
  2  5  1  0  0  0  0
  3  2  2  0  0  0  0
  4  3  1  0  0  0  0
  4  6  2  0  0  0  0
  5  7  1  0  0  0  0
  5 30  1  1  0  0  0
  6  8  1  0  0  0  0
  8  7  2  0  0  0  0
  9 10  1  0  0  0  0
  9  6  1  0  0  0  0
 11 10  1  0  0  0  0
 11 12  1  0  0  0  0
 13 15  1  0  0  0  0
 14 18  1  0  0  0  0
 14 19  1  0  0  0  0
 15 19  2  0  0  0  0
 15 12  1  0  0  0  0
 16 17  1  0  0  0  0
 16 13  2  0  0  0  0
 17 14  2  0  0  0  0
 20 28  1  6  0  0  0
 20 13  1  0  0  0  0
 20 22  1  0  0  0  0
 21 26  1  0  0  0  0
 22 21  1  0  0  0  0
 23 22  2  0  0  0  0
 23 27  1  0  0  0  0
 24 25  1  0  0  0  0
 26 25  1  0  0  0  0
 27 24  1  0  0  0  0
 29 28  1  0  0  0  0
 30 31  1  0  0  0  0
 31 32  2  0  0  0  0
 33 32  1  6  0  0  0
 33 35  1  0  0  0  0
 33 34  1  0  0  0  0
 34 36  1  6  0  0  0
 35 34  1  0  0  0  0
 35 44  1  1  0  0  0
 37 44  1  0  0  0  0
 37 38  1  0  0  0  0
 38 45  1  6  0  0  0
 38 42  1  0  0  0  0
 40 43  1  0  0  0  0
 42 43  1  0  0  0  0
 42 41  1  1  0  0  0
 43 39  1  6  0  0  0
 44 40  1  1  0  0  0
 46 45  1  0  0  0  0
M  END
>  <MODEL>
5

>  <REMARK>
 VINA RESULT:      -7.8      2.732      8.038
  Name = 
  13 active torsions:
  status: ('A' for Active; 'I' for Inactive)
    1  A    between atoms: C_2  and  C_7
    2  A    between atoms: C_2  and  C_18
    3  A    between atoms: C_3  and  O_20
    4  A    between atoms: C_6  and  C_27
    5  A    between atoms: C_7  and  C_12
    6  A    between atoms: C_10  and  C_42
    7  A    between atoms: C_11  and  C_27
    8  A    between atoms: C_12  and  C_24
    9  A    between atoms: C_24  and  C_40
   10  A    between atoms: C_27  and  O_41
   11  A    between atoms: N_28  and  C_38
   12  A    between atoms: C_30  and  C_35
   13  A    between atoms: C_35  and  C_36
                            x       y       z     vdW  Elec       q    Type
                         _______ _______ _______ _____ _____    ______ ____

>  <TORSDO>
F 13

$$$$
=
 OpenBabel10222417183D

 46 50  0  0  1  0  0  0  0  0999 V2000
  183.0490  179.3760  145.3690 O   0  0  0  0  0  1  0  0  0  0  0  0
  182.9540  178.8310  141.7560 C   0  0  0  0  0  3  0  0  0  0  0  0
  182.6520  178.7560  143.0500 C   0  0  0  0  0  3  0  0  0  0  0  0
  183.5920  178.9060  144.1780 C   0  0  0  0  0  0  0  0  0  0  0  0
  184.3230  179.1480  141.2500 C   0  0  1  0  0  3  0  0  0  0  0  0
  184.9020  178.5640  144.1470 C   0  0  0  0  0  0  0  0  0  0  0  0
  185.3270  178.1480  141.7180 C   0  0  0  0  0  3  0  0  0  0  0  0
  185.5860  177.9300  143.0020 C   0  0  0  0  0  3  0  0  0  0  0  0
  185.7200  178.6900  145.3920 C   0  0  0  0  0  2  0  0  0  0  0  0
  186.6770  177.5090  145.5170 C   0  0  0  0  0  2  0  0  0  0  0  0
  187.3890  177.5220  146.8630 C   0  0  0  0  0  2  0  0  0  0  0  0
  188.6710  178.3390  146.7770 C   0  0  0  0  0  2  0  0  0  0  0  0
  190.4610  177.6100  145.1510 C   0  0  0  0  0  0  0  0  0  0  0  0
  191.4570  175.7830  147.0310 C   0  0  0  0  0  0  0  0  0  0  0  0
  189.8390  177.4790  146.4110 C   0  0  0  0  0  0  0  0  0  0  0  0
  191.5750  176.8140  144.8460 C   0  0  0  0  0  3  0  0  0  0  0  0
  192.0690  175.9030  145.7810 C   0  0  0  0  0  3  0  0  0  0  0  0
  191.9480  174.8790  147.9600 O   0  0  0  0  0  1  0  0  0  0  0  0
  190.3490  176.5730  147.3460 C   0  0  0  0  0  3  0  0  0  0  0  0
  189.9430  178.6000  144.1390 C   0  0  2  0  0  3  0  0  0  0  0  0
  191.2140  177.2570  142.3630 C   0  0  0  0  0  2  0  0  0  0  0  0
  189.9910  178.0640  142.7360 C   0  0  0  0  0  0  0  0  0  0  0  0
  188.9330  178.2550  141.9140 C   0  0  0  0  0  3  0  0  0  0  0  0
  189.4410  176.4830  140.1970 C   0  0  0  0  0  2  0  0  0  0  0  0
  190.9480  176.5740  139.9570 C   0  0  0  0  0  2  0  0  0  0  0  0
  191.6740  177.5010  140.9370 C   0  0  0  0  0  2  0  0  0  0  0  0
  188.8400  177.8560  140.4580 C   0  0  0  0  0  2  0  0  0  0  0  0
  190.6040  179.8310  144.2350 O   0  0  0  0  0  0  0  0  0  0  0  0
  191.9550  179.5060  144.3410 C   0  0  0  0  0  1  0  0  0  0  0  0
  184.3380  179.2730  139.7260 C   0  0  0  0  0  2  0  0  0  0  0  0
  183.0060  178.9460  139.1080 C   0  0  0  0  0  3  0  0  0  0  0  0
  182.8030  177.8610  138.3520 C   0  0  0  0  0  3  0  0  0  0  0  0
  183.8840  176.8580  138.0470 C   0  0  1  0  0  3  0  0  0  0  0  0
  183.4660  175.6570  137.2980 C   0  0  2  0  0  3  0  0  0  0  0  0
  184.0890  176.7880  136.5910 N   0  0  2  0  0  0  0  0  0  0  0  0
  181.9910  175.5810  136.9210 C   0  0  0  0  0  1  0  0  0  0  0  0
  186.5560  177.5940  137.3110 S   0  0  0  0  0  0  0  0  0  0  0  0
  188.1000  176.8690  136.6380 C   0  0  2  0  0  3  0  0  0  0  0  0
  187.2100  174.5040  135.0140 O   0  0  0  0  0  1  0  0  0  0  0  0
  185.7460  175.0240  136.8450 C   0  0  0  0  0  2  0  0  0  0  0  0
  189.4870  174.9010  136.5650 O   0  0  0  0  0  1  0  0  0  0  0  0
  188.2530  175.3840  137.0060 C   0  0  2  0  0  3  0  0  0  0  0  0
  187.1250  174.5360  136.4080 C   0  0  2  0  0  3  0  0  0  0  0  0
  185.4880  176.4500  136.3730 C   0  0  1  0  0  3  0  0  0  0  0  0
  189.2400  177.6470  136.9350 O   0  0  0  0  0  0  0  0  0  0  0  0
  188.8870  179.0050  136.9100 C   0  0  0  0  0  1  0  0  0  0  0  0
  2  3  2  0  0  0  0
  3  4  1  0  0  0  0
  4  1  1  0  0  0  0
  5 30  1  6  0  0  0
  5  7  1  0  0  0  0
  5  2  1  0  0  0  0
  6  4  2  0  0  0  0
  6  9  1  0  0  0  0
  7  8  2  0  0  0  0
  8  6  1  0  0  0  0
  9 10  1  0  0  0  0
 10 11  1  0  0  0  0
 12 11  1  0  0  0  0
 13 15  1  0  0  0  0
 14 19  1  0  0  0  0
 14 18  1  0  0  0  0
 15 12  1  0  0  0  0
 15 19  2  0  0  0  0
 16 13  2  0  0  0  0
 16 17  1  0  0  0  0
 17 14  2  0  0  0  0
 20 28  1  6  0  0  0
 20 13  1  0  0  0  0
 21 22  1  0  0  0  0
 22 20  1  0  0  0  0
 23 22  2  0  0  0  0
 24 27  1  0  0  0  0
 25 24  1  0  0  0  0
 25 26  1  0  0  0  0
 26 21  1  0  0  0  0
 27 23  1  0  0  0  0
 28 29  1  0  0  0  0
 31 30  1  0  0  0  0
 32 31  2  0  0  0  0
 33 32  1  6  0  0  0
 34 36  1  6  0  0  0
 34 33  1  0  0  0  0
 35 44  1  1  0  0  0
 35 34  1  0  0  0  0
 35 33  1  0  0  0  0
 38 45  1  1  0  0  0
 38 42  1  0  0  0  0
 38 37  1  0  0  0  0
 42 41  1  6  0  0  0
 43 39  1  6  0  0  0
 43 40  1  0  0  0  0
 43 42  1  0  0  0  0
 44 40  1  1  0  0  0
 44 37  1  0  0  0  0
 46 45  1  0  0  0  0
M  END
>  <MODEL>
6

>  <REMARK>
 VINA RESULT:      -7.7      2.971      6.612
  Name = 
  13 active torsions:
  status: ('A' for Active; 'I' for Inactive)
    1  A    between atoms: C_2  and  C_7
    2  A    between atoms: C_2  and  C_18
    3  A    between atoms: C_3  and  O_20
    4  A    between atoms: C_6  and  C_27
    5  A    between atoms: C_7  and  C_12
    6  A    between atoms: C_10  and  C_42
    7  A    between atoms: C_11  and  C_27
    8  A    between atoms: C_12  and  C_24
    9  A    between atoms: C_24  and  C_40
   10  A    between atoms: C_27  and  O_41
   11  A    between atoms: N_28  and  C_38
   12  A    between atoms: C_30  and  C_35
   13  A    between atoms: C_35  and  C_36
                            x       y       z     vdW  Elec       q    Type
                         _______ _______ _______ _____ _____    ______ ____

>  <TORSDO>
F 13

$$$$
=
 OpenBabel10222417183D

 46 50  0  0  1  0  0  0  0  0999 V2000
  189.4850  177.1920  143.3700 O   0  0  0  0  0  1  0  0  0  0  0  0
  191.5490  177.2700  140.3540 C   0  0  0  0  0  3  0  0  0  0  0  0
  191.1060  177.5180  141.5840 C   0  0  0  0  0  3  0  0  0  0  0  0
  189.6990  177.4930  142.0280 C   0  0  0  0  0  0  0  0  0  0  0  0
  190.6590  176.8590  139.2270 C   0  0  1  0  0  3  0  0  0  0  0  0
  188.6330  177.7970  141.2500 C   0  0  0  0  0  0  0  0  0  0  0  0
  189.6140  177.8880  138.9510 C   0  0  0  0  0  3  0  0  0  0  0  0
  188.7120  178.2630  139.8500 C   0  0  0  0  0  3  0  0  0  0  0  0
  187.2670  177.8130  141.8540 C   0  0  0  0  0  2  0  0  0  0  0  0
  186.6330  179.1900  141.6910 C   0  0  0  0  0  2  0  0  0  0  0  0
  185.4290  179.1330  140.7610 C   0  0  0  0  0  2  0  0  0  0  0  0
  184.5260  177.9650  141.1320 C   0  0  0  0  0  2  0  0  0  0  0  0
  182.1920  178.4790  141.9510 C   0  0  0  0  0  0  0  0  0  0  0  0
  183.1610  178.8380  144.5580 C   0  0  0  0  0  0  0  0  0  0  0  0
  183.5710  178.3430  142.2200 C   0  0  0  0  0  0  0  0  0  0  0  0
  181.3140  178.8020  142.9960 C   0  0  0  0  0  3  0  0  0  0  0  0
  181.7970  178.9830  144.2940 C   0  0  0  0  0  3  0  0  0  0  0  0
  183.6400  179.0160  145.8470 O   0  0  0  0  0  1  0  0  0  0  0  0
  184.0430  178.5130  143.5260 C   0  0  0  0  0  3  0  0  0  0  0  0
  181.6590  178.2730  140.5560 C   0  0  2  0  0  3  0  0  0  0  0  0
  182.1060  180.0110  138.7240 C   0  0  0  0  0  2  0  0  0  0  0  0
  181.2620  179.5640  139.8970 C   0  0  0  0  0  0  0  0  0  0  0  0
  180.1530  180.2140  140.3200 C   0  0  0  0  0  3  0  0  0  0  0  0
  179.7770  181.6990  138.3200 C   0  0  0  0  0  2  0  0  0  0  0  0
  181.1650  182.2020  137.9250 C   0  0  0  0  0  2  0  0  0  0  0  0
  182.3080  181.5150  138.6790 C   0  0  0  0  0  2  0  0  0  0  0  0
  179.6510  181.5530  139.8290 C   0  0  0  0  0  2  0  0  0  0  0  0
  180.6070  177.3490  140.5360 O   0  0  0  0  0  0  0  0  0  0  0  0
  181.0470  176.3200  139.7060 C   0  0  0  0  0  1  0  0  0  0  0  0
  191.4660  176.5400  137.9690 C   0  0  0  0  0  2  0  0  0  0  0  0
  191.8210  175.0810  137.8660 C   0  0  0  0  0  3  0  0  0  0  0  0
  191.1050  174.2090  137.1490 C   0  0  0  0  0  3  0  0  0  0  0  0
  189.8760  174.5970  136.3720 C   0  0  1  0  0  3  0  0  0  0  0  0
  189.5260  173.7300  135.2290 C   0  0  2  0  0  3  0  0  0  0  0  0
  188.8500  173.5510  136.5240 N   0  0  2  0  0  0  0  0  0  0  0  0
  190.4520  172.5470  134.9780 C   0  0  0  0  0  1  0  0  0  0  0  0
  186.2760  173.1660  137.2180 S   0  0  0  0  0  0  0  0  0  0  0  0
  184.9170  174.3050  136.7540 C   0  0  2  0  0  3  0  0  0  0  0  0
  186.2760  176.6800  135.5150 O   0  0  0  0  0  1  0  0  0  0  0  0
  187.6150  175.5500  137.1560 C   0  0  0  0  0  2  0  0  0  0  0  0
  183.9850  176.5020  137.0850 O   0  0  0  0  0  1  0  0  0  0  0  0
  185.0910  175.7010  137.3770 C   0  0  2  0  0  3  0  0  0  0  0  0
  186.3680  176.3850  136.8770 C   0  0  2  0  0  3  0  0  0  0  0  0
  187.5550  174.2080  136.4360 C   0  0  1  0  0  3  0  0  0  0  0  0
  183.6400  173.7440  136.9710 O   0  0  0  0  0  0  0  0  0  0  0  0
  183.7760  172.3620  137.1750 C   0  0  0  0  0  1  0  0  0  0  0  0
  2  3  2  0  0  0  0
  3  4  1  0  0  0  0
  4  1  1  0  0  0  0
  5 30  1  6  0  0  0
  5  2  1  0  0  0  0
  6  9  1  0  0  0  0
  6  4  2  0  0  0  0
  7  5  1  0  0  0  0
  7  8  2  0  0  0  0
  8  6  1  0  0  0  0
 10  9  1  0  0  0  0
 11 12  1  0  0  0  0
 11 10  1  0  0  0  0
 12 15  1  0  0  0  0
 13 15  2  0  0  0  0
 13 16  1  0  0  0  0
 14 18  1  0  0  0  0
 15 19  1  0  0  0  0
 16 17  2  0  0  0  0
 17 14  1  0  0  0  0
 19 14  2  0  0  0  0
 20 28  1  1  0  0  0
 20 13  1  0  0  0  0
 21 22  1  0  0  0  0
 22 23  2  0  0  0  0
 22 20  1  0  0  0  0
 24 27  1  0  0  0  0
 25 24  1  0  0  0  0
 25 26  1  0  0  0  0
 26 21  1  0  0  0  0
 27 23  1  0  0  0  0
 29 28  1  0  0  0  0
 31 30  1  0  0  0  0
 32 31  2  0  0  0  0
 33 35  1  0  0  0  0
 33 32  1  1  0  0  0
 34 36  1  1  0  0  0
 34 33  1  0  0  0  0
 34 35  1  0  0  0  0
 35 44  1  6  0  0  0
 38 45  1  1  0  0  0
 38 37  1  0  0  0  0
 38 42  1  0  0  0  0
 42 41  1  6  0  0  0
 43 39  1  6  0  0  0
 43 40  1  0  0  0  0
 43 42  1  0  0  0  0
 44 40  1  1  0  0  0
 44 37  1  0  0  0  0
 45 46  1  0  0  0  0
M  END
>  <MODEL>
7

>  <REMARK>
 VINA RESULT:      -7.6      3.149      8.473
  Name = 
  13 active torsions:
  status: ('A' for Active; 'I' for Inactive)
    1  A    between atoms: C_2  and  C_7
    2  A    between atoms: C_2  and  C_18
    3  A    between atoms: C_3  and  O_20
    4  A    between atoms: C_6  and  C_27
    5  A    between atoms: C_7  and  C_12
    6  A    between atoms: C_10  and  C_42
    7  A    between atoms: C_11  and  C_27
    8  A    between atoms: C_12  and  C_24
    9  A    between atoms: C_24  and  C_40
   10  A    between atoms: C_27  and  O_41
   11  A    between atoms: N_28  and  C_38
   12  A    between atoms: C_30  and  C_35
   13  A    between atoms: C_35  and  C_36
                            x       y       z     vdW  Elec       q    Type
                         _______ _______ _______ _____ _____    ______ ____

>  <TORSDO>
F 13

$$$$
=
 OpenBabel10222417183D

 46 50  0  0  1  0  0  0  0  0999 V2000
  183.1330  180.0990  138.9000 O   0  0  0  0  0  1  0  0  0  0  0  0
  183.2260  176.8100  137.3090 C   0  0  0  0  0  3  0  0  0  0  0  0
  183.0290  178.1120  137.4990 C   0  0  0  0  0  3  0  0  0  0  0  0
  182.7300  178.7730  138.7850 C   0  0  0  0  0  0  0  0  0  0  0  0
  183.2310  175.8090  138.4170 C   0  0  1  0  0  3  0  0  0  0  0  0
  182.0500  178.2050  139.8090 C   0  0  0  0  0  0  0  0  0  0  0  0
  181.9310  175.7960  139.1500 C   0  0  0  0  0  3  0  0  0  0  0  0
  181.4460  176.8580  139.7820 C   0  0  0  0  0  3  0  0  0  0  0  0
  181.7430  179.0200  141.0240 C   0  0  0  0  0  2  0  0  0  0  0  0
  182.6290  178.5890  142.1880 C   0  0  0  0  0  2  0  0  0  0  0  0
  184.0140  178.1880  141.7030 C   0  0  0  0  0  2  0  0  0  0  0  0
  185.0750  179.0860  142.3230 C   0  0  0  0  0  2  0  0  0  0  0  0
  186.7270  177.9230  143.8400 C   0  0  0  0  0  0  0  0  0  0  0  0
  185.0560  178.3780  146.0460 C   0  0  0  0  0  0  0  0  0  0  0  0
  185.4920  178.5840  143.6700 C   0  0  0  0  0  0  0  0  0  0  0  0
  187.1070  177.4920  145.1200 C   0  0  0  0  0  3  0  0  0  0  0  0
  186.2740  177.7160  146.2170 C   0  0  0  0  0  3  0  0  0  0  0  0
  184.2290  178.6020  147.1370 O   0  0  0  0  0  1  0  0  0  0  0  0
  184.6700  178.8150  144.7780 C   0  0  0  0  0  3  0  0  0  0  0  0
  187.6400  177.6870  142.6630 C   0  0  2  0  0  3  0  0  0  0  0  0
  189.7090  178.6050  143.8700 C   0  0  0  0  0  2  0  0  0  0  0  0
  189.0700  177.4840  143.0790 C   0  0  0  0  0  0  0  0  0  0  0  0
  189.6830  176.3110  142.8030 C   0  0  0  0  0  3  0  0  0  0  0  0
  191.5990  176.4720  144.4290 C   0  0  0  0  0  2  0  0  0  0  0  0
  192.0820  177.9190  144.3410 C   0  0  0  0  0  2  0  0  0  0  0  0
  191.1670  178.8260  143.5110 C   0  0  0  0  0  2  0  0  0  0  0  0
  191.1290  175.9630  143.0750 C   0  0  0  0  0  2  0  0  0  0  0  0
  187.5280  178.7070  141.7100 O   0  0  0  0  0  0  0  0  0  0  0  0
  188.2090  178.2300  140.5920 C   0  0  0  0  0  1  0  0  0  0  0  0
  183.5910  174.4150  137.9060 C   0  0  0  0  0  2  0  0  0  0  0  0
  183.6450  174.3470  136.4040 C   0  0  0  0  0  3  0  0  0  0  0  0
  184.7900  174.2200  135.7240 C   0  0  0  0  0  3  0  0  0  0  0  0
  186.1370  174.1290  136.3920 C   0  0  1  0  0  3  0  0  0  0  0  0
  186.8330  172.8320  136.2800 C   0  0  2  0  0  3  0  0  0  0  0  0
  187.1780  173.9350  135.3680 N   0  0  2  0  0  0  0  0  0  0  0  0
  186.1040  171.7440  135.5000 C   0  0  0  0  0  1  0  0  0  0  0  0
  187.9830  176.1150  136.7290 S   0  0  0  0  0  0  0  0  0  0  0  0
  189.7430  176.5290  137.0370 C   0  0  2  0  0  3  0  0  0  0  0  0
  191.2880  174.1360  136.0800 O   0  0  0  0  0  1  0  0  0  0  0  0
  189.0770  173.6110  136.8550 C   0  0  0  0  0  2  0  0  0  0  0  0
  191.7480  175.8770  138.2020 O   0  0  0  0  0  1  0  0  0  0  0  0
  190.4450  175.4720  137.9060 C   0  0  2  0  0  3  0  0  0  0  0  0
  190.4750  174.1040  137.2160 C   0  0  2  0  0  3  0  0  0  0  0  0
  188.3930  174.5560  135.8730 C   0  0  1  0  0  3  0  0  0  0  0  0
  189.9170  177.8510  137.5000 O   0  0  0  0  0  0  0  0  0  0  0  0
  188.9620  178.6790  136.8910 C   0  0  0  0  0  1  0  0  0  0  0  0
  2  3  2  0  0  0  0
  2  5  1  0  0  0  0
  3  4  1  0  0  0  0
  4  1  1  0  0  0  0
  4  6  2  0  0  0  0
  5 30  1  6  0  0  0
  5  7  1  0  0  0  0
  6  9  1  0  0  0  0
  7  8  2  0  0  0  0
  8  6  1  0  0  0  0
  9 10  1  0  0  0  0
 11 10  1  0  0  0  0
 11 12  1  0  0  0  0
 12 15  1  0  0  0  0
 13 16  1  0  0  0  0
 14 17  1  0  0  0  0
 14 18  1  0  0  0  0
 15 13  2  0  0  0  0
 15 19  1  0  0  0  0
 16 17  2  0  0  0  0
 19 14  2  0  0  0  0
 20 28  1  6  0  0  0
 20 22  1  0  0  0  0
 20 13  1  0  0  0  0
 22 21  1  0  0  0  0
 23 27  1  0  0  0  0
 23 22  2  0  0  0  0
 25 24  1  0  0  0  0
 26 21  1  0  0  0  0
 26 25  1  0  0  0  0
 27 24  1  0  0  0  0
 29 28  1  0  0  0  0
 31 30  1  0  0  0  0
 32 31  2  0  0  0  0
 33 32  1  6  0  0  0
 34 36  1  6  0  0  0
 34 33  1  0  0  0  0
 35 44  1  1  0  0  0
 35 34  1  0  0  0  0
 35 33  1  0  0  0  0
 37 38  1  0  0  0  0
 38 45  1  1  0  0  0
 38 42  1  0  0  0  0
 40 43  1  0  0  0  0
 42 41  1  6  0  0  0
 43 39  1  6  0  0  0
 43 42  1  0  0  0  0
 44 37  1  0  0  0  0
 44 40  1  1  0  0  0
 46 45  1  0  0  0  0
M  END
>  <MODEL>
8

>  <REMARK>
 VINA RESULT:      -7.5      2.870      9.073
  Name = 
  13 active torsions:
  status: ('A' for Active; 'I' for Inactive)
    1  A    between atoms: C_2  and  C_7
    2  A    between atoms: C_2  and  C_18
    3  A    between atoms: C_3  and  O_20
    4  A    between atoms: C_6  and  C_27
    5  A    between atoms: C_7  and  C_12
    6  A    between atoms: C_10  and  C_42
    7  A    between atoms: C_11  and  C_27
    8  A    between atoms: C_12  and  C_24
    9  A    between atoms: C_24  and  C_40
   10  A    between atoms: C_27  and  O_41
   11  A    between atoms: N_28  and  C_38
   12  A    between atoms: C_30  and  C_35
   13  A    between atoms: C_35  and  C_36
                            x       y       z     vdW  Elec       q    Type
                         _______ _______ _______ _____ _____    ______ ____

>  <TORSDO>
F 13

$$$$
=
 OpenBabel10222417183D

 46 50  0  0  1  0  0  0  0  0999 V2000
  189.3510  176.5950  147.2090 O   0  0  0  0  0  1  0  0  0  0  0  0
  190.9500  176.7030  143.9240 C   0  0  0  0  0  3  0  0  0  0  0  0
  190.7520  176.8340  145.2330 C   0  0  0  0  0  3  0  0  0  0  0  0
  189.4560  177.0610  145.9030 C   0  0  0  0  0  0  0  0  0  0  0  0
  189.8440  176.7080  142.9210 C   0  0  1  0  0  3  0  0  0  0  0  0
  188.4110  177.7320  145.3640 C   0  0  0  0  0  0  0  0  0  0  0  0
  189.0700  177.9820  142.9640 C   0  0  0  0  0  3  0  0  0  0  0  0
  188.4200  178.3980  144.0450 C   0  0  0  0  0  3  0  0  0  0  0  0
  187.1860  177.9630  146.1880 C   0  0  0  0  0  2  0  0  0  0  0  0
  185.9440  177.5110  145.4280 C   0  0  0  0  0  2  0  0  0  0  0  0
  185.1560  178.7050  144.9070 C   0  0  0  0  0  2  0  0  0  0  0  0
  184.0110  178.2380  144.0180 C   0  0  0  0  0  2  0  0  0  0  0  0
  183.2640  178.6660  141.6430 C   0  0  0  0  0  0  0  0  0  0  0  0
  185.9360  178.8510  140.8120 C   0  0  0  0  0  0  0  0  0  0  0  0
  184.3090  178.4870  142.5730 C   0  0  0  0  0  0  0  0  0  0  0  0
  183.5720  178.9310  140.3010 C   0  0  0  0  0  3  0  0  0  0  0  0
  184.9030  179.0200  139.8870 C   0  0  0  0  0  3  0  0  0  0  0  0
  187.2570  178.9410  140.4000 O   0  0  0  0  0  1  0  0  0  0  0  0
  185.6390  178.5910  142.1510 C   0  0  0  0  0  3  0  0  0  0  0  0
  181.8230  178.5850  142.0830 C   0  0  2  0  0  3  0  0  0  0  0  0
  180.5520  179.5930  140.0980 C   0  0  0  0  0  2  0  0  0  0  0  0
  180.8830  178.3740  140.9300 C   0  0  0  0  0  0  0  0  0  0  0  0
  180.4460  177.1260  140.6470 C   0  0  0  0  0  3  0  0  0  0  0  0
  179.6600  177.5070  138.2840 C   0  0  0  0  0  2  0  0  0  0  0  0
  178.9420  178.8560  138.3110 C   0  0  0  0  0  2  0  0  0  0  0  0
  179.1070  179.6170  139.6310 C   0  0  0  0  0  2  0  0  0  0  0  0
  179.4450  176.7410  139.5810 C   0  0  0  0  0  2  0  0  0  0  0  0
  181.4510  179.7000  142.8440 O   0  0  0  0  0  0  0  0  0  0  0  0
  180.7140  179.1800  143.9060 C   0  0  0  0  0  1  0  0  0  0  0  0
  190.3690  176.4280  141.5130 C   0  0  0  0  0  2  0  0  0  0  0  0
  191.7350  177.0140  141.2790 C   0  0  0  0  0  3  0  0  0  0  0  0
  192.2030  177.2990  140.0590 C   0  0  0  0  0  3  0  0  0  0  0  0
  191.4110  177.0670  138.8000 C   0  0  1  0  0  3  0  0  0  0  0  0
  192.1180  176.3760  137.7040 C   0  0  2  0  0  3  0  0  0  0  0  0
  191.2260  175.6210  138.5980 N   0  0  2  0  0  0  0  0  0  0  0  0
  193.5630  175.9790  137.9830 C   0  0  0  0  0  1  0  0  0  0  0  0
  189.4240  177.0320  137.1770 S   0  0  0  0  0  0  0  0  0  0  0  0
  187.8360  176.3410  136.5770 C   0  0  2  0  0  3  0  0  0  0  0  0
  187.9840  173.4020  137.1810 O   0  0  0  0  0  1  0  0  0  0  0  0
  190.1250  174.4170  136.7920 C   0  0  0  0  0  2  0  0  0  0  0  0
  186.8150  174.7730  135.0600 O   0  0  0  0  0  1  0  0  0  0  0  0
  188.0440  175.1980  135.5690 C   0  0  2  0  0  3  0  0  0  0  0  0
  188.7760  174.0120  136.2050 C   0  0  2  0  0  3  0  0  0  0  0  0
  189.9580  175.4460  137.9050 C   0  0  1  0  0  3  0  0  0  0  0  0
  186.9440  177.3390  136.1270 O   0  0  0  0  0  0  0  0  0  0  0  0
  187.1900  178.5250  136.8360 C   0  0  0  0  0  1  0  0  0  0  0  0
  2  3  2  0  0  0  0
  3  4  1  0  0  0  0
  4  1  1  0  0  0  0
  5 30  1  6  0  0  0
  5  7  1  0  0  0  0
  5  2  1  0  0  0  0
  6  4  2  0  0  0  0
  6  9  1  0  0  0  0
  7  8  2  0  0  0  0
  8  6  1  0  0  0  0
 10  9  1  0  0  0  0
 11 10  1  0  0  0  0
 12 11  1  0  0  0  0
 13 20  1  0  0  0  0
 13 15  1  0  0  0  0
 14 19  1  0  0  0  0
 15 12  1  0  0  0  0
 16 13  2  0  0  0  0
 17 16  1  0  0  0  0
 17 14  2  0  0  0  0
 18 14  1  0  0  0  0
 19 15  2  0  0  0  0
 20 28  1  6  0  0  0
 21 22  1  0  0  0  0
 22 20  1  0  0  0  0
 23 22  2  0  0  0  0
 24 25  1  0  0  0  0
 24 27  1  0  0  0  0
 25 26  1  0  0  0  0
 26 21  1  0  0  0  0
 27 23  1  0  0  0  0
 28 29  1  0  0  0  0
 31 30  1  0  0  0  0
 32 31  2  0  0  0  0
 33 32  1  1  0  0  0
 34 36  1  1  0  0  0
 34 35  1  0  0  0  0
 34 33  1  0  0  0  0
 35 44  1  6  0  0  0
 35 33  1  0  0  0  0
 37 44  1  0  0  0  0
 38 45  1  6  0  0  0
 38 37  1  0  0  0  0
 42 41  1  1  0  0  0
 42 43  1  0  0  0  0
 42 38  1  0  0  0  0
 43 40  1  0  0  0  0
 43 39  1  1  0  0  0
 44 40  1  6  0  0  0
 45 46  1  0  0  0  0
M  END
>  <MODEL>
9

>  <REMARK>
 VINA RESULT:      -7.5      2.961      7.993
  Name = 
  13 active torsions:
  status: ('A' for Active; 'I' for Inactive)
    1  A    between atoms: C_2  and  C_7
    2  A    between atoms: C_2  and  C_18
    3  A    between atoms: C_3  and  O_20
    4  A    between atoms: C_6  and  C_27
    5  A    between atoms: C_7  and  C_12
    6  A    between atoms: C_10  and  C_42
    7  A    between atoms: C_11  and  C_27
    8  A    between atoms: C_12  and  C_24
    9  A    between atoms: C_24  and  C_40
   10  A    between atoms: C_27  and  O_41
   11  A    between atoms: N_28  and  C_38
   12  A    between atoms: C_30  and  C_35
   13  A    between atoms: C_35  and  C_36
                            x       y       z     vdW  Elec       q    Type
                         _______ _______ _______ _____ _____    ______ ____

>  <TORSDO>
F 13

$$$$
