=
 OpenBabel10222417433D

 60 65  0  0  1  0  0  0  0  0999 V2000
  189.7960  177.4350  138.9950 C   0  0  1  0  0  3  0  0  0  0  0  0
  189.5120  176.9990  141.4110 C   0  0  0  0  0  0  0  0  0  0  0  0
  190.1690  175.3560  143.0480 C   0  0  0  0  0  1  0  0  0  0  0  0
  188.9760  177.2440  140.2420 C   0  0  0  0  0  3  0  0  0  0  0  0
  190.0380  176.7580  142.5790 C   0  0  0  0  0  0  0  0  0  0  0  0
  190.3810  177.8770  143.5080 C   0  0  0  0  0  2  0  0  0  0  0  0
  189.7890  177.6730  144.8650 C   0  0  0  0  0  0  0  0  0  0  0  0
  188.4230  177.8740  145.1000 C   0  0  0  0  0  3  0  0  0  0  0  0
  187.8990  177.7360  146.3910 C   0  0  0  0  0  0  0  0  0  0  0  0
  188.7460  177.3460  147.4460 C   0  0  0  0  0  0  0  0  0  0  0  0
  190.6260  177.3030  145.9220 C   0  0  0  0  0  3  0  0  0  0  0  0
  188.2580  177.1290  148.6900 F   0  0  0  0  0  0  0  0  0  0  0  0
  190.1060  177.1340  147.2060 C   0  0  0  0  0  3  0  0  0  0  0  0
  186.5000  177.9720  146.5960 N   0  0  0  0  0  2  0  0  0  0  0  0
  183.3720  179.0610  144.8300 C   0  0  0  0  0  3  0  0  0  0  0  0
  185.0290  178.3940  143.1980 C   0  0  0  0  0  0  0  0  0  0  0  0
  185.9180  178.0720  144.2270 C   0  0  0  0  0  3  0  0  0  0  0  0
  183.7570  178.8880  143.4980 C   0  0  0  0  0  3  0  0  0  0  0  0
  185.5390  178.2370  145.5630 C   0  0  0  0  0  0  0  0  0  0  0  0
  185.4340  178.2480  141.8460 N   0  0  0  0  0  1  0  0  0  0  0  0
  184.2630  178.7440  145.8590 C   0  0  0  0  0  3  0  0  0  0  0  0
  189.1190  178.4080  138.0220 C   0  0  2  0  0  3  0  0  0  0  0  0
  189.0850  179.7050  138.5460 O   0  0  0  0  0  1  0  0  0  0  0  0
  182.8640  177.3070  137.4620 C   0  0  0  0  0  0  0  0  0  0  0  0
  186.6800  178.6120  138.2320 N   0  0  0  0  0  0  0  0  0  0  0  0
  186.3590  176.5630  136.3110 C   0  0  0  0  0  0  0  0  0  0  0  0
  185.2110  177.4890  136.6350 C   0  0  1  0  0  3  0  0  0  0  0  0
  182.0550  179.0280  139.0150 F   0  0  0  0  0  0  0  0  0  0  0  0
  184.3290  178.9560  138.5440 C   0  0  0  0  0  3  0  0  0  0  0  0
  183.8650  176.8150  136.7090 C   0  0  0  0  0  3  0  0  0  0  0  0
  183.0960  178.4760  138.3440 C   0  0  0  0  0  0  0  0  0  0  0  0
  187.5850  176.8720  136.7350 C   0  0  0  0  0  3  0  0  0  0  0  0
  185.4680  178.3620  137.8420 C   0  0  0  0  0  0  0  0  0  0  0  0
  187.7810  177.9710  137.6380 N   0  0  0  0  0  0  0  0  0  0  0  0
  181.5880  176.7280  137.4590 O   0  0  0  0  0  0  0  0  0  0  0  0
  181.1240  175.4090  138.4700 P   0  0  0  0  0  0  0  0  0  0  0  0
  179.4740  175.5210  138.8150 O   0  0  0  0  0  1  0  0  0  0  0  0
  182.0070  175.4790  139.9130 O   0  0  0  0  0  1  0  0  0  0  0  0
  181.4060  174.1010  137.7690 O   0  0  0  0  0  0  0  0  0  0  0  0
  186.2070  175.4370  135.3380 C   0  0  0  0  0  2  0  0  0  0  0  0
  183.9250  172.4180  135.7170 C   0  0  0  0  0  3  0  0  0  0  0  0
  184.5630  173.5310  135.1610 C   0  0  0  0  0  3  0  0  0  0  0  0
  185.4770  174.2710  135.9250 C   0  0  0  0  0  0  0  0  0  0  0  0
  184.2090  172.0310  137.0340 C   0  0  0  0  0  3  0  0  0  0  0  0
  185.7710  173.8680  137.2370 C   0  0  0  0  0  3  0  0  0  0  0  0
  185.1340  172.7530  137.7920 C   0  0  0  0  0  3  0  0  0  0  0  0
  191.1210  177.8120  139.2760 O   0  0  0  0  0  0  0  0  0  0  0  0
  191.8700  176.6480  139.0700 C   0  0  2  0  0  3  0  0  0  0  0  0
  193.1740  176.8520  139.5220 O   0  0  0  0  0  1  0  0  0  0  0  0
  191.9090  176.3300  137.5820 C   0  0  0  0  0  2  0  0  0  0  0  0
  192.3740  174.9680  137.3640 N   0  0  0  0  0  0  0  0  0  0  0  0
  195.8910  174.9200  136.2670 C   0  0  0  0  0  0  0  0  0  0  0  0
  196.0510  173.7180  137.4270 S   0  0  0  0  0  0  0  0  0  0  0  0
  193.7850  174.7160  137.2230 C   0  0  0  0  0  0  0  0  0  0  0  0
  194.4570  173.7430  137.9690 C   0  0  0  0  0  3  0  0  0  0  0  0
  194.5830  175.3770  136.2690 C   0  0  0  0  0  3  0  0  0  0  0  0
  196.9630  175.3670  135.3330 C   0  0  0  0  0  2  0  0  0  0  0  0
  197.2020  176.7200  135.4980 F   0  0  0  0  0  0  0  0  0  0  0  0
  191.4030  173.9970  136.8610 C   0  0  0  0  0  2  0  0  0  0  0  0
  190.2610  174.0000  137.6710 O   0  0  0  0  0  1  0  0  0  0  0  0
  1 47  1  0  0  0  0
  1  4  1  1  0  0  0
  2  5  2  0  0  0  0
  4  2  2  0  0  0  0
  5  3  1  0  0  0  0
  5  6  1  0  0  0  0
  6  7  1  0  0  0  0
  7  8  2  0  0  0  0
  7 11  1  0  0  0  0
  8  9  1  0  0  0  0
  9 14  1  0  0  0  0
  9 10  2  0  0  0  0
 10 12  1  0  0  0  0
 11 13  2  0  0  0  0
 13 10  1  0  0  0  0
 15 21  1  0  0  0  0
 16 18  1  0  0  0  0
 16 17  2  0  0  0  0
 17 19  1  0  0  0  0
 18 15  2  0  0  0  0
 19 21  2  0  0  0  0
 19 14  1  0  0  0  0
 20 16  1  0  0  0  0
 22 23  1  1  0  0  0
 22  1  1  0  0  0  0
 24 31  1  0  0  0  0
 26 27  1  0  0  0  0
 26 32  2  0  0  0  0
 27 30  1  1  0  0  0
 27 33  1  0  0  0  0
 30 24  2  0  0  0  0
 31 29  2  0  0  0  0
 31 28  1  0  0  0  0
 32 34  1  0  0  0  0
 33 25  2  0  0  0  0
 33 29  1  0  0  0  0
 34 22  1  0  0  0  0
 34 25  1  0  0  0  0
 35 24  1  0  0  0  0
 35 36  1  0  0  0  0
 36 37  1  0  0  0  0
 36 38  1  0  0  0  0
 39 36  2  0  0  0  0
 40 43  1  0  0  0  0
 40 26  1  0  0  0  0
 41 44  1  0  0  0  0
 42 41  2  0  0  0  0
 42 43  1  0  0  0  0
 43 45  2  0  0  0  0
 44 46  2  0  0  0  0
 45 46  1  0  0  0  0
 48 47  1  0  0  0  0
 48 49  1  6  0  0  0
 50 48  1  0  0  0  0
 51 50  1  0  0  0  0
 52 56  2  0  0  0  0
 52 53  1  0  0  0  0
 53 55  1  0  0  0  0
 54 51  1  0  0  0  0
 54 55  2  0  0  0  0
 56 54  1  0  0  0  0
 57 58  1  0  0  0  0
 57 52  1  0  0  0  0
 59 51  1  0  0  0  0
 59 60  1  0  0  0  0
M  END
>  <MODEL>
1

>  <REMARK>
 VINA RESULT:      -9.3      0.000      0.000
  Name = 
  18 active torsions:
  status: ('A' for Active; 'I' for Inactive)
    1  A    between atoms: C_2  and  O_38
    2  A    between atoms: C_6  and  C_9
    3  A    between atoms: C_10  and  C_55
    4  A    between atoms: C_12  and  C_47
    5  A    between atoms: C_13  and  C_44
    6  A    between atoms: C_13  and  O_54
    7  A    between atoms: C_14  and  C_29
    8  A    between atoms: P_15  and  O_38
    9  A    between atoms: C_17  and  C_55
   10  A    between atoms: C_17  and  N_60
   11  A    between atoms: C_23  and  C_29
   12  A    between atoms: N_24  and  C_26
   13  A    between atoms: N_24  and  C_34
   14  A    between atoms: N_24  and  C_44
   15  A    between atoms: C_28  and  N_59
   16  A    between atoms: C_31  and  C_47
   17  A    between atoms: C_36  and  N_59
   18  A    between atoms: O_54  and  C_55
                            x       y       z     vdW  Elec       q    Type
                         _______ _______ _______ _____ _____    ______ ____

>  <TORSDO>
F 18

$$$$
=
 OpenBabel10222417433D

 60 65  0  0  1  0  0  0  0  0999 V2000
  183.2470  178.7300  140.3990 C   0  0  1  0  0  3  0  0  0  0  0  0
  182.6330  176.4840  139.5730 C   0  0  0  0  0  0  0  0  0  0  0  0
  180.6740  175.0920  139.3850 C   0  0  0  0  0  1  0  0  0  0  0  0
  183.3880  177.2350  140.3340 C   0  0  0  0  0  3  0  0  0  0  0  0
  181.8860  175.7300  138.8150 C   0  0  0  0  0  0  0  0  0  0  0  0
  182.3110  175.3870  137.4250 C   0  0  0  0  0  2  0  0  0  0  0  0
  183.6970  174.8280  137.3890 C   0  0  0  0  0  0  0  0  0  0  0  0
  184.7880  175.6160  137.0040 C   0  0  0  0  0  3  0  0  0  0  0  0
  186.0700  175.0590  136.9190 C   0  0  0  0  0  0  0  0  0  0  0  0
  186.2640  173.7090  137.2710 C   0  0  0  0  0  0  0  0  0  0  0  0
  183.8960  173.4850  137.7200 C   0  0  0  0  0  3  0  0  0  0  0  0
  187.5010  173.1590  137.2730 F   0  0  0  0  0  0  0  0  0  0  0  0
  185.1750  172.9290  137.6660 C   0  0  0  0  0  3  0  0  0  0  0  0
  187.1580  175.8920  136.4990 N   0  0  0  0  0  2  0  0  0  0  0  0
  189.0590  177.9390  139.0060 C   0  0  0  0  0  3  0  0  0  0  0  0
  190.4020  176.0440  138.3270 C   0  0  0  0  0  0  0  0  0  0  0  0
  189.3910  175.6360  137.4530 C   0  0  0  0  0  3  0  0  0  0  0  0
  190.2370  177.1950  139.1030 C   0  0  0  0  0  3  0  0  0  0  0  0
  188.2100  176.3780  137.3460 C   0  0  0  0  0  0  0  0  0  0  0  0
  191.5850  175.2690  138.4460 N   0  0  0  0  0  1  0  0  0  0  0  0
  188.0450  177.5270  138.1360 C   0  0  0  0  0  3  0  0  0  0  0  0
  184.5870  179.4090  140.7060 C   0  0  2  0  0  3  0  0  0  0  0  0
  185.4110  179.4350  139.5750 O   0  0  0  0  0  1  0  0  0  0  0  0
  186.7470  177.5630  146.4140 C   0  0  0  0  0  0  0  0  0  0  0  0
  184.7570  179.0000  143.1230 N   0  0  0  0  0  0  0  0  0  0  0  0
  187.0480  177.4060  142.6760 C   0  0  0  0  0  0  0  0  0  0  0  0
  186.2880  177.2990  143.9760 C   0  0  1  0  0  3  0  0  0  0  0  0
  185.0060  178.5890  147.8070 F   0  0  0  0  0  0  0  0  0  0  0  0
  184.7640  178.6880  145.4990 C   0  0  0  0  0  3  0  0  0  0  0  0
  187.1580  177.1570  145.1990 C   0  0  0  0  0  3  0  0  0  0  0  0
  185.4590  178.2790  146.5680 C   0  0  0  0  0  0  0  0  0  0  0  0
  186.4960  178.0540  141.6490 C   0  0  0  0  0  3  0  0  0  0  0  0
  185.2460  178.3790  144.1510 C   0  0  0  0  0  0  0  0  0  0  0  0
  185.2780  178.7930  141.8330 N   0  0  0  0  0  0  0  0  0  0  0  0
  187.5220  177.3500  147.5620 O   0  0  0  0  0  0  0  0  0  0  0  0
  189.1970  177.7470  147.6840 P   0  0  0  0  0  0  0  0  0  0  0  0
  189.6050  178.8380  146.4600 O   0  0  0  0  0  0  0  0  0  0  0  0
  190.1160  176.3360  147.5120 O   0  0  0  0  0  1  0  0  0  0  0  0
  189.4790  178.3720  149.0310 O   0  0  0  0  0  1  0  0  0  0  0  0
  188.2940  176.6140  142.4280 C   0  0  0  0  0  2  0  0  0  0  0  0
  191.5460  177.0080  144.3600 C   0  0  0  0  0  3  0  0  0  0  0  0
  190.4070  176.4270  143.7930 C   0  0  0  0  0  3  0  0  0  0  0  0
  189.4940  177.2190  143.0840 C   0  0  0  0  0  0  0  0  0  0  0  0
  191.7830  178.3810  144.2090 C   0  0  0  0  0  3  0  0  0  0  0  0
  189.7460  178.5910  142.9200 C   0  0  0  0  0  3  0  0  0  0  0  0
  190.8860  179.1700  143.4860 C   0  0  0  0  0  3  0  0  0  0  0  0
  182.6420  179.2630  139.2460 O   0  0  0  0  0  0  0  0  0  0  0  0
  181.4430  179.8210  139.7030 C   0  0  2  0  0  3  0  0  0  0  0  0
  181.1850  179.3640  140.9960 O   0  0  0  0  0  1  0  0  0  0  0  0
  180.3050  179.3860  138.7910 C   0  0  0  0  0  2  0  0  0  0  0  0
  180.4640  179.9660  137.4650 N   0  0  0  0  0  0  0  0  0  0  0  0
  180.1080  183.4100  136.2060 C   0  0  0  0  0  0  0  0  0  0  0  0
  179.0550  183.5850  137.5020 S   0  0  0  0  0  0  0  0  0  0  0  0
  180.0610  181.3290  137.2360 C   0  0  0  0  0  0  0  0  0  0  0  0
  179.1760  182.0080  138.0780 C   0  0  0  0  0  3  0  0  0  0  0  0
  180.5850  182.1100  136.1870 C   0  0  0  0  0  3  0  0  0  0  0  0
  180.5200  184.4990  135.2760 C   0  0  0  0  0  2  0  0  0  0  0  0
  181.2880  185.4330  135.9500 F   0  0  0  0  0  0  0  0  0  0  0  0
  180.6010  179.0440  136.3380 C   0  0  0  0  0  2  0  0  0  0  0  0
  181.8820  178.4780  136.3360 O   0  0  0  0  0  1  0  0  0  0  0  0
  1  4  1  6  0  0  0
  1 22  1  0  0  0  0
  2  4  2  0  0  0  0
  5  3  1  0  0  0  0
  5  2  2  0  0  0  0
  6  5  1  0  0  0  0
  7  6  1  0  0  0  0
  7 11  1  0  0  0  0
  8  7  2  0  0  0  0
  9  8  1  0  0  0  0
  9 10  2  0  0  0  0
 10 12  1  0  0  0  0
 10 13  1  0  0  0  0
 13 11  2  0  0  0  0
 14  9  1  0  0  0  0
 14 19  1  0  0  0  0
 15 18  1  0  0  0  0
 16 20  1  0  0  0  0
 16 18  2  0  0  0  0
 17 16  1  0  0  0  0
 19 17  2  0  0  0  0
 19 21  1  0  0  0  0
 21 15  2  0  0  0  0
 22 23  1  6  0  0  0
 22 34  1  0  0  0  0
 24 31  1  0  0  0  0
 24 35  1  0  0  0  0
 25 33  2  0  0  0  0
 26 27  1  0  0  0  0
 27 33  1  0  0  0  0
 27 30  1  1  0  0  0
 29 31  2  0  0  0  0
 30 24  2  0  0  0  0
 31 28  1  0  0  0  0
 32 34  1  0  0  0  0
 32 26  2  0  0  0  0
 33 29  1  0  0  0  0
 34 25  1  0  0  0  0
 35 36  1  0  0  0  0
 36 39  1  0  0  0  0
 37 36  2  0  0  0  0
 38 36  1  0  0  0  0
 40 26  1  0  0  0  0
 40 43  1  0  0  0  0
 42 41  2  0  0  0  0
 43 42  1  0  0  0  0
 44 41  1  0  0  0  0
 45 43  2  0  0  0  0
 45 46  1  0  0  0  0
 46 44  2  0  0  0  0
 47 48  1  0  0  0  0
 47  1  1  0  0  0  0
 48 49  1  1  0  0  0
 50 48  1  0  0  0  0
 51 50  1  0  0  0  0
 52 53  1  0  0  0  0
 53 55  1  0  0  0  0
 54 51  1  0  0  0  0
 54 55  2  0  0  0  0
 56 52  2  0  0  0  0
 56 54  1  0  0  0  0
 57 58  1  0  0  0  0
 57 52  1  0  0  0  0
 59 51  1  0  0  0  0
 60 59  1  0  0  0  0
M  END
>  <MODEL>
2

>  <REMARK>
 VINA RESULT:      -9.2      4.757     10.834
  Name = 
  18 active torsions:
  status: ('A' for Active; 'I' for Inactive)
    1  A    between atoms: C_2  and  O_38
    2  A    between atoms: C_6  and  C_9
    3  A    between atoms: C_10  and  C_55
    4  A    between atoms: C_12  and  C_47
    5  A    between atoms: C_13  and  C_44
    6  A    between atoms: C_13  and  O_54
    7  A    between atoms: C_14  and  C_29
    8  A    between atoms: P_15  and  O_38
    9  A    between atoms: C_17  and  C_55
   10  A    between atoms: C_17  and  N_60
   11  A    between atoms: C_23  and  C_29
   12  A    between atoms: N_24  and  C_26
   13  A    between atoms: N_24  and  C_34
   14  A    between atoms: N_24  and  C_44
   15  A    between atoms: C_28  and  N_59
   16  A    between atoms: C_31  and  C_47
   17  A    between atoms: C_36  and  N_59
   18  A    between atoms: O_54  and  C_55
                            x       y       z     vdW  Elec       q    Type
                         _______ _______ _______ _____ _____    ______ ____

>  <TORSDO>
F 18

$$$$
=
 OpenBabel10222417433D

 60 65  0  0  1  0  0  0  0  0999 V2000
  189.4810  176.8320  139.3380 C   0  0  1  0  0  3  0  0  0  0  0  0
  190.8950  177.3240  141.3030 C   0  0  0  0  0  0  0  0  0  0  0  0
  191.0150  178.9290  143.0980 C   0  0  0  0  0  1  0  0  0  0  0  0
  190.7940  177.1080  140.0170 C   0  0  0  0  0  3  0  0  0  0  0  0
  191.0040  177.5360  142.5850 C   0  0  0  0  0  0  0  0  0  0  0  0
  191.2600  176.4060  143.5280 C   0  0  0  0  0  2  0  0  0  0  0  0
  190.6950  176.6760  144.8850 C   0  0  0  0  0  0  0  0  0  0  0  0
  189.3250  176.9010  145.0710 C   0  0  0  0  0  3  0  0  0  0  0  0
  188.8240  177.2110  146.3400 C   0  0  0  0  0  0  0  0  0  0  0  0
  189.7000  177.2480  147.4420 C   0  0  0  0  0  0  0  0  0  0  0  0
  191.5600  176.7310  145.9820 C   0  0  0  0  0  3  0  0  0  0  0  0
  189.2380  177.4690  148.6950 F   0  0  0  0  0  0  0  0  0  0  0  0
  191.0640  177.0110  147.2560 C   0  0  0  0  0  3  0  0  0  0  0  0
  187.4200  177.4570  146.4860 N   0  0  0  0  0  2  0  0  0  0  0  0
  185.9330  178.0130  143.0850 C   0  0  0  0  0  3  0  0  0  0  0  0
  184.3760  178.7620  144.7780 C   0  0  0  0  0  0  0  0  0  0  0  0
  185.2900  178.4180  145.7770 C   0  0  0  0  0  3  0  0  0  0  0  0
  184.6970  178.5610  143.4320 C   0  0  0  0  0  3  0  0  0  0  0  0
  186.5330  177.8740  145.4370 C   0  0  0  0  0  0  0  0  0  0  0  0
  183.1080  179.2890  145.1350 N   0  0  0  0  0  1  0  0  0  0  0  0
  186.8460  177.6630  144.0840 C   0  0  0  0  0  3  0  0  0  0  0  0
  188.9020  178.0990  138.6980 C   0  0  2  0  0  3  0  0  0  0  0  0
  189.1210  179.2200  139.5080 O   0  0  0  0  0  1  0  0  0  0  0  0
  182.5270  178.0570  138.6090 C   0  0  0  0  0  0  0  0  0  0  0  0
  186.5520  178.5810  139.2280 N   0  0  0  0  0  0  0  0  0  0  0  0
  185.7560  177.1490  136.9240 C   0  0  0  0  0  0  0  0  0  0  0  0
  184.8030  178.1130  137.5880 C   0  0  1  0  0  3  0  0  0  0  0  0
  182.1300  179.4240  140.6090 F   0  0  0  0  0  0  0  0  0  0  0  0
  184.3190  179.1580  139.8790 C   0  0  0  0  0  3  0  0  0  0  0  0
  183.3740  177.6360  137.6520 C   0  0  0  0  0  3  0  0  0  0  0  0
  183.0120  178.9200  139.7110 C   0  0  0  0  0  0  0  0  0  0  0  0
  187.0450  177.1670  137.2660 C   0  0  0  0  0  3  0  0  0  0  0  0
  185.2900  178.6080  138.9300 C   0  0  0  0  0  0  0  0  0  0  0  0
  187.4860  177.9650  138.3770 N   0  0  0  0  0  0  0  0  0  0  0  0
  181.1780  177.6800  138.6140 O   0  0  0  0  0  0  0  0  0  0  0  0
  180.5630  176.3020  139.4500 P   0  0  0  0  0  0  0  0  0  0  0  0
  179.5540  175.4230  138.4180 O   0  0  0  0  0  0  0  0  0  0  0  0
  179.6780  176.8190  140.7980 O   0  0  0  0  0  1  0  0  0  0  0  0
  181.7060  175.4250  139.9050 O   0  0  0  0  0  1  0  0  0  0  0  0
  185.3490  176.3380  135.7340 C   0  0  0  0  0  2  0  0  0  0  0  0
  186.1750  172.6320  135.5180 C   0  0  0  0  0  3  0  0  0  0  0  0
  186.1300  173.9960  135.2140 C   0  0  0  0  0  3  0  0  0  0  0  0
  185.3760  174.8680  136.0100 C   0  0  0  0  0  0  0  0  0  0  0  0
  185.4780  172.1360  136.6280 C   0  0  0  0  0  3  0  0  0  0  0  0
  184.6940  174.3700  137.1320 C   0  0  0  0  0  3  0  0  0  0  0  0
  184.7410  173.0050  137.4360 C   0  0  0  0  0  3  0  0  0  0  0  0
  189.5640  175.7710  138.4180 O   0  0  0  0  0  0  0  0  0  0  0  0
  190.7940  175.9560  137.7770 C   0  0  2  0  0  3  0  0  0  0  0  0
  190.5770  176.4910  136.5070 O   0  0  0  0  0  1  0  0  0  0  0  0
  191.4930  174.6120  137.6310 C   0  0  0  0  0  2  0  0  0  0  0  0
  192.9080  174.8020  137.3480 N   0  0  0  0  0  0  0  0  0  0  0  0
  195.1200  171.9250  136.7110 C   0  0  0  0  0  0  0  0  0  0  0  0
  194.7920  172.2580  135.0990 S   0  0  0  0  0  0  0  0  0  0  0  0
  193.6610  173.7320  136.7480 C   0  0  0  0  0  0  0  0  0  0  0  0
  193.7530  173.5550  135.3640 C   0  0  0  0  0  3  0  0  0  0  0  0
  194.4240  172.8220  137.5060 C   0  0  0  0  0  3  0  0  0  0  0  0
  196.0670  170.8850  137.2030 C   0  0  0  0  0  2  0  0  0  0  0  0
  195.5680  170.2940  138.3500 F   0  0  0  0  0  0  0  0  0  0  0  0
  193.6020  175.8700  138.0690 C   0  0  0  0  0  2  0  0  0  0  0  0
  194.0160  176.8620  137.1720 O   0  0  0  0  0  1  0  0  0  0  0  0
  1  4  1  6  0  0  0
  2  5  2  0  0  0  0
  4  2  2  0  0  0  0
  5  3  1  0  0  0  0
  5  6  1  0  0  0  0
  6  7  1  0  0  0  0
  7  8  2  0  0  0  0
  7 11  1  0  0  0  0
  8  9  1  0  0  0  0
  9 14  1  0  0  0  0
  9 10  2  0  0  0  0
 10 12  1  0  0  0  0
 11 13  2  0  0  0  0
 13 10  1  0  0  0  0
 15 18  2  0  0  0  0
 15 21  1  0  0  0  0
 16 20  1  0  0  0  0
 16 17  2  0  0  0  0
 18 16  1  0  0  0  0
 19 17  1  0  0  0  0
 19 14  1  0  0  0  0
 21 19  2  0  0  0  0
 22  1  1  0  0  0  0
 22 23  1  1  0  0  0
 24 35  1  0  0  0  0
 24 31  1  0  0  0  0
 26 32  2  0  0  0  0
 26 27  1  0  0  0  0
 27 30  1  1  0  0  0
 27 33  1  0  0  0  0
 30 24  2  0  0  0  0
 31 29  2  0  0  0  0
 31 28  1  0  0  0  0
 32 34  1  0  0  0  0
 33 25  2  0  0  0  0
 33 29  1  0  0  0  0
 34 22  1  0  0  0  0
 34 25  1  0  0  0  0
 35 36  1  0  0  0  0
 36 39  1  0  0  0  0
 36 38  1  0  0  0  0
 37 36  2  0  0  0  0
 40 43  1  0  0  0  0
 40 26  1  0  0  0  0
 41 44  1  0  0  0  0
 42 41  2  0  0  0  0
 42 43  1  0  0  0  0
 43 45  2  0  0  0  0
 44 46  2  0  0  0  0
 45 46  1  0  0  0  0
 47  1  1  0  0  0  0
 48 49  1  6  0  0  0
 48 47  1  0  0  0  0
 50 48  1  0  0  0  0
 51 50  1  0  0  0  0
 51 59  1  0  0  0  0
 52 57  1  0  0  0  0
 52 56  2  0  0  0  0
 53 55  1  0  0  0  0
 53 52  1  0  0  0  0
 54 51  1  0  0  0  0
 54 56  1  0  0  0  0
 55 54  2  0  0  0  0
 57 58  1  0  0  0  0
 60 59  1  0  0  0  0
M  END
>  <MODEL>
3

>  <REMARK>
 VINA RESULT:      -9.1      1.733      2.259
  Name = 
  18 active torsions:
  status: ('A' for Active; 'I' for Inactive)
    1  A    between atoms: C_2  and  O_38
    2  A    between atoms: C_6  and  C_9
    3  A    between atoms: C_10  and  C_55
    4  A    between atoms: C_12  and  C_47
    5  A    between atoms: C_13  and  C_44
    6  A    between atoms: C_13  and  O_54
    7  A    between atoms: C_14  and  C_29
    8  A    between atoms: P_15  and  O_38
    9  A    between atoms: C_17  and  C_55
   10  A    between atoms: C_17  and  N_60
   11  A    between atoms: C_23  and  C_29
   12  A    between atoms: N_24  and  C_26
   13  A    between atoms: N_24  and  C_34
   14  A    between atoms: N_24  and  C_44
   15  A    between atoms: C_28  and  N_59
   16  A    between atoms: C_31  and  C_47
   17  A    between atoms: C_36  and  N_59
   18  A    between atoms: O_54  and  C_55
                            x       y       z     vdW  Elec       q    Type
                         _______ _______ _______ _____ _____    ______ ____

>  <TORSDO>
F 18

$$$$
=
 OpenBabel10222417433D

 60 65  0  0  1  0  0  0  0  0999 V2000
  182.2540  177.9710  139.2190 C   0  0  1  0  0  3  0  0  0  0  0  0
  183.7700  177.8490  141.1660 C   0  0  0  0  0  0  0  0  0  0  0  0
  185.9120  178.7140  141.8550 C   0  0  0  0  0  1  0  0  0  0  0  0
  183.0670  177.2360  140.2480 C   0  0  0  0  0  3  0  0  0  0  0  0
  184.4690  178.4540  142.0850 C   0  0  0  0  0  0  0  0  0  0  0  0
  183.8730  178.7610  143.4200 C   0  0  0  0  0  2  0  0  0  0  0  0
  184.8400  178.5110  144.5310 C   0  0  0  0  0  0  0  0  0  0  0  0
  186.0470  177.8370  144.3060 C   0  0  0  0  0  3  0  0  0  0  0  0
  186.9130  177.5590  145.3710 C   0  0  0  0  0  0  0  0  0  0  0  0
  186.5840  178.0040  146.6660 C   0  0  0  0  0  0  0  0  0  0  0  0
  184.5140  178.9330  145.8230 C   0  0  0  0  0  3  0  0  0  0  0  0
  187.4330  177.8190  147.7040 F   0  0  0  0  0  0  0  0  0  0  0  0
  185.3850  178.6850  146.8860 C   0  0  0  0  0  3  0  0  0  0  0  0
  188.1290  176.8490  145.1040 N   0  0  0  0  0  2  0  0  0  0  0  0
  191.1570  178.5950  143.7360 C   0  0  0  0  0  3  0  0  0  0  0  0
  190.3390  177.0040  142.1070 C   0  0  0  0  0  0  0  0  0  0  0  0
  189.2920  176.6580  142.9660 C   0  0  0  0  0  3  0  0  0  0  0  0
  191.2710  177.9720  142.4920 C   0  0  0  0  0  3  0  0  0  0  0  0
  189.1670  177.2800  144.2120 C   0  0  0  0  0  0  0  0  0  0  0  0
  190.4700  176.3470  140.8570 N   0  0  0  0  0  1  0  0  0  0  0  0
  190.1130  178.2450  144.5980 C   0  0  0  0  0  3  0  0  0  0  0  0
  183.1310  178.8910  138.3620 C   0  0  2  0  0  3  0  0  0  0  0  0
  182.3900  179.4790  137.3300 O   0  0  0  0  0  1  0  0  0  0  0  0
  188.9760  176.9250  136.7420 C   0  0  0  0  0  0  0  0  0  0  0  0
  185.5660  178.5630  138.3380 N   0  0  0  0  0  0  0  0  0  0  0  0
  185.2580  176.5540  136.3730 C   0  0  0  0  0  0  0  0  0  0  0  0
  186.5340  176.6450  137.1750 C   0  0  1  0  0  3  0  0  0  0  0  0
  190.2680  178.3150  138.3000 F   0  0  0  0  0  0  0  0  0  0  0  0
  187.9500  178.3570  138.4550 C   0  0  0  0  0  3  0  0  0  0  0  0
  187.7920  176.3980  136.3810 C   0  0  0  0  0  3  0  0  0  0  0  0
  189.0570  177.8730  137.8780 C   0  0  0  0  0  0  0  0  0  0  0  0
  184.1900  177.2480  136.7660 C   0  0  0  0  0  3  0  0  0  0  0  0
  186.6330  177.9060  138.0020 C   0  0  0  0  0  0  0  0  0  0  0  0
  184.3040  178.2070  137.8300 N   0  0  0  0  0  0  0  0  0  0  0  0
  190.1570  176.6210  136.0530 O   0  0  0  0  0  0  0  0  0  0  0  0
  191.3600  175.5280  136.6330 P   0  0  0  0  0  0  0  0  0  0  0  0
  191.8390  174.5040  135.3770 O   0  0  0  0  0  0  0  0  0  0  0  0
  190.7100  174.6060  137.8950 O   0  0  0  0  0  1  0  0  0  0  0  0
  192.5560  176.3020  137.1370 O   0  0  0  0  0  1  0  0  0  0  0  0
  185.0840  175.5360  135.2900 C   0  0  0  0  0  2  0  0  0  0  0  0
  184.5590  172.2230  137.0810 C   0  0  0  0  0  3  0  0  0  0  0  0
  185.1790  173.3750  136.5880 C   0  0  0  0  0  3  0  0  0  0  0  0
  184.4580  174.2730  135.7900 C   0  0  0  0  0  0  0  0  0  0  0  0
  183.2120  171.9700  136.7890 C   0  0  0  0  0  3  0  0  0  0  0  0
  183.1040  174.0250  135.5150 C   0  0  0  0  0  3  0  0  0  0  0  0
  182.4840  172.8730  136.0100 C   0  0  0  0  0  3  0  0  0  0  0  0
  181.4770  177.1040  138.4290 O   0  0  0  0  0  0  0  0  0  0  0  0
  181.1370  176.0530  139.2880 C   0  0  2  0  0  3  0  0  0  0  0  0
  181.6130  174.8520  138.7590 O   0  0  0  0  0  1  0  0  0  0  0  0
  179.6230  175.9710  139.4120 C   0  0  0  0  0  2  0  0  0  0  0  0
  179.2060  176.2710  140.7740 N   0  0  0  0  0  0  0  0  0  0  0  0
  179.2960  179.9250  141.2380 C   0  0  0  0  0  0  0  0  0  0  0  0
  180.0920  179.5450  142.6660 S   0  0  0  0  0  0  0  0  0  0  0  0
  179.3780  177.6050  141.2890 C   0  0  0  0  0  0  0  0  0  0  0  0
  180.0360  177.8710  142.4930 C   0  0  0  0  0  3  0  0  0  0  0  0
  178.9620  178.7510  140.5830 C   0  0  0  0  0  3  0  0  0  0  0  0
  179.0580  181.3030  140.7230 C   0  0  0  0  0  2  0  0  0  0  0  0
  180.1300  181.7120  139.9500 F   0  0  0  0  0  0  0  0  0  0  0  0
  179.0500  175.1450  141.6940 C   0  0  0  0  0  2  0  0  0  0  0  0
  179.1620  173.9370  140.9960 O   0  0  0  0  0  1  0  0  0  0  0  0
  1  4  1  1  0  0  0
  2  5  2  0  0  0  0
  3  5  1  0  0  0  0
  4  2  2  0  0  0  0
  5  6  1  0  0  0  0
  6  7  1  0  0  0  0
  7 11  1  0  0  0  0
  8  7  2  0  0  0  0
  8  9  1  0  0  0  0
  9 10  2  0  0  0  0
 10 13  1  0  0  0  0
 10 12  1  0  0  0  0
 11 13  2  0  0  0  0
 14  9  1  0  0  0  0
 15 21  1  0  0  0  0
 16 18  1  0  0  0  0
 16 17  2  0  0  0  0
 17 19  1  0  0  0  0
 18 15  2  0  0  0  0
 19 21  2  0  0  0  0
 19 14  1  0  0  0  0
 20 16  1  0  0  0  0
 22 23  1  6  0  0  0
 22  1  1  0  0  0  0
 24 31  1  0  0  0  0
 26 32  2  0  0  0  0
 26 27  1  0  0  0  0
 27 30  1  6  0  0  0
 27 33  1  0  0  0  0
 30 24  2  0  0  0  0
 31 28  1  0  0  0  0
 31 29  2  0  0  0  0
 32 34  1  0  0  0  0
 33 25  2  0  0  0  0
 33 29  1  0  0  0  0
 34 25  1  0  0  0  0
 34 22  1  0  0  0  0
 35 36  1  0  0  0  0
 35 24  1  0  0  0  0
 36 39  1  0  0  0  0
 36 38  1  0  0  0  0
 37 36  2  0  0  0  0
 40 43  1  0  0  0  0
 40 26  1  0  0  0  0
 42 41  2  0  0  0  0
 43 42  1  0  0  0  0
 44 41  1  0  0  0  0
 45 43  2  0  0  0  0
 45 46  1  0  0  0  0
 46 44  2  0  0  0  0
 47  1  1  0  0  0  0
 47 48  1  0  0  0  0
 48 49  1  6  0  0  0
 48 50  1  0  0  0  0
 50 51  1  0  0  0  0
 51 54  1  0  0  0  0
 51 59  1  0  0  0  0
 52 53  1  0  0  0  0
 54 55  2  0  0  0  0
 55 53  1  0  0  0  0
 56 52  2  0  0  0  0
 56 54  1  0  0  0  0
 57 52  1  0  0  0  0
 58 57  1  0  0  0  0
 60 59  1  0  0  0  0
M  END
>  <MODEL>
4

>  <REMARK>
 VINA RESULT:      -9.0      3.864      8.740
  Name = 
  18 active torsions:
  status: ('A' for Active; 'I' for Inactive)
    1  A    between atoms: C_2  and  O_38
    2  A    between atoms: C_6  and  C_9
    3  A    between atoms: C_10  and  C_55
    4  A    between atoms: C_12  and  C_47
    5  A    between atoms: C_13  and  C_44
    6  A    between atoms: C_13  and  O_54
    7  A    between atoms: C_14  and  C_29
    8  A    between atoms: P_15  and  O_38
    9  A    between atoms: C_17  and  C_55
   10  A    between atoms: C_17  and  N_60
   11  A    between atoms: C_23  and  C_29
   12  A    between atoms: N_24  and  C_26
   13  A    between atoms: N_24  and  C_34
   14  A    between atoms: N_24  and  C_44
   15  A    between atoms: C_28  and  N_59
   16  A    between atoms: C_31  and  C_47
   17  A    between atoms: C_36  and  N_59
   18  A    between atoms: O_54  and  C_55
                            x       y       z     vdW  Elec       q    Type
                         _______ _______ _______ _____ _____    ______ ____

>  <TORSDO>
F 18

$$$$
=
 OpenBabel10222417433D

 60 65  0  0  1  0  0  0  0  0999 V2000
  183.0410  178.5830  139.9470 C   0  0  1  0  0  3  0  0  0  0  0  0
  184.3110  178.0160  141.9880 C   0  0  0  0  0  0  0  0  0  0  0  0
  186.6050  177.8660  142.7160 C   0  0  0  0  0  1  0  0  0  0  0  0
  183.4090  177.6900  141.0990 C   0  0  0  0  0  3  0  0  0  0  0  0
  185.2070  178.3370  142.8800 C   0  0  0  0  0  0  0  0  0  0  0  0
  184.8150  179.0490  144.1340 C   0  0  0  0  0  2  0  0  0  0  0  0
  185.6840  178.6630  145.2870 C   0  0  0  0  0  0  0  0  0  0  0  0
  186.9460  178.0880  145.0850 C   0  0  0  0  0  3  0  0  0  0  0  0
  187.7200  177.6780  146.1780 C   0  0  0  0  0  0  0  0  0  0  0  0
  187.2430  177.8910  147.4850 C   0  0  0  0  0  0  0  0  0  0  0  0
  185.2110  178.8550  146.5880 C   0  0  0  0  0  3  0  0  0  0  0  0
  187.9970  177.5770  148.5640 F   0  0  0  0  0  0  0  0  0  0  0  0
  185.9900  178.4760  147.6830 C   0  0  0  0  0  3  0  0  0  0  0  0
  188.9960  177.0740  145.9310 N   0  0  0  0  0  2  0  0  0  0  0  0
  191.7320  178.5680  143.8410 C   0  0  0  0  0  3  0  0  0  0  0  0
  190.6280  176.8160  142.5900 C   0  0  0  0  0  0  0  0  0  0  0  0
  189.7520  176.6010  143.6580 C   0  0  0  0  0  3  0  0  0  0  0  0
  191.6170  177.7990  142.6810 C   0  0  0  0  0  3  0  0  0  0  0  0
  189.8570  177.3700  144.8210 C   0  0  0  0  0  0  0  0  0  0  0  0
  190.5290  176.0120  141.4260 N   0  0  0  0  0  1  0  0  0  0  0  0
  190.8600  178.3490  144.9110 C   0  0  0  0  0  3  0  0  0  0  0  0
  184.2360  179.4260  139.4850 C   0  0  2  0  0  3  0  0  0  0  0  0
  183.8160  180.5300  138.7340 O   0  0  0  0  0  1  0  0  0  0  0  0
  189.4730  176.7600  137.0100 C   0  0  0  0  0  0  0  0  0  0  0  0
  186.5580  178.6900  139.1640 N   0  0  0  0  0  0  0  0  0  0  0  0
  185.7340  177.0970  136.9790 C   0  0  0  0  0  0  0  0  0  0  0  0
  187.0620  176.8400  137.6500 C   0  0  1  0  0  3  0  0  0  0  0  0
  191.1160  177.6450  138.6060 F   0  0  0  0  0  0  0  0  0  0  0  0
  188.8650  178.0610  139.0030 C   0  0  0  0  0  3  0  0  0  0  0  0
  188.1870  176.5070  136.7030 C   0  0  0  0  0  3  0  0  0  0  0  0
  189.8150  177.4900  138.2530 C   0  0  0  0  0  0  0  0  0  0  0  0
  184.8460  177.8940  137.5740 C   0  0  0  0  0  3  0  0  0  0  0  0
  187.4560  177.9200  138.6310 C   0  0  0  0  0  0  0  0  0  0  0  0
  185.2170  178.6410  138.7440 N   0  0  0  0  0  0  0  0  0  0  0  0
  190.5210  176.3690  136.1670 O   0  0  0  0  0  0  0  0  0  0  0  0
  191.5140  174.9840  136.4390 P   0  0  0  0  0  0  0  0  0  0  0  0
  191.4320  173.9620  135.0950 O   0  0  0  0  0  0  0  0  0  0  0  0
  190.9550  174.1600  137.8080 O   0  0  0  0  0  1  0  0  0  0  0  0
  192.9450  175.4140  136.6600 O   0  0  0  0  0  1  0  0  0  0  0  0
  185.2910  176.3060  135.7880 C   0  0  0  0  0  2  0  0  0  0  0  0
  183.7650  173.1280  137.2150 C   0  0  0  0  0  3  0  0  0  0  0  0
  183.9980  174.4830  136.9580 C   0  0  0  0  0  3  0  0  0  0  0  0
  185.0510  174.8670  136.1160 C   0  0  0  0  0  0  0  0  0  0  0  0
  184.5750  172.1510  136.6200 C   0  0  0  0  0  3  0  0  0  0  0  0
  185.8470  173.8840  135.5080 C   0  0  0  0  0  3  0  0  0  0  0  0
  185.6120  172.5290  135.7640 C   0  0  0  0  0  3  0  0  0  0  0  0
  182.4560  177.8740  138.8820 O   0  0  0  0  0  0  0  0  0  0  0  0
  181.3570  177.2240  139.4530 C   0  0  2  0  0  3  0  0  0  0  0  0
  181.5390  175.8430  139.3620 O   0  0  0  0  0  1  0  0  0  0  0  0
  180.0950  177.6040  138.6930 C   0  0  0  0  0  2  0  0  0  0  0  0
  180.4280  178.3990  137.5190 N   0  0  0  0  0  0  0  0  0  0  0  0
  180.5080  182.0110  136.7960 C   0  0  0  0  0  0  0  0  0  0  0  0
  180.1220  182.1640  138.4220 S   0  0  0  0  0  0  0  0  0  0  0  0
  180.3320  179.8340  137.5860 C   0  0  0  0  0  0  0  0  0  0  0  0
  180.0480  180.5190  138.7710 C   0  0  0  0  0  3  0  0  0  0  0  0
  180.5900  180.6650  136.4780 C   0  0  0  0  0  3  0  0  0  0  0  0
  180.7930  183.1400  135.8660 C   0  0  0  0  0  2  0  0  0  0  0  0
  181.6200  184.0640  136.4810 F   0  0  0  0  0  0  0  0  0  0  0  0
  180.4120  177.7240  136.2220 C   0  0  0  0  0  2  0  0  0  0  0  0
  181.2690  176.6170  136.2480 O   0  0  0  0  0  1  0  0  0  0  0  0
  1  4  1  1  0  0  0
  2  5  2  0  0  0  0
  3  5  1  0  0  0  0
  4  2  2  0  0  0  0
  5  6  1  0  0  0  0
  6  7  1  0  0  0  0
  7 11  1  0  0  0  0
  8  7  2  0  0  0  0
  8  9  1  0  0  0  0
  9 10  2  0  0  0  0
 10 13  1  0  0  0  0
 10 12  1  0  0  0  0
 11 13  2  0  0  0  0
 14  9  1  0  0  0  0
 15 21  1  0  0  0  0
 16 18  1  0  0  0  0
 16 17  2  0  0  0  0
 17 19  1  0  0  0  0
 18 15  2  0  0  0  0
 19 21  2  0  0  0  0
 19 14  1  0  0  0  0
 20 16  1  0  0  0  0
 22 23  1  6  0  0  0
 22  1  1  0  0  0  0
 24 31  1  0  0  0  0
 26 32  2  0  0  0  0
 26 27  1  0  0  0  0
 27 30  1  6  0  0  0
 27 33  1  0  0  0  0
 30 24  2  0  0  0  0
 31 28  1  0  0  0  0
 31 29  2  0  0  0  0
 32 34  1  0  0  0  0
 33 29  1  0  0  0  0
 33 25  2  0  0  0  0
 34 25  1  0  0  0  0
 34 22  1  0  0  0  0
 35 36  1  0  0  0  0
 35 24  1  0  0  0  0
 36 39  1  0  0  0  0
 36 38  1  0  0  0  0
 37 36  2  0  0  0  0
 40 43  1  0  0  0  0
 40 26  1  0  0  0  0
 42 41  1  0  0  0  0
 43 42  2  0  0  0  0
 44 41  2  0  0  0  0
 45 46  2  0  0  0  0
 45 43  1  0  0  0  0
 46 44  1  0  0  0  0
 47 48  1  0  0  0  0
 47  1  1  0  0  0  0
 48 49  1  6  0  0  0
 50 48  1  0  0  0  0
 51 54  1  0  0  0  0
 51 50  1  0  0  0  0
 52 53  1  0  0  0  0
 53 55  1  0  0  0  0
 54 55  2  0  0  0  0
 56 52  2  0  0  0  0
 56 54  1  0  0  0  0
 57 58  1  0  0  0  0
 57 52  1  0  0  0  0
 59 60  1  0  0  0  0
 59 51  1  0  0  0  0
M  END
>  <MODEL>
5

>  <REMARK>
 VINA RESULT:      -8.7      3.841      8.371
  Name = 
  18 active torsions:
  status: ('A' for Active; 'I' for Inactive)
    1  A    between atoms: C_2  and  O_38
    2  A    between atoms: C_6  and  C_9
    3  A    between atoms: C_10  and  C_55
    4  A    between atoms: C_12  and  C_47
    5  A    between atoms: C_13  and  C_44
    6  A    between atoms: C_13  and  O_54
    7  A    between atoms: C_14  and  C_29
    8  A    between atoms: P_15  and  O_38
    9  A    between atoms: C_17  and  C_55
   10  A    between atoms: C_17  and  N_60
   11  A    between atoms: C_23  and  C_29
   12  A    between atoms: N_24  and  C_26
   13  A    between atoms: N_24  and  C_34
   14  A    between atoms: N_24  and  C_44
   15  A    between atoms: C_28  and  N_59
   16  A    between atoms: C_31  and  C_47
   17  A    between atoms: C_36  and  N_59
   18  A    between atoms: O_54  and  C_55
                            x       y       z     vdW  Elec       q    Type
                         _______ _______ _______ _____ _____    ______ ____

>  <TORSDO>
F 18

$$$$
=
 OpenBabel10222417433D

 60 65  0  0  1  0  0  0  0  0999 V2000
  187.3340  177.0780  137.1150 C   0  0  1  0  0  3  0  0  0  0  0  0
  188.7260  177.6550  139.0720 C   0  0  0  0  0  0  0  0  0  0  0  0
  188.4900  178.7430  141.2110 C   0  0  0  0  0  1  0  0  0  0  0  0
  188.5300  177.7010  137.7790 C   0  0  0  0  0  3  0  0  0  0  0  0
  188.9300  177.6100  140.3600 C   0  0  0  0  0  0  0  0  0  0  0  0
  189.7240  176.5010  140.9690 C   0  0  0  0  0  2  0  0  0  0  0  0
  190.2700  176.8780  142.3080 C   0  0  0  0  0  0  0  0  0  0  0  0
  189.6910  176.4000  143.4900 C   0  0  0  0  0  3  0  0  0  0  0  0
  190.1790  176.8120  144.7350 C   0  0  0  0  0  0  0  0  0  0  0  0
  191.2900  177.6760  144.7940 C   0  0  0  0  0  0  0  0  0  0  0  0
  191.3610  177.7500  142.3750 C   0  0  0  0  0  3  0  0  0  0  0  0
  191.8350  178.0340  145.9800 F   0  0  0  0  0  0  0  0  0  0  0  0
  191.8730  178.1430  143.6130 C   0  0  0  0  0  3  0  0  0  0  0  0
  189.5460  176.3180  145.9220 N   0  0  0  0  0  2  0  0  0  0  0  0
  188.3530  178.2610  148.9050 C   0  0  0  0  0  3  0  0  0  0  0  0
  186.6900  178.3730  147.1510 C   0  0  0  0  0  0  0  0  0  0  0  0
  187.4850  177.5590  146.3400 C   0  0  0  0  0  3  0  0  0  0  0  0
  187.1230  178.7230  148.4330 C   0  0  0  0  0  3  0  0  0  0  0  0
  188.7160  177.0870  146.8060 C   0  0  0  0  0  0  0  0  0  0  0  0
  185.4550  178.8670  146.6580 N   0  0  0  0  0  1  0  0  0  0  0  0
  189.1520  177.4510  148.0910 C   0  0  0  0  0  3  0  0  0  0  0  0
  186.2820  178.1320  136.7480 C   0  0  2  0  0  3  0  0  0  0  0  0
  186.8760  179.3770  136.5130 O   0  0  0  0  0  1  0  0  0  0  0  0
  182.7880  178.7100  142.0500 C   0  0  0  0  0  0  0  0  0  0  0  0
  185.5950  178.6250  139.0540 N   0  0  0  0  0  0  0  0  0  0  0  0
  182.9060  178.1190  138.3440 C   0  0  0  0  0  0  0  0  0  0  0  0
  183.2290  178.8920  139.6000 C   0  0  1  0  0  3  0  0  0  0  0  0
  184.5810  179.3670  143.5930 F   0  0  0  0  0  0  0  0  0  0  0  0
  185.0960  179.1570  141.3370 C   0  0  0  0  0  3  0  0  0  0  0  0
  182.3580  178.5540  140.7840 C   0  0  0  0  0  3  0  0  0  0  0  0
  184.1890  179.1100  142.3200 C   0  0  0  0  0  0  0  0  0  0  0  0
  183.8680  177.9030  137.4460 C   0  0  0  0  0  3  0  0  0  0  0  0
  184.6970  178.8660  139.9590 C   0  0  0  0  0  0  0  0  0  0  0  0
  185.2300  178.2430  137.7510 N   0  0  0  0  0  0  0  0  0  0  0  0
  181.9460  178.4790  143.1450 O   0  0  0  0  0  0  0  0  0  0  0  0
  180.2290  178.6410  143.0950 P   0  0  0  0  0  0  0  0  0  0  0  0
  179.6270  177.8090  141.7530 O   0  0  0  0  0  0  0  0  0  0  0  0
  179.8290  180.2810  142.9670 O   0  0  0  0  0  1  0  0  0  0  0  0
  179.6230  178.0710  144.3560 O   0  0  0  0  0  1  0  0  0  0  0  0
  181.4960  177.7890  137.9670 C   0  0  0  0  0  2  0  0  0  0  0  0
  180.5610  180.4550  135.4210 C   0  0  0  0  0  3  0  0  0  0  0  0
  181.2500  179.4160  136.0550 C   0  0  0  0  0  3  0  0  0  0  0  0
  180.8040  178.9310  137.2910 C   0  0  0  0  0  0  0  0  0  0  0  0
  179.4150  181.0020  136.0140 C   0  0  0  0  0  3  0  0  0  0  0  0
  179.6450  179.4690  137.8720 C   0  0  0  0  0  3  0  0  0  0  0  0
  178.9560  180.5070  137.2360 C   0  0  0  0  0  3  0  0  0  0  0  0
  187.6860  176.2820  136.0100 O   0  0  0  0  0  0  0  0  0  0  0  0
  189.0030  176.6540  135.7140 C   0  0  2  0  0  3  0  0  0  0  0  0
  189.0050  177.4900  134.5960 O   0  0  0  0  0  1  0  0  0  0  0  0
  189.8200  175.4100  135.3990 C   0  0  0  0  0  2  0  0  0  0  0  0
  190.2830  174.7810  136.6270 N   0  0  0  0  0  0  0  0  0  0  0  0
  193.7470  174.6050  137.8690 C   0  0  0  0  0  0  0  0  0  0  0  0
  193.5520  176.2540  138.1180 S   0  0  0  0  0  0  0  0  0  0  0  0
  191.6000  175.0830  137.1240 C   0  0  0  0  0  0  0  0  0  0  0  0
  191.9810  176.3660  137.5260 C   0  0  0  0  0  3  0  0  0  0  0  0
  192.5860  174.0940  137.3140 C   0  0  0  0  0  3  0  0  0  0  0  0
  194.9470  173.8100  138.2550 C   0  0  0  0  0  2  0  0  0  0  0  0
  195.4260  174.2380  139.4800 F   0  0  0  0  0  0  0  0  0  0  0  0
  189.6000  173.5610  137.0590 C   0  0  0  0  0  2  0  0  0  0  0  0
  188.7490  173.1060  136.0450 O   0  0  0  0  0  1  0  0  0  0  0  0
  1  4  1  6  0  0  0
  2  5  2  0  0  0  0
  4  2  2  0  0  0  0
  5  6  1  0  0  0  0
  5  3  1  0  0  0  0
  6  7  1  0  0  0  0
  7 11  2  0  0  0  0
  7  8  1  0  0  0  0
  8  9  2  0  0  0  0
  9 10  1  0  0  0  0
  9 14  1  0  0  0  0
 10 12  1  0  0  0  0
 11 13  1  0  0  0  0
 13 10  2  0  0  0  0
 14 19  1  0  0  0  0
 16 18  2  0  0  0  0
 17 19  2  0  0  0  0
 17 16  1  0  0  0  0
 18 15  1  0  0  0  0
 19 21  1  0  0  0  0
 20 16  1  0  0  0  0
 21 15  2  0  0  0  0
 22 23  1  1  0  0  0
 22  1  1  0  0  0  0
 22 34  1  0  0  0  0
 24 31  1  0  0  0  0
 24 35  1  0  0  0  0
 25 33  2  0  0  0  0
 26 27  1  0  0  0  0
 27 33  1  0  0  0  0
 27 30  1  1  0  0  0
 29 31  2  0  0  0  0
 30 24  2  0  0  0  0
 31 28  1  0  0  0  0
 32 34  1  0  0  0  0
 32 26  2  0  0  0  0
 33 29  1  0  0  0  0
 34 25  1  0  0  0  0
 36 35  1  0  0  0  0
 36 39  1  0  0  0  0
 37 36  2  0  0  0  0
 38 36  1  0  0  0  0
 40 26  1  0  0  0  0
 41 44  2  0  0  0  0
 41 42  1  0  0  0  0
 42 43  2  0  0  0  0
 43 45  1  0  0  0  0
 43 40  1  0  0  0  0
 44 46  1  0  0  0  0
 46 45  2  0  0  0  0
 47  1  1  0  0  0  0
 48 49  1  6  0  0  0
 48 47  1  0  0  0  0
 50 48  1  0  0  0  0
 50 51  1  0  0  0  0
 51 59  1  0  0  0  0
 51 54  1  0  0  0  0
 52 53  1  0  0  0  0
 52 57  1  0  0  0  0
 54 56  1  0  0  0  0
 54 55  2  0  0  0  0
 55 53  1  0  0  0  0
 56 52  2  0  0  0  0
 57 58  1  0  0  0  0
 60 59  1  0  0  0  0
M  END
>  <MODEL>
6

>  <REMARK>
 VINA RESULT:      -8.3      2.987      4.758
  Name = 
  18 active torsions:
  status: ('A' for Active; 'I' for Inactive)
    1  A    between atoms: C_2  and  O_38
    2  A    between atoms: C_6  and  C_9
    3  A    between atoms: C_10  and  C_55
    4  A    between atoms: C_12  and  C_47
    5  A    between atoms: C_13  and  C_44
    6  A    between atoms: C_13  and  O_54
    7  A    between atoms: C_14  and  C_29
    8  A    between atoms: P_15  and  O_38
    9  A    between atoms: C_17  and  C_55
   10  A    between atoms: C_17  and  N_60
   11  A    between atoms: C_23  and  C_29
   12  A    between atoms: N_24  and  C_26
   13  A    between atoms: N_24  and  C_34
   14  A    between atoms: N_24  and  C_44
   15  A    between atoms: C_28  and  N_59
   16  A    between atoms: C_31  and  C_47
   17  A    between atoms: C_36  and  N_59
   18  A    between atoms: O_54  and  C_55
                            x       y       z     vdW  Elec       q    Type
                         _______ _______ _______ _____ _____    ______ ____

>  <TORSDO>
F 18

$$$$
=
 OpenBabel10222417433D

 60 65  0  0  1  0  0  0  0  0999 V2000
  190.0890  176.9030  138.0060 C   0  0  1  0  0  3  0  0  0  0  0  0
  190.2960  177.3310  140.4300 C   0  0  0  0  0  0  0  0  0  0  0  0
  189.0360  178.3690  142.2050 C   0  0  0  0  0  1  0  0  0  0  0  0
  190.7960  177.4280  139.2250 C   0  0  0  0  0  3  0  0  0  0  0  0
  189.8060  177.2350  141.6350 C   0  0  0  0  0  0  0  0  0  0  0  0
  190.1280  176.0600  142.4990 C   0  0  0  0  0  2  0  0  0  0  0  0
  190.1040  176.4140  143.9500 C   0  0  0  0  0  0  0  0  0  0  0  0
  188.9080  176.7510  144.5960 C   0  0  0  0  0  3  0  0  0  0  0  0
  188.9140  177.1380  145.9420 C   0  0  0  0  0  0  0  0  0  0  0  0
  190.1260  177.1400  146.6580 C   0  0  0  0  0  0  0  0  0  0  0  0
  191.3060  176.4360  144.6640 C   0  0  0  0  0  3  0  0  0  0  0  0
  190.1580  177.4350  147.9790 F   0  0  0  0  0  0  0  0  0  0  0  0
  191.3160  176.7920  146.0140 C   0  0  0  0  0  3  0  0  0  0  0  0
  187.6730  177.4980  146.5620 N   0  0  0  0  0  2  0  0  0  0  0  0
  184.1840  178.6900  145.8560 C   0  0  0  0  0  3  0  0  0  0  0  0
  185.3260  178.2580  143.7680 C   0  0  0  0  0  0  0  0  0  0  0  0
  186.4630  177.8470  144.4700 C   0  0  0  0  0  3  0  0  0  0  0  0
  184.1880  178.6790  144.4600 C   0  0  0  0  0  3  0  0  0  0  0  0
  186.4660  177.8500  145.8690 C   0  0  0  0  0  0  0  0  0  0  0  0
  185.3440  178.2750  142.3490 N   0  0  0  0  0  1  0  0  0  0  0  0
  185.3220  178.2850  146.5590 C   0  0  0  0  0  3  0  0  0  0  0  0
  188.8620  177.7540  137.6580 C   0  0  2  0  0  3  0  0  0  0  0  0
  188.5530  178.6430  138.6940 O   0  0  0  0  0  1  0  0  0  0  0  0
  184.7740  173.2070  135.8480 C   0  0  0  0  0  0  0  0  0  0  0  0
  187.8940  175.5660  137.0960 N   0  0  0  0  0  0  0  0  0  0  0  0
  185.3370  176.7600  136.9230 C   0  0  0  0  0  0  0  0  0  0  0  0
  185.4700  175.2640  137.0780 C   0  0  1  0  0  3  0  0  0  0  0  0
  186.3410  171.3180  135.7880 F   0  0  0  0  0  0  0  0  0  0  0  0
  187.1140  173.3600  136.5810 C   0  0  0  0  0  3  0  0  0  0  0  0
  184.4980  174.4600  136.2530 C   0  0  0  0  0  3  0  0  0  0  0  0
  186.1090  172.6160  136.1040 C   0  0  0  0  0  0  0  0  0  0  0  0
  186.4040  177.5330  137.1270 C   0  0  0  0  0  3  0  0  0  0  0  0
  186.8880  174.7680  136.9130 C   0  0  0  0  0  0  0  0  0  0  0  0
  187.7000  176.9420  137.3130 N   0  0  0  0  0  0  0  0  0  0  0  0
  183.8330  172.4330  135.1570 O   0  0  0  0  0  0  0  0  0  0  0  0
  182.3160  171.9430  135.8160 P   0  0  0  0  0  0  0  0  0  0  0  0
  181.6870  170.6750  134.8930 O   0  0  0  0  0  0  0  0  0  0  0  0
  181.2440  173.2530  135.7780 O   0  0  0  0  0  1  0  0  0  0  0  0
  182.5000  171.4840  137.2440 O   0  0  0  0  0  1  0  0  0  0  0  0
  184.0010  177.4180  136.7770 C   0  0  0  0  0  2  0  0  0  0  0  0
  182.4520  177.0430  140.2290 C   0  0  0  0  0  3  0  0  0  0  0  0
  182.9950  176.7190  138.9810 C   0  0  0  0  0  3  0  0  0  0  0  0
  183.3750  177.7370  138.0960 C   0  0  0  0  0  0  0  0  0  0  0  0
  182.3000  178.3860  140.6020 C   0  0  0  0  0  3  0  0  0  0  0  0
  183.2380  179.0800  138.4820 C   0  0  0  0  0  3  0  0  0  0  0  0
  182.6960  179.4030  139.7310 C   0  0  0  0  0  3  0  0  0  0  0  0
  190.9530  176.7550  136.9060 O   0  0  0  0  0  0  0  0  0  0  0  0
  191.0770  175.3710  136.7400 C   0  0  2  0  0  3  0  0  0  0  0  0
  191.3970  174.7860  137.9660 O   0  0  0  0  0  1  0  0  0  0  0  0
  192.1960  175.0800  135.7500 C   0  0  0  0  0  2  0  0  0  0  0  0
  192.9490  173.9050  136.1630 N   0  0  0  0  0  0  0  0  0  0  0  0
  196.0120  174.3300  138.1660 C   0  0  0  0  0  0  0  0  0  0  0  0
  196.7580  174.4650  136.6680 S   0  0  0  0  0  0  0  0  0  0  0  0
  194.3090  174.0560  136.6110 C   0  0  0  0  0  0  0  0  0  0  0  0
  195.3790  174.2410  135.7300 C   0  0  0  0  0  3  0  0  0  0  0  0
  194.6580  174.1050  137.9750 C   0  0  0  0  0  3  0  0  0  0  0  0
  196.6840  174.5030  139.4840 C   0  0  0  0  0  2  0  0  0  0  0  0
  195.9640  175.3840  140.2720 F   0  0  0  0  0  0  0  0  0  0  0  0
  192.4720  172.6020  135.6980 C   0  0  0  0  0  2  0  0  0  0  0  0
  193.1790  171.5780  136.3400 O   0  0  0  0  0  1  0  0  0  0  0  0
  1  4  1  1  0  0  0
  2  5  2  0  0  0  0
  4  2  2  0  0  0  0
  5  3  1  0  0  0  0
  5  6  1  0  0  0  0
  6  7  1  0  0  0  0
  7  8  2  0  0  0  0
  7 11  1  0  0  0  0
  8  9  1  0  0  0  0
  9 14  1  0  0  0  0
  9 10  2  0  0  0  0
 10 12  1  0  0  0  0
 11 13  2  0  0  0  0
 13 10  1  0  0  0  0
 15 21  1  0  0  0  0
 16 18  1  0  0  0  0
 16 17  2  0  0  0  0
 17 19  1  0  0  0  0
 18 15  2  0  0  0  0
 19 21  2  0  0  0  0
 19 14  1  0  0  0  0
 20 16  1  0  0  0  0
 22  1  1  0  0  0  0
 22 23  1  1  0  0  0
 24 31  1  0  0  0  0
 24 30  2  0  0  0  0
 25 34  1  0  0  0  0
 26 27  1  0  0  0  0
 26 32  2  0  0  0  0
 27 30  1  6  0  0  0
 28 31  1  0  0  0  0
 29 33  1  0  0  0  0
 31 29  2  0  0  0  0
 32 34  1  0  0  0  0
 33 27  1  0  0  0  0
 33 25  2  0  0  0  0
 34 22  1  0  0  0  0
 35 36  1  0  0  0  0
 35 24  1  0  0  0  0
 36 39  1  0  0  0  0
 37 36  2  0  0  0  0
 38 36  1  0  0  0  0
 40 26  1  0  0  0  0
 40 43  1  0  0  0  0
 41 44  1  0  0  0  0
 42 41  2  0  0  0  0
 43 45  2  0  0  0  0
 43 42  1  0  0  0  0
 45 46  1  0  0  0  0
 46 44  2  0  0  0  0
 47  1  1  0  0  0  0
 48 47  1  0  0  0  0
 48 49  1  1  0  0  0
 50 51  1  0  0  0  0
 50 48  1  0  0  0  0
 51 54  1  0  0  0  0
 52 57  1  0  0  0  0
 53 52  1  0  0  0  0
 54 56  1  0  0  0  0
 55 54  2  0  0  0  0
 55 53  1  0  0  0  0
 56 52  2  0  0  0  0
 57 58  1  0  0  0  0
 59 51  1  0  0  0  0
 59 60  1  0  0  0  0
M  END
>  <MODEL>
7

>  <REMARK>
 VINA RESULT:      -8.3      2.249      3.621
  Name = 
  18 active torsions:
  status: ('A' for Active; 'I' for Inactive)
    1  A    between atoms: C_2  and  O_38
    2  A    between atoms: C_6  and  C_9
    3  A    between atoms: C_10  and  C_55
    4  A    between atoms: C_12  and  C_47
    5  A    between atoms: C_13  and  C_44
    6  A    between atoms: C_13  and  O_54
    7  A    between atoms: C_14  and  C_29
    8  A    between atoms: P_15  and  O_38
    9  A    between atoms: C_17  and  C_55
   10  A    between atoms: C_17  and  N_60
   11  A    between atoms: C_23  and  C_29
   12  A    between atoms: N_24  and  C_26
   13  A    between atoms: N_24  and  C_34
   14  A    between atoms: N_24  and  C_44
   15  A    between atoms: C_28  and  N_59
   16  A    between atoms: C_31  and  C_47
   17  A    between atoms: C_36  and  N_59
   18  A    between atoms: O_54  and  C_55
                            x       y       z     vdW  Elec       q    Type
                         _______ _______ _______ _____ _____    ______ ____

>  <TORSDO>
F 18

$$$$
=
 OpenBabel10222417433D

 60 65  0  0  1  0  0  0  0  0999 V2000
  182.3660  178.1870  139.6880 C   0  0  1  0  0  3  0  0  0  0  0  0
  183.9620  178.1420  141.5740 C   0  0  0  0  0  0  0  0  0  0  0  0
  185.8260  179.4250  142.4040 C   0  0  0  0  0  1  0  0  0  0  0  0
  183.4020  177.5330  140.5600 C   0  0  0  0  0  3  0  0  0  0  0  0
  184.5220  178.7420  142.5870 C   0  0  0  0  0  0  0  0  0  0  0  0
  183.9380  178.6310  143.9580 C   0  0  0  0  0  2  0  0  0  0  0  0
  184.9970  178.4790  145.0020 C   0  0  0  0  0  0  0  0  0  0  0  0
  186.3180  178.1680  144.6560 C   0  0  0  0  0  3  0  0  0  0  0  0
  187.2830  177.9710  145.6520 C   0  0  0  0  0  0  0  0  0  0  0  0
  186.9270  178.1350  147.0040 C   0  0  0  0  0  0  0  0  0  0  0  0
  184.6490  178.6220  146.3480 C   0  0  0  0  0  3  0  0  0  0  0  0
  187.8520  178.0270  147.9880 F   0  0  0  0  0  0  0  0  0  0  0  0
  185.6120  178.4570  147.3450 C   0  0  0  0  0  3  0  0  0  0  0  0
  188.6190  177.6330  145.2600 N   0  0  0  0  0  2  0  0  0  0  0  0
  188.5590  176.7520  141.6120 C   0  0  0  0  0  3  0  0  0  0  0  0
  190.8240  177.2850  142.2760 C   0  0  0  0  0  0  0  0  0  0  0  0
  190.3930  177.4960  143.5880 C   0  0  0  0  0  3  0  0  0  0  0  0
  189.9080  176.9120  141.2880 C   0  0  0  0  0  3  0  0  0  0  0  0
  189.0450  177.3330  143.9220 C   0  0  0  0  0  0  0  0  0  0  0  0
  192.1890  177.4800  141.9430 N   0  0  0  0  0  1  0  0  0  0  0  0
  188.1270  176.9690  142.9240 C   0  0  0  0  0  3  0  0  0  0  0  0
  183.0120  178.9810  138.5470 C   0  0  2  0  0  3  0  0  0  0  0  0
  182.0750  179.2940  137.5560 O   0  0  0  0  0  1  0  0  0  0  0  0
  188.7880  176.9810  136.7300 C   0  0  0  0  0  0  0  0  0  0  0  0
  185.4420  178.6280  138.4480 N   0  0  0  0  0  0  0  0  0  0  0  0
  185.0570  176.6540  136.4620 C   0  0  0  0  0  0  0  0  0  0  0  0
  186.3560  176.7200  137.2280 C   0  0  1  0  0  3  0  0  0  0  0  0
  190.1380  178.3330  138.2720 F   0  0  0  0  0  0  0  0  0  0  0  0
  187.8260  178.3960  138.4930 C   0  0  0  0  0  3  0  0  0  0  0  0
  187.5880  176.4720  136.3950 C   0  0  0  0  0  3  0  0  0  0  0  0
  188.9110  177.9100  137.8780 C   0  0  0  0  0  0  0  0  0  0  0  0
  184.0080  177.3530  136.8960 C   0  0  0  0  0  3  0  0  0  0  0  0
  186.4920  177.9660  138.0720 C   0  0  0  0  0  0  0  0  0  0  0  0
  184.1620  178.2930  137.9710 N   0  0  0  0  0  0  0  0  0  0  0  0
  189.9450  176.6760  136.0030 O   0  0  0  0  0  0  0  0  0  0  0  0
  191.1440  175.5500  136.5240 P   0  0  0  0  0  0  0  0  0  0  0  0
  190.6420  174.8220  137.9640 O   0  0  0  0  0  1  0  0  0  0  0  0
  192.6010  176.3720  136.7860 O   0  0  0  0  0  1  0  0  0  0  0  0
  191.3470  174.4900  135.4660 O   0  0  0  0  0  0  0  0  0  0  0  0
  184.8410  175.6550  135.3680 C   0  0  0  0  0  2  0  0  0  0  0  0
  184.4910  172.5910  137.5940 C   0  0  0  0  0  3  0  0  0  0  0  0
  184.9300  173.8250  137.1020 C   0  0  0  0  0  3  0  0  0  0  0  0
  184.4240  174.3170  135.8920 C   0  0  0  0  0  0  0  0  0  0  0  0
  183.5350  171.8520  136.8850 C   0  0  0  0  0  3  0  0  0  0  0  0
  183.4520  173.5820  135.1950 C   0  0  0  0  0  3  0  0  0  0  0  0
  183.0130  172.3500  135.6890 C   0  0  0  0  0  3  0  0  0  0  0  0
  181.4080  177.2720  139.2140 O   0  0  0  0  0  0  0  0  0  0  0  0
  180.1760  177.8580  139.5270 C   0  0  2  0  0  3  0  0  0  0  0  0
  180.2070  178.3200  140.8440 O   0  0  0  0  0  1  0  0  0  0  0  0
  179.0750  176.8160  139.3980 C   0  0  0  0  0  2  0  0  0  0  0  0
  179.6470  175.4850  139.2540 N   0  0  0  0  0  0  0  0  0  0  0  0
  179.4810  173.0010  136.5380 C   0  0  0  0  0  0  0  0  0  0  0  0
  179.6720  174.3400  135.5440 S   0  0  0  0  0  0  0  0  0  0  0  0
  179.5820  174.8200  137.9790 C   0  0  0  0  0  0  0  0  0  0  0  0
  179.7190  175.4980  136.7640 C   0  0  0  0  0  3  0  0  0  0  0  0
  179.4480  173.4220  137.8570 C   0  0  0  0  0  3  0  0  0  0  0  0
  179.4330  171.5850  136.0790 C   0  0  0  0  0  2  0  0  0  0  0  0
  179.7270  170.7350  137.1310 F   0  0  0  0  0  0  0  0  0  0  0  0
  179.8600  174.7080  140.4750 C   0  0  0  0  0  2  0  0  0  0  0  0
  179.0050  175.1640  141.4870 O   0  0  0  0  0  1  0  0  0  0  0  0
  1  4  1  6  0  0  0
  2  5  2  0  0  0  0
  3  5  1  0  0  0  0
  4  2  2  0  0  0  0
  5  6  1  0  0  0  0
  6  7  1  0  0  0  0
  7 11  1  0  0  0  0
  8  7  2  0  0  0  0
  8  9  1  0  0  0  0
  9 10  2  0  0  0  0
 10 13  1  0  0  0  0
 10 12  1  0  0  0  0
 11 13  2  0  0  0  0
 14  9  1  0  0  0  0
 15 21  1  0  0  0  0
 16 17  2  0  0  0  0
 17 19  1  0  0  0  0
 18 15  2  0  0  0  0
 18 16  1  0  0  0  0
 19 14  1  0  0  0  0
 20 16  1  0  0  0  0
 21 19  2  0  0  0  0
 22 23  1  6  0  0  0
 22  1  1  0  0  0  0
 24 31  1  0  0  0  0
 26 32  2  0  0  0  0
 26 27  1  0  0  0  0
 27 30  1  6  0  0  0
 27 33  1  0  0  0  0
 30 24  2  0  0  0  0
 31 28  1  0  0  0  0
 31 29  2  0  0  0  0
 32 34  1  0  0  0  0
 33 25  2  0  0  0  0
 33 29  1  0  0  0  0
 34 25  1  0  0  0  0
 34 22  1  0  0  0  0
 35 36  1  0  0  0  0
 35 24  1  0  0  0  0
 36 38  1  0  0  0  0
 36 37  1  0  0  0  0
 39 36  2  0  0  0  0
 40 43  1  0  0  0  0
 40 26  1  0  0  0  0
 42 41  1  0  0  0  0
 43 42  2  0  0  0  0
 44 41  2  0  0  0  0
 45 46  2  0  0  0  0
 45 43  1  0  0  0  0
 46 44  1  0  0  0  0
 47 48  1  0  0  0  0
 47  1  1  0  0  0  0
 48 49  1  1  0  0  0
 50 48  1  0  0  0  0
 51 50  1  0  0  0  0
 51 59  1  0  0  0  0
 52 56  2  0  0  0  0
 53 52  1  0  0  0  0
 53 55  1  0  0  0  0
 54 51  1  0  0  0  0
 55 54  2  0  0  0  0
 56 54  1  0  0  0  0
 57 52  1  0  0  0  0
 57 58  1  0  0  0  0
 59 60  1  0  0  0  0
M  END
>  <MODEL>
8

>  <REMARK>
 VINA RESULT:      -8.2      3.966      8.476
  Name = 
  18 active torsions:
  status: ('A' for Active; 'I' for Inactive)
    1  A    between atoms: C_2  and  O_38
    2  A    between atoms: C_6  and  C_9
    3  A    between atoms: C_10  and  C_55
    4  A    between atoms: C_12  and  C_47
    5  A    between atoms: C_13  and  C_44
    6  A    between atoms: C_13  and  O_54
    7  A    between atoms: C_14  and  C_29
    8  A    between atoms: P_15  and  O_38
    9  A    between atoms: C_17  and  C_55
   10  A    between atoms: C_17  and  N_60
   11  A    between atoms: C_23  and  C_29
   12  A    between atoms: N_24  and  C_26
   13  A    between atoms: N_24  and  C_34
   14  A    between atoms: N_24  and  C_44
   15  A    between atoms: C_28  and  N_59
   16  A    between atoms: C_31  and  C_47
   17  A    between atoms: C_36  and  N_59
   18  A    between atoms: O_54  and  C_55
                            x       y       z     vdW  Elec       q    Type
                         _______ _______ _______ _____ _____    ______ ____

>  <TORSDO>
F 18

$$$$
=
 OpenBabel10222417433D

 60 65  0  0  1  0  0  0  0  0999 V2000
  183.2460  178.3730  139.7390 C   0  0  1  0  0  3  0  0  0  0  0  0
  183.0260  176.9190  137.7530 C   0  0  0  0  0  0  0  0  0  0  0  0
  181.2990  176.1060  136.2810 C   0  0  0  0  0  1  0  0  0  0  0  0
  183.4430  177.0890  138.9820 C   0  0  0  0  0  3  0  0  0  0  0  0
  182.6160  176.7440  136.5280 C   0  0  0  0  0  0  0  0  0  0  0  0
  183.5120  177.0460  135.3720 C   0  0  0  0  0  2  0  0  0  0  0  0
  184.8780  176.4690  135.5620 C   0  0  0  0  0  0  0  0  0  0  0  0
  185.0660  175.0940  135.7510 C   0  0  0  0  0  3  0  0  0  0  0  0
  186.3460  174.5800  135.9870 C   0  0  0  0  0  0  0  0  0  0  0  0
  187.4540  175.4490  135.9870 C   0  0  0  0  0  0  0  0  0  0  0  0
  185.9810  177.3270  135.5810 C   0  0  0  0  0  3  0  0  0  0  0  0
  188.7140  174.9760  136.1360 F   0  0  0  0  0  0  0  0  0  0  0  0
  187.2650  176.8190  135.7870 C   0  0  0  0  0  3  0  0  0  0  0  0
  186.4960  173.1700  136.1980 N   0  0  0  0  0  2  0  0  0  0  0  0
  184.6020  170.0510  135.3170 C   0  0  0  0  0  3  0  0  0  0  0  0
  183.2620  171.4180  136.7960 C   0  0  0  0  0  0  0  0  0  0  0  0
  184.2690  172.3860  136.8210 C   0  0  0  0  0  3  0  0  0  0  0  0
  183.4270  170.2510  136.0450 C   0  0  0  0  0  3  0  0  0  0  0  0
  185.4470  172.1960  136.0910 C   0  0  0  0  0  0  0  0  0  0  0  0
  182.0820  171.6090  137.5620 N   0  0  0  0  0  1  0  0  0  0  0  0
  185.6130  171.0160  135.3460 C   0  0  0  0  0  3  0  0  0  0  0  0
  184.5550  179.1620  139.8570 C   0  0  2  0  0  3  0  0  0  0  0  0
  185.3650  178.9690  138.7310 O   0  0  0  0  0  1  0  0  0  0  0  0
  186.5460  178.2190  145.8400 C   0  0  0  0  0  0  0  0  0  0  0  0
  184.5730  178.8150  142.2890 N   0  0  0  0  0  0  0  0  0  0  0  0
  187.3400  178.2490  142.1710 C   0  0  0  0  0  0  0  0  0  0  0  0
  186.5290  177.8340  143.3750 C   0  0  1  0  0  3  0  0  0  0  0  0
  184.3850  178.4610  146.9810 F   0  0  0  0  0  0  0  0  0  0  0  0
  184.4100  178.4940  144.6580 C   0  0  0  0  0  3  0  0  0  0  0  0
  187.2280  178.0240  144.6970 C   0  0  0  0  0  3  0  0  0  0  0  0
  185.0720  178.3720  145.8150 C   0  0  0  0  0  0  0  0  0  0  0  0
  186.7100  178.6460  141.0650 C   0  0  0  0  0  3  0  0  0  0  0  0
  185.1350  178.4180  143.3890 C   0  0  0  0  0  0  0  0  0  0  0  0
  185.2870  178.8470  141.0780 N   0  0  0  0  0  0  0  0  0  0  0  0
  187.1950  178.3070  147.0780 O   0  0  0  0  0  0  0  0  0  0  0  0
  188.7640  177.6620  147.3940 P   0  0  0  0  0  0  0  0  0  0  0  0
  188.6350  176.0080  147.7170 O   0  0  0  0  0  1  0  0  0  0  0  0
  189.4280  178.4480  148.7380 O   0  0  0  0  0  1  0  0  0  0  0  0
  189.6570  177.8740  146.1940 O   0  0  0  0  0  0  0  0  0  0  0  0
  188.8160  178.0110  142.1000 C   0  0  0  0  0  2  0  0  0  0  0  0
  190.5010  176.4610  139.0640 C   0  0  0  0  0  3  0  0  0  0  0  0
  190.1070  176.6840  140.3870 C   0  0  0  0  0  3  0  0  0  0  0  0
  189.2900  177.7780  140.7010 C   0  0  0  0  0  0  0  0  0  0  0  0
  190.0680  177.3220  138.0470 C   0  0  0  0  0  3  0  0  0  0  0  0
  188.8430  178.6280  139.6770 C   0  0  0  0  0  3  0  0  0  0  0  0
  189.2360  178.4030  138.3530 C   0  0  0  0  0  3  0  0  0  0  0  0
  182.2080  179.1570  139.2040 O   0  0  0  0  0  0  0  0  0  0  0  0
  181.5380  179.6650  140.3230 C   0  0  2  0  0  3  0  0  0  0  0  0
  181.3540  178.6420  141.2550 O   0  0  0  0  0  1  0  0  0  0  0  0
  180.1760  180.1950  139.8990 C   0  0  0  0  0  2  0  0  0  0  0  0
  179.9750  179.9960  138.4710 N   0  0  0  0  0  0  0  0  0  0  0  0
  180.8120  183.2250  136.9050 C   0  0  0  0  0  0  0  0  0  0  0  0
  180.7540  182.3440  135.4770 S   0  0  0  0  0  0  0  0  0  0  0  0
  180.3300  181.0470  137.5530 C   0  0  0  0  0  0  0  0  0  0  0  0
  180.4030  180.8510  136.1710 C   0  0  0  0  0  3  0  0  0  0  0  0
  180.5580  182.3740  137.9680 C   0  0  0  0  0  3  0  0  0  0  0  0
  181.0240  184.6960  137.0040 C   0  0  0  0  0  2  0  0  0  0  0  0
  181.1820  185.2380  135.7410 F   0  0  0  0  0  0  0  0  0  0  0  0
  179.0340  178.9540  138.0610 C   0  0  0  0  0  2  0  0  0  0  0  0
  179.3780  177.7370  138.6620 O   0  0  0  0  0  1  0  0  0  0  0  0
  1  4  1  6  0  0  0
  1 22  1  0  0  0  0
  2  4  2  0  0  0  0
  3  5  1  0  0  0  0
  5  2  2  0  0  0  0
  6  7  1  0  0  0  0
  6  5  1  0  0  0  0
  7 11  2  0  0  0  0
  7  8  1  0  0  0  0
  8  9  2  0  0  0  0
  9 10  1  0  0  0  0
  9 14  1  0  0  0  0
 10 12  1  0  0  0  0
 11 13  1  0  0  0  0
 13 10  2  0  0  0  0
 15 21  2  0  0  0  0
 15 18  1  0  0  0  0
 16 17  1  0  0  0  0
 16 20  1  0  0  0  0
 18 16  2  0  0  0  0
 19 14  1  0  0  0  0
 19 17  2  0  0  0  0
 21 19  1  0  0  0  0
 22 23  1  6  0  0  0
 22 34  1  0  0  0  0
 24 35  1  0  0  0  0
 25 33  2  0  0  0  0
 26 27  1  0  0  0  0
 27 33  1  0  0  0  0
 27 30  1  1  0  0  0
 29 31  2  0  0  0  0
 30 24  2  0  0  0  0
 31 24  1  0  0  0  0
 31 28  1  0  0  0  0
 32 34  1  0  0  0  0
 32 26  2  0  0  0  0
 33 29  1  0  0  0  0
 34 25  1  0  0  0  0
 35 36  1  0  0  0  0
 36 37  1  0  0  0  0
 36 38  1  0  0  0  0
 39 36  2  0  0  0  0
 40 26  1  0  0  0  0
 41 42  1  0  0  0  0
 42 43  2  0  0  0  0
 43 40  1  0  0  0  0
 44 46  1  0  0  0  0
 44 41  2  0  0  0  0
 45 43  1  0  0  0  0
 46 45  2  0  0  0  0
 47  1  1  0  0  0  0
 47 48  1  0  0  0  0
 48 49  1  1  0  0  0
 50 48  1  0  0  0  0
 51 50  1  0  0  0  0
 52 57  1  0  0  0  0
 52 56  2  0  0  0  0
 53 55  1  0  0  0  0
 53 52  1  0  0  0  0
 54 56  1  0  0  0  0
 54 51  1  0  0  0  0
 55 54  2  0  0  0  0
 58 57  1  0  0  0  0
 59 51  1  0  0  0  0
 59 60  1  0  0  0  0
M  END
>  <MODEL>
9

>  <REMARK>
 VINA RESULT:      -8.2      4.686     10.822
  Name = 
  18 active torsions:
  status: ('A' for Active; 'I' for Inactive)
    1  A    between atoms: C_2  and  O_38
    2  A    between atoms: C_6  and  C_9
    3  A    between atoms: C_10  and  C_55
    4  A    between atoms: C_12  and  C_47
    5  A    between atoms: C_13  and  C_44
    6  A    between atoms: C_13  and  O_54
    7  A    between atoms: C_14  and  C_29
    8  A    between atoms: P_15  and  O_38
    9  A    between atoms: C_17  and  C_55
   10  A    between atoms: C_17  and  N_60
   11  A    between atoms: C_23  and  C_29
   12  A    between atoms: N_24  and  C_26
   13  A    between atoms: N_24  and  C_34
   14  A    between atoms: N_24  and  C_44
   15  A    between atoms: C_28  and  N_59
   16  A    between atoms: C_31  and  C_47
   17  A    between atoms: C_36  and  N_59
   18  A    between atoms: O_54  and  C_55
                            x       y       z     vdW  Elec       q    Type
                         _______ _______ _______ _____ _____    ______ ____

>  <TORSDO>
F 18

$$$$
