=
 OpenBabel10222417553D

 33 37  0  0  1  0  0  0  0  0999 V2000
  187.6280  178.5920  140.0090 N   0  0  0  0  0  0  0  0  0  0  0  0
  188.8110  178.4450  138.0030 C   0  0  0  0  0  3  0  0  0  0  0  0
  190.1620  175.7120  135.9410 C   0  0  0  0  0  3  0  0  0  0  0  0
  188.6960  178.1350  139.4290 C   0  0  0  0  0  0  0  0  0  0  0  0
  189.9230  176.2600  134.7200 N   0  0  0  0  0  0  0  0  0  0  0  0
  189.1230  178.2600  135.7310 C   0  0  0  0  0  3  0  0  0  0  0  0
  190.3390  175.8460  138.2360 C   0  0  0  0  0  3  0  0  0  0  0  0
  190.1750  177.7680  141.4840 C   0  0  0  0  0  3  0  0  0  0  0  0
  187.1590  178.4570  141.3620 C   0  0  0  0  0  0  0  0  0  0  0  0
  189.7200  177.3670  140.1530 C   0  0  0  0  0  0  0  0  0  0  0  0
  189.4390  178.2740  142.4750 C   0  0  0  0  0  0  0  0  0  0  0  0
  189.3250  177.7220  137.0060 C   0  0  0  0  0  0  0  0  0  0  0  0
  189.9010  176.4270  137.1180 C   0  0  0  0  0  0  0  0  0  0  0  0
  187.9720  178.3590  142.4200 C   0  0  0  0  0  3  0  0  0  0  0  0
  190.4030  176.3690  139.6070 C   0  0  0  0  0  3  0  0  0  0  0  0
  189.4320  177.5170  134.5940 C   0  0  0  0  0  3  0  0  0  0  0  0
  185.1630  178.4480  142.9220 C   0  0  0  0  0  2  0  0  0  0  0  0
  184.7910  178.8420  140.5770 C   0  0  0  0  0  3  0  0  0  0  0  0
  185.7440  178.5710  141.5960 N   0  0  0  0  0  0  0  0  0  0  0  0
  183.3520  178.6340  142.7520 S   0  0  0  0  0  0  0  0  0  0  0  0
  183.5450  178.9100  140.9960 C   0  0  0  0  0  3  0  0  0  0  0  0
  191.0390  179.5800  143.7220 O   0  0  0  0  0  1  0  0  0  0  0  0
  190.0840  178.6170  143.7110 N   0  0  0  0  0  0  0  0  0  0  0  0
  189.8820  177.8290  144.9210 C   0  0  0  0  0  2  0  0  0  0  0  0
  191.2750  177.1060  146.9470 N   0  0  0  0  0  0  0  0  0  0  0  0
  191.6270  175.8300  143.4800 O   0  0  0  0  0  1  0  0  0  0  0  0
  191.6890  176.1050  144.8410 C   0  0  0  0  0  0  0  0  0  0  0  0
  191.2300  177.3580  145.4810 C   0  0  1  0  0  3  0  0  0  0  0  0
  189.9380  176.8300  147.4940 C   0  0  0  0  0  1  0  0  0  0  0  0
  192.1540  175.9160  147.0800 C   0  0  2  0  0  3  0  0  0  0  0  0
  192.7630  174.0610  145.4440 O   0  0  0  0  0  1  0  0  0  0  0  0
  192.2070  175.3020  145.7330 C   0  0  0  0  0  0  0  0  0  0  0  0
  191.7000  174.9910  148.0320 O   0  0  0  0  0  1  0  0  0  0  0  0
  1  9  1  0  0  0  0
  2  4  1  0  0  0  0
  3 13  1  0  0  0  0
  4  1  2  0  0  0  0
  4 10  1  0  0  0  0
  5  3  2  0  0  0  0
  6 12  1  0  0  0  0
  7 15  1  0  0  0  0
  8 11  2  0  0  0  0
  9 19  1  0  0  0  0
  9 14  2  0  0  0  0
 10  8  1  0  0  0  0
 11 23  1  0  0  0  0
 12 13  1  0  0  0  0
 12  2  2  0  0  0  0
 13  7  2  0  0  0  0
 14 11  1  0  0  0  0
 15 10  2  0  0  0  0
 16  5  1  0  0  0  0
 16  6  2  0  0  0  0
 18 21  2  0  0  0  0
 18 19  1  0  0  0  0
 19 17  1  0  0  0  0
 20 17  1  0  0  0  0
 21 20  1  0  0  0  0
 23 22  1  0  0  0  0
 23 24  1  0  0  0  0
 25 30  1  0  0  0  0
 25 29  1  0  0  0  0
 26 27  1  0  0  0  0
 27 28  1  0  0  0  0
 27 32  2  0  0  0  0
 28 24  1  6  0  0  0
 28 25  1  0  0  0  0
 30 33  1  1  0  0  0
 31 32  1  0  0  0  0
 32 30  1  0  0  0  0
M  END
>  <MODEL>
1

>  <REMARK>
 VINA RESULT:      -8.3      0.000      0.000
  Name = 
  4 active torsions:
  status: ('A' for Active; 'I' for Inactive)
    1  A    between atoms: N_13  and  C_19
    2  A    between atoms: N_14  and  C_23
    3  A    between atoms: N_14  and  C_25
    4  A    between atoms: C_15  and  C_23
                            x       y       z     vdW  Elec       q    Type
                         _______ _______ _______ _____ _____    ______ ____

>  <TORSDO>
F 4

$$$$
=
 OpenBabel10222417553D

 33 37  0  0  1  0  0  0  0  0999 V2000
  188.1780  178.1650  139.9430 N   0  0  0  0  0  0  0  0  0  0  0  0
  189.1430  178.5970  142.0240 C   0  0  0  0  0  3  0  0  0  0  0  0
  189.1810  176.9250  145.3030 C   0  0  0  0  0  3  0  0  0  0  0  0
  187.9550  178.3230  141.2130 C   0  0  0  0  0  0  0  0  0  0  0  0
  190.4620  177.2190  145.6500 N   0  0  0  0  0  0  0  0  0  0  0  0
  190.7380  178.5250  143.6800 C   0  0  0  0  0  3  0  0  0  0  0  0
  187.3080  177.2130  143.9890 C   0  0  0  0  0  3  0  0  0  0  0  0
  185.4570  178.8690  141.1430 C   0  0  0  0  0  3  0  0  0  0  0  0
  187.2840  177.8500  138.8620 C   0  0  0  0  0  0  0  0  0  0  0  0
  186.6070  178.2410  141.7940 C   0  0  0  0  0  0  0  0  0  0  0  0
  185.2040  178.9440  139.8360 C   0  0  0  0  0  0  0  0  0  0  0  0
  189.4350  178.2210  143.2700 C   0  0  0  0  0  0  0  0  0  0  0  0
  188.6170  177.4340  144.1250 C   0  0  0  0  0  0  0  0  0  0  0  0
  186.0030  178.2360  138.8240 C   0  0  0  0  0  3  0  0  0  0  0  0
  186.3620  177.7390  142.9970 C   0  0  0  0  0  3  0  0  0  0  0  0
  191.2380  178.0190  144.8780 C   0  0  0  0  0  3  0  0  0  0  0  0
  188.9890  177.7350  136.9910 C   0  0  0  0  0  2  0  0  0  0  0  0
  187.3420  175.9870  137.1600 C   0  0  0  0  0  3  0  0  0  0  0  0
  187.8370  177.2050  137.7020 N   0  0  0  0  0  0  0  0  0  0  0  0
  189.3310  176.6210  135.5820 S   0  0  0  0  0  0  0  0  0  0  0  0
  187.9880  175.5580  136.0960 C   0  0  0  0  0  3  0  0  0  0  0  0
  184.1190  180.8320  138.7970 O   0  0  0  0  0  1  0  0  0  0  0  0
  184.0160  179.6190  139.3970 N   0  0  0  0  0  0  0  0  0  0  0  0
  182.6870  179.1340  139.7500 C   0  0  0  0  0  2  0  0  0  0  0  0
  181.6330  176.8500  140.2420 N   0  0  0  0  0  0  0  0  0  0  0  0
  182.4990  178.1850  136.8890 O   0  0  0  0  0  1  0  0  0  0  0  0
  182.0580  177.4690  137.9960 C   0  0  0  0  0  0  0  0  0  0  0  0
  182.5450  177.6520  139.3820 C   0  0  1  0  0  3  0  0  0  0  0  0
  180.6430  177.6960  140.9250 C   0  0  0  0  0  1  0  0  0  0  0  0
  180.9680  175.9220  139.2930 C   0  0  2  0  0  3  0  0  0  0  0  0
  180.5630  176.0600  136.7820 O   0  0  0  0  0  1  0  0  0  0  0  0
  181.1800  176.5020  137.9460 C   0  0  0  0  0  0  0  0  0  0  0  0
  179.6000  175.7480  139.5500 O   0  0  0  0  0  1  0  0  0  0  0  0
  1  4  1  0  0  0  0
  2 12  1  0  0  0  0
  3  5  1  0  0  0  0
  4 10  1  0  0  0  0
  4  2  2  0  0  0  0
  6 16  1  0  0  0  0
  7 13  1  0  0  0  0
  8 10  2  0  0  0  0
  9  1  2  0  0  0  0
 10 15  1  0  0  0  0
 11  8  1  0  0  0  0
 12  6  2  0  0  0  0
 12 13  1  0  0  0  0
 13  3  2  0  0  0  0
 14  9  1  0  0  0  0
 14 11  2  0  0  0  0
 15  7  2  0  0  0  0
 16  5  2  0  0  0  0
 17 19  1  0  0  0  0
 18 19  1  0  0  0  0
 19  9  1  0  0  0  0
 20 21  1  0  0  0  0
 20 17  1  0  0  0  0
 21 18  2  0  0  0  0
 22 23  1  0  0  0  0
 23 24  1  0  0  0  0
 23 11  1  0  0  0  0
 25 29  1  0  0  0  0
 26 27  1  0  0  0  0
 27 28  1  0  0  0  0
 28 24  1  1  0  0  0
 28 25  1  0  0  0  0
 30 33  1  1  0  0  0
 30 25  1  0  0  0  0
 31 32  1  0  0  0  0
 32 27  2  0  0  0  0
 32 30  1  0  0  0  0
M  END
>  <MODEL>
2

>  <REMARK>
 VINA RESULT:      -8.0      4.802      8.847
  Name = 
  4 active torsions:
  status: ('A' for Active; 'I' for Inactive)
    1  A    between atoms: N_13  and  C_19
    2  A    between atoms: N_14  and  C_23
    3  A    between atoms: N_14  and  C_25
    4  A    between atoms: C_15  and  C_23
                            x       y       z     vdW  Elec       q    Type
                         _______ _______ _______ _____ _____    ______ ____

>  <TORSDO>
F 4

$$$$
=
 OpenBabel10222417553D

 33 37  0  0  1  0  0  0  0  0999 V2000
  189.9120  175.6280  137.5590 N   0  0  0  0  0  0  0  0  0  0  0  0
  187.6450  175.3230  137.0940 C   0  0  0  0  0  3  0  0  0  0  0  0
  184.8960  177.4580  135.8970 C   0  0  0  0  0  3  0  0  0  0  0  0
  188.7050  176.0360  137.8100 C   0  0  0  0  0  0  0  0  0  0  0  0
  184.2580  176.5330  135.1330 N   0  0  0  0  0  0  0  0  0  0  0  0
  185.7830  174.8460  135.8300 C   0  0  0  0  0  3  0  0  0  0  0  0
  186.4330  178.0620  137.5070 C   0  0  0  0  0  3  0  0  0  0  0  0
  189.1100  177.2270  140.0370 C   0  0  0  0  0  3  0  0  0  0  0  0
  191.1840  176.1020  138.0330 C   0  0  0  0  0  0  0  0  0  0  0  0
  188.4210  177.1300  138.7510 C   0  0  0  0  0  0  0  0  0  0  0  0
  190.3880  176.9480  140.2960 C   0  0  0  0  0  0  0  0  0  0  0  0
  186.4880  175.7730  136.6050 C   0  0  0  0  0  0  0  0  0  0  0  0
  186.0070  177.1090  136.6760 C   0  0  0  0  0  0  0  0  0  0  0  0
  191.3700  176.6370  139.2450 C   0  0  0  0  0  3  0  0  0  0  0  0
  187.4340  178.0000  138.5790 C   0  0  0  0  0  3  0  0  0  0  0  0
  184.6640  175.2400  135.1010 C   0  0  0  0  0  3  0  0  0  0  0  0
  193.6070  175.4140  137.7610 C   0  0  0  0  0  2  0  0  0  0  0  0
  192.3470  175.9990  135.7950 C   0  0  0  0  0  3  0  0  0  0  0  0
  192.3380  175.8600  137.2100 N   0  0  0  0  0  0  0  0  0  0  0  0
  194.7890  175.2590  136.3740 S   0  0  0  0  0  0  0  0  0  0  0  0
  193.5020  175.7290  135.2250 C   0  0  0  0  0  3  0  0  0  0  0  0
  192.0540  177.7280  141.8570 O   0  0  0  0  0  1  0  0  0  0  0  0
  190.8720  177.0990  141.6390 N   0  0  0  0  0  0  0  0  0  0  0  0
  190.2300  176.4270  142.7630 C   0  0  0  0  0  2  0  0  0  0  0  0
  188.4720  177.7380  144.0890 N   0  0  0  0  0  0  0  0  0  0  0  0
  191.6820  176.4260  145.4100 O   0  0  0  0  0  1  0  0  0  0  0  0
  190.4300  176.9880  145.1900 C   0  0  0  0  0  0  0  0  0  0  0  0
  189.9130  177.4330  143.8760 C   0  0  1  0  0  3  0  0  0  0  0  0
  187.6060  176.6580  143.5930 C   0  0  0  0  0  1  0  0  0  0  0  0
  188.3490  177.8770  145.5620 C   0  0  2  0  0  3  0  0  0  0  0  0
  189.7600  176.9730  147.4790 O   0  0  0  0  0  1  0  0  0  0  0  0
  189.5580  177.2380  146.1300 C   0  0  0  0  0  0  0  0  0  0  0  0
  187.1850  177.2910  146.0820 O   0  0  0  0  0  1  0  0  0  0  0  0
  1  4  2  0  0  0  0
  1  9  1  0  0  0  0
  2  4  1  0  0  0  0
  3 13  1  0  0  0  0
  4 10  1  0  0  0  0
  5  3  2  0  0  0  0
  6 12  1  0  0  0  0
  7 15  1  0  0  0  0
  8 11  2  0  0  0  0
  9 14  2  0  0  0  0
 10  8  1  0  0  0  0
 11 23  1  0  0  0  0
 12 13  1  0  0  0  0
 12  2  2  0  0  0  0
 13  7  2  0  0  0  0
 14 11  1  0  0  0  0
 15 10  2  0  0  0  0
 16  5  1  0  0  0  0
 16  6  2  0  0  0  0
 18 19  1  0  0  0  0
 19 17  1  0  0  0  0
 19  9  1  0  0  0  0
 20 17  1  0  0  0  0
 21 18  2  0  0  0  0
 21 20  1  0  0  0  0
 23 22  1  0  0  0  0
 23 24  1  0  0  0  0
 25 30  1  0  0  0  0
 27 26  1  0  0  0  0
 27 32  2  0  0  0  0
 28 24  1  6  0  0  0
 28 25  1  0  0  0  0
 28 27  1  0  0  0  0
 29 25  1  0  0  0  0
 30 33  1  1  0  0  0
 30 32  1  0  0  0  0
 32 31  1  0  0  0  0
M  END
>  <MODEL>
3

>  <REMARK>
 VINA RESULT:      -7.9      3.670      5.585
  Name = 
  4 active torsions:
  status: ('A' for Active; 'I' for Inactive)
    1  A    between atoms: N_13  and  C_19
    2  A    between atoms: N_14  and  C_23
    3  A    between atoms: N_14  and  C_25
    4  A    between atoms: C_15  and  C_23
                            x       y       z     vdW  Elec       q    Type
                         _______ _______ _______ _____ _____    ______ ____

>  <TORSDO>
F 4

$$$$
=
 OpenBabel10222417553D

 33 37  0  0  1  0  0  0  0  0999 V2000
  188.5610  178.2390  139.9560 N   0  0  0  0  0  0  0  0  0  0  0  0
  189.5300  178.6880  142.0320 C   0  0  0  0  0  3  0  0  0  0  0  0
  189.8370  176.9000  145.2330 C   0  0  0  0  0  3  0  0  0  0  0  0
  188.3570  178.3210  141.2360 C   0  0  0  0  0  0  0  0  0  0  0  0
  191.0880  177.3160  145.5630 N   0  0  0  0  0  0  0  0  0  0  0  0
  191.1680  178.7230  143.6460 C   0  0  0  0  0  3  0  0  0  0  0  0
  187.9080  177.0350  143.9760 C   0  0  0  0  0  3  0  0  0  0  0  0
  185.8140  178.5950  141.2470 C   0  0  0  0  0  3  0  0  0  0  0  0
  187.6770  177.8730  138.8830 C   0  0  0  0  0  0  0  0  0  0  0  0
  187.0420  178.0690  141.8430 C   0  0  0  0  0  0  0  0  0  0  0  0
  185.5190  178.6940  139.9500 C   0  0  0  0  0  0  0  0  0  0  0  0
  189.8950  178.2960  143.2530 C   0  0  0  0  0  0  0  0  0  0  0  0
  189.1890  177.3910  144.0920 C   0  0  0  0  0  0  0  0  0  0  0  0
  186.3610  178.1180  138.8910 C   0  0  0  0  0  3  0  0  0  0  0  0
  186.8850  177.4950  143.0290 C   0  0  0  0  0  3  0  0  0  0  0  0
  191.7520  178.2270  144.8100 C   0  0  0  0  0  3  0  0  0  0  0  0
  188.1330  175.9400  137.3090 C   0  0  0  0  0  2  0  0  0  0  0  0
  188.9920  178.1150  136.7420 C   0  0  0  0  0  3  0  0  0  0  0  0
  188.2640  177.3380  137.6840 N   0  0  0  0  0  0  0  0  0  0  0  0
  189.0440  175.6980  135.7430 S   0  0  0  0  0  0  0  0  0  0  0  0
  189.4460  177.4400  135.7080 C   0  0  0  0  0  3  0  0  0  0  0  0
  184.2100  180.4920  139.0150 O   0  0  0  0  0  1  0  0  0  0  0  0
  184.2540  179.2540  139.5680 N   0  0  0  0  0  0  0  0  0  0  0  0
  182.9940  178.6150  139.9320 C   0  0  0  0  0  2  0  0  0  0  0  0
  180.7960  179.7000  140.6770 N   0  0  0  0  0  0  0  0  0  0  0  0
  183.4350  178.3460  142.9070 O   0  0  0  0  0  1  0  0  0  0  0  0
  182.3000  178.8890  142.3170 C   0  0  0  0  0  0  0  0  0  0  0  0
  182.2390  179.4700  140.9570 C   0  0  1  0  0  3  0  0  0  0  0  0
  180.2370  178.6590  139.8020 C   0  0  0  0  0  1  0  0  0  0  0  0
  180.1600  179.6580  142.0190 C   0  0  2  0  0  3  0  0  0  0  0  0
  180.8810  178.5790  144.2100 O   0  0  0  0  0  1  0  0  0  0  0  0
  181.1400  178.9960  142.9100 C   0  0  0  0  0  0  0  0  0  0  0  0
  178.9340  178.9770  142.0330 O   0  0  0  0  0  1  0  0  0  0  0  0
  1  4  1  0  0  0  0
  2 12  1  0  0  0  0
  3  5  1  0  0  0  0
  4 10  1  0  0  0  0
  4  2  2  0  0  0  0
  6 16  1  0  0  0  0
  7 13  1  0  0  0  0
  8 10  2  0  0  0  0
  9 14  1  0  0  0  0
  9  1  2  0  0  0  0
 10 15  1  0  0  0  0
 11  8  1  0  0  0  0
 12  6  2  0  0  0  0
 12 13  1  0  0  0  0
 13  3  2  0  0  0  0
 14 11  2  0  0  0  0
 15  7  2  0  0  0  0
 16  5  2  0  0  0  0
 17 19  1  0  0  0  0
 18 19  1  0  0  0  0
 19  9  1  0  0  0  0
 20 17  1  0  0  0  0
 21 20  1  0  0  0  0
 21 18  2  0  0  0  0
 22 23  1  0  0  0  0
 23 24  1  0  0  0  0
 23 11  1  0  0  0  0
 25 28  1  0  0  0  0
 25 30  1  0  0  0  0
 27 26  1  0  0  0  0
 27 32  2  0  0  0  0
 28 24  1  6  0  0  0
 28 27  1  0  0  0  0
 29 25  1  0  0  0  0
 30 33  1  6  0  0  0
 30 32  1  0  0  0  0
 32 31  1  0  0  0  0
M  END
>  <MODEL>
4

>  <REMARK>
 VINA RESULT:      -7.9      4.232      8.506
  Name = 
  4 active torsions:
  status: ('A' for Active; 'I' for Inactive)
    1  A    between atoms: N_13  and  C_19
    2  A    between atoms: N_14  and  C_23
    3  A    between atoms: N_14  and  C_25
    4  A    between atoms: C_15  and  C_23
                            x       y       z     vdW  Elec       q    Type
                         _______ _______ _______ _____ _____    ______ ____

>  <TORSDO>
F 4

$$$$
=
 OpenBabel10222417553D

 33 37  0  0  1  0  0  0  0  0999 V2000
  187.9850  178.4900  140.1580 N   0  0  0  0  0  0  0  0  0  0  0  0
  189.1540  178.8060  142.1540 C   0  0  0  0  0  3  0  0  0  0  0  0
  189.8710  176.7680  145.1330 C   0  0  0  0  0  3  0  0  0  0  0  0
  187.9170  178.4530  141.4550 C   0  0  0  0  0  0  0  0  0  0  0  0
  191.1330  177.2130  145.3680 N   0  0  0  0  0  0  0  0  0  0  0  0
  190.9540  178.7790  143.5860 C   0  0  0  0  0  3  0  0  0  0  0  0
  187.8140  176.9200  144.1010 C   0  0  0  0  0  3  0  0  0  0  0  0
  185.3810  178.6060  141.7540 C   0  0  0  0  0  3  0  0  0  0  0  0
  187.0050  178.1750  139.1550 C   0  0  0  0  0  0  0  0  0  0  0  0
  186.6850  178.0900  142.1710 C   0  0  0  0  0  0  0  0  0  0  0  0
  184.9450  178.8010  140.5090 C   0  0  0  0  0  0  0  0  0  0  0  0
  189.6630  178.3290  143.2910 C   0  0  0  0  0  0  0  0  0  0  0  0
  189.0860  177.3240  144.1140 C   0  0  0  0  0  0  0  0  0  0  0  0
  185.6900  178.3570  139.3210 C   0  0  0  0  0  3  0  0  0  0  0  0
  186.6780  177.4100  143.3100 C   0  0  0  0  0  3  0  0  0  0  0  0
  191.6780  178.2140  144.6340 C   0  0  0  0  0  3  0  0  0  0  0  0
  188.4760  176.7290  137.6830 C   0  0  0  0  0  2  0  0  0  0  0  0
  187.0070  178.3210  136.6340 C   0  0  0  0  0  3  0  0  0  0  0  0
  187.4790  177.7720  137.8580 N   0  0  0  0  0  0  0  0  0  0  0  0
  188.7960  176.5630  135.8910 S   0  0  0  0  0  0  0  0  0  0  0  0
  187.5650  177.8160  135.5550 C   0  0  0  0  0  3  0  0  0  0  0  0
  182.6400  179.0140  141.1870 O   0  0  0  0  0  1  0  0  0  0  0  0
  183.6260  179.3320  140.3120 N   0  0  0  0  0  0  0  0  0  0  0  0
  183.2650  180.0460  139.0930 C   0  0  0  0  0  2  0  0  0  0  0  0
  180.8910  180.7080  138.3920 N   0  0  0  0  0  0  0  0  0  0  0  0
  182.8630  177.8730  137.0360 O   0  0  0  0  0  1  0  0  0  0  0  0
  181.9350  178.8620  137.3390 C   0  0  0  0  0  0  0  0  0  0  0  0
  181.8740  179.6140  138.6130 C   0  0  1  0  0  3  0  0  0  0  0  0
  181.5540  181.9970  138.1500 C   0  0  0  0  0  1  0  0  0  0  0  0
  180.1320  180.2720  137.1920 C   0  0  2  0  0  3  0  0  0  0  0  0
  180.7230  178.6820  135.2930 O   0  0  0  0  0  1  0  0  0  0  0  0
  180.9620  179.2280  136.5480 C   0  0  0  0  0  0  0  0  0  0  0  0
  179.8590  181.3160  136.2960 O   0  0  0  0  0  1  0  0  0  0  0  0
  1  4  1  0  0  0  0
  2 12  1  0  0  0  0
  3  5  1  0  0  0  0
  4  2  2  0  0  0  0
  4 10  1  0  0  0  0
  6 16  1  0  0  0  0
  7 13  1  0  0  0  0
  8 10  2  0  0  0  0
  9 14  1  0  0  0  0
  9  1  2  0  0  0  0
 10 15  1  0  0  0  0
 11  8  1  0  0  0  0
 12  6  2  0  0  0  0
 12 13  1  0  0  0  0
 13  3  2  0  0  0  0
 14 11  2  0  0  0  0
 15  7  2  0  0  0  0
 16  5  2  0  0  0  0
 17 19  1  0  0  0  0
 18 19  1  0  0  0  0
 19  9  1  0  0  0  0
 20 17  1  0  0  0  0
 21 20  1  0  0  0  0
 21 18  2  0  0  0  0
 23 11  1  0  0  0  0
 23 22  1  0  0  0  0
 24 23  1  0  0  0  0
 25 28  1  0  0  0  0
 26 27  1  0  0  0  0
 27 28  1  0  0  0  0
 28 24  1  6  0  0  0
 29 25  1  0  0  0  0
 30 33  1  6  0  0  0
 30 25  1  0  0  0  0
 31 32  1  0  0  0  0
 32 30  1  0  0  0  0
 32 27  2  0  0  0  0
M  END
>  <MODEL>
5

>  <REMARK>
 VINA RESULT:      -7.6      5.014      9.429
  Name = 
  4 active torsions:
  status: ('A' for Active; 'I' for Inactive)
    1  A    between atoms: N_13  and  C_19
    2  A    between atoms: N_14  and  C_23
    3  A    between atoms: N_14  and  C_25
    4  A    between atoms: C_15  and  C_23
                            x       y       z     vdW  Elec       q    Type
                         _______ _______ _______ _____ _____    ______ ____

>  <TORSDO>
F 4

$$$$
=
 OpenBabel10222417553D

 33 37  0  0  1  0  0  0  0  0999 V2000
  184.9260  179.3070  140.6450 N   0  0  0  0  0  0  0  0  0  0  0  0
  183.3100  179.9640  139.0940 C   0  0  0  0  0  3  0  0  0  0  0  0
  180.8170  178.2420  137.0040 C   0  0  0  0  0  3  0  0  0  0  0  0
  184.4850  179.1590  139.4320 C   0  0  0  0  0  0  0  0  0  0  0  0
  179.8300  179.1710  137.0830 N   0  0  0  0  0  0  0  0  0  0  0  0
  181.2410  180.6220  138.3340 C   0  0  0  0  0  3  0  0  0  0  0  0
  183.0020  177.5590  137.2870 C   0  0  0  0  0  3  0  0  0  0  0  0
  186.5780  178.1820  138.3330 C   0  0  0  0  0  3  0  0  0  0  0  0
  186.0120  178.6680  141.3370 C   0  0  0  0  0  0  0  0  0  0  0  0
  185.1230  178.2530  138.4660 C   0  0  0  0  0  0  0  0  0  0  0  0
  187.4860  178.2520  139.3070 C   0  0  0  0  0  0  0  0  0  0  0  0
  182.2730  179.6790  138.3040 C   0  0  0  0  0  0  0  0  0  0  0  0
  182.0730  178.4710  137.5820 C   0  0  0  0  0  0  0  0  0  0  0  0
  187.1320  178.2530  140.7340 C   0  0  0  0  0  3  0  0  0  0  0  0
  184.4450  177.5630  137.5570 C   0  0  0  0  0  3  0  0  0  0  0  0
  180.0220  180.3560  137.7140 C   0  0  0  0  0  3  0  0  0  0  0  0
  184.9360  179.3120  143.5390 C   0  0  0  0  0  2  0  0  0  0  0  0
  186.8160  177.8090  143.5700 C   0  0  0  0  0  3  0  0  0  0  0  0
  185.9430  178.5970  142.7720 N   0  0  0  0  0  0  0  0  0  0  0  0
  185.2330  178.9580  145.3080 S   0  0  0  0  0  0  0  0  0  0  0  0
  186.5860  177.8770  144.8640 C   0  0  0  0  0  3  0  0  0  0  0  0
  189.4290  179.1340  138.1800 O   0  0  0  0  0  1  0  0  0  0  0  0
  188.8780  178.1730  138.9630 N   0  0  0  0  0  0  0  0  0  0  0  0
  189.6740  176.9890  139.2670 C   0  0  0  0  0  2  0  0  0  0  0  0
  192.1160  177.2100  138.5220 N   0  0  0  0  0  0  0  0  0  0  0  0
  189.7820  174.4790  137.5940 O   0  0  0  0  0  1  0  0  0  0  0  0
  190.8510  175.3410  137.8040 C   0  0  0  0  0  0  0  0  0  0  0  0
  190.7360  176.7670  138.1840 C   0  0  1  0  0  3  0  0  0  0  0  0
  192.3270  177.2740  139.9760 C   0  0  0  0  0  1  0  0  0  0  0  0
  192.9860  176.1750  137.9080 C   0  0  2  0  0  3  0  0  0  0  0  0
  192.5450  173.7530  137.2550 O   0  0  0  0  0  1  0  0  0  0  0  0
  192.1060  175.0120  137.6480 C   0  0  0  0  0  0  0  0  0  0  0  0
  194.0710  175.8080  138.7170 O   0  0  0  0  0  1  0  0  0  0  0  0
  1  9  1  0  0  0  0
  2  4  1  0  0  0  0
  3  5  2  0  0  0  0
  3 13  1  0  0  0  0
  4  1  2  0  0  0  0
  5 16  1  0  0  0  0
  7 15  1  0  0  0  0
  7 13  2  0  0  0  0
  8 10  1  0  0  0  0
  8 11  2  0  0  0  0
  9 19  1  0  0  0  0
 10  4  1  0  0  0  0
 11 14  1  0  0  0  0
 12  6  1  0  0  0  0
 12  2  2  0  0  0  0
 13 12  1  0  0  0  0
 14  9  2  0  0  0  0
 15 10  2  0  0  0  0
 16  6  2  0  0  0  0
 17 20  1  0  0  0  0
 18 21  2  0  0  0  0
 19 17  1  0  0  0  0
 19 18  1  0  0  0  0
 21 20  1  0  0  0  0
 22 23  1  0  0  0  0
 23 24  1  0  0  0  0
 23 11  1  0  0  0  0
 25 29  1  0  0  0  0
 26 27  1  0  0  0  0
 27 28  1  0  0  0  0
 28 25  1  0  0  0  0
 28 24  1  1  0  0  0
 30 25  1  0  0  0  0
 30 33  1  1  0  0  0
 31 32  1  0  0  0  0
 32 27  2  0  0  0  0
 32 30  1  0  0  0  0
M  END
>  <MODEL>
6

>  <REMARK>
 VINA RESULT:      -7.5      4.000      6.675
  Name = 
  4 active torsions:
  status: ('A' for Active; 'I' for Inactive)
    1  A    between atoms: N_13  and  C_19
    2  A    between atoms: N_14  and  C_23
    3  A    between atoms: N_14  and  C_25
    4  A    between atoms: C_15  and  C_23
                            x       y       z     vdW  Elec       q    Type
                         _______ _______ _______ _____ _____    ______ ____

>  <TORSDO>
F 4

$$$$
=
 OpenBabel10222417553D

 33 37  0  0  1  0  0  0  0  0999 V2000
  184.0250  179.4090  140.6970 N   0  0  0  0  0  0  0  0  0  0  0  0
  182.9080  179.9430  138.7190 C   0  0  0  0  0  3  0  0  0  0  0  0
  181.1350  178.0500  136.1070 C   0  0  0  0  0  3  0  0  0  0  0  0
  183.9490  179.1890  139.4200 C   0  0  0  0  0  0  0  0  0  0  0  0
  180.1530  178.9540  135.8520 N   0  0  0  0  0  0  0  0  0  0  0  0
  181.1300  180.5030  137.3700 C   0  0  0  0  0  3  0  0  0  0  0  0
  183.1590  177.4450  137.0330 C   0  0  0  0  0  3  0  0  0  0  0  0
  186.2810  178.2200  139.0130 C   0  0  0  0  0  3  0  0  0  0  0  0
  184.8780  178.8350  141.7030 C   0  0  0  0  0  0  0  0  0  0  0  0
  184.8470  178.2550  138.7240 C   0  0  0  0  0  0  0  0  0  0  0  0
  186.8740  178.3630  140.1990 C   0  0  0  0  0  0  0  0  0  0  0  0
  182.1420  179.5900  137.6850 C   0  0  0  0  0  0  0  0  0  0  0  0
  182.1720  178.3430  137.0030 C   0  0  0  0  0  0  0  0  0  0  0  0
  186.1290  178.4240  141.4650 C   0  0  0  0  0  3  0  0  0  0  0  0
  184.4650  177.5030  137.7010 C   0  0  0  0  0  3  0  0  0  0  0  0
  180.1420  180.1730  136.4450 C   0  0  0  0  0  3  0  0  0  0  0  0
  185.3000  178.6850  144.1960 C   0  0  0  0  0  2  0  0  0  0  0  0
  183.0420  179.0030  143.4270 C   0  0  0  0  0  3  0  0  0  0  0  0
  184.4050  178.8320  143.0610 N   0  0  0  0  0  0  0  0  0  0  0  0
  184.2800  178.7130  145.7130 S   0  0  0  0  0  0  0  0  0  0  0  0
  182.8150  178.9730  144.7230 C   0  0  0  0  0  3  0  0  0  0  0  0
  189.0470  178.9750  139.3470 O   0  0  0  0  0  1  0  0  0  0  0  0
  188.3070  178.3070  140.2680 N   0  0  0  0  0  0  0  0  0  0  0  0
  188.9930  177.3990  141.1790 C   0  0  0  0  0  2  0  0  0  0  0  0
  188.5500  177.7900  143.6730 N   0  0  0  0  0  0  0  0  0  0  0  0
  191.8590  177.8820  141.9960 O   0  0  0  0  0  1  0  0  0  0  0  0
  190.7750  177.8780  142.8650 C   0  0  0  0  0  0  0  0  0  0  0  0
  189.3680  178.1270  142.4760 C   0  0  1  0  0  3  0  0  0  0  0  0
  187.9120  176.4720  143.5450 C   0  0  0  0  0  1  0  0  0  0  0  0
  189.5290  177.7960  144.7900 C   0  0  2  0  0  3  0  0  0  0  0  0
  192.0560  177.4770  144.8370 O   0  0  0  0  0  1  0  0  0  0  0  0
  190.8640  177.6960  144.1560 C   0  0  0  0  0  0  0  0  0  0  0  0
  189.3340  176.7530  145.7070 O   0  0  0  0  0  1  0  0  0  0  0  0
  1  9  1  0  0  0  0
  2  4  1  0  0  0  0
  3 13  1  0  0  0  0
  4  1  2  0  0  0  0
  5  3  2  0  0  0  0
  5 16  1  0  0  0  0
  6 12  1  0  0  0  0
  7 15  1  0  0  0  0
  8 11  2  0  0  0  0
  9 19  1  0  0  0  0
 10  8  1  0  0  0  0
 10  4  1  0  0  0  0
 11 23  1  0  0  0  0
 11 14  1  0  0  0  0
 12  2  2  0  0  0  0
 13  7  2  0  0  0  0
 13 12  1  0  0  0  0
 14  9  2  0  0  0  0
 15 10  2  0  0  0  0
 16  6  2  0  0  0  0
 17 20  1  0  0  0  0
 18 21  2  0  0  0  0
 19 18  1  0  0  0  0
 19 17  1  0  0  0  0
 21 20  1  0  0  0  0
 22 23  1  0  0  0  0
 23 24  1  0  0  0  0
 25 30  1  0  0  0  0
 26 27  1  0  0  0  0
 27 32  2  0  0  0  0
 28 24  1  6  0  0  0
 28 27  1  0  0  0  0
 28 25  1  0  0  0  0
 29 25  1  0  0  0  0
 30 33  1  1  0  0  0
 32 30  1  0  0  0  0
 32 31  1  0  0  0  0
M  END
>  <MODEL>
7

>  <REMARK>
 VINA RESULT:      -7.5      3.134      5.314
  Name = 
  4 active torsions:
  status: ('A' for Active; 'I' for Inactive)
    1  A    between atoms: N_13  and  C_19
    2  A    between atoms: N_14  and  C_23
    3  A    between atoms: N_14  and  C_25
    4  A    between atoms: C_15  and  C_23
                            x       y       z     vdW  Elec       q    Type
                         _______ _______ _______ _____ _____    ______ ____

>  <TORSDO>
F 4

$$$$
=
 OpenBabel10222417553D

 33 37  0  0  1  0  0  0  0  0999 V2000
  188.9770  177.1270  140.7200 N   0  0  0  0  0  0  0  0  0  0  0  0
  188.6580  176.6860  142.9900 C   0  0  0  0  0  3  0  0  0  0  0  0
  188.9210  178.6250  146.1070 C   0  0  0  0  0  3  0  0  0  0  0  0
  189.5150  177.1600  141.9010 C   0  0  0  0  0  0  0  0  0  0  0  0
  187.8780  178.0610  146.7700 N   0  0  0  0  0  0  0  0  0  0  0  0
  187.5190  176.5320  144.9830 C   0  0  0  0  0  3  0  0  0  0  0  0
  190.4560  178.6770  144.3870 C   0  0  0  0  0  3  0  0  0  0  0  0
  191.9850  177.2460  141.2430 C   0  0  0  0  0  3  0  0  0  0  0  0
  189.4860  177.5400  139.4410 C   0  0  0  0  0  0  0  0  0  0  0  0
  190.8890  177.6330  142.1300 C   0  0  0  0  0  0  0  0  0  0  0  0
  191.9460  177.1020  139.9180 C   0  0  0  0  0  0  0  0  0  0  0  0
  188.5660  177.1050  144.2540 C   0  0  0  0  0  0  0  0  0  0  0  0
  189.3190  178.1540  144.8490 C   0  0  0  0  0  0  0  0  0  0  0  0
  190.7800  177.4820  139.1050 C   0  0  0  0  0  3  0  0  0  0  0  0
  191.2570  178.3020  143.2150 C   0  0  0  0  0  3  0  0  0  0  0  0
  187.1880  177.0180  146.2450 C   0  0  0  0  0  3  0  0  0  0  0  0
  188.9250  178.1780  137.0530 C   0  0  0  0  0  2  0  0  0  0  0  0
  187.1330  178.0050  138.6510 C   0  0  0  0  0  3  0  0  0  0  0  0
  188.5340  177.9060  138.4260 N   0  0  0  0  0  0  0  0  0  0  0  0
  187.4140  178.6220  136.1240 S   0  0  0  0  0  0  0  0  0  0  0  0
  186.4320  178.3500  137.5930 C   0  0  0  0  0  3  0  0  0  0  0  0
  194.3380  176.7940  139.8560 O   0  0  0  0  0  1  0  0  0  0  0  0
  193.1390  176.7000  139.2280 N   0  0  0  0  0  0  0  0  0  0  0  0
  193.1270  176.3760  137.8060 C   0  0  0  0  0  2  0  0  0  0  0  0
  192.1850  174.2200  136.7910 N   0  0  0  0  0  0  0  0  0  0  0  0
  195.7750  175.0300  137.2670 O   0  0  0  0  0  1  0  0  0  0  0  0
  194.5320  174.4940  136.9520 C   0  0  0  0  0  0  0  0  0  0  0  0
  193.2540  174.8610  137.6030 C   0  0  1  0  0  3  0  0  0  0  0  0
  191.5230  175.1840  135.9000 C   0  0  0  0  0  1  0  0  0  0  0  0
  192.9040  173.1840  136.0050 C   0  0  2  0  0  3  0  0  0  0  0  0
  195.3430  172.9700  135.3060 O   0  0  0  0  0  1  0  0  0  0  0  0
  194.3360  173.5570  136.0620 C   0  0  0  0  0  0  0  0  0  0  0  0
  192.4660  173.0900  134.6760 O   0  0  0  0  0  1  0  0  0  0  0  0
  1  4  1  0  0  0  0
  2 12  1  0  0  0  0
  3  5  1  0  0  0  0
  4 10  1  0  0  0  0
  4  2  2  0  0  0  0
  6 16  1  0  0  0  0
  7 13  1  0  0  0  0
  8 10  2  0  0  0  0
  9  1  2  0  0  0  0
 10 15  1  0  0  0  0
 11  8  1  0  0  0  0
 12 13  1  0  0  0  0
 12  6  2  0  0  0  0
 13  3  2  0  0  0  0
 14  9  1  0  0  0  0
 14 11  2  0  0  0  0
 15  7  2  0  0  0  0
 16  5  2  0  0  0  0
 17 19  1  0  0  0  0
 19 18  1  0  0  0  0
 19  9  1  0  0  0  0
 20 17  1  0  0  0  0
 20 21  1  0  0  0  0
 21 18  2  0  0  0  0
 23 22  1  0  0  0  0
 23 11  1  0  0  0  0
 24 23  1  0  0  0  0
 25 28  1  0  0  0  0
 27 26  1  0  0  0  0
 27 28  1  0  0  0  0
 28 24  1  6  0  0  0
 29 25  1  0  0  0  0
 30 33  1  6  0  0  0
 30 32  1  0  0  0  0
 30 25  1  0  0  0  0
 31 32  1  0  0  0  0
 32 27  2  0  0  0  0
M  END
>  <MODEL>
8

>  <REMARK>
 VINA RESULT:      -7.4      3.918      7.857
  Name = 
  4 active torsions:
  status: ('A' for Active; 'I' for Inactive)
    1  A    between atoms: N_13  and  C_19
    2  A    between atoms: N_14  and  C_23
    3  A    between atoms: N_14  and  C_25
    4  A    between atoms: C_15  and  C_23
                            x       y       z     vdW  Elec       q    Type
                         _______ _______ _______ _____ _____    ______ ____

>  <TORSDO>
F 4

$$$$
=
 OpenBabel10222417553D

 33 37  0  0  1  0  0  0  0  0999 V2000
  184.7830  177.8900  138.4540 N   0  0  0  0  0  0  0  0  0  0  0  0
  182.7540  177.6270  137.3290 C   0  0  0  0  0  3  0  0  0  0  0  0
  180.2980  179.8830  135.7720 C   0  0  0  0  0  3  0  0  0  0  0  0
  183.5280  178.2240  138.4190 C   0  0  0  0  0  0  0  0  0  0  0  0
  179.9560  179.0940  134.7200 N   0  0  0  0  0  0  0  0  0  0  0  0
  181.3450  177.3410  135.5340 C   0  0  0  0  0  3  0  0  0  0  0  0
  181.2930  180.2270  137.8240 C   0  0  0  0  0  3  0  0  0  0  0  0
  183.2300  179.0160  140.8330 C   0  0  0  0  0  3  0  0  0  0  0  0
  185.8420  178.2990  139.3350 C   0  0  0  0  0  0  0  0  0  0  0  0
  182.9250  179.1310  139.4070 C   0  0  0  0  0  0  0  0  0  0  0  0
  184.4050  178.7210  141.3910 C   0  0  0  0  0  0  0  0  0  0  0  0
  181.7470  178.1320  136.6150 C   0  0  0  0  0  0  0  0  0  0  0  0
  181.1760  179.4250  136.7640 C   0  0  0  0  0  0  0  0  0  0  0  0
  185.6540  178.6180  140.6210 C   0  0  0  0  0  3  0  0  0  0  0  0
  181.9660  179.9990  139.1090 C   0  0  0  0  0  3  0  0  0  0  0  0
  180.4420  177.8340  134.5940 C   0  0  0  0  0  3  0  0  0  0  0  0
  187.5020  178.2590  137.4210 C   0  0  0  0  0  2  0  0  0  0  0  0
  188.3390  178.1540  139.6750 C   0  0  0  0  0  3  0  0  0  0  0  0
  187.1910  178.2280  138.8410 N   0  0  0  0  0  0  0  0  0  0  0  0
  189.3170  178.1220  137.2490 S   0  0  0  0  0  0  0  0  0  0  0  0
  189.4840  178.1000  139.0290 C   0  0  0  0  0  3  0  0  0  0  0  0
  183.3650  178.4550  143.5520 O   0  0  0  0  0  1  0  0  0  0  0  0
  184.4930  178.6450  142.8220 N   0  0  0  0  0  0  0  0  0  0  0  0
  185.7290  178.9590  143.5290 C   0  0  0  0  0  2  0  0  0  0  0  0
  187.2920  177.0660  144.2610 N   0  0  0  0  0  0  0  0  0  0  0  0
  185.3980  179.3340  146.5060 O   0  0  0  0  0  1  0  0  0  0  0  0
  186.2250  178.3880  145.9100 C   0  0  0  0  0  0  0  0  0  0  0  0
  186.0610  177.8550  144.5390 C   0  0  1  0  0  3  0  0  0  0  0  0
  188.2350  177.8060  143.4100 C   0  0  0  0  0  1  0  0  0  0  0  0
  187.8740  176.8240  145.6060 C   0  0  2  0  0  3  0  0  0  0  0  0
  187.6240  178.0660  147.8150 O   0  0  0  0  0  1  0  0  0  0  0  0
  187.2340  177.8110  146.5060 C   0  0  0  0  0  0  0  0  0  0  0  0
  189.2710  176.9510  145.6390 O   0  0  0  0  0  1  0  0  0  0  0  0
  1  9  1  0  0  0  0
  2  4  1  0  0  0  0
  3 13  1  0  0  0  0
  4  1  2  0  0  0  0
  4 10  1  0  0  0  0
  5  3  2  0  0  0  0
  6 12  1  0  0  0  0
  7 15  1  0  0  0  0
  8 11  2  0  0  0  0
  9 14  2  0  0  0  0
 10  8  1  0  0  0  0
 11 23  1  0  0  0  0
 12 13  1  0  0  0  0
 12  2  2  0  0  0  0
 13  7  2  0  0  0  0
 14 11  1  0  0  0  0
 15 10  2  0  0  0  0
 16  5  1  0  0  0  0
 16  6  2  0  0  0  0
 17 19  1  0  0  0  0
 19  9  1  0  0  0  0
 19 18  1  0  0  0  0
 20 17  1  0  0  0  0
 20 21  1  0  0  0  0
 21 18  2  0  0  0  0
 23 24  1  0  0  0  0
 23 22  1  0  0  0  0
 25 28  1  0  0  0  0
 25 30  1  0  0  0  0
 27 26  1  0  0  0  0
 27 32  2  0  0  0  0
 28 24  1  6  0  0  0
 28 27  1  0  0  0  0
 29 25  1  0  0  0  0
 30 33  1  6  0  0  0
 30 32  1  0  0  0  0
 32 31  1  0  0  0  0
M  END
>  <MODEL>
9

>  <REMARK>
 VINA RESULT:      -7.4      4.169      6.682
  Name = 
  4 active torsions:
  status: ('A' for Active; 'I' for Inactive)
    1  A    between atoms: N_13  and  C_19
    2  A    between atoms: N_14  and  C_23
    3  A    between atoms: N_14  and  C_25
    4  A    between atoms: C_15  and  C_23
                            x       y       z     vdW  Elec       q    Type
                         _______ _______ _______ _____ _____    ______ ____

>  <TORSDO>
F 4

$$$$
