=
 OpenBabel10222420393D

 42 46  0  0  1  0  0  0  0  0999 V2000
  191.4020  175.8030  136.4750 C   0  0  0  0  0  0  0  0  0  0  0  0
  191.6320  176.5300  137.5370 N   0  0  0  0  0  0  0  0  0  0  0  0
  188.5230  173.3660  136.7490 C   0  0  0  0  0  3  0  0  0  0  0  0
  189.6570  174.0160  137.0210 C   0  0  0  0  0  3  0  0  0  0  0  0
  187.9880  175.0770  135.0630 N   0  0  0  0  0  2  0  0  0  0  0  0
  187.6960  173.7220  135.5420 C   0  0  2  0  0  3  0  0  0  0  0  0
  190.1010  175.1610  136.1980 C   0  0  0  0  0  0  0  0  0  0  0  0
  189.2590  175.6890  135.3020 C   0  0  0  0  0  3  0  0  0  0  0  0
  185.8340  174.0200  137.2050 C   0  0  0  0  0  2  0  0  0  0  0  0
  184.6600  173.2850  137.6280 N   0  0  0  0  0  2  0  0  0  0  0  0
  183.4820  171.3490  137.0730 O   0  0  0  0  0  0  0  0  0  0  0  0
  185.6840  171.7800  135.6260 S   0  0  0  0  0  0  0  0  0  0  0  0
  184.4760  172.0980  136.8860 C   0  0  0  0  0  0  0  0  0  0  0  0
  186.2070  173.5270  135.8060 C   0  0  2  0  0  3  0  0  0  0  0  0
  188.7920  178.3720  139.1710 C   0  0  0  0  0  3  0  0  0  0  0  0
  190.0250  177.1360  140.8480 C   0  0  0  0  0  3  0  0  0  0  0  0
  189.6540  177.8880  138.1840 C   0  0  0  0  0  3  0  0  0  0  0  0
  190.8850  176.6490  139.8580 C   0  0  0  0  0  3  0  0  0  0  0  0
  188.9790  177.9980  140.5050 C   0  0  0  0  0  0  0  0  0  0  0  0
  190.6930  177.0030  138.5160 C   0  0  0  0  0  0  0  0  0  0  0  0
  188.0340  178.4780  141.5490 C   0  0  0  0  0  2  0  0  0  0  0  0
  187.6650  177.4050  142.3790 O   0  0  0  0  0  0  0  0  0  0  0  0
  187.9880  177.8080  148.0620 C   0  0  0  0  0  1  0  0  0  0  0  0
  187.7880  177.8030  143.7290 C   0  0  1  0  0  3  0  0  0  0  0  0
  187.8240  177.3570  146.6270 C   0  0  2  0  0  3  0  0  0  0  0  0
  189.1120  177.6260  145.8620 C   0  0  0  0  0  2  0  0  0  0  0  0
  186.4650  177.6960  144.5340 C   0  0  1  0  0  3  0  0  0  0  0  0
  188.9770  177.1290  144.4290 C   0  0  0  0  0  2  0  0  0  0  0  0
  186.6770  178.1290  145.9850 C   0  0  0  0  0  2  0  0  0  0  0  0
  184.7070  177.8640  142.8820 O   0  0  0  0  0  1  0  0  0  0  0  0
  185.3310  178.5350  143.9390 C   0  0  1  0  0  3  0  0  0  0  0  0
  182.9110  178.8930  144.4230 C   0  0  0  0  0  1  0  0  0  0  0  0
  184.3140  178.9270  144.9970 C   0  0  0  0  0  2  0  0  0  0  0  0
  192.5260  175.5320  135.5180 C   0  0  2  0  0  3  0  0  0  0  0  0
  194.2460  176.9270  136.5390 O   0  0  0  0  0  0  0  0  0  0  0  0
  192.6230  174.1050  135.2360 N   0  0  0  0  0  0  0  0  0  0  0  0
  194.6450  174.6320  136.1940 N   0  0  0  0  0  2  0  0  0  0  0  0
  193.8500  175.8020  136.1350 C   0  0  0  0  0  0  0  0  0  0  0  0
  193.7840  173.6640  135.6050 C   0  0  0  0  0  0  0  0  0  0  0  0
  194.1710  172.2370  135.4510 C   0  0  0  0  0  2  0  0  0  0  0  0
  193.3200  171.4330  136.2080 O   0  0  0  0  0  0  0  0  0  0  0  0
  193.2880  170.2190  135.5260 C   0  0  0  0  0  1  0  0  0  0  0  0
  1  2  2  0  0  0  0
  2 20  1  0  0  0  0
  3  4  2  0  0  0  0
  5  8  1  0  0  0  0
  5  6  1  0  0  0  0
  6 14  1  0  0  0  0
  6  3  1  1  0  0  0
  7  1  1  0  0  0  0
  7  4  1  0  0  0  0
  8  7  2  0  0  0  0
  9 10  1  0  0  0  0
 12 14  1  0  0  0  0
 12 13  1  0  0  0  0
 13 11  2  0  0  0  0
 13 10  1  0  0  0  0
 14  9  1  1  0  0  0
 15 19  1  0  0  0  0
 17 20  1  0  0  0  0
 17 15  2  0  0  0  0
 18 16  1  0  0  0  0
 19 16  2  0  0  0  0
 19 21  1  0  0  0  0
 20 18  2  0  0  0  0
 21 22  1  0  0  0  0
 24 22  1  6  0  0  0
 24 28  1  0  0  0  0
 24 27  1  0  0  0  0
 25 23  1  1  0  0  0
 26 25  1  0  0  0  0
 27 31  1  6  0  0  0
 27 29  1  0  0  0  0
 28 26  1  0  0  0  0
 29 25  1  0  0  0  0
 31 30  1  6  0  0  0
 31 33  1  0  0  0  0
 32 33  1  0  0  0  0
 34 38  1  0  0  0  0
 34  1  1  1  0  0  0
 36 34  1  0  0  0  0
 36 39  2  0  0  0  0
 38 37  1  0  0  0  0
 38 35  2  0  0  0  0
 39 37  1  0  0  0  0
 40 39  1  0  0  0  0
 40 41  1  0  0  0  0
 42 41  1  0  0  0  0
M  END
>  <MODEL>
1

>  <REMARK>
 VINA RESULT:      -8.5      0.000      0.000
  Name = 
  11 active torsions:
  status: ('A' for Active; 'I' for Inactive)
    1  A    between atoms: C_7  and  C_17
    2  A    between atoms: C_7  and  C_20
    3  A    between atoms: O_8  and  C_34
    4  A    between atoms: C_9  and  O_37
    5  A    between atoms: C_15  and  C_29
    6  A    between atoms: C_15  and  O_37
    7  A    between atoms: C_18  and  C_35
    8  A    between atoms: C_24  and  C_26
    9  A    between atoms: C_24  and  C_31
   10  A    between atoms: C_34  and  C_41
   11  A    between atoms: N_40  and  C_42
                            x       y       z     vdW  Elec       q    Type
                         _______ _______ _______ _____ _____    ______ ____

>  <TORSDO>
F 11

$$$$
=
 OpenBabel10222420393D

 42 46  0  0  1  0  0  0  0  0999 V2000
  181.6480  178.9920  141.3090 C   0  0  0  0  0  0  0  0  0  0  0  0
  181.9210  179.2320  142.5650 N   0  0  0  0  0  0  0  0  0  0  0  0
  184.5190  179.1650  138.8530 C   0  0  0  0  0  3  0  0  0  0  0  0
  183.6400  179.5170  139.7950 C   0  0  0  0  0  3  0  0  0  0  0  0
  183.7930  176.8260  139.0980 N   0  0  0  0  0  2  0  0  0  0  0  0
  184.4890  177.7900  138.2400 C   0  0  2  0  0  3  0  0  0  0  0  0
  182.6610  178.5480  140.3290 C   0  0  0  0  0  0  0  0  0  0  0  0
  182.7890  177.2510  140.0250 C   0  0  0  0  0  3  0  0  0  0  0  0
  186.9540  178.1450  138.5860 C   0  0  0  0  0  2  0  0  0  0  0  0
  188.1580  178.0960  137.7820 N   0  0  0  0  0  2  0  0  0  0  0  0
  188.8220  177.5540  135.6120 O   0  0  0  0  0  0  0  0  0  0  0  0
  186.1990  177.3560  136.0680 S   0  0  0  0  0  0  0  0  0  0  0  0
  187.8960  177.7030  136.4510 C   0  0  0  0  0  0  0  0  0  0  0  0
  185.8890  177.3090  137.8740 C   0  0  2  0  0  3  0  0  0  0  0  0
  185.4480  178.2130  143.3690 C   0  0  0  0  0  3  0  0  0  0  0  0
  184.2610  178.7040  145.4200 C   0  0  0  0  0  3  0  0  0  0  0  0
  184.3030  178.5260  142.6330 C   0  0  0  0  0  3  0  0  0  0  0  0
  183.1160  179.0200  144.6820 C   0  0  0  0  0  3  0  0  0  0  0  0
  185.4270  178.2990  144.7640 C   0  0  0  0  0  0  0  0  0  0  0  0
  183.1340  178.9560  143.2830 C   0  0  0  0  0  0  0  0  0  0  0  0
  186.6600  178.0090  145.5440 C   0  0  0  0  0  2  0  0  0  0  0  0
  187.7850  178.1370  144.7100 O   0  0  0  0  0  0  0  0  0  0  0  0
  192.3010  175.9400  147.4200 C   0  0  0  0  0  1  0  0  0  0  0  0
  188.8330  177.3400  145.2230 C   0  0  1  0  0  3  0  0  0  0  0  0
  191.2060  176.8260  146.8660 C   0  0  2  0  0  3  0  0  0  0  0  0
  189.8500  176.2550  147.2530 C   0  0  0  0  0  2  0  0  0  0  0  0
  190.2420  177.7780  144.7440 C   0  0  1  0  0  3  0  0  0  0  0  0
  188.7400  177.1660  146.7460 C   0  0  0  0  0  2  0  0  0  0  0  0
  191.3240  176.8810  145.3480 C   0  0  0  0  0  2  0  0  0  0  0  0
  191.7380  177.7650  142.8440 O   0  0  0  0  0  1  0  0  0  0  0  0
  190.3920  177.7570  143.2200 C   0  0  1  0  0  3  0  0  0  0  0  0
  188.7370  177.0230  141.5050 C   0  0  0  0  0  1  0  0  0  0  0  0
  189.6730  176.5670  142.6070 C   0  0  0  0  0  2  0  0  0  0  0  0
  180.2590  179.2510  140.8010 C   0  0  2  0  0  3  0  0  0  0  0  0
  179.5650  180.9350  142.4210 O   0  0  0  0  0  0  0  0  0  0  0  0
  180.2660  179.3960  139.3500 N   0  0  0  0  0  0  0  0  0  0  0  0
  179.4880  181.4190  140.1180 N   0  0  0  0  0  2  0  0  0  0  0  0
  179.7580  180.5820  141.2280 C   0  0  0  0  0  0  0  0  0  0  0  0
  179.8330  180.5740  139.0260 C   0  0  0  0  0  0  0  0  0  0  0  0
  179.7350  181.0160  137.6100 C   0  0  0  0  0  2  0  0  0  0  0  0
  180.0340  182.3750  137.5200 O   0  0  0  0  0  0  0  0  0  0  0  0
  179.9310  182.6650  136.1610 C   0  0  0  0  0  1  0  0  0  0  0  0
  1  2  2  0  0  0  0
  2 20  1  0  0  0  0
  3  4  2  0  0  0  0
  4  7  1  0  0  0  0
  5  8  1  0  0  0  0
  6  3  1  1  0  0  0
  6  5  1  0  0  0  0
  7  1  1  0  0  0  0
  8  7  2  0  0  0  0
 10  9  1  0  0  0  0
 11 13  2  0  0  0  0
 12 13  1  0  0  0  0
 12 14  1  0  0  0  0
 13 10  1  0  0  0  0
 14  6  1  0  0  0  0
 14  9  1  1  0  0  0
 15 19  1  0  0  0  0
 17 20  1  0  0  0  0
 17 15  2  0  0  0  0
 18 16  1  0  0  0  0
 19 16  2  0  0  0  0
 19 21  1  0  0  0  0
 20 18  2  0  0  0  0
 22 21  1  0  0  0  0
 24 22  1  1  0  0  0
 24 28  1  0  0  0  0
 25 26  1  0  0  0  0
 25 23  1  6  0  0  0
 27 31  1  6  0  0  0
 27 24  1  0  0  0  0
 27 29  1  0  0  0  0
 28 26  1  0  0  0  0
 29 25  1  0  0  0  0
 31 30  1  1  0  0  0
 32 33  1  0  0  0  0
 33 31  1  0  0  0  0
 34 38  1  0  0  0  0
 34  1  1  1  0  0  0
 36 34  1  0  0  0  0
 37 38  1  0  0  0  0
 38 35  2  0  0  0  0
 39 36  2  0  0  0  0
 39 37  1  0  0  0  0
 40 39  1  0  0  0  0
 41 40  1  0  0  0  0
 42 41  1  0  0  0  0
M  END
>  <MODEL>
2

>  <REMARK>
 VINA RESULT:      -8.3      4.536      9.517
  Name = 
  11 active torsions:
  status: ('A' for Active; 'I' for Inactive)
    1  A    between atoms: C_7  and  C_17
    2  A    between atoms: C_7  and  C_20
    3  A    between atoms: O_8  and  C_34
    4  A    between atoms: C_9  and  O_37
    5  A    between atoms: C_15  and  C_29
    6  A    between atoms: C_15  and  O_37
    7  A    between atoms: C_18  and  C_35
    8  A    between atoms: C_24  and  C_26
    9  A    between atoms: C_24  and  C_31
   10  A    between atoms: C_34  and  C_41
   11  A    between atoms: N_40  and  C_42
                            x       y       z     vdW  Elec       q    Type
                         _______ _______ _______ _____ _____    ______ ____

>  <TORSDO>
F 11

$$$$
=
 OpenBabel10222420393D

 42 46  0  0  1  0  0  0  0  0999 V2000
  193.4060  175.9380  136.3660 C   0  0  0  0  0  0  0  0  0  0  0  0
  193.6770  176.4460  137.5400 N   0  0  0  0  0  0  0  0  0  0  0  0
  190.6060  173.4090  136.1030 C   0  0  0  0  0  3  0  0  0  0  0  0
  191.7530  173.9900  136.4650 C   0  0  0  0  0  3  0  0  0  0  0  0
  189.8760  175.5430  135.1170 N   0  0  0  0  0  2  0  0  0  0  0  0
  189.6550  174.0930  135.1580 C   0  0  2  0  0  3  0  0  0  0  0  0
  192.0930  175.3570  136.0190 C   0  0  0  0  0  0  0  0  0  0  0  0
  191.1560  176.1050  135.4230 C   0  0  0  0  0  3  0  0  0  0  0  0
  187.4020  175.0240  135.7730 C   0  0  0  0  0  2  0  0  0  0  0  0
  186.3000  174.6550  136.6370 N   0  0  0  0  0  2  0  0  0  0  0  0
  185.6520  172.9060  138.0390 O   0  0  0  0  0  0  0  0  0  0  0  0
  188.0490  172.6070  136.9010 S   0  0  0  0  0  0  0  0  0  0  0  0
  186.5190  173.4190  137.2850 C   0  0  0  0  0  0  0  0  0  0  0  0
  188.2030  173.7550  135.4810 C   0  0  2  0  0  3  0  0  0  0  0  0
  192.3240  177.4880  140.8880 C   0  0  0  0  0  3  0  0  0  0  0  0
  190.5470  176.5110  139.5660 C   0  0  0  0  0  3  0  0  0  0  0  0
  193.2170  177.2860  139.8330 C   0  0  0  0  0  3  0  0  0  0  0  0
  191.4410  176.3130  138.5090 C   0  0  0  0  0  3  0  0  0  0  0  0
  190.9880  177.0970  140.7560 C   0  0  0  0  0  0  0  0  0  0  0  0
  192.7770  176.7190  138.6250 C   0  0  0  0  0  0  0  0  0  0  0  0
  190.0280  177.3530  141.8640 C   0  0  0  0  0  2  0  0  0  0  0  0
  189.9250  176.2060  142.6710 O   0  0  0  0  0  0  0  0  0  0  0  0
  186.2410  178.3890  146.4430 C   0  0  0  0  0  1  0  0  0  0  0  0
  189.0270  176.4670  143.7300 C   0  0  1  0  0  3  0  0  0  0  0  0
  187.2210  178.1470  145.3160 C   0  0  2  0  0  3  0  0  0  0  0  0
  186.6740  177.0680  144.3930 C   0  0  0  0  0  2  0  0  0  0  0  0
  189.5840  177.4510  144.7930 C   0  0  1  0  0  3  0  0  0  0  0  0
  187.6280  176.8530  143.2250 C   0  0  0  0  0  2  0  0  0  0  0  0
  188.5550  177.6950  145.8980 C   0  0  0  0  0  2  0  0  0  0  0  0
  191.9340  177.8510  145.2000 O   0  0  0  0  0  1  0  0  0  0  0  0
  190.8830  176.9610  145.4410 C   0  0  1  0  0  3  0  0  0  0  0  0
  191.9180  176.0180  147.5030 C   0  0  0  0  0  1  0  0  0  0  0  0
  190.7090  176.7310  146.9320 C   0  0  0  0  0  2  0  0  0  0  0  0
  194.4940  175.8600  135.3350 C   0  0  2  0  0  3  0  0  0  0  0  0
  195.1760  178.2000  135.3170 O   0  0  0  0  0  0  0  0  0  0  0  0
  195.3530  174.7090  135.5870 N   0  0  0  0  0  0  0  0  0  0  0  0
  196.7620  176.5170  135.7590 N   0  0  0  0  0  2  0  0  0  0  0  0
  195.4580  176.9820  135.4670 C   0  0  0  0  0  0  0  0  0  0  0  0
  196.5680  175.1080  135.7990 C   0  0  0  0  0  0  0  0  0  0  0  0
  197.6710  174.1560  136.0950 C   0  0  0  0  0  2  0  0  0  0  0  0
  198.5420  174.7190  137.0260 O   0  0  0  0  0  0  0  0  0  0  0  0
  197.9820  174.4060  138.2620 C   0  0  0  0  0  1  0  0  0  0  0  0
  1  2  2  0  0  0  0
  2 20  1  0  0  0  0
  3  4  2  0  0  0  0
  5  6  1  0  0  0  0
  5  8  1  0  0  0  0
  6 14  1  0  0  0  0
  6  3  1  1  0  0  0
  7  1  1  0  0  0  0
  7  4  1  0  0  0  0
  8  7  2  0  0  0  0
  9 10  1  0  0  0  0
 10 13  1  0  0  0  0
 12 13  1  0  0  0  0
 13 11  2  0  0  0  0
 14  9  1  1  0  0  0
 14 12  1  0  0  0  0
 16 19  2  0  0  0  0
 17 15  2  0  0  0  0
 18 20  2  0  0  0  0
 18 16  1  0  0  0  0
 19 15  1  0  0  0  0
 19 21  1  0  0  0  0
 20 17  1  0  0  0  0
 21 22  1  0  0  0  0
 24 22  1  6  0  0  0
 24 27  1  0  0  0  0
 25 29  1  0  0  0  0
 25 23  1  1  0  0  0
 26 25  1  0  0  0  0
 27 31  1  1  0  0  0
 27 29  1  0  0  0  0
 28 24  1  0  0  0  0
 28 26  1  0  0  0  0
 31 30  1  1  0  0  0
 31 33  1  0  0  0  0
 33 32  1  0  0  0  0
 34 38  1  0  0  0  0
 34 36  1  0  0  0  0
 34  1  1  1  0  0  0
 35 38  2  0  0  0  0
 36 39  2  0  0  0  0
 37 39  1  0  0  0  0
 38 37  1  0  0  0  0
 39 40  1  0  0  0  0
 40 41  1  0  0  0  0
 41 42  1  0  0  0  0
M  END
>  <MODEL>
3

>  <REMARK>
 VINA RESULT:      -8.2      2.327      3.612
  Name = 
  11 active torsions:
  status: ('A' for Active; 'I' for Inactive)
    1  A    between atoms: C_7  and  C_17
    2  A    between atoms: C_7  and  C_20
    3  A    between atoms: O_8  and  C_34
    4  A    between atoms: C_9  and  O_37
    5  A    between atoms: C_15  and  C_29
    6  A    between atoms: C_15  and  O_37
    7  A    between atoms: C_18  and  C_35
    8  A    between atoms: C_24  and  C_26
    9  A    between atoms: C_24  and  C_31
   10  A    between atoms: C_34  and  C_41
   11  A    between atoms: N_40  and  C_42
                            x       y       z     vdW  Elec       q    Type
                         _______ _______ _______ _____ _____    ______ ____

>  <TORSDO>
F 11

$$$$
=
 OpenBabel10222420393D

 42 46  0  0  1  0  0  0  0  0999 V2000
  181.7070  178.4080  139.1220 C   0  0  0  0  0  0  0  0  0  0  0  0
  182.2820  179.1580  140.0260 N   0  0  0  0  0  0  0  0  0  0  0  0
  183.6230  176.4770  136.4940 C   0  0  0  0  0  3  0  0  0  0  0  0
  183.0650  177.4920  137.1580 C   0  0  0  0  0  3  0  0  0  0  0  0
  183.2030  175.0220  138.4340 N   0  0  0  0  0  2  0  0  0  0  0  0
  183.5100  175.0630  137.0000 C   0  0  2  0  0  3  0  0  0  0  0  0
  182.3880  177.2790  138.4550 C   0  0  0  0  0  0  0  0  0  0  0  0
  182.5160  176.1000  139.0750 C   0  0  0  0  0  3  0  0  0  0  0  0
  184.9910  173.1640  137.7200 C   0  0  0  0  0  2  0  0  0  0  0  0
  186.4090  172.8660  137.7290 N   0  0  0  0  0  2  0  0  0  0  0  0
  188.4230  173.7990  137.0100 O   0  0  0  0  0  0  0  0  0  0  0  0
  186.2580  175.2850  136.5250 S   0  0  0  0  0  0  0  0  0  0  0  0
  187.1750  173.8960  137.1400 C   0  0  0  0  0  0  0  0  0  0  0  0
  184.7540  174.2470  136.6670 C   0  0  2  0  0  3  0  0  0  0  0  0
  185.9750  178.8420  140.6460 C   0  0  0  0  0  3  0  0  0  0  0  0
  184.7650  178.2690  142.6620 C   0  0  0  0  0  3  0  0  0  0  0  0
  184.7650  179.0940  139.9940 C   0  0  0  0  0  3  0  0  0  0  0  0
  183.5550  178.5250  142.0090 C   0  0  0  0  0  3  0  0  0  0  0  0
  185.9750  178.4260  141.9800 C   0  0  0  0  0  0  0  0  0  0  0  0
  183.5460  178.9610  140.6780 C   0  0  0  0  0  0  0  0  0  0  0  0
  187.2650  178.2000  142.6860 C   0  0  0  0  0  2  0  0  0  0  0  0
  187.3150  176.8790  143.1640 O   0  0  0  0  0  0  0  0  0  0  0  0
  189.0430  178.1450  148.4530 C   0  0  0  0  0  1  0  0  0  0  0  0
  187.7730  176.8880  144.5000 C   0  0  1  0  0  3  0  0  0  0  0  0
  188.5790  178.1670  147.0130 C   0  0  2  0  0  3  0  0  0  0  0  0
  187.2480  177.4380  146.9000 C   0  0  0  0  0  2  0  0  0  0  0  0
  189.1950  177.4860  144.6680 C   0  0  1  0  0  3  0  0  0  0  0  0
  186.7440  177.4980  145.4640 C   0  0  0  0  0  2  0  0  0  0  0  0
  189.6180  177.4750  146.1380 C   0  0  0  0  0  2  0  0  0  0  0  0
  190.6630  177.4930  142.7460 O   0  0  0  0  0  1  0  0  0  0  0  0
  190.2590  176.7420  143.8550 C   0  0  1  0  0  3  0  0  0  0  0  0
  192.0270  175.0350  144.2730 C   0  0  0  0  0  1  0  0  0  0  0  0
  191.4560  176.3690  144.7120 C   0  0  0  0  0  2  0  0  0  0  0  0
  180.3160  178.7440  138.6700 C   0  0  2  0  0  3  0  0  0  0  0  0
  179.2200  178.8490  140.8440 O   0  0  0  0  0  0  0  0  0  0  0  0
  180.3480  179.7980  137.6630 N   0  0  0  0  0  0  0  0  0  0  0  0
  179.1320  180.7010  139.3930 N   0  0  0  0  0  2  0  0  0  0  0  0
  179.5290  179.3900  139.7500 C   0  0  0  0  0  0  0  0  0  0  0  0
  179.6880  180.8290  138.0890 C   0  0  0  0  0  0  0  0  0  0  0  0
  179.5540  182.0690  137.2800 C   0  0  0  0  0  2  0  0  0  0  0  0
  179.9790  183.1670  138.0260 O   0  0  0  0  0  0  0  0  0  0  0  0
  181.1290  183.6070  137.3750 C   0  0  0  0  0  1  0  0  0  0  0  0
  1  2  2  0  0  0  0
  2 20  1  0  0  0  0
  3  4  2  0  0  0  0
  4  7  1  0  0  0  0
  5  8  1  0  0  0  0
  6  3  1  1  0  0  0
  6  5  1  0  0  0  0
  7  8  2  0  0  0  0
  7  1  1  0  0  0  0
  9 10  1  0  0  0  0
 11 13  2  0  0  0  0
 12 14  1  0  0  0  0
 12 13  1  0  0  0  0
 13 10  1  0  0  0  0
 14  6  1  0  0  0  0
 14  9  1  1  0  0  0
 15 19  1  0  0  0  0
 17 15  2  0  0  0  0
 17 20  1  0  0  0  0
 18 16  1  0  0  0  0
 19 16  2  0  0  0  0
 19 21  1  0  0  0  0
 20 18  2  0  0  0  0
 21 22  1  0  0  0  0
 24 22  1  6  0  0  0
 24 27  1  0  0  0  0
 24 28  1  0  0  0  0
 25 23  1  1  0  0  0
 26 25  1  0  0  0  0
 27 31  1  6  0  0  0
 27 29  1  0  0  0  0
 28 26  1  0  0  0  0
 29 25  1  0  0  0  0
 31 30  1  6  0  0  0
 31 33  1  0  0  0  0
 32 33  1  0  0  0  0
 34  1  1  1  0  0  0
 34 38  1  0  0  0  0
 36 39  2  0  0  0  0
 36 34  1  0  0  0  0
 37 38  1  0  0  0  0
 38 35  2  0  0  0  0
 39 37  1  0  0  0  0
 40 41  1  0  0  0  0
 40 39  1  0  0  0  0
 42 41  1  0  0  0  0
M  END
>  <MODEL>
4

>  <REMARK>
 VINA RESULT:      -8.1      4.455      8.927
  Name = 
  11 active torsions:
  status: ('A' for Active; 'I' for Inactive)
    1  A    between atoms: C_7  and  C_17
    2  A    between atoms: C_7  and  C_20
    3  A    between atoms: O_8  and  C_34
    4  A    between atoms: C_9  and  O_37
    5  A    between atoms: C_15  and  C_29
    6  A    between atoms: C_15  and  O_37
    7  A    between atoms: C_18  and  C_35
    8  A    between atoms: C_24  and  C_26
    9  A    between atoms: C_24  and  C_31
   10  A    between atoms: C_34  and  C_41
   11  A    between atoms: N_40  and  C_42
                            x       y       z     vdW  Elec       q    Type
                         _______ _______ _______ _____ _____    ______ ____

>  <TORSDO>
F 11

$$$$
=
 OpenBabel10222420393D

 42 46  0  0  1  0  0  0  0  0999 V2000
  182.4960  178.6150  139.2980 C   0  0  0  0  0  0  0  0  0  0  0  0
  183.0360  179.1980  140.3360 N   0  0  0  0  0  0  0  0  0  0  0  0
  184.7580  176.7460  136.9120 C   0  0  0  0  0  3  0  0  0  0  0  0
  184.2200  177.7370  137.6270 C   0  0  0  0  0  3  0  0  0  0  0  0
  183.4460  175.1320  138.2280 N   0  0  0  0  0  2  0  0  0  0  0  0
  184.2110  175.3450  136.9950 C   0  0  2  0  0  3  0  0  0  0  0  0
  183.1250  177.4830  138.5860 C   0  0  0  0  0  0  0  0  0  0  0  0
  182.8090  176.2220  138.9020 C   0  0  0  0  0  3  0  0  0  0  0  0
  186.0550  174.5060  135.5070 C   0  0  0  0  0  2  0  0  0  0  0  0
  186.6020  173.2240  135.1130 N   0  0  0  0  0  2  0  0  0  0  0  0
  186.3310  170.9560  135.5900 O   0  0  0  0  0  0  0  0  0  0  0  0
  184.6720  172.5870  136.9000 S   0  0  0  0  0  0  0  0  0  0  0  0
  185.9620  172.1470  135.7650 C   0  0  0  0  0  0  0  0  0  0  0  0
  185.3120  174.3030  136.8280 C   0  0  2  0  0  3  0  0  0  0  0  0
  185.2150  177.9530  143.1340 C   0  0  0  0  0  3  0  0  0  0  0  0
  186.6020  178.6500  141.2770 C   0  0  0  0  0  3  0  0  0  0  0  0
  184.0720  178.2920  142.4050 C   0  0  0  0  0  3  0  0  0  0  0  0
  185.4580  178.9850  140.5470 C   0  0  0  0  0  3  0  0  0  0  0  0
  186.4820  178.1350  142.5710 C   0  0  0  0  0  0  0  0  0  0  0  0
  184.1840  178.7880  141.0950 C   0  0  0  0  0  0  0  0  0  0  0  0
  187.6950  177.7330  143.3320 C   0  0  0  0  0  2  0  0  0  0  0  0
  187.3710  177.5830  144.6910 O   0  0  0  0  0  0  0  0  0  0  0  0
  192.0730  176.3630  147.6850 C   0  0  0  0  0  1  0  0  0  0  0  0
  188.5610  177.5860  145.4530 C   0  0  1  0  0  3  0  0  0  0  0  0
  190.7830  176.3290  146.8950 C   0  0  2  0  0  3  0  0  0  0  0  0
  191.0030  176.9870  145.5400 C   0  0  0  0  0  2  0  0  0  0  0  0
  188.3750  177.0650  146.9030 C   0  0  1  0  0  3  0  0  0  0  0  0
  189.7270  176.9120  144.7140 C   0  0  0  0  0  2  0  0  0  0  0  0
  189.7030  177.0850  147.6600 C   0  0  0  0  0  2  0  0  0  0  0  0
  187.9730  178.6450  148.6890 O   0  0  0  0  0  1  0  0  0  0  0  0
  187.3490  177.8730  147.7040 C   0  0  1  0  0  3  0  0  0  0  0  0
  185.0400  178.3500  146.8950 C   0  0  0  0  0  1  0  0  0  0  0  0
  186.4990  178.7480  146.7980 C   0  0  0  0  0  2  0  0  0  0  0  0
  181.2130  179.1580  138.7400 C   0  0  2  0  0  3  0  0  0  0  0  0
  180.0180  179.5460  140.8290 O   0  0  0  0  0  0  0  0  0  0  0  0
  181.4860  180.1440  137.7020 N   0  0  0  0  0  0  0  0  0  0  0  0
  180.3370  181.3170  139.3100 N   0  0  0  0  0  2  0  0  0  0  0  0
  180.4820  179.9770  139.7400 C   0  0  0  0  0  0  0  0  0  0  0  0
  180.9870  181.2900  138.0440 C   0  0  0  0  0  0  0  0  0  0  0  0
  181.1160  182.4960  137.1850 C   0  0  0  0  0  2  0  0  0  0  0  0
  182.0140  183.3920  137.7620 O   0  0  0  0  0  0  0  0  0  0  0  0
  181.5170  184.6490  137.4260 C   0  0  0  0  0  1  0  0  0  0  0  0
  1  2  2  0  0  0  0
  2 20  1  0  0  0  0
  3  4  2  0  0  0  0
  4  7  1  0  0  0  0
  5  8  1  0  0  0  0
  6  3  1  1  0  0  0
  6  5  1  0  0  0  0
  7  8  2  0  0  0  0
  7  1  1  0  0  0  0
 10  9  1  0  0  0  0
 10 13  1  0  0  0  0
 11 13  2  0  0  0  0
 13 12  1  0  0  0  0
 14  9  1  6  0  0  0
 14 12  1  0  0  0  0
 14  6  1  0  0  0  0
 16 19  2  0  0  0  0
 17 15  2  0  0  0  0
 18 20  2  0  0  0  0
 18 16  1  0  0  0  0
 19 15  1  0  0  0  0
 19 21  1  0  0  0  0
 20 17  1  0  0  0  0
 21 22  1  0  0  0  0
 24 22  1  6  0  0  0
 24 27  1  0  0  0  0
 25 29  1  0  0  0  0
 25 23  1  1  0  0  0
 26 25  1  0  0  0  0
 27 29  1  0  0  0  0
 27 31  1  1  0  0  0
 28 24  1  0  0  0  0
 28 26  1  0  0  0  0
 31 30  1  1  0  0  0
 33 32  1  0  0  0  0
 33 31  1  0  0  0  0
 34  1  1  1  0  0  0
 34 38  1  0  0  0  0
 36 39  2  0  0  0  0
 36 34  1  0  0  0  0
 37 38  1  0  0  0  0
 38 35  2  0  0  0  0
 39 37  1  0  0  0  0
 40 41  1  0  0  0  0
 40 39  1  0  0  0  0
 42 41  1  0  0  0  0
M  END
>  <MODEL>
5

>  <REMARK>
 VINA RESULT:      -7.9      4.466      8.359
  Name = 
  11 active torsions:
  status: ('A' for Active; 'I' for Inactive)
    1  A    between atoms: C_7  and  C_17
    2  A    between atoms: C_7  and  C_20
    3  A    between atoms: O_8  and  C_34
    4  A    between atoms: C_9  and  O_37
    5  A    between atoms: C_15  and  C_29
    6  A    between atoms: C_15  and  O_37
    7  A    between atoms: C_18  and  C_35
    8  A    between atoms: C_24  and  C_26
    9  A    between atoms: C_24  and  C_31
   10  A    between atoms: C_34  and  C_41
   11  A    between atoms: N_40  and  C_42
                            x       y       z     vdW  Elec       q    Type
                         _______ _______ _______ _____ _____    ______ ____

>  <TORSDO>
F 11

$$$$
=
 OpenBabel10222420393D

 42 46  0  0  1  0  0  0  0  0999 V2000
  191.5090  175.6360  136.3270 C   0  0  0  0  0  0  0  0  0  0  0  0
  191.7420  176.3700  137.3840 N   0  0  0  0  0  0  0  0  0  0  0  0
  188.5880  173.2500  136.6140 C   0  0  0  0  0  3  0  0  0  0  0  0
  189.7310  173.8860  136.8860 C   0  0  0  0  0  3  0  0  0  0  0  0
  188.0960  174.9420  134.8950 N   0  0  0  0  0  2  0  0  0  0  0  0
  187.7780  173.5990  135.3940 C   0  0  2  0  0  3  0  0  0  0  0  0
  190.2000  175.0100  136.0490 C   0  0  0  0  0  0  0  0  0  0  0  0
  189.3750  175.5370  135.1360 C   0  0  0  0  0  3  0  0  0  0  0  0
  185.9040  173.9670  137.0290 C   0  0  0  0  0  2  0  0  0  0  0  0
  184.7150  173.2600  137.4580 N   0  0  0  0  0  2  0  0  0  0  0  0
  183.5150  171.3270  136.9410 O   0  0  0  0  0  0  0  0  0  0  0  0
  185.7370  171.6890  135.5060 S   0  0  0  0  0  0  0  0  0  0  0  0
  184.5220  172.0560  136.7440 C   0  0  0  0  0  0  0  0  0  0  0  0
  186.2830  173.4330  135.6470 C   0  0  2  0  0  3  0  0  0  0  0  0
  189.0580  178.4150  139.0390 C   0  0  0  0  0  3  0  0  0  0  0  0
  189.9880  176.8550  140.6390 C   0  0  0  0  0  3  0  0  0  0  0  0
  189.9200  177.9190  138.0570 C   0  0  0  0  0  3  0  0  0  0  0  0
  190.8470  176.3560  139.6540 C   0  0  0  0  0  3  0  0  0  0  0  0
  189.0940  177.8850  140.3320 C   0  0  0  0  0  0  0  0  0  0  0  0
  190.8050  176.8680  138.3510 C   0  0  0  0  0  0  0  0  0  0  0  0
  188.1460  178.3830  141.3640 C   0  0  0  0  0  2  0  0  0  0  0  0
  188.2350  177.5780  142.5140 O   0  0  0  0  0  0  0  0  0  0  0  0
  183.4000  178.9900  145.1950 C   0  0  0  0  0  1  0  0  0  0  0  0
  187.0040  177.6240  143.2060 C   0  0  1  0  0  3  0  0  0  0  0  0
  184.7330  178.9720  144.4790 C   0  0  2  0  0  3  0  0  0  0  0  0
  184.5750  178.2770  143.1340 C   0  0  0  0  0  2  0  0  0  0  0  0
  187.1200  178.1870  144.6470 C   0  0  1  0  0  3  0  0  0  0  0  0
  185.8980  178.2990  142.3810 C   0  0  0  0  0  2  0  0  0  0  0  0
  185.7500  178.2190  145.3280 C   0  0  0  0  0  2  0  0  0  0  0  0
  189.3800  177.4100  145.0150 O   0  0  0  0  0  1  0  0  0  0  0  0
  188.0800  177.3840  145.5300 C   0  0  1  0  0  3  0  0  0  0  0  0
  188.2880  176.7290  147.9260 C   0  0  0  0  0  1  0  0  0  0  0  0
  188.0630  177.8800  146.9650 C   0  0  0  0  0  2  0  0  0  0  0  0
  192.6350  175.3380  135.3810 C   0  0  2  0  0  3  0  0  0  0  0  0
  194.3530  176.7580  136.3680 O   0  0  0  0  0  0  0  0  0  0  0  0
  192.7300  173.9040  135.1380 N   0  0  0  0  0  0  0  0  0  0  0  0
  194.7510  174.4540  136.0860 N   0  0  0  0  0  2  0  0  0  0  0  0
  193.9570  175.6220  135.9940 C   0  0  0  0  0  0  0  0  0  0  0  0
  193.8900  173.4710  135.5220 C   0  0  0  0  0  0  0  0  0  0  0  0
  194.2760  172.0400  135.4070 C   0  0  0  0  0  2  0  0  0  0  0  0
  193.4690  171.2660  136.2400 O   0  0  0  0  0  0  0  0  0  0  0  0
  194.3320  170.3110  136.7720 C   0  0  0  0  0  1  0  0  0  0  0  0
  1  2  2  0  0  0  0
  2 20  1  0  0  0  0
  3  4  2  0  0  0  0
  5  8  1  0  0  0  0
  5  6  1  0  0  0  0
  6 14  1  0  0  0  0
  6  3  1  1  0  0  0
  7  1  1  0  0  0  0
  7  4  1  0  0  0  0
  8  7  2  0  0  0  0
  9 10  1  0  0  0  0
 12 14  1  0  0  0  0
 12 13  1  0  0  0  0
 13 11  2  0  0  0  0
 13 10  1  0  0  0  0
 14  9  1  1  0  0  0
 15 19  1  0  0  0  0
 17 20  1  0  0  0  0
 17 15  2  0  0  0  0
 18 16  1  0  0  0  0
 19 16  2  0  0  0  0
 19 21  1  0  0  0  0
 20 18  2  0  0  0  0
 21 22  1  0  0  0  0
 24 22  1  6  0  0  0
 24 27  1  0  0  0  0
 25 23  1  1  0  0  0
 25 29  1  0  0  0  0
 26 25  1  0  0  0  0
 27 29  1  0  0  0  0
 27 31  1  1  0  0  0
 28 26  1  0  0  0  0
 28 24  1  0  0  0  0
 31 30  1  6  0  0  0
 31 33  1  0  0  0  0
 33 32  1  0  0  0  0
 34 38  1  0  0  0  0
 34  1  1  1  0  0  0
 36 34  1  0  0  0  0
 36 39  2  0  0  0  0
 38 37  1  0  0  0  0
 38 35  2  0  0  0  0
 39 37  1  0  0  0  0
 40 39  1  0  0  0  0
 40 41  1  0  0  0  0
 41 42  1  0  0  0  0
M  END
>  <MODEL>
6

>  <REMARK>
 VINA RESULT:      -7.8      0.807      2.190
  Name = 
  11 active torsions:
  status: ('A' for Active; 'I' for Inactive)
    1  A    between atoms: C_7  and  C_17
    2  A    between atoms: C_7  and  C_20
    3  A    between atoms: O_8  and  C_34
    4  A    between atoms: C_9  and  O_37
    5  A    between atoms: C_15  and  C_29
    6  A    between atoms: C_15  and  O_37
    7  A    between atoms: C_18  and  C_35
    8  A    between atoms: C_24  and  C_26
    9  A    between atoms: C_24  and  C_31
   10  A    between atoms: C_34  and  C_41
   11  A    between atoms: N_40  and  C_42
                            x       y       z     vdW  Elec       q    Type
                         _______ _______ _______ _____ _____    ______ ____

>  <TORSDO>
F 11

$$$$
=
 OpenBabel10222420393D

 42 46  0  0  1  0  0  0  0  0999 V2000
  191.7530  176.4540  138.1620 C   0  0  0  0  0  0  0  0  0  0  0  0
  190.9170  176.6630  137.1790 N   0  0  0  0  0  0  0  0  0  0  0  0
  189.7380  176.8430  141.3390 C   0  0  0  0  0  3  0  0  0  0  0  0
  190.0770  176.5080  140.0910 C   0  0  0  0  0  3  0  0  0  0  0  0
  192.0930  177.3960  141.7920 N   0  0  0  0  0  2  0  0  0  0  0  0
  190.7060  177.5680  142.2360 C   0  0  2  0  0  3  0  0  0  0  0  0
  191.4370  176.7590  139.5730 C   0  0  0  0  0  0  0  0  0  0  0  0
  192.4040  177.1320  140.4200 C   0  0  0  0  0  3  0  0  0  0  0  0
  190.7350  178.3620  144.6210 C   0  0  0  0  0  2  0  0  0  0  0  0
  191.1700  177.8530  145.9060 N   0  0  0  0  0  2  0  0  0  0  0  0
  192.0620  175.9070  146.8340 O   0  0  0  0  0  0  0  0  0  0  0  0
  191.6680  175.8160  144.1950 S   0  0  0  0  0  0  0  0  0  0  0  0
  191.6800  176.5390  145.8140 C   0  0  0  0  0  0  0  0  0  0  0  0
  190.5290  177.1620  143.6960 C   0  0  2  0  0  3  0  0  0  0  0  0
  187.1650  176.4620  137.2300 C   0  0  0  0  0  3  0  0  0  0  0  0
  187.8500  178.7830  137.2520 C   0  0  0  0  0  3  0  0  0  0  0  0
  188.5050  176.0680  137.2170 C   0  0  0  0  0  3  0  0  0  0  0  0
  189.1920  178.3880  137.2420 C   0  0  0  0  0  3  0  0  0  0  0  0
  186.8360  177.8200  137.2450 C   0  0  0  0  0  0  0  0  0  0  0  0
  189.5300  177.0290  137.2480 C   0  0  0  0  0  0  0  0  0  0  0  0
  185.4090  178.2370  137.3040 C   0  0  0  0  0  2  0  0  0  0  0  0
  185.2040  179.0540  138.4300 O   0  0  0  0  0  0  0  0  0  0  0  0
  180.4240  178.2050  141.4290 C   0  0  0  0  0  1  0  0  0  0  0  0
  184.1120  178.5510  139.1710 C   0  0  1  0  0  3  0  0  0  0  0  0
  181.5970  178.7760  140.6620 C   0  0  2  0  0  3  0  0  0  0  0  0
  181.6240  178.1790  139.2620 C   0  0  0  0  0  2  0  0  0  0  0  0
  184.1050  179.0020  140.6560 C   0  0  1  0  0  3  0  0  0  0  0  0
  182.7690  178.7860  138.4630 C   0  0  0  0  0  2  0  0  0  0  0  0
  182.8910  178.4320  141.3910 C   0  0  0  0  0  2  0  0  0  0  0  0
  186.4660  179.3660  141.0340 O   0  0  0  0  0  1  0  0  0  0  0  0
  185.3680  178.5870  141.4150 C   0  0  1  0  0  3  0  0  0  0  0  0
  186.2370  177.8650  143.6380 C   0  0  0  0  0  1  0  0  0  0  0  0
  185.1620  178.6560  142.9190 C   0  0  0  0  0  2  0  0  0  0  0  0
  193.1340  175.9530  137.8540 C   0  0  2  0  0  3  0  0  0  0  0  0
  192.5840  173.6580  137.2430 O   0  0  0  0  0  0  0  0  0  0  0  0
  193.8550  176.9180  137.0330 N   0  0  0  0  0  0  0  0  0  0  0  0
  193.7560  175.0280  135.7290 N   0  0  0  0  0  2  0  0  0  0  0  0
  193.1010  174.7690  136.9570 C   0  0  0  0  0  0  0  0  0  0  0  0
  194.1810  176.3750  135.9030 C   0  0  0  0  0  0  0  0  0  0  0  0
  194.9190  177.1230  134.8510 C   0  0  0  0  0  2  0  0  0  0  0  0
  196.1190  177.6060  135.3710 O   0  0  0  0  0  0  0  0  0  0  0  0
  196.1880  178.9230  134.9240 C   0  0  0  0  0  1  0  0  0  0  0  0
  1  7  1  0  0  0  0
  2 20  1  0  0  0  0
  2  1  2  0  0  0  0
  4  3  2  0  0  0  0
  5  6  1  0  0  0  0
  6  3  1  6  0  0  0
  6 14  1  0  0  0  0
  7  4  1  0  0  0  0
  7  8  2  0  0  0  0
  8  5  1  0  0  0  0
  9 10  1  0  0  0  0
 12 13  1  0  0  0  0
 13 10  1  0  0  0  0
 13 11  2  0  0  0  0
 14 12  1  0  0  0  0
 14  9  1  1  0  0  0
 15 19  1  0  0  0  0
 17 15  2  0  0  0  0
 17 20  1  0  0  0  0
 18 20  2  0  0  0  0
 18 16  1  0  0  0  0
 19 16  2  0  0  0  0
 19 21  1  0  0  0  0
 21 22  1  0  0  0  0
 24 22  1  6  0  0  0
 24 27  1  0  0  0  0
 25 29  1  0  0  0  0
 25 23  1  1  0  0  0
 26 25  1  0  0  0  0
 27 29  1  0  0  0  0
 27 31  1  1  0  0  0
 28 24  1  0  0  0  0
 28 26  1  0  0  0  0
 31 30  1  6  0  0  0
 31 33  1  0  0  0  0
 33 32  1  0  0  0  0
 34  1  1  6  0  0  0
 36 34  1  0  0  0  0
 37 39  1  0  0  0  0
 37 38  1  0  0  0  0
 38 35  2  0  0  0  0
 38 34  1  0  0  0  0
 39 36  2  0  0  0  0
 40 41  1  0  0  0  0
 40 39  1  0  0  0  0
 42 41  1  0  0  0  0
M  END
>  <MODEL>
7

>  <REMARK>
 VINA RESULT:      -7.6      3.602      6.603
  Name = 
  11 active torsions:
  status: ('A' for Active; 'I' for Inactive)
    1  A    between atoms: C_7  and  C_17
    2  A    between atoms: C_7  and  C_20
    3  A    between atoms: O_8  and  C_34
    4  A    between atoms: C_9  and  O_37
    5  A    between atoms: C_15  and  C_29
    6  A    between atoms: C_15  and  O_37
    7  A    between atoms: C_18  and  C_35
    8  A    between atoms: C_24  and  C_26
    9  A    between atoms: C_24  and  C_31
   10  A    between atoms: C_34  and  C_41
   11  A    between atoms: N_40  and  C_42
                            x       y       z     vdW  Elec       q    Type
                         _______ _______ _______ _____ _____    ______ ____

>  <TORSDO>
F 11

$$$$
=
 OpenBabel10222420393D

 42 46  0  0  1  0  0  0  0  0999 V2000
  184.4610  179.0230  142.5530 C   0  0  0  0  0  0  0  0  0  0  0  0
  183.5890  178.8820  141.5890 N   0  0  0  0  0  0  0  0  0  0  0  0
  188.1190  178.6140  141.6870 C   0  0  0  0  0  3  0  0  0  0  0  0
  186.9030  179.1510  141.8070 C   0  0  0  0  0  3  0  0  0  0  0  0
  187.4290  176.7980  143.1970 N   0  0  0  0  0  2  0  0  0  0  0  0
  188.4060  177.2240  142.1900 C   0  0  2  0  0  3  0  0  0  0  0  0
  185.8170  178.4380  142.5120 C   0  0  0  0  0  0  0  0  0  0  0  0
  186.1050  177.3390  143.2200 C   0  0  0  0  0  3  0  0  0  0  0  0
  190.2340  175.6290  142.8490 C   0  0  0  0  0  2  0  0  0  0  0  0
  191.2630  175.5530  143.8660 N   0  0  0  0  0  2  0  0  0  0  0  0
  192.1360  176.8390  145.6070 O   0  0  0  0  0  0  0  0  0  0  0  0
  190.0810  177.9470  144.3120 S   0  0  0  0  0  0  0  0  0  0  0  0
  191.2800  176.6970  144.6950 C   0  0  0  0  0  0  0  0  0  0  0  0
  189.8360  177.0990  142.7060 C   0  0  2  0  0  3  0  0  0  0  0  0
  183.4760  176.5810  138.6190 C   0  0  0  0  0  3  0  0  0  0  0  0
  184.9300  178.4540  138.1350 C   0  0  0  0  0  3  0  0  0  0  0  0
  183.2150  177.1130  139.8850 C   0  0  0  0  0  3  0  0  0  0  0  0
  184.6650  178.9870  139.4010 C   0  0  0  0  0  3  0  0  0  0  0  0
  184.3360  177.2510  137.7440 C   0  0  0  0  0  0  0  0  0  0  0  0
  183.7890  178.3330  140.2770 C   0  0  0  0  0  0  0  0  0  0  0  0
  184.5780  176.7070  136.3810 C   0  0  0  0  0  2  0  0  0  0  0  0
  185.8990  176.9840  135.9910 O   0  0  0  0  0  0  0  0  0  0  0  0
  187.9440  171.6630  136.2330 C   0  0  0  0  0  1  0  0  0  0  0  0
  186.6000  175.7670  135.8360 C   0  0  1  0  0  3  0  0  0  0  0  0
  187.1960  172.9610  136.4400 C   0  0  2  0  0  3  0  0  0  0  0  0
  186.4880  173.3480  135.1500 C   0  0  0  0  0  2  0  0  0  0  0  0
  187.4660  175.3850  137.0650 C   0  0  1  0  0  3  0  0  0  0  0  0
  185.6870  174.6260  135.3620 C   0  0  0  0  0  2  0  0  0  0  0  0
  188.1830  174.0540  136.8310 C   0  0  0  0  0  2  0  0  0  0  0  0
  188.1260  177.1960  138.5260 O   0  0  0  0  0  1  0  0  0  0  0  0
  188.5160  176.4450  137.4130 C   0  0  1  0  0  3  0  0  0  0  0  0
  190.5130  176.3760  138.9030 C   0  0  0  0  0  1  0  0  0  0  0  0
  189.8820  175.8210  137.6420 C   0  0  0  0  0  2  0  0  0  0  0  0
  184.0550  179.7450  143.8050 C   0  0  2  0  0  3  0  0  0  0  0  0
  181.8540  178.7480  144.1280 O   0  0  0  0  0  0  0  0  0  0  0  0
  185.1510  179.7540  144.7660 N   0  0  0  0  0  0  0  0  0  0  0  0
  183.4640  178.6220  145.8420 N   0  0  0  0  0  2  0  0  0  0  0  0
  183.0120  179.0000  144.5550 C   0  0  0  0  0  0  0  0  0  0  0  0
  184.7860  179.1490  145.8520 C   0  0  0  0  0  0  0  0  0  0  0  0
  185.7010  178.9920  147.0140 C   0  0  0  0  0  2  0  0  0  0  0  0
  186.8370  178.2820  146.6260 O   0  0  0  0  0  0  0  0  0  0  0  0
  187.5680  178.1270  147.8010 C   0  0  0  0  0  1  0  0  0  0  0  0
  2  1  2  0  0  0  0
  3  4  2  0  0  0  0
  4  7  1  0  0  0  0
  5  8  1  0  0  0  0
  6  3  1  1  0  0  0
  6 14  1  0  0  0  0
  6  5  1  0  0  0  0
  7  1  1  0  0  0  0
  7  8  2  0  0  0  0
  9 10  1  0  0  0  0
 10 13  1  0  0  0  0
 12 13  1  0  0  0  0
 13 11  2  0  0  0  0
 14  9  1  1  0  0  0
 14 12  1  0  0  0  0
 15 17  1  0  0  0  0
 16 18  2  0  0  0  0
 17 20  2  0  0  0  0
 18 20  1  0  0  0  0
 19 16  1  0  0  0  0
 19 15  2  0  0  0  0
 20  2  1  0  0  0  0
 21 19  1  0  0  0  0
 22 21  1  0  0  0  0
 24 22  1  1  0  0  0
 24 27  1  0  0  0  0
 25 23  1  6  0  0  0
 25 29  1  0  0  0  0
 26 28  1  0  0  0  0
 26 25  1  0  0  0  0
 27 31  1  6  0  0  0
 28 24  1  0  0  0  0
 29 27  1  0  0  0  0
 31 33  1  0  0  0  0
 31 30  1  1  0  0  0
 33 32  1  0  0  0  0
 34  1  1  6  0  0  0
 34 38  1  0  0  0  0
 34 36  1  0  0  0  0
 35 38  2  0  0  0  0
 36 39  2  0  0  0  0
 37 39  1  0  0  0  0
 38 37  1  0  0  0  0
 39 40  1  0  0  0  0
 41 40  1  0  0  0  0
 41 42  1  0  0  0  0
M  END
>  <MODEL>
8

>  <REMARK>
 VINA RESULT:      -7.6      4.375     10.334
  Name = 
  11 active torsions:
  status: ('A' for Active; 'I' for Inactive)
    1  A    between atoms: C_7  and  C_17
    2  A    between atoms: C_7  and  C_20
    3  A    between atoms: O_8  and  C_34
    4  A    between atoms: C_9  and  O_37
    5  A    between atoms: C_15  and  C_29
    6  A    between atoms: C_15  and  O_37
    7  A    between atoms: C_18  and  C_35
    8  A    between atoms: C_24  and  C_26
    9  A    between atoms: C_24  and  C_31
   10  A    between atoms: C_34  and  C_41
   11  A    between atoms: N_40  and  C_42
                            x       y       z     vdW  Elec       q    Type
                         _______ _______ _______ _____ _____    ______ ____

>  <TORSDO>
F 11

$$$$
=
 OpenBabel10222420393D

 42 46  0  0  1  0  0  0  0  0999 V2000
  188.0430  178.0600  145.4500 C   0  0  0  0  0  0  0  0  0  0  0  0
  186.7710  178.2330  145.7000 N   0  0  0  0  0  0  0  0  0  0  0  0
  189.0310  176.0320  142.4140 C   0  0  0  0  0  3  0  0  0  0  0  0
  188.4960  176.3630  143.5930 C   0  0  0  0  0  3  0  0  0  0  0  0
  189.4660  178.4160  141.9820 N   0  0  0  0  0  2  0  0  0  0  0  0
  189.8020  177.0390  141.6030 C   0  0  2  0  0  3  0  0  0  0  0  0
  188.5690  177.7470  144.1060 C   0  0  0  0  0  0  0  0  0  0  0  0
  188.9860  178.7260  143.2940 C   0  0  0  0  0  3  0  0  0  0  0  0
  190.9790  176.7010  139.4080 C   0  0  0  0  0  2  0  0  0  0  0  0
  190.7930  177.1040  138.0290 N   0  0  0  0  0  2  0  0  0  0  0  0
  189.2520  178.2560  136.7090 O   0  0  0  0  0  0  0  0  0  0  0  0
  188.6370  178.1290  139.3040 S   0  0  0  0  0  0  0  0  0  0  0  0
  189.6120  177.8570  137.8470 C   0  0  0  0  0  0  0  0  0  0  0  0
  189.6230  176.8080  140.1060 C   0  0  2  0  0  3  0  0  0  0  0  0
  184.7860  178.2540  142.5090 C   0  0  0  0  0  3  0  0  0  0  0  0
  183.3860  179.0000  144.3370 C   0  0  0  0  0  3  0  0  0  0  0  0
  185.8510  178.0830  143.3970 C   0  0  0  0  0  3  0  0  0  0  0  0
  184.4520  178.8250  145.2260 C   0  0  0  0  0  3  0  0  0  0  0  0
  183.5530  178.7160  142.9790 C   0  0  0  0  0  0  0  0  0  0  0  0
  185.6850  178.3440  144.7680 C   0  0  0  0  0  0  0  0  0  0  0  0
  182.4070  178.8560  142.0400 C   0  0  0  0  0  2  0  0  0  0  0  0
  182.8880  178.9840  140.7260 O   0  0  0  0  0  0  0  0  0  0  0  0
  180.2570  174.6640  138.0850 C   0  0  0  0  0  1  0  0  0  0  0  0
  182.1460  178.1330  139.8770 C   0  0  1  0  0  3  0  0  0  0  0  0
  181.0840  175.5470  138.9950 C   0  0  2  0  0  3  0  0  0  0  0  0
  180.1800  176.5770  139.6570 C   0  0  0  0  0  2  0  0  0  0  0  0
  183.0230  177.1520  139.0550 C   0  0  1  0  0  3  0  0  0  0  0  0
  180.9920  177.4380  140.6150 C   0  0  0  0  0  2  0  0  0  0  0  0
  182.1520  176.2570  138.1720 C   0  0  0  0  0  2  0  0  0  0  0  0
  185.1650  178.2630  138.8980 O   0  0  0  0  0  1  0  0  0  0  0  0
  184.0440  177.8640  138.1630 C   0  0  1  0  0  3  0  0  0  0  0  0
  185.9330  177.1750  136.6890 C   0  0  0  0  0  1  0  0  0  0  0  0
  184.4580  176.9960  136.9870 C   0  0  0  0  0  2  0  0  0  0  0  0
  189.0230  178.1000  146.5870 C   0  0  2  0  0  3  0  0  0  0  0  0
  187.6830  176.9860  148.2910 O   0  0  0  0  0  0  0  0  0  0  0  0
  190.3490  177.7030  146.1300 N   0  0  0  0  0  0  0  0  0  0  0  0
  189.8050  176.1370  147.7230 N   0  0  0  0  0  2  0  0  0  0  0  0
  188.7330  177.0530  147.5990 C   0  0  0  0  0  0  0  0  0  0  0  0
  190.7370  176.6480  146.7760 C   0  0  0  0  0  0  0  0  0  0  0  0
  192.0510  176.0030  146.5180 C   0  0  0  0  0  2  0  0  0  0  0  0
  192.3870  175.1730  147.5870 O   0  0  0  0  0  0  0  0  0  0  0  0
  193.0780  176.0020  148.4680 C   0  0  0  0  0  1  0  0  0  0  0  0
  1  2  2  0  0  0  0
  3  4  2  0  0  0  0
  4  7  1  0  0  0  0
  5  8  1  0  0  0  0
  6  5  1  0  0  0  0
  6  3  1  1  0  0  0
  7  1  1  0  0  0  0
  8  7  2  0  0  0  0
 10  9  1  0  0  0  0
 11 13  2  0  0  0  0
 12 14  1  0  0  0  0
 13 10  1  0  0  0  0
 13 12  1  0  0  0  0
 14  9  1  6  0  0  0
 14  6  1  0  0  0  0
 15 19  2  0  0  0  0
 15 17  1  0  0  0  0
 16 18  2  0  0  0  0
 17 20  2  0  0  0  0
 19 16  1  0  0  0  0
 20 18  1  0  0  0  0
 20  2  1  0  0  0  0
 21 19  1  0  0  0  0
 22 21  1  0  0  0  0
 24 28  1  0  0  0  0
 24 22  1  1  0  0  0
 25 23  1  6  0  0  0
 25 26  1  0  0  0  0
 26 28  1  0  0  0  0
 27 31  1  6  0  0  0
 27 24  1  0  0  0  0
 29 25  1  0  0  0  0
 29 27  1  0  0  0  0
 31 30  1  1  0  0  0
 32 33  1  0  0  0  0
 33 31  1  0  0  0  0
 34  1  1  6  0  0  0
 34 38  1  0  0  0  0
 36 34  1  0  0  0  0
 36 39  2  0  0  0  0
 38 37  1  0  0  0  0
 38 35  2  0  0  0  0
 39 37  1  0  0  0  0
 40 39  1  0  0  0  0
 40 41  1  0  0  0  0
 41 42  1  0  0  0  0
M  END
>  <MODEL>
9

>  <REMARK>
 VINA RESULT:      -7.5      4.341      9.110
  Name = 
  11 active torsions:
  status: ('A' for Active; 'I' for Inactive)
    1  A    between atoms: C_7  and  C_17
    2  A    between atoms: C_7  and  C_20
    3  A    between atoms: O_8  and  C_34
    4  A    between atoms: C_9  and  O_37
    5  A    between atoms: C_15  and  C_29
    6  A    between atoms: C_15  and  O_37
    7  A    between atoms: C_18  and  C_35
    8  A    between atoms: C_24  and  C_26
    9  A    between atoms: C_24  and  C_31
   10  A    between atoms: C_34  and  C_41
   11  A    between atoms: N_40  and  C_42
                            x       y       z     vdW  Elec       q    Type
                         _______ _______ _______ _____ _____    ______ ____

>  <TORSDO>
F 11

$$$$
