=
 OpenBabel10222418253D

 26 28  0  0  1  0  0  0  0  0999 V2000
  187.5620  177.2570  145.3400 C   0  0  0  0  0  0  0  0  0  0  0  0
  185.7030  180.2030  142.9580 C   0  0  0  0  0  3  0  0  0  0  0  0
  185.5230  178.2740  146.1720 C   0  0  0  0  0  0  0  0  0  0  0  0
  189.5790  177.4470  146.8100 C   0  0  0  0  0  2  0  0  0  0  0  0
  186.7710  177.9520  146.3830 C   0  0  0  0  0  0  0  0  0  0  0  0
  189.6140  176.3390  144.5870 O   0  0  0  0  0  1  0  0  0  0  0  0
  186.9510  177.5260  143.0110 C   0  0  0  0  0  0  0  0  0  0  0  0
  183.7970  178.0060  141.6920 C   0  0  0  0  0  2  0  0  0  0  0  0
  184.7360  178.9520  140.9350 C   0  0  0  0  0  2  0  0  0  0  0  0
  187.4100  178.3400  147.6410 C   0  0  0  0  0  3  0  0  0  0  0  0
  184.8540  179.7420  143.8290 C   0  0  0  0  0  0  0  0  0  0  0  0
  184.2870  178.5760  145.8700 C   0  0  0  0  0  3  0  0  0  0  0  0
  182.6900  178.6430  143.8930 C   0  0  0  0  0  2  0  0  0  0  0  0
  186.9130  176.7980  144.0950 C   0  0  0  0  0  3  0  0  0  0  0  0
  183.9410  179.1550  144.5610 C   0  0  0  0  0  0  0  0  0  0  0  0
  188.7040  178.1010  147.8500 C   0  0  0  0  0  0  0  0  0  0  0  0
  186.9960  178.2690  141.9280 C   0  0  0  0  0  0  0  0  0  0  0  0
  189.2710  178.4790  149.0600 O   0  0  0  0  0  1  0  0  0  0  0  0
  188.8680  177.0110  145.5500 C   0  0  0  0  0  0  0  0  0  0  0  0
  185.9880  179.3820  141.7280 C   0  0  2  0  0  3  0  0  0  0  0  0
  182.6660  178.7910  142.3620 C   0  0  2  0  0  3  0  0  0  0  0  0
  181.3340  178.3070  141.8300 C   0  0  0  0  0  1  0  0  0  0  0  0
  189.3910  177.7170  141.3290 C   0  0  0  0  0  1  0  0  0  0  0  0
  188.0260  178.0440  140.9400 N   0  0  0  0  0  0  0  0  0  0  0  0
  187.7770  178.2650  139.5220 C   0  0  0  0  0  2  0  0  0  0  0  0
  189.0690  178.6110  138.8090 C   0  0  0  0  0  1  0  0  0  0  0  0
  1 19  2  0  0  0  0
  1  5  1  0  0  0  0
  2 11  2  0  0  0  0
  3  5  2  0  0  0  0
  4 16  1  0  0  0  0
  5 10  1  0  0  0  0
  6 19  1  0  0  0  0
  7 14  2  0  0  0  0
  8 21  1  0  0  0  0
  9  8  1  0  0  0  0
 10 16  2  0  0  0  0
 11 15  2  0  0  0  0
 12  3  2  0  0  0  0
 13 15  1  0  0  0  0
 14  1  1  0  0  0  0
 15 12  1  0  0  0  0
 16 18  1  0  0  0  0
 17  7  2  0  0  0  0
 19  4  1  0  0  0  0
 20  9  1  1  0  0  0
 20 17  1  0  0  0  0
 20  2  1  0  0  0  0
 21 22  1  6  0  0  0
 21 13  1  0  0  0  0
 24 23  1  0  0  0  0
 24 17  1  0  0  0  0
 25 24  1  0  0  0  0
 26 25  1  0  0  0  0
M  END
>  <MODEL>
1

>  <REMARK>
 VINA RESULT:      -9.6      0.000      0.000
  Name = 
  2 active torsions:
  status: ('A' for Active; 'I' for Inactive)
    1  A    between atoms: C_18  and  N_22
    2  A    between atoms: C_19  and  N_22
                            x       y       z     vdW  Elec       q    Type
                         _______ _______ _______ _____ _____    ______ ____

>  <TORSDO>
F 2

$$$$
=
 OpenBabel10222418253D

 26 28  0  0  1  0  0  0  0  0999 V2000
  185.2780  178.9610  141.6710 C   0  0  0  0  0  0  0  0  0  0  0  0
  187.4630  175.9230  143.6230 C   0  0  0  0  0  3  0  0  0  0  0  0
  184.7660  178.5060  143.9990 C   0  0  0  0  0  0  0  0  0  0  0  0
  183.3770  178.7580  140.0560 C   0  0  0  0  0  2  0  0  0  0  0  0
  184.3370  178.6520  142.7750 C   0  0  0  0  0  0  0  0  0  0  0  0
  185.6930  179.3350  139.3670 O   0  0  0  0  0  1  0  0  0  0  0  0
  187.6000  178.2990  141.8720 C   0  0  0  0  0  0  0  0  0  0  0  0
  189.4980  178.0810  144.7480 C   0  0  0  0  0  2  0  0  0  0  0  0
  189.8420  176.8490  143.9030 C   0  0  0  0  0  2  0  0  0  0  0  0
  182.9180  178.4450  142.4810 C   0  0  0  0  0  3  0  0  0  0  0  0
  186.9040  176.6980  144.5050 C   0  0  0  0  0  0  0  0  0  0  0  0
  185.2850  178.3570  145.1900 C   0  0  0  0  0  3  0  0  0  0  0  0
  187.5300  178.1320  146.3610 C   0  0  0  0  0  2  0  0  0  0  0  0
  186.6990  179.2410  141.9620 C   0  0  0  0  0  3  0  0  0  0  0  0
  186.5150  177.5750  145.3950 C   0  0  0  0  0  0  0  0  0  0  0  0
  182.4650  178.5020  141.2300 C   0  0  0  0  0  0  0  0  0  0  0  0
  188.4960  177.3420  141.7800 C   0  0  0  0  0  0  0  0  0  0  0  0
  181.1110  178.3060  140.9950 O   0  0  0  0  0  1  0  0  0  0  0  0
  184.8230  179.0230  140.4070 C   0  0  0  0  0  0  0  0  0  0  0  0
  188.7210  176.3980  142.9430 C   0  0  2  0  0  3  0  0  0  0  0  0
  188.9760  177.6610  146.1250 C   0  0  2  0  0  3  0  0  0  0  0  0
  189.8740  178.2360  147.2000 C   0  0  0  0  0  1  0  0  0  0  0  0
  190.6870  176.9600  140.5750 C   0  0  0  0  0  1  0  0  0  0  0  0
  189.2460  177.1710  140.5570 N   0  0  0  0  0  0  0  0  0  0  0  0
  188.6160  177.3330  139.2540 C   0  0  0  0  0  2  0  0  0  0  0  0
  189.1630  178.5630  138.5560 C   0  0  0  0  0  1  0  0  0  0  0  0
  1 14  1  0  0  0  0
  1  5  1  0  0  0  0
  2 11  2  0  0  0  0
  3 12  2  0  0  0  0
  4 19  1  0  0  0  0
  4 16  1  0  0  0  0
  5  3  2  0  0  0  0
  6 19  1  0  0  0  0
  7 14  2  0  0  0  0
  8 21  1  0  0  0  0
  9  8  1  0  0  0  0
 10  5  1  0  0  0  0
 11 15  2  0  0  0  0
 12 15  1  0  0  0  0
 15 13  1  0  0  0  0
 16 10  2  0  0  0  0
 17  7  2  0  0  0  0
 17 20  1  0  0  0  0
 18 16  1  0  0  0  0
 19  1  2  0  0  0  0
 20  2  1  1  0  0  0
 20  9  1  0  0  0  0
 21 13  1  0  0  0  0
 21 22  1  1  0  0  0
 24 23  1  0  0  0  0
 24 17  1  0  0  0  0
 25 24  1  0  0  0  0
 26 25  1  0  0  0  0
M  END
>  <MODEL>
2

>  <REMARK>
 VINA RESULT:      -9.0      2.696      5.710
  Name = 
  2 active torsions:
  status: ('A' for Active; 'I' for Inactive)
    1  A    between atoms: C_18  and  N_22
    2  A    between atoms: C_19  and  N_22
                            x       y       z     vdW  Elec       q    Type
                         _______ _______ _______ _____ _____    ______ ____

>  <TORSDO>
F 2

$$$$
=
 OpenBabel10222418253D

 26 28  0  0  1  0  0  0  0  0999 V2000
  186.1100  178.6360  140.9450 C   0  0  0  0  0  0  0  0  0  0  0  0
  187.9610  175.7640  143.4220 C   0  0  0  0  0  3  0  0  0  0  0  0
  185.1660  178.2520  143.1470 C   0  0  0  0  0  0  0  0  0  0  0  0
  184.5710  178.2980  139.0010 C   0  0  0  0  0  2  0  0  0  0  0  0
  184.9810  178.3340  141.8570 C   0  0  0  0  0  0  0  0  0  0  0  0
  186.9580  178.9370  138.7520 O   0  0  0  0  0  1  0  0  0  0  0  0
  188.3670  178.0740  141.6250 C   0  0  0  0  0  0  0  0  0  0  0  0
  189.6680  178.0410  144.8230 C   0  0  0  0  0  2  0  0  0  0  0  0
  190.2090  176.7910  144.1180 C   0  0  0  0  0  2  0  0  0  0  0  0
  183.6540  178.0610  141.3020 C   0  0  0  0  0  3  0  0  0  0  0  0
  187.2160  176.5500  144.1420 C   0  0  0  0  0  0  0  0  0  0  0  0
  185.4440  178.1700  144.4210 C   0  0  0  0  0  3  0  0  0  0  0  0
  187.4210  178.0770  146.0170 C   0  0  0  0  0  2  0  0  0  0  0  0
  187.4370  178.9830  141.4940 C   0  0  0  0  0  3  0  0  0  0  0  0
  186.6330  177.4450  144.8980 C   0  0  0  0  0  0  0  0  0  0  0  0
  183.4540  178.0520  139.9850 C   0  0  0  0  0  0  0  0  0  0  0  0
  189.2920  177.1490  141.7530 C   0  0  0  0  0  0  0  0  0  0  0  0
  182.1800  177.7950  139.5000 O   0  0  0  0  0  1  0  0  0  0  0  0
  185.9110  178.6320  139.6150 C   0  0  0  0  0  0  0  0  0  0  0  0
  189.3130  176.2600  142.9790 C   0  0  2  0  0  3  0  0  0  0  0  0
  188.8990  177.6540  146.0890 C   0  0  2  0  0  3  0  0  0  0  0  0
  189.5500  178.3040  147.2910 C   0  0  0  0  0  1  0  0  0  0  0  0
  191.6520  177.3970  140.8760 C   0  0  0  0  0  1  0  0  0  0  0  0
  190.2730  176.9600  140.7100 N   0  0  0  0  0  0  0  0  0  0  0  0
  189.8950  176.4460  139.4000 C   0  0  0  0  0  2  0  0  0  0  0  0
  190.1040  177.5080  138.3380 C   0  0  0  0  0  1  0  0  0  0  0  0
  1 14  1  0  0  0  0
  1  5  1  0  0  0  0
  2 11  2  0  0  0  0
  3 12  2  0  0  0  0
  4 19  1  0  0  0  0
  4 16  1  0  0  0  0
  5  3  2  0  0  0  0
  6 19  1  0  0  0  0
  7 17  2  0  0  0  0
  8 21  1  0  0  0  0
  9  8  1  0  0  0  0
 10  5  1  0  0  0  0
 11 15  2  0  0  0  0
 12 15  1  0  0  0  0
 13 21  1  0  0  0  0
 14  7  2  0  0  0  0
 15 13  1  0  0  0  0
 16 10  2  0  0  0  0
 17 20  1  0  0  0  0
 18 16  1  0  0  0  0
 19  1  2  0  0  0  0
 20  2  1  1  0  0  0
 20  9  1  0  0  0  0
 21 22  1  1  0  0  0
 24 23  1  0  0  0  0
 24 17  1  0  0  0  0
 25 24  1  0  0  0  0
 26 25  1  0  0  0  0
M  END
>  <MODEL>
3

>  <REMARK>
 VINA RESULT:      -8.7      2.894      5.926
  Name = 
  2 active torsions:
  status: ('A' for Active; 'I' for Inactive)
    1  A    between atoms: C_18  and  N_22
    2  A    between atoms: C_19  and  N_22
                            x       y       z     vdW  Elec       q    Type
                         _______ _______ _______ _____ _____    ______ ____

>  <TORSDO>
F 2

$$$$
=
 OpenBabel10222418253D

 26 28  0  0  1  0  0  0  0  0999 V2000
  190.4100  177.5580  146.2140 C   0  0  0  0  0  0  0  0  0  0  0  0
  187.9300  175.9200  143.2190 C   0  0  0  0  0  3  0  0  0  0  0  0
  191.4730  176.5750  144.2670 C   0  0  0  0  0  0  0  0  0  0  0  0
  191.0580  176.6020  148.4350 C   0  0  0  0  0  2  0  0  0  0  0  0
  191.3790  176.6410  145.5680 C   0  0  0  0  0  0  0  0  0  0  0  0
  189.3850  178.4190  148.1700 O   0  0  0  0  0  1  0  0  0  0  0  0
  188.4170  178.2210  145.0070 C   0  0  0  0  0  0  0  0  0  0  0  0
  188.0490  178.6460  141.6000 C   0  0  0  0  0  2  0  0  0  0  0  0
  186.7880  177.9240  142.0900 C   0  0  0  0  0  2  0  0  0  0  0  0
  192.1970  175.7510  146.3930 C   0  0  0  0  0  3  0  0  0  0  0  0
  189.1160  176.1410  142.7340 C   0  0  0  0  0  0  0  0  0  0  0  0
  191.4870  176.5590  142.9600 C   0  0  0  0  0  3  0  0  0  0  0  0
  190.1760  177.4060  140.9530 C   0  0  0  0  0  2  0  0  0  0  0  0
  189.6300  178.5110  145.3990 C   0  0  0  0  0  3  0  0  0  0  0  0
  190.2360  176.5370  142.1840 C   0  0  0  0  0  0  0  0  0  0  0  0
  192.0620  175.7340  147.7190 C   0  0  0  0  0  0  0  0  0  0  0  0
  187.1990  177.9160  144.6180 C   0  0  0  0  0  0  0  0  0  0  0  0
  192.8610  174.8800  148.4660 O   0  0  0  0  0  1  0  0  0  0  0  0
  190.2740  177.5460  147.5520 C   0  0  0  0  0  0  0  0  0  0  0  0
  186.9870  177.0850  143.3690 C   0  0  2  0  0  3  0  0  0  0  0  0
  188.7580  177.8210  140.5220 C   0  0  2  0  0  3  0  0  0  0  0  0
  188.8360  178.6270  139.2430 C   0  0  0  0  0  1  0  0  0  0  0  0
  186.1820  178.6250  146.8230 C   0  0  0  0  0  1  0  0  0  0  0  0
  186.0630  178.3480  145.3980 N   0  0  0  0  0  0  0  0  0  0  0  0
  184.7250  178.3990  144.8230 C   0  0  0  0  0  2  0  0  0  0  0  0
  184.4790  179.7530  144.1860 C   0  0  0  0  0  1  0  0  0  0  0  0
  1 19  2  0  0  0  0
  2 20  1  0  0  0  0
  3  5  2  0  0  0  0
  5  1  1  0  0  0  0
  5 10  1  0  0  0  0
  7 14  2  0  0  0  0
  8  9  1  0  0  0  0
 10 16  2  0  0  0  0
 11  2  2  0  0  0  0
 12  3  2  0  0  0  0
 13 15  1  0  0  0  0
 14  1  1  0  0  0  0
 15 11  2  0  0  0  0
 15 12  1  0  0  0  0
 16  4  1  0  0  0  0
 16 18  1  0  0  0  0
 17  7  2  0  0  0  0
 17 24  1  0  0  0  0
 19  6  1  0  0  0  0
 19  4  1  0  0  0  0
 20  9  1  6  0  0  0
 20 17  1  0  0  0  0
 21 22  1  6  0  0  0
 21 13  1  0  0  0  0
 21  8  1  0  0  0  0
 24 23  1  0  0  0  0
 25 24  1  0  0  0  0
 26 25  1  0  0  0  0
M  END
>  <MODEL>
4

>  <REMARK>
 VINA RESULT:      -7.9      2.174      5.316
  Name = 
  2 active torsions:
  status: ('A' for Active; 'I' for Inactive)
    1  A    between atoms: C_18  and  N_22
    2  A    between atoms: C_19  and  N_22
                            x       y       z     vdW  Elec       q    Type
                         _______ _______ _______ _____ _____    ______ ____

>  <TORSDO>
F 2

$$$$
=
 OpenBabel10222418253D

 26 28  0  0  1  0  0  0  0  0999 V2000
  190.2050  178.2620  142.5480 C   0  0  0  0  0  0  0  0  0  0  0  0
  186.8080  176.2860  144.0870 C   0  0  0  0  0  3  0  0  0  0  0  0
  188.1700  178.2990  141.2270 C   0  0  0  0  0  0  0  0  0  0  0  0
  192.2310  177.3000  141.4390 C   0  0  0  0  0  2  0  0  0  0  0  0
  189.4500  178.0540  141.2890 C   0  0  0  0  0  0  0  0  0  0  0  0
  192.2270  178.1350  143.7780 O   0  0  0  0  0  1  0  0  0  0  0  0
  189.0340  178.1410  144.6660 C   0  0  0  0  0  0  0  0  0  0  0  0
  185.7590  179.0110  145.3270 C   0  0  0  0  0  2  0  0  0  0  0  0
  186.0240  177.7020  146.0800 C   0  0  0  0  0  2  0  0  0  0  0  0
  190.1340  177.5060  140.1160 C   0  0  0  0  0  3  0  0  0  0  0  0
  186.4460  177.1280  143.1640 C   0  0  0  0  0  0  0  0  0  0  0  0
  186.8870  178.5520  141.2610 C   0  0  0  0  0  3  0  0  0  0  0  0
  185.0100  179.0670  142.8950 C   0  0  0  0  0  2  0  0  0  0  0  0
  189.5450  178.8790  143.7170 C   0  0  0  0  0  3  0  0  0  0  0  0
  186.0490  178.1020  142.3840 C   0  0  0  0  0  0  0  0  0  0  0  0
  191.4210  177.1650  140.1740 C   0  0  0  0  0  0  0  0  0  0  0  0
  188.5220  177.3850  145.6120 C   0  0  0  0  0  0  0  0  0  0  0  0
  192.0330  176.6550  139.0380 O   0  0  0  0  0  1  0  0  0  0  0  0
  191.5050  177.9230  142.6090 C   0  0  0  0  0  0  0  0  0  0  0  0
  187.1260  176.8180  145.4590 C   0  0  2  0  0  3  0  0  0  0  0  0
  184.5850  178.8460  144.3580 C   0  0  2  0  0  3  0  0  0  0  0  0
  183.4930  179.8320  144.7190 C   0  0  0  0  0  1  0  0  0  0  0  0
  190.7270  176.7810  146.6940 C   0  0  0  0  0  1  0  0  0  0  0  0
  189.3030  177.0710  146.7860 N   0  0  0  0  0  0  0  0  0  0  0  0
  188.6760  176.9030  148.0900 C   0  0  0  0  0  2  0  0  0  0  0  0
  188.4720  178.2520  148.7520 C   0  0  0  0  0  1  0  0  0  0  0  0
  1 19  2  0  0  0  0
  1 14  1  0  0  0  0
  3 12  2  0  0  0  0
  3  5  2  0  0  0  0
  4 19  1  0  0  0  0
  5  1  1  0  0  0  0
  7 17  2  0  0  0  0
  8  9  1  0  0  0  0
 10 16  2  0  0  0  0
 10  5  1  0  0  0  0
 11  2  2  0  0  0  0
 12 15  1  0  0  0  0
 13 21  1  0  0  0  0
 14  7  2  0  0  0  0
 15 13  1  0  0  0  0
 15 11  2  0  0  0  0
 16  4  1  0  0  0  0
 17 24  1  0  0  0  0
 18 16  1  0  0  0  0
 19  6  1  0  0  0  0
 20  2  1  6  0  0  0
 20 17  1  0  0  0  0
 20  9  1  0  0  0  0
 21 22  1  1  0  0  0
 21  8  1  0  0  0  0
 23 24  1  0  0  0  0
 24 25  1  0  0  0  0
 25 26  1  0  0  0  0
M  END
>  <MODEL>
5

>  <REMARK>
 VINA RESULT:      -7.8      2.313      5.653
  Name = 
  2 active torsions:
  status: ('A' for Active; 'I' for Inactive)
    1  A    between atoms: C_18  and  N_22
    2  A    between atoms: C_19  and  N_22
                            x       y       z     vdW  Elec       q    Type
                         _______ _______ _______ _____ _____    ______ ____

>  <TORSDO>
F 2

$$$$
=
 OpenBabel10222418253D

 26 28  0  0  1  0  0  0  0  0999 V2000
  186.2060  177.6990  144.0910 C   0  0  0  0  0  0  0  0  0  0  0  0
  189.8780  179.2960  142.7570 C   0  0  0  0  0  3  0  0  0  0  0  0
  186.3570  178.4360  141.7840 C   0  0  0  0  0  0  0  0  0  0  0  0
  184.4240  178.7710  145.4840 C   0  0  0  0  0  2  0  0  0  0  0  0
  185.7260  178.4800  142.9250 C   0  0  0  0  0  0  0  0  0  0  0  0
  186.0150  177.0820  146.3710 O   0  0  0  0  0  1  0  0  0  0  0  0
  188.5510  177.1100  144.2380 C   0  0  0  0  0  0  0  0  0  0  0  0
  190.7350  176.4510  141.6460 C   0  0  0  0  0  2  0  0  0  0  0  0
  191.5030  177.3100  142.6570 C   0  0  0  0  0  2  0  0  0  0  0  0
  184.5660  179.3620  143.0710 C   0  0  0  0  0  3  0  0  0  0  0  0
  189.1560  178.9400  141.7350 C   0  0  0  0  0  0  0  0  0  0  0  0
  187.0610  178.3470  140.6850 C   0  0  0  0  0  3  0  0  0  0  0  0
  189.2780  177.4560  139.8180 C   0  0  0  0  0  2  0  0  0  0  0  0
  187.3300  176.7530  143.9400 C   0  0  0  0  0  3  0  0  0  0  0  0
  188.5320  178.4120  140.7140 C   0  0  0  0  0  0  0  0  0  0  0  0
  183.9530  179.4940  144.2470 C   0  0  0  0  0  0  0  0  0  0  0  0
  189.7750  177.4830  144.5400 C   0  0  0  0  0  0  0  0  0  0  0  0
  182.8540  180.3350  144.3410 O   0  0  0  0  0  1  0  0  0  0  0  0
  185.5870  177.8280  145.2780 C   0  0  0  0  0  0  0  0  0  0  0  0
  190.6140  178.2280  143.5230 C   0  0  2  0  0  3  0  0  0  0  0  0
  190.7110  177.1270  140.2730 C   0  0  2  0  0  3  0  0  0  0  0  0
  191.3660  176.2190  139.2540 C   0  0  0  0  0  1  0  0  0  0  0  0
  189.5480  177.5030  147.0590 C   0  0  0  0  0  1  0  0  0  0  0  0
  190.3100  177.2080  145.8530 N   0  0  0  0  0  0  0  0  0  0  0  0
  191.6810  176.7500  146.0320 C   0  0  0  0  0  2  0  0  0  0  0  0
  191.8180  176.0030  147.3440 C   0  0  0  0  0  1  0  0  0  0  0  0
  1 19  2  0  0  0  0
  2 20  1  0  0  0  0
  3  5  2  0  0  0  0
  5 10  1  0  0  0  0
  5  1  1  0  0  0  0
  7 17  2  0  0  0  0
  8  9  1  0  0  0  0
 10 16  2  0  0  0  0
 11  2  2  0  0  0  0
 12 15  1  0  0  0  0
 12  3  2  0  0  0  0
 13 21  1  0  0  0  0
 13 15  1  0  0  0  0
 14  1  1  0  0  0  0
 14  7  2  0  0  0  0
 15 11  2  0  0  0  0
 16 18  1  0  0  0  0
 16  4  1  0  0  0  0
 17 24  1  0  0  0  0
 19  4  1  0  0  0  0
 19  6  1  0  0  0  0
 20  9  1  6  0  0  0
 20 17  1  0  0  0  0
 21 22  1  6  0  0  0
 21  8  1  0  0  0  0
 24 25  1  0  0  0  0
 24 23  1  0  0  0  0
 25 26  1  0  0  0  0
M  END
>  <MODEL>
6

>  <REMARK>
 VINA RESULT:      -7.6      2.587      6.029
  Name = 
  2 active torsions:
  status: ('A' for Active; 'I' for Inactive)
    1  A    between atoms: C_18  and  N_22
    2  A    between atoms: C_19  and  N_22
                            x       y       z     vdW  Elec       q    Type
                         _______ _______ _______ _____ _____    ______ ____

>  <TORSDO>
F 2

$$$$
=
 OpenBabel10222418253D

 26 28  0  0  1  0  0  0  0  0999 V2000
  188.1440  177.3380  142.2320 C   0  0  0  0  0  0  0  0  0  0  0  0
  190.3400  178.8550  145.5020 C   0  0  0  0  0  3  0  0  0  0  0  0
  190.5320  176.9090  142.2980 C   0  0  0  0  0  0  0  0  0  0  0  0
  187.2870  178.5340  140.2070 C   0  0  0  0  0  2  0  0  0  0  0  0
  189.5000  177.3530  141.6320 C   0  0  0  0  0  0  0  0  0  0  0  0
  185.8330  177.8490  142.1010 O   0  0  0  0  0  1  0  0  0  0  0  0
  187.9140  177.4040  144.6420 C   0  0  0  0  0  0  0  0  0  0  0  0
  190.0490  176.0800  147.0110 C   0  0  0  0  0  2  0  0  0  0  0  0
  189.6190  177.4570  147.5310 C   0  0  0  0  0  2  0  0  0  0  0  0
  189.6980  177.9280  140.3010 C   0  0  0  0  0  3  0  0  0  0  0  0
  191.0200  177.9140  144.9140 C   0  0  0  0  0  0  0  0  0  0  0  0
  191.5090  176.4640  143.0430 C   0  0  0  0  0  3  0  0  0  0  0  0
  192.0210  175.7640  145.4330 C   0  0  0  0  0  2  0  0  0  0  0  0
  187.9180  176.6980  143.5430 C   0  0  0  0  0  3  0  0  0  0  0  0
  191.6240  176.8460  144.4600 C   0  0  0  0  0  0  0  0  0  0  0  0
  188.6800  178.4670  139.6320 C   0  0  0  0  0  0  0  0  0  0  0  0
  187.9140  178.1260  145.7410 C   0  0  0  0  0  0  0  0  0  0  0  0
  188.9080  178.9960  138.3700 O   0  0  0  0  0  1  0  0  0  0  0  0
  187.1130  177.8780  141.5570 C   0  0  0  0  0  0  0  0  0  0  0  0
  189.2210  178.4610  146.4290 C   0  0  2  0  0  3  0  0  0  0  0  0
  191.5730  176.0030  146.8860 C   0  0  2  0  0  3  0  0  0  0  0  0
  192.0940  174.8840  147.7630 C   0  0  0  0  0  1  0  0  0  0  0  0
  186.4040  178.6280  147.7080 C   0  0  0  0  0  1  0  0  0  0  0  0
  186.6690  178.6270  146.2760 N   0  0  0  0  0  0  0  0  0  0  0  0
  185.5760  179.0280  145.4000 C   0  0  0  0  0  2  0  0  0  0  0  0
  184.2440  178.6280  146.0050 C   0  0  0  0  0  1  0  0  0  0  0  0
  1 14  1  0  0  0  0
  3 12  2  0  0  0  0
  4 19  1  0  0  0  0
  5  1  1  0  0  0  0
  5  3  2  0  0  0  0
  7 17  2  0  0  0  0
  8  9  1  0  0  0  0
 10  5  1  0  0  0  0
 11  2  2  0  0  0  0
 12 15  1  0  0  0  0
 13 21  1  0  0  0  0
 14  7  2  0  0  0  0
 15 11  2  0  0  0  0
 15 13  1  0  0  0  0
 16  4  1  0  0  0  0
 16 10  2  0  0  0  0
 17 24  1  0  0  0  0
 17 20  1  0  0  0  0
 18 16  1  0  0  0  0
 19  6  1  0  0  0  0
 19  1  2  0  0  0  0
 20  2  1  6  0  0  0
 20  9  1  0  0  0  0
 21  8  1  0  0  0  0
 21 22  1  1  0  0  0
 24 23  1  0  0  0  0
 25 26  1  0  0  0  0
 25 24  1  0  0  0  0
M  END
>  <MODEL>
7

>  <REMARK>
 VINA RESULT:      -7.5      2.853      7.276
  Name = 
  2 active torsions:
  status: ('A' for Active; 'I' for Inactive)
    1  A    between atoms: C_18  and  N_22
    2  A    between atoms: C_19  and  N_22
                            x       y       z     vdW  Elec       q    Type
                         _______ _______ _______ _____ _____    ______ ____

>  <TORSDO>
F 2

$$$$
=
 OpenBabel10222418253D

 26 28  0  0  1  0  0  0  0  0999 V2000
  187.5870  178.6300  140.3690 C   0  0  0  0  0  0  0  0  0  0  0  0
  186.9460  176.2100  143.7670 C   0  0  0  0  0  3  0  0  0  0  0  0
  185.4150  178.7310  141.4460 C   0  0  0  0  0  0  0  0  0  0  0  0
  187.5990  177.9940  137.9490 C   0  0  0  0  0  2  0  0  0  0  0  0
  186.1060  178.5670  140.3500 C   0  0  0  0  0  0  0  0  0  0  0  0
  189.6670  178.4540  139.2450 O   0  0  0  0  0  1  0  0  0  0  0  0
  188.7700  178.1020  142.4160 C   0  0  0  0  0  0  0  0  0  0  0  0
  187.7230  178.6310  145.6640 C   0  0  0  0  0  2  0  0  0  0  0  0
  188.3740  177.2430  145.6340 C   0  0  0  0  0  2  0  0  0  0  0  0
  185.4100  178.2570  139.1010 C   0  0  0  0  0  3  0  0  0  0  0  0
  186.0560  177.1580  143.7280 C   0  0  0  0  0  0  0  0  0  0  0  0
  184.8050  178.8860  142.5910 C   0  0  0  0  0  3  0  0  0  0  0  0
  185.2730  179.0110  145.0870 C   0  0  0  0  0  2  0  0  0  0  0  0
  188.3000  179.0120  141.6060 C   0  0  0  0  0  3  0  0  0  0  0  0
  185.2830  178.2110  143.8090 C   0  0  0  0  0  0  0  0  0  0  0  0
  186.0910  178.0000  137.9850 C   0  0  0  0  0  0  0  0  0  0  0  0
  189.2370  177.1750  143.2240 C   0  0  0  0  0  0  0  0  0  0  0  0
  185.3920  177.7160  136.8200 O   0  0  0  0  0  1  0  0  0  0  0  0
  188.2780  178.3760  139.2440 C   0  0  0  0  0  0  0  0  0  0  0  0
  188.3300  176.5440  144.2590 C   0  0  2  0  0  3  0  0  0  0  0  0
  186.2760  178.5380  146.1540 C   0  0  2  0  0  3  0  0  0  0  0  0
  186.1140  179.3780  147.4040 C   0  0  0  0  0  1  0  0  0  0  0  0
  190.9940  175.3640  143.3960 C   0  0  0  0  0  1  0  0  0  0  0  0
  190.6080  176.7380  143.1050 N   0  0  0  0  0  0  0  0  0  0  0  0
  191.6810  177.6810  142.8170 C   0  0  0  0  0  2  0  0  0  0  0  0
  191.9010  178.6030  144.0010 C   0  0  0  0  0  1  0  0  0  0  0  0
  1 14  1  0  0  0  0
  3 12  2  0  0  0  0
  4 16  1  0  0  0  0
  4 19  1  0  0  0  0
  5  1  1  0  0  0  0
  5  3  2  0  0  0  0
  7 17  2  0  0  0  0
  8 21  1  0  0  0  0
  9  8  1  0  0  0  0
 10  5  1  0  0  0  0
 11  2  2  0  0  0  0
 11 15  2  0  0  0  0
 12 15  1  0  0  0  0
 13 21  1  0  0  0  0
 14  7  2  0  0  0  0
 15 13  1  0  0  0  0
 16 10  2  0  0  0  0
 17 20  1  0  0  0  0
 18 16  1  0  0  0  0
 19  6  1  0  0  0  0
 19  1  2  0  0  0  0
 20  2  1  6  0  0  0
 20  9  1  0  0  0  0
 21 22  1  1  0  0  0
 24 17  1  0  0  0  0
 24 23  1  0  0  0  0
 25 24  1  0  0  0  0
 25 26  1  0  0  0  0
M  END
>  <MODEL>
8

>  <REMARK>
 VINA RESULT:      -7.3      2.776      5.960
  Name = 
  2 active torsions:
  status: ('A' for Active; 'I' for Inactive)
    1  A    between atoms: C_18  and  N_22
    2  A    between atoms: C_19  and  N_22
                            x       y       z     vdW  Elec       q    Type
                         _______ _______ _______ _____ _____    ______ ____

>  <TORSDO>
F 2

$$$$
=
 OpenBabel10222418253D

 26 28  0  0  1  0  0  0  0  0999 V2000
  186.4100  177.6190  143.1600 C   0  0  0  0  0  0  0  0  0  0  0  0
  190.1740  178.7210  144.7160 C   0  0  0  0  0  3  0  0  0  0  0  0
  188.3720  177.2100  141.7920 C   0  0  0  0  0  0  0  0  0  0  0  0
  184.6300  179.0570  142.1470 C   0  0  0  0  0  2  0  0  0  0  0  0
  187.1770  177.7250  141.8960 C   0  0  0  0  0  0  0  0  0  0  0  0
  184.4780  178.1170  144.4410 O   0  0  0  0  0  1  0  0  0  0  0  0
  187.6030  177.3680  145.2530 C   0  0  0  0  0  0  0  0  0  0  0  0
  190.6160  175.7710  145.7950 C   0  0  0  0  0  2  0  0  0  0  0  0
  190.6520  177.0640  146.6180 C   0  0  0  0  0  2  0  0  0  0  0  0
  186.6150  178.4710  140.7680 C   0  0  0  0  0  3  0  0  0  0  0  0
  190.3330  177.8720  143.7440 C   0  0  0  0  0  0  0  0  0  0  0  0
  189.5680  176.6820  141.7830 C   0  0  0  0  0  3  0  0  0  0  0  0
  191.3060  175.6840  143.3460 C   0  0  0  0  0  2  0  0  0  0  0  0
  186.9320  176.8110  144.2810 C   0  0  0  0  0  3  0  0  0  0  0  0
  190.4970  176.8780  142.9080 C   0  0  0  0  0  0  0  0  0  0  0  0
  185.4360  179.0800  140.8720 C   0  0  0  0  0  0  0  0  0  0  0  0
  188.2790  177.9420  146.2240 C   0  0  0  0  0  0  0  0  0  0  0  0
  184.9360  179.7720  139.7770 O   0  0  0  0  0  1  0  0  0  0  0  0
  185.2160  178.2300  143.2670 C   0  0  0  0  0  0  0  0  0  0  0  0
  189.7630  178.1990  146.0670 C   0  0  2  0  0  3  0  0  0  0  0  0
  191.7860  175.7280  144.8080 C   0  0  2  0  0  3  0  0  0  0  0  0
  192.6400  174.5100  145.0940 C   0  0  0  0  0  1  0  0  0  0  0  0
  188.0240  177.8830  148.7400 C   0  0  0  0  0  1  0  0  0  0  0  0
  187.5990  178.3550  147.4300 N   0  0  0  0  0  0  0  0  0  0  0  0
  186.3830  179.1540  147.3770 C   0  0  0  0  0  2  0  0  0  0  0  0
  185.1630  178.2530  147.3430 C   0  0  0  0  0  1  0  0  0  0  0  0
  1 19  2  0  0  0  0
  1 14  1  0  0  0  0
  3  5  2  0  0  0  0
  4 19  1  0  0  0  0
  5  1  1  0  0  0  0
  7 17  2  0  0  0  0
  8  9  1  0  0  0  0
 10 16  2  0  0  0  0
 10  5  1  0  0  0  0
 11  2  2  0  0  0  0
 12  3  2  0  0  0  0
 12 15  1  0  0  0  0
 13 21  1  0  0  0  0
 14  7  2  0  0  0  0
 15 13  1  0  0  0  0
 15 11  2  0  0  0  0
 16  4  1  0  0  0  0
 17 24  1  0  0  0  0
 18 16  1  0  0  0  0
 19  6  1  0  0  0  0
 20  2  1  6  0  0  0
 20 17  1  0  0  0  0
 20  9  1  0  0  0  0
 21 22  1  1  0  0  0
 21  8  1  0  0  0  0
 24 23  1  0  0  0  0
 25 24  1  0  0  0  0
 26 25  1  0  0  0  0
M  END
>  <MODEL>
9

>  <REMARK>
 VINA RESULT:      -7.3      2.850      7.104
  Name = 
  2 active torsions:
  status: ('A' for Active; 'I' for Inactive)
    1  A    between atoms: C_18  and  N_22
    2  A    between atoms: C_19  and  N_22
                            x       y       z     vdW  Elec       q    Type
                         _______ _______ _______ _____ _____    ______ ____

>  <TORSDO>
F 2

$$$$
