=
 OpenBabel10222415513D

 29 32  0  0  1  0  0  0  0  0999 V2000
  188.3220  177.7440  147.7130 C   0  0  0  0  0  3  0  0  0  0  0  0
  188.2090  177.5300  144.9150 C   0  0  0  0  0  0  0  0  0  0  0  0
  187.1280  177.9980  147.0390 C   0  0  0  0  0  3  0  0  0  0  0  0
  189.4660  177.3960  146.9950 C   0  0  0  0  0  0  0  0  0  0  0  0
  189.4040  177.2810  145.6060 C   0  0  0  0  0  3  0  0  0  0  0  0
  187.0480  177.9070  145.6380 C   0  0  0  0  0  0  0  0  0  0  0  0
  183.4420  178.9860  145.1460 C   0  0  0  0  0  3  0  0  0  0  0  0
  184.3440  178.3540  142.9940 C   0  0  0  0  0  3  0  0  0  0  0  0
  185.7430  178.2040  144.9820 C   0  0  0  0  0  0  0  0  0  0  0  0
  183.2800  178.8200  143.7690 C   0  0  0  0  0  0  0  0  0  0  0  0
  185.5680  178.0520  143.5970 C   0  0  0  0  0  3  0  0  0  0  0  0
  184.6670  178.6840  145.7470 C   0  0  0  0  0  3  0  0  0  0  0  0
  182.0230  179.1290  143.1500 C   0  0  0  0  0  0  0  0  0  0  0  0
  181.0090  179.3800  142.6510 N   0  0  0  0  0  0  0  0  0  0  0  0
  190.7370  177.1010  147.7130 C   0  0  0  0  0  2  0  0  0  0  0  0
  191.7760  176.7450  146.7610 N   0  0  0  0  0  2  0  0  0  0  0  0
  192.4580  175.5790  147.2920 C   0  0  0  0  0  1  0  0  0  0  0  0
  188.1670  177.3680  143.4910 N   0  0  0  0  0  2  0  0  0  0  0  0
  188.9110  178.7820  136.6820 C   0  0  0  0  0  1  0  0  0  0  0  0
  187.5990  179.3470  141.1640 O   0  0  0  0  0  0  0  0  0  0  0  0
  189.7550  176.6990  140.7860 C   0  0  1  0  0  3  0  0  0  0  0  0
  188.4350  178.5500  138.0340 N   0  0  0  0  0  2  0  0  0  0  0  0
  189.1410  177.7110  138.9490 C   0  0  0  0  0  0  0  0  0  0  0  0
  190.7000  176.3880  139.7760 N   0  0  0  0  0  2  0  0  0  0  0  0
  188.3740  178.3650  141.3090 C   0  0  0  0  0  0  0  0  0  0  0  0
  190.0820  177.0040  142.0380 C   0  0  0  0  0  2  0  0  0  0  0  0
  189.0930  178.0150  142.5700 C   0  0  2  0  0  3  0  0  0  0  0  0
  190.2370  177.0830  138.6460 N   0  0  0  0  0  0  0  0  0  0  0  0
  188.6920  177.4570  140.2760 N   0  0  0  0  0  0  0  0  0  0  0  0
  2  5  2  0  0  0  0
  2  6  1  0  0  0  0
  3  1  1  0  0  0  0
  4 15  1  0  0  0  0
  4  1  2  0  0  0  0
  5  4  1  0  0  0  0
  6  3  2  0  0  0  0
  7 12  1  0  0  0  0
  8 11  2  0  0  0  0
  8 10  1  0  0  0  0
  9  6  1  0  0  0  0
  9 12  2  0  0  0  0
 10  7  2  0  0  0  0
 11  9  1  0  0  0  0
 13 10  1  0  0  0  0
 14 13  3  0  0  0  0
 16 17  1  0  0  0  0
 16 15  1  0  0  0  0
 18  2  1  0  0  0  0
 19 22  1  0  0  0  0
 20 25  2  0  0  0  0
 21 26  1  1  0  0  0
 22 23  1  0  0  0  0
 23 29  1  0  0  0  0
 24 21  1  0  0  0  0
 25 27  1  0  0  0  0
 26 27  1  0  0  0  0
 27 18  1  1  0  0  0
 28 23  2  0  0  0  0
 28 24  1  0  0  0  0
 29 21  1  0  0  0  0
 29 25  1  0  0  0  0
M  END
>  <MODEL>
1

>  <REMARK>
 VINA RESULT:     -10.3      0.000      0.000
  Name = 
  6 active torsions:
  status: ('A' for Active; 'I' for Inactive)
    1  A    between atoms: C_1  and  C_12
    2  A    between atoms: C_4  and  C_17
    3  A    between atoms: C_4  and  N_23
    4  A    between atoms: C_11  and  C_27
    5  A    between atoms: C_15  and  N_21
    6  A    between atoms: C_20  and  N_21
                            x       y       z     vdW  Elec       q    Type
                         _______ _______ _______ _____ _____    ______ ____

>  <TORSDO>
F 6

$$$$
=
 OpenBabel10222415513D

 29 32  0  0  1  0  0  0  0  0999 V2000
  184.5220  178.9150  145.4570 C   0  0  0  0  0  3  0  0  0  0  0  0
  186.5110  177.9080  143.7490 C   0  0  0  0  0  0  0  0  0  0  0  0
  185.7600  178.5310  145.9730 C   0  0  0  0  0  3  0  0  0  0  0  0
  184.2670  178.7860  144.0920 C   0  0  0  0  0  0  0  0  0  0  0  0
  185.2600  178.2950  143.2450 C   0  0  0  0  0  3  0  0  0  0  0  0
  186.7680  178.0160  145.1400 C   0  0  0  0  0  0  0  0  0  0  0  0
  189.2830  176.6760  147.6480 C   0  0  0  0  0  3  0  0  0  0  0  0
  190.4780  177.3220  145.6490 C   0  0  0  0  0  3  0  0  0  0  0  0
  188.0620  177.6140  145.7600 C   0  0  0  0  0  0  0  0  0  0  0  0
  190.4820  176.8000  146.9440 C   0  0  0  0  0  0  0  0  0  0  0  0
  189.2750  177.7230  145.0610 C   0  0  0  0  0  3  0  0  0  0  0  0
  188.0810  177.0760  147.0580 C   0  0  0  0  0  3  0  0  0  0  0  0
  191.7170  176.3900  147.5480 C   0  0  0  0  0  0  0  0  0  0  0  0
  192.7140  176.0600  148.0370 N   0  0  0  0  0  0  0  0  0  0  0  0
  182.9550  179.2170  143.5340 C   0  0  0  0  0  2  0  0  0  0  0  0
  182.7900  178.6940  142.1880 N   0  0  0  0  0  2  0  0  0  0  0  0
  181.4140  178.9440  141.8000 C   0  0  0  0  0  1  0  0  0  0  0  0
  187.5240  177.4420  142.8490 N   0  0  0  0  0  2  0  0  0  0  0  0
  188.7300  178.2080  136.0020 C   0  0  0  0  0  1  0  0  0  0  0  0
  186.5950  178.7010  140.1650 O   0  0  0  0  0  0  0  0  0  0  0  0
  189.6620  177.1850  140.4720 C   0  0  1  0  0  3  0  0  0  0  0  0
  188.1760  177.9610  137.3220 N   0  0  0  0  0  2  0  0  0  0  0  0
  189.0000  177.6140  138.4340 C   0  0  0  0  0  0  0  0  0  0  0  0
  190.8030  177.1820  139.6290 N   0  0  0  0  0  2  0  0  0  0  0  0
  187.6650  178.1630  140.5560 C   0  0  0  0  0  0  0  0  0  0  0  0
  189.6320  177.7480  141.6760 C   0  0  0  0  0  2  0  0  0  0  0  0
  188.2490  178.3030  141.9220 C   0  0  2  0  0  3  0  0  0  0  0  0
  190.2900  177.4760  138.3550 N   0  0  0  0  0  0  0  0  0  0  0  0
  188.4830  177.3570  139.7350 N   0  0  0  0  0  0  0  0  0  0  0  0
  1  3  1  0  0  0  0
  2  6  1  0  0  0  0
  4  1  2  0  0  0  0
  5  2  2  0  0  0  0
  5  4  1  0  0  0  0
  6  9  1  0  0  0  0
  6  3  2  0  0  0  0
  8 10  1  0  0  0  0
  9 12  2  0  0  0  0
 10 13  1  0  0  0  0
 10  7  2  0  0  0  0
 11  8  2  0  0  0  0
 11  9  1  0  0  0  0
 12  7  1  0  0  0  0
 13 14  3  0  0  0  0
 15  4  1  0  0  0  0
 16 15  1  0  0  0  0
 17 16  1  0  0  0  0
 18  2  1  0  0  0  0
 19 22  1  0  0  0  0
 20 25  2  0  0  0  0
 21 26  1  1  0  0  0
 22 23  1  0  0  0  0
 23 29  1  0  0  0  0
 24 21  1  0  0  0  0
 25 27  1  0  0  0  0
 26 27  1  0  0  0  0
 27 18  1  1  0  0  0
 28 23  2  0  0  0  0
 28 24  1  0  0  0  0
 29 21  1  0  0  0  0
 29 25  1  0  0  0  0
M  END
>  <MODEL>
2

>  <REMARK>
 VINA RESULT:      -9.8      0.998      5.709
  Name = 
  6 active torsions:
  status: ('A' for Active; 'I' for Inactive)
    1  A    between atoms: C_1  and  C_12
    2  A    between atoms: C_4  and  C_17
    3  A    between atoms: C_4  and  N_23
    4  A    between atoms: C_11  and  C_27
    5  A    between atoms: C_15  and  N_21
    6  A    between atoms: C_20  and  N_21
                            x       y       z     vdW  Elec       q    Type
                         _______ _______ _______ _____ _____    ______ ____

>  <TORSDO>
F 6

$$$$
=
 OpenBabel10222415513D

 29 32  0  0  1  0  0  0  0  0999 V2000
  189.2430  176.9830  146.6960 C   0  0  0  0  0  3  0  0  0  0  0  0
  188.8110  177.9110  144.0810 C   0  0  0  0  0  0  0  0  0  0  0  0
  187.9560  177.3200  146.2770 C   0  0  0  0  0  3  0  0  0  0  0  0
  190.3190  177.1190  145.8200 C   0  0  0  0  0  0  0  0  0  0  0  0
  190.1000  177.5710  144.5180 C   0  0  0  0  0  3  0  0  0  0  0  0
  187.7150  177.7960  144.9760 C   0  0  0  0  0  0  0  0  0  0  0  0
  184.5480  178.2140  142.9250 C   0  0  0  0  0  3  0  0  0  0  0  0
  184.1070  178.9980  145.1680 C   0  0  0  0  0  3  0  0  0  0  0  0
  186.3180  178.1490  144.5980 C   0  0  0  0  0  0  0  0  0  0  0  0
  183.6710  178.7610  143.8630 C   0  0  0  0  0  0  0  0  0  0  0  0
  185.4210  178.6910  145.5330 C   0  0  0  0  0  3  0  0  0  0  0  0
  185.8620  177.9070  143.2910 C   0  0  0  0  0  3  0  0  0  0  0  0
  182.3230  179.0780  143.4880 C   0  0  0  0  0  0  0  0  0  0  0  0
  181.2350  179.3350  143.1860 N   0  0  0  0  0  0  0  0  0  0  0  0
  191.6910  176.7380  146.2560 C   0  0  0  0  0  2  0  0  0  0  0  0
  191.7780  176.7660  147.7070 N   0  0  0  0  0  2  0  0  0  0  0  0
  192.6440  175.6710  148.1020 C   0  0  0  0  0  1  0  0  0  0  0  0
  188.6110  178.3370  142.7270 N   0  0  0  0  0  2  0  0  0  0  0  0
  192.1020  175.7890  137.2280 C   0  0  0  0  0  1  0  0  0  0  0  0
  190.5060  176.1280  141.6410 O   0  0  0  0  0  0  0  0  0  0  0  0
  188.9250  178.3350  139.5350 C   0  0  1  0  0  3  0  0  0  0  0  0
  191.6740  176.2970  138.5200 N   0  0  0  0  0  2  0  0  0  0  0  0
  190.5390  177.1530  138.6560 C   0  0  0  0  0  0  0  0  0  0  0  0
  188.7580  178.3410  138.1270 N   0  0  0  0  0  2  0  0  0  0  0  0
  189.7700  176.9940  141.0990 C   0  0  0  0  0  0  0  0  0  0  0  0
  187.9260  178.1820  140.3990 C   0  0  0  0  0  2  0  0  0  0  0  0
  188.4330  177.4240  141.6040 C   0  0  2  0  0  3  0  0  0  0  0  0
  189.8210  177.5560  137.6510 N   0  0  0  0  0  0  0  0  0  0  0  0
  190.1040  177.6730  139.9070 N   0  0  0  0  0  0  0  0  0  0  0  0
  2  5  2  0  0  0  0
  2  6  1  0  0  0  0
  3  1  1  0  0  0  0
  4 15  1  0  0  0  0
  4  1  2  0  0  0  0
  5  4  1  0  0  0  0
  6  3  2  0  0  0  0
  7 12  2  0  0  0  0
  7 10  1  0  0  0  0
  8 11  1  0  0  0  0
  9  6  1  0  0  0  0
  9 11  2  0  0  0  0
 10  8  2  0  0  0  0
 12  9  1  0  0  0  0
 13 10  1  0  0  0  0
 14 13  3  0  0  0  0
 15 16  1  0  0  0  0
 16 17  1  0  0  0  0
 18  2  1  0  0  0  0
 19 22  1  0  0  0  0
 21 29  1  0  0  0  0
 21 26  1  1  0  0  0
 22 23  1  0  0  0  0
 23 29  1  0  0  0  0
 24 21  1  0  0  0  0
 25 27  1  0  0  0  0
 25 20  2  0  0  0  0
 26 27  1  0  0  0  0
 27 18  1  1  0  0  0
 28 24  1  0  0  0  0
 28 23  2  0  0  0  0
 29 25  1  0  0  0  0
M  END
>  <MODEL>
3

>  <REMARK>
 VINA RESULT:      -9.8      1.447      2.132
  Name = 
  6 active torsions:
  status: ('A' for Active; 'I' for Inactive)
    1  A    between atoms: C_1  and  C_12
    2  A    between atoms: C_4  and  C_17
    3  A    between atoms: C_4  and  N_23
    4  A    between atoms: C_11  and  C_27
    5  A    between atoms: C_15  and  N_21
    6  A    between atoms: C_20  and  N_21
                            x       y       z     vdW  Elec       q    Type
                         _______ _______ _______ _____ _____    ______ ____

>  <TORSDO>
F 6

$$$$
=
 OpenBabel10222415513D

 29 32  0  0  1  0  0  0  0  0999 V2000
  183.6510  178.9500  145.2590 C   0  0  0  0  0  3  0  0  0  0  0  0
  185.7010  178.1780  143.5010 C   0  0  0  0  0  0  0  0  0  0  0  0
  184.9110  178.6160  145.7560 C   0  0  0  0  0  3  0  0  0  0  0  0
  183.4050  178.8890  143.8880 C   0  0  0  0  0  0  0  0  0  0  0  0
  184.4270  178.5140  143.0160 C   0  0  0  0  0  3  0  0  0  0  0  0
  185.9510  178.2180  144.8970 C   0  0  0  0  0  0  0  0  0  0  0  0
  188.6500  177.5210  147.4730 C   0  0  0  0  0  3  0  0  0  0  0  0
  189.5800  177.1290  145.2760 C   0  0  0  0  0  3  0  0  0  0  0  0
  187.2670  177.8630  145.4960 C   0  0  0  0  0  0  0  0  0  0  0  0
  189.7270  177.1520  146.6650 C   0  0  0  0  0  0  0  0  0  0  0  0
  188.3570  177.4790  144.6980 C   0  0  0  0  0  3  0  0  0  0  0  0
  187.4280  177.8710  146.8930 C   0  0  0  0  0  3  0  0  0  0  0  0
  190.9830  176.7940  147.2590 C   0  0  0  0  0  0  0  0  0  0  0  0
  191.9960  176.5040  147.7400 N   0  0  0  0  0  0  0  0  0  0  0  0
  182.0680  179.2670  143.3510 C   0  0  0  0  0  2  0  0  0  0  0  0
  181.0220  178.5720  144.0830 N   0  0  0  0  0  2  0  0  0  0  0  0
  179.9560  178.2930  143.1380 C   0  0  0  0  0  1  0  0  0  0  0  0
  186.7420  177.8330  142.5780 N   0  0  0  0  0  2  0  0  0  0  0  0
  187.4890  178.4190  135.6480 C   0  0  0  0  0  1  0  0  0  0  0  0
  185.5010  178.7920  139.8960 O   0  0  0  0  0  0  0  0  0  0  0  0
  188.7800  177.7870  140.1020 C   0  0  1  0  0  3  0  0  0  0  0  0
  187.0420  178.1580  137.0060 N   0  0  0  0  0  2  0  0  0  0  0  0
  187.9630  178.0020  138.0860 C   0  0  0  0  0  0  0  0  0  0  0  0
  189.8650  177.9180  139.1980 N   0  0  0  0  0  2  0  0  0  0  0  0
  186.6590  178.4470  140.2510 C   0  0  0  0  0  0  0  0  0  0  0  0
  188.7180  178.4010  141.2800 C   0  0  0  0  0  2  0  0  0  0  0  0
  187.2770  178.7470  141.5760 C   0  0  2  0  0  3  0  0  0  0  0  0
  189.2530  178.0610  137.9430 N   0  0  0  0  0  0  0  0  0  0  0  0
  187.5540  177.7360  139.4230 N   0  0  0  0  0  0  0  0  0  0  0  0
  1  3  1  0  0  0  0
  2  6  1  0  0  0  0
  4  1  2  0  0  0  0
  5  2  2  0  0  0  0
  5  4  1  0  0  0  0
  6  9  1  0  0  0  0
  6  3  2  0  0  0  0
  8 10  1  0  0  0  0
  9 12  2  0  0  0  0
 10 13  1  0  0  0  0
 10  7  2  0  0  0  0
 11  8  2  0  0  0  0
 11  9  1  0  0  0  0
 12  7  1  0  0  0  0
 13 14  3  0  0  0  0
 15  4  1  0  0  0  0
 15 16  1  0  0  0  0
 17 16  1  0  0  0  0
 18  2  1  0  0  0  0
 19 22  1  0  0  0  0
 20 25  2  0  0  0  0
 21 26  1  1  0  0  0
 22 23  1  0  0  0  0
 23 29  1  0  0  0  0
 24 21  1  0  0  0  0
 25 27  1  0  0  0  0
 26 27  1  0  0  0  0
 27 18  1  1  0  0  0
 28 23  2  0  0  0  0
 28 24  1  0  0  0  0
 29 21  1  0  0  0  0
 29 25  1  0  0  0  0
M  END
>  <MODEL>
4

>  <REMARK>
 VINA RESULT:      -9.7      1.170      5.804
  Name = 
  6 active torsions:
  status: ('A' for Active; 'I' for Inactive)
    1  A    between atoms: C_1  and  C_12
    2  A    between atoms: C_4  and  C_17
    3  A    between atoms: C_4  and  N_23
    4  A    between atoms: C_11  and  C_27
    5  A    between atoms: C_15  and  N_21
    6  A    between atoms: C_20  and  N_21
                            x       y       z     vdW  Elec       q    Type
                         _______ _______ _______ _____ _____    ______ ____

>  <TORSDO>
F 6

$$$$
=
 OpenBabel10222415513D

 29 32  0  0  1  0  0  0  0  0999 V2000
  184.5540  178.5440  145.7350 C   0  0  0  0  0  3  0  0  0  0  0  0
  186.7410  178.2780  143.9930 C   0  0  0  0  0  0  0  0  0  0  0  0
  185.8020  178.1640  146.2300 C   0  0  0  0  0  3  0  0  0  0  0  0
  184.3890  178.7790  144.3710 C   0  0  0  0  0  0  0  0  0  0  0  0
  185.4790  178.6560  143.5090 C   0  0  0  0  0  3  0  0  0  0  0  0
  186.9100  178.0150  145.3770 C   0  0  0  0  0  0  0  0  0  0  0  0
  189.5800  177.1770  147.9420 C   0  0  0  0  0  3  0  0  0  0  0  0
  190.4840  176.7530  145.7410 C   0  0  0  0  0  3  0  0  0  0  0  0
  188.2100  177.5950  145.9710 C   0  0  0  0  0  0  0  0  0  0  0  0
  190.6360  176.7620  147.1290 C   0  0  0  0  0  0  0  0  0  0  0  0
  189.2780  177.1640  145.1670 C   0  0  0  0  0  3  0  0  0  0  0  0
  188.3730  177.5870  147.3670 C   0  0  0  0  0  3  0  0  0  0  0  0
  191.8750  176.3410  147.7180 C   0  0  0  0  0  0  0  0  0  0  0  0
  192.8750  176.0030  148.1920 N   0  0  0  0  0  0  0  0  0  0  0  0
  183.0640  179.2080  143.8420 C   0  0  0  0  0  2  0  0  0  0  0  0
  182.8410  178.6280  142.5270 N   0  0  0  0  0  2  0  0  0  0  0  0
  181.4890  178.9770  142.1330 C   0  0  0  0  0  1  0  0  0  0  0  0
  187.8510  178.1950  143.0890 N   0  0  0  0  0  2  0  0  0  0  0  0
  192.0850  176.3030  137.8540 C   0  0  0  0  0  1  0  0  0  0  0  0
  189.8790  176.1070  142.0050 O   0  0  0  0  0  0  0  0  0  0  0  0
  188.6150  178.5940  140.0000 C   0  0  1  0  0  3  0  0  0  0  0  0
  191.4780  176.6490  139.1270 N   0  0  0  0  0  2  0  0  0  0  0  0
  190.3360  177.5030  139.2120 C   0  0  0  0  0  0  0  0  0  0  0  0
  188.6490  178.7830  138.5950 N   0  0  0  0  0  2  0  0  0  0  0  0
  189.2280  177.0490  141.4810 C   0  0  0  0  0  0  0  0  0  0  0  0
  187.5030  178.3510  140.6880 C   0  0  0  0  0  2  0  0  0  0  0  0
  187.8330  177.4370  141.8440 C   0  0  2  0  0  3  0  0  0  0  0  0
  189.7690  178.0440  138.1760 N   0  0  0  0  0  0  0  0  0  0  0  0
  189.7280  177.8680  140.4450 N   0  0  0  0  0  0  0  0  0  0  0  0
  1  3  1  0  0  0  0
  2  6  1  0  0  0  0
  4  1  2  0  0  0  0
  5  2  2  0  0  0  0
  5  4  1  0  0  0  0
  6  9  1  0  0  0  0
  6  3  2  0  0  0  0
  8 10  1  0  0  0  0
  9 12  2  0  0  0  0
 10 13  1  0  0  0  0
 10  7  2  0  0  0  0
 11  8  2  0  0  0  0
 11  9  1  0  0  0  0
 12  7  1  0  0  0  0
 13 14  3  0  0  0  0
 15  4  1  0  0  0  0
 16 15  1  0  0  0  0
 17 16  1  0  0  0  0
 18  2  1  0  0  0  0
 19 22  1  0  0  0  0
 21 29  1  0  0  0  0
 21 26  1  6  0  0  0
 22 23  1  0  0  0  0
 23 29  1  0  0  0  0
 24 21  1  0  0  0  0
 25 27  1  0  0  0  0
 25 20  2  0  0  0  0
 26 27  1  0  0  0  0
 27 18  1  1  0  0  0
 28 24  1  0  0  0  0
 28 23  2  0  0  0  0
 29 25  1  0  0  0  0
M  END
>  <MODEL>
5

>  <REMARK>
 VINA RESULT:      -9.4      1.440      5.934
  Name = 
  6 active torsions:
  status: ('A' for Active; 'I' for Inactive)
    1  A    between atoms: C_1  and  C_12
    2  A    between atoms: C_4  and  C_17
    3  A    between atoms: C_4  and  N_23
    4  A    between atoms: C_11  and  C_27
    5  A    between atoms: C_15  and  N_21
    6  A    between atoms: C_20  and  N_21
                            x       y       z     vdW  Elec       q    Type
                         _______ _______ _______ _____ _____    ______ ____

>  <TORSDO>
F 6

$$$$
=
 OpenBabel10222415513D

 29 32  0  0  1  0  0  0  0  0999 V2000
  190.1360  177.1700  139.4010 C   0  0  0  0  0  3  0  0  0  0  0  0
  188.6340  178.0350  141.6110 C   0  0  0  0  0  0  0  0  0  0  0  0
  190.5900  176.9220  140.6970 C   0  0  0  0  0  3  0  0  0  0  0  0
  188.9410  177.8600  139.2030 C   0  0  0  0  0  0  0  0  0  0  0  0
  188.1920  178.2800  140.3020 C   0  0  0  0  0  3  0  0  0  0  0  0
  189.8610  177.3520  141.8190 C   0  0  0  0  0  0  0  0  0  0  0  0
  191.6770  175.6070  144.6590 C   0  0  0  0  0  3  0  0  0  0  0  0
  190.7920  177.6940  145.4960 C   0  0  0  0  0  3  0  0  0  0  0  0
  190.4100  177.0650  143.1740 C   0  0  0  0  0  0  0  0  0  0  0  0
  191.5030  176.5110  145.7080 C   0  0  0  0  0  0  0  0  0  0  0  0
  190.2530  177.9690  144.2360 C   0  0  0  0  0  3  0  0  0  0  0  0
  191.1380  175.8840  143.3990 C   0  0  0  0  0  3  0  0  0  0  0  0
  192.0550  176.2280  147.0010 C   0  0  0  0  0  0  0  0  0  0  0  0
  192.5020  176.0000  148.0450 N   0  0  0  0  0  0  0  0  0  0  0  0
  188.4410  178.1070  137.8220 C   0  0  0  0  0  2  0  0  0  0  0  0
  187.0870  178.6330  137.8680 N   0  0  0  0  0  2  0  0  0  0  0  0
  186.2500  177.7190  137.1130 C   0  0  0  0  0  1  0  0  0  0  0  0
  187.8250  178.4450  142.7210 N   0  0  0  0  0  2  0  0  0  0  0  0
  180.9660  178.9990  143.9690 C   0  0  0  0  0  1  0  0  0  0  0  0
  184.9410  178.1080  141.6170 O   0  0  0  0  0  0  0  0  0  0  0  0
  185.5320  178.7020  144.9480 C   0  0  1  0  0  3  0  0  0  0  0  0
  182.3170  179.0660  143.4410 N   0  0  0  0  0  2  0  0  0  0  0  0
  183.4630  178.9310  144.2810 C   0  0  0  0  0  0  0  0  0  0  0  0
  184.6900  178.6150  146.0860 N   0  0  0  0  0  2  0  0  0  0  0  0
  185.4250  178.2590  142.7690 C   0  0  0  0  0  0  0  0  0  0  0  0
  186.5720  177.9030  144.7330 C   0  0  0  0  0  2  0  0  0  0  0  0
  186.7100  177.6680  143.2470 C   0  0  2  0  0  3  0  0  0  0  0  0
  183.3930  178.7590  145.5670 N   0  0  0  0  0  0  0  0  0  0  0  0
  184.7980  179.0030  143.7920 N   0  0  0  0  0  0  0  0  0  0  0  0
  1  3  1  0  0  0  0
  2  6  1  0  0  0  0
  2 18  1  0  0  0  0
  3  6  2  0  0  0  0
  4  1  2  0  0  0  0
  4  5  1  0  0  0  0
  5  2  2  0  0  0  0
  6  9  1  0  0  0  0
  7 10  1  0  0  0  0
  8 10  2  0  0  0  0
  9 12  1  0  0  0  0
  9 11  2  0  0  0  0
 10 13  1  0  0  0  0
 11  8  1  0  0  0  0
 12  7  2  0  0  0  0
 13 14  3  0  0  0  0
 15 16  1  0  0  0  0
 15  4  1  0  0  0  0
 17 16  1  0  0  0  0
 20 25  2  0  0  0  0
 21 26  1  6  0  0  0
 21 24  1  0  0  0  0
 22 19  1  0  0  0  0
 22 23  1  0  0  0  0
 23 28  2  0  0  0  0
 25 27  1  0  0  0  0
 25 29  1  0  0  0  0
 27 18  1  6  0  0  0
 27 26  1  0  0  0  0
 28 24  1  0  0  0  0
 29 23  1  0  0  0  0
 29 21  1  0  0  0  0
M  END
>  <MODEL>
6

>  <REMARK>
 VINA RESULT:      -9.1      1.946      7.776
  Name = 
  6 active torsions:
  status: ('A' for Active; 'I' for Inactive)
    1  A    between atoms: C_1  and  C_12
    2  A    between atoms: C_4  and  C_17
    3  A    between atoms: C_4  and  N_23
    4  A    between atoms: C_11  and  C_27
    5  A    between atoms: C_15  and  N_21
    6  A    between atoms: C_20  and  N_21
                            x       y       z     vdW  Elec       q    Type
                         _______ _______ _______ _____ _____    ______ ____

>  <TORSDO>
F 6

$$$$
=
 OpenBabel10222415513D

 29 32  0  0  1  0  0  0  0  0999 V2000
  184.5750  178.8390  145.5340 C   0  0  0  0  0  3  0  0  0  0  0  0
  186.2780  177.9680  143.4770 C   0  0  0  0  0  0  0  0  0  0  0  0
  184.1170  178.7960  144.2170 C   0  0  0  0  0  3  0  0  0  0  0  0
  185.8840  178.4600  145.8290 C   0  0  0  0  0  0  0  0  0  0  0  0
  186.7250  178.0190  144.8070 C   0  0  0  0  0  3  0  0  0  0  0  0
  184.9530  178.3730  143.1690 C   0  0  0  0  0  0  0  0  0  0  0  0
  182.7180  177.5990  140.2000 C   0  0  0  0  0  3  0  0  0  0  0  0
  184.4410  179.1310  139.4720 C   0  0  0  0  0  3  0  0  0  0  0  0
  184.4030  178.3640  141.7840 C   0  0  0  0  0  0  0  0  0  0  0  0
  183.3100  178.3610  139.1910 C   0  0  0  0  0  0  0  0  0  0  0  0
  184.9810  179.1330  140.7610 C   0  0  0  0  0  3  0  0  0  0  0  0
  183.2590  177.6040  141.4880 C   0  0  0  0  0  3  0  0  0  0  0  0
  182.7560  178.3570  137.8670 C   0  0  0  0  0  0  0  0  0  0  0  0
  182.3090  178.3520  136.7990 N   0  0  0  0  0  0  0  0  0  0  0  0
  186.3690  178.4820  147.2370 C   0  0  0  0  0  2  0  0  0  0  0  0
  187.7440  178.0140  147.2980 N   0  0  0  0  0  2  0  0  0  0  0  0
  188.0650  177.8230  148.7000 C   0  0  0  0  0  1  0  0  0  0  0  0
  187.1520  177.4750  142.4540 N   0  0  0  0  0  2  0  0  0  0  0  0
  192.5230  176.7730  138.0300 C   0  0  0  0  0  1  0  0  0  0  0  0
  188.1320  177.5890  139.5080 O   0  0  0  0  0  0  0  0  0  0  0  0
  190.3400  177.3430  142.1290 C   0  0  1  0  0  3  0  0  0  0  0  0
  191.2570  176.7090  138.7380 N   0  0  0  0  0  2  0  0  0  0  0  0
  191.1620  176.9690  140.1390 C   0  0  0  0  0  0  0  0  0  0  0  0
  191.7470  177.5060  142.1960 N   0  0  0  0  0  2  0  0  0  0  0  0
  188.7140  177.5700  140.6240 C   0  0  0  0  0  0  0  0  0  0  0  0
  189.4700  178.1590  142.7180 C   0  0  0  0  0  2  0  0  0  0  0  0
  188.2300  178.2550  141.8590 C   0  0  2  0  0  3  0  0  0  0  0  0
  192.1850  177.2620  140.8840 N   0  0  0  0  0  0  0  0  0  0  0  0
  189.9360  176.9040  140.8600 N   0  0  0  0  0  0  0  0  0  0  0  0
  1  4  1  0  0  0  0
  2  5  1  0  0  0  0
  3  1  2  0  0  0  0
  4 15  1  0  0  0  0
  5  4  2  0  0  0  0
  6  2  2  0  0  0  0
  6  3  1  0  0  0  0
  7 12  1  0  0  0  0
  8 11  2  0  0  0  0
  9  6  1  0  0  0  0
 10  8  1  0  0  0  0
 10  7  2  0  0  0  0
 11  9  1  0  0  0  0
 12  9  2  0  0  0  0
 13 10  1  0  0  0  0
 14 13  3  0  0  0  0
 15 16  1  0  0  0  0
 16 17  1  0  0  0  0
 18  2  1  0  0  0  0
 19 22  1  0  0  0  0
 20 25  2  0  0  0  0
 21 24  1  0  0  0  0
 21 26  1  6  0  0  0
 22 23  1  0  0  0  0
 23 29  1  0  0  0  0
 23 28  2  0  0  0  0
 25 29  1  0  0  0  0
 25 27  1  0  0  0  0
 27 18  1  1  0  0  0
 27 26  1  0  0  0  0
 28 24  1  0  0  0  0
 29 21  1  0  0  0  0
M  END
>  <MODEL>
7

>  <REMARK>
 VINA RESULT:      -8.7      2.483      3.645
  Name = 
  6 active torsions:
  status: ('A' for Active; 'I' for Inactive)
    1  A    between atoms: C_1  and  C_12
    2  A    between atoms: C_4  and  C_17
    3  A    between atoms: C_4  and  N_23
    4  A    between atoms: C_11  and  C_27
    5  A    between atoms: C_15  and  N_21
    6  A    between atoms: C_20  and  N_21
                            x       y       z     vdW  Elec       q    Type
                         _______ _______ _______ _____ _____    ______ ____

>  <TORSDO>
F 6

$$$$
=
 OpenBabel10222415513D

 29 32  0  0  1  0  0  0  0  0999 V2000
  191.7050  176.5960  144.6330 C   0  0  0  0  0  3  0  0  0  0  0  0
  189.1650  177.5520  143.9080 C   0  0  0  0  0  0  0  0  0  0  0  0
  191.3800  176.7720  143.2880 C   0  0  0  0  0  3  0  0  0  0  0  0
  190.7630  176.8840  145.6200 C   0  0  0  0  0  0  0  0  0  0  0  0
  189.5050  177.3680  145.2570 C   0  0  0  0  0  3  0  0  0  0  0  0
  190.1130  177.2400  142.8990 C   0  0  0  0  0  0  0  0  0  0  0  0
  190.3870  176.8690  139.1310 C   0  0  0  0  0  3  0  0  0  0  0  0
  188.4640  178.2510  139.6190 C   0  0  0  0  0  3  0  0  0  0  0  0
  189.8290  177.3920  141.4450 C   0  0  0  0  0  0  0  0  0  0  0  0
  189.2950  177.6190  138.6910 C   0  0  0  0  0  0  0  0  0  0  0  0
  188.7290  178.1340  140.9860 C   0  0  0  0  0  3  0  0  0  0  0  0
  190.6500  176.7530  140.4990 C   0  0  0  0  0  3  0  0  0  0  0  0
  189.0250  177.7390  137.2870 C   0  0  0  0  0  0  0  0  0  0  0  0
  188.8080  177.8380  136.1530 N   0  0  0  0  0  0  0  0  0  0  0  0
  191.1130  176.7200  147.0580 C   0  0  0  0  0  2  0  0  0  0  0  0
  192.0800  175.6460  147.2160 N   0  0  0  0  0  2  0  0  0  0  0  0
  192.8060  175.9060  148.4460 C   0  0  0  0  0  1  0  0  0  0  0  0
  187.8790  178.0860  143.5680 N   0  0  0  0  0  2  0  0  0  0  0  0
  180.9920  179.2870  143.3810 C   0  0  0  0  0  1  0  0  0  0  0  0
  185.2420  177.8780  141.9390 O   0  0  0  0  0  0  0  0  0  0  0  0
  185.2360  178.7230  145.2690 C   0  0  1  0  0  3  0  0  0  0  0  0
  182.4200  179.2000  143.1290 N   0  0  0  0  0  2  0  0  0  0  0  0
  183.3650  179.0520  144.1880 C   0  0  0  0  0  0  0  0  0  0  0  0
  184.1870  178.8050  146.2200 N   0  0  0  0  0  2  0  0  0  0  0  0
  185.5080  178.0940  143.1510 C   0  0  0  0  0  0  0  0  0  0  0  0
  186.2180  177.8280  145.3240 C   0  0  0  0  0  2  0  0  0  0  0  0
  186.6150  177.4490  143.9170 C   0  0  2  0  0  3  0  0  0  0  0  0
  183.0330  179.0030  145.4440 N   0  0  0  0  0  0  0  0  0  0  0  0
  184.7700  178.9740  143.9710 N   0  0  0  0  0  0  0  0  0  0  0  0
  1  4  1  0  0  0  0
  2  5  1  0  0  0  0
  3  1  2  0  0  0  0
  4 15  1  0  0  0  0
  5  4  2  0  0  0  0
  6  3  1  0  0  0  0
  6  2  2  0  0  0  0
  7 12  1  0  0  0  0
  8 11  2  0  0  0  0
  9  6  1  0  0  0  0
 10  7  2  0  0  0  0
 10  8  1  0  0  0  0
 11  9  1  0  0  0  0
 12  9  2  0  0  0  0
 13 10  1  0  0  0  0
 14 13  3  0  0  0  0
 15 16  1  0  0  0  0
 16 17  1  0  0  0  0
 18  2  1  0  0  0  0
 20 25  2  0  0  0  0
 21 26  1  6  0  0  0
 21 24  1  0  0  0  0
 22 19  1  0  0  0  0
 22 23  1  0  0  0  0
 23 28  2  0  0  0  0
 25 27  1  0  0  0  0
 25 29  1  0  0  0  0
 27 18  1  6  0  0  0
 27 26  1  0  0  0  0
 28 24  1  0  0  0  0
 29 23  1  0  0  0  0
 29 21  1  0  0  0  0
M  END
>  <MODEL>
8

>  <REMARK>
 VINA RESULT:      -8.7      1.806      6.226
  Name = 
  6 active torsions:
  status: ('A' for Active; 'I' for Inactive)
    1  A    between atoms: C_1  and  C_12
    2  A    between atoms: C_4  and  C_17
    3  A    between atoms: C_4  and  N_23
    4  A    between atoms: C_11  and  C_27
    5  A    between atoms: C_15  and  N_21
    6  A    between atoms: C_20  and  N_21
                            x       y       z     vdW  Elec       q    Type
                         _______ _______ _______ _____ _____    ______ ____

>  <TORSDO>
F 6

$$$$
=
 OpenBabel10222415513D

 29 32  0  0  1  0  0  0  0  0999 V2000
  188.9720  177.7800  145.5310 C   0  0  0  0  0  3  0  0  0  0  0  0
  186.9300  177.7700  143.6020 C   0  0  0  0  0  0  0  0  0  0  0  0
  189.2910  177.7300  144.1740 C   0  0  0  0  0  3  0  0  0  0  0  0
  187.6360  177.8120  145.9320 C   0  0  0  0  0  0  0  0  0  0  0  0
  186.6250  177.8170  144.9710 C   0  0  0  0  0  3  0  0  0  0  0  0
  188.2870  177.7140  143.1900 C   0  0  0  0  0  0  0  0  0  0  0  0
  190.1400  176.7130  140.0320 C   0  0  0  0  0  3  0  0  0  0  0  0
  188.4140  178.2940  139.4280 C   0  0  0  0  0  3  0  0  0  0  0  0
  188.6990  177.6470  141.7600 C   0  0  0  0  0  0  0  0  0  0  0  0
  189.4710  177.4600  139.0600 C   0  0  0  0  0  0  0  0  0  0  0  0
  188.0290  178.3840  140.7690 C   0  0  0  0  0  3  0  0  0  0  0  0
  189.7530  176.8030  141.3720 C   0  0  0  0  0  3  0  0  0  0  0  0
  189.8680  177.3680  137.6840 C   0  0  0  0  0  0  0  0  0  0  0  0
  190.1890  177.2940  136.5740 N   0  0  0  0  0  0  0  0  0  0  0  0
  187.2920  177.8900  147.3780 C   0  0  0  0  0  2  0  0  0  0  0  0
  188.3110  177.2210  148.1700 N   0  0  0  0  0  2  0  0  0  0  0  0
  189.0740  178.2560  148.8430 C   0  0  0  0  0  1  0  0  0  0  0  0
  185.8710  177.8140  142.6370 N   0  0  0  0  0  2  0  0  0  0  0  0
  179.1460  179.7260  142.8320 C   0  0  0  0  0  1  0  0  0  0  0  0
  183.5300  178.9330  144.3450 O   0  0  0  0  0  0  0  0  0  0  0  0
  183.2790  178.6280  140.9330 C   0  0  1  0  0  3  0  0  0  0  0  0
  180.4590  179.1470  143.0580 N   0  0  0  0  0  2  0  0  0  0  0  0
  181.4130  179.0070  142.0050 C   0  0  0  0  0  0  0  0  0  0  0  0
  182.3350  179.1390  140.0060 N   0  0  0  0  0  2  0  0  0  0  0  0
  183.7190  178.7860  143.1090 C   0  0  0  0  0  0  0  0  0  0  0  0
  184.5540  179.0030  140.9750 C   0  0  0  0  0  2  0  0  0  0  0  0
  185.0240  178.9790  142.4110 C   0  0  2  0  0  3  0  0  0  0  0  0
  181.1820  179.3630  140.7770 N   0  0  0  0  0  0  0  0  0  0  0  0
  182.7020  178.4340  142.1960 N   0  0  0  0  0  0  0  0  0  0  0  0
  1  4  1  0  0  0  0
  2  5  1  0  0  0  0
  3  1  2  0  0  0  0
  4 15  1  0  0  0  0
  5  4  2  0  0  0  0
  6  2  2  0  0  0  0
  6  3  1  0  0  0  0
  7 12  1  0  0  0  0
  8 11  2  0  0  0  0
  9  6  1  0  0  0  0
 10  8  1  0  0  0  0
 10  7  2  0  0  0  0
 11  9  1  0  0  0  0
 12  9  2  0  0  0  0
 13 10  1  0  0  0  0
 14 13  3  0  0  0  0
 15 16  1  0  0  0  0
 16 17  1  0  0  0  0
 18  2  1  0  0  0  0
 19 22  1  0  0  0  0
 21 26  1  1  0  0  0
 21 29  1  0  0  0  0
 23 29  1  0  0  0  0
 23 22  1  0  0  0  0
 24 28  1  0  0  0  0
 24 21  1  0  0  0  0
 25 20  2  0  0  0  0
 26 27  1  0  0  0  0
 27 18  1  6  0  0  0
 27 25  1  0  0  0  0
 28 23  2  0  0  0  0
 29 25  1  0  0  0  0
M  END
>  <MODEL>
9

>  <REMARK>
 VINA RESULT:      -8.1      2.172      6.489
  Name = 
  6 active torsions:
  status: ('A' for Active; 'I' for Inactive)
    1  A    between atoms: C_1  and  C_12
    2  A    between atoms: C_4  and  C_17
    3  A    between atoms: C_4  and  N_23
    4  A    between atoms: C_11  and  C_27
    5  A    between atoms: C_15  and  N_21
    6  A    between atoms: C_20  and  N_21
                            x       y       z     vdW  Elec       q    Type
                         _______ _______ _______ _____ _____    ______ ____

>  <TORSDO>
F 6

$$$$
