=
 OpenBabel10222421173D

 37 39  0  0  1  0  0  0  0  0999 V2000
  185.7740  179.0150  141.6590 C   0  0  0  0  0  0  0  0  0  0  0  0
  189.4600  177.5920  143.1870 C   0  0  1  0  0  3  0  0  0  0  0  0
  185.7080  179.6540  140.5720 O   0  0  0  0  0  0  0  0  0  0  0  0
  188.1090  177.4980  143.8950 C   0  0  0  0  0  2  0  0  0  0  0  0
  189.4490  178.8200  142.2770 C   0  0  0  0  0  2  0  0  0  0  0  0
  187.0270  178.4230  142.0510 N   0  0  0  0  0  0  0  0  0  0  0  0
  187.0460  177.3070  142.9110 N   0  0  0  0  0  2  0  0  0  0  0  0
  188.2510  178.7920  141.3280 C   0  0  2  0  0  3  0  0  0  0  0  0
  188.6910  176.5510  137.3370 C   0  0  0  0  0  0  0  0  0  0  0  0
  187.5870  177.9030  139.1300 C   0  0  0  0  0  3  0  0  0  0  0  0
  187.6050  177.0640  137.9150 C   0  0  0  0  0  3  0  0  0  0  0  0
  188.4900  177.9190  140.1270 C   0  0  0  0  0  0  0  0  0  0  0  0
  188.4960  175.5510  135.9150 Cl  0  0  0  0  0  0  0  0  0  0  0  0
  190.3120  176.4820  139.1950 C   0  0  0  0  0  3  0  0  0  0  0  0
  190.0730  176.8970  137.7830 C   0  0  0  0  0  2  0  0  0  0  0  0
  189.6220  176.9740  140.2240 C   0  0  0  0  0  3  0  0  0  0  0  0
  183.3110  178.6760  141.8990 C   0  0  0  0  0  3  0  0  0  0  0  0
  183.4360  179.0040  144.6480 C   0  0  0  0  0  3  0  0  0  0  0  0
  182.2210  178.7600  144.0070 C   0  0  0  0  0  3  0  0  0  0  0  0
  182.1830  178.6030  142.6570 N   0  0  0  0  0  0  0  0  0  0  0  0
  184.5570  178.9110  142.4980 C   0  0  0  0  0  0  0  0  0  0  0  0
  184.6030  179.0820  143.8880 C   0  0  0  0  0  3  0  0  0  0  0  0
  190.6070  177.6570  144.2030 C   0  0  2  0  0  3  0  0  0  0  0  0
  191.8660  179.4840  144.3700 C   0  0  0  0  0  1  0  0  0  0  0  0
  191.7190  178.3020  143.6410 O   0  0  0  0  0  0  0  0  0  0  0  0
  191.5700  175.4650  143.5660 N   0  0  0  0  0  1  0  0  0  0  0  0
  190.9880  176.2390  144.6530 C   0  0  1  0  0  3  0  0  0  0  0  0
  191.8680  176.1940  145.9050 C   0  0  0  0  0  2  0  0  0  0  0  0
  191.9320  177.1270  148.1040 O   0  0  0  0  0  0  0  0  0  0  0  0
  191.2190  176.7760  147.1280 C   0  0  0  0  0  0  0  0  0  0  0  0
  189.8310  176.9120  147.2180 O   0  0  0  0  0  0  0  0  0  0  0  0
  189.1980  178.0910  147.7010 C   0  0  2  0  0  3  0  0  0  0  0  0
  189.7990  178.5160  148.8740 F   0  0  0  0  0  0  0  0  0  0  0  0
  187.7480  177.8240  147.9450 C   0  0  0  0  0  0  0  0  0  0  0  0
  187.3820  177.3430  149.0050 O   0  0  0  0  0  0  0  0  0  0  0  0
  186.7420  178.1210  146.8850 C   0  0  0  0  0  2  0  0  0  0  0  0
  185.8050  179.0410  147.3610 O   0  0  0  0  0  1  0  0  0  0  0  0
  1  6  1  0  0  0  0
  1 21  1  0  0  0  0
  2  4  1  0  0  0  0
  2 23  1  1  0  0  0
  3  1  2  0  0  0  0
  5  2  1  0  0  0  0
  6  7  1  0  0  0  0
  7  4  1  0  0  0  0
  8 12  1  6  0  0  0
  8  6  1  0  0  0  0
  8  5  1  0  0  0  0
  9 15  1  0  0  0  0
  9 11  2  0  0  0  0
 10 12  2  0  0  0  0
 11 10  1  0  0  0  0
 12 16  1  0  0  0  0
 13  9  1  0  0  0  0
 14 16  2  0  0  0  0
 15 14  1  0  0  0  0
 17 21  2  0  0  0  0
 17 20  1  0  0  0  0
 19 18  1  0  0  0  0
 20 19  2  0  0  0  0
 21 22  1  0  0  0  0
 22 18  2  0  0  0  0
 23 25  1  6  0  0  0
 23 27  1  0  0  0  0
 25 24  1  0  0  0  0
 27 26  1  6  0  0  0
 27 28  1  0  0  0  0
 28 30  1  0  0  0  0
 30 31  1  0  0  0  0
 30 29  2  0  0  0  0
 31 32  1  0  0  0  0
 32 34  1  0  0  0  0
 32 33  1  1  0  0  0
 34 35  2  0  0  0  0
 36 37  1  0  0  0  0
 36 34  1  0  0  0  0
M  END
>  <MODEL>
1

>  <REMARK>
 VINA RESULT:      -8.4      0.000      0.000
  Name = 
  11 active torsions:
  status: ('A' for Active; 'I' for Inactive)
    1  A    between atoms: C_5  and  C_30
    2  A    between atoms: C_8  and  C_31
    3  A    between atoms: C_8  and  C_36
    4  A    between atoms: O_10  and  C_32
    5  A    between atoms: C_11  and  O_13
    6  A    between atoms: C_11  and  C_30
    7  A    between atoms: C_12  and  C_14
    8  A    between atoms: O_13  and  C_31
    9  A    between atoms: C_16  and  C_35
   10  A    between atoms: C_18  and  C_32
   11  A    between atoms: C_32  and  C_36
                            x       y       z     vdW  Elec       q    Type
                         _______ _______ _______ _____ _____    ______ ____

>  <TORSDO>
F 11

$$$$
=
 OpenBabel10222421173D

 37 39  0  0  1  0  0  0  0  0999 V2000
  192.8940  176.6400  138.6160 C   0  0  0  0  0  0  0  0  0  0  0  0
  188.6630  176.5400  138.4180 C   0  0  1  0  0  3  0  0  0  0  0  0
  193.5060  177.5040  139.3030 O   0  0  0  0  0  0  0  0  0  0  0  0
  189.6110  175.6440  137.6220 C   0  0  0  0  0  2  0  0  0  0  0  0
  189.3700  177.8650  138.7040 C   0  0  0  0  0  2  0  0  0  0  0  0
  191.4590  176.5570  138.7080 N   0  0  0  0  0  0  0  0  0  0  0  0
  190.7980  175.3460  138.4200 N   0  0  0  0  0  2  0  0  0  0  0  0
  190.7210  177.6330  139.3810 C   0  0  2  0  0  3  0  0  0  0  0  0
  190.8720  177.1550  143.9520 C   0  0  0  0  0  0  0  0  0  0  0  0
  191.6850  177.1120  141.5860 C   0  0  0  0  0  3  0  0  0  0  0  0
  191.7510  176.7780  143.0230 C   0  0  0  0  0  3  0  0  0  0  0  0
  190.5890  177.3970  140.8600 C   0  0  0  0  0  0  0  0  0  0  0  0
  191.1120  176.6250  145.6020 Cl  0  0  0  0  0  0  0  0  0  0  0  0
  188.8320  177.5740  142.6310 C   0  0  0  0  0  3  0  0  0  0  0  0
  189.7640  178.1120  143.6630 C   0  0  0  0  0  2  0  0  0  0  0  0
  189.2100  177.2970  141.3830 C   0  0  0  0  0  3  0  0  0  0  0  0
  193.8870  176.1060  136.3870 C   0  0  0  0  0  3  0  0  0  0  0  0
  194.9080  173.7010  137.3090 C   0  0  0  0  0  3  0  0  0  0  0  0
  195.0950  174.1030  135.9860 C   0  0  0  0  0  3  0  0  0  0  0  0
  194.5850  175.2860  135.5550 N   0  0  0  0  0  0  0  0  0  0  0  0
  193.6790  175.7510  137.7270 C   0  0  0  0  0  0  0  0  0  0  0  0
  194.1950  174.5290  138.1770 C   0  0  0  0  0  3  0  0  0  0  0  0
  187.3490  176.7590  137.6570 C   0  0  2  0  0  3  0  0  0  0  0  0
  186.5850  175.8050  135.7970 C   0  0  0  0  0  1  0  0  0  0  0  0
  187.5690  176.6740  136.2740 O   0  0  0  0  0  0  0  0  0  0  0  0
  186.9490  179.0990  136.9470 N   0  0  0  0  0  1  0  0  0  0  0  0
  186.7590  178.1310  138.0160 C   0  0  1  0  0  3  0  0  0  0  0  0
  185.3000  178.0830  138.4750 C   0  0  0  0  0  2  0  0  0  0  0  0
  184.4050  180.1140  139.3610 O   0  0  0  0  0  0  0  0  0  0  0  0
  184.9830  179.0230  139.6030 C   0  0  0  0  0  0  0  0  0  0  0  0
  185.3440  178.7230  140.9200 O   0  0  0  0  0  0  0  0  0  0  0  0
  184.4950  178.0090  141.8110 C   0  0  2  0  0  3  0  0  0  0  0  0
  183.1950  177.9950  141.3330 F   0  0  0  0  0  0  0  0  0  0  0  0
  184.5290  178.6470  143.1630 C   0  0  0  0  0  0  0  0  0  0  0  0
  185.5910  178.8020  143.7420 O   0  0  0  0  0  0  0  0  0  0  0  0
  183.2600  179.0730  143.8220 C   0  0  0  0  0  2  0  0  0  0  0  0
  183.4710  179.2480  145.1910 O   0  0  0  0  0  1  0  0  0  0  0  0
  1  6  1  0  0  0  0
  1  3  2  0  0  0  0
  2 23  1  6  0  0  0
  2  5  1  0  0  0  0
  4  2  1  0  0  0  0
  4  7  1  0  0  0  0
  5  8  1  0  0  0  0
  6  8  1  0  0  0  0
  7  6  1  0  0  0  0
  8 12  1  1  0  0  0
  9 13  1  0  0  0  0
 10 11  1  0  0  0  0
 11  9  2  0  0  0  0
 12 16  1  0  0  0  0
 12 10  2  0  0  0  0
 14 15  1  0  0  0  0
 15  9  1  0  0  0  0
 16 14  2  0  0  0  0
 17 21  1  0  0  0  0
 18 22  1  0  0  0  0
 19 18  2  0  0  0  0
 20 19  1  0  0  0  0
 20 17  2  0  0  0  0
 21 22  2  0  0  0  0
 21  1  1  0  0  0  0
 23 25  1  6  0  0  0
 23 27  1  0  0  0  0
 24 25  1  0  0  0  0
 27 26  1  6  0  0  0
 27 28  1  0  0  0  0
 28 30  1  0  0  0  0
 29 30  2  0  0  0  0
 30 31  1  0  0  0  0
 31 32  1  0  0  0  0
 32 33  1  6  0  0  0
 32 34  1  0  0  0  0
 34 35  2  0  0  0  0
 34 36  1  0  0  0  0
 36 37  1  0  0  0  0
M  END
>  <MODEL>
2

>  <REMARK>
 VINA RESULT:      -7.9      4.089      8.571
  Name = 
  11 active torsions:
  status: ('A' for Active; 'I' for Inactive)
    1  A    between atoms: C_5  and  C_30
    2  A    between atoms: C_8  and  C_31
    3  A    between atoms: C_8  and  C_36
    4  A    between atoms: O_10  and  C_32
    5  A    between atoms: C_11  and  O_13
    6  A    between atoms: C_11  and  C_30
    7  A    between atoms: C_12  and  C_14
    8  A    between atoms: O_13  and  C_31
    9  A    between atoms: C_16  and  C_35
   10  A    between atoms: C_18  and  C_32
   11  A    between atoms: C_32  and  C_36
                            x       y       z     vdW  Elec       q    Type
                         _______ _______ _______ _____ _____    ______ ____

>  <TORSDO>
F 11

$$$$
=
 OpenBabel10222421173D

 37 39  0  0  1  0  0  0  0  0999 V2000
  185.3040  177.7970  137.6880 C   0  0  0  0  0  0  0  0  0  0  0  0
  183.7610  178.8930  141.4790 C   0  0  1  0  0  3  0  0  0  0  0  0
  184.5720  177.2860  136.7960 O   0  0  0  0  0  0  0  0  0  0  0  0
  185.2300  178.9610  141.0640 C   0  0  0  0  0  2  0  0  0  0  0  0
  183.0830  177.7750  140.6870 C   0  0  0  0  0  2  0  0  0  0  0  0
  184.6970  178.2910  138.8970 N   0  0  0  0  0  0  0  0  0  0  0  0
  185.3300  179.3030  139.6470 N   0  0  0  0  0  2  0  0  0  0  0  0
  183.2970  177.9570  139.1840 C   0  0  2  0  0  3  0  0  0  0  0  0
  180.8440  181.3570  137.2960 C   0  0  0  0  0  0  0  0  0  0  0  0
  182.5370  180.2630  138.7780 C   0  0  0  0  0  3  0  0  0  0  0  0
  181.6750  181.3780  138.3380 C   0  0  0  0  0  3  0  0  0  0  0  0
  182.3380  178.9480  138.5830 C   0  0  0  0  0  0  0  0  0  0  0  0
  179.8790  182.7770  136.9590 Cl  0  0  0  0  0  0  0  0  0  0  0  0
  180.3950  178.9490  137.0100 C   0  0  0  0  0  3  0  0  0  0  0  0
  180.7960  180.2160  136.3350 C   0  0  0  0  0  2  0  0  0  0  0  0
  181.1120  178.3840  137.9810 C   0  0  0  0  0  3  0  0  0  0  0  0
  187.2670  178.2040  136.1980 C   0  0  0  0  0  3  0  0  0  0  0  0
  189.0550  177.5690  138.2170 C   0  0  0  0  0  3  0  0  0  0  0  0
  189.5030  177.9300  136.9460 C   0  0  0  0  0  3  0  0  0  0  0  0
  188.6080  178.2370  135.9710 N   0  0  0  0  0  0  0  0  0  0  0  0
  186.7680  177.8550  137.4610 C   0  0  0  0  0  0  0  0  0  0  0  0
  187.6830  177.5300  138.4700 C   0  0  0  0  0  3  0  0  0  0  0  0
  183.6300  178.6690  142.9900 C   0  0  2  0  0  3  0  0  0  0  0  0
  181.6250  178.5910  143.9540 C   0  0  0  0  0  1  0  0  0  0  0  0
  182.6110  179.4780  143.5150 O   0  0  0  0  0  0  0  0  0  0  0  0
  184.9210  180.2510  144.3930 N   0  0  0  0  0  1  0  0  0  0  0  0
  184.9650  178.9820  143.6830 C   0  0  1  0  0  3  0  0  0  0  0  0
  185.4830  177.8560  144.5810 C   0  0  0  0  0  2  0  0  0  0  0  0
  187.4340  177.8390  145.9600 O   0  0  0  0  0  0  0  0  0  0  0  0
  186.9700  177.8770  144.7900 C   0  0  0  0  0  0  0  0  0  0  0  0
  187.8530  177.9670  143.7120 O   0  0  0  0  0  0  0  0  0  0  0  0
  188.0910  176.8890  142.8140 C   0  0  2  0  0  3  0  0  0  0  0  0
  187.7720  175.6830  143.4130 F   0  0  0  0  0  0  0  0  0  0  0  0
  189.5270  176.8830  142.3980 C   0  0  0  0  0  0  0  0  0  0  0  0
  189.9370  177.7020  141.5930 O   0  0  0  0  0  0  0  0  0  0  0  0
  190.4610  175.8570  142.9480 C   0  0  0  0  0  2  0  0  0  0  0  0
  190.9360  176.2660  144.1950 O   0  0  0  0  0  1  0  0  0  0  0  0
  1  6  1  0  0  0  0
  2 23  1  1  0  0  0
  3  1  2  0  0  0  0
  4  2  1  0  0  0  0
  5  2  1  0  0  0  0
  6  8  1  0  0  0  0
  6  7  1  0  0  0  0
  7  4  1  0  0  0  0
  8 12  1  1  0  0  0
  8  5  1  0  0  0  0
  9 11  2  0  0  0  0
 11 10  1  0  0  0  0
 12 10  2  0  0  0  0
 13  9  1  0  0  0  0
 14 16  2  0  0  0  0
 15 14  1  0  0  0  0
 15  9  1  0  0  0  0
 16 12  1  0  0  0  0
 17 21  1  0  0  0  0
 18 22  1  0  0  0  0
 19 18  2  0  0  0  0
 20 17  2  0  0  0  0
 20 19  1  0  0  0  0
 21  1  1  0  0  0  0
 21 22  2  0  0  0  0
 23 25  1  1  0  0  0
 23 27  1  0  0  0  0
 25 24  1  0  0  0  0
 27 26  1  1  0  0  0
 27 28  1  0  0  0  0
 28 30  1  0  0  0  0
 30 29  2  0  0  0  0
 31 30  1  0  0  0  0
 32 33  1  1  0  0  0
 32 31  1  0  0  0  0
 34 32  1  0  0  0  0
 34 36  1  0  0  0  0
 35 34  2  0  0  0  0
 36 37  1  0  0  0  0
M  END
>  <MODEL>
3

>  <REMARK>
 VINA RESULT:      -7.7      3.802      7.210
  Name = 
  11 active torsions:
  status: ('A' for Active; 'I' for Inactive)
    1  A    between atoms: C_5  and  C_30
    2  A    between atoms: C_8  and  C_31
    3  A    between atoms: C_8  and  C_36
    4  A    between atoms: O_10  and  C_32
    5  A    between atoms: C_11  and  O_13
    6  A    between atoms: C_11  and  C_30
    7  A    between atoms: C_12  and  C_14
    8  A    between atoms: O_13  and  C_31
    9  A    between atoms: C_16  and  C_35
   10  A    between atoms: C_18  and  C_32
   11  A    between atoms: C_32  and  C_36
                            x       y       z     vdW  Elec       q    Type
                         _______ _______ _______ _____ _____    ______ ____

>  <TORSDO>
F 11

$$$$
=
 OpenBabel10222421173D

 37 39  0  0  1  0  0  0  0  0999 V2000
  181.3840  179.7630  139.3610 C   0  0  0  0  0  0  0  0  0  0  0  0
  185.3960  178.4990  138.8560 C   0  0  1  0  0  3  0  0  0  0  0  0
  180.5800  179.1390  140.1080 O   0  0  0  0  0  0  0  0  0  0  0  0
  184.7290  179.6560  138.1130 C   0  0  0  0  0  2  0  0  0  0  0  0
  184.3250  177.4710  139.2180 C   0  0  0  0  0  2  0  0  0  0  0  0
  182.7720  179.3810  139.3480 N   0  0  0  0  0  0  0  0  0  0  0  0
  183.7640  180.3160  138.9890 N   0  0  0  0  0  2  0  0  0  0  0  0
  183.1750  178.1210  139.9870 C   0  0  2  0  0  3  0  0  0  0  0  0
  184.6550  178.8850  144.2730 C   0  0  0  0  0  0  0  0  0  0  0  0
  184.7570  178.1880  141.8720 C   0  0  0  0  0  3  0  0  0  0  0  0
  185.2500  178.2500  143.2620 C   0  0  0  0  0  3  0  0  0  0  0  0
  183.4850  178.2950  141.4470 C   0  0  0  0  0  0  0  0  0  0  0  0
  185.3860  178.8110  145.8600 Cl  0  0  0  0  0  0  0  0  0  0  0  0
  182.3020  178.9840  143.5400 C   0  0  0  0  0  3  0  0  0  0  0  0
  183.4590  179.7560  144.0760 C   0  0  0  0  0  2  0  0  0  0  0  0
  182.3220  178.3730  142.3560 C   0  0  0  0  0  3  0  0  0  0  0  0
  180.3310  182.0150  139.1110 C   0  0  0  0  0  3  0  0  0  0  0  0
  180.3220  181.8110  136.3480 C   0  0  0  0  0  3  0  0  0  0  0  0
  179.8120  182.9410  136.9880 C   0  0  0  0  0  3  0  0  0  0  0  0
  179.8270  183.0190  138.3450 N   0  0  0  0  0  0  0  0  0  0  0  0
  180.8620  180.8620  138.5150 C   0  0  0  0  0  0  0  0  0  0  0  0
  180.8440  180.7700  137.1170 C   0  0  0  0  0  3  0  0  0  0  0  0
  186.5090  177.8740  138.0060 C   0  0  2  0  0  3  0  0  0  0  0  0
  186.6430  176.2520  136.4880 C   0  0  0  0  0  1  0  0  0  0  0  0
  186.2590  176.5080  137.8060 O   0  0  0  0  0  0  0  0  0  0  0  0
  188.7050  179.0220  137.9900 N   0  0  0  0  0  1  0  0  0  0  0  0
  187.8670  178.0670  138.6990 C   0  0  1  0  0  3  0  0  0  0  0  0
  187.7660  178.4080  140.1880 C   0  0  0  0  0  2  0  0  0  0  0  0
  189.6570  176.9870  140.5260 O   0  0  0  0  0  0  0  0  0  0  0  0
  188.7210  177.6390  141.0560 C   0  0  0  0  0  0  0  0  0  0  0  0
  188.5740  177.6090  142.4450 O   0  0  0  0  0  0  0  0  0  0  0  0
  188.7600  176.4290  143.2180 C   0  0  2  0  0  3  0  0  0  0  0  0
  187.6070  176.1240  143.9200 F   0  0  0  0  0  0  0  0  0  0  0  0
  189.8960  176.6200  144.1710 C   0  0  0  0  0  0  0  0  0  0  0  0
  191.0320  176.3250  143.8390 O   0  0  0  0  0  0  0  0  0  0  0  0
  189.6420  177.1490  145.5420 C   0  0  0  0  0  2  0  0  0  0  0  0
  188.6760  178.1560  145.4930 O   0  0  0  0  0  1  0  0  0  0  0  0
  1  3  2  0  0  0  0
  2 23  1  6  0  0  0
  2  5  1  0  0  0  0
  4  2  1  0  0  0  0
  4  7  1  0  0  0  0
  5  8  1  0  0  0  0
  6  1  1  0  0  0  0
  6  8  1  0  0  0  0
  7  6  1  0  0  0  0
  8 12  1  1  0  0  0
  9 13  1  0  0  0  0
 10 11  1  0  0  0  0
 11  9  2  0  0  0  0
 12 10  2  0  0  0  0
 12 16  1  0  0  0  0
 14 15  1  0  0  0  0
 15  9  1  0  0  0  0
 16 14  2  0  0  0  0
 18 19  2  0  0  0  0
 18 22  1  0  0  0  0
 19 20  1  0  0  0  0
 20 17  2  0  0  0  0
 21 17  1  0  0  0  0
 21  1  1  0  0  0  0
 22 21  2  0  0  0  0
 23 25  1  1  0  0  0
 23 27  1  0  0  0  0
 24 25  1  0  0  0  0
 27 26  1  6  0  0  0
 27 28  1  0  0  0  0
 28 30  1  0  0  0  0
 29 30  2  0  0  0  0
 30 31  1  0  0  0  0
 31 32  1  0  0  0  0
 32 33  1  1  0  0  0
 32 34  1  0  0  0  0
 34 36  1  0  0  0  0
 35 34  2  0  0  0  0
 37 36  1  0  0  0  0
M  END
>  <MODEL>
4

>  <REMARK>
 VINA RESULT:      -7.2      3.960      6.878
  Name = 
  11 active torsions:
  status: ('A' for Active; 'I' for Inactive)
    1  A    between atoms: C_5  and  C_30
    2  A    between atoms: C_8  and  C_31
    3  A    between atoms: C_8  and  C_36
    4  A    between atoms: O_10  and  C_32
    5  A    between atoms: C_11  and  O_13
    6  A    between atoms: C_11  and  C_30
    7  A    between atoms: C_12  and  C_14
    8  A    between atoms: O_13  and  C_31
    9  A    between atoms: C_16  and  C_35
   10  A    between atoms: C_18  and  C_32
   11  A    between atoms: C_32  and  C_36
                            x       y       z     vdW  Elec       q    Type
                         _______ _______ _______ _____ _____    ______ ____

>  <TORSDO>
F 11

$$$$
=
 OpenBabel10222421173D

 37 39  0  0  1  0  0  0  0  0999 V2000
  192.9550  176.5180  138.6360 C   0  0  0  0  0  0  0  0  0  0  0  0
  188.7320  176.5330  138.2920 C   0  0  1  0  0  3  0  0  0  0  0  0
  193.5660  177.3650  139.3460 O   0  0  0  0  0  0  0  0  0  0  0  0
  189.6830  175.6130  137.5270 C   0  0  0  0  0  2  0  0  0  0  0  0
  189.4640  177.8370  138.6060 C   0  0  0  0  0  2  0  0  0  0  0  0
  191.5160  176.4740  138.6780 N   0  0  0  0  0  0  0  0  0  0  0  0
  190.8330  175.2810  138.3640 N   0  0  0  0  0  2  0  0  0  0  0  0
  190.7840  177.5680  139.3280 C   0  0  2  0  0  3  0  0  0  0  0  0
  190.6820  177.2210  143.9120 C   0  0  0  0  0  0  0  0  0  0  0  0
  191.6660  177.3320  141.6150 C   0  0  0  0  0  3  0  0  0  0  0  0
  191.6960  177.0490  143.0630 C   0  0  0  0  0  3  0  0  0  0  0  0
  190.5950  177.3330  140.8010 C   0  0  0  0  0  0  0  0  0  0  0  0
  190.9090  176.7920  145.5930 Cl  0  0  0  0  0  0  0  0  0  0  0  0
  188.7120  177.1140  142.4320 C   0  0  0  0  0  3  0  0  0  0  0  0
  189.4040  177.8780  143.5090 C   0  0  0  0  0  2  0  0  0  0  0  0
  189.2430  176.9140  141.2260 C   0  0  0  0  0  3  0  0  0  0  0  0
  193.7360  175.7810  136.3800 C   0  0  0  0  0  3  0  0  0  0  0  0
  195.1980  173.6910  137.4630 C   0  0  0  0  0  3  0  0  0  0  0  0
  195.1630  173.9070  136.0850 C   0  0  0  0  0  3  0  0  0  0  0  0
  194.4390  174.9380  135.5760 N   0  0  0  0  0  0  0  0  0  0  0  0
  193.7460  175.6100  137.7720 C   0  0  0  0  0  0  0  0  0  0  0  0
  194.4840  174.5450  138.3040 C   0  0  0  0  0  3  0  0  0  0  0  0
  187.4520  176.7880  137.4870 C   0  0  2  0  0  3  0  0  0  0  0  0
  186.7770  176.0410  135.5020 C   0  0  0  0  0  1  0  0  0  0  0  0
  187.7430  176.8420  136.1150 O   0  0  0  0  0  0  0  0  0  0  0  0
  187.1870  179.2200  137.0950 N   0  0  0  0  0  1  0  0  0  0  0  0
  186.8010  178.1020  137.9430 C   0  0  1  0  0  3  0  0  0  0  0  0
  185.2810  178.0240  138.1080 C   0  0  0  0  0  2  0  0  0  0  0  0
  185.5650  179.3320  140.0870 O   0  0  0  0  0  0  0  0  0  0  0  0
  184.7610  178.7400  139.3210 C   0  0  0  0  0  0  0  0  0  0  0  0
  183.3990  178.7400  139.6350 O   0  0  0  0  0  0  0  0  0  0  0  0
  182.4610  179.6060  139.0080 C   0  0  2  0  0  3  0  0  0  0  0  0
  183.0550  180.8160  138.6940 F   0  0  0  0  0  0  0  0  0  0  0  0
  181.2970  179.8360  139.9190 C   0  0  0  0  0  0  0  0  0  0  0  0
  181.1350  179.1290  140.8990 O   0  0  0  0  0  0  0  0  0  0  0  0
  180.3130  180.9170  139.6190 C   0  0  0  0  0  2  0  0  0  0  0  0
  179.5530  181.1970  140.7550 O   0  0  0  0  0  1  0  0  0  0  0  0
  1  6  1  0  0  0  0
  1  3  2  0  0  0  0
  2 23  1  6  0  0  0
  2  5  1  0  0  0  0
  4  2  1  0  0  0  0
  4  7  1  0  0  0  0
  5  8  1  0  0  0  0
  6  8  1  0  0  0  0
  7  6  1  0  0  0  0
  8 12  1  1  0  0  0
  9 13  1  0  0  0  0
 10 11  1  0  0  0  0
 11  9  2  0  0  0  0
 12 16  1  0  0  0  0
 12 10  2  0  0  0  0
 14 15  1  0  0  0  0
 15  9  1  0  0  0  0
 16 14  2  0  0  0  0
 17 21  1  0  0  0  0
 18 22  1  0  0  0  0
 19 18  2  0  0  0  0
 20 19  1  0  0  0  0
 20 17  2  0  0  0  0
 21 22  2  0  0  0  0
 21  1  1  0  0  0  0
 23 25  1  6  0  0  0
 23 27  1  0  0  0  0
 24 25  1  0  0  0  0
 27 26  1  6  0  0  0
 27 28  1  0  0  0  0
 28 30  1  0  0  0  0
 30 31  1  0  0  0  0
 30 29  2  0  0  0  0
 32 33  1  1  0  0  0
 32 31  1  0  0  0  0
 32 34  1  0  0  0  0
 34 35  2  0  0  0  0
 36 34  1  0  0  0  0
 36 37  1  0  0  0  0
M  END
>  <MODEL>
5

>  <REMARK>
 VINA RESULT:      -7.1      4.968      9.266
  Name = 
  11 active torsions:
  status: ('A' for Active; 'I' for Inactive)
    1  A    between atoms: C_5  and  C_30
    2  A    between atoms: C_8  and  C_31
    3  A    between atoms: C_8  and  C_36
    4  A    between atoms: O_10  and  C_32
    5  A    between atoms: C_11  and  O_13
    6  A    between atoms: C_11  and  C_30
    7  A    between atoms: C_12  and  C_14
    8  A    between atoms: O_13  and  C_31
    9  A    between atoms: C_16  and  C_35
   10  A    between atoms: C_18  and  C_32
   11  A    between atoms: C_32  and  C_36
                            x       y       z     vdW  Elec       q    Type
                         _______ _______ _______ _____ _____    ______ ____

>  <TORSDO>
F 11

$$$$
=
 OpenBabel10222421173D

 37 39  0  0  1  0  0  0  0  0999 V2000
  185.5090  179.0140  143.7580 C   0  0  0  0  0  0  0  0  0  0  0  0
  188.0290  177.8090  140.5730 C   0  0  1  0  0  3  0  0  0  0  0  0
  184.5420  179.8060  143.5770 O   0  0  0  0  0  0  0  0  0  0  0  0
  188.2210  177.4450  142.0440 C   0  0  0  0  0  2  0  0  0  0  0  0
  187.3120  179.1570  140.4940 C   0  0  0  0  0  2  0  0  0  0  0  0
  186.2340  178.5190  142.6170 N   0  0  0  0  0  0  0  0  0  0  0  0
  186.9200  177.2890  142.6910 N   0  0  0  0  0  2  0  0  0  0  0  0
  186.0160  179.1390  141.3050 C   0  0  2  0  0  3  0  0  0  0  0  0
  182.1820  177.3920  139.4620 C   0  0  0  0  0  0  0  0  0  0  0  0
  183.8460  177.9790  141.2370 C   0  0  0  0  0  3  0  0  0  0  0  0
  182.6820  177.2530  140.6900 C   0  0  0  0  0  3  0  0  0  0  0  0
  184.8780  178.5040  140.5540 C   0  0  0  0  0  0  0  0  0  0  0  0
  180.8120  176.4100  138.9930 Cl  0  0  0  0  0  0  0  0  0  0  0  0
  184.1110  178.2530  138.1870 C   0  0  0  0  0  3  0  0  0  0  0  0
  182.6680  178.4390  138.5150 C   0  0  0  0  0  2  0  0  0  0  0  0
  185.0790  178.3210  139.1010 C   0  0  0  0  0  3  0  0  0  0  0  0
  185.0000  178.9430  146.2030 C   0  0  0  0  0  3  0  0  0  0  0  0
  187.4020  177.6820  146.7650 C   0  0  0  0  0  3  0  0  0  0  0  0
  186.5020  178.0030  147.7820 C   0  0  0  0  0  3  0  0  0  0  0  0
  185.3300  178.6220  147.4830 N   0  0  0  0  0  0  0  0  0  0  0  0
  185.8680  178.6350  145.1450 C   0  0  0  0  0  0  0  0  0  0  0  0
  187.0810  178.0030  145.4450 C   0  0  0  0  0  3  0  0  0  0  0  0
  189.3750  177.8460  139.8390 C   0  0  2  0  0  3  0  0  0  0  0  0
  189.4070  178.7490  137.8050 C   0  0  0  0  0  1  0  0  0  0  0  0
  189.1960  177.5460  138.4800 O   0  0  0  0  0  0  0  0  0  0  0  0
  190.7970  175.8410  139.5270 N   0  0  0  0  0  1  0  0  0  0  0  0
  190.3480  176.8450  140.4800 C   0  0  1  0  0  3  0  0  0  0  0  0
  191.5280  177.4960  141.2050 C   0  0  0  0  0  2  0  0  0  0  0  0
  191.3830  178.7750  143.2180 O   0  0  0  0  0  0  0  0  0  0  0  0
  191.3320  177.6350  142.6880 C   0  0  0  0  0  0  0  0  0  0  0  0
  191.1200  176.5180  143.5000 O   0  0  0  0  0  0  0  0  0  0  0  0
  192.0550  176.0860  144.4810 C   0  0  2  0  0  3  0  0  0  0  0  0
  192.2970  174.7290  144.3540 F   0  0  0  0  0  0  0  0  0  0  0  0
  191.5250  176.3780  145.8490 C   0  0  0  0  0  0  0  0  0  0  0  0
  190.6830  177.2460  146.0090 O   0  0  0  0  0  0  0  0  0  0  0  0
  192.0440  175.6270  147.0290 C   0  0  0  0  0  2  0  0  0  0  0  0
  192.4310  176.5210  148.0290 O   0  0  0  0  0  1  0  0  0  0  0  0
  1 21  1  0  0  0  0
  2 23  1  1  0  0  0
  2  4  1  0  0  0  0
  3  1  2  0  0  0  0
  4  7  1  0  0  0  0
  5  2  1  0  0  0  0
  5  8  1  0  0  0  0
  6  7  1  0  0  0  0
  6  1  1  0  0  0  0
  8 12  1  6  0  0  0
  8  6  1  0  0  0  0
  9 11  2  0  0  0  0
 11 10  1  0  0  0  0
 12 10  2  0  0  0  0
 13  9  1  0  0  0  0
 14 15  1  0  0  0  0
 14 16  2  0  0  0  0
 15  9  1  0  0  0  0
 16 12  1  0  0  0  0
 17 20  1  0  0  0  0
 18 19  1  0  0  0  0
 20 19  2  0  0  0  0
 21 22  1  0  0  0  0
 21 17  2  0  0  0  0
 22 18  2  0  0  0  0
 23 25  1  6  0  0  0
 23 27  1  0  0  0  0
 24 25  1  0  0  0  0
 27 26  1  6  0  0  0
 27 28  1  0  0  0  0
 28 30  1  0  0  0  0
 30 29  2  0  0  0  0
 30 31  1  0  0  0  0
 31 32  1  0  0  0  0
 32 33  1  1  0  0  0
 32 34  1  0  0  0  0
 34 35  2  0  0  0  0
 34 36  1  0  0  0  0
 36 37  1  0  0  0  0
M  END
>  <MODEL>
6

>  <REMARK>
 VINA RESULT:      -6.9      2.715      4.903
  Name = 
  11 active torsions:
  status: ('A' for Active; 'I' for Inactive)
    1  A    between atoms: C_5  and  C_30
    2  A    between atoms: C_8  and  C_31
    3  A    between atoms: C_8  and  C_36
    4  A    between atoms: O_10  and  C_32
    5  A    between atoms: C_11  and  O_13
    6  A    between atoms: C_11  and  C_30
    7  A    between atoms: C_12  and  C_14
    8  A    between atoms: O_13  and  C_31
    9  A    between atoms: C_16  and  C_35
   10  A    between atoms: C_18  and  C_32
   11  A    between atoms: C_32  and  C_36
                            x       y       z     vdW  Elec       q    Type
                         _______ _______ _______ _____ _____    ______ ____

>  <TORSDO>
F 11

$$$$
=
 OpenBabel10222421173D

 37 39  0  0  1  0  0  0  0  0999 V2000
  185.8370  178.8960  145.0700 C   0  0  0  0  0  0  0  0  0  0  0  0
  186.8180  178.0240  141.0410 C   0  0  1  0  0  3  0  0  0  0  0  0
  184.9420  179.7340  145.3690 O   0  0  0  0  0  0  0  0  0  0  0  0
  187.5380  177.4710  142.2710 C   0  0  0  0  0  2  0  0  0  0  0  0
  186.2350  179.3930  141.3930 C   0  0  0  0  0  2  0  0  0  0  0  0
  186.0210  178.5260  143.6900 N   0  0  0  0  0  0  0  0  0  0  0  0
  186.5830  177.2760  143.3590 N   0  0  0  0  0  2  0  0  0  0  0  0
  185.3590  179.3130  142.6430 C   0  0  2  0  0  3  0  0  0  0  0  0
  180.9220  178.2900  141.9970 C   0  0  0  0  0  0  0  0  0  0  0  0
  182.9690  179.0940  143.1920 C   0  0  0  0  0  3  0  0  0  0  0  0
  181.5680  178.6340  143.1120 C   0  0  0  0  0  3  0  0  0  0  0  0
  183.9730  178.8140  142.3420 C   0  0  0  0  0  0  0  0  0  0  0  0
  179.2670  177.7370  142.1190 Cl  0  0  0  0  0  0  0  0  0  0  0  0
  182.7630  177.6720  140.4750 C   0  0  0  0  0  3  0  0  0  0  0  0
  181.5160  178.4730  140.6410 C   0  0  0  0  0  2  0  0  0  0  0  0
  183.8530  177.8630  141.2170 C   0  0  0  0  0  3  0  0  0  0  0  0
  186.4480  178.7130  147.4850 C   0  0  0  0  0  3  0  0  0  0  0  0
  188.5220  176.9610  146.9280 C   0  0  0  0  0  3  0  0  0  0  0  0
  188.2500  177.3620  148.2370 C   0  0  0  0  0  3  0  0  0  0  0  0
  187.2280  178.2220  148.4860 N   0  0  0  0  0  0  0  0  0  0  0  0
  186.6770  178.3340  146.1540 C   0  0  0  0  0  0  0  0  0  0  0  0
  187.7330  177.4530  145.8870 C   0  0  0  0  0  3  0  0  0  0  0  0
  187.7710  178.1110  139.8430 C   0  0  2  0  0  3  0  0  0  0  0  0
  187.2010  178.6300  137.7550 C   0  0  0  0  0  1  0  0  0  0  0  0
  187.1530  177.5970  138.6930 O   0  0  0  0  0  0  0  0  0  0  0  0
  189.4820  176.5240  139.0110 N   0  0  0  0  0  1  0  0  0  0  0  0
  189.0620  177.3350  140.1440 C   0  0  1  0  0  3  0  0  0  0  0  0
  190.2070  178.2050  140.6650 C   0  0  0  0  0  2  0  0  0  0  0  0
  192.4530  177.4560  140.9930 O   0  0  0  0  0  0  0  0  0  0  0  0
  191.2650  177.4410  141.4090 C   0  0  0  0  0  0  0  0  0  0  0  0
  190.9530  176.6860  142.5430 O   0  0  0  0  0  0  0  0  0  0  0  0
  190.9570  177.2280  143.8580 C   0  0  2  0  0  3  0  0  0  0  0  0
  191.6020  178.4530  143.8740 F   0  0  0  0  0  0  0  0  0  0  0  0
  191.6450  176.2840  144.7920 C   0  0  0  0  0  0  0  0  0  0  0  0
  192.0610  175.2120  144.3860 O   0  0  0  0  0  0  0  0  0  0  0  0
  191.8010  176.6370  146.2330 C   0  0  0  0  0  2  0  0  0  0  0  0
  192.2890  175.5380  146.9430 O   0  0  0  0  0  1  0  0  0  0  0  0
  1  3  2  0  0  0  0
  1 21  1  0  0  0  0
  2 23  1  6  0  0  0
  2  5  1  0  0  0  0
  2  4  1  0  0  0  0
  4  7  1  0  0  0  0
  5  8  1  0  0  0  0
  6  1  1  0  0  0  0
  7  6  1  0  0  0  0
  8 12  1  6  0  0  0
  8  6  1  0  0  0  0
  9 13  1  0  0  0  0
  9 11  2  0  0  0  0
 11 10  1  0  0  0  0
 12 10  2  0  0  0  0
 14 15  1  0  0  0  0
 14 16  2  0  0  0  0
 15  9  1  0  0  0  0
 16 12  1  0  0  0  0
 17 20  1  0  0  0  0
 18 19  1  0  0  0  0
 19 20  2  0  0  0  0
 21 17  2  0  0  0  0
 22 21  1  0  0  0  0
 22 18  2  0  0  0  0
 23 25  1  6  0  0  0
 23 27  1  0  0  0  0
 24 25  1  0  0  0  0
 27 26  1  6  0  0  0
 27 28  1  0  0  0  0
 28 30  1  0  0  0  0
 29 30  2  0  0  0  0
 30 31  1  0  0  0  0
 31 32  1  0  0  0  0
 32 33  1  6  0  0  0
 32 34  1  0  0  0  0
 34 36  1  0  0  0  0
 35 34  2  0  0  0  0
 36 37  1  0  0  0  0
M  END
>  <MODEL>
7

>  <REMARK>
 VINA RESULT:      -6.8      2.896      6.071
  Name = 
  11 active torsions:
  status: ('A' for Active; 'I' for Inactive)
    1  A    between atoms: C_5  and  C_30
    2  A    between atoms: C_8  and  C_31
    3  A    between atoms: C_8  and  C_36
    4  A    between atoms: O_10  and  C_32
    5  A    between atoms: C_11  and  O_13
    6  A    between atoms: C_11  and  C_30
    7  A    between atoms: C_12  and  C_14
    8  A    between atoms: O_13  and  C_31
    9  A    between atoms: C_16  and  C_35
   10  A    between atoms: C_18  and  C_32
   11  A    between atoms: C_32  and  C_36
                            x       y       z     vdW  Elec       q    Type
                         _______ _______ _______ _____ _____    ______ ____

>  <TORSDO>
F 11

$$$$
=
 OpenBabel10222421173D

 37 39  0  0  1  0  0  0  0  0999 V2000
  185.8010  177.8820  138.0380 C   0  0  0  0  0  0  0  0  0  0  0  0
  182.0070  178.3100  139.8740 C   0  0  1  0  0  3  0  0  0  0  0  0
  186.7590  178.6600  138.3050 O   0  0  0  0  0  0  0  0  0  0  0  0
  182.3540  177.3080  138.7740 C   0  0  0  0  0  2  0  0  0  0  0  0
  182.9080  179.5350  139.7180 C   0  0  0  0  0  2  0  0  0  0  0  0
  184.5850  177.9780  138.8030 N   0  0  0  0  0  0  0  0  0  0  0  0
  183.7360  176.8600  138.9290 N   0  0  0  0  0  2  0  0  0  0  0  0
  184.3830  179.1330  139.6860 C   0  0  2  0  0  3  0  0  0  0  0  0
  185.6040  178.1230  144.0030 C   0  0  0  0  0  0  0  0  0  0  0  0
  184.1120  178.7960  142.1090 C   0  0  0  0  0  3  0  0  0  0  0  0
  184.4710  178.6490  143.5340 C   0  0  0  0  0  3  0  0  0  0  0  0
  184.9470  178.9070  141.0610 C   0  0  0  0  0  0  0  0  0  0  0  0
  185.8540  178.0700  145.7330 Cl  0  0  0  0  0  0  0  0  0  0  0  0
  187.1630  178.4280  142.1160 C   0  0  0  0  0  3  0  0  0  0  0  0
  186.6090  177.4690  143.1140 C   0  0  0  0  0  2  0  0  0  0  0  0
  186.4140  179.0280  141.1910 C   0  0  0  0  0  3  0  0  0  0  0  0
  185.2110  177.0500  135.7580 C   0  0  0  0  0  3  0  0  0  0  0  0
  186.9350  174.8940  135.9930 C   0  0  0  0  0  3  0  0  0  0  0  0
  186.1720  175.0830  134.8390 C   0  0  0  0  0  3  0  0  0  0  0  0
  185.3330  176.1480  134.7460 N   0  0  0  0  0  0  0  0  0  0  0  0
  185.9620  176.9070  136.9330 C   0  0  0  0  0  0  0  0  0  0  0  0
  186.8240  175.8090  137.0400 C   0  0  0  0  0  3  0  0  0  0  0  0
  180.5230  178.6940  139.8150 C   0  0  2  0  0  3  0  0  0  0  0  0
  179.6260  178.8720  141.8440 C   0  0  0  0  0  1  0  0  0  0  0  0
  179.7980  177.9820  140.7830 O   0  0  0  0  0  0  0  0  0  0  0  0
  178.9340  177.3770  138.4440 N   0  0  0  0  0  1  0  0  0  0  0  0
  179.9630  178.4050  138.4140 C   0  0  1  0  0  3  0  0  0  0  0  0
  179.4890  179.6500  137.6610 C   0  0  0  0  0  2  0  0  0  0  0  0
  181.4810  179.6560  136.3420 O   0  0  0  0  0  0  0  0  0  0  0  0
  180.5690  180.3390  136.8780 C   0  0  0  0  0  0  0  0  0  0  0  0
  180.6010  181.7300  136.7540 O   0  0  0  0  0  0  0  0  0  0  0  0
  181.0090  182.5920  137.8100 C   0  0  2  0  0  3  0  0  0  0  0  0
  180.0080  182.7010  138.7590 F   0  0  0  0  0  0  0  0  0  0  0  0
  181.3360  183.9450  137.2630 C   0  0  0  0  0  0  0  0  0  0  0  0
  182.3740  184.5010  137.5790 O   0  0  0  0  0  0  0  0  0  0  0  0
  180.3800  184.6330  136.3470 C   0  0  0  0  0  2  0  0  0  0  0  0
  180.8830  184.6290  135.0440 O   0  0  0  0  0  1  0  0  0  0  0  0
  1  3  2  0  0  0  0
  1  6  1  0  0  0  0
  2 23  1  6  0  0  0
  4  7  1  0  0  0  0
  4  2  1  0  0  0  0
  5  2  1  0  0  0  0
  6  7  1  0  0  0  0
  6  8  1  0  0  0  0
  8  5  1  0  0  0  0
  8 12  1  1  0  0  0
  9 13  1  0  0  0  0
 10 11  1  0  0  0  0
 11  9  2  0  0  0  0
 12 16  1  0  0  0  0
 12 10  2  0  0  0  0
 14 15  1  0  0  0  0
 15  9  1  0  0  0  0
 16 14  2  0  0  0  0
 17 21  1  0  0  0  0
 18 22  1  0  0  0  0
 19 18  2  0  0  0  0
 20 19  1  0  0  0  0
 20 17  2  0  0  0  0
 21 22  2  0  0  0  0
 21  1  1  0  0  0  0
 23 25  1  1  0  0  0
 25 24  1  0  0  0  0
 27 26  1  1  0  0  0
 27 23  1  0  0  0  0
 28 27  1  0  0  0  0
 29 30  2  0  0  0  0
 30 28  1  0  0  0  0
 31 30  1  0  0  0  0
 31 32  1  0  0  0  0
 32 33  1  1  0  0  0
 34 35  2  0  0  0  0
 34 32  1  0  0  0  0
 36 34  1  0  0  0  0
 37 36  1  0  0  0  0
M  END
>  <MODEL>
8

>  <REMARK>
 VINA RESULT:      -6.8      5.748     10.325
  Name = 
  11 active torsions:
  status: ('A' for Active; 'I' for Inactive)
    1  A    between atoms: C_5  and  C_30
    2  A    between atoms: C_8  and  C_31
    3  A    between atoms: C_8  and  C_36
    4  A    between atoms: O_10  and  C_32
    5  A    between atoms: C_11  and  O_13
    6  A    between atoms: C_11  and  C_30
    7  A    between atoms: C_12  and  C_14
    8  A    between atoms: O_13  and  C_31
    9  A    between atoms: C_16  and  C_35
   10  A    between atoms: C_18  and  C_32
   11  A    between atoms: C_32  and  C_36
                            x       y       z     vdW  Elec       q    Type
                         _______ _______ _______ _____ _____    ______ ____

>  <TORSDO>
F 11

$$$$
=
 OpenBabel10222421173D

 37 39  0  0  1  0  0  0  0  0999 V2000
  185.2360  179.0380  140.9960 C   0  0  0  0  0  0  0  0  0  0  0  0
  189.0730  177.2990  141.4490 C   0  0  1  0  0  3  0  0  0  0  0  0
  184.9250  179.7020  139.9680 O   0  0  0  0  0  0  0  0  0  0  0  0
  187.9670  177.2970  142.5030 C   0  0  0  0  0  2  0  0  0  0  0  0
  188.9110  178.5420  140.5750 C   0  0  0  0  0  2  0  0  0  0  0  0
  186.4960  178.3410  141.0280 N   0  0  0  0  0  0  0  0  0  0  0  0
  186.6620  177.2100  141.8520 N   0  0  0  0  0  2  0  0  0  0  0  0
  187.4990  178.6270  139.9940 C   0  0  2  0  0  3  0  0  0  0  0  0
  187.2770  175.5590  136.5760 C   0  0  0  0  0  0  0  0  0  0  0  0
  188.2800  176.8710  138.4560 C   0  0  0  0  0  3  0  0  0  0  0  0
  188.3300  175.9930  137.2700 C   0  0  0  0  0  3  0  0  0  0  0  0
  187.3260  177.7630  138.7760 C   0  0  0  0  0  0  0  0  0  0  0  0
  187.5500  174.5490  135.1740 Cl  0  0  0  0  0  0  0  0  0  0  0  0
  185.5600  177.2580  137.0790 C   0  0  0  0  0  3  0  0  0  0  0  0
  185.8720  175.8010  137.0200 C   0  0  0  0  0  2  0  0  0  0  0  0
  186.1930  178.1040  137.8910 C   0  0  0  0  0  3  0  0  0  0  0  0
  184.7790  179.1210  143.4510 C   0  0  0  0  0  3  0  0  0  0  0  0
  182.0560  178.7980  143.0530 C   0  0  0  0  0  3  0  0  0  0  0  0
  182.5870  178.9180  144.3380 C   0  0  0  0  0  3  0  0  0  0  0  0
  183.9260  179.0750  144.5090 N   0  0  0  0  0  0  0  0  0  0  0  0
  184.2930  179.0130  142.1400 C   0  0  0  0  0  0  0  0  0  0  0  0
  182.9160  178.8430  141.9540 C   0  0  0  0  0  3  0  0  0  0  0  0
  190.4570  177.2530  142.1090 C   0  0  2  0  0  3  0  0  0  0  0  0
  192.3150  177.8800  141.0560 C   0  0  0  0  0  1  0  0  0  0  0  0
  191.4200  176.8160  141.1880 O   0  0  0  0  0  0  0  0  0  0  0  0
  190.2480  174.9270  142.9360 N   0  0  0  0  0  1  0  0  0  0  0  0
  190.4240  176.3180  143.3270 C   0  0  1  0  0  3  0  0  0  0  0  0
  191.6130  176.4860  144.2760 C   0  0  0  0  0  2  0  0  0  0  0  0
  192.0300  176.9170  146.5890 O   0  0  0  0  0  0  0  0  0  0  0  0
  191.2490  177.0660  145.6130 C   0  0  0  0  0  0  0  0  0  0  0  0
  190.0440  177.7470  145.8050 O   0  0  0  0  0  0  0  0  0  0  0  0
  189.2960  177.6710  147.0130 C   0  0  2  0  0  3  0  0  0  0  0  0
  189.6390  176.5320  147.7220 F   0  0  0  0  0  0  0  0  0  0  0  0
  187.8340  177.6510  146.7030 C   0  0  0  0  0  0  0  0  0  0  0  0
  187.4310  177.1410  145.6700 O   0  0  0  0  0  0  0  0  0  0  0  0
  186.8600  178.2780  147.6430 C   0  0  0  0  0  2  0  0  0  0  0  0
  185.6150  178.4040  147.0250 O   0  0  0  0  0  1  0  0  0  0  0  0
  1  6  1  0  0  0  0
  1 21  1  0  0  0  0
  2 23  1  1  0  0  0
  2  4  1  0  0  0  0
  3  1  2  0  0  0  0
  5  2  1  0  0  0  0
  6  7  1  0  0  0  0
  7  4  1  0  0  0  0
  8 12  1  6  0  0  0
  8  5  1  0  0  0  0
  8  6  1  0  0  0  0
  9 15  1  0  0  0  0
  9 11  2  0  0  0  0
 10 12  2  0  0  0  0
 11 10  1  0  0  0  0
 13  9  1  0  0  0  0
 14 16  2  0  0  0  0
 15 14  1  0  0  0  0
 16 12  1  0  0  0  0
 17 20  1  0  0  0  0
 18 19  1  0  0  0  0
 19 20  2  0  0  0  0
 21 17  2  0  0  0  0
 22 21  1  0  0  0  0
 22 18  2  0  0  0  0
 23 25  1  6  0  0  0
 23 27  1  0  0  0  0
 24 25  1  0  0  0  0
 27 26  1  6  0  0  0
 27 28  1  0  0  0  0
 28 30  1  0  0  0  0
 30 31  1  0  0  0  0
 30 29  2  0  0  0  0
 31 32  1  0  0  0  0
 32 33  1  6  0  0  0
 34 32  1  0  0  0  0
 34 36  1  0  0  0  0
 35 34  2  0  0  0  0
 37 36  1  0  0  0  0
M  END
>  <MODEL>
9

>  <REMARK>
 VINA RESULT:      -6.7      1.535      2.196
  Name = 
  11 active torsions:
  status: ('A' for Active; 'I' for Inactive)
    1  A    between atoms: C_5  and  C_30
    2  A    between atoms: C_8  and  C_31
    3  A    between atoms: C_8  and  C_36
    4  A    between atoms: O_10  and  C_32
    5  A    between atoms: C_11  and  O_13
    6  A    between atoms: C_11  and  C_30
    7  A    between atoms: C_12  and  C_14
    8  A    between atoms: O_13  and  C_31
    9  A    between atoms: C_16  and  C_35
   10  A    between atoms: C_18  and  C_32
   11  A    between atoms: C_32  and  C_36
                            x       y       z     vdW  Elec       q    Type
                         _______ _______ _______ _____ _____    ______ ____

>  <TORSDO>
F 11

$$$$
