=
 OpenBabel10222416313D

 32 37  0  0  1  0  0  0  0  0999 V2000
  187.4030  173.9590  137.2000 O   0  0  0  0  0  0  0  0  0  0  0  0
  189.8860  174.5990  136.0320 N   0  0  0  0  0  2  0  0  0  0  0  0
  194.2710  174.9300  135.4120 N   0  0  0  0  0  0  0  0  0  0  0  0
  189.2660  175.8560  136.1830 N   0  0  1  0  0  0  0  0  0  0  0  0
  194.6610  176.0440  135.9830 C   0  0  0  0  0  0  0  0  0  0  0  0
  187.9220  175.7480  135.7680 N   0  0  0  0  0  0  0  0  0  0  0  0
  190.5740  175.5670  138.1440 C   0  0  2  0  0  3  0  0  0  0  0  0
  187.4600  176.7030  134.7640 C   0  0  0  0  0  2  0  0  0  0  0  0
  193.0070  174.2970  135.7160 C   0  0  0  0  0  3  0  0  0  0  0  0
  192.2070  174.8630  136.6170 C   0  0  0  0  0  0  0  0  0  0  0  0
  191.7180  176.4970  138.1020 N   0  0  0  0  0  0  0  0  0  0  0  0
  189.2070  177.7020  137.8140 C   0  0  0  0  0  2  0  0  0  0  0  0
  185.5710  178.4960  138.3960 C   0  0  0  0  0  1  0  0  0  0  0  0
  187.0140  174.7600  136.3080 C   0  0  0  0  0  0  0  0  0  0  0  0
  192.5880  176.0660  137.2620 C   0  0  0  0  0  0  0  0  0  0  0  0
  187.8070  178.1670  137.5750 C   0  0  0  0  0  0  0  0  0  0  0  0
  193.8280  176.6970  136.9590 N   0  0  0  0  0  2  0  0  0  0  0  0
  195.9180  176.6120  135.6330 N   0  0  0  0  0  1  0  0  0  0  0  0
  187.4680  178.7570  136.2320 C   0  0  0  0  0  2  0  0  0  0  0  0
  190.8690  174.4640  137.1070 C   0  0  2  0  0  3  0  0  0  0  0  0
  186.6160  177.8010  135.4020 C   0  0  0  0  0  2  0  0  0  0  0  0
  186.9390  178.0580  138.5230 N   0  0  0  0  0  0  0  0  0  0  0  0
  189.3060  176.1920  137.6030 C   0  0  1  0  0  3  0  0  0  0  0  0
  180.7710  174.4170  135.8780 C   0  0  0  0  0  2  0  0  0  0  0  0
  181.5950  173.5080  135.1680 O   0  0  0  0  0  0  0  0  0  0  0  0
  183.8920  173.1020  134.8780 N   0  0  0  0  0  0  0  0  0  0  0  0
  185.3160  173.3440  135.1470 C   0  0  0  0  0  2  0  0  0  0  0  0
  185.5960  174.6880  135.8320 C   0  0  1  0  0  3  0  0  0  0  0  0
  181.7320  175.3020  136.6840 C   0  0  0  0  0  2  0  0  0  0  0  0
  184.4440  174.9860  137.2130 S   0  0  0  0  0  0  0  0  0  0  0  0
  182.9190  173.8560  135.2940 C   0  0  0  0  0  0  0  0  0  0  0  0
  183.0920  175.1290  136.0180 C   0  0  1  0  0  3  0  0  0  0  0  0
  3  9  1  0  0  0  0
  3  5  2  0  0  0  0
  4  2  1  1  0  0  0
  4 23  1  0  0  0  0
  5 17  1  0  0  0  0
  6  4  1  0  0  0  0
  6 14  1  0  0  0  0
  7 11  1  6  0  0  0
  8 21  1  0  0  0  0
  8  6  1  0  0  0  0
  9 10  2  0  0  0  0
 10 20  1  0  0  0  0
 10 15  1  0  0  0  0
 13 22  1  0  0  0  0
 14  1  2  0  0  0  0
 15 11  2  0  0  0  0
 16 12  1  0  0  0  0
 16 22  2  0  0  0  0
 17 15  1  0  0  0  0
 18  5  1  0  0  0  0
 19 16  1  0  0  0  0
 20  2  1  6  0  0  0
 20  7  1  0  0  0  0
 21 19  1  0  0  0  0
 23 12  1  6  0  0  0
 23  7  1  0  0  0  0
 24 29  1  0  0  0  0
 25 31  1  0  0  0  0
 25 24  1  0  0  0  0
 26 27  1  0  0  0  0
 26 31  2  0  0  0  0
 27 28  1  0  0  0  0
 28 14  1  1  0  0  0
 28 30  1  0  0  0  0
 31 32  1  0  0  0  0
 32 29  1  1  0  0  0
 32 30  1  0  0  0  0
M  END
>  <MODEL>
1

>  <REMARK>
 VINA RESULT:      -6.0      0.000      0.000
  Name = 
  1 active torsions:
  status: ('A' for Active; 'I' for Inactive)
    1  A    between atoms: C_16  and  C_20
                            x       y       z     vdW  Elec       q    Type
                         _______ _______ _______ _____ _____    ______ ____

>  <TORSDO>
F 1

$$$$
=
 OpenBabel10222416313D

 32 37  0  0  1  0  0  0  0  0999 V2000
  187.5420  177.0790  139.4870 O   0  0  0  0  0  0  0  0  0  0  0  0
  185.5890  178.9070  138.6010 N   0  0  0  0  0  2  0  0  0  0  0  0
  181.7360  181.0850  138.2420 N   0  0  0  0  0  0  0  0  0  0  0  0
  185.9140  178.1890  137.4320 N   0  0  1  0  0  0  0  0  0  0  0  0
  181.0010  180.4340  137.3720 C   0  0  0  0  0  0  0  0  0  0  0  0
  187.3170  178.0550  137.3610 N   0  0  0  0  0  0  0  0  0  0  0  0
  184.0410  177.0600  138.3570 C   0  0  2  0  0  3  0  0  0  0  0  0
  187.9630  178.4970  136.1280 C   0  0  0  0  0  2  0  0  0  0  0  0
  182.8820  180.4940  138.8940 C   0  0  0  0  0  3  0  0  0  0  0  0
  183.2030  179.2340  138.6080 C   0  0  0  0  0  0  0  0  0  0  0  0
  182.8660  177.2930  137.4980 N   0  0  0  0  0  0  0  0  0  0  0  0
  185.0950  176.2310  136.1800 C   0  0  0  0  0  2  0  0  0  0  0  0
  188.1050  174.0760  135.4830 C   0  0  0  0  0  1  0  0  0  0  0  0
  188.1030  177.4930  138.4360 C   0  0  0  0  0  0  0  0  0  0  0  0
  182.4370  178.4900  137.6770 C   0  0  0  0  0  0  0  0  0  0  0  0
  186.4000  175.7650  135.6170 C   0  0  0  0  0  0  0  0  0  0  0  0
  181.3120  179.0720  137.0250 N   0  0  0  0  0  2  0  0  0  0  0  0
  179.8880  181.0800  136.7670 N   0  0  0  0  0  1  0  0  0  0  0  0
  187.1110  176.6510  134.6290 C   0  0  0  0  0  2  0  0  0  0  0  0
  184.3150  178.3860  139.0940 C   0  0  2  0  0  3  0  0  0  0  0  0
  188.3410  177.3050  135.2530 C   0  0  0  0  0  2  0  0  0  0  0  0
  186.8680  174.6210  135.9850 N   0  0  0  0  0  0  0  0  0  0  0  0
  185.3090  176.8670  137.5530 C   0  0  1  0  0  3  0  0  0  0  0  0
  193.9960  175.4370  137.8520 C   0  0  0  0  0  2  0  0  0  0  0  0
  193.6410  176.3260  138.8980 O   0  0  0  0  0  0  0  0  0  0  0  0
  191.7170  177.4460  139.6530 N   0  0  0  0  0  0  0  0  0  0  0  0
  190.2850  177.7720  139.6190 C   0  0  0  0  0  2  0  0  0  0  0  0
  189.5910  177.3730  138.3110 C   0  0  1  0  0  3  0  0  0  0  0  0
  192.6900  175.1490  137.0940 C   0  0  0  0  0  2  0  0  0  0  0  0
  190.0540  175.6860  137.7970 S   0  0  0  0  0  0  0  0  0  0  0  0
  192.3430  176.7550  138.7480 C   0  0  0  0  0  0  0  0  0  0  0  0
  191.7400  176.2710  137.4920 C   0  0  1  0  0  3  0  0  0  0  0  0
  3  9  1  0  0  0  0
  4 23  1  0  0  0  0
  4  2  1  1  0  0  0
  5  3  2  0  0  0  0
  6  4  1  0  0  0  0
  6 14  1  0  0  0  0
  7 11  1  6  0  0  0
  7 20  1  0  0  0  0
  8  6  1  0  0  0  0
 10  9  2  0  0  0  0
 10 20  1  0  0  0  0
 11 15  2  0  0  0  0
 13 22  1  0  0  0  0
 14  1  2  0  0  0  0
 15 10  1  0  0  0  0
 16 22  2  0  0  0  0
 16 12  1  0  0  0  0
 17  5  1  0  0  0  0
 17 15  1  0  0  0  0
 18  5  1  0  0  0  0
 19 21  1  0  0  0  0
 19 16  1  0  0  0  0
 20  2  1  6  0  0  0
 21  8  1  0  0  0  0
 23 12  1  6  0  0  0
 23  7  1  0  0  0  0
 24 25  1  0  0  0  0
 27 26  1  0  0  0  0
 28 14  1  1  0  0  0
 28 27  1  0  0  0  0
 29 24  1  0  0  0  0
 30 28  1  0  0  0  0
 31 25  1  0  0  0  0
 31 26  2  0  0  0  0
 32 29  1  1  0  0  0
 32 30  1  0  0  0  0
 32 31  1  0  0  0  0
M  END
>  <MODEL>
2

>  <REMARK>
 VINA RESULT:      -5.5      3.277      8.842
  Name = 
  1 active torsions:
  status: ('A' for Active; 'I' for Inactive)
    1  A    between atoms: C_16  and  C_20
                            x       y       z     vdW  Elec       q    Type
                         _______ _______ _______ _____ _____    ______ ____

>  <TORSDO>
F 1

$$$$
=
 OpenBabel10222416313D

 32 37  0  0  1  0  0  0  0  0999 V2000
  192.9150  176.8760  138.4650 O   0  0  0  0  0  0  0  0  0  0  0  0
  194.3470  174.5240  137.8670 N   0  0  0  0  0  2  0  0  0  0  0  0
  197.6680  171.8140  136.7060 N   0  0  0  0  0  0  0  0  0  0  0  0
  193.2810  174.4960  136.9450 N   0  0  1  0  0  0  0  0  0  0  0  0
  197.6320  171.6920  135.4010 C   0  0  0  0  0  0  0  0  0  0  0  0
  192.0920  174.8430  137.6220 N   0  0  0  0  0  0  0  0  0  0  0  0
  195.0710  175.5500  135.7960 C   0  0  2  0  0  3  0  0  0  0  0  0
  190.9680  173.9170  137.5020 C   0  0  0  0  0  2  0  0  0  0  0  0
  197.0010  172.8860  137.4090 C   0  0  0  0  0  3  0  0  0  0  0  0
  196.3260  173.7920  136.7050 C   0  0  0  0  0  0  0  0  0  0  0  0
  195.5740  174.6410  134.7490 N   0  0  0  0  0  0  0  0  0  0  0  0
  192.8300  175.1820  134.6220 C   0  0  0  0  0  2  0  0  0  0  0  0
  189.5910  177.1050  134.6870 C   0  0  0  0  0  1  0  0  0  0  0  0
  191.9560  176.0600  138.3900 C   0  0  0  0  0  0  0  0  0  0  0  0
  196.2610  173.7030  135.2930 C   0  0  0  0  0  0  0  0  0  0  0  0
  191.3740  175.4930  134.7600 C   0  0  0  0  0  0  0  0  0  0  0  0
  196.9110  172.6430  134.5960 N   0  0  0  0  0  2  0  0  0  0  0  0
  198.3120  170.6100  134.7760 N   0  0  0  0  0  1  0  0  0  0  0  0
  190.4270  174.3670  135.0770 C   0  0  0  0  0  2  0  0  0  0  0  0
  195.5390  174.9670  137.1440 C   0  0  2  0  0  3  0  0  0  0  0  0
  189.9300  174.4450  136.5170 C   0  0  0  0  0  2  0  0  0  0  0  0
  190.9750  176.7090  134.5950 N   0  0  0  0  0  0  0  0  0  0  0  0
  193.5640  175.4990  135.9250 C   0  0  1  0  0  3  0  0  0  0  0  0
  186.5700  178.6280  140.3070 C   0  0  0  0  0  2  0  0  0  0  0  0
  187.5960  178.3230  141.2360 O   0  0  0  0  0  0  0  0  0  0  0  0
  189.7500  177.3830  141.2050 N   0  0  0  0  0  0  0  0  0  0  0  0
  190.9310  176.8190  140.5370 C   0  0  0  0  0  2  0  0  0  0  0  0
  190.6720  176.3800  139.0900 C   0  0  1  0  0  3  0  0  0  0  0  0
  187.1360  178.2520  138.9290 C   0  0  0  0  0  2  0  0  0  0  0  0
  189.7400  177.6460  138.1660 S   0  0  0  0  0  0  0  0  0  0  0  0
  188.6190  177.6410  140.6200 C   0  0  0  0  0  0  0  0  0  0  0  0
  188.3030  177.3160  139.2160 C   0  0  1  0  0  3  0  0  0  0  0  0
  3  9  1  0  0  0  0
  4  6  1  0  0  0  0
  4  2  1  1  0  0  0
  5  3  2  0  0  0  0
  6 14  1  0  0  0  0
  7 11  1  6  0  0  0
  7 23  1  0  0  0  0
  7 20  1  0  0  0  0
  8  6  1  0  0  0  0
 10  9  2  0  0  0  0
 11 15  2  0  0  0  0
 12 16  1  0  0  0  0
 14  1  2  0  0  0  0
 15 10  1  0  0  0  0
 16 19  1  0  0  0  0
 17 15  1  0  0  0  0
 17  5  1  0  0  0  0
 18  5  1  0  0  0  0
 19 21  1  0  0  0  0
 20 10  1  6  0  0  0
 20  2  1  0  0  0  0
 21  8  1  0  0  0  0
 22 13  1  0  0  0  0
 22 16  2  0  0  0  0
 23 12  1  6  0  0  0
 23  4  1  0  0  0  0
 24 25  1  0  0  0  0
 27 26  1  0  0  0  0
 28 14  1  6  0  0  0
 28 27  1  0  0  0  0
 29 24  1  0  0  0  0
 30 28  1  0  0  0  0
 30 32  1  0  0  0  0
 31 26  2  0  0  0  0
 31 25  1  0  0  0  0
 32 29  1  6  0  0  0
 32 31  1  0  0  0  0
M  END
>  <MODEL>
3

>  <REMARK>
 VINA RESULT:      -5.4      4.237      6.101
  Name = 
  1 active torsions:
  status: ('A' for Active; 'I' for Inactive)
    1  A    between atoms: C_16  and  C_20
                            x       y       z     vdW  Elec       q    Type
                         _______ _______ _______ _____ _____    ______ ____

>  <TORSDO>
F 1

$$$$
=
 OpenBabel10222416313D

 32 37  0  0  1  0  0  0  0  0999 V2000
  190.8880  177.5620  138.7380 O   0  0  0  0  0  0  0  0  0  0  0  0
  192.2700  175.1370  138.3430 N   0  0  0  0  0  2  0  0  0  0  0  0
  195.5730  172.2610  137.6160 N   0  0  0  0  0  0  0  0  0  0  0  0
  191.3170  175.1390  137.3030 N   0  0  1  0  0  0  0  0  0  0  0  0
  195.6840  172.1150  136.3180 C   0  0  0  0  0  0  0  0  0  0  0  0
  190.0750  175.5520  137.8310 N   0  0  0  0  0  0  0  0  0  0  0  0
  193.2760  176.0910  136.3570 C   0  0  2  0  0  3  0  0  0  0  0  0
  188.9310  174.6750  137.5940 C   0  0  0  0  0  2  0  0  0  0  0  0
  194.8790  173.3740  138.2220 C   0  0  0  0  0  3  0  0  0  0  0  0
  194.3340  174.2960  137.4320 C   0  0  0  0  0  0  0  0  0  0  0  0
  193.8540  175.1400  135.3890 N   0  0  0  0  0  0  0  0  0  0  0  0
  191.1720  175.8000  134.9350 C   0  0  0  0  0  2  0  0  0  0  0  0
  188.0400  177.8670  134.5940 C   0  0  0  0  0  1  0  0  0  0  0  0
  189.9080  176.7880  138.5620 C   0  0  0  0  0  0  0  0  0  0  0  0
  194.4300  174.1830  136.0220 C   0  0  0  0  0  0  0  0  0  0  0  0
  189.7260  176.1790  134.8970 C   0  0  0  0  0  0  0  0  0  0  0  0
  195.1050  173.0820  135.4210 N   0  0  0  0  0  2  0  0  0  0  0  0
  196.3800  170.9930  135.7910 N   0  0  0  0  0  1  0  0  0  0  0  0
  188.6980  175.1020  135.1160 C   0  0  0  0  0  2  0  0  0  0  0  0
  193.5560  175.5130  137.7590 C   0  0  2  0  0  3  0  0  0  0  0  0
  188.0400  175.2300  136.4870 C   0  0  0  0  0  2  0  0  0  0  0  0
  189.4060  177.4080  134.6700 N   0  0  0  0  0  0  0  0  0  0  0  0
  191.7640  176.1090  136.3090 C   0  0  1  0  0  3  0  0  0  0  0  0
  184.3050  179.4080  139.5730 C   0  0  0  0  0  2  0  0  0  0  0  0
  185.2770  179.3610  140.6040 O   0  0  0  0  0  0  0  0  0  0  0  0
  187.4640  178.5520  140.8980 N   0  0  0  0  0  0  0  0  0  0  0  0
  188.7100  177.9250  140.4350 C   0  0  0  0  0  2  0  0  0  0  0  0
  188.5670  177.1780  139.1020 C   0  0  1  0  0  3  0  0  0  0  0  0
  184.9780  178.7820  138.3420 C   0  0  0  0  0  2  0  0  0  0  0  0
  187.6500  178.1700  137.8770 S   0  0  0  0  0  0  0  0  0  0  0  0
  186.3650  178.6200  140.2080 C   0  0  0  0  0  0  0  0  0  0  0  0
  186.1600  177.9920  138.8890 C   0  0  1  0  0  3  0  0  0  0  0  0
  3  9  1  0  0  0  0
  4  6  1  0  0  0  0
  4  2  1  1  0  0  0
  5  3  2  0  0  0  0
  6 14  1  0  0  0  0
  7 11  1  6  0  0  0
  7 20  1  0  0  0  0
  8  6  1  0  0  0  0
 10  9  2  0  0  0  0
 11 15  2  0  0  0  0
 13 22  1  0  0  0  0
 14  1  2  0  0  0  0
 15 10  1  0  0  0  0
 16 12  1  0  0  0  0
 16 19  1  0  0  0  0
 17 15  1  0  0  0  0
 17  5  1  0  0  0  0
 18  5  1  0  0  0  0
 19 21  1  0  0  0  0
 20 10  1  6  0  0  0
 20  2  1  0  0  0  0
 21  8  1  0  0  0  0
 22 16  2  0  0  0  0
 23 12  1  6  0  0  0
 23  7  1  0  0  0  0
 23  4  1  0  0  0  0
 24 25  1  0  0  0  0
 27 26  1  0  0  0  0
 28 14  1  6  0  0  0
 28 27  1  0  0  0  0
 29 24  1  0  0  0  0
 30 32  1  0  0  0  0
 30 28  1  0  0  0  0
 31 25  1  0  0  0  0
 31 26  2  0  0  0  0
 32 29  1  6  0  0  0
 32 31  1  0  0  0  0
M  END
>  <MODEL>
4

>  <REMARK>
 VINA RESULT:      -5.4      3.440      4.852
  Name = 
  1 active torsions:
  status: ('A' for Active; 'I' for Inactive)
    1  A    between atoms: C_16  and  C_20
                            x       y       z     vdW  Elec       q    Type
                         _______ _______ _______ _____ _____    ______ ____

>  <TORSDO>
F 1

$$$$
=
 OpenBabel10222416313D

 32 37  0  0  1  0  0  0  0  0999 V2000
  185.0950  179.3780  138.3320 O   0  0  0  0  0  0  0  0  0  0  0  0
  186.9200  177.2300  138.3680 N   0  0  0  0  0  2  0  0  0  0  0  0
  190.6860  174.9170  137.9450 N   0  0  0  0  0  0  0  0  0  0  0  0
  185.9100  176.7820  137.4920 N   0  0  1  0  0  0  0  0  0  0  0  0
  190.7230  174.4540  136.7180 C   0  0  0  0  0  0  0  0  0  0  0  0
  184.6540  177.0860  138.0600 N   0  0  0  0  0  0  0  0  0  0  0  0
  187.5450  177.7870  136.0940 C   0  0  2  0  0  3  0  0  0  0  0  0
  183.7050  175.9840  138.1960 C   0  0  0  0  0  2  0  0  0  0  0  0
  189.8240  176.0050  138.3430 C   0  0  0  0  0  3  0  0  0  0  0  0
  189.0360  176.5680  137.4290 C   0  0  0  0  0  0  0  0  0  0  0  0
  188.2310  176.7350  135.3230 N   0  0  0  0  0  0  0  0  0  0  0  0
  185.4430  176.7490  135.0730 C   0  0  0  0  0  2  0  0  0  0  0  0
  181.9300  178.0430  134.6470 C   0  0  0  0  0  1  0  0  0  0  0  0
  184.2890  178.4200  138.4800 C   0  0  0  0  0  0  0  0  0  0  0  0
  189.0430  176.1030  136.0900 C   0  0  0  0  0  0  0  0  0  0  0  0
  183.9520  176.8340  135.1330 C   0  0  0  0  0  0  0  0  0  0  0  0
  189.8850  175.0250  135.6950 N   0  0  0  0  0  2  0  0  0  0  0  0
  191.5960  173.3780  136.3970 N   0  0  0  0  0  1  0  0  0  0  0  0
  183.1930  175.6850  135.7410 C   0  0  0  0  0  2  0  0  0  0  0  0
  188.0490  177.6650  137.5460 C   0  0  2  0  0  3  0  0  0  0  0  0
  182.6330  176.0510  137.1130 C   0  0  0  0  0  2  0  0  0  0  0  0
  183.3640  177.8780  134.6550 N   0  0  0  0  0  0  0  0  0  0  0  0
  186.0630  177.5160  136.2410 C   0  0  1  0  0  3  0  0  0  0  0  0
  179.0300  181.0540  140.6460 C   0  0  0  0  0  2  0  0  0  0  0  0
  179.7820  180.1690  141.4590 O   0  0  0  0  0  0  0  0  0  0  0  0
  181.7410  178.8820  141.2800 N   0  0  0  0  0  0  0  0  0  0  0  0
  182.9470  178.4080  140.5870 C   0  0  0  0  0  2  0  0  0  0  0  0
  182.9420  178.6890  139.0780 C   0  0  1  0  0  3  0  0  0  0  0  0
  179.8180  181.1790  139.3330 C   0  0  0  0  0  2  0  0  0  0  0  0
  182.4140  180.3960  138.7190 S   0  0  0  0  0  0  0  0  0  0  0  0
  180.8070  179.6030  140.7370 C   0  0  0  0  0  0  0  0  0  0  0  0
  180.7550  179.9790  139.3110 C   0  0  1  0  0  3  0  0  0  0  0  0
  1 14  2  0  0  0  0
  3  9  1  0  0  0  0
  4  6  1  0  0  0  0
  4  2  1  1  0  0  0
  5  3  2  0  0  0  0
  6  8  1  0  0  0  0
  6 14  1  0  0  0  0
  7 11  1  6  0  0  0
  7 23  1  0  0  0  0
  7 20  1  0  0  0  0
 10  9  2  0  0  0  0
 11 15  2  0  0  0  0
 12 16  1  0  0  0  0
 13 22  1  0  0  0  0
 15 10  1  0  0  0  0
 16 19  1  0  0  0  0
 17 15  1  0  0  0  0
 17  5  1  0  0  0  0
 18  5  1  0  0  0  0
 19 21  1  0  0  0  0
 20 10  1  6  0  0  0
 20  2  1  0  0  0  0
 21  8  1  0  0  0  0
 22 16  2  0  0  0  0
 23 12  1  6  0  0  0
 23  4  1  0  0  0  0
 24 25  1  0  0  0  0
 27 26  1  0  0  0  0
 28 14  1  1  0  0  0
 28 27  1  0  0  0  0
 29 24  1  0  0  0  0
 30 28  1  0  0  0  0
 30 32  1  0  0  0  0
 31 26  2  0  0  0  0
 31 25  1  0  0  0  0
 32 29  1  1  0  0  0
 32 31  1  0  0  0  0
M  END
>  <MODEL>
5

>  <REMARK>
 VINA RESULT:      -5.3      3.718      5.632
  Name = 
  1 active torsions:
  status: ('A' for Active; 'I' for Inactive)
    1  A    between atoms: C_16  and  C_20
                            x       y       z     vdW  Elec       q    Type
                         _______ _______ _______ _____ _____    ______ ____

>  <TORSDO>
F 1

$$$$
=
 OpenBabel10222416313D

 32 37  0  0  1  0  0  0  0  0999 V2000
  186.9800  177.3030  138.4290 O   0  0  0  0  0  0  0  0  0  0  0  0
  184.7390  178.9360  137.9280 N   0  0  0  0  0  2  0  0  0  0  0  0
  181.2870  181.6460  138.6040 N   0  0  0  0  0  0  0  0  0  0  0  0
  184.3480  177.6830  137.4110 N   0  0  1  0  0  0  0  0  0  0  0  0
  180.2360  180.8910  138.8170 C   0  0  0  0  0  0  0  0  0  0  0  0
  185.4250  177.1450  136.6740 N   0  0  0  0  0  0  0  0  0  0  0  0
  183.5320  177.7190  139.6400 C   0  0  2  0  0  3  0  0  0  0  0  0
  185.1470  176.7330  135.3010 C   0  0  0  0  0  2  0  0  0  0  0  0
  182.6390  181.1510  138.7150 C   0  0  0  0  0  3  0  0  0  0  0  0
  182.8310  179.8780  139.0560 C   0  0  0  0  0  0  0  0  0  0  0  0
  182.0620  177.8260  139.6130 N   0  0  0  0  0  0  0  0  0  0  0  0
  183.1150  175.6830  138.1520 C   0  0  0  0  0  2  0  0  0  0  0  0
  185.2580  172.7160  137.2590 C   0  0  0  0  0  1  0  0  0  0  0  0
  186.7490  176.9800  137.2320 C   0  0  0  0  0  0  0  0  0  0  0  0
  181.7260  179.0250  139.2990 C   0  0  0  0  0  0  0  0  0  0  0  0
  183.8430  174.6590  137.3420 C   0  0  0  0  0  0  0  0  0  0  0  0
  180.3910  179.5060  139.1820 N   0  0  0  0  0  2  0  0  0  0  0  0
  178.9320  181.4450  138.6870 N   0  0  0  0  0  1  0  0  0  0  0  0
  183.7270  174.7160  135.8420 C   0  0  0  0  0  2  0  0  0  0  0  0
  184.0790  179.0990  139.2230 C   0  0  2  0  0  3  0  0  0  0  0  0
  185.0190  175.2160  135.2020 C   0  0  0  0  0  2  0  0  0  0  0  0
  184.5370  173.7580  137.9500 N   0  0  0  0  0  0  0  0  0  0  0  0
  184.0620  176.8150  138.5480 C   0  0  1  0  0  3  0  0  0  0  0  0
  191.5300  173.5840  135.0200 C   0  0  0  0  0  2  0  0  0  0  0  0
  191.6080  174.9990  135.0640 O   0  0  0  0  0  0  0  0  0  0  0  0
  190.2450  176.7980  135.7220 N   0  0  0  0  0  0  0  0  0  0  0  0
  189.0310  177.3860  136.3030 C   0  0  0  0  0  2  0  0  0  0  0  0
  187.8570  176.4030  136.4070 C   0  0  1  0  0  3  0  0  0  0  0  0
  190.1690  173.2260  135.6380 C   0  0  0  0  0  2  0  0  0  0  0  0
  188.3900  174.7970  137.0850 S   0  0  0  0  0  0  0  0  0  0  0  0
  190.4020  175.5380  135.4470 C   0  0  0  0  0  0  0  0  0  0  0  0
  189.3520  174.5100  135.5790 C   0  0  1  0  0  3  0  0  0  0  0  0
  3  9  1  0  0  0  0
  3  5  2  0  0  0  0
  4  2  1  1  0  0  0
  4 23  1  0  0  0  0
  5 17  1  0  0  0  0
  6 14  1  0  0  0  0
  6  4  1  0  0  0  0
  7 11  1  6  0  0  0
  8  6  1  0  0  0  0
  9 10  2  0  0  0  0
 10 20  1  0  0  0  0
 10 15  1  0  0  0  0
 13 22  1  0  0  0  0
 14  1  2  0  0  0  0
 15 11  2  0  0  0  0
 16 22  2  0  0  0  0
 16 12  1  0  0  0  0
 17 15  1  0  0  0  0
 18  5  1  0  0  0  0
 19 16  1  0  0  0  0
 20  2  1  6  0  0  0
 20  7  1  0  0  0  0
 21  8  1  0  0  0  0
 21 19  1  0  0  0  0
 23 12  1  6  0  0  0
 23  7  1  0  0  0  0
 24 25  1  0  0  0  0
 24 29  1  0  0  0  0
 25 31  1  0  0  0  0
 26 27  1  0  0  0  0
 27 28  1  0  0  0  0
 28 30  1  0  0  0  0
 28 14  1  1  0  0  0
 31 32  1  0  0  0  0
 31 26  2  0  0  0  0
 32 29  1  1  0  0  0
 32 30  1  0  0  0  0
M  END
>  <MODEL>
6

>  <REMARK>
 VINA RESULT:      -4.5      3.566      8.716
  Name = 
  1 active torsions:
  status: ('A' for Active; 'I' for Inactive)
    1  A    between atoms: C_16  and  C_20
                            x       y       z     vdW  Elec       q    Type
                         _______ _______ _______ _____ _____    ______ ____

>  <TORSDO>
F 1

$$$$
=
 OpenBabel10222416313D

 32 37  0  0  1  0  0  0  0  0999 V2000
  185.3090  178.1910  140.6390 O   0  0  0  0  0  0  0  0  0  0  0  0
  184.1250  180.1490  138.9950 N   0  0  0  0  0  2  0  0  0  0  0  0
  181.1470  182.9980  137.3420 N   0  0  0  0  0  0  0  0  0  0  0  0
  184.4450  179.1170  138.0890 N   0  0  1  0  0  0  0  0  0  0  0  0
  180.4300  182.3440  136.4600 C   0  0  0  0  0  0  0  0  0  0  0  0
  185.7470  178.6530  138.3770 N   0  0  0  0  0  0  0  0  0  0  0  0
  182.2000  178.7010  138.7400 C   0  0  2  0  0  3  0  0  0  0  0  0
  186.7000  178.6270  137.2700 C   0  0  0  0  0  2  0  0  0  0  0  0
  181.9500  182.3350  138.3440 C   0  0  0  0  0  3  0  0  0  0  0  0
  181.9590  181.0040  138.3800 C   0  0  0  0  0  0  0  0  0  0  0  0
  181.3080  178.9840  137.6010 N   0  0  0  0  0  0  0  0  0  0  0  0
  183.3600  177.1570  137.0640 C   0  0  0  0  0  2  0  0  0  0  0  0
  185.7380  174.2680  137.5070 C   0  0  0  0  0  1  0  0  0  0  0  0
  186.1420  178.2010  139.6920 C   0  0  0  0  0  0  0  0  0  0  0  0
  181.1980  180.2540  137.4490 C   0  0  0  0  0  0  0  0  0  0  0  0
  184.5650  176.2840  136.9200 C   0  0  0  0  0  0  0  0  0  0  0  0
  180.4130  180.9040  136.4540 N   0  0  0  0  0  2  0  0  0  0  0  0
  179.6650  183.0630  135.5010 N   0  0  0  0  0  1  0  0  0  0  0  0
  185.6580  176.7210  135.9820 C   0  0  0  0  0  2  0  0  0  0  0  0
  182.6900  180.0660  139.2620 C   0  0  2  0  0  3  0  0  0  0  0  0
  186.8870  177.2070  136.7450 C   0  0  0  0  0  2  0  0  0  0  0  0
  184.6270  175.1860  137.5930 N   0  0  0  0  0  0  0  0  0  0  0  0
  183.4900  178.0370  138.3070 C   0  0  1  0  0  3  0  0  0  0  0  0
  191.7390  176.8520  142.1700 C   0  0  0  0  0  2  0  0  0  0  0  0
  191.6430  177.5030  140.9140 O   0  0  0  0  0  0  0  0  0  0  0  0
  189.9480  178.2530  139.4680 N   0  0  0  0  0  0  0  0  0  0  0  0
  188.5480  178.4980  139.0940 C   0  0  0  0  0  2  0  0  0  0  0  0
  187.5370  177.7180  139.9440 C   0  0  1  0  0  3  0  0  0  0  0  0
  190.2920  176.6800  142.6580 C   0  0  0  0  0  2  0  0  0  0  0  0
  187.9360  177.8220  141.7200 S   0  0  0  0  0  0  0  0  0  0  0  0
  190.3320  177.5680  140.5030 C   0  0  0  0  0  0  0  0  0  0  0  0
  189.4270  176.8420  141.4140 C   0  0  1  0  0  3  0  0  0  0  0  0
  2 20  1  0  0  0  0
  3  9  1  0  0  0  0
  4 23  1  0  0  0  0
  4  6  1  0  0  0  0
  4  2  1  1  0  0  0
  5  3  2  0  0  0  0
  6 14  1  0  0  0  0
  7 11  1  6  0  0  0
  7 20  1  0  0  0  0
  8  6  1  0  0  0  0
  9 10  2  0  0  0  0
 13 22  1  0  0  0  0
 14  1  2  0  0  0  0
 15 11  2  0  0  0  0
 15 10  1  0  0  0  0
 16 12  1  0  0  0  0
 16 22  2  0  0  0  0
 17  5  1  0  0  0  0
 17 15  1  0  0  0  0
 18  5  1  0  0  0  0
 19 21  1  0  0  0  0
 19 16  1  0  0  0  0
 20 10  1  6  0  0  0
 21  8  1  0  0  0  0
 23 12  1  6  0  0  0
 23  7  1  0  0  0  0
 24 29  1  0  0  0  0
 25 24  1  0  0  0  0
 26 31  2  0  0  0  0
 27 26  1  0  0  0  0
 27 28  1  0  0  0  0
 28 14  1  1  0  0  0
 28 30  1  0  0  0  0
 31 25  1  0  0  0  0
 31 32  1  0  0  0  0
 32 30  1  0  0  0  0
 32 29  1  1  0  0  0
M  END
>  <MODEL>
7

>  <REMARK>
 VINA RESULT:      -4.1      4.442      9.525
  Name = 
  1 active torsions:
  status: ('A' for Active; 'I' for Inactive)
    1  A    between atoms: C_16  and  C_20
                            x       y       z     vdW  Elec       q    Type
                         _______ _______ _______ _____ _____    ______ ____

>  <TORSDO>
F 1

$$$$
=
 OpenBabel10222416313D

 32 37  0  0  1  0  0  0  0  0999 V2000
  193.0540  177.4160  138.2030 O   0  0  0  0  0  0  0  0  0  0  0  0
  193.9830  174.7620  138.0150 N   0  0  0  0  0  2  0  0  0  0  0  0
  196.6390  171.2930  137.2240 N   0  0  0  0  0  0  0  0  0  0  0  0
  192.8370  174.7630  137.1940 N   0  0  1  0  0  0  0  0  0  0  0  0
  196.4450  170.9300  135.9790 C   0  0  0  0  0  0  0  0  0  0  0  0
  191.8050  175.4550  137.8610 N   0  0  0  0  0  0  0  0  0  0  0  0
  194.6530  175.2110  135.7300 C   0  0  2  0  0  3  0  0  0  0  0  0
  190.5310  174.7570  138.0150 C   0  0  0  0  0  2  0  0  0  0  0  0
  196.2470  172.5880  137.7310 C   0  0  0  0  0  3  0  0  0  0  0  0
  195.6700  173.4540  136.9010 C   0  0  0  0  0  0  0  0  0  0  0  0
  194.8750  174.0380  134.8660 N   0  0  0  0  0  0  0  0  0  0  0  0
  192.2700  175.0610  134.8150 C   0  0  0  0  0  2  0  0  0  0  0  0
  189.4410  177.5460  134.6950 C   0  0  0  0  0  1  0  0  0  0  0  0
  191.9650  176.8010  138.3660 C   0  0  0  0  0  0  0  0  0  0  0  0
  195.4420  173.1080  135.5450 C   0  0  0  0  0  0  0  0  0  0  0  0
  190.9140  175.6670  134.9830 C   0  0  0  0  0  0  0  0  0  0  0  0
  195.8200  171.8290  135.0440 N   0  0  0  0  0  2  0  0  0  0  0  0
  196.8560  169.6380  135.5490 N   0  0  0  0  0  1  0  0  0  0  0  0
  189.8240  174.8260  135.5910 C   0  0  0  0  0  2  0  0  0  0  0  0
  195.1510  174.8200  137.1360 C   0  0  2  0  0  3  0  0  0  0  0  0
  189.5020  175.2750  137.0140 C   0  0  0  0  0  2  0  0  0  0  0  0
  190.7180  176.8810  134.5940 N   0  0  0  0  0  0  0  0  0  0  0  0
  193.1820  175.4760  135.9690 C   0  0  1  0  0  3  0  0  0  0  0  0
  187.0140  178.2430  141.9270 C   0  0  0  0  0  2  0  0  0  0  0  0
  187.0280  178.5640  140.5470 O   0  0  0  0  0  0  0  0  0  0  0  0
  188.4940  178.3380  138.7230 N   0  0  0  0  0  0  0  0  0  0  0  0
  189.7330  177.8840  138.0780 C   0  0  0  0  0  2  0  0  0  0  0  0
  190.8370  177.4910  139.0680 C   0  0  1  0  0  3  0  0  0  0  0  0
  188.3350  177.5060  142.1940 C   0  0  0  0  0  2  0  0  0  0  0  0
  190.1870  176.4440  140.4120 S   0  0  0  0  0  0  0  0  0  0  0  0
  188.2600  178.2890  140.0000 C   0  0  0  0  0  0  0  0  0  0  0  0
  189.2370  177.8610  141.0190 C   0  0  1  0  0  3  0  0  0  0  0  0
  1 14  2  0  0  0  0
  3  9  1  0  0  0  0
  4  6  1  0  0  0  0
  4  2  1  1  0  0  0
  5  3  2  0  0  0  0
  6  8  1  0  0  0  0
  6 14  1  0  0  0  0
  7 11  1  6  0  0  0
  7 23  1  0  0  0  0
  7 20  1  0  0  0  0
 10  9  2  0  0  0  0
 11 15  2  0  0  0  0
 12 16  1  0  0  0  0
 15 10  1  0  0  0  0
 16 19  1  0  0  0  0
 17 15  1  0  0  0  0
 17  5  1  0  0  0  0
 18  5  1  0  0  0  0
 19 21  1  0  0  0  0
 20 10  1  6  0  0  0
 20  2  1  0  0  0  0
 21  8  1  0  0  0  0
 22 13  1  0  0  0  0
 22 16  2  0  0  0  0
 23 12  1  6  0  0  0
 23  4  1  0  0  0  0
 24 29  1  0  0  0  0
 25 24  1  0  0  0  0
 26 31  2  0  0  0  0
 27 26  1  0  0  0  0
 27 28  1  0  0  0  0
 28 14  1  6  0  0  0
 28 30  1  0  0  0  0
 30 32  1  0  0  0  0
 31 25  1  0  0  0  0
 31 32  1  0  0  0  0
 32 29  1  1  0  0  0
M  END
>  <MODEL>
8

>  <REMARK>
 VINA RESULT:      -3.6      4.276      6.048
  Name = 
  1 active torsions:
  status: ('A' for Active; 'I' for Inactive)
    1  A    between atoms: C_16  and  C_20
                            x       y       z     vdW  Elec       q    Type
                         _______ _______ _______ _____ _____    ______ ____

>  <TORSDO>
F 1

$$$$
=
 OpenBabel10222416313D

 32 37  0  0  1  0  0  0  0  0999 V2000
  184.8820  179.9950  138.7190 O   0  0  0  0  0  0  0  0  0  0  0  0
  186.7730  177.9100  138.8580 N   0  0  0  0  0  2  0  0  0  0  0  0
  190.5540  175.6350  138.3640 N   0  0  0  0  0  0  0  0  0  0  0  0
  185.6950  177.3240  138.1620 N   0  0  1  0  0  0  0  0  0  0  0  0
  190.4820  175.0060  137.2160 C   0  0  0  0  0  0  0  0  0  0  0  0
  184.4940  177.6790  138.8120 N   0  0  0  0  0  0  0  0  0  0  0  0
  187.1460  178.1560  136.4770 C   0  0  2  0  0  3  0  0  0  0  0  0
  183.6010  176.5890  139.1960 C   0  0  0  0  0  2  0  0  0  0  0  0
  189.6990  176.7510  138.6970 C   0  0  0  0  0  3  0  0  0  0  0  0
  188.8050  177.1650  137.8020 C   0  0  0  0  0  0  0  0  0  0  0  0
  187.7860  177.0200  135.7890 N   0  0  0  0  0  0  0  0  0  0  0  0
  184.9880  176.9440  135.8330 C   0  0  0  0  0  2  0  0  0  0  0  0
  181.4080  178.0960  135.6040 C   0  0  0  0  0  1  0  0  0  0  0  0
  184.1280  179.0520  139.0810 C   0  0  0  0  0  0  0  0  0  0  0  0
  188.6920  176.5180  136.5470 C   0  0  0  0  0  0  0  0  0  0  0  0
  183.5080  177.0070  136.0360 C   0  0  0  0  0  0  0  0  0  0  0  0
  189.5270  175.4110  136.2170 N   0  0  0  0  0  2  0  0  0  0  0  0
  191.3540  173.9130  136.9550 N   0  0  0  0  0  1  0  0  0  0  0  0
  182.8540  175.9400  136.8730 C   0  0  0  0  0  2  0  0  0  0  0  0
  187.7980  178.2480  137.8710 C   0  0  2  0  0  3  0  0  0  0  0  0
  182.4240  176.4830  138.2320 C   0  0  0  0  0  2  0  0  0  0  0  0
  182.8400  177.9620  135.4840 N   0  0  0  0  0  0  0  0  0  0  0  0
  185.6960  177.8790  136.8130 C   0  0  1  0  0  3  0  0  0  0  0  0
  179.0650  179.0670  142.7760 C   0  0  0  0  0  2  0  0  0  0  0  0
  178.9330  179.1890  141.3700 O   0  0  0  0  0  0  0  0  0  0  0  0
  180.3420  179.2700  139.4910 N   0  0  0  0  0  0  0  0  0  0  0  0
  181.6490  179.2120  138.8200 C   0  0  0  0  0  2  0  0  0  0  0  0
  182.8400  179.3750  139.7740 C   0  0  1  0  0  3  0  0  0  0  0  0
  180.5700  178.8960  143.0370 C   0  0  0  0  0  2  0  0  0  0  0  0
  182.6440  178.3490  141.2680 S   0  0  0  0  0  0  0  0  0  0  0  0
  180.1690  179.3060  140.7780 C   0  0  0  0  0  0  0  0  0  0  0  0
  181.2550  179.3950  141.7710 C   0  0  1  0  0  3  0  0  0  0  0  0
  1 14  2  0  0  0  0
  3  9  1  0  0  0  0
  4  6  1  0  0  0  0
  4  2  1  1  0  0  0
  5  3  2  0  0  0  0
  6 14  1  0  0  0  0
  6  8  1  0  0  0  0
  7 11  1  6  0  0  0
  7 23  1  0  0  0  0
  7 20  1  0  0  0  0
 10  9  2  0  0  0  0
 11 15  2  0  0  0  0
 12 16  1  0  0  0  0
 15 10  1  0  0  0  0
 16 19  1  0  0  0  0
 17 15  1  0  0  0  0
 17  5  1  0  0  0  0
 18  5  1  0  0  0  0
 19 21  1  0  0  0  0
 20 10  1  6  0  0  0
 20  2  1  0  0  0  0
 21  8  1  0  0  0  0
 22 13  1  0  0  0  0
 22 16  2  0  0  0  0
 23 12  1  6  0  0  0
 23  4  1  0  0  0  0
 24 29  1  0  0  0  0
 25 24  1  0  0  0  0
 26 31  2  0  0  0  0
 27 26  1  0  0  0  0
 27 28  1  0  0  0  0
 28 14  1  6  0  0  0
 28 30  1  0  0  0  0
 30 32  1  0  0  0  0
 31 25  1  0  0  0  0
 31 32  1  0  0  0  0
 32 29  1  1  0  0  0
M  END
>  <MODEL>
9

>  <REMARK>
 VINA RESULT:      -3.6      3.869      5.895
  Name = 
  1 active torsions:
  status: ('A' for Active; 'I' for Inactive)
    1  A    between atoms: C_16  and  C_20
                            x       y       z     vdW  Elec       q    Type
                         _______ _______ _______ _____ _____    ______ ____

>  <TORSDO>
F 1

$$$$
