=
 OpenBabel10222421133D

 37 42  0  0  1  0  0  0  0  0999 V2000
  188.4660  177.5010  140.1790 N   0  0  0  0  0  0  0  0  0  0  0  0
  189.6180  177.2320  140.8170 C   0  0  0  0  0  0  0  0  0  0  0  0
  188.7670  177.8360  138.9340 N   0  0  0  0  0  0  0  0  0  0  0  0
  190.6740  177.4170  139.9380 C   0  0  0  0  0  0  0  0  0  0  0  0
  190.1000  177.8090  138.7400 C   0  0  0  0  0  3  0  0  0  0  0  0
  187.7870  178.2580  137.9420 C   0  0  1  0  0  3  0  0  0  0  0  0
  187.1070  177.9400  135.6010 C   0  0  0  0  0  2  0  0  0  0  0  0
  187.8070  177.3340  136.7330 C   0  0  2  0  0  3  0  0  0  0  0  0
  186.4130  176.9420  136.4320 N   0  0  1  0  0  0  0  0  0  0  0  0
  186.4010  178.1520  138.5180 C   0  0  0  0  0  2  0  0  0  0  0  0
  185.5520  177.6710  137.3590 C   0  0  2  0  0  3  0  0  0  0  0  0
  184.5090  176.7800  137.8500 N   0  0  0  0  0  2  0  0  0  0  0  0
  182.0810  177.8100  137.3520 S   0  0  0  0  0  0  0  0  0  0  0  0
  183.2410  177.2180  138.3510 C   0  0  0  0  0  0  0  0  0  0  0  0
  183.0090  177.2250  139.8200 C   0  0  0  0  0  2  0  0  0  0  0  0
  183.2810  178.5490  140.3600 N   0  0  0  0  0  2  0  0  0  0  0  0
  182.9690  178.5110  141.6820 O   0  0  0  0  0  0  0  0  0  0  0  0
  185.0930  177.5190  142.8810 O   0  0  0  0  0  1  0  0  0  0  0  0
  185.4610  179.6920  141.4550 O   0  0  0  0  0  0  0  0  0  0  0  0
  184.4330  178.8240  142.4850 P   0  0  0  0  0  0  0  0  0  0  0  0
  184.1280  179.7410  143.8830 O   0  0  0  0  0  1  0  0  0  0  0  0
  192.1060  177.2600  140.2260 C   0  0  0  0  0  3  0  0  0  0  0  0
  192.9680  176.8700  139.2970 C   0  0  0  0  0  2  0  0  0  0  0  0
  190.0690  175.6460  142.5200 O   0  0  0  0  0  0  0  0  0  0  0  0
  189.6850  176.8120  142.2370 C   0  0  0  0  0  0  0  0  0  0  0  0
  189.4110  177.8110  143.3500 C   0  0  2  0  0  3  0  0  0  0  0  0
  191.7850  177.5310  144.2120 O   0  0  0  0  0  0  0  0  0  0  0  0
  190.5630  178.2510  144.3230 C   0  0  2  0  0  0  0  0  0  0  0  0
  189.6050  177.0990  144.6430 C   0  0  1  0  0  3  0  0  0  0  0  0
  191.6470  178.5980  143.3490 C   0  0  0  0  0  2  0  0  0  0  0  0
  187.9580  178.0520  147.9380 C   0  0  0  0  0  0  0  0  0  0  0  0
  186.2720  178.0790  146.1960 C   0  0  0  0  0  3  0  0  0  0  0  0
  186.6330  178.2550  147.5370 C   0  0  0  0  0  3  0  0  0  0  0  0
  188.5750  177.5270  145.6450 C   0  0  0  0  0  0  0  0  0  0  0  0
  188.9250  177.6830  146.9960 C   0  0  0  0  0  3  0  0  0  0  0  0
  188.3060  178.2180  149.2390 F   0  0  0  0  0  0  0  0  0  0  0  0
  187.2390  177.7110  145.2540 C   0  0  0  0  0  3  0  0  0  0  0  0
  1  2  2  0  0  0  0
  2 25  1  0  0  0  0
  3  1  1  0  0  0  0
  4 22  1  0  0  0  0
  4  2  1  0  0  0  0
  5  3  1  0  0  0  0
  5  4  2  0  0  0  0
  6 10  1  1  0  0  0
  6  3  1  0  0  0  0
  8  7  1  6  0  0  0
  8  6  1  0  0  0  0
  9  7  1  6  0  0  0
  9  8  1  0  0  0  0
  9 11  1  0  0  0  0
 11 12  1  1  0  0  0
 11 10  1  0  0  0  0
 12 14  1  0  0  0  0
 13 14  2  0  0  0  0
 14 15  1  0  0  0  0
 15 16  1  0  0  0  0
 16 17  1  0  0  0  0
 17 20  1  0  0  0  0
 19 20  2  0  0  0  0
 20 18  1  0  0  0  0
 20 21  1  0  0  0  0
 23 22  2  0  0  0  0
 25 24  2  0  0  0  0
 26 25  1  6  0  0  0
 26 28  1  0  0  0  0
 26 29  1  0  0  0  0
 27 28  1  0  0  0  0
 28 30  1  1  0  0  0
 28 29  1  0  0  0  0
 29 34  1  1  0  0  0
 30 27  1  0  0  0  0
 31 36  1  0  0  0  0
 32 33  2  0  0  0  0
 33 31  1  0  0  0  0
 34 35  1  0  0  0  0
 35 31  2  0  0  0  0
 37 34  2  0  0  0  0
 37 32  1  0  0  0  0
M  END
>  <MODEL>
1

>  <REMARK>
 VINA RESULT:      -8.3      0.000      0.000
  Name = 
  11 active torsions:
  status: ('A' for Active; 'I' for Inactive)
    1  A    between atoms: C_2  and  N_32
    2  A    between atoms: C_4  and  C_33
    3  A    between atoms: C_8  and  N_14
    4  A    between atoms: C_8  and  C_27
    5  A    between atoms: C_11  and  C_13
    6  A    between atoms: C_13  and  C_21
    7  A    between atoms: N_14  and  C_35
    8  A    between atoms: O_19  and  P_25
    9  A    between atoms: O_19  and  N_36
   10  A    between atoms: C_22  and  C_30
   11  A    between atoms: C_27  and  N_36
                            x       y       z     vdW  Elec       q    Type
                         _______ _______ _______ _____ _____    ______ ____

>  <TORSDO>
F 11

$$$$
=
 OpenBabel10222421133D

 37 42  0  0  1  0  0  0  0  0999 V2000
  188.3210  177.3300  140.2400 N   0  0  0  0  0  0  0  0  0  0  0  0
  189.4950  177.1590  140.8720 C   0  0  0  0  0  0  0  0  0  0  0  0
  188.5860  177.6460  138.9820 N   0  0  0  0  0  0  0  0  0  0  0  0
  190.5260  177.3870  139.9740 C   0  0  0  0  0  0  0  0  0  0  0  0
  189.9160  177.7020  138.7720 C   0  0  0  0  0  3  0  0  0  0  0  0
  187.5680  177.9690  137.9890 C   0  0  1  0  0  3  0  0  0  0  0  0
  186.4030  177.0800  136.0170 C   0  0  0  0  0  2  0  0  0  0  0  0
  187.1350  176.7230  137.2320 C   0  0  2  0  0  3  0  0  0  0  0  0
  185.6560  176.6840  137.2220 N   0  0  1  0  0  0  0  0  0  0  0  0
  186.3330  178.4850  138.6760 C   0  0  0  0  0  2  0  0  0  0  0  0
  185.1900  177.9080  137.8660 C   0  0  2  0  0  3  0  0  0  0  0  0
  184.0730  177.5940  138.7480 N   0  0  0  0  0  2  0  0  0  0  0  0
  181.8800  178.5060  137.4970 S   0  0  0  0  0  0  0  0  0  0  0  0
  182.8540  178.3440  138.8090 C   0  0  0  0  0  0  0  0  0  0  0  0
  182.5150  179.0700  140.0620 C   0  0  0  0  0  2  0  0  0  0  0  0
  182.0260  178.1350  141.0630 N   0  0  0  0  0  2  0  0  0  0  0  0
  180.7010  178.3850  141.2280 O   0  0  0  0  0  0  0  0  0  0  0  0
  180.1630  180.5210  142.6690 O   0  0  0  0  0  0  0  0  0  0  0  0
  179.4200  178.2130  143.6750 O   0  0  0  0  0  1  0  0  0  0  0  0
  180.5760  179.0680  142.7780 P   0  0  0  0  0  0  0  0  0  0  0  0
  182.0810  178.9740  143.5620 O   0  0  0  0  0  1  0  0  0  0  0  0
  191.9690  177.3350  140.2490 C   0  0  0  0  0  3  0  0  0  0  0  0
  192.8440  176.9550  139.3270 C   0  0  0  0  0  2  0  0  0  0  0  0
  190.0960  175.6720  142.6170 O   0  0  0  0  0  0  0  0  0  0  0  0
  189.6060  176.7890  142.3030 C   0  0  0  0  0  0  0  0  0  0  0  0
  189.2440  177.7920  143.3880 C   0  0  2  0  0  3  0  0  0  0  0  0
  191.5200  177.4680  144.4720 O   0  0  0  0  0  0  0  0  0  0  0  0
  190.3050  178.2090  144.4680 C   0  0  2  0  0  0  0  0  0  0  0  0
  189.3010  177.0740  144.6910 C   0  0  1  0  0  3  0  0  0  0  0  0
  191.4830  178.5380  143.6030 C   0  0  0  0  0  2  0  0  0  0  0  0
  185.8810  178.2240  145.8990 C   0  0  0  0  0  0  0  0  0  0  0  0
  187.3950  178.1850  147.7920 C   0  0  0  0  0  3  0  0  0  0  0  0
  186.1210  178.4220  147.2630 C   0  0  0  0  0  3  0  0  0  0  0  0
  188.1880  177.5180  145.5920 C   0  0  0  0  0  0  0  0  0  0  0  0
  186.9130  177.7790  145.0640 C   0  0  0  0  0  3  0  0  0  0  0  0
  184.6470  178.4590  145.3860 F   0  0  0  0  0  0  0  0  0  0  0  0
  188.4270  177.7400  146.9580 C   0  0  0  0  0  3  0  0  0  0  0  0
  1  2  2  0  0  0  0
  2 25  1  0  0  0  0
  3  1  1  0  0  0  0
  4 22  1  0  0  0  0
  4  2  1  0  0  0  0
  5  3  1  0  0  0  0
  5  4  2  0  0  0  0
  6 10  1  1  0  0  0
  6  3  1  0  0  0  0
  8  7  1  6  0  0  0
  8  6  1  0  0  0  0
  9  7  1  6  0  0  0
  9  8  1  0  0  0  0
  9 11  1  0  0  0  0
 11 10  1  0  0  0  0
 11 12  1  1  0  0  0
 12 14  1  0  0  0  0
 13 14  2  0  0  0  0
 14 15  1  0  0  0  0
 15 16  1  0  0  0  0
 16 17  1  0  0  0  0
 17 20  1  0  0  0  0
 18 20  2  0  0  0  0
 20 21  1  0  0  0  0
 20 19  1  0  0  0  0
 23 22  2  0  0  0  0
 25 24  2  0  0  0  0
 26 25  1  6  0  0  0
 26 28  1  0  0  0  0
 26 29  1  0  0  0  0
 28 30  1  1  0  0  0
 28 27  1  0  0  0  0
 28 29  1  0  0  0  0
 29 34  1  1  0  0  0
 30 27  1  0  0  0  0
 31 33  1  0  0  0  0
 33 32  2  0  0  0  0
 34 37  2  0  0  0  0
 35 34  1  0  0  0  0
 35 31  2  0  0  0  0
 36 31  1  0  0  0  0
 37 32  1  0  0  0  0
M  END
>  <MODEL>
2

>  <REMARK>
 VINA RESULT:      -8.2      1.638      2.147
  Name = 
  11 active torsions:
  status: ('A' for Active; 'I' for Inactive)
    1  A    between atoms: C_2  and  N_32
    2  A    between atoms: C_4  and  C_33
    3  A    between atoms: C_8  and  N_14
    4  A    between atoms: C_8  and  C_27
    5  A    between atoms: C_11  and  C_13
    6  A    between atoms: C_13  and  C_21
    7  A    between atoms: N_14  and  C_35
    8  A    between atoms: O_19  and  P_25
    9  A    between atoms: O_19  and  N_36
   10  A    between atoms: C_22  and  C_30
   11  A    between atoms: C_27  and  N_36
                            x       y       z     vdW  Elec       q    Type
                         _______ _______ _______ _____ _____    ______ ____

>  <TORSDO>
F 11

$$$$
=
 OpenBabel10222421133D

 37 42  0  0  1  0  0  0  0  0999 V2000
  187.5490  178.0900  142.5100 N   0  0  0  0  0  0  0  0  0  0  0  0
  186.2240  178.2070  142.7100 C   0  0  0  0  0  0  0  0  0  0  0  0
  187.7870  178.3740  141.2390 N   0  0  0  0  0  0  0  0  0  0  0  0
  185.6190  178.5680  141.5170 C   0  0  0  0  0  0  0  0  0  0  0  0
  186.6430  178.6630  140.5890 C   0  0  0  0  0  3  0  0  0  0  0  0
  189.1040  178.2990  140.6180 C   0  0  1  0  0  3  0  0  0  0  0  0
  191.3630  177.3790  140.9220 C   0  0  0  0  0  2  0  0  0  0  0  0
  189.9530  177.2220  141.2780 C   0  0  2  0  0  3  0  0  0  0  0  0
  190.5430  176.3850  140.2110 N   0  0  1  0  0  0  0  0  0  0  0  0
  188.9650  177.8880  139.1770 C   0  0  0  0  0  2  0  0  0  0  0  0
  190.1510  176.9770  138.9350 C   0  0  2  0  0  3  0  0  0  0  0  0
  189.7740  175.9180  138.0070 N   0  0  0  0  0  2  0  0  0  0  0  0
  190.3100  173.6030  136.7600 S   0  0  0  0  0  0  0  0  0  0  0  0
  190.7070  175.1070  137.2830 C   0  0  0  0  0  0  0  0  0  0  0  0
  192.0950  175.6030  137.0880 C   0  0  0  0  0  2  0  0  0  0  0  0
  193.0470  174.6450  137.6290 N   0  0  0  0  0  2  0  0  0  0  0  0
  194.1470  175.3470  138.0070 O   0  0  0  0  0  0  0  0  0  0  0  0
  195.5050  173.3900  139.1290 O   0  0  0  0  0  1  0  0  0  0  0  0
  195.1910  173.2550  136.5260 O   0  0  0  0  0  0  0  0  0  0  0  0
  195.4330  174.2450  137.8800 P   0  0  0  0  0  0  0  0  0  0  0  0
  196.8930  175.0960  137.7030 O   0  0  0  0  0  1  0  0  0  0  0  0
  184.1840  178.7750  141.2780 C   0  0  0  0  0  3  0  0  0  0  0  0
  183.4310  177.8520  140.6930 C   0  0  0  0  0  2  0  0  0  0  0  0
  184.3280  178.1260  144.1300 O   0  0  0  0  0  0  0  0  0  0  0  0
  185.5740  177.9720  144.0210 C   0  0  0  0  0  0  0  0  0  0  0  0
  186.3770  177.4330  145.1950 C   0  0  2  0  0  3  0  0  0  0  0  0
  185.6160  179.3830  146.6360 O   0  0  0  0  0  0  0  0  0  0  0  0
  186.3080  178.1400  146.5950 C   0  0  2  0  0  0  0  0  0  0  0  0
  187.3840  178.4690  145.5560 C   0  0  1  0  0  3  0  0  0  0  0  0
  184.8270  178.2610  146.7840 C   0  0  0  0  0  2  0  0  0  0  0  0
  190.9380  177.1310  145.3140 C   0  0  0  0  0  0  0  0  0  0  0  0
  190.0770  176.6400  147.5270 C   0  0  0  0  0  3  0  0  0  0  0  0
  191.1140  176.5800  146.5880 C   0  0  0  0  0  3  0  0  0  0  0  0
  188.6910  177.8350  145.9240 C   0  0  0  0  0  0  0  0  0  0  0  0
  189.7280  177.7510  144.9810 C   0  0  0  0  0  3  0  0  0  0  0  0
  191.9420  177.0690  144.4040 F   0  0  0  0  0  0  0  0  0  0  0  0
  188.8670  177.2600  147.1940 C   0  0  0  0  0  3  0  0  0  0  0  0
  1  2  2  0  0  0  0
  2 25  1  0  0  0  0
  3  1  1  0  0  0  0
  4  2  1  0  0  0  0
  5  3  1  0  0  0  0
  5  4  2  0  0  0  0
  6 10  1  6  0  0  0
  6  3  1  0  0  0  0
  6  8  1  0  0  0  0
  8  7  1  6  0  0  0
  9  7  1  1  0  0  0
  9  8  1  0  0  0  0
 11 12  1  6  0  0  0
 11 10  1  0  0  0  0
 11  9  1  0  0  0  0
 13 14  2  0  0  0  0
 14 12  1  0  0  0  0
 15 14  1  0  0  0  0
 15 16  1  0  0  0  0
 16 17  1  0  0  0  0
 19 20  2  0  0  0  0
 20 17  1  0  0  0  0
 20 18  1  0  0  0  0
 21 20  1  0  0  0  0
 22  4  1  0  0  0  0
 23 22  2  0  0  0  0
 25 24  2  0  0  0  0
 26 25  1  6  0  0  0
 26 29  1  0  0  0  0
 26 28  1  0  0  0  0
 27 30  1  0  0  0  0
 28 27  1  0  0  0  0
 28 30  1  1  0  0  0
 29 34  1  1  0  0  0
 29 28  1  0  0  0  0
 31 33  1  0  0  0  0
 33 32  2  0  0  0  0
 34 37  2  0  0  0  0
 35 31  2  0  0  0  0
 35 34  1  0  0  0  0
 36 31  1  0  0  0  0
 37 32  1  0  0  0  0
M  END
>  <MODEL>
3

>  <REMARK>
 VINA RESULT:      -8.0      4.168      7.203
  Name = 
  11 active torsions:
  status: ('A' for Active; 'I' for Inactive)
    1  A    between atoms: C_2  and  N_32
    2  A    between atoms: C_4  and  C_33
    3  A    between atoms: C_8  and  N_14
    4  A    between atoms: C_8  and  C_27
    5  A    between atoms: C_11  and  C_13
    6  A    between atoms: C_13  and  C_21
    7  A    between atoms: N_14  and  C_35
    8  A    between atoms: O_19  and  P_25
    9  A    between atoms: O_19  and  N_36
   10  A    between atoms: C_22  and  C_30
   11  A    between atoms: C_27  and  N_36
                            x       y       z     vdW  Elec       q    Type
                         _______ _______ _______ _____ _____    ______ ____

>  <TORSDO>
F 11

$$$$
=
 OpenBabel10222421133D

 37 42  0  0  1  0  0  0  0  0999 V2000
  188.5610  177.4010  140.1030 N   0  0  0  0  0  0  0  0  0  0  0  0
  189.6530  177.1970  140.8610 C   0  0  0  0  0  0  0  0  0  0  0  0
  188.9730  177.7210  138.8860 N   0  0  0  0  0  0  0  0  0  0  0  0
  190.7830  177.4080  140.0870 C   0  0  0  0  0  0  0  0  0  0  0  0
  190.3190  177.7480  138.8270 C   0  0  0  0  0  3  0  0  0  0  0  0
  188.0810  178.0770  137.7890 C   0  0  1  0  0  3  0  0  0  0  0  0
  187.7350  177.7890  135.3730 C   0  0  0  0  0  2  0  0  0  0  0  0
  188.3540  177.2130  136.5670 C   0  0  2  0  0  3  0  0  0  0  0  0
  187.0600  176.6880  136.0800 N   0  0  1  0  0  0  0  0  0  0  0  0
  186.6550  177.7990  138.1820 C   0  0  0  0  0  2  0  0  0  0  0  0
  186.0150  177.2800  136.9100 C   0  0  2  0  0  3  0  0  0  0  0  0
  185.0260  176.2620  137.2390 N   0  0  0  0  0  2  0  0  0  0  0  0
  184.0460  174.8990  135.1450 S   0  0  0  0  0  0  0  0  0  0  0  0
  183.9030  175.9290  136.4150 C   0  0  0  0  0  0  0  0  0  0  0  0
  182.6020  176.6090  136.6580 C   0  0  0  0  0  2  0  0  0  0  0  0
  182.6560  177.3520  137.9080 N   0  0  0  0  0  2  0  0  0  0  0  0
  182.5010  178.6650  137.5970 O   0  0  0  0  0  0  0  0  0  0  0  0
  181.6270  180.5160  139.2530 O   0  0  0  0  0  1  0  0  0  0  0  0
  182.6890  178.3780  140.3440 O   0  0  0  0  0  1  0  0  0  0  0  0
  182.7250  179.4900  139.0650 P   0  0  0  0  0  0  0  0  0  0  0  0
  184.2290  180.2810  139.0470 O   0  0  0  0  0  0  0  0  0  0  0  0
  192.1840  177.3210  140.5220 C   0  0  0  0  0  3  0  0  0  0  0  0
  193.1790  177.1820  139.6550 C   0  0  0  0  0  2  0  0  0  0  0  0
  189.9940  175.6700  142.6410 O   0  0  0  0  0  0  0  0  0  0  0  0
  189.5930  176.8110  142.2910 C   0  0  0  0  0  0  0  0  0  0  0  0
  189.1660  177.8220  143.3440 C   0  0  2  0  0  3  0  0  0  0  0  0
  191.3360  177.4470  144.6110 O   0  0  0  0  0  0  0  0  0  0  0  0
  190.1430  178.2150  144.5080 C   0  0  2  0  0  0  0  0  0  0  0  0
  189.0990  177.1030  144.6460 C   0  0  1  0  0  3  0  0  0  0  0  0
  191.3950  178.5180  143.7440 C   0  0  0  0  0  2  0  0  0  0  0  0
  185.6000  178.2720  145.5770 C   0  0  0  0  0  0  0  0  0  0  0  0
  186.9830  178.3150  147.5680 C   0  0  0  0  0  3  0  0  0  0  0  0
  185.7460  178.5230  146.9460 C   0  0  0  0  0  3  0  0  0  0  0  0
  187.9250  177.5720  145.4520 C   0  0  0  0  0  0  0  0  0  0  0  0
  186.6870  177.8040  144.8310 C   0  0  0  0  0  3  0  0  0  0  0  0
  184.4020  178.4780  144.9740 F   0  0  0  0  0  0  0  0  0  0  0  0
  188.0710  177.8460  146.8230 C   0  0  0  0  0  3  0  0  0  0  0  0
  1  2  2  0  0  0  0
  2 25  1  0  0  0  0
  3  1  1  0  0  0  0
  4 22  1  0  0  0  0
  4  2  1  0  0  0  0
  5  3  1  0  0  0  0
  5  4  2  0  0  0  0
  6 10  1  1  0  0  0
  6  3  1  0  0  0  0
  8  7  1  6  0  0  0
  8  6  1  0  0  0  0
  9  7  1  6  0  0  0
  9  8  1  0  0  0  0
  9 11  1  0  0  0  0
 11 12  1  1  0  0  0
 11 10  1  0  0  0  0
 13 14  2  0  0  0  0
 14 15  1  0  0  0  0
 14 12  1  0  0  0  0
 15 16  1  0  0  0  0
 17 16  1  0  0  0  0
 17 20  1  0  0  0  0
 20 18  1  0  0  0  0
 20 19  1  0  0  0  0
 21 20  2  0  0  0  0
 23 22  2  0  0  0  0
 25 24  2  0  0  0  0
 26 25  1  6  0  0  0
 26 28  1  0  0  0  0
 26 29  1  0  0  0  0
 28 30  1  1  0  0  0
 28 27  1  0  0  0  0
 28 29  1  0  0  0  0
 29 34  1  1  0  0  0
 30 27  1  0  0  0  0
 31 33  1  0  0  0  0
 33 32  2  0  0  0  0
 34 37  2  0  0  0  0
 35 34  1  0  0  0  0
 35 31  2  0  0  0  0
 36 31  1  0  0  0  0
 37 32  1  0  0  0  0
M  END
>  <MODEL>
4

>  <REMARK>
 VINA RESULT:      -7.9      1.915      2.375
  Name = 
  11 active torsions:
  status: ('A' for Active; 'I' for Inactive)
    1  A    between atoms: C_2  and  N_32
    2  A    between atoms: C_4  and  C_33
    3  A    between atoms: C_8  and  N_14
    4  A    between atoms: C_8  and  C_27
    5  A    between atoms: C_11  and  C_13
    6  A    between atoms: C_13  and  C_21
    7  A    between atoms: N_14  and  C_35
    8  A    between atoms: O_19  and  P_25
    9  A    between atoms: O_19  and  N_36
   10  A    between atoms: C_22  and  C_30
   11  A    between atoms: C_27  and  N_36
                            x       y       z     vdW  Elec       q    Type
                         _______ _______ _______ _____ _____    ______ ____

>  <TORSDO>
F 11

$$$$
=
 OpenBabel10222421133D

 37 42  0  0  1  0  0  0  0  0999 V2000
  190.2640  176.6030  140.4200 N   0  0  0  0  0  0  0  0  0  0  0  0
  189.4400  177.1120  141.3530 C   0  0  0  0  0  0  0  0  0  0  0  0
  189.9940  177.2090  139.2740 N   0  0  0  0  0  0  0  0  0  0  0  0
  188.6230  178.0620  140.7610 C   0  0  0  0  0  0  0  0  0  0  0  0
  188.9950  178.1010  139.4280 C   0  0  0  0  0  3  0  0  0  0  0  0
  190.6400  176.8870  138.0080 C   0  0  1  0  0  3  0  0  0  0  0  0
  192.7820  176.1970  137.0210 C   0  0  0  0  0  2  0  0  0  0  0  0
  191.9760  176.1970  138.2410 C   0  0  2  0  0  3  0  0  0  0  0  0
  192.0230  174.9900  137.3880 N   0  0  1  0  0  0  0  0  0  0  0  0
  189.7960  175.9030  137.2430 C   0  0  0  0  0  2  0  0  0  0  0  0
  190.8040  174.9830  136.5850 C   0  0  2  0  0  3  0  0  0  0  0  0
  190.2690  173.6280  136.5320 N   0  0  0  0  0  2  0  0  0  0  0  0
  188.4090  173.7470  134.6010 S   0  0  0  0  0  0  0  0  0  0  0  0
  188.9500  173.2960  136.0830 C   0  0  0  0  0  0  0  0  0  0  0  0
  188.0200  172.6110  137.0200 C   0  0  0  0  0  2  0  0  0  0  0  0
  186.9100  173.4920  137.3520 N   0  0  0  0  0  2  0  0  0  0  0  0
  185.8670  172.6990  137.7110 O   0  0  0  0  0  0  0  0  0  0  0  0
  183.2930  172.5230  137.1860 O   0  0  0  0  0  1  0  0  0  0  0  0
  184.2430  174.9370  137.5920 O   0  0  0  0  0  1  0  0  0  0  0  0
  184.5130  173.3900  136.9530 P   0  0  0  0  0  0  0  0  0  0  0  0
  184.7990  173.5120  135.2830 O   0  0  0  0  0  0  0  0  0  0  0  0
  187.5590  178.8440  141.4070 C   0  0  0  0  0  3  0  0  0  0  0  0
  186.2930  178.7560  141.0220 C   0  0  0  0  0  2  0  0  0  0  0  0
  189.6610  175.4720  143.0500 O   0  0  0  0  0  0  0  0  0  0  0  0
  189.4500  176.6830  142.7720 C   0  0  0  0  0  0  0  0  0  0  0  0
  189.3270  177.7080  143.8880 C   0  0  2  0  0  3  0  0  0  0  0  0
  191.8060  177.4810  144.3960 O   0  0  0  0  0  0  0  0  0  0  0  0
  190.6020  178.1880  144.6690 C   0  0  2  0  0  0  0  0  0  0  0  0
  189.7210  177.0330  145.1550 C   0  0  1  0  0  3  0  0  0  0  0  0
  191.5250  178.5220  143.5370 C   0  0  0  0  0  2  0  0  0  0  0  0
  186.6850  178.2440  147.1040 C   0  0  0  0  0  0  0  0  0  0  0  0
  188.5630  178.0710  148.6290 C   0  0  0  0  0  3  0  0  0  0  0  0
  187.2160  178.3740  148.3920 C   0  0  0  0  0  3  0  0  0  0  0  0
  188.8430  177.4750  146.2880 C   0  0  0  0  0  0  0  0  0  0  0  0
  187.4970  177.8010  146.0540 C   0  0  0  0  0  3  0  0  0  0  0  0
  185.3810  178.5420  146.8750 F   0  0  0  0  0  0  0  0  0  0  0  0
  189.3750  177.6280  147.5790 C   0  0  0  0  0  3  0  0  0  0  0  0
  1  2  2  0  0  0  0
  2 25  1  0  0  0  0
  3  5  1  0  0  0  0
  3  1  1  0  0  0  0
  4  2  1  0  0  0  0
  4 22  1  0  0  0  0
  5  4  2  0  0  0  0
  6 10  1  6  0  0  0
  6  8  1  0  0  0  0
  6  3  1  0  0  0  0
  8  7  1  6  0  0  0
  9  7  1  6  0  0  0
  9  8  1  0  0  0  0
 11 12  1  1  0  0  0
 11 10  1  0  0  0  0
 11  9  1  0  0  0  0
 13 14  2  0  0  0  0
 14 12  1  0  0  0  0
 14 15  1  0  0  0  0
 15 16  1  0  0  0  0
 16 17  1  0  0  0  0
 20 18  1  0  0  0  0
 20 19  1  0  0  0  0
 20 17  1  0  0  0  0
 21 20  2  0  0  0  0
 23 22  2  0  0  0  0
 25 24  2  0  0  0  0
 26 25  1  6  0  0  0
 26 28  1  0  0  0  0
 26 29  1  0  0  0  0
 27 28  1  0  0  0  0
 28 30  1  1  0  0  0
 28 29  1  0  0  0  0
 29 34  1  1  0  0  0
 30 27  1  0  0  0  0
 31 33  1  0  0  0  0
 33 32  2  0  0  0  0
 34 37  2  0  0  0  0
 35 34  1  0  0  0  0
 35 31  2  0  0  0  0
 36 31  1  0  0  0  0
 37 32  1  0  0  0  0
M  END
>  <MODEL>
5

>  <REMARK>
 VINA RESULT:      -7.8      3.686      4.894
  Name = 
  11 active torsions:
  status: ('A' for Active; 'I' for Inactive)
    1  A    between atoms: C_2  and  N_32
    2  A    between atoms: C_4  and  C_33
    3  A    between atoms: C_8  and  N_14
    4  A    between atoms: C_8  and  C_27
    5  A    between atoms: C_11  and  C_13
    6  A    between atoms: C_13  and  C_21
    7  A    between atoms: N_14  and  C_35
    8  A    between atoms: O_19  and  P_25
    9  A    between atoms: O_19  and  N_36
   10  A    between atoms: C_22  and  C_30
   11  A    between atoms: C_27  and  N_36
                            x       y       z     vdW  Elec       q    Type
                         _______ _______ _______ _____ _____    ______ ____

>  <TORSDO>
F 11

$$$$
=
 OpenBabel10222421133D

 37 42  0  0  1  0  0  0  0  0999 V2000
  189.5730  178.5330  141.9400 N   0  0  0  0  0  0  0  0  0  0  0  0
  189.9740  177.7500  142.9570 C   0  0  0  0  0  0  0  0  0  0  0  0
  189.4690  177.7690  140.8640 N   0  0  0  0  0  0  0  0  0  0  0  0
  190.1330  176.4540  142.4910 C   0  0  0  0  0  0  0  0  0  0  0  0
  189.8080  176.4950  141.1460 C   0  0  0  0  0  3  0  0  0  0  0  0
  189.1170  178.2660  139.5400 C   0  0  1  0  0  3  0  0  0  0  0  0
  189.7710  178.1690  137.1730 C   0  0  0  0  0  2  0  0  0  0  0  0
  189.8250  177.4680  138.4550 C   0  0  2  0  0  3  0  0  0  0  0  0
  188.8200  177.0780  137.4420 N   0  0  1  0  0  0  0  0  0  0  0  0
  187.6440  178.0720  139.2980 C   0  0  0  0  0  2  0  0  0  0  0  0
  187.5550  177.6920  137.8350 C   0  0  2  0  0  3  0  0  0  0  0  0
  186.4740  176.7340  137.6420 N   0  0  0  0  0  2  0  0  0  0  0  0
  185.8310  177.1120  135.0640 S   0  0  0  0  0  0  0  0  0  0  0  0
  185.4570  176.8510  136.6410 C   0  0  0  0  0  0  0  0  0  0  0  0
  184.0290  176.8340  137.0570 C   0  0  0  0  0  2  0  0  0  0  0  0
  183.8410  177.6820  138.2240 N   0  0  0  0  0  2  0  0  0  0  0  0
  182.7860  178.4960  137.9590 O   0  0  0  0  0  0  0  0  0  0  0  0
  184.3630  180.0070  139.4290 O   0  0  0  0  0  1  0  0  0  0  0  0
  182.2170  181.1590  138.4500 O   0  0  0  0  0  0  0  0  0  0  0  0
  182.9080  179.7530  139.0950 P   0  0  0  0  0  0  0  0  0  0  0  0
  182.0790  179.3170  140.5130 O   0  0  0  0  0  1  0  0  0  0  0  0
  190.5840  175.2850  143.2590 C   0  0  0  0  0  3  0  0  0  0  0  0
  191.7010  175.3060  143.9730 C   0  0  0  0  0  2  0  0  0  0  0  0
  191.3570  178.5780  144.6940 O   0  0  0  0  0  0  0  0  0  0  0  0
  190.1950  178.2520  144.3340 C   0  0  0  0  0  0  0  0  0  0  0  0
  189.0180  178.4860  145.2670 C   0  0  2  0  0  3  0  0  0  0  0  0
  189.5550  176.3400  146.5170 O   0  0  0  0  0  0  0  0  0  0  0  0
  188.7560  177.5160  146.4740 C   0  0  2  0  0  0  0  0  0  0  0  0
  188.0880  177.3340  145.1070 C   0  0  1  0  0  3  0  0  0  0  0  0
  190.1160  177.4580  147.0980 C   0  0  0  0  0  2  0  0  0  0  0  0
  184.6010  178.3690  143.9910 C   0  0  0  0  0  0  0  0  0  0  0  0
  184.7500  178.6280  146.3970 C   0  0  0  0  0  3  0  0  0  0  0  0
  184.0130  178.7230  145.2100 C   0  0  0  0  0  3  0  0  0  0  0  0
  186.6610  177.7930  145.1470 C   0  0  0  0  0  0  0  0  0  0  0  0
  185.9230  177.9110  143.9580 C   0  0  0  0  0  3  0  0  0  0  0  0
  183.8870  178.4650  142.8410 F   0  0  0  0  0  0  0  0  0  0  0  0
  186.0720  178.1700  146.3650 C   0  0  0  0  0  3  0  0  0  0  0  0
  1  2  2  0  0  0  0
  2 25  1  0  0  0  0
  3  5  1  0  0  0  0
  3  1  1  0  0  0  0
  4  2  1  0  0  0  0
  4 22  1  0  0  0  0
  5  4  2  0  0  0  0
  6 10  1  6  0  0  0
  6  3  1  0  0  0  0
  8  7  1  6  0  0  0
  8  6  1  0  0  0  0
  9  7  1  6  0  0  0
  9 11  1  0  0  0  0
  9  8  1  0  0  0  0
 11 12  1  1  0  0  0
 11 10  1  0  0  0  0
 13 14  2  0  0  0  0
 14 15  1  0  0  0  0
 14 12  1  0  0  0  0
 15 16  1  0  0  0  0
 17 16  1  0  0  0  0
 17 20  1  0  0  0  0
 19 20  2  0  0  0  0
 20 18  1  0  0  0  0
 20 21  1  0  0  0  0
 22 23  2  0  0  0  0
 25 24  2  0  0  0  0
 26 25  1  6  0  0  0
 26 28  1  0  0  0  0
 27 30  1  0  0  0  0
 28 27  1  0  0  0  0
 28 30  1  1  0  0  0
 29 34  1  1  0  0  0
 29 26  1  0  0  0  0
 29 28  1  0  0  0  0
 31 33  1  0  0  0  0
 33 32  2  0  0  0  0
 34 37  2  0  0  0  0
 35 31  2  0  0  0  0
 35 34  1  0  0  0  0
 36 31  1  0  0  0  0
 37 32  1  0  0  0  0
M  END
>  <MODEL>
6

>  <REMARK>
 VINA RESULT:      -7.8      2.444      3.410
  Name = 
  11 active torsions:
  status: ('A' for Active; 'I' for Inactive)
    1  A    between atoms: C_2  and  N_32
    2  A    between atoms: C_4  and  C_33
    3  A    between atoms: C_8  and  N_14
    4  A    between atoms: C_8  and  C_27
    5  A    between atoms: C_11  and  C_13
    6  A    between atoms: C_13  and  C_21
    7  A    between atoms: N_14  and  C_35
    8  A    between atoms: O_19  and  P_25
    9  A    between atoms: O_19  and  N_36
   10  A    between atoms: C_22  and  C_30
   11  A    between atoms: C_27  and  N_36
                            x       y       z     vdW  Elec       q    Type
                         _______ _______ _______ _____ _____    ______ ____

>  <TORSDO>
F 11

$$$$
=
 OpenBabel10222421133D

 37 42  0  0  1  0  0  0  0  0999 V2000
  188.3510  177.9850  139.6890 N   0  0  0  0  0  0  0  0  0  0  0  0
  189.5300  177.3780  139.9060 C   0  0  0  0  0  0  0  0  0  0  0  0
  187.8740  177.5330  138.5400 N   0  0  0  0  0  0  0  0  0  0  0  0
  189.7990  176.5250  138.8470 C   0  0  0  0  0  0  0  0  0  0  0  0
  188.7240  176.6480  137.9830 C   0  0  0  0  0  3  0  0  0  0  0  0
  186.6360  178.0010  137.9290 C   0  0  1  0  0  3  0  0  0  0  0  0
  185.0200  177.5010  136.1450 C   0  0  0  0  0  2  0  0  0  0  0  0
  186.0380  176.9310  137.0270 C   0  0  2  0  0  3  0  0  0  0  0  0
  184.6060  176.7930  137.3670 N   0  0  1  0  0  0  0  0  0  0  0  0
  185.6080  178.2620  138.9970 C   0  0  0  0  0  2  0  0  0  0  0  0
  184.3040  177.8050  138.3750 C   0  0  2  0  0  3  0  0  0  0  0  0
  183.4480  177.2230  139.4020 N   0  0  0  0  0  2  0  0  0  0  0  0
  181.0720  176.0010  139.6570 S   0  0  0  0  0  0  0  0  0  0  0  0
  182.0190  177.3200  139.4150 C   0  0  0  0  0  0  0  0  0  0  0  0
  181.3820  178.6270  139.1050 C   0  0  0  0  0  2  0  0  0  0  0  0
  180.5970  179.0810  140.2430 N   0  0  0  0  0  2  0  0  0  0  0  0
  181.4630  179.2740  141.2710 O   0  0  0  0  0  0  0  0  0  0  0  0
  180.0280  180.6420  143.0050 O   0  0  0  0  0  1  0  0  0  0  0  0
  179.1550  178.2420  142.3960 O   0  0  0  0  0  0  0  0  0  0  0  0
  180.4960  179.2410  142.6680 P   0  0  0  0  0  0  0  0  0  0  0  0
  181.4020  178.6290  143.9690 O   0  0  0  0  0  1  0  0  0  0  0  0
  190.9930  175.6880  138.6630 C   0  0  0  0  0  3  0  0  0  0  0  0
  191.1930  174.9880  137.5540 C   0  0  0  0  0  2  0  0  0  0  0  0
  191.5920  177.8800  140.9620 O   0  0  0  0  0  0  0  0  0  0  0  0
  190.3670  177.6250  141.1050 C   0  0  0  0  0  0  0  0  0  0  0  0
  189.7340  177.6910  142.4860 C   0  0  2  0  0  3  0  0  0  0  0  0
  190.2090  175.2200  142.8430 O   0  0  0  0  0  0  0  0  0  0  0  0
  189.7490  176.4340  143.4270 C   0  0  2  0  0  0  0  0  0  0  0  0
  188.5790  176.7510  142.4900 C   0  0  1  0  0  3  0  0  0  0  0  0
  191.1920  176.0390  143.3580 C   0  0  0  0  0  2  0  0  0  0  0  0
  185.2680  178.4490  143.2860 C   0  0  0  0  0  0  0  0  0  0  0  0
  186.4000  177.9500  145.3710 C   0  0  0  0  0  3  0  0  0  0  0  0
  185.3000  178.4790  144.6850 C   0  0  0  0  0  3  0  0  0  0  0  0
  187.4260  177.3290  143.2550 C   0  0  0  0  0  0  0  0  0  0  0  0
  186.3300  177.8810  142.5730 C   0  0  0  0  0  3  0  0  0  0  0  0
  184.2030  178.9650  142.6220 F   0  0  0  0  0  0  0  0  0  0  0  0
  187.4620  177.3820  144.6580 C   0  0  0  0  0  3  0  0  0  0  0  0
  1  2  2  0  0  0  0
  2 25  1  0  0  0  0
  3  1  1  0  0  0  0
  4  2  1  0  0  0  0
  5  3  1  0  0  0  0
  5  4  2  0  0  0  0
  6  3  1  1  0  0  0
  6 10  1  0  0  0  0
  8  7  1  6  0  0  0
  8  9  1  0  0  0  0
  8  6  1  0  0  0  0
  9  7  1  6  0  0  0
  9 11  1  0  0  0  0
 11 10  1  0  0  0  0
 11 12  1  1  0  0  0
 12 14  1  0  0  0  0
 14 13  2  0  0  0  0
 15 14  1  0  0  0  0
 15 16  1  0  0  0  0
 16 17  1  0  0  0  0
 17 20  1  0  0  0  0
 19 20  2  0  0  0  0
 20 18  1  0  0  0  0
 20 21  1  0  0  0  0
 22  4  1  0  0  0  0
 23 22  2  0  0  0  0
 24 25  2  0  0  0  0
 26 25  1  6  0  0  0
 26 29  1  0  0  0  0
 26 28  1  0  0  0  0
 27 30  1  0  0  0  0
 27 28  1  0  0  0  0
 28 30  1  1  0  0  0
 29 34  1  1  0  0  0
 29 28  1  0  0  0  0
 31 33  1  0  0  0  0
 33 32  2  0  0  0  0
 34 37  2  0  0  0  0
 35 34  1  0  0  0  0
 35 31  2  0  0  0  0
 36 31  1  0  0  0  0
 37 32  1  0  0  0  0
M  END
>  <MODEL>
7

>  <REMARK>
 VINA RESULT:      -7.6      2.409      3.081
  Name = 
  11 active torsions:
  status: ('A' for Active; 'I' for Inactive)
    1  A    between atoms: C_2  and  N_32
    2  A    between atoms: C_4  and  C_33
    3  A    between atoms: C_8  and  N_14
    4  A    between atoms: C_8  and  C_27
    5  A    between atoms: C_11  and  C_13
    6  A    between atoms: C_13  and  C_21
    7  A    between atoms: N_14  and  C_35
    8  A    between atoms: O_19  and  P_25
    9  A    between atoms: O_19  and  N_36
   10  A    between atoms: C_22  and  C_30
   11  A    between atoms: C_27  and  N_36
                            x       y       z     vdW  Elec       q    Type
                         _______ _______ _______ _____ _____    ______ ____

>  <TORSDO>
F 11

$$$$
=
 OpenBabel10222421133D

 37 42  0  0  1  0  0  0  0  0999 V2000
  189.1820  176.7070  140.0330 N   0  0  0  0  0  0  0  0  0  0  0  0
  188.7550  177.2520  141.1860 C   0  0  0  0  0  0  0  0  0  0  0  0
  188.4780  177.2480  139.0510 N   0  0  0  0  0  0  0  0  0  0  0  0
  187.7420  178.1570  140.9080 C   0  0  0  0  0  0  0  0  0  0  0  0
  187.5810  178.1310  139.5330 C   0  0  0  0  0  3  0  0  0  0  0  0
  188.6070  176.8690  137.6490 C   0  0  1  0  0  3  0  0  0  0  0  0
  189.2950  177.7140  135.4460 C   0  0  0  0  0  2  0  0  0  0  0  0
  189.4560  177.8780  136.8910 C   0  0  2  0  0  3  0  0  0  0  0  0
  190.4700  177.1320  136.1150 N   0  0  1  0  0  0  0  0  0  0  0  0
  189.3330  175.5550  137.5420 C   0  0  0  0  0  2  0  0  0  0  0  0
  190.2000  175.7100  136.3090 C   0  0  2  0  0  3  0  0  0  0  0  0
  191.4590  175.0020  136.5030 N   0  0  0  0  0  2  0  0  0  0  0  0
  192.7300  176.3970  138.4110 S   0  0  0  0  0  0  0  0  0  0  0  0
  192.6670  175.6120  136.9710 C   0  0  0  0  0  0  0  0  0  0  0  0
  193.8630  175.6150  136.0860 C   0  0  0  0  0  2  0  0  0  0  0  0
  194.8080  174.5980  136.5220 N   0  0  0  0  0  2  0  0  0  0  0  0
  195.8410  175.2450  137.1210 O   0  0  0  0  0  0  0  0  0  0  0  0
  197.3670  173.1330  137.4980 O   0  0  0  0  0  0  0  0  0  0  0  0
  197.3820  174.9430  139.4000 O   0  0  0  0  0  1  0  0  0  0  0  0
  196.4780  174.1220  138.2240 P   0  0  0  0  0  0  0  0  0  0  0  0
  195.2070  173.2810  138.9750 O   0  0  0  0  0  1  0  0  0  0  0  0
  186.9770  178.9550  141.8760 C   0  0  0  0  0  3  0  0  0  0  0  0
  185.8170  178.5370  142.3660 C   0  0  0  0  0  2  0  0  0  0  0  0
  189.9730  175.8310  142.6410 O   0  0  0  0  0  0  0  0  0  0  0  0
  189.3150  176.8980  142.5120 C   0  0  0  0  0  0  0  0  0  0  0  0
  189.2040  177.8670  143.6790 C   0  0  2  0  0  3  0  0  0  0  0  0
  191.6960  177.6470  144.1240 O   0  0  0  0  0  0  0  0  0  0  0  0
  190.4900  178.3240  144.4550 C   0  0  2  0  0  0  0  0  0  0  0  0
  189.6330  177.1370  144.9030 C   0  0  1  0  0  3  0  0  0  0  0  0
  191.3840  178.7250  143.3220 C   0  0  0  0  0  2  0  0  0  0  0  0
  186.6360  178.2480  146.9670 C   0  0  0  0  0  0  0  0  0  0  0  0
  188.5300  177.9560  148.4530 C   0  0  0  0  0  3  0  0  0  0  0  0
  187.1850  178.2880  148.2540 C   0  0  0  0  0  3  0  0  0  0  0  0
  188.7740  177.5120  146.0740 C   0  0  0  0  0  0  0  0  0  0  0  0
  187.4300  177.8670  145.8800 C   0  0  0  0  0  3  0  0  0  0  0  0
  185.3330  178.5750  146.7760 F   0  0  0  0  0  0  0  0  0  0  0  0
  189.3240  177.5750  147.3650 C   0  0  0  0  0  3  0  0  0  0  0  0
  1  2  2  0  0  0  0
  2 25  1  0  0  0  0
  3  5  1  0  0  0  0
  3  1  1  0  0  0  0
  4  2  1  0  0  0  0
  4 22  1  0  0  0  0
  5  4  2  0  0  0  0
  6 10  1  1  0  0  0
  6  3  1  0  0  0  0
  8  7  1  6  0  0  0
  8  6  1  0  0  0  0
  9  7  1  6  0  0  0
  9 11  1  0  0  0  0
  9  8  1  0  0  0  0
 11 12  1  1  0  0  0
 11 10  1  0  0  0  0
 12 14  1  0  0  0  0
 14 13  2  0  0  0  0
 15 16  1  0  0  0  0
 15 14  1  0  0  0  0
 16 17  1  0  0  0  0
 17 20  1  0  0  0  0
 18 20  2  0  0  0  0
 20 21  1  0  0  0  0
 20 19  1  0  0  0  0
 22 23  2  0  0  0  0
 25 24  2  0  0  0  0
 26 25  1  6  0  0  0
 26 28  1  0  0  0  0
 26 29  1  0  0  0  0
 27 28  1  0  0  0  0
 28 30  1  1  0  0  0
 28 29  1  0  0  0  0
 29 34  1  1  0  0  0
 30 27  1  0  0  0  0
 31 33  1  0  0  0  0
 33 32  2  0  0  0  0
 34 37  2  0  0  0  0
 35 34  1  0  0  0  0
 35 31  2  0  0  0  0
 36 31  1  0  0  0  0
 37 32  1  0  0  0  0
M  END
>  <MODEL>
8

>  <REMARK>
 VINA RESULT:      -7.6      4.447      6.831
  Name = 
  11 active torsions:
  status: ('A' for Active; 'I' for Inactive)
    1  A    between atoms: C_2  and  N_32
    2  A    between atoms: C_4  and  C_33
    3  A    between atoms: C_8  and  N_14
    4  A    between atoms: C_8  and  C_27
    5  A    between atoms: C_11  and  C_13
    6  A    between atoms: C_13  and  C_21
    7  A    between atoms: N_14  and  C_35
    8  A    between atoms: O_19  and  P_25
    9  A    between atoms: O_19  and  N_36
   10  A    between atoms: C_22  and  C_30
   11  A    between atoms: C_27  and  N_36
                            x       y       z     vdW  Elec       q    Type
                         _______ _______ _______ _____ _____    ______ ____

>  <TORSDO>
F 11

$$$$
=
 OpenBabel10222421133D

 37 42  0  0  1  0  0  0  0  0999 V2000
  188.6860  177.0890  140.1800 N   0  0  0  0  0  0  0  0  0  0  0  0
  189.7880  177.0600  140.9510 C   0  0  0  0  0  0  0  0  0  0  0  0
  189.0680  177.3880  138.9480 N   0  0  0  0  0  0  0  0  0  0  0  0
  190.8920  177.3620  140.1690 C   0  0  0  0  0  0  0  0  0  0  0  0
  190.4020  177.5730  138.8910 C   0  0  0  0  0  3  0  0  0  0  0  0
  188.1510  177.5730  137.8310 C   0  0  1  0  0  3  0  0  0  0  0  0
  186.9840  176.3690  136.0340 C   0  0  0  0  0  2  0  0  0  0  0  0
  187.6030  176.2360  137.3530 C   0  0  2  0  0  3  0  0  0  0  0  0
  186.1340  176.3580  137.2360 N   0  0  1  0  0  0  0  0  0  0  0  0
  186.9560  178.3710  138.2790 C   0  0  0  0  0  2  0  0  0  0  0  0
  185.7920  177.7450  137.5390 C   0  0  2  0  0  3  0  0  0  0  0  0
  184.6020  177.7770  138.3790 N   0  0  0  0  0  2  0  0  0  0  0  0
  184.5850  178.5900  140.9360 S   0  0  0  0  0  0  0  0  0  0  0  0
  184.3120  178.8060  139.3320 C   0  0  0  0  0  0  0  0  0  0  0  0
  183.6580  180.0580  138.8660 C   0  0  0  0  0  2  0  0  0  0  0  0
  182.2360  180.0200  139.1720 N   0  0  0  0  0  2  0  0  0  0  0  0
  181.5720  180.2180  138.0040 O   0  0  0  0  0  0  0  0  0  0  0  0
  181.4730  178.0710  136.4830 O   0  0  0  0  0  0  0  0  0  0  0  0
  180.9460  177.7260  139.0320 O   0  0  0  0  0  1  0  0  0  0  0  0
  180.8150  178.7330  137.6750 P   0  0  0  0  0  0  0  0  0  0  0  0
  179.1730  179.0000  137.3280 O   0  0  0  0  0  1  0  0  0  0  0  0
  192.2890  177.4670  140.6120 C   0  0  0  0  0  3  0  0  0  0  0  0
  193.3020  177.1660  139.8100 C   0  0  0  0  0  2  0  0  0  0  0  0
  190.2200  175.6500  142.8060 O   0  0  0  0  0  0  0  0  0  0  0  0
  189.7610  176.7510  142.4000 C   0  0  0  0  0  0  0  0  0  0  0  0
  189.2970  177.7960  143.4030 C   0  0  2  0  0  3  0  0  0  0  0  0
  191.5230  177.6440  144.6200 O   0  0  0  0  0  0  0  0  0  0  0  0
  190.2790  178.3250  144.5090 C   0  0  2  0  0  0  0  0  0  0  0  0
  189.3150  177.1580  144.7480 C   0  0  1  0  0  3  0  0  0  0  0  0
  191.4860  178.6590  143.6870 C   0  0  0  0  0  2  0  0  0  0  0  0
  185.8160  178.3180  145.6910 C   0  0  0  0  0  0  0  0  0  0  0  0
  187.1740  178.2490  147.6990 C   0  0  0  0  0  3  0  0  0  0  0  0
  185.9470  178.5000  147.0720 C   0  0  0  0  0  3  0  0  0  0  0  0
  188.1360  177.6000  145.5620 C   0  0  0  0  0  0  0  0  0  0  0  0
  186.9090  177.8750  144.9370 C   0  0  0  0  0  3  0  0  0  0  0  0
  184.6280  178.5650  145.0840 F   0  0  0  0  0  0  0  0  0  0  0  0
  188.2670  177.8060  146.9450 C   0  0  0  0  0  3  0  0  0  0  0  0
  1  2  2  0  0  0  0
  2 25  1  0  0  0  0
  3  1  1  0  0  0  0
  4 22  1  0  0  0  0
  4  2  1  0  0  0  0
  5  3  1  0  0  0  0
  5  4  2  0  0  0  0
  6 10  1  1  0  0  0
  6  3  1  0  0  0  0
  8  7  1  6  0  0  0
  8  6  1  0  0  0  0
  9  7  1  6  0  0  0
  9  8  1  0  0  0  0
  9 11  1  0  0  0  0
 11 10  1  0  0  0  0
 11 12  1  1  0  0  0
 12 14  1  0  0  0  0
 14 13  2  0  0  0  0
 15 16  1  0  0  0  0
 15 14  1  0  0  0  0
 17 16  1  0  0  0  0
 18 20  2  0  0  0  0
 20 17  1  0  0  0  0
 20 19  1  0  0  0  0
 21 20  1  0  0  0  0
 23 22  2  0  0  0  0
 25 24  2  0  0  0  0
 26 25  1  6  0  0  0
 26 28  1  0  0  0  0
 26 29  1  0  0  0  0
 28 30  1  1  0  0  0
 28 27  1  0  0  0  0
 28 29  1  0  0  0  0
 29 34  1  1  0  0  0
 30 27  1  0  0  0  0
 31 33  1  0  0  0  0
 33 32  2  0  0  0  0
 34 37  2  0  0  0  0
 35 34  1  0  0  0  0
 35 31  2  0  0  0  0
 36 31  1  0  0  0  0
 37 32  1  0  0  0  0
M  END
>  <MODEL>
9

>  <REMARK>
 VINA RESULT:      -7.6      2.435      2.907
  Name = 
  11 active torsions:
  status: ('A' for Active; 'I' for Inactive)
    1  A    between atoms: C_2  and  N_32
    2  A    between atoms: C_4  and  C_33
    3  A    between atoms: C_8  and  N_14
    4  A    between atoms: C_8  and  C_27
    5  A    between atoms: C_11  and  C_13
    6  A    between atoms: C_13  and  C_21
    7  A    between atoms: N_14  and  C_35
    8  A    between atoms: O_19  and  P_25
    9  A    between atoms: O_19  and  N_36
   10  A    between atoms: C_22  and  C_30
   11  A    between atoms: C_27  and  N_36
                            x       y       z     vdW  Elec       q    Type
                         _______ _______ _______ _____ _____    ______ ____

>  <TORSDO>
F 11

$$$$
