=
 OpenBabel10222420283D

 31 35  0  0  1  0  0  0  0  0999 V2000
  189.7080  175.7650  143.1840 O   0  0  0  0  0  0  0  0  0  0  0  0
  189.9050  176.9680  143.5120 C   0  0  0  0  0  0  0  0  0  0  0  0
  188.7870  177.8240  143.7800 N   0  0  0  0  0  2  0  0  0  0  0  0
  183.2110  179.3430  145.3660 N   0  0  0  0  0  0  0  0  0  0  0  0
  186.9100  177.9460  142.2590 C   0  0  0  0  0  2  0  0  0  0  0  0
  183.4000  178.8860  143.0280 C   0  0  0  0  0  3  0  0  0  0  0  0
  184.9290  178.7730  146.8660 N   0  0  0  0  0  0  0  0  0  0  0  0
  185.2330  178.3590  144.5240 C   0  0  0  0  0  0  0  0  0  0  0  0
  185.4120  177.7490  142.0880 C   0  0  0  0  0  2  0  0  0  0  0  0
  186.9640  177.7600  146.1150 C   0  0  0  0  0  0  0  0  0  0  0  0
  186.5370  177.8700  144.7700 C   0  0  0  0  0  0  0  0  0  0  0  0
  188.2510  177.1120  146.5000 C   0  0  0  0  0  1  0  0  0  0  0  0
  182.6780  179.3810  144.1150 C   0  0  0  0  0  3  0  0  0  0  0  0
  184.6840  178.3770  143.2310 C   0  0  0  0  0  0  0  0  0  0  0  0
  184.4520  178.8380  145.5980 C   0  0  0  0  0  0  0  0  0  0  0  0
  186.1460  178.2370  147.1420 C   0  0  0  0  0  3  0  0  0  0  0  0
  187.4030  177.3970  143.6040 C   0  0  2  0  0  3  0  0  0  0  0  0
  191.3090  177.5360  143.5410 C   0  0  1  0  0  0  0  0  0  0  0  0
  191.2580  179.0660  143.6370 C   0  0  0  0  0  1  0  0  0  0  0  0
  192.0280  176.9940  144.7930 C   0  0  1  0  0  3  0  0  0  0  0  0
  191.6160  177.6760  145.9580 O   0  0  0  0  0  0  0  0  0  0  0  0
  191.3170  176.7030  146.9320 C   0  0  0  0  0  2  0  0  0  0  0  0
  191.8270  175.5030  144.9870 C   0  0  0  0  0  2  0  0  0  0  0  0
  191.8170  175.3590  146.4700 C   0  0  0  0  0  2  0  0  0  0  0  0
  192.0650  177.1260  142.3460 N   0  0  0  0  0  2  0  0  0  0  0  0
  191.6530  177.8830  141.1600 C   0  0  0  0  0  2  0  0  0  0  0  0
  191.7580  176.7710  138.9030 C   0  0  0  0  0  2  0  0  0  0  0  0
  190.7520  176.6950  137.7780 C   0  0  0  0  0  2  0  0  0  0  0  0
  190.9330  176.9880  140.1580 C   0  0  0  0  0  3  0  0  0  0  0  0
  189.6050  177.5870  139.7230 C   0  0  0  0  0  2  0  0  0  0  0  0
  189.6000  177.5800  138.2050 C   0  0  0  0  0  2  0  0  0  0  0  0
  1  2  2  0  0  0  0
  2 18  1  0  0  0  0
  2  3  1  0  0  0  0
  4 15  2  0  0  0  0
  5 17  1  0  0  0  0
  6 14  1  0  0  0  0
  6 13  2  0  0  0  0
  7 16  2  0  0  0  0
  8 11  1  0  0  0  0
  8 15  1  0  0  0  0
  9  5  1  0  0  0  0
  9 14  1  0  0  0  0
 10 12  1  0  0  0  0
 10 16  1  0  0  0  0
 11 10  2  0  0  0  0
 13  4  1  0  0  0  0
 14  8  2  0  0  0  0
 15  7  1  0  0  0  0
 17  3  1  1  0  0  0
 17 11  1  0  0  0  0
 18 19  1  1  0  0  0
 20 18  1  6  0  0  0
 20 23  1  0  0  0  0
 20 21  1  0  0  0  0
 21 22  1  0  0  0  0
 23 24  1  0  0  0  0
 24 22  1  0  0  0  0
 25 18  1  0  0  0  0
 26 25  1  0  0  0  0
 27 29  1  0  0  0  0
 28 31  1  0  0  0  0
 28 27  1  0  0  0  0
 29 26  1  0  0  0  0
 30 29  1  0  0  0  0
 31 30  1  0  0  0  0
M  END
>  <MODEL>
1

>  <REMARK>
 VINA RESULT:      -8.2      0.000      0.000
  Name = 
  6 active torsions:
  status: ('A' for Active; 'I' for Inactive)
    1  A    between atoms: C_1  and  C_10
    2  A    between atoms: C_1  and  N_20
    3  A    between atoms: C_1  and  C_27
    4  A    between atoms: C_13  and  N_20
    5  A    between atoms: C_13  and  C_22
    6  A    between atoms: C_26  and  N_28
                            x       y       z     vdW  Elec       q    Type
                         _______ _______ _______ _____ _____    ______ ____

>  <TORSDO>
F 6

$$$$
=
 OpenBabel10222420283D

 31 35  0  0  1  0  0  0  0  0999 V2000
  184.9300  179.7640  140.0910 O   0  0  0  0  0  0  0  0  0  0  0  0
  184.2990  178.7740  140.5550 C   0  0  0  0  0  0  0  0  0  0  0  0
  184.7110  178.1850  141.7950 N   0  0  0  0  0  2  0  0  0  0  0  0
  187.5610  177.3260  146.9970 N   0  0  0  0  0  0  0  0  0  0  0  0
  187.0880  177.7920  142.0120 C   0  0  0  0  0  2  0  0  0  0  0  0
  189.0370  177.2140  145.1210 C   0  0  0  0  0  3  0  0  0  0  0  0
  185.3710  178.1560  146.7820 N   0  0  0  0  0  0  0  0  0  0  0  0
  186.7600  177.9950  144.8350 C   0  0  0  0  0  0  0  0  0  0  0  0
  188.3290  178.0090  142.8640 C   0  0  0  0  0  2  0  0  0  0  0  0
  184.5050  178.8750  144.6690 C   0  0  0  0  0  0  0  0  0  0  0  0
  185.7000  178.4710  144.0270 C   0  0  0  0  0  0  0  0  0  0  0  0
  183.3850  179.5370  143.9400 C   0  0  0  0  0  1  0  0  0  0  0  0
  188.7800  177.0190  146.4790 C   0  0  0  0  0  3  0  0  0  0  0  0
  188.0230  177.6990  144.2930 C   0  0  0  0  0  0  0  0  0  0  0  0
  186.5580  177.8160  146.2190 C   0  0  0  0  0  0  0  0  0  0  0  0
  184.3620  178.6880  146.0460 C   0  0  0  0  0  3  0  0  0  0  0  0
  185.9000  178.6180  142.5200 C   0  0  2  0  0  3  0  0  0  0  0  0
  183.1630  178.1510  139.7700 C   0  0  1  0  0  0  0  0  0  0  0  0
  182.9120  176.7160  140.2520 C   0  0  0  0  0  1  0  0  0  0  0  0
  181.8860  178.9790  140.0210 C   0  0  1  0  0  3  0  0  0  0  0  0
  181.0530  178.9980  138.8810 O   0  0  0  0  0  0  0  0  0  0  0  0
  179.7450  178.7000  139.3100 C   0  0  0  0  0  2  0  0  0  0  0  0
  181.0900  178.4860  141.2150 C   0  0  0  0  0  2  0  0  0  0  0  0
  179.6830  178.7640  140.8140 C   0  0  0  0  0  2  0  0  0  0  0  0
  183.4570  178.1600  138.3270 N   0  0  0  0  0  2  0  0  0  0  0  0
  183.7490  176.8130  137.8270 C   0  0  0  0  0  2  0  0  0  0  0  0
  185.6320  175.4300  136.8870 C   0  0  0  0  0  2  0  0  0  0  0  0
  187.1210  175.6810  136.8220 C   0  0  0  0  0  2  0  0  0  0  0  0
  185.0000  176.8080  136.9580 C   0  0  0  0  0  3  0  0  0  0  0  0
  186.0590  177.7600  137.4920 C   0  0  0  0  0  2  0  0  0  0  0  0
  187.3490  176.9650  137.5930 C   0  0  0  0  0  2  0  0  0  0  0  0
  1  2  2  0  0  0  0
  2  3  1  0  0  0  0
  5 17  1  0  0  0  0
  5  9  1  0  0  0  0
  6 13  2  0  0  0  0
  8 15  1  0  0  0  0
  9 14  1  0  0  0  0
 10 16  1  0  0  0  0
 11 10  2  0  0  0  0
 11  8  1  0  0  0  0
 12 10  1  0  0  0  0
 13  4  1  0  0  0  0
 14  8  2  0  0  0  0
 14  6  1  0  0  0  0
 15  7  1  0  0  0  0
 15  4  2  0  0  0  0
 16  7  2  0  0  0  0
 17  3  1  6  0  0  0
 17 11  1  0  0  0  0
 18 19  1  1  0  0  0
 18  2  1  0  0  0  0
 20 18  1  6  0  0  0
 20 23  1  0  0  0  0
 21 22  1  0  0  0  0
 21 20  1  0  0  0  0
 22 24  1  0  0  0  0
 24 23  1  0  0  0  0
 25 18  1  0  0  0  0
 26 25  1  0  0  0  0
 27 29  1  0  0  0  0
 28 27  1  0  0  0  0
 28 31  1  0  0  0  0
 29 30  1  0  0  0  0
 29 26  1  0  0  0  0
 30 31  1  0  0  0  0
M  END
>  <MODEL>
2

>  <REMARK>
 VINA RESULT:      -7.9      3.716      7.167
  Name = 
  6 active torsions:
  status: ('A' for Active; 'I' for Inactive)
    1  A    between atoms: C_1  and  C_10
    2  A    between atoms: C_1  and  N_20
    3  A    between atoms: C_1  and  C_27
    4  A    between atoms: C_13  and  N_20
    5  A    between atoms: C_13  and  C_22
    6  A    between atoms: C_26  and  N_28
                            x       y       z     vdW  Elec       q    Type
                         _______ _______ _______ _____ _____    ______ ____

>  <TORSDO>
F 6

$$$$
=
 OpenBabel10222420283D

 31 35  0  0  1  0  0  0  0  0999 V2000
  188.4970  179.3980  142.0000 O   0  0  0  0  0  0  0  0  0  0  0  0
  188.8390  178.1880  142.1140 C   0  0  0  0  0  0  0  0  0  0  0  0
  189.2760  177.4600  140.9600 N   0  0  0  0  0  2  0  0  0  0  0  0
  190.6200  176.0330  135.2970 N   0  0  0  0  0  0  0  0  0  0  0  0
  187.8380  177.8740  139.0590 C   0  0  0  0  0  2  0  0  0  0  0  0
  188.4670  177.0500  135.4930 C   0  0  0  0  0  3  0  0  0  0  0  0
  192.1560  176.0680  137.0770 N   0  0  0  0  0  0  0  0  0  0  0  0
  189.9840  177.0350  137.3830 C   0  0  0  0  0  0  0  0  0  0  0  0
  187.7730  178.2260  137.5810 C   0  0  0  0  0  2  0  0  0  0  0  0
  191.6130  177.0750  139.1800 C   0  0  0  0  0  0  0  0  0  0  0  0
  190.2990  177.3430  138.7280 C   0  0  0  0  0  0  0  0  0  0  0  0
  192.1040  177.5010  140.5230 C   0  0  0  0  0  1  0  0  0  0  0  0
  189.4190  176.3550  134.7460 C   0  0  0  0  0  3  0  0  0  0  0  0
  188.7460  177.3890  136.8180 C   0  0  0  0  0  0  0  0  0  0  0  0
  190.9290  176.3640  136.5800 C   0  0  0  0  0  0  0  0  0  0  0  0
  192.5150  176.4200  138.3390 C   0  0  0  0  0  3  0  0  0  0  0  0
  189.2600  178.0250  139.6150 C   0  0  2  0  0  3  0  0  0  0  0  0
  188.7120  177.4780  143.4460 C   0  0  1  0  0  0  0  0  0  0  0  0
  188.4620  175.9800  143.2240 C   0  0  0  0  0  1  0  0  0  0  0  0
  190.0390  177.6410  144.2150 C   0  0  1  0  0  3  0  0  0  0  0  0
  189.8130  177.8400  145.5950 O   0  0  0  0  0  0  0  0  0  0  0  0
  190.6710  176.9670  146.2910 C   0  0  0  0  0  2  0  0  0  0  0  0
  190.9770  176.4640  144.0250 C   0  0  0  0  0  2  0  0  0  0  0  0
  191.6800  176.3840  145.3360 C   0  0  0  0  0  2  0  0  0  0  0  0
  187.6250  178.0610  144.2500 N   0  0  0  0  0  2  0  0  0  0  0  0
  186.3170  177.5300  143.8550 C   0  0  0  0  0  2  0  0  0  0  0  0
  184.1690  178.6270  144.5800 C   0  0  0  0  0  2  0  0  0  0  0  0
  182.9640  179.0840  143.7910 C   0  0  0  0  0  2  0  0  0  0  0  0
  185.3220  178.6550  143.5940 C   0  0  0  0  0  3  0  0  0  0  0  0
  184.7220  178.5610  142.2000 C   0  0  0  0  0  2  0  0  0  0  0  0
  183.2140  178.6270  142.3690 C   0  0  0  0  0  2  0  0  0  0  0  0
  1  2  2  0  0  0  0
  2 18  1  0  0  0  0
  3  2  1  0  0  0  0
  4 15  2  0  0  0  0
  5 17  1  0  0  0  0
  6 14  1  0  0  0  0
  7 16  2  0  0  0  0
  8 11  1  0  0  0  0
  9  5  1  0  0  0  0
 10 12  1  0  0  0  0
 11 10  2  0  0  0  0
 11 17  1  0  0  0  0
 13  4  1  0  0  0  0
 13  6  2  0  0  0  0
 14  8  2  0  0  0  0
 14  9  1  0  0  0  0
 15  7  1  0  0  0  0
 15  8  1  0  0  0  0
 16 10  1  0  0  0  0
 17  3  1  1  0  0  0
 18 19  1  6  0  0  0
 18 25  1  0  0  0  0
 20 18  1  6  0  0  0
 20 21  1  0  0  0  0
 21 22  1  0  0  0  0
 23 20  1  0  0  0  0
 23 24  1  0  0  0  0
 24 22  1  0  0  0  0
 26 25  1  0  0  0  0
 28 27  1  0  0  0  0
 29 26  1  0  0  0  0
 29 27  1  0  0  0  0
 30 31  1  0  0  0  0
 30 29  1  0  0  0  0
 31 28  1  0  0  0  0
M  END
>  <MODEL>
3

>  <REMARK>
 VINA RESULT:      -7.7      2.305      7.237
  Name = 
  6 active torsions:
  status: ('A' for Active; 'I' for Inactive)
    1  A    between atoms: C_1  and  C_10
    2  A    between atoms: C_1  and  N_20
    3  A    between atoms: C_1  and  C_27
    4  A    between atoms: C_13  and  N_20
    5  A    between atoms: C_13  and  C_22
    6  A    between atoms: C_26  and  N_28
                            x       y       z     vdW  Elec       q    Type
                         _______ _______ _______ _____ _____    ______ ____

>  <TORSDO>
F 6

$$$$
=
 OpenBabel10222420283D

 31 35  0  0  1  0  0  0  0  0999 V2000
  189.0590  179.3500  138.8440 O   0  0  0  0  0  0  0  0  0  0  0  0
  188.4850  178.2270  138.9040 C   0  0  0  0  0  0  0  0  0  0  0  0
  188.1250  177.6790  140.1780 N   0  0  0  0  0  2  0  0  0  0  0  0
  186.7830  177.4920  146.0150 N   0  0  0  0  0  0  0  0  0  0  0  0
  189.7560  177.6550  141.9640 C   0  0  0  0  0  2  0  0  0  0  0  0
  189.1400  177.5150  145.6240 C   0  0  0  0  0  3  0  0  0  0  0  0
  185.2520  177.9750  144.2970 N   0  0  0  0  0  0  0  0  0  0  0  0
  187.5970  177.9350  143.8010 C   0  0  0  0  0  0  0  0  0  0  0  0
  190.0760  178.0930  143.3840 C   0  0  0  0  0  2  0  0  0  0  0  0
  185.9820  178.4600  142.0690 C   0  0  0  0  0  0  0  0  0  0  0  0
  187.3250  178.2100  142.4400 C   0  0  0  0  0  0  0  0  0  0  0  0
  185.5980  178.9150  140.7020 C   0  0  0  0  0  1  0  0  0  0  0  0
  188.0520  177.3470  146.4820 C   0  0  0  0  0  3  0  0  0  0  0  0
  188.9140  177.8060  144.2770 C   0  0  0  0  0  0  0  0  0  0  0  0
  186.5300  177.7910  144.7130 C   0  0  0  0  0  0  0  0  0  0  0  0
  184.9640  178.3170  143.0150 C   0  0  0  0  0  3  0  0  0  0  0  0
  188.4750  178.3170  141.4420 C   0  0  2  0  0  3  0  0  0  0  0  0
  188.2490  177.4190  137.6440 C   0  0  1  0  0  0  0  0  0  0  0  0
  187.7100  178.3240  136.5290 C   0  0  0  0  0  1  0  0  0  0  0  0
  189.5970  176.8290  137.1840 C   0  0  1  0  0  3  0  0  0  0  0  0
  190.0370  175.8090  138.0570 O   0  0  0  0  0  0  0  0  0  0  0  0
  190.4210  174.7120  137.2610 C   0  0  0  0  0  2  0  0  0  0  0  0
  189.5510  176.2900  135.7670 C   0  0  0  0  0  2  0  0  0  0  0  0
  190.4920  175.1380  135.8180 C   0  0  0  0  0  2  0  0  0  0  0  0
  187.3100  176.3130  137.9000 N   0  0  0  0  0  2  0  0  0  0  0  0
  186.1210  176.4060  137.0480 C   0  0  0  0  0  2  0  0  0  0  0  0
  184.4490  174.5510  137.3780 C   0  0  0  0  0  2  0  0  0  0  0  0
  184.6280  173.0570  137.5130 C   0  0  0  0  0  2  0  0  0  0  0  0
  185.6590  175.0260  136.5950 C   0  0  0  0  0  3  0  0  0  0  0  0
  186.7500  173.9810  136.7780 C   0  0  0  0  0  2  0  0  0  0  0  0
  186.1250  172.8300  137.5450 C   0  0  0  0  0  2  0  0  0  0  0  0
  1  2  2  0  0  0  0
  2  3  1  0  0  0  0
  4 13  1  0  0  0  0
  5  9  1  0  0  0  0
  6 13  2  0  0  0  0
  7 15  1  0  0  0  0
  8 14  2  0  0  0  0
  8 15  1  0  0  0  0
  9 14  1  0  0  0  0
 10 11  2  0  0  0  0
 10 16  1  0  0  0  0
 11  8  1  0  0  0  0
 12 10  1  0  0  0  0
 14  6  1  0  0  0  0
 15  4  2  0  0  0  0
 16  7  2  0  0  0  0
 17  3  1  6  0  0  0
 17  5  1  0  0  0  0
 17 11  1  0  0  0  0
 18 19  1  6  0  0  0
 18 25  1  0  0  0  0
 18  2  1  0  0  0  0
 20 18  1  1  0  0  0
 20 21  1  0  0  0  0
 22 21  1  0  0  0  0
 23 24  1  0  0  0  0
 23 20  1  0  0  0  0
 24 22  1  0  0  0  0
 26 25  1  0  0  0  0
 27 28  1  0  0  0  0
 28 31  1  0  0  0  0
 29 30  1  0  0  0  0
 29 26  1  0  0  0  0
 29 27  1  0  0  0  0
 30 31  1  0  0  0  0
M  END
>  <MODEL>
4

>  <REMARK>
 VINA RESULT:      -7.7      3.332      6.193
  Name = 
  6 active torsions:
  status: ('A' for Active; 'I' for Inactive)
    1  A    between atoms: C_1  and  C_10
    2  A    between atoms: C_1  and  N_20
    3  A    between atoms: C_1  and  C_27
    4  A    between atoms: C_13  and  N_20
    5  A    between atoms: C_13  and  C_22
    6  A    between atoms: C_26  and  N_28
                            x       y       z     vdW  Elec       q    Type
                         _______ _______ _______ _____ _____    ______ ____

>  <TORSDO>
F 6

$$$$
=
 OpenBabel10222420283D

 31 35  0  0  1  0  0  0  0  0999 V2000
  189.0650  179.3180  139.2450 O   0  0  0  0  0  0  0  0  0  0  0  0
  188.7530  178.0980  139.3320 C   0  0  0  0  0  0  0  0  0  0  0  0
  188.6280  177.4850  140.6210 N   0  0  0  0  0  2  0  0  0  0  0  0
  187.1820  177.5060  146.4370 N   0  0  0  0  0  0  0  0  0  0  0  0
  190.2260  177.5790  142.4350 C   0  0  0  0  0  2  0  0  0  0  0  0
  189.5450  177.5760  146.0860 C   0  0  0  0  0  3  0  0  0  0  0  0
  185.6720  177.8760  144.6730 N   0  0  0  0  0  0  0  0  0  0  0  0
  188.0270  177.8780  144.2210 C   0  0  0  0  0  0  0  0  0  0  0  0
  190.5080  178.0840  143.8410 C   0  0  0  0  0  2  0  0  0  0  0  0
  186.4310  178.2870  142.4400 C   0  0  0  0  0  0  0  0  0  0  0  0
  187.7720  178.0890  142.8450 C   0  0  0  0  0  0  0  0  0  0  0  0
  186.0610  178.6740  141.0480 C   0  0  0  0  0  1  0  0  0  0  0  0
  188.4460  177.4140  146.9310 C   0  0  0  0  0  3  0  0  0  0  0  0
  189.3370  177.8040  144.7250 C   0  0  0  0  0  0  0  0  0  0  0  0
  186.9470  177.7440  145.1190 C   0  0  0  0  0  0  0  0  0  0  0  0
  185.4000  178.1560  143.3720 C   0  0  0  0  0  3  0  0  0  0  0  0
  188.9380  178.1850  141.8630 C   0  0  2  0  0  3  0  0  0  0  0  0
  188.5910  177.2570  138.0820 C   0  0  1  0  0  0  0  0  0  0  0  0
  189.0570  178.0460  136.8510 C   0  0  0  0  0  1  0  0  0  0  0  0
  189.4780  176.0030  138.2210 C   0  0  1  0  0  3  0  0  0  0  0  0
  189.1770  175.0480  137.2250 O   0  0  0  0  0  0  0  0  0  0  0  0
  190.3980  174.6280  136.6620 C   0  0  0  0  0  2  0  0  0  0  0  0
  190.9600  176.3230  138.1760 C   0  0  0  0  0  2  0  0  0  0  0  0
  191.5400  175.1230  137.5110 C   0  0  0  0  0  2  0  0  0  0  0  0
  187.1910  176.8310  137.9140 N   0  0  0  0  0  2  0  0  0  0  0  0
  186.3630  177.9060  137.3600 C   0  0  0  0  0  2  0  0  0  0  0  0
  183.9770  177.7050  138.1430 C   0  0  0  0  0  2  0  0  0  0  0  0
  183.0240  176.5330  138.1550 C   0  0  0  0  0  2  0  0  0  0  0  0
  184.9620  177.4050  137.0280 C   0  0  0  0  0  3  0  0  0  0  0  0
  184.9420  175.9010  136.8050 C   0  0  0  0  0  2  0  0  0  0  0  0
  183.8390  175.3440  137.6880 C   0  0  0  0  0  2  0  0  0  0  0  0
  1  2  2  0  0  0  0
  2  3  1  0  0  0  0
  4 13  1  0  0  0  0
  5  9  1  0  0  0  0
  6 13  2  0  0  0  0
  7 15  1  0  0  0  0
  8 14  2  0  0  0  0
  8 15  1  0  0  0  0
  9 14  1  0  0  0  0
 10 11  2  0  0  0  0
 10 16  1  0  0  0  0
 11  8  1  0  0  0  0
 12 10  1  0  0  0  0
 14  6  1  0  0  0  0
 15  4  2  0  0  0  0
 16  7  2  0  0  0  0
 17  3  1  6  0  0  0
 17  5  1  0  0  0  0
 17 11  1  0  0  0  0
 18 19  1  6  0  0  0
 18  2  1  0  0  0  0
 20 18  1  6  0  0  0
 21 20  1  0  0  0  0
 22 21  1  0  0  0  0
 22 24  1  0  0  0  0
 23 20  1  0  0  0  0
 24 23  1  0  0  0  0
 25 18  1  0  0  0  0
 26 25  1  0  0  0  0
 27 28  1  0  0  0  0
 29 26  1  0  0  0  0
 29 27  1  0  0  0  0
 30 29  1  0  0  0  0
 30 31  1  0  0  0  0
 31 28  1  0  0  0  0
M  END
>  <MODEL>
5

>  <REMARK>
 VINA RESULT:      -7.5      3.049      6.036
  Name = 
  6 active torsions:
  status: ('A' for Active; 'I' for Inactive)
    1  A    between atoms: C_1  and  C_10
    2  A    between atoms: C_1  and  N_20
    3  A    between atoms: C_1  and  C_27
    4  A    between atoms: C_13  and  N_20
    5  A    between atoms: C_13  and  C_22
    6  A    between atoms: C_26  and  N_28
                            x       y       z     vdW  Elec       q    Type
                         _______ _______ _______ _____ _____    ______ ____

>  <TORSDO>
F 6

$$$$
=
 OpenBabel10222420283D

 31 35  0  0  1  0  0  0  0  0999 V2000
  184.5620  180.1280  139.1450 O   0  0  0  0  0  0  0  0  0  0  0  0
  183.9610  179.1610  139.6890 C   0  0  0  0  0  0  0  0  0  0  0  0
  184.5100  178.5520  140.8650 N   0  0  0  0  0  2  0  0  0  0  0  0
  188.3650  176.9800  145.1760 N   0  0  0  0  0  0  0  0  0  0  0  0
  186.8970  178.3150  140.5550 C   0  0  0  0  0  2  0  0  0  0  0  0
  189.4440  177.3320  143.0730 C   0  0  0  0  0  3  0  0  0  0  0  0
  186.1430  177.6600  145.5390 N   0  0  0  0  0  0  0  0  0  0  0  0
  187.1250  177.9700  143.3740 C   0  0  0  0  0  0  0  0  0  0  0  0
  188.2710  178.4700  141.1870 C   0  0  0  0  0  2  0  0  0  0  0  0
  184.8470  178.6840  143.8050 C   0  0  0  0  0  0  0  0  0  0  0  0
  185.9080  178.5010  142.8860 C   0  0  0  0  0  0  0  0  0  0  0  0
  183.5790  179.3780  143.4410 C   0  0  0  0  0  1  0  0  0  0  0  0
  189.4700  176.8720  144.3900 C   0  0  0  0  0  3  0  0  0  0  0  0
  188.2670  177.8790  142.5590 C   0  0  0  0  0  0  0  0  0  0  0  0
  187.2080  177.5240  144.7100 C   0  0  0  0  0  0  0  0  0  0  0  0
  184.9870  178.2370  145.1210 C   0  0  0  0  0  3  0  0  0  0  0  0
  185.7990  178.9380  141.4270 C   0  0  2  0  0  3  0  0  0  0  0  0
  182.7080  178.5840  139.0610 C   0  0  1  0  0  0  0  0  0  0  0  0
  183.0350  177.9850  137.6870 C   0  0  0  0  0  1  0  0  0  0  0  0
  182.1810  177.4560  139.9710 C   0  0  1  0  0  3  0  0  0  0  0  0
  180.8770  177.7370  140.4360 O   0  0  0  0  0  0  0  0  0  0  0  0
  180.1010  176.5800  140.2340 C   0  0  0  0  0  2  0  0  0  0  0  0
  182.1900  176.1000  139.2920 C   0  0  0  0  0  2  0  0  0  0  0  0
  181.0020  175.4240  139.8840 C   0  0  0  0  0  2  0  0  0  0  0  0
  181.6650  179.6150  138.9320 N   0  0  0  0  0  2  0  0  0  0  0  0
  181.1790  179.7220  137.5530 C   0  0  0  0  0  2  0  0  0  0  0  0
  180.5010  181.5070  135.9090 C   0  0  0  0  0  2  0  0  0  0  0  0
  180.5160  183.0140  136.0090 C   0  0  0  0  0  2  0  0  0  0  0  0
  180.4020  181.0160  137.3420 C   0  0  0  0  0  3  0  0  0  0  0  0
  180.9180  182.1330  138.2360 C   0  0  0  0  0  2  0  0  0  0  0  0
  181.1800  183.3260  137.3330 C   0  0  0  0  0  2  0  0  0  0  0  0
  1  2  2  0  0  0  0
  2  3  1  0  0  0  0
  5  9  1  0  0  0  0
  5 17  1  0  0  0  0
  6 13  2  0  0  0  0
  8 15  1  0  0  0  0
  9 14  1  0  0  0  0
 10 16  1  0  0  0  0
 11  8  1  0  0  0  0
 11 10  2  0  0  0  0
 12 10  1  0  0  0  0
 13  4  1  0  0  0  0
 14  6  1  0  0  0  0
 14  8  2  0  0  0  0
 15  4  2  0  0  0  0
 15  7  1  0  0  0  0
 16  7  2  0  0  0  0
 17  3  1  6  0  0  0
 17 11  1  0  0  0  0
 18 19  1  6  0  0  0
 18  2  1  0  0  0  0
 20 18  1  6  0  0  0
 20 21  1  0  0  0  0
 22 21  1  0  0  0  0
 23 24  1  0  0  0  0
 23 20  1  0  0  0  0
 24 22  1  0  0  0  0
 25 18  1  0  0  0  0
 26 25  1  0  0  0  0
 27 28  1  0  0  0  0
 27 29  1  0  0  0  0
 28 31  1  0  0  0  0
 29 26  1  0  0  0  0
 29 30  1  0  0  0  0
 31 30  1  0  0  0  0
M  END
>  <MODEL>
6

>  <REMARK>
 VINA RESULT:      -7.4      4.738      8.421
  Name = 
  6 active torsions:
  status: ('A' for Active; 'I' for Inactive)
    1  A    between atoms: C_1  and  C_10
    2  A    between atoms: C_1  and  N_20
    3  A    between atoms: C_1  and  C_27
    4  A    between atoms: C_13  and  N_20
    5  A    between atoms: C_13  and  C_22
    6  A    between atoms: C_26  and  N_28
                            x       y       z     vdW  Elec       q    Type
                         _______ _______ _______ _____ _____    ______ ____

>  <TORSDO>
F 6

$$$$
=
 OpenBabel10222420283D

 31 35  0  0  1  0  0  0  0  0999 V2000
  189.0260  179.2860  138.6150 O   0  0  0  0  0  0  0  0  0  0  0  0
  188.5500  178.1210  138.7090 C   0  0  0  0  0  0  0  0  0  0  0  0
  188.4210  177.5070  139.9970 N   0  0  0  0  0  2  0  0  0  0  0  0
  187.6390  177.3230  145.9360 N   0  0  0  0  0  0  0  0  0  0  0  0
  190.2150  177.4360  141.6190 C   0  0  0  0  0  2  0  0  0  0  0  0
  189.9480  177.2940  145.3200 C   0  0  0  0  0  3  0  0  0  0  0  0
  185.9630  177.8510  144.3730 N   0  0  0  0  0  0  0  0  0  0  0  0
  188.2490  177.7580  143.6550 C   0  0  0  0  0  0  0  0  0  0  0  0
  190.6790  177.8600  143.0030 C   0  0  0  0  0  2  0  0  0  0  0  0
  186.4890  178.3290  142.0860 C   0  0  0  0  0  0  0  0  0  0  0  0
  187.8540  178.0460  142.3270 C   0  0  0  0  0  0  0  0  0  0  0  0
  185.9860  178.7990  140.7630 C   0  0  0  0  0  1  0  0  0  0  0  0
  188.9430  177.1470  146.2780 C   0  0  0  0  0  3  0  0  0  0  0  0
  189.6010  177.5960  144.0030 C   0  0  0  0  0  0  0  0  0  0  0  0
  187.2710  177.6350  144.6640 C   0  0  0  0  0  0  0  0  0  0  0  0
  185.5620  178.2050  143.1250 C   0  0  0  0  0  3  0  0  0  0  0  0
  188.9060  178.1310  141.2230 C   0  0  2  0  0  3  0  0  0  0  0  0
  188.1910  177.3360  137.4640 C   0  0  1  0  0  0  0  0  0  0  0  0
  187.9960  175.8540  137.8120 C   0  0  0  0  0  1  0  0  0  0  0  0
  186.8610  177.8840  136.9080 C   0  0  1  0  0  3  0  0  0  0  0  0
  186.8630  177.9060  135.4960 O   0  0  0  0  0  0  0  0  0  0  0  0
  185.6540  177.3270  135.0650 C   0  0  0  0  0  2  0  0  0  0  0  0
  185.6540  177.1050  137.3960 C   0  0  0  0  0  2  0  0  0  0  0  0
  184.7200  177.1800  136.2380 C   0  0  0  0  0  2  0  0  0  0  0  0
  189.2320  177.4840  136.4330 N   0  0  0  0  0  2  0  0  0  0  0  0
  189.8290  176.1930  136.0780 C   0  0  0  0  0  2  0  0  0  0  0  0
  192.0370  175.2050  135.3770 C   0  0  0  0  0  2  0  0  0  0  0  0
  193.2090  174.7030  136.1870 C   0  0  0  0  0  2  0  0  0  0  0  0
  191.3400  176.2140  136.2720 C   0  0  0  0  0  3  0  0  0  0  0  0
  191.7270  175.8850  137.7050 C   0  0  0  0  0  2  0  0  0  0  0  0
  192.7640  174.7780  137.6330 C   0  0  0  0  0  2  0  0  0  0  0  0
  1  2  2  0  0  0  0
  2  3  1  0  0  0  0
  4 13  1  0  0  0  0
  5  9  1  0  0  0  0
  6 13  2  0  0  0  0
  7 15  1  0  0  0  0
  8 14  2  0  0  0  0
  8 15  1  0  0  0  0
  9 14  1  0  0  0  0
 10 11  2  0  0  0  0
 10 16  1  0  0  0  0
 11  8  1  0  0  0  0
 12 10  1  0  0  0  0
 14  6  1  0  0  0  0
 15  4  2  0  0  0  0
 16  7  2  0  0  0  0
 17  3  1  6  0  0  0
 17  5  1  0  0  0  0
 17 11  1  0  0  0  0
 18 19  1  1  0  0  0
 18  2  1  0  0  0  0
 20 23  1  0  0  0  0
 20 18  1  6  0  0  0
 21 20  1  0  0  0  0
 22 21  1  0  0  0  0
 22 24  1  0  0  0  0
 24 23  1  0  0  0  0
 25 18  1  0  0  0  0
 26 29  1  0  0  0  0
 26 25  1  0  0  0  0
 27 28  1  0  0  0  0
 27 29  1  0  0  0  0
 28 31  1  0  0  0  0
 29 30  1  0  0  0  0
 31 30  1  0  0  0  0
M  END
>  <MODEL>
7

>  <REMARK>
 VINA RESULT:      -7.3      3.220      6.436
  Name = 
  6 active torsions:
  status: ('A' for Active; 'I' for Inactive)
    1  A    between atoms: C_1  and  C_10
    2  A    between atoms: C_1  and  N_20
    3  A    between atoms: C_1  and  C_27
    4  A    between atoms: C_13  and  N_20
    5  A    between atoms: C_13  and  C_22
    6  A    between atoms: C_26  and  N_28
                            x       y       z     vdW  Elec       q    Type
                         _______ _______ _______ _____ _____    ______ ____

>  <TORSDO>
F 6

$$$$
=
 OpenBabel10222420283D

 31 35  0  0  1  0  0  0  0  0999 V2000
  185.1400  179.5040  139.8530 O   0  0  0  0  0  0  0  0  0  0  0  0
  184.4310  178.6050  140.3840 C   0  0  0  0  0  0  0  0  0  0  0  0
  184.7470  178.1330  141.6990 N   0  0  0  0  0  2  0  0  0  0  0  0
  187.4900  177.3780  146.9740 N   0  0  0  0  0  0  0  0  0  0  0  0
  187.1180  177.7390  141.9720 C   0  0  0  0  0  2  0  0  0  0  0  0
  189.0030  177.2220  145.1300 C   0  0  0  0  0  3  0  0  0  0  0  0
  185.3080  178.2080  146.6980 N   0  0  0  0  0  0  0  0  0  0  0  0
  186.7340  178.0030  144.7820 C   0  0  0  0  0  0  0  0  0  0  0  0
  188.3420  177.9710  142.8440 C   0  0  0  0  0  2  0  0  0  0  0  0
  184.4860  178.8840  144.5530 C   0  0  0  0  0  0  0  0  0  0  0  0
  185.6920  178.4640  143.9440 C   0  0  0  0  0  0  0  0  0  0  0  0
  183.3830  179.5340  143.7880 C   0  0  0  0  0  1  0  0  0  0  0  0
  188.7190  177.0570  146.4870 C   0  0  0  0  0  3  0  0  0  0  0  0
  188.0070  177.6920  144.2730 C   0  0  0  0  0  0  0  0  0  0  0  0
  186.5040  177.8540  146.1660 C   0  0  0  0  0  0  0  0  0  0  0  0
  184.3150  178.7270  145.9310 C   0  0  0  0  0  3  0  0  0  0  0  0
  185.9230  178.5790  142.4390 C   0  0  2  0  0  3  0  0  0  0  0  0
  183.3000  177.9620  139.6070 C   0  0  1  0  0  0  0  0  0  0  0  0
  182.3210  177.2770  140.5700 C   0  0  0  0  0  1  0  0  0  0  0  0
  182.5400  179.0680  138.8470 C   0  0  1  0  0  3  0  0  0  0  0  0
  182.3840  178.7390  137.4820 O   0  0  0  0  0  0  0  0  0  0  0  0
  181.0350  178.9670  137.1470 C   0  0  0  0  0  2  0  0  0  0  0  0
  181.1810  179.3690  139.4490 C   0  0  0  0  0  2  0  0  0  0  0  0
  180.3620  179.7300  138.2580 C   0  0  0  0  0  2  0  0  0  0  0  0
  183.8200  176.9880  138.6330 N   0  0  0  0  0  2  0  0  0  0  0  0
  183.0560  175.7370  138.6590 C   0  0  0  0  0  2  0  0  0  0  0  0
  182.3180  173.8000  137.2280 C   0  0  0  0  0  2  0  0  0  0  0  0
  183.0770  172.6120  136.6850 C   0  0  0  0  0  2  0  0  0  0  0  0
  183.3660  174.8780  137.4390 C   0  0  0  0  0  3  0  0  0  0  0  0
  184.7090  174.1770  137.5720 C   0  0  0  0  0  2  0  0  0  0  0  0
  184.4620  172.7050  137.2920 C   0  0  0  0  0  2  0  0  0  0  0  0
  1  2  2  0  0  0  0
  2  3  1  0  0  0  0
  5 17  1  0  0  0  0
  5  9  1  0  0  0  0
  6 13  2  0  0  0  0
  8 15  1  0  0  0  0
  9 14  1  0  0  0  0
 10 16  1  0  0  0  0
 11 10  2  0  0  0  0
 11  8  1  0  0  0  0
 12 10  1  0  0  0  0
 13  4  1  0  0  0  0
 14  8  2  0  0  0  0
 14  6  1  0  0  0  0
 15  7  1  0  0  0  0
 15  4  2  0  0  0  0
 16  7  2  0  0  0  0
 17  3  1  6  0  0  0
 17 11  1  0  0  0  0
 18  2  1  0  0  0  0
 18 19  1  1  0  0  0
 20 23  1  0  0  0  0
 20 18  1  1  0  0  0
 21 20  1  0  0  0  0
 22 21  1  0  0  0  0
 22 24  1  0  0  0  0
 24 23  1  0  0  0  0
 25 26  1  0  0  0  0
 25 18  1  0  0  0  0
 27 29  1  0  0  0  0
 28 27  1  0  0  0  0
 28 31  1  0  0  0  0
 29 30  1  0  0  0  0
 29 26  1  0  0  0  0
 31 30  1  0  0  0  0
M  END
>  <MODEL>
8

>  <REMARK>
 VINA RESULT:      -7.3      4.435      7.739
  Name = 
  6 active torsions:
  status: ('A' for Active; 'I' for Inactive)
    1  A    between atoms: C_1  and  C_10
    2  A    between atoms: C_1  and  N_20
    3  A    between atoms: C_1  and  C_27
    4  A    between atoms: C_13  and  N_20
    5  A    between atoms: C_13  and  C_22
    6  A    between atoms: C_26  and  N_28
                            x       y       z     vdW  Elec       q    Type
                         _______ _______ _______ _____ _____    ______ ____

>  <TORSDO>
F 6

$$$$
=
 OpenBabel10222420283D

 31 35  0  0  1  0  0  0  0  0999 V2000
  188.9620  179.2030  138.2110 O   0  0  0  0  0  0  0  0  0  0  0  0
  188.3100  178.1350  138.3750 C   0  0  0  0  0  0  0  0  0  0  0  0
  188.1770  177.5760  139.6880 N   0  0  0  0  0  2  0  0  0  0  0  0
  188.1760  177.2060  145.6700 N   0  0  0  0  0  0  0  0  0  0  0  0
  190.1640  177.3820  141.0540 C   0  0  0  0  0  2  0  0  0  0  0  0
  190.3810  177.1150  144.7520 C   0  0  0  0  0  3  0  0  0  0  0  0
  186.3320  177.8500  144.3610 N   0  0  0  0  0  0  0  0  0  0  0  0
  188.4980  177.7010  143.3430 C   0  0  0  0  0  0  0  0  0  0  0  0
  190.8230  177.7380  142.3770 C   0  0  0  0  0  2  0  0  0  0  0  0
  186.5710  178.3910  142.0410 C   0  0  0  0  0  0  0  0  0  0  0  0
  187.9440  178.0510  142.0890 C   0  0  0  0  0  0  0  0  0  0  0  0
  185.9180  178.9270  140.8110 C   0  0  0  0  0  1  0  0  0  0  0  0
  189.5050  176.9700  145.8300 C   0  0  0  0  0  3  0  0  0  0  0  0
  189.8760  177.4770  143.5020 C   0  0  0  0  0  0  0  0  0  0  0  0
  187.6560  177.5760  144.4680 C   0  0  0  0  0  0  0  0  0  0  0  0
  185.7850  178.2640  143.1880 C   0  0  0  0  0  3  0  0  0  0  0  0
  188.8440  178.1370  140.8580 C   0  0  2  0  0  3  0  0  0  0  0  0
  187.7400  177.3940  137.1830 C   0  0  1  0  0  0  0  0  0  0  0  0
  187.4950  178.3680  136.0240 C   0  0  0  0  0  1  0  0  0  0  0  0
  188.7700  176.3410  136.7250 C   0  0  1  0  0  3  0  0  0  0  0  0
  188.3710  175.0370  137.0920 O   0  0  0  0  0  0  0  0  0  0  0  0
  188.5150  174.2180  135.9560 C   0  0  0  0  0  2  0  0  0  0  0  0
  189.0300  176.3840  135.2310 C   0  0  0  0  0  2  0  0  0  0  0  0
  189.2940  174.9570  134.8980 C   0  0  0  0  0  2  0  0  0  0  0  0
  186.4880  176.7060  137.5430 N   0  0  0  0  0  2  0  0  0  0  0  0
  185.5170  176.7430  136.4460 C   0  0  0  0  0  2  0  0  0  0  0  0
  183.0840  177.1380  135.9250 C   0  0  0  0  0  2  0  0  0  0  0  0
  182.0030  177.8620  136.6920 C   0  0  0  0  0  2  0  0  0  0  0  0
  184.0880  176.6980  136.9750 C   0  0  0  0  0  3  0  0  0  0  0  0
  183.9060  177.6080  138.1790 C   0  0  0  0  0  2  0  0  0  0  0  0
  182.6990  178.4820  137.8860 C   0  0  0  0  0  2  0  0  0  0  0  0
  1  2  2  0  0  0  0
  2  3  1  0  0  0  0
  4 13  1  0  0  0  0
  5  9  1  0  0  0  0
  6 13  2  0  0  0  0
  7 15  1  0  0  0  0
  8 14  2  0  0  0  0
  8 15  1  0  0  0  0
  9 14  1  0  0  0  0
 10 11  2  0  0  0  0
 10 16  1  0  0  0  0
 11  8  1  0  0  0  0
 12 10  1  0  0  0  0
 14  6  1  0  0  0  0
 15  4  2  0  0  0  0
 16  7  2  0  0  0  0
 17  3  1  6  0  0  0
 17  5  1  0  0  0  0
 17 11  1  0  0  0  0
 18 19  1  6  0  0  0
 18 25  1  0  0  0  0
 18  2  1  0  0  0  0
 20 21  1  0  0  0  0
 20 18  1  6  0  0  0
 22 21  1  0  0  0  0
 23 20  1  0  0  0  0
 24 23  1  0  0  0  0
 24 22  1  0  0  0  0
 26 29  1  0  0  0  0
 26 25  1  0  0  0  0
 27 28  1  0  0  0  0
 27 29  1  0  0  0  0
 28 31  1  0  0  0  0
 29 30  1  0  0  0  0
 31 30  1  0  0  0  0
M  END
>  <MODEL>
9

>  <REMARK>
 VINA RESULT:      -7.0      3.605      6.997
  Name = 
  6 active torsions:
  status: ('A' for Active; 'I' for Inactive)
    1  A    between atoms: C_1  and  C_10
    2  A    between atoms: C_1  and  N_20
    3  A    between atoms: C_1  and  C_27
    4  A    between atoms: C_13  and  N_20
    5  A    between atoms: C_13  and  C_22
    6  A    between atoms: C_26  and  N_28
                            x       y       z     vdW  Elec       q    Type
                         _______ _______ _______ _____ _____    ______ ____

>  <TORSDO>
F 6

$$$$
