=
 OpenBabel10222416583D

 40 43  0  0  1  0  0  0  0  0999 V2000
  188.0190  177.3940  145.0980 C   0  0  0  0  0  3  0  0  0  0  0  0
  185.8770  177.8720  144.0560 C   0  0  0  0  0  0  0  0  0  0  0  0
  185.4120  178.3760  145.2800 C   0  0  0  0  0  3  0  0  0  0  0  0
  187.1900  177.3790  143.9650 C   0  0  0  0  0  0  0  0  0  0  0  0
  187.5440  177.8900  146.3150 C   0  0  0  0  0  0  0  0  0  0  0  0
  186.2410  178.3870  146.4040 C   0  0  0  0  0  3  0  0  0  0  0  0
  185.8530  179.7690  141.8010 O   0  0  0  0  0  0  0  0  0  0  0  0
  185.0450  177.8530  142.8860 N   0  0  0  0  0  2  0  0  0  0  0  0
  185.0580  178.7890  141.7980 C   0  0  0  0  0  0  0  0  0  0  0  0
  184.1320  178.6040  140.6680 C   0  0  0  0  0  0  0  0  0  0  0  0
  183.9930  179.5920  139.6850 C   0  0  0  0  0  3  0  0  0  0  0  0
  183.1340  179.4110  138.6450 N   0  0  0  0  0  0  0  0  0  0  0  0
  182.3920  178.2780  138.5240 C   0  0  0  0  0  0  0  0  0  0  0  0
  183.3720  177.4330  140.5540 C   0  0  0  0  0  3  0  0  0  0  0  0
  182.4980  177.2660  139.4790 C   0  0  0  0  0  3  0  0  0  0  0  0
  181.5050  178.1250  137.4220 N   0  0  0  0  0  1  0  0  0  0  0  0
  187.6470  176.8820  142.7410 O   0  0  0  0  0  0  0  0  0  0  0  0
  188.9990  176.4830  142.5220 C   0  0  0  0  0  2  0  0  0  0  0  0
  189.7350  177.4860  141.7510 N   0  0  0  0  0  0  0  0  0  0  0  0
  191.1170  177.5710  142.2200 C   0  0  0  0  0  1  0  0  0  0  0  0
  189.6380  177.2090  140.3070 C   0  0  2  0  0  3  0  0  0  0  0  0
  190.9910  177.0320  139.6200 C   0  0  0  0  0  1  0  0  0  0  0  0
  188.8420  178.2970  139.6030 C   0  0  0  0  0  2  0  0  0  0  0  0
  188.8290  178.0510  138.1700 N   0  0  0  0  0  2  0  0  0  0  0  0
  188.1710  175.5610  137.1250 S   0  0  0  0  0  0  0  0  0  0  0  0
  184.0130  175.3490  135.6360 C   0  0  0  0  0  3  0  0  0  0  0  0
  186.5790  177.5300  137.2320 C   0  0  0  0  0  0  0  0  0  0  0  0
  187.8820  177.1740  137.5610 C   0  0  0  0  0  0  0  0  0  0  0  0
  184.5500  176.5150  136.2040 C   0  0  0  0  0  3  0  0  0  0  0  0
  185.8720  176.4780  136.6440 C   0  0  0  0  0  0  0  0  0  0  0  0
  184.7710  174.2170  135.5200 N   0  0  0  0  0  0  0  0  0  0  0  0
  186.0650  174.1720  135.9480 C   0  0  0  0  0  0  0  0  0  0  0  0
  186.0540  178.7600  137.4600 F   0  0  0  0  0  0  0  0  0  0  0  0
  186.6190  175.3170  136.5150 C   0  0  0  0  0  0  0  0  0  0  0  0
  186.8250  172.9760  135.8120 N   0  0  0  0  0  1  0  0  0  0  0  0
  188.4360  177.9240  147.5050 C   0  0  0  0  0  2  0  0  0  0  0  0
  189.2920  176.7500  147.5110 N   0  0  0  0  0  2  0  0  0  0  0  0
  190.6500  177.2240  147.7230 C   0  0  0  0  0  2  0  0  0  0  0  0
  191.6420  176.2510  147.1140 C   0  0  0  0  0  2  0  0  0  0  0  0
  191.6580  176.3910  145.6040 C   0  0  0  0  0  1  0  0  0  0  0  0
  1  5  1  0  0  0  0
  2  3  2  0  0  0  0
  3  6  1  0  0  0  0
  4  2  1  0  0  0  0
  4  1  2  0  0  0  0
  5  6  2  0  0  0  0
  5 36  1  0  0  0  0
  8  2  1  0  0  0  0
  9  7  2  0  0  0  0
  9  8  1  0  0  0  0
 10  9  1  0  0  0  0
 11 10  2  0  0  0  0
 12 11  1  0  0  0  0
 13 12  2  0  0  0  0
 13 15  1  0  0  0  0
 14 10  1  0  0  0  0
 15 14  2  0  0  0  0
 16 13  1  0  0  0  0
 17  4  1  0  0  0  0
 18 17  1  0  0  0  0
 19 20  1  0  0  0  0
 19 18  1  0  0  0  0
 21 22  1  6  0  0  0
 21 19  1  0  0  0  0
 23 21  1  0  0  0  0
 24 23  1  0  0  0  0
 25 28  1  0  0  0  0
 26 29  1  0  0  0  0
 27 33  1  0  0  0  0
 27 28  2  0  0  0  0
 28 24  1  0  0  0  0
 29 30  2  0  0  0  0
 30 27  1  0  0  0  0
 31 26  2  0  0  0  0
 31 32  1  0  0  0  0
 32 34  2  0  0  0  0
 34 30  1  0  0  0  0
 34 25  1  0  0  0  0
 35 32  1  0  0  0  0
 36 37  1  0  0  0  0
 37 38  1  0  0  0  0
 39 38  1  0  0  0  0
 40 39  1  0  0  0  0
M  END
>  <MODEL>
1

>  <REMARK>
 VINA RESULT:      -7.7      0.000      0.000
  Name = 
  13 active torsions:
  status: ('A' for Active; 'I' for Inactive)
    1  A    between atoms: C_2  and  N_7
    2  A    between atoms: C_8  and  C_29
    3  A    between atoms: C_9  and  N_17
    4  A    between atoms: C_11  and  O_24
    5  A    between atoms: N_12  and  C_20
    6  A    between atoms: N_12  and  C_26
    7  A    between atoms: C_15  and  C_38
    8  A    between atoms: N_17  and  C_25
    9  A    between atoms: C_20  and  C_25
   10  A    between atoms: O_24  and  C_26
   11  A    between atoms: N_32  and  C_34
   12  A    between atoms: N_32  and  C_38
   13  A    between atoms: C_34  and  C_35
                            x       y       z     vdW  Elec       q    Type
                         _______ _______ _______ _____ _____    ______ ____

>  <TORSDO>
F 13

$$$$
=
 OpenBabel10222416583D

 40 43  0  0  1  0  0  0  0  0999 V2000
  185.7900  178.8790  140.6990 C   0  0  0  0  0  3  0  0  0  0  0  0
  186.6770  178.0060  142.7840 C   0  0  0  0  0  0  0  0  0  0  0  0
  185.3680  177.8940  143.2760 C   0  0  0  0  0  3  0  0  0  0  0  0
  186.8890  178.5000  141.4860 C   0  0  0  0  0  0  0  0  0  0  0  0
  184.4900  178.7730  141.1990 C   0  0  0  0  0  0  0  0  0  0  0  0
  184.2790  178.2740  142.4880 C   0  0  0  0  0  3  0  0  0  0  0  0
  187.0860  178.3430  145.6820 O   0  0  0  0  0  0  0  0  0  0  0  0
  187.8120  177.6190  143.5740 N   0  0  0  0  0  2  0  0  0  0  0  0
  187.9840  177.7910  144.9880 C   0  0  0  0  0  0  0  0  0  0  0  0
  189.2200  177.3190  145.6350 C   0  0  0  0  0  0  0  0  0  0  0  0
  189.2950  177.1820  147.0260 C   0  0  0  0  0  3  0  0  0  0  0  0
  190.4420  176.7450  147.6130 N   0  0  0  0  0  0  0  0  0  0  0  0
  191.5420  176.4290  146.8790 C   0  0  0  0  0  0  0  0  0  0  0  0
  190.3470  176.9970  144.8670 C   0  0  0  0  0  3  0  0  0  0  0  0
  191.5130  176.5500  145.4880 C   0  0  0  0  0  3  0  0  0  0  0  0
  192.7230  175.9760  147.5280 N   0  0  0  0  0  1  0  0  0  0  0  0
  188.1960  178.6040  141.0020 O   0  0  0  0  0  0  0  0  0  0  0  0
  188.5610  178.2470  139.6700 C   0  0  0  0  0  2  0  0  0  0  0  0
  189.8970  177.6510  139.6230 N   0  0  0  0  0  0  0  0  0  0  0  0
  190.1670  176.9190  140.8590 C   0  0  0  0  0  1  0  0  0  0  0  0
  190.0530  176.8140  138.4200 C   0  0  2  0  0  3  0  0  0  0  0  0
  191.4400  176.1890  138.2770 C   0  0  0  0  0  1  0  0  0  0  0  0
  189.7160  177.6070  137.1670 C   0  0  0  0  0  2  0  0  0  0  0  0
  188.9250  176.7900  136.2620 N   0  0  0  0  0  2  0  0  0  0  0  0
  187.2070  174.6800  136.8370 S   0  0  0  0  0  0  0  0  0  0  0  0
  183.0820  175.9970  137.7300 C   0  0  0  0  0  3  0  0  0  0  0  0
  186.5170  177.1190  136.8190 C   0  0  0  0  0  0  0  0  0  0  0  0
  187.6280  176.3080  136.6140 C   0  0  0  0  0  0  0  0  0  0  0  0
  184.1090  176.9010  137.4150 C   0  0  0  0  0  3  0  0  0  0  0  0
  185.3760  176.3840  137.1500 C   0  0  0  0  0  0  0  0  0  0  0  0
  183.3270  174.6520  137.7730 N   0  0  0  0  0  0  0  0  0  0  0  0
  184.5630  174.1380  137.5150 C   0  0  0  0  0  0  0  0  0  0  0  0
  186.5420  178.4710  136.7110 F   0  0  0  0  0  0  0  0  0  0  0  0
  185.5970  175.0160  137.2000 C   0  0  0  0  0  0  0  0  0  0  0  0
  184.7810  172.7330  137.5680 N   0  0  0  0  0  1  0  0  0  0  0  0
  183.3300  179.1550  140.3500 C   0  0  0  0  0  2  0  0  0  0  0  0
  182.2900  178.1460  140.4580 N   0  0  0  0  0  2  0  0  0  0  0  0
  181.0290  178.8150  140.1820 C   0  0  0  0  0  2  0  0  0  0  0  0
  180.5240  179.5090  141.4330 C   0  0  0  0  0  2  0  0  0  0  0  0
  180.3780  178.5110  142.5660 C   0  0  0  0  0  1  0  0  0  0  0  0
  1  5  2  0  0  0  0
  1  4  1  0  0  0  0
  2  3  1  0  0  0  0
  2  8  1  0  0  0  0
  4  2  2  0  0  0  0
  5  6  1  0  0  0  0
  6  3  2  0  0  0  0
  8  9  1  0  0  0  0
  9 10  1  0  0  0  0
  9  7  2  0  0  0  0
 10 11  1  0  0  0  0
 11 12  2  0  0  0  0
 13 16  1  0  0  0  0
 13 12  1  0  0  0  0
 14 15  1  0  0  0  0
 14 10  2  0  0  0  0
 15 13  2  0  0  0  0
 17  4  1  0  0  0  0
 18 17  1  0  0  0  0
 19 18  1  0  0  0  0
 19 20  1  0  0  0  0
 21 22  1  6  0  0  0
 21 19  1  0  0  0  0
 23 21  1  0  0  0  0
 24 28  1  0  0  0  0
 24 23  1  0  0  0  0
 25 34  1  0  0  0  0
 26 31  1  0  0  0  0
 27 30  1  0  0  0  0
 28 27  2  0  0  0  0
 28 25  1  0  0  0  0
 29 26  2  0  0  0  0
 30 34  2  0  0  0  0
 30 29  1  0  0  0  0
 32 35  1  0  0  0  0
 32 31  2  0  0  0  0
 33 27  1  0  0  0  0
 34 32  1  0  0  0  0
 36 37  1  0  0  0  0
 36  5  1  0  0  0  0
 38 37  1  0  0  0  0
 38 39  1  0  0  0  0
 39 40  1  0  0  0  0
M  END
>  <MODEL>
2

>  <REMARK>
 VINA RESULT:      -7.7      1.890      6.549
  Name = 
  13 active torsions:
  status: ('A' for Active; 'I' for Inactive)
    1  A    between atoms: C_2  and  N_7
    2  A    between atoms: C_8  and  C_29
    3  A    between atoms: C_9  and  N_17
    4  A    between atoms: C_11  and  O_24
    5  A    between atoms: N_12  and  C_20
    6  A    between atoms: N_12  and  C_26
    7  A    between atoms: C_15  and  C_38
    8  A    between atoms: N_17  and  C_25
    9  A    between atoms: C_20  and  C_25
   10  A    between atoms: O_24  and  C_26
   11  A    between atoms: N_32  and  C_34
   12  A    between atoms: N_32  and  C_38
   13  A    between atoms: C_34  and  C_35
                            x       y       z     vdW  Elec       q    Type
                         _______ _______ _______ _____ _____    ______ ____

>  <TORSDO>
F 13

$$$$
=
 OpenBabel10222416583D

 40 43  0  0  1  0  0  0  0  0999 V2000
  191.2590  176.6150  138.2420 C   0  0  0  0  0  3  0  0  0  0  0  0
  191.1190  177.1650  140.6030 C   0  0  0  0  0  0  0  0  0  0  0  0
  192.5210  177.2130  140.6580 C   0  0  0  0  0  3  0  0  0  0  0  0
  190.4850  176.8650  139.3870 C   0  0  0  0  0  0  0  0  0  0  0  0
  192.6540  176.6560  138.3080 C   0  0  0  0  0  0  0  0  0  0  0  0
  193.2850  176.9610  139.5170 C   0  0  0  0  0  3  0  0  0  0  0  0
  190.4900  175.3450  142.8330 O   0  0  0  0  0  0  0  0  0  0  0  0
  190.3120  177.4240  141.7630 N   0  0  0  0  0  2  0  0  0  0  0  0
  190.0250  176.5180  142.8390 C   0  0  0  0  0  0  0  0  0  0  0  0
  189.1800  176.9640  143.9590 C   0  0  0  0  0  0  0  0  0  0  0  0
  189.7400  177.6080  145.0690 C   0  0  0  0  0  3  0  0  0  0  0  0
  188.9490  178.0150  146.0990 N   0  0  0  0  0  0  0  0  0  0  0  0
  187.6040  177.8150  146.0860 C   0  0  0  0  0  0  0  0  0  0  0  0
  187.7950  176.7520  143.9340 C   0  0  0  0  0  3  0  0  0  0  0  0
  187.0020  177.1780  145.0000 C   0  0  0  0  0  3  0  0  0  0  0  0
  186.8110  178.2560  147.1810 N   0  0  0  0  0  1  0  0  0  0  0  0
  189.0880  176.8240  139.3390 O   0  0  0  0  0  0  0  0  0  0  0  0
  188.3610  176.4970  138.1550 C   0  0  0  0  0  2  0  0  0  0  0  0
  187.6050  177.6470  137.6580 N   0  0  0  0  0  0  0  0  0  0  0  0
  188.4190  178.4220  136.7240 C   0  0  0  0  0  1  0  0  0  0  0  0
  186.3230  177.2140  137.0740 C   0  0  2  0  0  3  0  0  0  0  0  0
  186.2090  177.4730  135.5730 C   0  0  0  0  0  1  0  0  0  0  0  0
  185.1550  177.8660  137.7980 C   0  0  0  0  0  2  0  0  0  0  0  0
  185.6410  178.6250  138.9380 N   0  0  0  0  0  2  0  0  0  0  0  0
  183.2160  178.6080  140.2970 S   0  0  0  0  0  0  0  0  0  0  0  0
  183.6660  179.2060  144.6540 C   0  0  0  0  0  3  0  0  0  0  0  0
  185.4720  178.9280  141.4060 C   0  0  0  0  0  0  0  0  0  0  0  0
  184.9020  178.7210  140.1550 C   0  0  0  0  0  0  0  0  0  0  0  0
  184.7650  179.1800  143.7810 C   0  0  0  0  0  3  0  0  0  0  0  0
  184.5160  178.9840  142.4230 C   0  0  0  0  0  0  0  0  0  0  0  0
  182.3940  179.0450  144.1790 N   0  0  0  0  0  0  0  0  0  0  0  0
  182.1410  178.8530  142.8520 C   0  0  0  0  0  0  0  0  0  0  0  0
  186.8060  179.0600  141.6130 F   0  0  0  0  0  0  0  0  0  0  0  0
  183.2170  178.8230  141.9680 C   0  0  0  0  0  0  0  0  0  0  0  0
  180.8050  178.6890  142.3930 N   0  0  0  0  0  1  0  0  0  0  0  0
  193.4660  176.4120  137.0860 C   0  0  0  0  0  2  0  0  0  0  0  0
  194.6420  175.6310  137.4260 N   0  0  0  0  0  2  0  0  0  0  0  0
  195.3700  175.4100  136.1870 C   0  0  0  0  0  2  0  0  0  0  0  0
  196.6370  174.6220  136.4610 C   0  0  0  0  0  2  0  0  0  0  0  0
  197.6360  174.8250  135.3390 C   0  0  0  0  0  1  0  0  0  0  0  0
  1  5  2  0  0  0  0
  1  4  1  0  0  0  0
  2  3  1  0  0  0  0
  2  8  1  0  0  0  0
  4  2  2  0  0  0  0
  5  6  1  0  0  0  0
  6  3  2  0  0  0  0
  7  9  2  0  0  0  0
  8  9  1  0  0  0  0
  9 10  1  0  0  0  0
 10 11  1  0  0  0  0
 11 12  2  0  0  0  0
 13 12  1  0  0  0  0
 13 16  1  0  0  0  0
 14 10  2  0  0  0  0
 14 15  1  0  0  0  0
 15 13  2  0  0  0  0
 17  4  1  0  0  0  0
 18 17  1  0  0  0  0
 19 18  1  0  0  0  0
 20 19  1  0  0  0  0
 21 22  1  6  0  0  0
 21 19  1  0  0  0  0
 21 23  1  0  0  0  0
 23 24  1  0  0  0  0
 24 28  1  0  0  0  0
 25 34  1  0  0  0  0
 27 33  1  0  0  0  0
 27 30  1  0  0  0  0
 28 25  1  0  0  0  0
 28 27  2  0  0  0  0
 29 26  2  0  0  0  0
 30 29  1  0  0  0  0
 31 26  1  0  0  0  0
 32 31  2  0  0  0  0
 34 30  2  0  0  0  0
 34 32  1  0  0  0  0
 35 32  1  0  0  0  0
 36 37  1  0  0  0  0
 36  5  1  0  0  0  0
 38 39  1  0  0  0  0
 38 37  1  0  0  0  0
 40 39  1  0  0  0  0
M  END
>  <MODEL>
3

>  <REMARK>
 VINA RESULT:      -7.7      3.132      7.958
  Name = 
  13 active torsions:
  status: ('A' for Active; 'I' for Inactive)
    1  A    between atoms: C_2  and  N_7
    2  A    between atoms: C_8  and  C_29
    3  A    between atoms: C_9  and  N_17
    4  A    between atoms: C_11  and  O_24
    5  A    between atoms: N_12  and  C_20
    6  A    between atoms: N_12  and  C_26
    7  A    between atoms: C_15  and  C_38
    8  A    between atoms: N_17  and  C_25
    9  A    between atoms: C_20  and  C_25
   10  A    between atoms: O_24  and  C_26
   11  A    between atoms: N_32  and  C_34
   12  A    between atoms: N_32  and  C_38
   13  A    between atoms: C_34  and  C_35
                            x       y       z     vdW  Elec       q    Type
                         _______ _______ _______ _____ _____    ______ ____

>  <TORSDO>
F 13

$$$$
=
 OpenBabel10222416583D

 40 43  0  0  1  0  0  0  0  0999 V2000
  185.5640  178.8020  140.6600 C   0  0  0  0  0  3  0  0  0  0  0  0
  186.2760  178.3490  142.9380 C   0  0  0  0  0  0  0  0  0  0  0  0
  184.9300  178.3300  143.3360 C   0  0  0  0  0  3  0  0  0  0  0  0
  186.5940  178.5860  141.5900 C   0  0  0  0  0  0  0  0  0  0  0  0
  184.2280  178.7900  141.0670 C   0  0  0  0  0  0  0  0  0  0  0  0
  183.9110  178.5470  142.4070 C   0  0  0  0  0  3  0  0  0  0  0  0
  187.8690  175.9040  143.3410 O   0  0  0  0  0  0  0  0  0  0  0  0
  187.3400  178.1250  143.8750 N   0  0  0  0  0  2  0  0  0  0  0  0
  188.1050  176.9230  144.0470 C   0  0  0  0  0  0  0  0  0  0  0  0
  189.1740  176.8790  145.0590 C   0  0  0  0  0  0  0  0  0  0  0  0
  190.4980  176.6060  144.6930 C   0  0  0  0  0  3  0  0  0  0  0  0
  191.4780  176.5670  145.6360 N   0  0  0  0  0  0  0  0  0  0  0  0
  191.2110  176.7920  146.9500 C   0  0  0  0  0  0  0  0  0  0  0  0
  188.8860  177.1120  146.4100 C   0  0  0  0  0  3  0  0  0  0  0  0
  189.9060  177.0690  147.3610 C   0  0  0  0  0  3  0  0  0  0  0  0
  192.2620  176.7430  147.9060 N   0  0  0  0  0  1  0  0  0  0  0  0
  187.9360  178.6000  141.2000 O   0  0  0  0  0  0  0  0  0  0  0  0
  188.3560  178.3740  139.8550 C   0  0  0  0  0  2  0  0  0  0  0  0
  189.7450  177.9180  139.7980 N   0  0  0  0  0  0  0  0  0  0  0  0
  190.1410  177.3410  141.0820 C   0  0  0  0  0  1  0  0  0  0  0  0
  189.9440  176.9900  138.6710 C   0  0  2  0  0  3  0  0  0  0  0  0
  191.3100  176.3060  138.6660 C   0  0  0  0  0  1  0  0  0  0  0  0
  189.7210  177.7000  137.3450 C   0  0  0  0  0  2  0  0  0  0  0  0
  189.1430  176.7780  136.3810 N   0  0  0  0  0  2  0  0  0  0  0  0
  186.3770  176.7710  136.6560 S   0  0  0  0  0  0  0  0  0  0  0  0
  184.7400  172.7740  137.6020 C   0  0  0  0  0  3  0  0  0  0  0  0
  187.8430  174.7190  136.9110 C   0  0  0  0  0  0  0  0  0  0  0  0
  187.9260  176.0790  136.6360 C   0  0  0  0  0  0  0  0  0  0  0  0
  186.1140  173.0000  137.4210 C   0  0  0  0  0  3  0  0  0  0  0  0
  186.5280  174.2980  137.1240 C   0  0  0  0  0  0  0  0  0  0  0  0
  183.8440  173.8000  137.4910 N   0  0  0  0  0  0  0  0  0  0  0  0
  184.2400  175.0730  137.2010 C   0  0  0  0  0  0  0  0  0  0  0  0
  188.9200  173.8950  136.9650 F   0  0  0  0  0  0  0  0  0  0  0  0
  185.5980  175.3210  137.0170 C   0  0  0  0  0  0  0  0  0  0  0  0
  183.2790  176.1170  137.0930 N   0  0  0  0  0  1  0  0  0  0  0  0
  183.1430  178.9970  140.0720 C   0  0  0  0  0  2  0  0  0  0  0  0
  183.4980  180.0850  139.1780 N   0  0  0  0  0  2  0  0  0  0  0  0
  182.2850  180.4550  138.4670 C   0  0  0  0  0  2  0  0  0  0  0  0
  181.0990  180.4280  139.4130 C   0  0  0  0  0  2  0  0  0  0  0  0
  179.8740  181.0130  138.7370 C   0  0  0  0  0  1  0  0  0  0  0  0
  1  5  2  0  0  0  0
  1  4  1  0  0  0  0
  2  3  1  0  0  0  0
  2  8  1  0  0  0  0
  4  2  2  0  0  0  0
  5  6  1  0  0  0  0
  6  3  2  0  0  0  0
  7  9  2  0  0  0  0
  8  9  1  0  0  0  0
  9 10  1  0  0  0  0
 10 14  1  0  0  0  0
 11 10  2  0  0  0  0
 11 12  1  0  0  0  0
 12 13  2  0  0  0  0
 13 15  1  0  0  0  0
 13 16  1  0  0  0  0
 14 15  2  0  0  0  0
 17  4  1  0  0  0  0
 18 17  1  0  0  0  0
 19 18  1  0  0  0  0
 19 20  1  0  0  0  0
 21 22  1  6  0  0  0
 21 19  1  0  0  0  0
 23 21  1  0  0  0  0
 24 28  1  0  0  0  0
 24 23  1  0  0  0  0
 25 34  1  0  0  0  0
 27 33  1  0  0  0  0
 27 30  1  0  0  0  0
 28 25  1  0  0  0  0
 28 27  2  0  0  0  0
 29 26  2  0  0  0  0
 30 29  1  0  0  0  0
 31 26  1  0  0  0  0
 32 31  2  0  0  0  0
 34 30  2  0  0  0  0
 34 32  1  0  0  0  0
 35 32  1  0  0  0  0
 36  5  1  0  0  0  0
 37 36  1  0  0  0  0
 38 37  1  0  0  0  0
 38 39  1  0  0  0  0
 40 39  1  0  0  0  0
M  END
>  <MODEL>
4

>  <REMARK>
 VINA RESULT:      -7.5      2.006      6.844
  Name = 
  13 active torsions:
  status: ('A' for Active; 'I' for Inactive)
    1  A    between atoms: C_2  and  N_7
    2  A    between atoms: C_8  and  C_29
    3  A    between atoms: C_9  and  N_17
    4  A    between atoms: C_11  and  O_24
    5  A    between atoms: N_12  and  C_20
    6  A    between atoms: N_12  and  C_26
    7  A    between atoms: C_15  and  C_38
    8  A    between atoms: N_17  and  C_25
    9  A    between atoms: C_20  and  C_25
   10  A    between atoms: O_24  and  C_26
   11  A    between atoms: N_32  and  C_34
   12  A    between atoms: N_32  and  C_38
   13  A    between atoms: C_34  and  C_35
                            x       y       z     vdW  Elec       q    Type
                         _______ _______ _______ _____ _____    ______ ____

>  <TORSDO>
F 13

$$$$
=
 OpenBabel10222416583D

 40 43  0  0  1  0  0  0  0  0999 V2000
  188.4740  177.3490  145.6730 C   0  0  0  0  0  3  0  0  0  0  0  0
  186.1330  177.8170  145.2220 C   0  0  0  0  0  0  0  0  0  0  0  0
  185.9740  178.2200  146.5570 C   0  0  0  0  0  3  0  0  0  0  0  0
  187.3920  177.3800  144.7770 C   0  0  0  0  0  0  0  0  0  0  0  0
  188.3040  177.7440  147.0020 C   0  0  0  0  0  0  0  0  0  0  0  0
  187.0530  178.1850  147.4420 C   0  0  0  0  0  3  0  0  0  0  0  0
  184.8760  180.1620  143.9560 O   0  0  0  0  0  0  0  0  0  0  0  0
  185.0400  177.8470  144.2930 N   0  0  0  0  0  2  0  0  0  0  0  0
  184.4480  179.0060  143.6860 C   0  0  0  0  0  0  0  0  0  0  0  0
  183.3310  178.8430  142.7400 C   0  0  0  0  0  0  0  0  0  0  0  0
  183.5610  178.4240  141.4240 C   0  0  0  0  0  3  0  0  0  0  0  0
  182.5220  178.2770  140.5580 N   0  0  0  0  0  0  0  0  0  0  0  0
  181.2390  178.5260  140.9360 C   0  0  0  0  0  0  0  0  0  0  0  0
  182.0150  179.1020  143.1420 C   0  0  0  0  0  3  0  0  0  0  0  0
  180.9630  178.9440  142.2390 C   0  0  0  0  0  3  0  0  0  0  0  0
  180.1800  178.3610  140.0020 N   0  0  0  0  0  1  0  0  0  0  0  0
  187.5440  176.9840  143.4450 O   0  0  0  0  0  0  0  0  0  0  0  0
  188.0250  177.8580  142.4260 C   0  0  0  0  0  2  0  0  0  0  0  0
  189.2990  177.3900  141.8780 N   0  0  0  0  0  0  0  0  0  0  0  0
  189.6660  176.1080  142.4770 C   0  0  0  0  0  1  0  0  0  0  0  0
  189.2460  177.3380  140.4060 C   0  0  2  0  0  3  0  0  0  0  0  0
  190.6120  177.1650  139.7440 C   0  0  0  0  0  1  0  0  0  0  0  0
  188.5570  178.5730  139.8490 C   0  0  0  0  0  2  0  0  0  0  0  0
  188.3160  178.4050  138.4250 N   0  0  0  0  0  2  0  0  0  0  0  0
  185.5860  178.1510  137.9680 S   0  0  0  0  0  0  0  0  0  0  0  0
  184.5050  174.3390  136.0050 C   0  0  0  0  0  3  0  0  0  0  0  0
  187.3080  176.4020  137.3370 C   0  0  0  0  0  0  0  0  0  0  0  0
  187.2080  177.6570  137.9270 C   0  0  0  0  0  0  0  0  0  0  0  0
  185.8310  174.6700  136.3260 C   0  0  0  0  0  3  0  0  0  0  0  0
  186.0660  175.8980  136.9440 C   0  0  0  0  0  0  0  0  0  0  0  0
  183.4820  175.1990  136.2940 N   0  0  0  0  0  0  0  0  0  0  0  0
  183.7030  176.4020  136.8980 C   0  0  0  0  0  0  0  0  0  0  0  0
  188.4820  175.7430  137.1650 F   0  0  0  0  0  0  0  0  0  0  0  0
  185.0110  176.7520  137.2250 C   0  0  0  0  0  0  0  0  0  0  0  0
  182.6150  177.2730  137.1840 N   0  0  0  0  0  1  0  0  0  0  0  0
  189.4600  177.7300  147.9380 C   0  0  0  0  0  2  0  0  0  0  0  0
  190.6990  177.6380  147.1860 N   0  0  0  0  0  2  0  0  0  0  0  0
  191.5260  176.6520  147.8610 C   0  0  0  0  0  2  0  0  0  0  0  0
  192.1360  175.7020  146.8460 C   0  0  0  0  0  2  0  0  0  0  0  0
  191.8500  176.1830  145.4370 C   0  0  0  0  0  1  0  0  0  0  0  0
  1  5  1  0  0  0  0
  2  3  2  0  0  0  0
  3  6  1  0  0  0  0
  4  2  1  0  0  0  0
  4  1  2  0  0  0  0
  5  6  2  0  0  0  0
  5 36  1  0  0  0  0
  8  2  1  0  0  0  0
  9  7  2  0  0  0  0
  9  8  1  0  0  0  0
 10 14  1  0  0  0  0
 10  9  1  0  0  0  0
 11 10  2  0  0  0  0
 12 13  2  0  0  0  0
 12 11  1  0  0  0  0
 13 15  1  0  0  0  0
 15 14  2  0  0  0  0
 16 13  1  0  0  0  0
 17  4  1  0  0  0  0
 18 17  1  0  0  0  0
 19 18  1  0  0  0  0
 19 20  1  0  0  0  0
 21 22  1  6  0  0  0
 21 19  1  0  0  0  0
 23 21  1  0  0  0  0
 24 23  1  0  0  0  0
 26 31  2  0  0  0  0
 26 29  1  0  0  0  0
 27 28  2  0  0  0  0
 28 25  1  0  0  0  0
 28 24  1  0  0  0  0
 29 30  2  0  0  0  0
 30 34  1  0  0  0  0
 30 27  1  0  0  0  0
 31 32  1  0  0  0  0
 32 35  1  0  0  0  0
 32 34  2  0  0  0  0
 33 27  1  0  0  0  0
 34 25  1  0  0  0  0
 37 38  1  0  0  0  0
 37 36  1  0  0  0  0
 39 38  1  0  0  0  0
 40 39  1  0  0  0  0
M  END
>  <MODEL>
5

>  <REMARK>
 VINA RESULT:      -7.4      1.677      2.153
  Name = 
  13 active torsions:
  status: ('A' for Active; 'I' for Inactive)
    1  A    between atoms: C_2  and  N_7
    2  A    between atoms: C_8  and  C_29
    3  A    between atoms: C_9  and  N_17
    4  A    between atoms: C_11  and  O_24
    5  A    between atoms: N_12  and  C_20
    6  A    between atoms: N_12  and  C_26
    7  A    between atoms: C_15  and  C_38
    8  A    between atoms: N_17  and  C_25
    9  A    between atoms: C_20  and  C_25
   10  A    between atoms: O_24  and  C_26
   11  A    between atoms: N_32  and  C_34
   12  A    between atoms: N_32  and  C_38
   13  A    between atoms: C_34  and  C_35
                            x       y       z     vdW  Elec       q    Type
                         _______ _______ _______ _____ _____    ______ ____

>  <TORSDO>
F 13

$$$$
=
 OpenBabel10222416583D

 40 43  0  0  1  0  0  0  0  0999 V2000
  183.5270  178.5500  141.9810 C   0  0  0  0  0  3  0  0  0  0  0  0
  184.8630  178.3380  143.9990 C   0  0  0  0  0  0  0  0  0  0  0  0
  183.7450  178.7140  144.7590 C   0  0  0  0  0  3  0  0  0  0  0  0
  184.7530  178.2540  142.6010 C   0  0  0  0  0  0  0  0  0  0  0  0
  182.4220  178.9320  142.7450 C   0  0  0  0  0  0  0  0  0  0  0  0
  182.5300  179.0080  144.1360 C   0  0  0  0  0  3  0  0  0  0  0  0
  185.7100  178.8440  146.7750 O   0  0  0  0  0  0  0  0  0  0  0  0
  186.1210  178.0270  144.6160 N   0  0  0  0  0  2  0  0  0  0  0  0
  186.5070  178.2810  145.9750 C   0  0  0  0  0  0  0  0  0  0  0  0
  187.8460  177.8800  146.4390 C   0  0  0  0  0  0  0  0  0  0  0  0
  188.8280  177.4710  145.5280 C   0  0  0  0  0  3  0  0  0  0  0  0
  190.0620  177.1030  145.9680 N   0  0  0  0  0  0  0  0  0  0  0  0
  190.3820  177.1210  147.2900 C   0  0  0  0  0  0  0  0  0  0  0  0
  188.1630  177.9030  147.8030 C   0  0  0  0  0  3  0  0  0  0  0  0
  189.4350  177.5230  148.2330 C   0  0  0  0  0  3  0  0  0  0  0  0
  191.6830  176.7300  147.7100 N   0  0  0  0  0  1  0  0  0  0  0  0
  185.8690  177.8740  141.8510 O   0  0  0  0  0  0  0  0  0  0  0  0
  186.3550  178.6320  140.7430 C   0  0  0  0  0  2  0  0  0  0  0  0
  187.8100  178.7810  140.7950 N   0  0  0  0  0  0  0  0  0  0  0  0
  188.3750  177.8820  141.8000 C   0  0  0  0  0  1  0  0  0  0  0  0
  188.4010  178.5870  139.4590 C   0  0  2  0  0  3  0  0  0  0  0  0
  187.3940  178.1590  138.3930 C   0  0  0  0  0  1  0  0  0  0  0  0
  189.5440  177.5850  139.5180 C   0  0  0  0  0  2  0  0  0  0  0  0
  189.5100  176.7260  138.3460 N   0  0  0  0  0  2  0  0  0  0  0  0
  192.2550  176.2930  138.2910 S   0  0  0  0  0  0  0  0  0  0  0  0
  193.3860  172.6110  136.1200 C   0  0  0  0  0  3  0  0  0  0  0  0
  190.5460  174.7570  137.2210 C   0  0  0  0  0  0  0  0  0  0  0  0
  190.6320  175.9370  137.9520 C   0  0  0  0  0  0  0  0  0  0  0  0
  192.0500  173.0170  136.2670 C   0  0  0  0  0  3  0  0  0  0  0  0
  191.7990  174.1940  136.9710 C   0  0  0  0  0  0  0  0  0  0  0  0
  194.4030  173.3540  136.6520 N   0  0  0  0  0  0  0  0  0  0  0  0
  194.1670  174.5070  137.3420 C   0  0  0  0  0  0  0  0  0  0  0  0
  189.3750  174.2160  136.8010 F   0  0  0  0  0  0  0  0  0  0  0  0
  192.8490  174.9290  137.5010 C   0  0  0  0  0  0  0  0  0  0  0  0
  195.2500  175.2550  137.8820 N   0  0  0  0  0  1  0  0  0  0  0  0
  181.1220  179.2220  142.0830 C   0  0  0  0  0  2  0  0  0  0  0  0
  180.4140  180.2530  142.8210 N   0  0  0  0  0  2  0  0  0  0  0  0
  179.2260  180.5800  142.0490 C   0  0  0  0  0  2  0  0  0  0  0  0
  179.4870  180.3490  140.5720 C   0  0  0  0  0  2  0  0  0  0  0  0
  179.3440  181.6480  139.8030 C   0  0  0  0  0  1  0  0  0  0  0  0
  1  4  2  0  0  0  0
  1  5  1  0  0  0  0
  2  8  1  0  0  0  0
  2  3  2  0  0  0  0
  4  2  1  0  0  0  0
  5  6  2  0  0  0  0
  6  3  1  0  0  0  0
  8  9  1  0  0  0  0
  9 10  1  0  0  0  0
  9  7  2  0  0  0  0
 10 14  1  0  0  0  0
 11 12  1  0  0  0  0
 11 10  2  0  0  0  0
 12 13  2  0  0  0  0
 13 16  1  0  0  0  0
 13 15  1  0  0  0  0
 14 15  2  0  0  0  0
 17  4  1  0  0  0  0
 18 19  1  0  0  0  0
 18 17  1  0  0  0  0
 19 20  1  0  0  0  0
 21 22  1  6  0  0  0
 21 23  1  0  0  0  0
 21 19  1  0  0  0  0
 24 23  1  0  0  0  0
 26 29  2  0  0  0  0
 26 31  1  0  0  0  0
 27 28  2  0  0  0  0
 28 25  1  0  0  0  0
 28 24  1  0  0  0  0
 29 30  1  0  0  0  0
 30 27  1  0  0  0  0
 30 34  2  0  0  0  0
 31 32  2  0  0  0  0
 32 34  1  0  0  0  0
 32 35  1  0  0  0  0
 33 27  1  0  0  0  0
 34 25  1  0  0  0  0
 36  5  1  0  0  0  0
 36 37  1  0  0  0  0
 38 37  1  0  0  0  0
 39 38  1  0  0  0  0
 40 39  1  0  0  0  0
M  END
>  <MODEL>
6

>  <REMARK>
 VINA RESULT:      -7.2      3.447      7.654
  Name = 
  13 active torsions:
  status: ('A' for Active; 'I' for Inactive)
    1  A    between atoms: C_2  and  N_7
    2  A    between atoms: C_8  and  C_29
    3  A    between atoms: C_9  and  N_17
    4  A    between atoms: C_11  and  O_24
    5  A    between atoms: N_12  and  C_20
    6  A    between atoms: N_12  and  C_26
    7  A    between atoms: C_15  and  C_38
    8  A    between atoms: N_17  and  C_25
    9  A    between atoms: C_20  and  C_25
   10  A    between atoms: O_24  and  C_26
   11  A    between atoms: N_32  and  C_34
   12  A    between atoms: N_32  and  C_38
   13  A    between atoms: C_34  and  C_35
                            x       y       z     vdW  Elec       q    Type
                         _______ _______ _______ _____ _____    ______ ____

>  <TORSDO>
F 13

$$$$
=
 OpenBabel10222416583D

 40 43  0  0  1  0  0  0  0  0999 V2000
  187.7440  177.5220  145.5280 C   0  0  0  0  0  3  0  0  0  0  0  0
  185.6770  177.9090  144.3130 C   0  0  0  0  0  0  0  0  0  0  0  0
  185.0810  178.3540  145.5030 C   0  0  0  0  0  3  0  0  0  0  0  0
  187.0190  177.4920  144.3260 C   0  0  0  0  0  0  0  0  0  0  0  0
  187.1390  177.9570  146.7100 C   0  0  0  0  0  0  0  0  0  0  0  0
  185.8070  178.3790  146.6950 C   0  0  0  0  0  3  0  0  0  0  0  0
  185.5790  179.9600  142.2000 O   0  0  0  0  0  0  0  0  0  0  0  0
  184.9520  177.8770  143.0740 N   0  0  0  0  0  2  0  0  0  0  0  0
  184.9260  178.8900  142.0580 C   0  0  0  0  0  0  0  0  0  0  0  0
  184.1260  178.6780  140.8390 C   0  0  0  0  0  0  0  0  0  0  0  0
  184.6770  178.9040  139.5720 C   0  0  0  0  0  3  0  0  0  0  0  0
  183.9300  178.7060  138.4520 N   0  0  0  0  0  0  0  0  0  0  0  0
  182.6390  178.2840  138.5230 C   0  0  0  0  0  0  0  0  0  0  0  0
  182.7980  178.2440  140.9250 C   0  0  0  0  0  3  0  0  0  0  0  0
  182.0480  178.0450  139.7660 C   0  0  0  0  0  3  0  0  0  0  0  0
  181.8900  178.0870  137.3300 N   0  0  0  0  0  1  0  0  0  0  0  0
  187.6080  177.0550  143.1360 O   0  0  0  0  0  0  0  0  0  0  0  0
  188.1540  177.9480  142.1670 C   0  0  0  0  0  2  0  0  0  0  0  0
  189.6170  177.9380  142.1960 N   0  0  0  0  0  0  0  0  0  0  0  0
  190.0990  178.3070  143.5260 C   0  0  0  0  0  1  0  0  0  0  0  0
  190.1390  176.6370  141.7410 C   0  0  2  0  0  3  0  0  0  0  0  0
  190.6710  175.7550  142.8700 C   0  0  0  0  0  1  0  0  0  0  0  0
  191.2180  176.8290  140.6870 C   0  0  0  0  0  2  0  0  0  0  0  0
  190.9310  176.0010  139.5280 N   0  0  0  0  0  2  0  0  0  0  0  0
  189.2650  177.9140  138.3910 S   0  0  0  0  0  0  0  0  0  0  0  0
  186.9070  176.3580  134.9890 C   0  0  0  0  0  3  0  0  0  0  0  0
  189.4430  175.5170  137.5870 C   0  0  0  0  0  0  0  0  0  0  0  0
  189.9600  176.3750  138.5510 C   0  0  0  0  0  0  0  0  0  0  0  0
  187.8120  175.5580  135.7060 C   0  0  0  0  0  3  0  0  0  0  0  0
  188.5070  176.1450  136.7620 C   0  0  0  0  0  0  0  0  0  0  0  0
  186.7200  177.6710  135.3240 N   0  0  0  0  0  0  0  0  0  0  0  0
  187.3960  178.2530  136.3560 C   0  0  0  0  0  0  0  0  0  0  0  0
  189.8080  174.2160  137.4650 F   0  0  0  0  0  0  0  0  0  0  0  0
  188.2990  177.4780  137.0810 C   0  0  0  0  0  0  0  0  0  0  0  0
  187.1760  179.6210  136.6770 N   0  0  0  0  0  1  0  0  0  0  0  0
  187.9220  178.0070  147.9740 C   0  0  0  0  0  2  0  0  0  0  0  0
  189.3380  178.1230  147.6710 N   0  0  0  0  0  2  0  0  0  0  0  0
  189.8660  176.7700  147.6220 C   0  0  0  0  0  2  0  0  0  0  0  0
  191.1640  176.7470  146.8360 C   0  0  0  0  0  2  0  0  0  0  0  0
  192.0760  175.6540  147.3590 C   0  0  0  0  0  1  0  0  0  0  0  0
  1  5  1  0  0  0  0
  2  4  1  0  0  0  0
  2  3  2  0  0  0  0
  3  6  1  0  0  0  0
  4  1  2  0  0  0  0
  5 36  1  0  0  0  0
  6  5  2  0  0  0  0
  8  2  1  0  0  0  0
  9  7  2  0  0  0  0
  9  8  1  0  0  0  0
 10 14  1  0  0  0  0
 10  9  1  0  0  0  0
 11 10  2  0  0  0  0
 12 13  2  0  0  0  0
 12 11  1  0  0  0  0
 13 15  1  0  0  0  0
 15 14  2  0  0  0  0
 16 13  1  0  0  0  0
 17  4  1  0  0  0  0
 18 19  1  0  0  0  0
 18 17  1  0  0  0  0
 19 20  1  0  0  0  0
 21 19  1  0  0  0  0
 21 22  1  1  0  0  0
 23 21  1  0  0  0  0
 24 23  1  0  0  0  0
 25 28  1  0  0  0  0
 26 31  2  0  0  0  0
 26 29  1  0  0  0  0
 27 28  2  0  0  0  0
 28 24  1  0  0  0  0
 29 30  2  0  0  0  0
 30 34  1  0  0  0  0
 30 27  1  0  0  0  0
 31 32  1  0  0  0  0
 32 35  1  0  0  0  0
 32 34  2  0  0  0  0
 33 27  1  0  0  0  0
 34 25  1  0  0  0  0
 37 36  1  0  0  0  0
 38 37  1  0  0  0  0
 39 40  1  0  0  0  0
 39 38  1  0  0  0  0
M  END
>  <MODEL>
7

>  <REMARK>
 VINA RESULT:      -7.2      1.905      2.409
  Name = 
  13 active torsions:
  status: ('A' for Active; 'I' for Inactive)
    1  A    between atoms: C_2  and  N_7
    2  A    between atoms: C_8  and  C_29
    3  A    between atoms: C_9  and  N_17
    4  A    between atoms: C_11  and  O_24
    5  A    between atoms: N_12  and  C_20
    6  A    between atoms: N_12  and  C_26
    7  A    between atoms: C_15  and  C_38
    8  A    between atoms: N_17  and  C_25
    9  A    between atoms: C_20  and  C_25
   10  A    between atoms: O_24  and  C_26
   11  A    between atoms: N_32  and  C_34
   12  A    between atoms: N_32  and  C_38
   13  A    between atoms: C_34  and  C_35
                            x       y       z     vdW  Elec       q    Type
                         _______ _______ _______ _____ _____    ______ ____

>  <TORSDO>
F 13

$$$$
=
 OpenBabel10222416583D

 40 43  0  0  1  0  0  0  0  0999 V2000
  189.0590  177.9440  143.0090 C   0  0  0  0  0  3  0  0  0  0  0  0
  190.6810  176.7350  141.6640 C   0  0  0  0  0  0  0  0  0  0  0  0
  191.4110  176.4520  142.8290 C   0  0  0  0  0  3  0  0  0  0  0  0
  189.4960  177.4850  141.7560 C   0  0  0  0  0  0  0  0  0  0  0  0
  189.7970  177.6650  144.1620 C   0  0  0  0  0  0  0  0  0  0  0  0
  190.9710  176.9120  144.0710 C   0  0  0  0  0  3  0  0  0  0  0  0
  192.9720  177.6590  140.0590 O   0  0  0  0  0  0  0  0  0  0  0  0
  191.1100  176.2700  140.3760 N   0  0  0  0  0  2  0  0  0  0  0  0
  192.2360  176.7360  139.6170 C   0  0  0  0  0  0  0  0  0  0  0  0
  192.5330  176.1290  138.3080 C   0  0  0  0  0  0  0  0  0  0  0  0
  193.6890  175.3620  138.1180 C   0  0  0  0  0  3  0  0  0  0  0  0
  193.9540  174.8060  136.9040 N   0  0  0  0  0  0  0  0  0  0  0  0
  193.1150  174.9720  135.8470 C   0  0  0  0  0  0  0  0  0  0  0  0
  191.6610  176.3070  137.2260 C   0  0  0  0  0  3  0  0  0  0  0  0
  191.9500  175.7280  135.9900 C   0  0  0  0  0  3  0  0  0  0  0  0
  193.4250  174.3750  134.5940 N   0  0  0  0  0  1  0  0  0  0  0  0
  188.7720  177.7590  140.5920 O   0  0  0  0  0  0  0  0  0  0  0  0
  189.2380  178.6500  139.5790 C   0  0  0  0  0  2  0  0  0  0  0  0
  188.3230  178.6860  138.4380 N   0  0  0  0  0  0  0  0  0  0  0  0
  189.0630  178.9490  137.2050 C   0  0  0  0  0  1  0  0  0  0  0  0
  187.5240  177.4500  138.3700 C   0  0  2  0  0  3  0  0  0  0  0  0
  188.0770  176.4080  137.3990 C   0  0  0  0  0  1  0  0  0  0  0  0
  186.0780  177.7630  138.0200 C   0  0  0  0  0  2  0  0  0  0  0  0
  185.6530  178.9710  138.7060 N   0  0  0  0  0  2  0  0  0  0  0  0
  183.0110  178.8320  139.5610 S   0  0  0  0  0  0  0  0  0  0  0  0
  182.6040  178.9710  143.9620 C   0  0  0  0  0  3  0  0  0  0  0  0
  185.0060  179.0180  141.1130 C   0  0  0  0  0  0  0  0  0  0  0  0
  184.6920  178.9460  139.7600 C   0  0  0  0  0  0  0  0  0  0  0  0
  183.8510  179.0280  143.3190 C   0  0  0  0  0  3  0  0  0  0  0  0
  183.8710  178.9750  141.9260 C   0  0  0  0  0  0  0  0  0  0  0  0
  181.4500  178.8700  143.2350 N   0  0  0  0  0  0  0  0  0  0  0  0
  181.4600  178.8180  141.8720 C   0  0  0  0  0  0  0  0  0  0  0  0
  186.2740  179.1180  141.5860 F   0  0  0  0  0  0  0  0  0  0  0  0
  182.6870  178.8720  141.2140 C   0  0  0  0  0  0  0  0  0  0  0  0
  180.2400  178.7120  141.1480 N   0  0  0  0  0  1  0  0  0  0  0  0
  189.3150  178.1350  145.4880 C   0  0  0  0  0  2  0  0  0  0  0  0
  188.4240  177.1440  146.0670 N   0  0  0  0  0  2  0  0  0  0  0  0
  187.4950  177.8640  146.9210 C   0  0  0  0  0  2  0  0  0  0  0  0
  186.3100  178.3500  146.1080 C   0  0  0  0  0  2  0  0  0  0  0  0
  185.0120  177.9860  146.8030 C   0  0  0  0  0  1  0  0  0  0  0  0
  1  5  1  0  0  0  0
  2  4  1  0  0  0  0
  2  3  2  0  0  0  0
  3  6  1  0  0  0  0
  4  1  2  0  0  0  0
  5 36  1  0  0  0  0
  6  5  2  0  0  0  0
  8  2  1  0  0  0  0
  9  7  2  0  0  0  0
  9  8  1  0  0  0  0
 10  9  1  0  0  0  0
 11 10  1  0  0  0  0
 12 11  2  0  0  0  0
 13 15  2  0  0  0  0
 13 12  1  0  0  0  0
 14 10  2  0  0  0  0
 15 14  1  0  0  0  0
 16 13  1  0  0  0  0
 17  4  1  0  0  0  0
 18 17  1  0  0  0  0
 19 18  1  0  0  0  0
 20 19  1  0  0  0  0
 21 22  1  6  0  0  0
 21 19  1  0  0  0  0
 23 21  1  0  0  0  0
 23 24  1  0  0  0  0
 24 28  1  0  0  0  0
 25 28  1  0  0  0  0
 25 34  1  0  0  0  0
 27 33  1  0  0  0  0
 27 30  1  0  0  0  0
 28 27  2  0  0  0  0
 29 26  1  0  0  0  0
 30 29  2  0  0  0  0
 31 26  2  0  0  0  0
 32 31  1  0  0  0  0
 34 32  2  0  0  0  0
 34 30  1  0  0  0  0
 35 32  1  0  0  0  0
 36 37  1  0  0  0  0
 37 38  1  0  0  0  0
 39 40  1  0  0  0  0
 39 38  1  0  0  0  0
M  END
>  <MODEL>
8

>  <REMARK>
 VINA RESULT:      -7.2      2.961      6.945
  Name = 
  13 active torsions:
  status: ('A' for Active; 'I' for Inactive)
    1  A    between atoms: C_2  and  N_7
    2  A    between atoms: C_8  and  C_29
    3  A    between atoms: C_9  and  N_17
    4  A    between atoms: C_11  and  O_24
    5  A    between atoms: N_12  and  C_20
    6  A    between atoms: N_12  and  C_26
    7  A    between atoms: C_15  and  C_38
    8  A    between atoms: N_17  and  C_25
    9  A    between atoms: C_20  and  C_25
   10  A    between atoms: O_24  and  C_26
   11  A    between atoms: N_32  and  C_34
   12  A    between atoms: N_32  and  C_38
   13  A    between atoms: C_34  and  C_35
                            x       y       z     vdW  Elec       q    Type
                         _______ _______ _______ _____ _____    ______ ____

>  <TORSDO>
F 13

$$$$
=
 OpenBabel10222416583D

 40 43  0  0  1  0  0  0  0  0999 V2000
  189.2530  177.6200  143.6290 C   0  0  0  0  0  3  0  0  0  0  0  0
  186.8260  177.7270  143.6190 C   0  0  0  0  0  0  0  0  0  0  0  0
  186.8330  177.6170  145.0180 C   0  0  0  0  0  3  0  0  0  0  0  0
  188.0450  177.7300  142.9200 C   0  0  0  0  0  0  0  0  0  0  0  0
  189.2490  177.5010  145.0200 C   0  0  0  0  0  0  0  0  0  0  0  0
  188.0370  177.5060  145.7160 C   0  0  0  0  0  3  0  0  0  0  0  0
  184.6230  179.6400  144.0300 O   0  0  0  0  0  0  0  0  0  0  0  0
  185.6010  177.8460  142.8800 N   0  0  0  0  0  2  0  0  0  0  0  0
  184.5450  178.7920  143.0990 C   0  0  0  0  0  0  0  0  0  0  0  0
  183.3570  178.7720  142.2280 C   0  0  0  0  0  0  0  0  0  0  0  0
  183.4780  178.5200  140.8560 C   0  0  0  0  0  3  0  0  0  0  0  0
  182.3740  178.5040  140.0600 N   0  0  0  0  0  0  0  0  0  0  0  0
  181.1300  178.7270  140.5630 C   0  0  0  0  0  0  0  0  0  0  0  0
  182.0810  179.0030  142.7580 C   0  0  0  0  0  3  0  0  0  0  0  0
  180.9620  178.9810  141.9260 C   0  0  0  0  0  3  0  0  0  0  0  0
  180.0000  178.7010  139.7000 N   0  0  0  0  0  1  0  0  0  0  0  0
  188.0310  177.8450  141.5270 O   0  0  0  0  0  0  0  0  0  0  0  0
  189.1650  177.5510  140.7130 C   0  0  0  0  0  2  0  0  0  0  0  0
  188.8340  177.6280  139.2890 N   0  0  0  0  0  0  0  0  0  0  0  0
  188.9730  179.0030  138.8110 C   0  0  0  0  0  1  0  0  0  0  0  0
  189.6430  176.6700  138.5140 C   0  0  2  0  0  3  0  0  0  0  0  0
  191.0070  176.3700  139.1320 C   0  0  0  0  0  1  0  0  0  0  0  0
  189.8220  177.1530  137.0830 C   0  0  0  0  0  2  0  0  0  0  0  0
  189.0060  176.3530  136.1850 N   0  0  0  0  0  2  0  0  0  0  0  0
  187.1460  174.3930  136.8370 S   0  0  0  0  0  0  0  0  0  0  0  0
  183.0710  176.0010  137.4360 C   0  0  0  0  0  3  0  0  0  0  0  0
  186.6010  176.8570  136.6030 C   0  0  0  0  0  0  0  0  0  0  0  0
  187.6700  175.9730  136.5110 C   0  0  0  0  0  0  0  0  0  0  0  0
  184.1610  176.8200  137.1010 C   0  0  0  0  0  3  0  0  0  0  0  0
  185.4060  176.2150  136.9350 C   0  0  0  0  0  0  0  0  0  0  0  0
  183.2340  174.6520  137.5910 N   0  0  0  0  0  0  0  0  0  0  0  0
  184.4480  174.0520  137.4310 C   0  0  0  0  0  0  0  0  0  0  0  0
  186.7090  178.1930  136.3940 F   0  0  0  0  0  0  0  0  0  0  0  0
  185.5440  174.8450  137.0980 C   0  0  0  0  0  0  0  0  0  0  0  0
  184.5810  172.6450  137.6010 N   0  0  0  0  0  1  0  0  0  0  0  0
  190.5340  177.4080  145.7650 C   0  0  0  0  0  2  0  0  0  0  0  0
  191.4660  176.5700  145.0310 N   0  0  0  0  0  2  0  0  0  0  0  0
  192.0580  175.6580  145.9960 C   0  0  0  0  0  2  0  0  0  0  0  0
  191.6300  176.0390  147.4010 C   0  0  0  0  0  2  0  0  0  0  0  0
  192.7990  175.9170  148.3590 C   0  0  0  0  0  1  0  0  0  0  0  0
  1  5  1  0  0  0  0
  2  3  2  0  0  0  0
  3  6  1  0  0  0  0
  4  2  1  0  0  0  0
  4  1  2  0  0  0  0
  5  6  2  0  0  0  0
  5 36  1  0  0  0  0
  8  9  1  0  0  0  0
  8  2  1  0  0  0  0
  9  7  2  0  0  0  0
 10 14  1  0  0  0  0
 10  9  1  0  0  0  0
 11 10  2  0  0  0  0
 12 13  2  0  0  0  0
 12 11  1  0  0  0  0
 13 15  1  0  0  0  0
 15 14  2  0  0  0  0
 16 13  1  0  0  0  0
 17  4  1  0  0  0  0
 18 17  1  0  0  0  0
 19 18  1  0  0  0  0
 20 19  1  0  0  0  0
 21 22  1  1  0  0  0
 21 19  1  0  0  0  0
 23 21  1  0  0  0  0
 24 28  1  0  0  0  0
 24 23  1  0  0  0  0
 25 34  1  0  0  0  0
 26 31  1  0  0  0  0
 27 30  1  0  0  0  0
 28 27  2  0  0  0  0
 28 25  1  0  0  0  0
 29 26  2  0  0  0  0
 30 34  2  0  0  0  0
 30 29  1  0  0  0  0
 32 31  2  0  0  0  0
 32 35  1  0  0  0  0
 33 27  1  0  0  0  0
 34 32  1  0  0  0  0
 37 36  1  0  0  0  0
 37 38  1  0  0  0  0
 38 39  1  0  0  0  0
 39 40  1  0  0  0  0
M  END
>  <MODEL>
9

>  <REMARK>
 VINA RESULT:      -7.1      1.770      2.198
  Name = 
  13 active torsions:
  status: ('A' for Active; 'I' for Inactive)
    1  A    between atoms: C_2  and  N_7
    2  A    between atoms: C_8  and  C_29
    3  A    between atoms: C_9  and  N_17
    4  A    between atoms: C_11  and  O_24
    5  A    between atoms: N_12  and  C_20
    6  A    between atoms: N_12  and  C_26
    7  A    between atoms: C_15  and  C_38
    8  A    between atoms: N_17  and  C_25
    9  A    between atoms: C_20  and  C_25
   10  A    between atoms: O_24  and  C_26
   11  A    between atoms: N_32  and  C_34
   12  A    between atoms: N_32  and  C_38
   13  A    between atoms: C_34  and  C_35
                            x       y       z     vdW  Elec       q    Type
                         _______ _______ _______ _____ _____    ______ ____

>  <TORSDO>
F 13

$$$$
