=
 OpenBabel10222420003D

 36 39  0  0  1  0  0  0  0  0999 V2000
  184.1860  179.2120  142.8120 C   0  0  1  0  0  3  0  0  0  0  0  0
  182.8630  178.9060  140.2550 N   0  0  0  0  0  1  0  0  0  0  0  0
  182.7220  178.9070  142.7090 C   0  0  0  0  0  0  0  0  0  0  0  0
  180.5770  178.4820  143.7570 C   0  0  0  0  0  3  0  0  0  0  0  0
  182.1060  178.7650  141.4540 C   0  0  0  0  0  0  0  0  0  0  0  0
  180.0080  178.3460  142.4900 C   0  0  0  0  0  3  0  0  0  0  0  0
  181.9400  178.7630  143.8630 C   0  0  0  0  0  3  0  0  0  0  0  0
  180.7760  178.4900  141.3770 N   0  0  0  0  0  0  0  0  0  0  0  0
  184.5330  179.6930  144.2170 C   0  0  0  0  0  2  0  0  0  0  0  0
  185.2490  178.6060  144.9910 C   0  0  2  0  0  3  0  0  0  0  0  0
  184.5570  178.3870  146.3160 C   0  0  0  0  0  2  0  0  0  0  0  0
  185.8370  179.2040  146.2590 C   0  0  1  0  0  3  0  0  0  0  0  0
  188.9190  177.3440  145.5000 C   0  0  0  0  0  3  0  0  0  0  0  0
  187.4910  178.5680  147.9310 C   0  0  0  0  0  3  0  0  0  0  0  0
  189.6790  177.3300  147.8750 C   0  0  0  0  0  3  0  0  0  0  0  0
  187.0180  178.3920  146.6930 C   0  0  0  0  0  0  0  0  0  0  0  0
  189.8880  177.3400  146.4140 C   0  0  0  0  0  3  0  0  0  0  0  0
  188.6390  177.8590  148.5310 C   0  0  0  0  0  3  0  0  0  0  0  0
  187.4700  177.2440  145.8440 C   0  0  0  0  0  2  0  0  0  0  0  0
  184.9730  178.0360  142.4630 N   0  0  0  0  0  2  0  0  0  0  0  0
  186.4070  178.3840  140.1220 S   0  0  0  0  0  0  0  0  0  0  0  0
  186.2190  178.1280  141.7720 C   0  0  0  0  0  0  0  0  0  0  0  0
  188.0880  178.3580  140.1660 C   0  0  0  0  0  0  0  0  0  0  0  0
  187.4580  178.0060  142.3820 C   0  0  0  0  0  3  0  0  0  0  0  0
  188.5170  178.1380  141.4720 C   0  0  0  0  0  3  0  0  0  0  0  0
  188.9680  178.5470  139.0090 C   0  0  0  0  0  0  0  0  0  0  0  0
  188.6860  179.4150  138.1390 O   0  0  0  0  0  0  0  0  0  0  0  0
  190.1120  177.7620  138.8750 O   0  0  0  0  0  0  0  0  0  0  0  0
  192.3210  176.3200  137.8080 N   0  0  0  0  0  2  0  0  0  0  0  0
  190.0220  176.3970  138.7190 N   0  0  0  0  0  2  0  0  0  0  0  0
  190.9900  174.4080  138.0240 O   0  0  0  0  0  0  0  0  0  0  0  0
  191.1070  175.6520  138.1730 C   0  0  0  0  0  0  0  0  0  0  0  0
  194.4470  175.4890  138.2510 O   0  0  0  0  0  1  0  0  0  0  0  0
  193.1280  174.3970  136.7730 F   0  0  0  0  0  0  0  0  0  0  0  0
  193.4880  175.6440  137.2510 C   0  0  1  0  0  0  0  0  0  0  0  0
  194.0810  176.4690  136.1240 C   0  0  0  0  0  1  0  0  0  0  0  0
  1  9  1  1  0  0  0
  2  5  1  0  0  0  0
  3  1  1  0  0  0  0
  3  7  1  0  0  0  0
  4  7  2  0  0  0  0
  5  3  2  0  0  0  0
  6  4  1  0  0  0  0
  8  5  1  0  0  0  0
  8  6  2  0  0  0  0
 10  9  1  6  0  0  0
 10 12  1  0  0  0  0
 10 11  1  0  0  0  0
 12 11  1  0  0  0  0
 12 16  1  1  0  0  0
 13 19  1  0  0  0  0
 13 17  2  0  0  0  0
 14 18  1  0  0  0  0
 15 18  2  0  0  0  0
 16 14  2  0  0  0  0
 17 15  1  0  0  0  0
 19 16  1  0  0  0  0
 20  1  1  0  0  0  0
 21 23  1  0  0  0  0
 21 22  1  0  0  0  0
 22 24  2  0  0  0  0
 22 20  1  0  0  0  0
 23 25  2  0  0  0  0
 25 24  1  0  0  0  0
 26 23  1  0  0  0  0
 27 26  2  0  0  0  0
 28 26  1  0  0  0  0
 29 32  1  0  0  0  0
 30 28  1  0  0  0  0
 31 32  2  0  0  0  0
 32 30  1  0  0  0  0
 34 35  1  0  0  0  0
 35 36  1  6  0  0  0
 35 29  1  0  0  0  0
 35 33  1  0  0  0  0
M  END
>  <MODEL>
1

>  <REMARK>
 VINA RESULT:      -9.3      0.000      0.000
  Name = 
  10 active torsions:
  status: ('A' for Active; 'I' for Inactive)
    1  A    between atoms: C_2  and  O_13
    2  A    between atoms: C_2  and  C_19
    3  A    between atoms: C_4  and  C_31
    4  A    between atoms: C_7  and  C_8
    5  A    between atoms: C_7  and  C_31
    6  A    between atoms: N_11  and  C_33
    7  A    between atoms: O_13  and  N_16
    8  A    between atoms: C_15  and  C_32
    9  A    between atoms: C_17  and  N_22
   10  A    between atoms: N_22  and  C_31
                            x       y       z     vdW  Elec       q    Type
                         _______ _______ _______ _____ _____    ______ ____

>  <TORSDO>
F 10

$$$$
=
 OpenBabel10222420003D

 36 39  0  0  1  0  0  0  0  0999 V2000
  188.4330  177.0680  144.6350 C   0  0  1  0  0  3  0  0  0  0  0  0
  191.2180  176.3020  144.4210 N   0  0  0  0  0  1  0  0  0  0  0  0
  189.3770  177.1800  145.7940 C   0  0  0  0  0  0  0  0  0  0  0  0
  189.8170  177.7590  148.1070 C   0  0  0  0  0  3  0  0  0  0  0  0
  190.7230  176.7990  145.6610 C   0  0  0  0  0  0  0  0  0  0  0  0
  191.1460  177.3730  147.9290 C   0  0  0  0  0  3  0  0  0  0  0  0
  188.9320  177.6620  147.0330 C   0  0  0  0  0  3  0  0  0  0  0  0
  191.5670  176.9050  146.7230 N   0  0  0  0  0  0  0  0  0  0  0  0
  186.9880  177.0600  145.1210 C   0  0  0  0  0  2  0  0  0  0  0  0
  186.1690  178.0940  144.3760 C   0  0  2  0  0  3  0  0  0  0  0  0
  185.6720  179.1420  145.3440 C   0  0  0  0  0  2  0  0  0  0  0  0
  184.7340  178.0430  144.8750 C   0  0  1  0  0  3  0  0  0  0  0  0
  183.7570  178.2940  141.3370 C   0  0  0  0  0  3  0  0  0  0  0  0
  182.5370  178.7760  144.1170 C   0  0  0  0  0  3  0  0  0  0  0  0
  181.4550  179.0940  141.8690 C   0  0  0  0  0  3  0  0  0  0  0  0
  183.8140  178.5380  143.8010 C   0  0  0  0  0  0  0  0  0  0  0  0
  182.4580  178.3840  141.0520 C   0  0  0  0  0  3  0  0  0  0  0  0
  181.4920  179.2670  143.1970 C   0  0  0  0  0  3  0  0  0  0  0  0
  184.3900  178.9910  142.4950 C   0  0  0  0  0  2  0  0  0  0  0  0
  188.6530  178.1620  143.6970 N   0  0  0  0  0  2  0  0  0  0  0  0
  189.8850  176.9330  141.5440 S   0  0  0  0  0  0  0  0  0  0  0  0
  188.7740  177.9500  142.2890 C   0  0  0  0  0  0  0  0  0  0  0  0
  189.3550  177.2660  139.9840 C   0  0  0  0  0  0  0  0  0  0  0  0
  187.9820  178.5740  141.3380 C   0  0  0  0  0  3  0  0  0  0  0  0
  188.3100  178.1840  140.0310 C   0  0  0  0  0  3  0  0  0  0  0  0
  189.9020  176.6740  138.7590 C   0  0  0  0  0  0  0  0  0  0  0  0
  189.5790  177.1440  137.6340 O   0  0  0  0  0  0  0  0  0  0  0  0
  190.7750  175.5910  138.8440 O   0  0  0  0  0  0  0  0  0  0  0  0
  193.3280  174.8440  137.8320 N   0  0  0  0  0  2  0  0  0  0  0  0
  190.8600  174.6670  137.8270 N   0  0  0  0  0  2  0  0  0  0  0  0
  192.1720  173.4540  136.3480 O   0  0  0  0  0  0  0  0  0  0  0  0
  192.1250  174.2860  137.2910 C   0  0  0  0  0  0  0  0  0  0  0  0
  195.6070  174.9870  138.2710 O   0  0  0  0  0  1  0  0  0  0  0  0
  194.8000  173.1380  137.2470 F   0  0  0  0  0  0  0  0  0  0  0  0
  194.6670  174.5110  137.3580 C   0  0  1  0  0  0  0  0  0  0  0  0
  194.9190  175.1560  136.0080 C   0  0  0  0  0  1  0  0  0  0  0  0
  1  9  1  1  0  0  0
  1  3  1  0  0  0  0
  2  5  1  0  0  0  0
  3  7  1  0  0  0  0
  5  3  2  0  0  0  0
  5  8  1  0  0  0  0
  6  4  1  0  0  0  0
  7  4  2  0  0  0  0
  8  6  2  0  0  0  0
 10 12  1  0  0  0  0
 10  9  1  1  0  0  0
 10 11  1  0  0  0  0
 12 16  1  6  0  0  0
 12 11  1  0  0  0  0
 13 19  1  0  0  0  0
 15 18  2  0  0  0  0
 16 14  2  0  0  0  0
 17 13  2  0  0  0  0
 17 15  1  0  0  0  0
 18 14  1  0  0  0  0
 19 16  1  0  0  0  0
 20  1  1  0  0  0  0
 21 22  1  0  0  0  0
 22 20  1  0  0  0  0
 23 25  2  0  0  0  0
 23 21  1  0  0  0  0
 24 22  2  0  0  0  0
 25 24  1  0  0  0  0
 26 28  1  0  0  0  0
 26 23  1  0  0  0  0
 27 26  2  0  0  0  0
 30 28  1  0  0  0  0
 31 32  2  0  0  0  0
 32 30  1  0  0  0  0
 32 29  1  0  0  0  0
 34 35  1  0  0  0  0
 35 36  1  6  0  0  0
 35 29  1  0  0  0  0
 35 33  1  0  0  0  0
M  END
>  <MODEL>
2

>  <REMARK>
 VINA RESULT:      -9.0      2.412      5.893
  Name = 
  10 active torsions:
  status: ('A' for Active; 'I' for Inactive)
    1  A    between atoms: C_2  and  O_13
    2  A    between atoms: C_2  and  C_19
    3  A    between atoms: C_4  and  C_31
    4  A    between atoms: C_7  and  C_8
    5  A    between atoms: C_7  and  C_31
    6  A    between atoms: N_11  and  C_33
    7  A    between atoms: O_13  and  N_16
    8  A    between atoms: C_15  and  C_32
    9  A    between atoms: C_17  and  N_22
   10  A    between atoms: N_22  and  C_31
                            x       y       z     vdW  Elec       q    Type
                         _______ _______ _______ _____ _____    ______ ____

>  <TORSDO>
F 10

$$$$
=
 OpenBabel10222420003D

 36 39  0  0  1  0  0  0  0  0999 V2000
  188.5880  177.0240  144.4620 C   0  0  1  0  0  3  0  0  0  0  0  0
  191.3630  176.2210  144.2670 N   0  0  0  0  0  1  0  0  0  0  0  0
  189.5190  177.0990  145.6350 C   0  0  0  0  0  0  0  0  0  0  0  0
  189.9390  177.6250  147.9640 C   0  0  0  0  0  3  0  0  0  0  0  0
  190.8610  176.7010  145.5110 C   0  0  0  0  0  0  0  0  0  0  0  0
  191.2650  177.2230  147.7940 C   0  0  0  0  0  3  0  0  0  0  0  0
  189.0660  177.5630  146.8780 C   0  0  0  0  0  3  0  0  0  0  0  0
  191.6930  176.7720  146.5850 N   0  0  0  0  0  0  0  0  0  0  0  0
  187.1410  176.9440  144.9340 C   0  0  0  0  0  2  0  0  0  0  0  0
  186.3000  178.0100  144.2620 C   0  0  2  0  0  3  0  0  0  0  0  0
  185.8430  179.0180  145.2900 C   0  0  0  0  0  2  0  0  0  0  0  0
  184.8830  177.9430  144.8090 C   0  0  1  0  0  3  0  0  0  0  0  0
  183.7360  178.2750  141.3290 C   0  0  0  0  0  3  0  0  0  0  0  0
  182.6790  178.7660  144.1740 C   0  0  0  0  0  3  0  0  0  0  0  0
  181.4960  179.1520  141.9890 C   0  0  0  0  0  3  0  0  0  0  0  0
  183.9280  178.4850  143.7900 C   0  0  0  0  0  0  0  0  0  0  0  0
  182.4280  178.4170  141.1130 C   0  0  0  0  0  3  0  0  0  0  0  0
  181.6070  179.3060  143.3150 C   0  0  0  0  0  3  0  0  0  0  0  0
  184.4530  178.9330  142.4610 C   0  0  0  0  0  2  0  0  0  0  0  0
  188.7810  178.1770  143.5910 N   0  0  0  0  0  2  0  0  0  0  0  0
  187.9410  178.6310  140.9920 S   0  0  0  0  0  0  0  0  0  0  0  0
  188.9750  178.0460  142.1820 C   0  0  0  0  0  0  0  0  0  0  0  0
  188.8750  178.0760  139.7090 C   0  0  0  0  0  0  0  0  0  0  0  0
  190.0550  177.4000  141.6020 C   0  0  0  0  0  3  0  0  0  0  0  0
  189.9990  177.4180  140.2010 C   0  0  0  0  0  3  0  0  0  0  0  0
  188.5600  178.2620  138.2900 C   0  0  0  0  0  0  0  0  0  0  0  0
  187.3800  178.5330  137.9380 O   0  0  0  0  0  0  0  0  0  0  0  0
  189.5670  178.1340  137.3350 O   0  0  0  0  0  0  0  0  0  0  0  0
  191.9470  176.5790  137.4500 N   0  0  0  0  0  2  0  0  0  0  0  0
  189.6750  176.9970  136.5650 N   0  0  0  0  0  2  0  0  0  0  0  0
  190.9410  175.1850  135.8640 O   0  0  0  0  0  0  0  0  0  0  0  0
  190.8620  176.2090  136.5930 C   0  0  0  0  0  0  0  0  0  0  0  0
  193.9140  176.2940  138.6570 O   0  0  0  0  0  1  0  0  0  0  0  0
  192.9280  174.4850  137.7220 F   0  0  0  0  0  0  0  0  0  0  0  0
  193.1960  175.8320  137.5550 C   0  0  1  0  0  0  0  0  0  0  0  0
  194.0310  176.0330  136.3040 C   0  0  0  0  0  1  0  0  0  0  0  0
  1  9  1  1  0  0  0
  1  3  1  0  0  0  0
  2  5  1  0  0  0  0
  3  7  1  0  0  0  0
  5  3  2  0  0  0  0
  5  8  1  0  0  0  0
  6  4  1  0  0  0  0
  7  4  2  0  0  0  0
  8  6  2  0  0  0  0
 10 12  1  0  0  0  0
 10  9  1  1  0  0  0
 10 11  1  0  0  0  0
 12 16  1  6  0  0  0
 12 11  1  0  0  0  0
 13 19  1  0  0  0  0
 15 18  2  0  0  0  0
 16 14  2  0  0  0  0
 17 13  2  0  0  0  0
 17 15  1  0  0  0  0
 18 14  1  0  0  0  0
 19 16  1  0  0  0  0
 20  1  1  0  0  0  0
 21 22  1  0  0  0  0
 22 20  1  0  0  0  0
 23 25  2  0  0  0  0
 23 21  1  0  0  0  0
 24 22  2  0  0  0  0
 25 24  1  0  0  0  0
 26 23  1  0  0  0  0
 27 26  2  0  0  0  0
 28 26  1  0  0  0  0
 29 35  1  0  0  0  0
 30 32  1  0  0  0  0
 30 28  1  0  0  0  0
 31 32  2  0  0  0  0
 32 29  1  0  0  0  0
 35 36  1  6  0  0  0
 35 34  1  0  0  0  0
 35 33  1  0  0  0  0
M  END
>  <MODEL>
3

>  <REMARK>
 VINA RESULT:      -9.0      2.310      5.844
  Name = 
  10 active torsions:
  status: ('A' for Active; 'I' for Inactive)
    1  A    between atoms: C_2  and  O_13
    2  A    between atoms: C_2  and  C_19
    3  A    between atoms: C_4  and  C_31
    4  A    between atoms: C_7  and  C_8
    5  A    between atoms: C_7  and  C_31
    6  A    between atoms: N_11  and  C_33
    7  A    between atoms: O_13  and  N_16
    8  A    between atoms: C_15  and  C_32
    9  A    between atoms: C_17  and  N_22
   10  A    between atoms: N_22  and  C_31
                            x       y       z     vdW  Elec       q    Type
                         _______ _______ _______ _____ _____    ______ ____

>  <TORSDO>
F 10

$$$$
=
 OpenBabel10222420003D

 36 39  0  0  1  0  0  0  0  0999 V2000
  190.5350  177.3740  139.3450 C   0  0  1  0  0  3  0  0  0  0  0  0
  193.3970  177.7030  139.6380 N   0  0  0  0  0  1  0  0  0  0  0  0
  191.5110  176.4440  138.6890 C   0  0  0  0  0  0  0  0  0  0  0  0
  191.9760  174.5170  137.2930 C   0  0  0  0  0  3  0  0  0  0  0  0
  192.8940  176.6290  138.8480 C   0  0  0  0  0  0  0  0  0  0  0  0
  193.3410  174.7370  137.4800 C   0  0  0  0  0  3  0  0  0  0  0  0
  191.0600  175.3750  137.9020 C   0  0  0  0  0  3  0  0  0  0  0  0
  193.7670  175.7770  138.2450 N   0  0  0  0  0  0  0  0  0  0  0  0
  189.6150  178.0030  138.3040 C   0  0  0  0  0  2  0  0  0  0  0  0
  188.2420  177.3650  138.3510 C   0  0  2  0  0  3  0  0  0  0  0  0
  187.8630  176.8720  136.9740 C   0  0  0  0  0  2  0  0  0  0  0  0
  187.2870  178.1790  137.4930 C   0  0  1  0  0  3  0  0  0  0  0  0
  184.2510  179.4710  139.1200 C   0  0  0  0  0  3  0  0  0  0  0  0
  185.1140  177.0800  137.3930 C   0  0  0  0  0  3  0  0  0  0  0  0
  182.8330  177.5800  138.3230 C   0  0  0  0  0  3  0  0  0  0  0  0
  185.8860  177.9930  137.9900 C   0  0  0  0  0  0  0  0  0  0  0  0
  183.0750  178.9770  138.7320 C   0  0  0  0  0  3  0  0  0  0  0  0
  183.7180  176.7570  137.7460 C   0  0  0  0  0  3  0  0  0  0  0  0
  185.4760  178.6340  139.2800 C   0  0  0  0  0  2  0  0  0  0  0  0
  189.7590  176.6630  140.3540 N   0  0  0  0  0  2  0  0  0  0  0  0
  188.7220  176.6480  142.9200 S   0  0  0  0  0  0  0  0  0  0  0  0
  189.8970  176.9270  141.7500 C   0  0  0  0  0  0  0  0  0  0  0  0
  189.6620  177.2030  144.1980 C   0  0  0  0  0  0  0  0  0  0  0  0
  191.0330  177.4670  142.3320 C   0  0  0  0  0  3  0  0  0  0  0  0
  190.9000  177.6210  143.7200 C   0  0  0  0  0  3  0  0  0  0  0  0
  189.2470  177.2340  145.6040 C   0  0  0  0  0  0  0  0  0  0  0  0
  190.0980  177.4620  146.5060 O   0  0  0  0  0  0  0  0  0  0  0  0
  187.9120  177.0090  145.9370 O   0  0  0  0  0  0  0  0  0  0  0  0
  185.6640  178.3310  144.7990 N   0  0  0  0  0  2  0  0  0  0  0  0
  187.2060  177.9190  146.6890 N   0  0  0  0  0  2  0  0  0  0  0  0
  185.4690  179.4490  146.8440 O   0  0  0  0  0  0  0  0  0  0  0  0
  186.0850  178.6070  146.1400 C   0  0  0  0  0  0  0  0  0  0  0  0
  183.3830  178.7660  144.9230 O   0  0  0  0  0  1  0  0  0  0  0  0
  184.7530  180.3350  144.0410 F   0  0  0  0  0  0  0  0  0  0  0  0
  184.5260  178.9750  144.1520 C   0  0  1  0  0  0  0  0  0  0  0  0
  184.3040  178.3820  142.7730 C   0  0  0  0  0  1  0  0  0  0  0  0
  1  9  1  6  0  0  0
  1 20  1  0  0  0  0
  3  5  1  0  0  0  0
  3  1  1  0  0  0  0
  4  6  2  0  0  0  0
  4  7  1  0  0  0  0
  5  2  1  0  0  0  0
  6  8  1  0  0  0  0
  7  3  2  0  0  0  0
  8  5  2  0  0  0  0
 10  9  1  6  0  0  0
 11 12  1  0  0  0  0
 11 10  1  0  0  0  0
 12 16  1  1  0  0  0
 12 10  1  0  0  0  0
 13 19  1  0  0  0  0
 14 18  1  0  0  0  0
 14 16  2  0  0  0  0
 15 17  1  0  0  0  0
 16 19  1  0  0  0  0
 17 13  2  0  0  0  0
 18 15  2  0  0  0  0
 20 22  1  0  0  0  0
 21 23  1  0  0  0  0
 22 24  2  0  0  0  0
 22 21  1  0  0  0  0
 23 26  1  0  0  0  0
 24 25  1  0  0  0  0
 25 23  2  0  0  0  0
 26 28  1  0  0  0  0
 26 27  2  0  0  0  0
 28 30  1  0  0  0  0
 29 32  1  0  0  0  0
 32 30  1  0  0  0  0
 32 31  2  0  0  0  0
 34 35  1  0  0  0  0
 35 36  1  6  0  0  0
 35 29  1  0  0  0  0
 35 33  1  0  0  0  0
M  END
>  <MODEL>
4

>  <REMARK>
 VINA RESULT:      -9.0      4.252      9.740
  Name = 
  10 active torsions:
  status: ('A' for Active; 'I' for Inactive)
    1  A    between atoms: C_2  and  O_13
    2  A    between atoms: C_2  and  C_19
    3  A    between atoms: C_4  and  C_31
    4  A    between atoms: C_7  and  C_8
    5  A    between atoms: C_7  and  C_31
    6  A    between atoms: N_11  and  C_33
    7  A    between atoms: O_13  and  N_16
    8  A    between atoms: C_15  and  C_32
    9  A    between atoms: C_17  and  N_22
   10  A    between atoms: N_22  and  C_31
                            x       y       z     vdW  Elec       q    Type
                         _______ _______ _______ _____ _____    ______ ____

>  <TORSDO>
F 10

$$$$
=
 OpenBabel10222420003D

 36 39  0  0  1  0  0  0  0  0999 V2000
  188.7550  176.9410  144.3050 C   0  0  1  0  0  3  0  0  0  0  0  0
  191.5380  176.1660  144.1110 N   0  0  0  0  0  1  0  0  0  0  0  0
  189.6740  176.9840  145.4890 C   0  0  0  0  0  0  0  0  0  0  0  0
  190.0670  177.4360  147.8380 C   0  0  0  0  0  3  0  0  0  0  0  0
  191.0190  176.6000  145.3650 C   0  0  0  0  0  0  0  0  0  0  0  0
  191.3970  177.0490  147.6680 C   0  0  0  0  0  3  0  0  0  0  0  0
  189.2050  177.4030  146.7420 C   0  0  0  0  0  3  0  0  0  0  0  0
  191.8400  176.6430  146.4490 N   0  0  0  0  0  0  0  0  0  0  0  0
  187.3050  176.8180  144.7590 C   0  0  0  0  0  2  0  0  0  0  0  0
  186.4530  177.8980  144.1230 C   0  0  2  0  0  3  0  0  0  0  0  0
  186.1200  178.9530  145.1520 C   0  0  0  0  0  2  0  0  0  0  0  0
  185.0840  177.9030  144.7850 C   0  0  1  0  0  3  0  0  0  0  0  0
  183.7770  178.3330  141.3720 C   0  0  0  0  0  3  0  0  0  0  0  0
  182.8320  178.6820  144.2760 C   0  0  0  0  0  3  0  0  0  0  0  0
  181.5440  179.1150  142.1600 C   0  0  0  0  0  3  0  0  0  0  0  0
  184.0710  178.4550  143.8290 C   0  0  0  0  0  0  0  0  0  0  0  0
  182.4580  178.4420  141.2170 C   0  0  0  0  0  3  0  0  0  0  0  0
  181.7080  179.2220  143.4850 C   0  0  0  0  0  3  0  0  0  0  0  0
  184.5240  178.9690  142.4970 C   0  0  0  0  0  2  0  0  0  0  0  0
  188.9360  178.1300  143.4820 N   0  0  0  0  0  2  0  0  0  0  0  0
  187.9460  178.7380  140.9700 S   0  0  0  0  0  0  0  0  0  0  0  0
  189.0360  178.0670  142.0590 C   0  0  0  0  0  0  0  0  0  0  0  0
  188.7790  178.2260  139.6020 C   0  0  0  0  0  0  0  0  0  0  0  0
  190.0580  177.4240  141.3780 C   0  0  0  0  0  3  0  0  0  0  0  0
  189.9130  177.5160  139.9860 C   0  0  0  0  0  3  0  0  0  0  0  0
  188.3790  178.4920  138.2170 C   0  0  0  0  0  0  0  0  0  0  0  0
  189.0580  179.2840  137.5080 O   0  0  0  0  0  0  0  0  0  0  0  0
  187.2480  177.8720  137.6920 O   0  0  0  0  0  0  0  0  0  0  0  0
  184.9210  176.2340  137.6590 N   0  0  0  0  0  2  0  0  0  0  0  0
  186.0050  178.4530  137.8010 N   0  0  0  0  0  2  0  0  0  0  0  0
  183.6980  178.2180  137.8550 O   0  0  0  0  0  0  0  0  0  0  0  0
  184.8230  177.6580  137.7720 C   0  0  0  0  0  0  0  0  0  0  0  0
  183.0460  175.4840  138.8120 O   0  0  0  0  0  1  0  0  0  0  0  0
  182.9570  175.6460  136.5570 F   0  0  0  0  0  0  0  0  0  0  0  0
  183.7720  175.3360  137.6310 C   0  0  1  0  0  0  0  0  0  0  0  0
  184.2370  173.8950  137.5160 C   0  0  0  0  0  1  0  0  0  0  0  0
  1  9  1  1  0  0  0
  1  3  1  0  0  0  0
  2  5  1  0  0  0  0
  3  7  1  0  0  0  0
  5  3  2  0  0  0  0
  5  8  1  0  0  0  0
  6  4  1  0  0  0  0
  7  4  2  0  0  0  0
  8  6  2  0  0  0  0
 10  9  1  1  0  0  0
 10 12  1  0  0  0  0
 10 11  1  0  0  0  0
 12 16  1  6  0  0  0
 12 11  1  0  0  0  0
 13 19  1  0  0  0  0
 15 18  2  0  0  0  0
 16 14  2  0  0  0  0
 17 13  2  0  0  0  0
 17 15  1  0  0  0  0
 18 14  1  0  0  0  0
 19 16  1  0  0  0  0
 20  1  1  0  0  0  0
 21 22  1  0  0  0  0
 22 20  1  0  0  0  0
 23 25  2  0  0  0  0
 23 21  1  0  0  0  0
 24 22  2  0  0  0  0
 25 24  1  0  0  0  0
 26 23  1  0  0  0  0
 27 26  2  0  0  0  0
 28 30  1  0  0  0  0
 28 26  1  0  0  0  0
 29 32  1  0  0  0  0
 32 30  1  0  0  0  0
 32 31  2  0  0  0  0
 34 35  1  0  0  0  0
 35 36  1  6  0  0  0
 35 29  1  0  0  0  0
 35 33  1  0  0  0  0
M  END
>  <MODEL>
5

>  <REMARK>
 VINA RESULT:      -9.0      3.532      7.166
  Name = 
  10 active torsions:
  status: ('A' for Active; 'I' for Inactive)
    1  A    between atoms: C_2  and  O_13
    2  A    between atoms: C_2  and  C_19
    3  A    between atoms: C_4  and  C_31
    4  A    between atoms: C_7  and  C_8
    5  A    between atoms: C_7  and  C_31
    6  A    between atoms: N_11  and  C_33
    7  A    between atoms: O_13  and  N_16
    8  A    between atoms: C_15  and  C_32
    9  A    between atoms: C_17  and  N_22
   10  A    between atoms: N_22  and  C_31
                            x       y       z     vdW  Elec       q    Type
                         _______ _______ _______ _____ _____    ______ ____

>  <TORSDO>
F 10

$$$$
=
 OpenBabel10222420003D

 36 39  0  0  1  0  0  0  0  0999 V2000
  190.4220  177.6630  141.7310 C   0  0  1  0  0  3  0  0  0  0  0  0
  190.9310  179.4910  143.9190 N   0  0  0  0  0  1  0  0  0  0  0  0
  190.9390  177.1890  143.0560 C   0  0  0  0  0  0  0  0  0  0  0  0
  191.6820  175.3970  144.5110 C   0  0  0  0  0  3  0  0  0  0  0  0
  191.1780  178.0990  144.0990 C   0  0  0  0  0  0  0  0  0  0  0  0
  191.9020  176.3360  145.5200 C   0  0  0  0  0  3  0  0  0  0  0  0
  191.1980  175.8290  143.2760 C   0  0  0  0  0  3  0  0  0  0  0  0
  191.6490  177.6530  145.2950 N   0  0  0  0  0  0  0  0  0  0  0  0
  191.4190  177.3420  140.6230 C   0  0  0  0  0  2  0  0  0  0  0  0
  190.7370  176.6030  139.4900 C   0  0  2  0  0  3  0  0  0  0  0  0
  191.7160  176.3900  138.3600 C   0  0  0  0  0  2  0  0  0  0  0  0
  190.6880  177.5050  138.2680 C   0  0  1  0  0  3  0  0  0  0  0  0
  189.0400  175.1260  135.9960 C   0  0  0  0  0  3  0  0  0  0  0  0
  188.3210  177.5860  137.6910 C   0  0  0  0  0  3  0  0  0  0  0  0
  186.8070  176.2130  136.2270 C   0  0  0  0  0  3  0  0  0  0  0  0
  189.5340  177.1060  137.3990 C   0  0  0  0  0  0  0  0  0  0  0  0
  187.7090  175.0650  136.0130 C   0  0  0  0  0  3  0  0  0  0  0  0
  187.0750  177.3070  136.9510 C   0  0  0  0  0  3  0  0  0  0  0  0
  189.8010  176.4050  136.1030 C   0  0  0  0  0  2  0  0  0  0  0  0
  189.1270  177.0580  141.4490 N   0  0  0  0  0  2  0  0  0  0  0  0
  187.0980  177.3860  143.3030 S   0  0  0  0  0  0  0  0  0  0  0  0
  187.8970  177.6620  141.8500 C   0  0  0  0  0  0  0  0  0  0  0  0
  185.8280  178.4350  142.9670 C   0  0  0  0  0  0  0  0  0  0  0  0
  187.1840  178.5640  141.0760 C   0  0  0  0  0  3  0  0  0  0  0  0
  186.0120  179.0030  141.7100 C   0  0  0  0  0  3  0  0  0  0  0  0
  184.7020  178.7160  143.8640 C   0  0  0  0  0  0  0  0  0  0  0  0
  183.6920  179.3330  143.4290 O   0  0  0  0  0  0  0  0  0  0  0  0
  184.7560  178.3030  145.1930 O   0  0  0  0  0  0  0  0  0  0  0  0
  186.9040  178.0210  147.0380 N   0  0  0  0  0  2  0  0  0  0  0  0
  184.9010  179.2160  146.2140 N   0  0  0  0  0  2  0  0  0  0  0  0
  186.0550  179.9270  148.0960 O   0  0  0  0  0  0  0  0  0  0  0  0
  185.9580  179.0890  147.1610 C   0  0  0  0  0  0  0  0  0  0  0  0
  188.7400  179.0040  148.0720 O   0  0  0  0  0  1  0  0  0  0  0  0
  187.5550  177.4380  149.1960 F   0  0  0  0  0  0  0  0  0  0  0  0
  188.0240  177.8140  147.9500 C   0  0  1  0  0  0  0  0  0  0  0  0
  188.9470  176.7370  147.4090 C   0  0  0  0  0  1  0  0  0  0  0  0
  1  9  1  6  0  0  0
  1  3  1  0  0  0  0
  2  5  1  0  0  0  0
  3  7  2  0  0  0  0
  3  5  1  0  0  0  0
  4  6  2  0  0  0  0
  5  8  2  0  0  0  0
  7  4  1  0  0  0  0
  8  6  1  0  0  0  0
 10  9  1  1  0  0  0
 11 10  1  0  0  0  0
 12 16  1  6  0  0  0
 12 11  1  0  0  0  0
 12 10  1  0  0  0  0
 13 17  2  0  0  0  0
 13 19  1  0  0  0  0
 15 18  2  0  0  0  0
 16 14  2  0  0  0  0
 17 15  1  0  0  0  0
 18 14  1  0  0  0  0
 19 16  1  0  0  0  0
 20  1  1  0  0  0  0
 20 22  1  0  0  0  0
 22 21  1  0  0  0  0
 23 21  1  0  0  0  0
 23 26  1  0  0  0  0
 24 25  1  0  0  0  0
 24 22  2  0  0  0  0
 25 23  2  0  0  0  0
 26 28  1  0  0  0  0
 27 26  2  0  0  0  0
 28 30  1  0  0  0  0
 29 32  1  0  0  0  0
 29 35  1  0  0  0  0
 30 32  1  0  0  0  0
 32 31  2  0  0  0  0
 35 36  1  6  0  0  0
 35 33  1  0  0  0  0
 35 34  1  0  0  0  0
M  END
>  <MODEL>
6

>  <REMARK>
 VINA RESULT:      -8.9      4.753      9.540
  Name = 
  10 active torsions:
  status: ('A' for Active; 'I' for Inactive)
    1  A    between atoms: C_2  and  O_13
    2  A    between atoms: C_2  and  C_19
    3  A    between atoms: C_4  and  C_31
    4  A    between atoms: C_7  and  C_8
    5  A    between atoms: C_7  and  C_31
    6  A    between atoms: N_11  and  C_33
    7  A    between atoms: O_13  and  N_16
    8  A    between atoms: C_15  and  C_32
    9  A    between atoms: C_17  and  N_22
   10  A    between atoms: N_22  and  C_31
                            x       y       z     vdW  Elec       q    Type
                         _______ _______ _______ _____ _____    ______ ____

>  <TORSDO>
F 10

$$$$
=
 OpenBabel10222420003D

 36 39  0  0  1  0  0  0  0  0999 V2000
  189.3910  177.9620  144.5990 C   0  0  1  0  0  3  0  0  0  0  0  0
  188.8910  178.1650  147.4440 N   0  0  0  0  0  1  0  0  0  0  0  0
  190.2640  177.2780  145.6080 C   0  0  0  0  0  0  0  0  0  0  0  0
  192.1740  175.8850  146.1450 C   0  0  0  0  0  3  0  0  0  0  0  0
  189.9980  177.3960  146.9820 C   0  0  0  0  0  0  0  0  0  0  0  0
  191.8700  176.0260  147.4990 C   0  0  0  0  0  3  0  0  0  0  0  0
  191.3660  176.5140  145.1980 C   0  0  0  0  0  3  0  0  0  0  0  0
  190.8010  176.7720  147.8860 N   0  0  0  0  0  0  0  0  0  0  0  0
  190.1900  178.3050  143.3460 C   0  0  0  0  0  2  0  0  0  0  0  0
  189.6760  177.5210  142.1550 C   0  0  2  0  0  3  0  0  0  0  0  0
  190.5680  176.3270  141.9100 C   0  0  0  0  0  2  0  0  0  0  0  0
  190.7150  177.5680  141.0460 C   0  0  1  0  0  3  0  0  0  0  0  0
  189.1050  178.9480  138.0390 C   0  0  0  0  0  3  0  0  0  0  0  0
  190.3230  176.2970  139.0040 C   0  0  0  0  0  3  0  0  0  0  0  0
  189.2890  176.8090  136.7700 C   0  0  0  0  0  3  0  0  0  0  0  0
  190.0380  177.3880  139.7220 C   0  0  0  0  0  0  0  0  0  0  0  0
  189.2390  178.2790  136.8950 C   0  0  0  0  0  3  0  0  0  0  0  0
  189.7560  175.9510  137.6860 C   0  0  0  0  0  3  0  0  0  0  0  0
  188.8920  178.2810  139.3570 C   0  0  0  0  0  2  0  0  0  0  0  0
  188.2500  177.1190  144.2660 N   0  0  0  0  0  2  0  0  0  0  0  0
  185.9730  177.8950  142.8970 S   0  0  0  0  0  0  0  0  0  0  0  0
  186.9100  177.6130  144.2630 C   0  0  0  0  0  0  0  0  0  0  0  0
  184.6290  178.4260  143.7550 C   0  0  0  0  0  0  0  0  0  0  0  0
  186.1980  177.9380  145.4070 C   0  0  0  0  0  3  0  0  0  0  0  0
  184.9040  178.3980  145.1190 C   0  0  0  0  0  3  0  0  0  0  0  0
  183.3560  178.8480  143.1610 C   0  0  0  0  0  0  0  0  0  0  0  0
  182.4560  179.3480  143.8900 O   0  0  0  0  0  0  0  0  0  0  0  0
  183.1460  178.6920  141.7920 O   0  0  0  0  0  0  0  0  0  0  0  0
  183.8290  177.8140  139.1730 N   0  0  0  0  0  2  0  0  0  0  0  0
  183.6670  179.5900  140.8880 N   0  0  0  0  0  2  0  0  0  0  0  0
  184.5240  180.0120  138.7740 O   0  0  0  0  0  0  0  0  0  0  0  0
  184.0320  179.1740  139.5750 C   0  0  0  0  0  0  0  0  0  0  0  0
  183.8270  175.9430  137.7930 O   0  0  0  0  0  1  0  0  0  0  0  0
  183.4480  177.9790  136.8830 F   0  0  0  0  0  0  0  0  0  0  0  0
  184.1620  177.2950  137.8510 C   0  0  1  0  0  0  0  0  0  0  0  0
  185.6490  177.4470  137.5880 C   0  0  0  0  0  1  0  0  0  0  0  0
  1  9  1  6  0  0  0
  1  3  1  0  0  0  0
  3  5  1  0  0  0  0
  4  6  2  0  0  0  0
  5  2  1  0  0  0  0
  5  8  2  0  0  0  0
  6  8  1  0  0  0  0
  7  3  2  0  0  0  0
  7  4  1  0  0  0  0
 10  9  1  1  0  0  0
 11 10  1  0  0  0  0
 12 16  1  6  0  0  0
 12 11  1  0  0  0  0
 12 10  1  0  0  0  0
 13 19  1  0  0  0  0
 14 16  2  0  0  0  0
 15 17  1  0  0  0  0
 15 18  2  0  0  0  0
 17 13  2  0  0  0  0
 18 14  1  0  0  0  0
 19 16  1  0  0  0  0
 20  1  1  0  0  0  0
 21 23  1  0  0  0  0
 21 22  1  0  0  0  0
 22 20  1  0  0  0  0
 22 24  2  0  0  0  0
 23 25  2  0  0  0  0
 25 24  1  0  0  0  0
 26 23  1  0  0  0  0
 26 27  2  0  0  0  0
 28 26  1  0  0  0  0
 29 32  1  0  0  0  0
 30 28  1  0  0  0  0
 31 32  2  0  0  0  0
 32 30  1  0  0  0  0
 33 35  1  0  0  0  0
 34 35  1  0  0  0  0
 35 36  1  6  0  0  0
 35 29  1  0  0  0  0
M  END
>  <MODEL>
7

>  <REMARK>
 VINA RESULT:      -8.9      3.920      8.395
  Name = 
  10 active torsions:
  status: ('A' for Active; 'I' for Inactive)
    1  A    between atoms: C_2  and  O_13
    2  A    between atoms: C_2  and  C_19
    3  A    between atoms: C_4  and  C_31
    4  A    between atoms: C_7  and  C_8
    5  A    between atoms: C_7  and  C_31
    6  A    between atoms: N_11  and  C_33
    7  A    between atoms: O_13  and  N_16
    8  A    between atoms: C_15  and  C_32
    9  A    between atoms: C_17  and  N_22
   10  A    between atoms: N_22  and  C_31
                            x       y       z     vdW  Elec       q    Type
                         _______ _______ _______ _____ _____    ______ ____

>  <TORSDO>
F 10

$$$$
=
 OpenBabel10222420003D

 36 39  0  0  1  0  0  0  0  0999 V2000
  188.7600  176.8910  144.3130 C   0  0  1  0  0  3  0  0  0  0  0  0
  191.5550  176.1440  144.1910 N   0  0  0  0  0  1  0  0  0  0  0  0
  189.6560  176.9790  145.5110 C   0  0  0  0  0  0  0  0  0  0  0  0
  190.0000  177.5030  147.8530 C   0  0  0  0  0  3  0  0  0  0  0  0
  191.0080  176.6080  145.4230 C   0  0  0  0  0  0  0  0  0  0  0  0
  191.3380  177.1280  147.7190 C   0  0  0  0  0  3  0  0  0  0  0  0
  189.1590  177.4280  146.7420 C   0  0  0  0  0  3  0  0  0  0  0  0
  191.8080  176.6920  146.5200 N   0  0  0  0  0  0  0  0  0  0  0  0
  187.3040  176.7530  144.7440 C   0  0  0  0  0  2  0  0  0  0  0  0
  186.4610  177.8580  144.1390 C   0  0  2  0  0  3  0  0  0  0  0  0
  186.1650  178.9020  145.1900 C   0  0  0  0  0  2  0  0  0  0  0  0
  185.1040  177.8770  144.8240 C   0  0  1  0  0  3  0  0  0  0  0  0
  183.8120  178.4810  141.4320 C   0  0  0  0  0  3  0  0  0  0  0  0
  182.8380  178.6340  144.3430 C   0  0  0  0  0  3  0  0  0  0  0  0
  181.5550  179.1630  142.2470 C   0  0  0  0  0  3  0  0  0  0  0  0
  184.0850  178.4620  143.8940 C   0  0  0  0  0  0  0  0  0  0  0  0
  182.4910  178.5700  141.2730 C   0  0  0  0  0  3  0  0  0  0  0  0
  181.7080  179.1950  143.5770 C   0  0  0  0  0  3  0  0  0  0  0  0
  184.5350  179.0650  142.6000 C   0  0  0  0  0  2  0  0  0  0  0  0
  188.9350  178.0640  143.4640 N   0  0  0  0  0  2  0  0  0  0  0  0
  190.3320  177.1280  141.2650 S   0  0  0  0  0  0  0  0  0  0  0  0
  189.1030  177.9650  142.0490 C   0  0  0  0  0  0  0  0  0  0  0  0
  189.7980  177.5110  139.7180 C   0  0  0  0  0  0  0  0  0  0  0  0
  188.2650  178.5650  141.1220 C   0  0  0  0  0  3  0  0  0  0  0  0
  188.6590  178.3060  139.8010 C   0  0  0  0  0  3  0  0  0  0  0  0
  190.4290  177.0680  138.4700 C   0  0  0  0  0  0  0  0  0  0  0  0
  191.6400  176.7180  138.4690 O   0  0  0  0  0  0  0  0  0  0  0  0
  189.6870  177.0410  137.2910 O   0  0  0  0  0  0  0  0  0  0  0  0
  186.8490  176.8760  137.1560 N   0  0  0  0  0  2  0  0  0  0  0  0
  189.0930  175.8780  136.8540 N   0  0  0  0  0  2  0  0  0  0  0  0
  187.1570  174.6820  136.4050 O   0  0  0  0  0  0  0  0  0  0  0  0
  187.6740  175.7630  136.7910 C   0  0  0  0  0  0  0  0  0  0  0  0
  184.9680  177.0360  135.7990 O   0  0  0  0  0  1  0  0  0  0  0  0
  184.9200  175.6440  137.5810 F   0  0  0  0  0  0  0  0  0  0  0  0
  185.3910  176.8590  137.1150 C   0  0  1  0  0  0  0  0  0  0  0  0
  184.8310  177.9820  137.9690 C   0  0  0  0  0  1  0  0  0  0  0  0
  1  9  1  1  0  0  0
  1  3  1  0  0  0  0
  2  5  1  0  0  0  0
  3  7  1  0  0  0  0
  5  3  2  0  0  0  0
  5  8  1  0  0  0  0
  6  4  1  0  0  0  0
  7  4  2  0  0  0  0
  8  6  2  0  0  0  0
 10  9  1  1  0  0  0
 10 12  1  0  0  0  0
 10 11  1  0  0  0  0
 12 16  1  6  0  0  0
 12 11  1  0  0  0  0
 13 19  1  0  0  0  0
 15 18  2  0  0  0  0
 16 14  2  0  0  0  0
 17 13  2  0  0  0  0
 17 15  1  0  0  0  0
 18 14  1  0  0  0  0
 19 16  1  0  0  0  0
 20  1  1  0  0  0  0
 21 22  1  0  0  0  0
 22 20  1  0  0  0  0
 23 25  2  0  0  0  0
 23 21  1  0  0  0  0
 24 22  2  0  0  0  0
 25 24  1  0  0  0  0
 26 23  1  0  0  0  0
 27 26  2  0  0  0  0
 28 26  1  0  0  0  0
 30 28  1  0  0  0  0
 31 32  2  0  0  0  0
 32 30  1  0  0  0  0
 32 29  1  0  0  0  0
 33 35  1  0  0  0  0
 35 29  1  0  0  0  0
 35 34  1  0  0  0  0
 35 36  1  1  0  0  0
M  END
>  <MODEL>
8

>  <REMARK>
 VINA RESULT:      -8.8      3.090      6.742
  Name = 
  10 active torsions:
  status: ('A' for Active; 'I' for Inactive)
    1  A    between atoms: C_2  and  O_13
    2  A    between atoms: C_2  and  C_19
    3  A    between atoms: C_4  and  C_31
    4  A    between atoms: C_7  and  C_8
    5  A    between atoms: C_7  and  C_31
    6  A    between atoms: N_11  and  C_33
    7  A    between atoms: O_13  and  N_16
    8  A    between atoms: C_15  and  C_32
    9  A    between atoms: C_17  and  N_22
   10  A    between atoms: N_22  and  C_31
                            x       y       z     vdW  Elec       q    Type
                         _______ _______ _______ _____ _____    ______ ____

>  <TORSDO>
F 10

$$$$
=
 OpenBabel10222420003D

 36 39  0  0  1  0  0  0  0  0999 V2000
  184.2200  179.3120  142.9330 C   0  0  1  0  0  3  0  0  0  0  0  0
  183.0640  179.0870  140.2880 N   0  0  0  0  0  1  0  0  0  0  0  0
  182.7640  179.0210  142.7270 C   0  0  0  0  0  0  0  0  0  0  0  0
  180.5530  178.5840  143.6210 C   0  0  0  0  0  3  0  0  0  0  0  0
  182.2300  178.9190  141.4310 C   0  0  0  0  0  0  0  0  0  0  0  0
  180.0670  178.4870  142.3170 C   0  0  0  0  0  3  0  0  0  0  0  0
  181.9070  178.8510  143.8230 C   0  0  0  0  0  3  0  0  0  0  0  0
  180.9060  178.6560  141.2600 N   0  0  0  0  0  0  0  0  0  0  0  0
  184.4820  179.7290  144.3760 C   0  0  0  0  0  2  0  0  0  0  0  0
  185.1780  178.6170  145.1340 C   0  0  2  0  0  3  0  0  0  0  0  0
  184.5670  178.4790  146.5090 C   0  0  0  0  0  2  0  0  0  0  0  0
  185.8890  179.2090  146.3400 C   0  0  1  0  0  3  0  0  0  0  0  0
  188.8270  177.1870  145.4390 C   0  0  0  0  0  3  0  0  0  0  0  0
  187.5820  178.4790  147.9340 C   0  0  0  0  0  3  0  0  0  0  0  0
  189.6940  177.1250  147.7770 C   0  0  0  0  0  3  0  0  0  0  0  0
  187.0430  178.3330  146.7200 C   0  0  0  0  0  0  0  0  0  0  0  0
  189.8360  177.1280  146.3080 C   0  0  0  0  0  3  0  0  0  0  0  0
  188.7150  177.7070  148.4810 C   0  0  0  0  0  3  0  0  0  0  0  0
  187.3930  177.1650  145.8490 C   0  0  0  0  0  2  0  0  0  0  0  0
  185.0220  178.1470  142.5810 N   0  0  0  0  0  2  0  0  0  0  0  0
  186.5180  178.2470  140.2540 S   0  0  0  0  0  0  0  0  0  0  0  0
  186.2830  178.2590  141.9180 C   0  0  0  0  0  0  0  0  0  0  0  0
  188.1880  178.4190  140.3480 C   0  0  0  0  0  0  0  0  0  0  0  0
  187.4970  178.3850  142.5730 C   0  0  0  0  0  3  0  0  0  0  0  0
  188.5770  178.4770  141.6830 C   0  0  0  0  0  3  0  0  0  0  0  0
  189.0960  178.5040  139.2000 C   0  0  0  0  0  0  0  0  0  0  0  0
  190.2130  177.9190  139.2370 O   0  0  0  0  0  0  0  0  0  0  0  0
  188.7230  179.2350  138.0740 O   0  0  0  0  0  0  0  0  0  0  0  0
  186.7900  177.6940  136.6640 N   0  0  0  0  0  2  0  0  0  0  0  0
  189.0080  178.7800  136.8060 N   0  0  0  0  0  2  0  0  0  0  0  0
  188.3590  177.5740  134.9340 O   0  0  0  0  0  0  0  0  0  0  0  0
  188.0640  177.9930  136.0840 C   0  0  0  0  0  0  0  0  0  0  0  0
  185.4260  177.5120  134.7900 O   0  0  0  0  0  1  0  0  0  0  0  0
  186.2220  175.6270  135.7550 F   0  0  0  0  0  0  0  0  0  0  0  0
  185.7560  176.9060  136.0010 C   0  0  1  0  0  0  0  0  0  0  0  0
  184.5140  176.8360  136.8710 C   0  0  0  0  0  1  0  0  0  0  0  0
  1  9  1  1  0  0  0
  2  5  1  0  0  0  0
  3  1  1  0  0  0  0
  3  7  1  0  0  0  0
  4  7  2  0  0  0  0
  5  3  2  0  0  0  0
  6  4  1  0  0  0  0
  8  5  1  0  0  0  0
  8  6  2  0  0  0  0
 10  9  1  6  0  0  0
 10 12  1  0  0  0  0
 10 11  1  0  0  0  0
 12 11  1  0  0  0  0
 12 16  1  1  0  0  0
 13 19  1  0  0  0  0
 13 17  2  0  0  0  0
 14 18  1  0  0  0  0
 15 18  2  0  0  0  0
 16 14  2  0  0  0  0
 17 15  1  0  0  0  0
 19 16  1  0  0  0  0
 20  1  1  0  0  0  0
 21 23  1  0  0  0  0
 21 22  1  0  0  0  0
 22 24  2  0  0  0  0
 22 20  1  0  0  0  0
 23 25  2  0  0  0  0
 25 24  1  0  0  0  0
 26 27  2  0  0  0  0
 26 23  1  0  0  0  0
 28 26  1  0  0  0  0
 30 28  1  0  0  0  0
 31 32  2  0  0  0  0
 32 29  1  0  0  0  0
 32 30  1  0  0  0  0
 33 35  1  0  0  0  0
 34 35  1  0  0  0  0
 35 29  1  0  0  0  0
 35 36  1  1  0  0  0
M  END
>  <MODEL>
9

>  <REMARK>
 VINA RESULT:      -8.8      2.370      3.351
  Name = 
  10 active torsions:
  status: ('A' for Active; 'I' for Inactive)
    1  A    between atoms: C_2  and  O_13
    2  A    between atoms: C_2  and  C_19
    3  A    between atoms: C_4  and  C_31
    4  A    between atoms: C_7  and  C_8
    5  A    between atoms: C_7  and  C_31
    6  A    between atoms: N_11  and  C_33
    7  A    between atoms: O_13  and  N_16
    8  A    between atoms: C_15  and  C_32
    9  A    between atoms: C_17  and  N_22
   10  A    between atoms: N_22  and  C_31
                            x       y       z     vdW  Elec       q    Type
                         _______ _______ _______ _____ _____    ______ ____

>  <TORSDO>
F 10

$$$$
