=
 OpenBabel10222418473D

 29 32  0  0  1  0  0  0  0  0999 V2000
  188.1720  177.2130  141.6650 C   0  0  0  0  0  2  0  0  0  0  0  0
  186.9650  175.7640  135.2480 S   0  0  0  0  0  0  0  0  0  0  0  0
  188.9320  178.0790  136.5580 S   0  0  0  0  0  0  0  0  0  0  0  0
  186.6220  176.5990  136.7850 C   0  0  0  0  0  0  0  0  0  0  0  0
  187.0610  178.3160  138.8710 S   0  0  0  0  0  0  0  0  0  0  0  0
  184.7690  175.1050  136.7120 C   0  0  0  0  0  2  0  0  0  0  0  0
  190.8570  177.0960  138.3350 C   0  0  0  0  0  3  0  0  0  0  0  0
  189.1080  177.2450  140.4990 C   0  0  0  0  0  0  0  0  0  0  0  0
  190.3950  176.7110  140.6370 C   0  0  0  0  0  3  0  0  0  0  0  0
  185.4440  176.1600  137.4390 N   0  0  0  0  0  2  0  0  0  0  0  0
  185.2340  175.1850  135.2610 C   0  0  0  0  0  2  0  0  0  0  0  0
  191.2350  176.6540  139.5660 N   0  0  0  0  0  0  0  0  0  0  0  0
  189.5950  177.6660  138.1650 C   0  0  0  0  0  0  0  0  0  0  0  0
  187.3440  177.6250  137.2470 C   0  0  0  0  0  0  0  0  0  0  0  0
  188.7220  177.7510  139.2490 C   0  0  0  0  0  0  0  0  0  0  0  0
  188.9950  176.7410  145.4000 C   0  0  0  0  0  2  0  0  0  0  0  0
  189.6810  177.9040  145.7800 O   0  0  0  0  0  0  0  0  0  0  0  0
  190.8940  177.8520  145.0840 C   0  0  0  0  0  2  0  0  0  0  0  0
  190.8720  178.7770  143.8630 C   0  0  1  0  0  3  0  0  0  0  0  0
  189.5380  178.7900  143.1090 C   0  0  0  0  0  2  0  0  0  0  0  0
  191.1940  180.0770  144.2530 O   0  0  0  0  0  1  0  0  0  0  0  0
  188.0780  177.0080  144.1990 C   0  0  2  0  0  3  0  0  0  0  0  0
  188.9310  177.3910  142.9760 C   0  0  1  0  0  3  0  0  0  0  0  0
  186.0520  178.1300  143.5110 O   0  0  0  0  0  1  0  0  0  0  0  0
  186.9830  178.0330  144.5480 C   0  0  1  0  0  3  0  0  0  0  0  0
  186.2590  177.6340  145.8280 C   0  0  0  0  0  2  0  0  0  0  0  0
  185.8520  179.5790  147.1420 O   0  0  0  0  0  1  0  0  0  0  0  0
  185.3990  178.7500  146.3120 C   0  0  0  0  0  0  0  0  0  0  0  0
  184.1090  178.8960  145.8200 O   0  0  0  0  0  0  0  0  0  0  0  0
  2 11  1  0  0  0  0
  2  4  1  0  0  0  0
  3 14  1  0  0  0  0
  3 13  1  0  0  0  0
  4 14  2  0  0  0  0
  4 10  1  0  0  0  0
  5 15  1  0  0  0  0
  6 10  1  0  0  0  0
  7 12  1  0  0  0  0
  8  9  1  0  0  0  0
  8  1  1  0  0  0  0
 11  6  1  0  0  0  0
 12  9  2  0  0  0  0
 13  7  2  0  0  0  0
 13 15  1  0  0  0  0
 14  5  1  0  0  0  0
 15  8  2  0  0  0  0
 16 17  1  0  0  0  0
 18 17  1  0  0  0  0
 19 21  1  1  0  0  0
 19 18  1  0  0  0  0
 20 19  1  0  0  0  0
 22 25  1  1  0  0  0
 22 16  1  0  0  0  0
 23  1  1  6  0  0  0
 23 20  1  0  0  0  0
 23 22  1  0  0  0  0
 25 24  1  6  0  0  0
 25 26  1  0  0  0  0
 26 28  1  0  0  0  0
 28 27  1  0  0  0  0
 29 28  2  0  0  0  0
M  END
>  <MODEL>
1

>  <REMARK>
 VINA RESULT:      -7.3      0.000      0.000
  Name = 
  5 active torsions:
  status: ('A' for Active; 'I' for Inactive)
    1  A    between atoms: C_4  and  C_23
    2  A    between atoms: C_10  and  C_15
    3  A    between atoms: C_15  and  C_28
    4  A    between atoms: C_23  and  C_24
    5  A    between atoms: C_24  and  C_26
                            x       y       z     vdW  Elec       q    Type
                         _______ _______ _______ _____ _____    ______ ____

>  <TORSDO>
F 5

$$$$
=
 OpenBabel10222418473D

 29 32  0  0  1  0  0  0  0  0999 V2000
  188.8790  178.0190  140.5100 C   0  0  0  0  0  2  0  0  0  0  0  0
  187.0400  174.6070  135.0600 S   0  0  0  0  0  0  0  0  0  0  0  0
  189.2860  177.0150  135.3880 S   0  0  0  0  0  0  0  0  0  0  0  0
  186.8920  175.9460  136.2280 C   0  0  0  0  0  0  0  0  0  0  0  0
  187.6350  178.2150  137.5650 S   0  0  0  0  0  0  0  0  0  0  0  0
  184.9260  174.7130  136.7680 C   0  0  0  0  0  2  0  0  0  0  0  0
  191.2650  176.5030  137.2980 C   0  0  0  0  0  3  0  0  0  0  0  0
  189.7170  177.5570  139.3610 C   0  0  0  0  0  0  0  0  0  0  0  0
  190.9640  176.9720  139.6110 C   0  0  0  0  0  3  0  0  0  0  0  0
  185.7400  175.8780  137.0500 N   0  0  0  0  0  2  0  0  0  0  0  0
  185.2760  174.2480  135.3570 C   0  0  0  0  0  2  0  0  0  0  0  0
  191.7070  176.4690  138.5850 N   0  0  0  0  0  0  0  0  0  0  0  0
  190.0430  177.1070  137.0040 C   0  0  0  0  0  0  0  0  0  0  0  0
  187.7280  176.9880  136.2700 C   0  0  0  0  0  0  0  0  0  0  0  0
  189.2700  177.6450  138.0330 C   0  0  0  0  0  0  0  0  0  0  0  0
  189.1320  176.0120  143.7910 C   0  0  0  0  0  2  0  0  0  0  0  0
  189.8920  176.8120  144.6570 O   0  0  0  0  0  0  0  0  0  0  0  0
  191.1740  176.8380  144.0950 C   0  0  0  0  0  2  0  0  0  0  0  0
  191.4240  178.1540  143.3520 C   0  0  1  0  0  3  0  0  0  0  0  0
  190.2140  178.6730  142.5670 C   0  0  0  0  0  2  0  0  0  0  0  0
  191.8410  179.1320  144.2550 O   0  0  0  0  0  1  0  0  0  0  0  0
  188.4220  176.8670  142.7320 C   0  0  2  0  0  3  0  0  0  0  0  0
  189.4710  177.5510  141.8360 C   0  0  1  0  0  3  0  0  0  0  0  0
  186.4560  178.2420  142.4500 O   0  0  0  0  0  1  0  0  0  0  0  0
  187.4180  177.8390  143.3790 C   0  0  1  0  0  3  0  0  0  0  0  0
  186.7190  177.1830  144.5630 C   0  0  0  0  0  2  0  0  0  0  0  0
  187.4950  178.0030  146.6610 O   0  0  0  0  0  1  0  0  0  0  0  0
  186.6660  178.1170  145.7220 C   0  0  0  0  0  0  0  0  0  0  0  0
  185.7220  179.1350  145.7500 O   0  0  0  0  0  0  0  0  0  0  0  0
  2 11  1  0  0  0  0
  2  4  1  0  0  0  0
  3 14  1  0  0  0  0
  3 13  1  0  0  0  0
  4 14  2  0  0  0  0
  4 10  1  0  0  0  0
  5 15  1  0  0  0  0
  6 10  1  0  0  0  0
  7 12  1  0  0  0  0
  8  9  1  0  0  0  0
  8  1  1  0  0  0  0
 11  6  1  0  0  0  0
 12  9  2  0  0  0  0
 13  7  2  0  0  0  0
 13 15  1  0  0  0  0
 14  5  1  0  0  0  0
 15  8  2  0  0  0  0
 16 17  1  0  0  0  0
 18 17  1  0  0  0  0
 19 18  1  0  0  0  0
 19 21  1  1  0  0  0
 20 19  1  0  0  0  0
 22 25  1  1  0  0  0
 22 16  1  0  0  0  0
 23  1  1  6  0  0  0
 23 20  1  0  0  0  0
 23 22  1  0  0  0  0
 25 24  1  6  0  0  0
 25 26  1  0  0  0  0
 26 28  1  0  0  0  0
 28 29  2  0  0  0  0
 28 27  1  0  0  0  0
M  END
>  <MODEL>
2

>  <REMARK>
 VINA RESULT:      -7.1      1.196      1.338
  Name = 
  5 active torsions:
  status: ('A' for Active; 'I' for Inactive)
    1  A    between atoms: C_4  and  C_23
    2  A    between atoms: C_10  and  C_15
    3  A    between atoms: C_15  and  C_28
    4  A    between atoms: C_23  and  C_24
    5  A    between atoms: C_24  and  C_26
                            x       y       z     vdW  Elec       q    Type
                         _______ _______ _______ _____ _____    ______ ____

>  <TORSDO>
F 5

$$$$
=
 OpenBabel10222418473D

 29 32  0  0  1  0  0  0  0  0999 V2000
  187.7020  178.5290  140.7290 C   0  0  0  0  0  2  0  0  0  0  0  0
  183.3130  175.1130  137.0140 S   0  0  0  0  0  0  0  0  0  0  0  0
  185.7550  177.1380  136.0730 S   0  0  0  0  0  0  0  0  0  0  0  0
  183.8410  176.5320  137.9560 C   0  0  0  0  0  0  0  0  0  0  0  0
  185.3510  178.7320  138.5630 S   0  0  0  0  0  0  0  0  0  0  0  0
  182.1620  175.6760  139.4140 C   0  0  0  0  0  2  0  0  0  0  0  0
  188.2840  176.4360  137.0420 C   0  0  0  0  0  3  0  0  0  0  0  0
  187.9050  177.8610  139.4060 C   0  0  0  0  0  0  0  0  0  0  0  0
  189.0590  177.0980  139.1920 C   0  0  0  0  0  3  0  0  0  0  0  0
  183.1530  176.7080  139.1820 N   0  0  0  0  0  2  0  0  0  0  0  0
  181.8170  175.0680  138.0570 C   0  0  0  0  0  2  0  0  0  0  0  0
  189.2250  176.4140  138.0250 N   0  0  0  0  0  0  0  0  0  0  0  0
  187.1360  177.2110  137.2050 C   0  0  0  0  0  0  0  0  0  0  0  0
  184.7330  177.4240  137.5140 C   0  0  0  0  0  0  0  0  0  0  0  0
  186.9480  177.9340  138.3820 C   0  0  0  0  0  0  0  0  0  0  0  0
  188.2560  176.0320  143.6130 C   0  0  0  0  0  2  0  0  0  0  0  0
  189.2890  176.5820  144.3870 O   0  0  0  0  0  0  0  0  0  0  0  0
  190.4240  176.5220  143.5710 C   0  0  0  0  0  2  0  0  0  0  0  0
  190.7360  177.8900  142.9560 C   0  0  1  0  0  3  0  0  0  0  0  0
  189.4970  178.6790  142.5160 C   0  0  0  0  0  2  0  0  0  0  0  0
  191.4720  178.6550  143.8600 O   0  0  0  0  0  1  0  0  0  0  0  0
  187.5030  177.1250  142.8420 C   0  0  2  0  0  3  0  0  0  0  0  0
  188.4550  177.7900  141.8310 C   0  0  1  0  0  3  0  0  0  0  0  0
  185.7310  178.7330  143.1730 O   0  0  0  0  0  1  0  0  0  0  0  0
  186.8140  178.1130  143.8010 C   0  0  1  0  0  3  0  0  0  0  0  0
  186.3170  177.3950  145.0490 C   0  0  0  0  0  2  0  0  0  0  0  0
  187.5020  178.1010  146.9920 O   0  0  0  0  0  1  0  0  0  0  0  0
  186.4950  178.2540  146.2530 C   0  0  0  0  0  0  0  0  0  0  0  0
  185.5690  179.2470  146.5410 O   0  0  0  0  0  0  0  0  0  0  0  0
  2  4  1  0  0  0  0
  2 11  1  0  0  0  0
  3 13  1  0  0  0  0
  3 14  1  0  0  0  0
  4 10  1  0  0  0  0
  7 13  2  0  0  0  0
  7 12  1  0  0  0  0
  8  1  1  0  0  0  0
  9  8  1  0  0  0  0
 10  6  1  0  0  0  0
 11  6  1  0  0  0  0
 12  9  2  0  0  0  0
 13 15  1  0  0  0  0
 14  4  2  0  0  0  0
 14  5  1  0  0  0  0
 15  5  1  0  0  0  0
 15  8  2  0  0  0  0
 16 17  1  0  0  0  0
 18 17  1  0  0  0  0
 19 18  1  0  0  0  0
 19 21  1  1  0  0  0
 20 19  1  0  0  0  0
 22 16  1  0  0  0  0
 22 25  1  1  0  0  0
 23  1  1  6  0  0  0
 23 20  1  0  0  0  0
 23 22  1  0  0  0  0
 25 24  1  6  0  0  0
 25 26  1  0  0  0  0
 26 28  1  0  0  0  0
 28 29  2  0  0  0  0
 28 27  1  0  0  0  0
M  END
>  <MODEL>
3

>  <REMARK>
 VINA RESULT:      -7.0      1.898      2.331
  Name = 
  5 active torsions:
  status: ('A' for Active; 'I' for Inactive)
    1  A    between atoms: C_4  and  C_23
    2  A    between atoms: C_10  and  C_15
    3  A    between atoms: C_15  and  C_28
    4  A    between atoms: C_23  and  C_24
    5  A    between atoms: C_24  and  C_26
                            x       y       z     vdW  Elec       q    Type
                         _______ _______ _______ _____ _____    ______ ____

>  <TORSDO>
F 5

$$$$
=
 OpenBabel10222418473D

 29 32  0  0  1  0  0  0  0  0999 V2000
  192.4090  174.5140  137.6740 C   0  0  0  0  0  2  0  0  0  0  0  0
  188.0010  177.5320  141.6980 S   0  0  0  0  0  0  0  0  0  0  0  0
  189.2250  178.5170  138.7870 S   0  0  0  0  0  0  0  0  0  0  0  0
  189.6520  177.1550  141.1400 C   0  0  0  0  0  0  0  0  0  0  0  0
  191.7840  177.1220  139.4250 S   0  0  0  0  0  0  0  0  0  0  0  0
  189.6500  175.9940  143.2200 C   0  0  0  0  0  2  0  0  0  0  0  0
  188.8590  176.6940  136.6960 C   0  0  0  0  0  3  0  0  0  0  0  0
  191.2100  175.3320  137.3140 C   0  0  0  0  0  0  0  0  0  0  0  0
  190.3560  174.8880  136.2980 C   0  0  0  0  0  3  0  0  0  0  0  0
  190.4010  176.3500  142.0340 N   0  0  0  0  0  2  0  0  0  0  0  0
  188.5260  177.0160  143.3680 C   0  0  0  0  0  2  0  0  0  0  0  0
  189.2140  175.5740  136.0100 N   0  0  0  0  0  0  0  0  0  0  0  0
  189.7010  177.1870  137.6930 C   0  0  0  0  0  0  0  0  0  0  0  0
  190.1910  177.6620  140.0270 C   0  0  0  0  0  0  0  0  0  0  0  0
  190.8840  176.5130  137.9980 C   0  0  0  0  0  0  0  0  0  0  0  0
  195.5180  173.7140  135.5410 C   0  0  0  0  0  2  0  0  0  0  0  0
  196.1870  174.9370  135.3870 O   0  0  0  0  0  0  0  0  0  0  0  0
  195.3370  175.7170  134.5940 C   0  0  0  0  0  2  0  0  0  0  0  0
  194.5670  176.7340  135.4430 C   0  0  1  0  0  3  0  0  0  0  0  0
  194.0960  176.1940  136.7970 C   0  0  0  0  0  2  0  0  0  0  0  0
  195.3550  177.8670  135.6470 O   0  0  0  0  0  1  0  0  0  0  0  0
  194.6660  173.7090  136.8180 C   0  0  2  0  0  3  0  0  0  0  0  0
  193.5520  174.7660  136.6970 C   0  0  1  0  0  3  0  0  0  0  0  0
  195.0910  173.0120  139.0920 O   0  0  0  0  0  1  0  0  0  0  0  0
  195.5410  173.8590  138.0760 C   0  0  1  0  0  3  0  0  0  0  0  0
  196.9950  173.5280  137.7630 C   0  0  0  0  0  2  0  0  0  0  0  0
  199.0140  174.7920  137.8160 O   0  0  0  0  0  0  0  0  0  0  0  0
  197.9020  174.5530  138.3530 C   0  0  0  0  0  0  0  0  0  0  0  0
  197.5070  175.2670  139.4760 O   0  0  0  0  0  1  0  0  0  0  0  0
  2 11  1  0  0  0  0
  3 14  1  0  0  0  0
  4  2  1  0  0  0  0
  4 10  1  0  0  0  0
  5 14  1  0  0  0  0
  6 11  1  0  0  0  0
  7 13  1  0  0  0  0
  8  1  1  0  0  0  0
  8 15  1  0  0  0  0
  9  8  2  0  0  0  0
 10  6  1  0  0  0  0
 12  9  1  0  0  0  0
 12  7  2  0  0  0  0
 13 15  2  0  0  0  0
 13  3  1  0  0  0  0
 14  4  2  0  0  0  0
 15  5  1  0  0  0  0
 16 22  1  0  0  0  0
 17 16  1  0  0  0  0
 18 17  1  0  0  0  0
 18 19  1  0  0  0  0
 19 21  1  1  0  0  0
 19 20  1  0  0  0  0
 22 25  1  1  0  0  0
 23 20  1  0  0  0  0
 23 22  1  0  0  0  0
 23  1  1  1  0  0  0
 25 24  1  1  0  0  0
 26 25  1  0  0  0  0
 26 28  1  0  0  0  0
 27 28  2  0  0  0  0
 28 29  1  0  0  0  0
M  END
>  <MODEL>
4

>  <REMARK>
 VINA RESULT:      -6.3      5.625      9.300
  Name = 
  5 active torsions:
  status: ('A' for Active; 'I' for Inactive)
    1  A    between atoms: C_4  and  C_23
    2  A    between atoms: C_10  and  C_15
    3  A    between atoms: C_15  and  C_28
    4  A    between atoms: C_23  and  C_24
    5  A    between atoms: C_24  and  C_26
                            x       y       z     vdW  Elec       q    Type
                         _______ _______ _______ _____ _____    ______ ____

>  <TORSDO>
F 5

$$$$
=
 OpenBabel10222418473D

 29 32  0  0  1  0  0  0  0  0999 V2000
  189.3800  178.4240  139.9640 C   0  0  0  0  0  2  0  0  0  0  0  0
  192.1330  175.1300  134.8350 S   0  0  0  0  0  0  0  0  0  0  0  0
  189.6540  174.2360  136.8350 S   0  0  0  0  0  0  0  0  0  0  0  0
  192.0240  175.6060  136.5500 C   0  0  0  0  0  0  0  0  0  0  0  0
  190.9300  175.7730  139.0520 S   0  0  0  0  0  0  0  0  0  0  0  0
  194.0200  176.7520  135.9340 C   0  0  0  0  0  2  0  0  0  0  0  0
  187.5250  176.0480  136.9280 C   0  0  0  0  0  3  0  0  0  0  0  0
  188.7250  177.5400  138.9510 C   0  0  0  0  0  0  0  0  0  0  0  0
  187.5160  177.9400  138.3700 C   0  0  0  0  0  3  0  0  0  0  0  0
  193.0760  176.4470  136.9900 N   0  0  0  0  0  2  0  0  0  0  0  0
  193.8770  175.6660  134.8720 C   0  0  0  0  0  2  0  0  0  0  0  0
  186.9450  177.1910  137.3850 N   0  0  0  0  0  0  0  0  0  0  0  0
  188.7120  175.5980  137.5050 C   0  0  0  0  0  0  0  0  0  0  0  0
  191.0970  175.1370  137.3900 C   0  0  0  0  0  0  0  0  0  0  0  0
  189.3100  176.3370  138.5250 C   0  0  0  0  0  0  0  0  0  0  0  0
  188.6880  175.9990  142.8790 C   0  0  0  0  0  2  0  0  0  0  0  0
  189.4500  176.4820  143.9530 O   0  0  0  0  0  0  0  0  0  0  0  0
  190.7820  176.2880  143.5670 C   0  0  0  0  0  2  0  0  0  0  0  0
  191.4150  177.5980  143.0860 C   0  0  1  0  0  3  0  0  0  0  0  0
  190.4790  178.4780  142.2510 C   0  0  0  0  0  2  0  0  0  0  0  0
  191.8770  178.3260  144.1820 O   0  0  0  0  0  1  0  0  0  0  0  0
  188.3480  177.1260  141.8940 C   0  0  2  0  0  3  0  0  0  0  0  0
  189.6440  177.6620  141.2590 C   0  0  1  0  0  3  0  0  0  0  0  0
  186.8880  179.0270  141.5930 O   0  0  0  0  0  1  0  0  0  0  0  0
  187.4780  178.2080  142.5590 C   0  0  1  0  0  3  0  0  0  0  0  0
  186.3830  177.5740  143.4070 C   0  0  0  0  0  2  0  0  0  0  0  0
  187.1230  177.9900  145.6330 O   0  0  0  0  0  1  0  0  0  0  0  0
  186.2870  178.2510  144.7300 C   0  0  0  0  0  0  0  0  0  0  0  0
  185.2960  179.1970  144.9560 O   0  0  0  0  0  0  0  0  0  0  0  0
  2 11  1  0  0  0  0
  2  4  1  0  0  0  0
  3 14  1  0  0  0  0
  3 13  1  0  0  0  0
  4 10  1  0  0  0  0
  4 14  2  0  0  0  0
  6 10  1  0  0  0  0
  7 12  2  0  0  0  0
  7 13  1  0  0  0  0
  8  1  1  0  0  0  0
  9  8  2  0  0  0  0
 11  6  1  0  0  0  0
 12  9  1  0  0  0  0
 13 15  2  0  0  0  0
 14  5  1  0  0  0  0
 15  8  1  0  0  0  0
 15  5  1  0  0  0  0
 16 17  1  0  0  0  0
 18 17  1  0  0  0  0
 19 18  1  0  0  0  0
 19 21  1  1  0  0  0
 20 19  1  0  0  0  0
 22 25  1  1  0  0  0
 22 16  1  0  0  0  0
 23  1  1  6  0  0  0
 23 22  1  0  0  0  0
 23 20  1  0  0  0  0
 25 24  1  6  0  0  0
 25 26  1  0  0  0  0
 26 28  1  0  0  0  0
 28 29  2  0  0  0  0
 28 27  1  0  0  0  0
M  END
>  <MODEL>
5

>  <REMARK>
 VINA RESULT:      -5.7      2.376      4.016
  Name = 
  5 active torsions:
  status: ('A' for Active; 'I' for Inactive)
    1  A    between atoms: C_4  and  C_23
    2  A    between atoms: C_10  and  C_15
    3  A    between atoms: C_15  and  C_28
    4  A    between atoms: C_23  and  C_24
    5  A    between atoms: C_24  and  C_26
                            x       y       z     vdW  Elec       q    Type
                         _______ _______ _______ _____ _____    ______ ____

>  <TORSDO>
F 5

$$$$
=
 OpenBabel10222418473D

 29 32  0  0  1  0  0  0  0  0999 V2000
  185.5270  179.0950  141.3070 C   0  0  0  0  0  2  0  0  0  0  0  0
  179.1320  181.0230  140.9620 S   0  0  0  0  0  0  0  0  0  0  0  0
  180.4750  178.4220  142.5040 S   0  0  0  0  0  0  0  0  0  0  0  0
  180.5690  180.1520  140.3660 C   0  0  0  0  0  0  0  0  0  0  0  0
  182.5690  178.2850  140.3830 S   0  0  0  0  0  0  0  0  0  0  0  0
  180.4100  181.8600  138.7120 C   0  0  0  0  0  2  0  0  0  0  0  0
  182.4960  179.0690  144.3280 C   0  0  0  0  0  3  0  0  0  0  0  0
  184.4610  179.0150  142.3530 C   0  0  0  0  0  0  0  0  0  0  0  0
  184.7610  179.3830  143.6700 C   0  0  0  0  0  3  0  0  0  0  0  0
  181.1290  180.6930  139.1820 N   0  0  0  0  0  2  0  0  0  0  0  0
  179.0100  181.8020  139.3170 C   0  0  0  0  0  2  0  0  0  0  0  0
  183.7840  179.3970  144.6200 N   0  0  0  0  0  0  0  0  0  0  0  0
  182.1640  178.6650  143.0350 C   0  0  0  0  0  0  0  0  0  0  0  0
  181.0310  179.0240  140.9130 C   0  0  0  0  0  0  0  0  0  0  0  0
  183.1470  178.6260  142.0470 C   0  0  0  0  0  0  0  0  0  0  0  0
  189.3570  178.9660  141.7120 C   0  0  0  0  0  2  0  0  0  0  0  0
  189.6370  177.6780  142.1910 O   0  0  0  0  0  0  0  0  0  0  0  0
  189.0890  177.6440  143.4790 C   0  0  0  0  0  2  0  0  0  0  0  0
  187.7530  176.8940  143.4910 C   0  0  1  0  0  3  0  0  0  0  0  0
  186.8670  177.1680  142.2700 C   0  0  0  0  0  2  0  0  0  0  0  0
  187.9850  175.5220  143.5930 O   0  0  0  0  0  1  0  0  0  0  0  0
  188.0400  178.9870  140.9250 C   0  0  2  0  0  3  0  0  0  0  0  0
  186.8720  178.6450  141.8680 C   0  0  1  0  0  3  0  0  0  0  0  0
  187.1290  178.4450  138.7540 O   0  0  0  0  0  1  0  0  0  0  0  0
  188.1210  178.0940  139.6730 C   0  0  1  0  0  3  0  0  0  0  0  0
  189.4840  178.2230  139.0060 C   0  0  0  0  0  2  0  0  0  0  0  0
  189.7970  176.6050  137.2850 O   0  0  0  0  0  0  0  0  0  0  0  0
  189.9460  176.9010  138.4990 C   0  0  0  0  0  0  0  0  0  0  0  0
  190.5710  176.0080  139.3580 O   0  0  0  0  0  1  0  0  0  0  0  0
  1  8  1  0  0  0  0
  3 13  1  0  0  0  0
  4 14  2  0  0  0  0
  4  2  1  0  0  0  0
  5 14  1  0  0  0  0
  5 15  1  0  0  0  0
  6 10  1  0  0  0  0
  6 11  1  0  0  0  0
  7 12  1  0  0  0  0
  8  9  1  0  0  0  0
  9 12  2  0  0  0  0
 10  4  1  0  0  0  0
 11  2  1  0  0  0  0
 13  7  2  0  0  0  0
 14  3  1  0  0  0  0
 15  8  2  0  0  0  0
 15 13  1  0  0  0  0
 16 17  1  0  0  0  0
 17 18  1  0  0  0  0
 18 19  1  0  0  0  0
 19 21  1  6  0  0  0
 20 19  1  0  0  0  0
 22 25  1  6  0  0  0
 22 16  1  0  0  0  0
 22 23  1  0  0  0  0
 23  1  1  6  0  0  0
 23 20  1  0  0  0  0
 25 24  1  6  0  0  0
 26 25  1  0  0  0  0
 27 28  2  0  0  0  0
 28 26  1  0  0  0  0
 28 29  1  0  0  0  0
M  END
>  <MODEL>
6

>  <REMARK>
 VINA RESULT:      -5.6      5.120      7.198
  Name = 
  5 active torsions:
  status: ('A' for Active; 'I' for Inactive)
    1  A    between atoms: C_4  and  C_23
    2  A    between atoms: C_10  and  C_15
    3  A    between atoms: C_15  and  C_28
    4  A    between atoms: C_23  and  C_24
    5  A    between atoms: C_24  and  C_26
                            x       y       z     vdW  Elec       q    Type
                         _______ _______ _______ _____ _____    ______ ____

>  <TORSDO>
F 5

$$$$
=
 OpenBabel10222418473D

 29 32  0  0  1  0  0  0  0  0999 V2000
  188.6740  177.8980  140.9140 C   0  0  0  0  0  2  0  0  0  0  0  0
  187.9210  178.5040  147.5320 S   0  0  0  0  0  0  0  0  0  0  0  0
  189.8460  176.4410  145.8030 S   0  0  0  0  0  0  0  0  0  0  0  0
  187.4850  177.8510  145.9310 C   0  0  0  0  0  0  0  0  0  0  0  0
  187.8110  176.4200  143.6210 S   0  0  0  0  0  0  0  0  0  0  0  0
  185.6020  179.2560  146.3250 C   0  0  0  0  0  2  0  0  0  0  0  0
  191.6020  177.7040  144.0280 C   0  0  0  0  0  3  0  0  0  0  0  0
  189.6970  177.7580  141.9950 C   0  0  0  0  0  0  0  0  0  0  0  0
  190.9540  178.3520  141.8330 C   0  0  0  0  0  3  0  0  0  0  0  0
  186.2490  178.3230  145.4250 N   0  0  0  0  0  2  0  0  0  0  0  0
  186.1800  179.0150  147.7170 C   0  0  0  0  0  2  0  0  0  0  0  0
  191.8720  178.3080  142.8390 N   0  0  0  0  0  0  0  0  0  0  0  0
  190.3730  177.0720  144.2170 C   0  0  0  0  0  0  0  0  0  0  0  0
  188.1980  176.9170  145.2930 C   0  0  0  0  0  0  0  0  0  0  0  0
  189.4210  177.0880  143.1970 C   0  0  0  0  0  0  0  0  0  0  0  0
  189.5200  178.5620  137.2130 C   0  0  0  0  0  2  0  0  0  0  0  0
  189.7610  177.2980  136.6540 O   0  0  0  0  0  0  0  0  0  0  0  0
  190.9360  176.8500  137.2670 C   0  0  0  0  0  2  0  0  0  0  0  0
  190.6300  175.8310  138.3700 C   0  0  1  0  0  3  0  0  0  0  0  0
  189.3890  176.1630  139.2060 C   0  0  0  0  0  2  0  0  0  0  0  0
  190.4830  174.5630  137.8100 O   0  0  0  0  0  1  0  0  0  0  0  0
  188.5950  178.4580  138.4330 C   0  0  2  0  0  3  0  0  0  0  0  0
  189.2970  177.6540  139.5430 C   0  0  1  0  0  3  0  0  0  0  0  0
  186.2170  178.4560  138.8610 O   0  0  0  0  0  1  0  0  0  0  0  0
  187.2090  177.9130  138.0410 C   0  0  1  0  0  3  0  0  0  0  0  0
  186.8890  178.2480  136.5890 C   0  0  0  0  0  2  0  0  0  0  0  0
  186.7020  175.9150  136.1430 O   0  0  0  0  0  1  0  0  0  0  0  0
  186.2770  177.0750  135.9050 C   0  0  0  0  0  0  0  0  0  0  0  0
  185.2150  177.2580  135.0300 O   0  0  0  0  0  0  0  0  0  0  0  0
  1  8  1  0  0  0  0
  2 11  1  0  0  0  0
  4  2  1  0  0  0  0
  5 14  1  0  0  0  0
  6 11  1  0  0  0  0
  7 13  1  0  0  0  0
  8 15  1  0  0  0  0
  9  8  2  0  0  0  0
  9 12  1  0  0  0  0
 10  4  1  0  0  0  0
 10  6  1  0  0  0  0
 12  7  2  0  0  0  0
 13  3  1  0  0  0  0
 14  3  1  0  0  0  0
 14  4  2  0  0  0  0
 15  5  1  0  0  0  0
 15 13  2  0  0  0  0
 16 22  1  0  0  0  0
 17 16  1  0  0  0  0
 17 18  1  0  0  0  0
 18 19  1  0  0  0  0
 19 21  1  6  0  0  0
 19 20  1  0  0  0  0
 20 23  1  0  0  0  0
 22 25  1  6  0  0  0
 22 23  1  0  0  0  0
 23  1  1  1  0  0  0
 25 24  1  1  0  0  0
 26 25  1  0  0  0  0
 28 27  1  0  0  0  0
 28 26  1  0  0  0  0
 29 28  2  0  0  0  0
M  END
>  <MODEL>
7

>  <REMARK>
 VINA RESULT:      -5.6      4.339      7.883
  Name = 
  5 active torsions:
  status: ('A' for Active; 'I' for Inactive)
    1  A    between atoms: C_4  and  C_23
    2  A    between atoms: C_10  and  C_15
    3  A    between atoms: C_15  and  C_28
    4  A    between atoms: C_23  and  C_24
    5  A    between atoms: C_24  and  C_26
                            x       y       z     vdW  Elec       q    Type
                         _______ _______ _______ _____ _____    ______ ____

>  <TORSDO>
F 5

$$$$
=
 OpenBabel10222418473D

 29 32  0  0  1  0  0  0  0  0999 V2000
  187.6470  176.6240  143.1300 C   0  0  0  0  0  2  0  0  0  0  0  0
  191.2620  175.5870  137.6000 S   0  0  0  0  0  0  0  0  0  0  0  0
  191.8110  177.6500  140.1280 S   0  0  0  0  0  0  0  0  0  0  0  0
  189.9640  176.3790  138.5300 C   0  0  0  0  0  0  0  0  0  0  0  0
  188.8630  177.9510  140.4810 S   0  0  0  0  0  0  0  0  0  0  0  0
  188.6530  175.0650  137.0380 C   0  0  0  0  0  2  0  0  0  0  0  0
  191.8930  176.4160  142.6370 C   0  0  0  0  0  3  0  0  0  0  0  0
  189.1330  176.6240  142.9620 C   0  0  0  0  0  0  0  0  0  0  0  0
  189.9310  175.9690  143.9070 C   0  0  0  0  0  3  0  0  0  0  0  0
  188.6540  176.0200  138.1270 N   0  0  0  0  0  2  0  0  0  0  0  0
  190.0070  175.1690  136.3430 C   0  0  0  0  0  2  0  0  0  0  0  0
  191.2800  175.8850  143.7300 N   0  0  0  0  0  0  0  0  0  0  0  0
  191.1360  177.1060  141.6900 C   0  0  0  0  0  0  0  0  0  0  0  0
  190.1840  177.3120  139.4620 C   0  0  0  0  0  0  0  0  0  0  0  0
  189.7560  177.2200  141.8550 C   0  0  0  0  0  0  0  0  0  0  0  0
  185.3370  177.7190  146.0150 C   0  0  0  0  0  2  0  0  0  0  0  0
  186.1420  178.4970  146.8600 O   0  0  0  0  0  0  0  0  0  0  0  0
  187.0720  177.6010  147.4000 C   0  0  0  0  0  2  0  0  0  0  0  0
  188.4300  177.7260  146.7000 C   0  0  1  0  0  3  0  0  0  0  0  0
  188.3390  177.9430  145.1850 C   0  0  0  0  0  2  0  0  0  0  0  0
  189.1580  178.7700  147.2710 O   0  0  0  0  0  1  0  0  0  0  0  0
  185.8720  177.7350  144.5760 C   0  0  2  0  0  3  0  0  0  0  0  0
  187.2610  177.0690  144.5370 C   0  0  1  0  0  3  0  0  0  0  0  0
  186.0860  179.1180  142.6070 O   0  0  0  0  0  1  0  0  0  0  0  0
  185.8380  179.1540  143.9820 C   0  0  1  0  0  3  0  0  0  0  0  0
  184.4830  179.8070  144.2220 C   0  0  0  0  0  2  0  0  0  0  0  0
  182.4430  178.5760  144.2890 O   0  0  0  0  0  1  0  0  0  0  0  0
  183.3970  179.0060  143.5900 C   0  0  0  0  0  0  0  0  0  0  0  0
  183.4190  178.7640  142.2230 O   0  0  0  0  0  0  0  0  0  0  0  0
  2  4  1  0  0  0  0
  3 13  1  0  0  0  0
  4 14  2  0  0  0  0
  5 15  1  0  0  0  0
  6 10  1  0  0  0  0
  7 12  1  0  0  0  0
  8  1  1  0  0  0  0
  8  9  1  0  0  0  0
 10  4  1  0  0  0  0
 11  6  1  0  0  0  0
 11  2  1  0  0  0  0
 12  9  2  0  0  0  0
 13 15  1  0  0  0  0
 13  7  2  0  0  0  0
 14  3  1  0  0  0  0
 14  5  1  0  0  0  0
 15  8  2  0  0  0  0
 16 17  1  0  0  0  0
 17 18  1  0  0  0  0
 19 21  1  1  0  0  0
 19 18  1  0  0  0  0
 20 19  1  0  0  0  0
 22 25  1  1  0  0  0
 22 16  1  0  0  0  0
 23  1  1  6  0  0  0
 23 22  1  0  0  0  0
 23 20  1  0  0  0  0
 25 24  1  6  0  0  0
 25 26  1  0  0  0  0
 28 26  1  0  0  0  0
 28 27  1  0  0  0  0
 29 28  2  0  0  0  0
M  END
>  <MODEL>
8

>  <REMARK>
 VINA RESULT:      -5.6      2.423      3.559
  Name = 
  5 active torsions:
  status: ('A' for Active; 'I' for Inactive)
    1  A    between atoms: C_4  and  C_23
    2  A    between atoms: C_10  and  C_15
    3  A    between atoms: C_15  and  C_28
    4  A    between atoms: C_23  and  C_24
    5  A    between atoms: C_24  and  C_26
                            x       y       z     vdW  Elec       q    Type
                         _______ _______ _______ _____ _____    ______ ____

>  <TORSDO>
F 5

$$$$
=
 OpenBabel10222418473D

 29 32  0  0  1  0  0  0  0  0999 V2000
  186.7030  178.7280  140.2660 C   0  0  0  0  0  2  0  0  0  0  0  0
  190.7500  174.3620  137.2180 S   0  0  0  0  0  0  0  0  0  0  0  0
  191.4710  176.7560  139.3850 S   0  0  0  0  0  0  0  0  0  0  0  0
  189.8580  175.9020  137.3250 C   0  0  0  0  0  0  0  0  0  0  0  0
  189.2100  178.3740  138.3030 S   0  0  0  0  0  0  0  0  0  0  0  0
  188.6070  174.8240  135.6080 C   0  0  0  0  0  2  0  0  0  0  0  0
  190.0760  176.5910  141.8040 C   0  0  0  0  0  3  0  0  0  0  0  0
  187.9210  178.0420  140.7970 C   0  0  0  0  0  0  0  0  0  0  0  0
  187.8950  177.4990  142.0870 C   0  0  0  0  0  3  0  0  0  0  0  0
  188.7690  176.0100  136.4250 N   0  0  0  0  0  2  0  0  0  0  0  0
  189.9450  174.0920  135.6020 C   0  0  0  0  0  2  0  0  0  0  0  0
  188.9630  176.7970  142.5600 N   0  0  0  0  0  0  0  0  0  0  0  0
  190.1530  177.1450  140.5260 C   0  0  0  0  0  0  0  0  0  0  0  0
  190.2300  176.9200  138.1060 C   0  0  0  0  0  0  0  0  0  0  0  0
  189.0800  177.8810  140.0240 C   0  0  0  0  0  0  0  0  0  0  0  0
  183.1740  177.7500  141.4670 C   0  0  0  0  0  2  0  0  0  0  0  0
  182.8770  178.6400  142.5100 O   0  0  0  0  0  0  0  0  0  0  0  0
  183.7660  178.3030  143.5370 C   0  0  0  0  0  2  0  0  0  0  0  0
  184.9360  179.2910  143.6020 C   0  0  1  0  0  3  0  0  0  0  0  0
  185.4570  179.7380  142.2310 C   0  0  0  0  0  2  0  0  0  0  0  0
  184.5640  180.4130  144.3420 O   0  0  0  0  0  1  0  0  0  0  0  0
  184.1960  178.3590  140.4980 C   0  0  2  0  0  3  0  0  0  0  0  0
  185.5320  178.5810  141.2320 C   0  0  1  0  0  3  0  0  0  0  0  0
  184.5530  180.1230  138.8850 O   0  0  0  0  0  1  0  0  0  0  0  0
  183.6370  179.6200  139.8130 C   0  0  1  0  0  3  0  0  0  0  0  0
  182.3280  179.3100  139.0990 C   0  0  0  0  0  2  0  0  0  0  0  0
  181.1770  181.3640  138.7330 O   0  0  0  0  0  0  0  0  0  0  0  0
  181.2940  180.3280  139.4370 C   0  0  0  0  0  0  0  0  0  0  0  0
  180.4370  180.1180  140.5090 O   0  0  0  0  0  1  0  0  0  0  0  0
  1  8  1  0  0  0  0
  2  4  1  0  0  0  0
  3 13  1  0  0  0  0
  4 14  2  0  0  0  0
  5 15  1  0  0  0  0
  6 10  1  0  0  0  0
  7 12  1  0  0  0  0
  8  9  1  0  0  0  0
  9 12  2  0  0  0  0
 10  4  1  0  0  0  0
 11  6  1  0  0  0  0
 11  2  1  0  0  0  0
 13  7  2  0  0  0  0
 14  5  1  0  0  0  0
 14  3  1  0  0  0  0
 15 13  1  0  0  0  0
 15  8  2  0  0  0  0
 16 17  1  0  0  0  0
 17 18  1  0  0  0  0
 18 19  1  0  0  0  0
 19 21  1  1  0  0  0
 20 19  1  0  0  0  0
 22 25  1  1  0  0  0
 22 23  1  0  0  0  0
 22 16  1  0  0  0  0
 23  1  1  6  0  0  0
 23 20  1  0  0  0  0
 25 24  1  6  0  0  0
 26 28  1  0  0  0  0
 26 25  1  0  0  0  0
 27 28  2  0  0  0  0
 28 29  1  0  0  0  0
M  END
>  <MODEL>
9

>  <REMARK>
 VINA RESULT:      -5.5      3.837      5.265
  Name = 
  5 active torsions:
  status: ('A' for Active; 'I' for Inactive)
    1  A    between atoms: C_4  and  C_23
    2  A    between atoms: C_10  and  C_15
    3  A    between atoms: C_15  and  C_28
    4  A    between atoms: C_23  and  C_24
    5  A    between atoms: C_24  and  C_26
                            x       y       z     vdW  Elec       q    Type
                         _______ _______ _______ _____ _____    ______ ____

>  <TORSDO>
F 5

$$$$
