=
 OpenBabel10222416033D

 32 34  0  0  1  0  0  0  0  0999 V2000
  189.3200  177.2270  141.6170 C   0  0  1  0  0  3  0  0  0  0  0  0
  191.6400  177.5400  141.1250 O   0  0  0  0  0  0  0  0  0  0  0  0
  190.5500  176.9890  140.8040 C   0  0  0  0  0  0  0  0  0  0  0  0
  190.4740  176.1540  139.6910 O   0  0  0  0  0  0  0  0  0  0  0  0
  191.0200  176.5280  138.4310 C   0  0  0  0  0  2  0  0  0  0  0  0
  192.2990  175.7560  138.1480 C   0  0  1  0  0  3  0  0  0  0  0  0
  192.0540  174.6720  137.1160 C   0  0  0  0  0  1  0  0  0  0  0  0
  193.3380  176.6580  137.6790 N   0  0  0  0  0  1  0  0  0  0  0  0
  189.5960  178.2030  142.6630 N   0  0  0  0  0  2  0  0  0  0  0  0
  189.6230  177.4910  143.9350 C   0  0  1  0  0  3  0  0  0  0  0  0
  191.7000  178.8150  144.5320 C   0  0  0  0  0  1  0  0  0  0  0  0
  189.9200  176.8850  146.6520 N   0  0  0  0  0  0  0  0  0  0  0  0
  188.5870  177.2250  146.1460 C   0  0  0  0  0  2  0  0  0  0  0  0
  191.0350  177.4450  144.5380 C   0  0  1  0  0  3  0  0  0  0  0  0
  191.0190  176.9100  145.9480 C   0  0  0  0  0  0  0  0  0  0  0  0
  188.6560  178.1240  144.9190 C   0  0  0  0  0  2  0  0  0  0  0  0
  192.2420  176.5020  146.5020 O   0  0  0  0  0  0  0  0  0  0  0  0
  191.8490  174.7420  147.9200 O   0  0  0  0  0  0  0  0  0  0  0  0
  193.1890  176.4200  148.7820 N   0  0  0  0  0  1  0  0  0  0  0  0
  192.4120  175.8510  147.7320 C   0  0  0  0  0  0  0  0  0  0  0  0
  188.1720  177.7090  140.7430 C   0  0  0  0  0  2  0  0  0  0  0  0
  187.2710  178.6430  141.5320 C   0  0  0  0  0  2  0  0  0  0  0  0
  186.3330  177.8680  142.3300 N   0  0  0  0  0  2  0  0  0  0  0  0
  182.9090  179.0290  143.0030 N   0  0  0  0  0  0  0  0  0  0  0  0
  183.9650  178.4810  142.2150 C   0  0  0  0  0  0  0  0  0  0  0  0
  185.1360  178.4410  142.8640 C   0  0  0  0  0  0  0  0  0  0  0  0
  185.0420  179.2270  144.1360 C   0  0  1  0  0  3  0  0  0  0  0  0
  183.5710  179.3460  144.0580 C   0  0  0  0  0  0  0  0  0  0  0  0
  183.7420  177.8720  140.9470 N   0  0  0  0  0  1  0  0  0  0  0  0
  184.8590  178.5380  145.3850 C   0  0  1  0  0  3  0  0  0  0  0  0
  185.6580  179.2230  146.4770 C   0  0  0  0  0  1  0  0  0  0  0  0
  183.4690  178.9420  145.4700 N   0  0  0  0  0  2  0  0  0  0  0  0
  1 21  1  6  0  0  0
  1  9  1  0  0  0  0
  3  2  2  0  0  0  0
  3  1  1  0  0  0  0
  4  3  1  0  0  0  0
  5  4  1  0  0  0  0
  6  7  1  6  0  0  0
  6  5  1  0  0  0  0
  8  6  1  0  0  0  0
 10  9  1  6  0  0  0
 10 14  1  0  0  0  0
 10 16  1  0  0  0  0
 13 12  1  0  0  0  0
 14 11  1  1  0  0  0
 14 15  1  0  0  0  0
 15 17  1  0  0  0  0
 15 12  2  0  0  0  0
 16 13  1  0  0  0  0
 17 20  1  0  0  0  0
 20 18  2  0  0  0  0
 20 19  1  0  0  0  0
 21 22  1  0  0  0  0
 22 23  1  0  0  0  0
 23 26  1  0  0  0  0
 24 28  2  0  0  0  0
 25 26  2  0  0  0  0
 25 24  1  0  0  0  0
 27 26  1  6  0  0  0
 27 30  1  0  0  0  0
 28 27  1  0  0  0  0
 28 32  1  0  0  0  0
 29 25  1  0  0  0  0
 30 32  1  0  0  0  0
 30 31  1  1  0  0  0
M  END
>  <MODEL>
1

>  <REMARK>
 VINA RESULT:      -7.6      0.000      0.000
  Name = 
  12 active torsions:
  status: ('A' for Active; 'I' for Inactive)
    1  A    between atoms: N_1  and  C_9
    2  A    between atoms: N_1  and  C_13
    3  A    between atoms: O_3  and  C_27
    4  A    between atoms: O_3  and  C_30
    5  A    between atoms: C_5  and  C_32
    6  A    between atoms: C_7  and  C_13
    7  A    between atoms: C_7  and  C_24
    8  A    between atoms: O_8  and  C_20
    9  A    between atoms: O_8  and  C_32
   10  A    between atoms: C_10  and  N_15
   11  A    between atoms: C_13  and  C_20
   12  A    between atoms: N_15  and  C_24
                            x       y       z     vdW  Elec       q    Type
                         _______ _______ _______ _____ _____    ______ ____

>  <TORSDO>
F 12

$$$$
=
 OpenBabel10222416033D

 32 34  0  0  1  0  0  0  0  0999 V2000
  188.5580  177.4960  140.8100 C   0  0  1  0  0  3  0  0  0  0  0  0
  190.2000  177.8170  139.1010 O   0  0  0  0  0  0  0  0  0  0  0  0
  189.0130  178.0120  139.4850 C   0  0  0  0  0  0  0  0  0  0  0  0
  188.1100  178.7090  138.6840 O   0  0  0  0  0  0  0  0  0  0  0  0
  188.0820  178.5510  137.2690 C   0  0  0  0  0  2  0  0  0  0  0  0
  186.7500  177.9740  136.8180 C   0  0  1  0  0  3  0  0  0  0  0  0
  186.8680  176.4830  136.5670 C   0  0  0  0  0  1  0  0  0  0  0  0
  185.7270  178.2250  137.8190 N   0  0  0  0  0  1  0  0  0  0  0  0
  189.6370  176.7600  141.4540 N   0  0  0  0  0  2  0  0  0  0  0  0
  189.9910  177.4740  142.6750 C   0  0  1  0  0  3  0  0  0  0  0  0
  191.0190  175.3210  143.5310 C   0  0  0  0  0  1  0  0  0  0  0  0
  191.3640  178.3650  144.9460 N   0  0  0  0  0  0  0  0  0  0  0  0
  191.4710  179.1410  143.7070 C   0  0  0  0  0  2  0  0  0  0  0  0
  190.1480  176.5230  143.8720 C   0  0  1  0  0  3  0  0  0  0  0  0
  190.7300  177.2310  145.0700 C   0  0  0  0  0  0  0  0  0  0  0  0
  191.2660  178.2730  142.4730 C   0  0  0  0  0  2  0  0  0  0  0  0
  190.6250  176.5930  146.3150 O   0  0  0  0  0  0  0  0  0  0  0  0
  192.3370  175.1970  146.9330 O   0  0  0  0  0  0  0  0  0  0  0  0
  192.0550  177.0610  148.2750 N   0  0  0  0  0  1  0  0  0  0  0  0
  191.6920  176.2530  147.1580 C   0  0  0  0  0  0  0  0  0  0  0  0
  188.0930  178.6330  141.7080 C   0  0  0  0  0  2  0  0  0  0  0  0
  186.5780  178.7410  141.6710 C   0  0  0  0  0  2  0  0  0  0  0  0
  185.9950  177.8740  142.6830 N   0  0  0  0  0  2  0  0  0  0  0  0
  183.5220  179.1800  145.0710 N   0  0  0  0  0  0  0  0  0  0  0  0
  184.0080  178.7810  143.7890 C   0  0  0  0  0  0  0  0  0  0  0  0
  185.2900  178.3940  143.8140 C   0  0  0  0  0  0  0  0  0  0  0  0
  185.9050  178.7460  145.1340 C   0  0  1  0  0  3  0  0  0  0  0  0
  184.6020  179.0650  145.7560 C   0  0  0  0  0  0  0  0  0  0  0  0
  183.1590  178.6340  142.6560 N   0  0  0  0  0  1  0  0  0  0  0  0
  186.0650  177.7280  146.1370 C   0  0  1  0  0  3  0  0  0  0  0  0
  187.3740  177.9300  146.8770 C   0  0  0  0  0  1  0  0  0  0  0  0
  184.9700  178.2540  146.9280 N   0  0  0  0  0  2  0  0  0  0  0  0
  1  9  1  0  0  0  0
  1 21  1  1  0  0  0
  2  3  2  0  0  0  0
  3  1  1  0  0  0  0
  4  3  1  0  0  0  0
  5  4  1  0  0  0  0
  6  7  1  1  0  0  0
  6  5  1  0  0  0  0
  6  8  1  0  0  0  0
 10  9  1  6  0  0  0
 10 14  1  0  0  0  0
 12 15  2  0  0  0  0
 13 12  1  0  0  0  0
 14 11  1  6  0  0  0
 14 15  1  0  0  0  0
 15 17  1  0  0  0  0
 16 10  1  0  0  0  0
 16 13  1  0  0  0  0
 17 20  1  0  0  0  0
 18 20  2  0  0  0  0
 20 19  1  0  0  0  0
 22 21  1  0  0  0  0
 22 23  1  0  0  0  0
 23 26  1  0  0  0  0
 24 28  2  0  0  0  0
 25 26  2  0  0  0  0
 25 24  1  0  0  0  0
 27 26  1  6  0  0  0
 27 28  1  0  0  0  0
 27 30  1  0  0  0  0
 28 32  1  0  0  0  0
 29 25  1  0  0  0  0
 30 31  1  1  0  0  0
 30 32  1  0  0  0  0
M  END
>  <MODEL>
2

>  <REMARK>
 VINA RESULT:      -7.4      2.048      2.895
  Name = 
  12 active torsions:
  status: ('A' for Active; 'I' for Inactive)
    1  A    between atoms: N_1  and  C_9
    2  A    between atoms: N_1  and  C_13
    3  A    between atoms: O_3  and  C_27
    4  A    between atoms: O_3  and  C_30
    5  A    between atoms: C_5  and  C_32
    6  A    between atoms: C_7  and  C_13
    7  A    between atoms: C_7  and  C_24
    8  A    between atoms: O_8  and  C_20
    9  A    between atoms: O_8  and  C_32
   10  A    between atoms: C_10  and  N_15
   11  A    between atoms: C_13  and  C_20
   12  A    between atoms: N_15  and  C_24
                            x       y       z     vdW  Elec       q    Type
                         _______ _______ _______ _____ _____    ______ ____

>  <TORSDO>
F 12

$$$$
=
 OpenBabel10222416033D

 32 34  0  0  1  0  0  0  0  0999 V2000
  187.0040  178.2710  141.2900 C   0  0  1  0  0  3  0  0  0  0  0  0
  185.2540  179.5180  140.2400 O   0  0  0  0  0  0  0  0  0  0  0  0
  185.7470  179.0770  141.3150 C   0  0  0  0  0  0  0  0  0  0  0  0
  185.1320  179.3330  142.5390 O   0  0  0  0  0  0  0  0  0  0  0  0
  184.0830  178.5120  143.0400 C   0  0  0  0  0  2  0  0  0  0  0  0
  183.2350  179.2750  144.0450 C   0  0  1  0  0  3  0  0  0  0  0  0
  181.7860  178.8320  143.9710 C   0  0  0  0  0  1  0  0  0  0  0  0
  183.7450  179.0730  145.3910 N   0  0  0  0  0  1  0  0  0  0  0  0
  187.8560  178.7130  140.1940 N   0  0  0  0  0  2  0  0  0  0  0  0
  188.5000  177.5320  139.6320 C   0  0  1  0  0  3  0  0  0  0  0  0
  187.7410  178.3160  137.3440 C   0  0  0  0  0  1  0  0  0  0  0  0
  189.9290  175.8170  137.9430 N   0  0  0  0  0  0  0  0  0  0  0  0
  190.6280  176.4410  139.0700 C   0  0  0  0  0  2  0  0  0  0  0  0
  187.8820  177.1260  138.2850 C   0  0  1  0  0  3  0  0  0  0  0  0
  188.6900  176.0510  137.6050 C   0  0  0  0  0  0  0  0  0  0  0  0
  189.9920  177.7650  139.4720 C   0  0  0  0  0  2  0  0  0  0  0  0
  188.0860  175.3530  136.5480 O   0  0  0  0  0  0  0  0  0  0  0  0
  186.6290  173.7140  137.2220 O   0  0  0  0  0  0  0  0  0  0  0  0
  185.7160  175.3390  135.8500 N   0  0  0  0  0  1  0  0  0  0  0  0
  186.8100  174.7730  136.5670 C   0  0  0  0  0  0  0  0  0  0  0  0
  187.7510  178.3830  142.6100 C   0  0  0  0  0  2  0  0  0  0  0  0
  187.5280  177.1330  143.4430 C   0  0  0  0  0  2  0  0  0  0  0  0
  187.7030  177.4400  144.8540 N   0  0  0  0  0  2  0  0  0  0  0  0
  190.4750  176.9370  147.2180 N   0  0  0  0  0  0  0  0  0  0  0  0
  189.1150  177.1300  146.8310 C   0  0  0  0  0  0  0  0  0  0  0  0
  188.9670  177.3040  145.5110 C   0  0  0  0  0  0  0  0  0  0  0  0
  190.3050  177.5060  144.8680 C   0  0  1  0  0  3  0  0  0  0  0  0
  191.0470  177.0900  146.0770 C   0  0  0  0  0  0  0  0  0  0  0  0
  188.0270  176.9610  147.7340 N   0  0  0  0  0  1  0  0  0  0  0  0
  190.9350  176.4120  144.1800 C   0  0  1  0  0  3  0  0  0  0  0  0
  191.6480  176.9200  142.9410 C   0  0  0  0  0  1  0  0  0  0  0  0
  191.8940  176.2150  145.2500 N   0  0  0  0  0  2  0  0  0  0  0  0
  1  3  1  0  0  0  0
  1 21  1  1  0  0  0
  2  3  2  0  0  0  0
  3  4  1  0  0  0  0
  4  5  1  0  0  0  0
  5  6  1  0  0  0  0
  6  7  1  1  0  0  0
  6  8  1  0  0  0  0
  9  1  1  0  0  0  0
 10  9  1  6  0  0  0
 12 13  1  0  0  0  0
 13 16  1  0  0  0  0
 14 11  1  6  0  0  0
 14 10  1  0  0  0  0
 15 12  2  0  0  0  0
 15 14  1  0  0  0  0
 16 10  1  0  0  0  0
 17 20  1  0  0  0  0
 17 15  1  0  0  0  0
 19 20  1  0  0  0  0
 20 18  2  0  0  0  0
 21 22  1  0  0  0  0
 22 23  1  0  0  0  0
 23 26  1  0  0  0  0
 25 24  1  0  0  0  0
 25 29  1  0  0  0  0
 26 25  2  0  0  0  0
 27 26  1  1  0  0  0
 27 28  1  0  0  0  0
 28 24  2  0  0  0  0
 30 31  1  6  0  0  0
 30 27  1  0  0  0  0
 30 32  1  0  0  0  0
 32 28  1  0  0  0  0
M  END
>  <MODEL>
3

>  <REMARK>
 VINA RESULT:      -7.3      3.288      8.273
  Name = 
  12 active torsions:
  status: ('A' for Active; 'I' for Inactive)
    1  A    between atoms: N_1  and  C_9
    2  A    between atoms: N_1  and  C_13
    3  A    between atoms: O_3  and  C_27
    4  A    between atoms: O_3  and  C_30
    5  A    between atoms: C_5  and  C_32
    6  A    between atoms: C_7  and  C_13
    7  A    between atoms: C_7  and  C_24
    8  A    between atoms: O_8  and  C_20
    9  A    between atoms: O_8  and  C_32
   10  A    between atoms: C_10  and  N_15
   11  A    between atoms: C_13  and  C_20
   12  A    between atoms: N_15  and  C_24
                            x       y       z     vdW  Elec       q    Type
                         _______ _______ _______ _____ _____    ______ ____

>  <TORSDO>
F 12

$$$$
=
 OpenBabel10222416033D

 32 34  0  0  1  0  0  0  0  0999 V2000
  187.0640  178.2620  141.0970 C   0  0  1  0  0  3  0  0  0  0  0  0
  185.3200  179.6020  142.0370 O   0  0  0  0  0  0  0  0  0  0  0  0
  185.8330  179.1020  140.9980 C   0  0  0  0  0  0  0  0  0  0  0  0
  185.2640  179.3240  139.7450 O   0  0  0  0  0  0  0  0  0  0  0  0
  183.8560  179.4220  139.5650 C   0  0  0  0  0  2  0  0  0  0  0  0
  183.2980  178.1420  138.9630 C   0  0  1  0  0  3  0  0  0  0  0  0
  184.2820  177.5400  137.9780 C   0  0  0  0  0  1  0  0  0  0  0  0
  182.9980  177.1820  140.0100 N   0  0  0  0  0  1  0  0  0  0  0  0
  188.0370  178.6860  140.1000 N   0  0  0  0  0  2  0  0  0  0  0  0
  188.6400  177.4850  139.5330 C   0  0  1  0  0  3  0  0  0  0  0  0
  187.9340  178.3180  137.2450 C   0  0  0  0  0  1  0  0  0  0  0  0
  190.0170  175.7300  137.8420 N   0  0  0  0  0  0  0  0  0  0  0  0
  190.7290  176.3160  138.9810 C   0  0  0  0  0  2  0  0  0  0  0  0
  188.0190  177.1160  138.1770 C   0  0  1  0  0  3  0  0  0  0  0  0
  188.7910  176.0150  137.4950 C   0  0  0  0  0  0  0  0  0  0  0  0
  190.1410  177.6610  139.3890 C   0  0  0  0  0  2  0  0  0  0  0  0
  188.1700  175.3520  136.4260 O   0  0  0  0  0  0  0  0  0  0  0  0
  186.0470  175.4270  135.5590 O   0  0  0  0  0  0  0  0  0  0  0  0
  186.3520  173.9140  137.2830 N   0  0  0  0  0  1  0  0  0  0  0  0
  186.8380  174.9130  136.3910 C   0  0  0  0  0  0  0  0  0  0  0  0
  187.6710  178.3460  142.4890 C   0  0  0  0  0  2  0  0  0  0  0  0
  187.4560  177.0380  143.2320 C   0  0  0  0  0  2  0  0  0  0  0  0
  188.2560  177.0210  144.4470 N   0  0  0  0  0  0  0  0  0  0  0  0
  187.7320  178.1190  147.9170 N   0  0  0  0  0  0  0  0  0  0  0  0
  188.4680  177.5720  146.8230 C   0  0  1  0  0  3  0  0  0  0  0  0
  187.7380  177.4650  145.7040 C   0  0  0  0  0  0  0  0  0  0  0  0
  186.2920  177.7080  146.0110 C   0  0  1  0  0  3  0  0  0  0  0  0
  186.5760  178.2260  147.3660 C   0  0  0  0  0  0  0  0  0  0  0  0
  189.8730  177.3490  146.8760 N   0  0  0  0  0  1  0  0  0  0  0  0
  185.7080  178.9870  145.7110 C   0  0  1  0  0  3  0  0  0  0  0  0
  184.2890  178.8030  145.2070 C   0  0  0  0  0  1  0  0  0  0  0  0
  185.6840  179.3690  147.1090 N   0  0  0  0  0  2  0  0  0  0  0  0
  1 21  1  1  0  0  0
  3  1  1  0  0  0  0
  3  2  2  0  0  0  0
  4  3  1  0  0  0  0
  5  4  1  0  0  0  0
  6  7  1  6  0  0  0
  6  5  1  0  0  0  0
  6  8  1  0  0  0  0
  9  1  1  0  0  0  0
 10  9  1  6  0  0  0
 12 13  1  0  0  0  0
 13 16  1  0  0  0  0
 14 11  1  6  0  0  0
 14 10  1  0  0  0  0
 15 12  2  0  0  0  0
 15 14  1  0  0  0  0
 16 10  1  0  0  0  0
 17 15  1  0  0  0  0
 18 20  2  0  0  0  0
 20 17  1  0  0  0  0
 20 19  1  0  0  0  0
 21 22  1  0  0  0  0
 22 23  1  0  0  0  0
 23 26  2  0  0  0  0
 25 29  1  6  0  0  0
 25 24  1  0  0  0  0
 26 25  1  0  0  0  0
 27 26  1  6  0  0  0
 27 28  1  0  0  0  0
 28 24  2  0  0  0  0
 30 31  1  1  0  0  0
 30 27  1  0  0  0  0
 30 32  1  0  0  0  0
 32 28  1  0  0  0  0
M  END
>  <MODEL>
4

>  <REMARK>
 VINA RESULT:      -7.3      3.529      7.351
  Name = 
  12 active torsions:
  status: ('A' for Active; 'I' for Inactive)
    1  A    between atoms: N_1  and  C_9
    2  A    between atoms: N_1  and  C_13
    3  A    between atoms: O_3  and  C_27
    4  A    between atoms: O_3  and  C_30
    5  A    between atoms: C_5  and  C_32
    6  A    between atoms: C_7  and  C_13
    7  A    between atoms: C_7  and  C_24
    8  A    between atoms: O_8  and  C_20
    9  A    between atoms: O_8  and  C_32
   10  A    between atoms: C_10  and  N_15
   11  A    between atoms: C_13  and  C_20
   12  A    between atoms: N_15  and  C_24
                            x       y       z     vdW  Elec       q    Type
                         _______ _______ _______ _____ _____    ______ ____

>  <TORSDO>
F 12

$$$$
=
 OpenBabel10222416033D

 32 34  0  0  1  0  0  0  0  0999 V2000
  188.1790  178.3710  141.0940 C   0  0  1  0  0  3  0  0  0  0  0  0
  186.1750  178.7790  139.8550 O   0  0  0  0  0  0  0  0  0  0  0  0
  186.7120  178.6270  140.9870 C   0  0  0  0  0  0  0  0  0  0  0  0
  185.9500  178.6970  142.1520 O   0  0  0  0  0  0  0  0  0  0  0  0
  184.5270  178.7060  142.1210 C   0  0  0  0  0  2  0  0  0  0  0  0
  183.9560  178.5990  143.5260 C   0  0  1  0  0  3  0  0  0  0  0  0
  184.8040  179.3820  144.5110 C   0  0  0  0  0  1  0  0  0  0  0  0
  182.5890  179.0890  143.5530 N   0  0  0  0  0  1  0  0  0  0  0  0
  188.4130  177.0770  141.7220 N   0  0  0  0  0  2  0  0  0  0  0  0
  189.3610  177.2800  142.8110 C   0  0  1  0  0  3  0  0  0  0  0  0
  187.4710  176.7950  144.4290 C   0  0  0  0  0  1  0  0  0  0  0  0
  190.7410  177.0300  145.2340 N   0  0  0  0  0  0  0  0  0  0  0  0
  191.2790  176.3650  144.0440 C   0  0  0  0  0  2  0  0  0  0  0  0
  188.6600  177.6940  144.1140 C   0  0  1  0  0  3  0  0  0  0  0  0
  189.6110  177.6840  145.2830 C   0  0  0  0  0  0  0  0  0  0  0  0
  190.1870  176.0270  143.0380 C   0  0  0  0  0  2  0  0  0  0  0  0
  189.2100  178.3460  146.4530 O   0  0  0  0  0  0  0  0  0  0  0  0
  189.5640  178.3120  148.7200 O   0  0  0  0  0  0  0  0  0  0  0  0
  188.3210  176.5440  147.8910 N   0  0  0  0  0  1  0  0  0  0  0  0
  189.0450  177.7590  147.7160 C   0  0  0  0  0  0  0  0  0  0  0  0
  188.8420  178.4160  139.7260 C   0  0  0  0  0  2  0  0  0  0  0  0
  189.4530  177.0650  139.3980 C   0  0  0  0  0  2  0  0  0  0  0  0
  190.9010  177.1310  139.5240 N   0  0  0  0  0  2  0  0  0  0  0  0
  193.7530  176.0570  137.4660 N   0  0  0  0  0  0  0  0  0  0  0  0
  193.1130  176.7050  138.5660 C   0  0  0  0  0  0  0  0  0  0  0  0
  191.7760  176.6320  138.5090 C   0  0  0  0  0  0  0  0  0  0  0  0
  191.3480  176.1180  137.1690 C   0  0  1  0  0  3  0  0  0  0  0  0
  192.7170  175.7070  136.7910 C   0  0  0  0  0  0  0  0  0  0  0  0
  193.8320  177.2020  139.6890 N   0  0  0  0  0  1  0  0  0  0  0  0
  190.9620  174.7410  137.0270 C   0  0  1  0  0  3  0  0  0  0  0  0
  189.7980  174.6250  136.0610 C   0  0  0  0  0  1  0  0  0  0  0  0
  192.1970  174.4040  136.3460 N   0  0  0  0  0  2  0  0  0  0  0  0
  1 21  1  6  0  0  0
  1  9  1  0  0  0  0
  2  3  2  0  0  0  0
  3  1  1  0  0  0  0
  3  4  1  0  0  0  0
  5  4  1  0  0  0  0
  5  6  1  0  0  0  0
  6  8  1  0  0  0  0
  6  7  1  1  0  0  0
 10  9  1  6  0  0  0
 10 16  1  0  0  0  0
 10 14  1  0  0  0  0
 12 15  2  0  0  0  0
 13 12  1  0  0  0  0
 14 11  1  1  0  0  0
 14 15  1  0  0  0  0
 15 17  1  0  0  0  0
 16 13  1  0  0  0  0
 17 20  1  0  0  0  0
 20 19  1  0  0  0  0
 20 18  2  0  0  0  0
 22 23  1  0  0  0  0
 22 21  1  0  0  0  0
 24 25  1  0  0  0  0
 25 29  1  0  0  0  0
 26 25  2  0  0  0  0
 26 23  1  0  0  0  0
 27 28  1  6  0  0  0
 27 26  1  0  0  0  0
 28 24  2  0  0  0  0
 30 31  1  6  0  0  0
 30 27  1  0  0  0  0
 32 28  1  0  0  0  0
 32 30  1  0  0  0  0
M  END
>  <MODEL>
5

>  <REMARK>
 VINA RESULT:      -7.2      2.386      7.577
  Name = 
  12 active torsions:
  status: ('A' for Active; 'I' for Inactive)
    1  A    between atoms: N_1  and  C_9
    2  A    between atoms: N_1  and  C_13
    3  A    between atoms: O_3  and  C_27
    4  A    between atoms: O_3  and  C_30
    5  A    between atoms: C_5  and  C_32
    6  A    between atoms: C_7  and  C_13
    7  A    between atoms: C_7  and  C_24
    8  A    between atoms: O_8  and  C_20
    9  A    between atoms: O_8  and  C_32
   10  A    between atoms: C_10  and  N_15
   11  A    between atoms: C_13  and  C_20
   12  A    between atoms: N_15  and  C_24
                            x       y       z     vdW  Elec       q    Type
                         _______ _______ _______ _____ _____    ______ ____

>  <TORSDO>
F 12

$$$$
=
 OpenBabel10222416033D

 32 34  0  0  1  0  0  0  0  0999 V2000
  189.9860  177.7940  141.4890 C   0  0  1  0  0  3  0  0  0  0  0  0
  192.2740  177.1930  141.8400 O   0  0  0  0  0  0  0  0  0  0  0  0
  191.0750  177.0790  142.2180 C   0  0  0  0  0  0  0  0  0  0  0  0
  190.7470  176.2850  143.3160 O   0  0  0  0  0  0  0  0  0  0  0  0
  191.6850  176.0090  144.3510 C   0  0  0  0  0  2  0  0  0  0  0  0
  191.4640  176.9320  145.5380 C   0  0  1  0  0  3  0  0  0  0  0  0
  189.9840  177.1820  145.7570 C   0  0  0  0  0  1  0  0  0  0  0  0
  192.0500  176.3590  146.7380 N   0  0  0  0  0  1  0  0  0  0  0  0
  190.2760  177.8200  140.0620 N   0  0  0  0  0  2  0  0  0  0  0  0
  189.1490  177.2030  139.3710 C   0  0  1  0  0  3  0  0  0  0  0  0
  188.9530  179.3170  137.9870 C   0  0  0  0  0  1  0  0  0  0  0  0
  187.3380  176.4140  137.3880 N   0  0  0  0  0  0  0  0  0  0  0  0
  188.4350  175.5090  137.7430 C   0  0  0  0  0  2  0  0  0  0  0  0
  188.2000  178.2500  138.7710 C   0  0  1  0  0  3  0  0  0  0  0  0
  187.1680  177.6140  137.8740 C   0  0  0  0  0  0  0  0  0  0  0  0
  189.6420  176.2620  138.2870 C   0  0  0  0  0  2  0  0  0  0  0  0
  186.0480  178.3830  137.5240 O   0  0  0  0  0  0  0  0  0  0  0  0
  184.9400  179.6420  139.0900 O   0  0  0  0  0  0  0  0  0  0  0  0
  183.8020  177.7680  138.3480 N   0  0  0  0  0  1  0  0  0  0  0  0
  184.9340  178.6340  138.3370 C   0  0  0  0  0  0  0  0  0  0  0  0
  188.6380  177.1340  141.7370 C   0  0  0  0  0  2  0  0  0  0  0  0
  187.9140  177.8360  142.8710 C   0  0  0  0  0  2  0  0  0  0  0  0
  186.4790  177.6260  142.7490 N   0  0  0  0  0  2  0  0  0  0  0  0
  183.5360  179.1480  144.3440 N   0  0  0  0  0  0  0  0  0  0  0  0
  184.2950  178.6040  143.2640 C   0  0  0  0  0  0  0  0  0  0  0  0
  185.5400  178.2620  143.6200 C   0  0  0  0  0  0  0  0  0  0  0  0
  185.8460  178.7980  144.9850 C   0  0  1  0  0  3  0  0  0  0  0  0
  184.4380  179.1530  145.2590 C   0  0  0  0  0  0  0  0  0  0  0  0
  183.7180  178.2880  142.0010 N   0  0  0  0  0  1  0  0  0  0  0  0
  185.7820  177.9210  146.1230 C   0  0  1  0  0  3  0  0  0  0  0  0
  186.8940  178.2550  147.0990 C   0  0  0  0  0  1  0  0  0  0  0  0
  184.5380  178.5090  146.5790 N   0  0  0  0  0  2  0  0  0  0  0  0
  1 21  1  6  0  0  0
  1  3  1  0  0  0  0
  2  3  2  0  0  0  0
  3  4  1  0  0  0  0
  4  5  1  0  0  0  0
  5  6  1  0  0  0  0
  6  7  1  1  0  0  0
  6  8  1  0  0  0  0
  9  1  1  0  0  0  0
 10  9  1  6  0  0  0
 12 13  1  0  0  0  0
 12 15  2  0  0  0  0
 13 16  1  0  0  0  0
 14 11  1  6  0  0  0
 14 10  1  0  0  0  0
 15 14  1  0  0  0  0
 16 10  1  0  0  0  0
 17 15  1  0  0  0  0
 17 20  1  0  0  0  0
 20 19  1  0  0  0  0
 20 18  2  0  0  0  0
 21 22  1  0  0  0  0
 23 22  1  0  0  0  0
 23 26  1  0  0  0  0
 24 28  2  0  0  0  0
 25 26  2  0  0  0  0
 25 24  1  0  0  0  0
 27 26  1  6  0  0  0
 27 28  1  0  0  0  0
 27 30  1  0  0  0  0
 28 32  1  0  0  0  0
 29 25  1  0  0  0  0
 30 32  1  0  0  0  0
 30 31  1  1  0  0  0
M  END
>  <MODEL>
6

>  <REMARK>
 VINA RESULT:      -7.1      2.526      6.469
  Name = 
  12 active torsions:
  status: ('A' for Active; 'I' for Inactive)
    1  A    between atoms: N_1  and  C_9
    2  A    between atoms: N_1  and  C_13
    3  A    between atoms: O_3  and  C_27
    4  A    between atoms: O_3  and  C_30
    5  A    between atoms: C_5  and  C_32
    6  A    between atoms: C_7  and  C_13
    7  A    between atoms: C_7  and  C_24
    8  A    between atoms: O_8  and  C_20
    9  A    between atoms: O_8  and  C_32
   10  A    between atoms: C_10  and  N_15
   11  A    between atoms: C_13  and  C_20
   12  A    between atoms: N_15  and  C_24
                            x       y       z     vdW  Elec       q    Type
                         _______ _______ _______ _____ _____    ______ ____

>  <TORSDO>
F 12

$$$$
=
 OpenBabel10222416033D

 32 34  0  0  1  0  0  0  0  0999 V2000
  187.7610  178.3060  141.6600 C   0  0  1  0  0  3  0  0  0  0  0  0
  185.6580  179.4060  141.3640 O   0  0  0  0  0  0  0  0  0  0  0  0
  186.3650  178.6370  142.0730 C   0  0  0  0  0  0  0  0  0  0  0  0
  185.8590  178.0870  143.2500 O   0  0  0  0  0  0  0  0  0  0  0  0
  185.5680  178.8880  144.3900 C   0  0  0  0  0  2  0  0  0  0  0  0
  185.5250  178.0370  145.6500 C   0  0  1  0  0  3  0  0  0  0  0  0
  186.9100  177.9010  146.2520 C   0  0  0  0  0  1  0  0  0  0  0  0
  184.6190  178.6230  146.6230 N   0  0  0  0  0  1  0  0  0  0  0  0
  188.2520  177.1720  142.4310 N   0  0  0  0  0  2  0  0  0  0  0  0
  189.1950  177.6850  143.4180 C   0  0  1  0  0  3  0  0  0  0  0  0
  190.6120  175.6240  143.0050 C   0  0  0  0  0  1  0  0  0  0  0  0
  191.5590  178.3450  144.7640 N   0  0  0  0  0  0  0  0  0  0  0  0
  190.9290  179.3540  143.9080 C   0  0  0  0  0  2  0  0  0  0  0  0
  190.0280  176.5620  144.0540 C   0  0  1  0  0  3  0  0  0  0  0  0
  191.1470  177.1130  144.9020 C   0  0  0  0  0  0  0  0  0  0  0  0
  190.1090  178.7220  142.7910 C   0  0  0  0  0  2  0  0  0  0  0  0
  191.7770  176.2370  145.7970 O   0  0  0  0  0  0  0  0  0  0  0  0
  190.5670  176.5640  147.7190 O   0  0  0  0  0  0  0  0  0  0  0  0
  192.7890  176.0020  148.0390 N   0  0  0  0  0  1  0  0  0  0  0  0
  191.6730  176.2710  147.1950 C   0  0  0  0  0  0  0  0  0  0  0  0
  187.8300  177.9960  140.1720 C   0  0  0  0  0  2  0  0  0  0  0  0
  189.1740  178.4270  139.6120 C   0  0  0  0  0  2  0  0  0  0  0  0
  189.9470  177.2580  139.2210 N   0  0  0  0  0  2  0  0  0  0  0  0
  190.7650  175.6170  136.0330 N   0  0  0  0  0  0  0  0  0  0  0  0
  190.9210  175.9140  137.4210 C   0  0  0  0  0  0  0  0  0  0  0  0
  190.0540  176.8380  137.8580 C   0  0  0  0  0  0  0  0  0  0  0  0
  189.3540  177.4730  136.6960 C   0  0  1  0  0  3  0  0  0  0  0  0
  189.8450  176.4630  135.7340 C   0  0  0  0  0  0  0  0  0  0  0  0
  191.7770  175.1650  138.2760 N   0  0  0  0  0  1  0  0  0  0  0  0
  188.0200  177.0580  136.3570 C   0  0  1  0  0  3  0  0  0  0  0  0
  187.2030  178.2550  135.9100 C   0  0  0  0  0  1  0  0  0  0  0  0
  188.4820  176.3210  135.1970 N   0  0  0  0  0  2  0  0  0  0  0  0
  1 21  1  6  0  0  0
  1  3  1  0  0  0  0
  1  9  1  0  0  0  0
  2  3  2  0  0  0  0
  3  4  1  0  0  0  0
  4  5  1  0  0  0  0
  5  6  1  0  0  0  0
  6  7  1  1  0  0  0
  6  8  1  0  0  0  0
 10  9  1  6  0  0  0
 10 14  1  0  0  0  0
 12 15  2  0  0  0  0
 13 12  1  0  0  0  0
 14 11  1  6  0  0  0
 14 15  1  0  0  0  0
 15 17  1  0  0  0  0
 16 10  1  0  0  0  0
 16 13  1  0  0  0  0
 17 20  1  0  0  0  0
 20 18  2  0  0  0  0
 20 19  1  0  0  0  0
 22 21  1  0  0  0  0
 23 22  1  0  0  0  0
 24 25  1  0  0  0  0
 25 26  2  0  0  0  0
 25 29  1  0  0  0  0
 26 23  1  0  0  0  0
 27 28  1  6  0  0  0
 27 26  1  0  0  0  0
 28 24  2  0  0  0  0
 30 31  1  6  0  0  0
 30 27  1  0  0  0  0
 32 28  1  0  0  0  0
 32 30  1  0  0  0  0
M  END
>  <MODEL>
7

>  <REMARK>
 VINA RESULT:      -7.0      2.679      6.895
  Name = 
  12 active torsions:
  status: ('A' for Active; 'I' for Inactive)
    1  A    between atoms: N_1  and  C_9
    2  A    between atoms: N_1  and  C_13
    3  A    between atoms: O_3  and  C_27
    4  A    between atoms: O_3  and  C_30
    5  A    between atoms: C_5  and  C_32
    6  A    between atoms: C_7  and  C_13
    7  A    between atoms: C_7  and  C_24
    8  A    between atoms: O_8  and  C_20
    9  A    between atoms: O_8  and  C_32
   10  A    between atoms: C_10  and  N_15
   11  A    between atoms: C_13  and  C_20
   12  A    between atoms: N_15  and  C_24
                            x       y       z     vdW  Elec       q    Type
                         _______ _______ _______ _____ _____    ______ ____

>  <TORSDO>
F 12

$$$$
=
 OpenBabel10222416033D

 32 34  0  0  1  0  0  0  0  0999 V2000
  188.1380  178.5650  140.6080 C   0  0  1  0  0  3  0  0  0  0  0  0
  185.9580  178.9630  139.7070 O   0  0  0  0  0  0  0  0  0  0  0  0
  186.6500  178.6330  140.7110 C   0  0  0  0  0  0  0  0  0  0  0  0
  186.0410  178.3280  141.9260 O   0  0  0  0  0  0  0  0  0  0  0  0
  185.3000  179.2970  142.6600 C   0  0  0  0  0  2  0  0  0  0  0  0
  184.5840  178.6500  143.8360 C   0  0  1  0  0  3  0  0  0  0  0  0
  185.3400  178.8980  145.1270 C   0  0  0  0  0  1  0  0  0  0  0  0
  183.2310  179.1690  143.9480 N   0  0  0  0  0  1  0  0  0  0  0  0
  188.6290  177.3700  141.2800 N   0  0  0  0  0  2  0  0  0  0  0  0
  189.4460  177.8030  142.4080 C   0  0  1  0  0  3  0  0  0  0  0  0
  187.9640  176.3970  143.9080 C   0  0  0  0  0  1  0  0  0  0  0  0
  190.8800  177.8340  144.8120 N   0  0  0  0  0  0  0  0  0  0  0  0
  191.6060  177.5980  143.5600 C   0  0  0  0  0  2  0  0  0  0  0  0
  188.6770  177.7320  143.7360 C   0  0  1  0  0  3  0  0  0  0  0  0
  189.5850  177.9630  144.9170 C   0  0  0  0  0  0  0  0  0  0  0  0
  190.7150  176.9740  142.4950 C   0  0  0  0  0  2  0  0  0  0  0  0
  188.9860  178.2540  146.1510 O   0  0  0  0  0  0  0  0  0  0  0  0
  189.6610  176.3830  147.2950 O   0  0  0  0  0  0  0  0  0  0  0  0
  188.7840  178.0750  148.6070 N   0  0  0  0  0  1  0  0  0  0  0  0
  189.1650  177.5380  147.3430 C   0  0  0  0  0  0  0  0  0  0  0  0
  188.5860  178.5680  139.1540 C   0  0  0  0  0  2  0  0  0  0  0  0
  189.9020  177.8240  139.0120 C   0  0  0  0  0  2  0  0  0  0  0  0
  190.0350  177.3070  137.6580 N   0  0  0  0  0  2  0  0  0  0  0  0
  188.8390  173.9230  136.8550 N   0  0  0  0  0  0  0  0  0  0  0  0
  189.7850  174.8990  137.2930 C   0  0  0  0  0  0  0  0  0  0  0  0
  189.3190  176.1520  137.2110 C   0  0  0  0  0  0  0  0  0  0  0  0
  188.0370  176.1720  136.4370 C   0  0  1  0  0  3  0  0  0  0  0  0
  187.8910  174.7010  136.4700 C   0  0  0  0  0  0  0  0  0  0  0  0
  191.0130  174.5500  137.9240 N   0  0  0  0  0  1  0  0  0  0  0  0
  186.7840  176.2500  137.1390 C   0  0  1  0  0  3  0  0  0  0  0  0
  185.8150  177.1310  136.3730 C   0  0  0  0  0  1  0  0  0  0  0  0
  186.4860  174.8550  136.8790 N   0  0  0  0  0  2  0  0  0  0  0  0
  1 21  1  6  0  0  0
  1  3  1  0  0  0  0
  1  9  1  0  0  0  0
  2  3  2  0  0  0  0
  3  4  1  0  0  0  0
  4  5  1  0  0  0  0
  5  6  1  0  0  0  0
  6  8  1  0  0  0  0
  6  7  1  1  0  0  0
 10  9  1  6  0  0  0
 10 16  1  0  0  0  0
 10 14  1  0  0  0  0
 12 15  2  0  0  0  0
 13 12  1  0  0  0  0
 14 11  1  1  0  0  0
 14 15  1  0  0  0  0
 15 17  1  0  0  0  0
 16 13  1  0  0  0  0
 17 20  1  0  0  0  0
 18 20  2  0  0  0  0
 20 19  1  0  0  0  0
 22 21  1  0  0  0  0
 23 22  1  0  0  0  0
 24 25  1  0  0  0  0
 25 29  1  0  0  0  0
 26 25  2  0  0  0  0
 26 23  1  0  0  0  0
 27 28  1  1  0  0  0
 27 30  1  0  0  0  0
 27 26  1  0  0  0  0
 28 24  2  0  0  0  0
 28 32  1  0  0  0  0
 30 31  1  6  0  0  0
 32 30  1  0  0  0  0
M  END
>  <MODEL>
8

>  <REMARK>
 VINA RESULT:      -7.0      2.973      6.748
  Name = 
  12 active torsions:
  status: ('A' for Active; 'I' for Inactive)
    1  A    between atoms: N_1  and  C_9
    2  A    between atoms: N_1  and  C_13
    3  A    between atoms: O_3  and  C_27
    4  A    between atoms: O_3  and  C_30
    5  A    between atoms: C_5  and  C_32
    6  A    between atoms: C_7  and  C_13
    7  A    between atoms: C_7  and  C_24
    8  A    between atoms: O_8  and  C_20
    9  A    between atoms: O_8  and  C_32
   10  A    between atoms: C_10  and  N_15
   11  A    between atoms: C_13  and  C_20
   12  A    between atoms: N_15  and  C_24
                            x       y       z     vdW  Elec       q    Type
                         _______ _______ _______ _____ _____    ______ ____

>  <TORSDO>
F 12

$$$$
=
 OpenBabel10222416033D

 32 34  0  0  1  0  0  0  0  0999 V2000
  187.9390  178.3380  141.3900 C   0  0  1  0  0  3  0  0  0  0  0  0
  185.8070  179.3720  141.0670 O   0  0  0  0  0  0  0  0  0  0  0  0
  186.6040  178.8060  141.8670 C   0  0  0  0  0  0  0  0  0  0  0  0
  186.2550  178.6110  143.2020 O   0  0  0  0  0  0  0  0  0  0  0  0
  184.9820  178.0990  143.5800 C   0  0  0  0  0  2  0  0  0  0  0  0
  184.1470  179.1750  144.2550 C   0  0  1  0  0  3  0  0  0  0  0  0
  182.7190  179.1440  143.7480 C   0  0  0  0  0  1  0  0  0  0  0  0
  184.1630  178.9940  145.6970 N   0  0  0  0  0  1  0  0  0  0  0  0
  188.3750  177.1930  142.1780 N   0  0  0  0  0  2  0  0  0  0  0  0
  189.2570  177.6900  143.2280 C   0  0  1  0  0  3  0  0  0  0  0  0
  190.6720  175.6130  142.9010 C   0  0  0  0  0  1  0  0  0  0  0  0
  191.5340  178.3150  144.7310 N   0  0  0  0  0  0  0  0  0  0  0  0
  190.9740  179.3360  143.8390 C   0  0  0  0  0  2  0  0  0  0  0  0
  190.0320  176.5550  143.9130 C   0  0  1  0  0  3  0  0  0  0  0  0
  191.0990  177.0890  144.8350 C   0  0  0  0  0  0  0  0  0  0  0  0
  190.2230  178.7180  142.6680 C   0  0  0  0  0  2  0  0  0  0  0  0
  191.6570  176.2010  145.7670 O   0  0  0  0  0  0  0  0  0  0  0  0
  190.6520  176.8570  147.7220 O   0  0  0  0  0  0  0  0  0  0  0  0
  192.7920  176.0060  147.9520 N   0  0  0  0  0  1  0  0  0  0  0  0
  191.6640  176.3640  147.1590 C   0  0  0  0  0  0  0  0  0  0  0  0
  187.8930  177.9690  139.9150 C   0  0  0  0  0  2  0  0  0  0  0  0
  189.0400  178.6360  139.1740 C   0  0  0  0  0  2  0  0  0  0  0  0
  189.2880  177.9450  137.9190 N   0  0  0  0  0  2  0  0  0  0  0  0
  190.0040  174.3820  137.3540 N   0  0  0  0  0  0  0  0  0  0  0  0
  189.2040  175.5650  137.3500 C   0  0  0  0  0  0  0  0  0  0  0  0
  189.8360  176.6240  137.8740 C   0  0  0  0  0  0  0  0  0  0  0  0
  191.1010  176.1850  138.5450 C   0  0  1  0  0  3  0  0  0  0  0  0
  191.0450  174.8290  137.9610 C   0  0  0  0  0  0  0  0  0  0  0  0
  187.9470  175.6410  136.6870 N   0  0  0  0  0  1  0  0  0  0  0  0
  192.3590  176.3570  137.8720 C   0  0  1  0  0  3  0  0  0  0  0  0
  193.4310  176.7530  138.8690 C   0  0  0  0  0  1  0  0  0  0  0  0
  192.4620  174.9410  137.5800 N   0  0  0  0  0  2  0  0  0  0  0  0
  1 21  1  6  0  0  0
  1  3  1  0  0  0  0
  1  9  1  0  0  0  0
  2  3  2  0  0  0  0
  3  4  1  0  0  0  0
  4  5  1  0  0  0  0
  5  6  1  0  0  0  0
  6  7  1  6  0  0  0
  6  8  1  0  0  0  0
 10  9  1  6  0  0  0
 10 14  1  0  0  0  0
 12 15  2  0  0  0  0
 13 12  1  0  0  0  0
 14 11  1  6  0  0  0
 14 15  1  0  0  0  0
 15 17  1  0  0  0  0
 16 10  1  0  0  0  0
 16 13  1  0  0  0  0
 17 20  1  0  0  0  0
 20 18  2  0  0  0  0
 20 19  1  0  0  0  0
 22 21  1  0  0  0  0
 23 22  1  0  0  0  0
 24 28  2  0  0  0  0
 25 24  1  0  0  0  0
 25 26  2  0  0  0  0
 26 23  1  0  0  0  0
 27 26  1  6  0  0  0
 28 27  1  0  0  0  0
 29 25  1  0  0  0  0
 30 27  1  0  0  0  0
 30 31  1  1  0  0  0
 32 30  1  0  0  0  0
 32 28  1  0  0  0  0
M  END
>  <MODEL>
9

>  <REMARK>
 VINA RESULT:      -7.0      2.430      6.911
  Name = 
  12 active torsions:
  status: ('A' for Active; 'I' for Inactive)
    1  A    between atoms: N_1  and  C_9
    2  A    between atoms: N_1  and  C_13
    3  A    between atoms: O_3  and  C_27
    4  A    between atoms: O_3  and  C_30
    5  A    between atoms: C_5  and  C_32
    6  A    between atoms: C_7  and  C_13
    7  A    between atoms: C_7  and  C_24
    8  A    between atoms: O_8  and  C_20
    9  A    between atoms: O_8  and  C_32
   10  A    between atoms: C_10  and  N_15
   11  A    between atoms: C_13  and  C_20
   12  A    between atoms: N_15  and  C_24
                            x       y       z     vdW  Elec       q    Type
                         _______ _______ _______ _____ _____    ______ ____

>  <TORSDO>
F 12

$$$$
