=
 OpenBabel10222421053D

 55 60  0  0  1  0  0  0  0  0999 V2000
  184.6310  178.8900  145.8550 C   0  0  0  0  0  1  0  0  0  0  0  0
  184.8090  178.3330  143.5080 C   0  0  0  0  0  0  0  0  0  0  0  0
  184.0320  178.6300  144.5100 C   0  0  0  0  0  0  0  0  0  0  0  0
  185.6070  178.0440  142.5180 C   0  0  0  0  0  3  0  0  0  0  0  0
  187.0900  178.1300  142.7090 C   0  0  2  0  0  3  0  0  0  0  0  0
  188.1780  178.1730  139.3340 C   0  0  0  0  0  0  0  0  0  0  0  0
  187.7720  177.9960  141.4230 N   0  0  0  0  0  0  0  0  0  0  0  0
  190.2060  176.5790  139.2230 C   0  0  0  0  0  1  0  0  0  0  0  0
  188.8120  177.2010  141.2100 N   0  0  0  0  0  0  0  0  0  0  0  0
  187.3520  178.5880  140.3130 N   0  0  0  0  0  0  0  0  0  0  0  0
  189.0920  177.3020  139.9000 C   0  0  0  0  0  0  0  0  0  0  0  0
  188.7250  179.5980  137.5080 O   0  0  0  0  0  0  0  0  0  0  0  0
  187.2240  177.8810  137.0330 N   0  0  0  0  0  2  0  0  0  0  0  0
  187.1050  178.2540  135.6890 N   0  0  0  0  0  1  0  0  0  0  0  0
  188.0710  178.6020  137.9280 C   0  0  0  0  0  0  0  0  0  0  0  0
  187.5860  177.0650  143.6870 C   0  0  0  0  0  2  0  0  0  0  0  0
  187.5550  177.5610  145.1230 C   0  0  0  0  0  2  0  0  0  0  0  0
  188.8370  178.1640  145.4570 N   0  0  0  0  0  2  0  0  0  0  0  0
  189.5650  177.2330  146.3140 C   0  0  1  0  0  3  0  0  0  0  0  0
  191.9930  175.3930  144.6850 C   0  0  0  0  0  0  0  0  0  0  0  0
  191.3950  178.0960  144.8890 O   0  0  0  0  0  0  0  0  0  0  0  0
  191.7920  175.9690  146.0580 C   0  0  0  0  0  2  0  0  0  0  0  0
  190.8930  177.4210  143.7570 C   0  0  0  0  0  2  0  0  0  0  0  0
  191.0790  177.3330  146.0400 C   0  0  2  0  0  3  0  0  0  0  0  0
  191.7470  176.2000  143.4460 C   0  0  0  0  0  2  0  0  0  0  0  0
  192.4110  174.2540  144.5780 O   0  0  0  0  0  0  0  0  0  0  0  0
  190.0160  178.2510  148.3910 O   0  0  0  0  0  0  0  0  0  0  0  0
  188.0570  176.9590  148.4360 C   0  0  0  0  0  1  0  0  0  0  0  0
  189.2670  177.5200  147.7650 C   0  0  0  0  0  0  0  0  0  0  0  0
  182.5780  178.8710  144.2710 C   0  0  0  0  0  2  0  0  0  0  0  0
  182.3640  179.4860  142.9050 C   0  0  0  0  0  2  0  0  0  0  0  0
  179.0010  178.7680  142.1740 C   0  0  0  0  0  2  0  0  0  0  0  0
  180.2970  179.1870  141.5060 C   0  0  0  0  0  0  0  0  0  0  0  0
  179.5560  180.1690  142.3940 C   0  0  0  0  0  2  0  0  0  0  0  0
  181.5810  178.5520  142.0050 C   0  0  1  0  0  3  0  0  0  0  0  0
  181.7850  179.2580  139.6580 C   0  0  0  0  0  2  0  0  0  0  0  0
  182.3690  178.3320  140.7210 C   0  0  0  0  0  2  0  0  0  0  0  0
  180.3270  179.5140  140.0260 C   0  0  1  0  0  3  0  0  0  0  0  0
  179.4310  178.5730  139.2260 C   0  0  0  0  0  2  0  0  0  0  0  0
  179.6810  176.8050  137.5400 C   0  0  0  0  0  3  0  0  0  0  0  0
  180.2240  177.8260  138.2010 C   0  0  0  0  0  3  0  0  0  0  0  0
  182.4590  174.7410  136.8000 C   0  0  2  0  0  3  0  0  0  0  0  0
  183.1490  175.0170  137.9850 O   0  0  0  0  0  1  0  0  0  0  0  0
  182.5820  175.8890  135.8170 C   0  0  2  0  0  3  0  0  0  0  0  0
  183.9500  176.5470  135.8230 C   0  0  0  0  0  1  0  0  0  0  0  0
  180.4700  176.0600  136.5140 C   0  0  1  0  0  3  0  0  0  0  0  0
  181.5780  176.8270  136.1050 O   0  0  0  0  0  0  0  0  0  0  0  0
  180.9770  174.7540  137.1090 C   0  0  1  0  0  3  0  0  0  0  0  0
  180.2990  171.5540  135.2170 C   0  0  0  0  0  2  0  0  0  0  0  0
  179.7180  172.8170  137.6890 C   0  0  0  0  0  2  0  0  0  0  0  0
  180.2410  173.6010  136.5680 N   0  0  0  0  0  0  0  0  0  0  0  0
  181.1010  172.7490  135.7300 C   0  0  0  0  0  2  0  0  0  0  0  0
  178.9820  169.7130  135.8000 C   0  0  0  0  0  1  0  0  0  0  0  0
  179.8080  170.7720  136.3500 N   0  0  0  0  0  0  0  0  0  0  0  0
  178.9320  171.6170  137.1590 C   0  0  0  0  0  2  0  0  0  0  0  0
  2  3  2  0  0  0  0
  3  1  1  0  0  0  0
  4  2  2  0  0  0  0
  5  4  1  6  0  0  0
  5 16  1  0  0  0  0
  6 11  1  0  0  0  0
  6 10  2  0  0  0  0
  7  5  1  0  0  0  0
  8 11  1  0  0  0  0
  9  7  1  0  0  0  0
 10  7  1  0  0  0  0
 11  9  2  0  0  0  0
 12 15  2  0  0  0  0
 13 15  1  0  0  0  0
 14 13  1  0  0  0  0
 15  6  1  0  0  0  0
 16 17  1  0  0  0  0
 17 18  1  0  0  0  0
 19 18  1  6  0  0  0
 19 29  1  0  0  0  0
 20 22  1  0  0  0  0
 21 24  1  0  0  0  0
 23 21  1  0  0  0  0
 24 22  1  0  0  0  0
 24 19  1  6  0  0  0
 25 23  1  0  0  0  0
 25 20  1  0  0  0  0
 26 20  2  0  0  0  0
 29 27  2  0  0  0  0
 29 28  1  0  0  0  0
 30  3  1  0  0  0  0
 31 30  1  0  0  0  0
 32 34  1  0  0  0  0
 33 35  1  0  0  0  0
 33 32  1  0  0  0  0
 33 34  1  0  0  0  0
 35 31  1  1  0  0  0
 36 38  1  0  0  0  0
 36 37  1  0  0  0  0
 37 35  1  0  0  0  0
 38 39  1  6  0  0  0
 38 33  1  0  0  0  0
 40 41  2  0  0  0  0
 41 39  1  0  0  0  0
 42 48  1  0  0  0  0
 42 43  1  1  0  0  0
 44 45  1  1  0  0  0
 44 47  1  0  0  0  0
 44 42  1  0  0  0  0
 46 48  1  0  0  0  0
 46 40  1  1  0  0  0
 47 46  1  0  0  0  0
 48 51  1  6  0  0  0
 49 52  1  0  0  0  0
 49 54  1  0  0  0  0
 51 50  1  0  0  0  0
 52 51  1  0  0  0  0
 53 54  1  0  0  0  0
 54 55  1  0  0  0  0
 55 50  1  0  0  0  0
M  END
>  <MODEL>
1

>  <REMARK>
 VINA RESULT:      -8.4      0.000      0.000
  Name = 
  16 active torsions:
  status: ('A' for Active; 'I' for Inactive)
    1  A    between atoms: C_1  and  C_35
    2  A    between atoms: C_1  and  C_55
    3  A    between atoms: C_7  and  C_49
    4  A    between atoms: C_8  and  C_21
    5  A    between atoms: N_12  and  C_41
    6  A    between atoms: C_15  and  C_33
    7  A    between atoms: C_15  and  N_52
    8  A    between atoms: C_17  and  C_46
    9  A    between atoms: C_17  and  C_47
   10  A    between atoms: C_17  and  N_52
   11  A    between atoms: C_19  and  C_27
   12  A    between atoms: C_19  and  C_31
   13  A    between atoms: N_23  and  C_42
   14  A    between atoms: C_27  and  C_50
   15  A    between atoms: C_33  and  C_41
   16  A    between atoms: C_41  and  C_43
                            x       y       z     vdW  Elec       q    Type
                         _______ _______ _______ _____ _____    ______ ____

>  <TORSDO>
F 16

$$$$
=
 OpenBabel10222421053D

 55 60  0  0  1  0  0  0  0  0999 V2000
  184.9250  180.1430  143.9920 C   0  0  0  0  0  1  0  0  0  0  0  0
  185.5690  178.1850  142.7270 C   0  0  0  0  0  0  0  0  0  0  0  0
  184.6200  178.8320  143.3420 C   0  0  0  0  0  0  0  0  0  0  0  0
  186.5330  177.5580  142.1120 C   0  0  0  0  0  3  0  0  0  0  0  0
  187.8610  178.2270  141.9370 C   0  0  2  0  0  3  0  0  0  0  0  0
  189.2990  177.2250  138.8540 C   0  0  0  0  0  0  0  0  0  0  0  0
  188.3300  178.0640  140.5620 N   0  0  0  0  0  0  0  0  0  0  0  0
  189.0050  179.2270  137.2510 C   0  0  0  0  0  1  0  0  0  0  0  0
  188.2650  179.0100  139.6350 N   0  0  0  0  0  0  0  0  0  0  0  0
  188.9590  176.9780  140.1330 N   0  0  0  0  0  0  0  0  0  0  0  0
  188.8620  178.5010  138.5450 C   0  0  0  0  0  0  0  0  0  0  0  0
  189.8120  176.2510  136.7430 O   0  0  0  0  0  0  0  0  0  0  0  0
  190.9430  175.3520  138.5710 N   0  0  0  0  0  2  0  0  0  0  0  0
  191.6450  174.4350  137.7800 N   0  0  0  0  0  1  0  0  0  0  0  0
  190.0130  176.2670  137.9900 C   0  0  0  0  0  0  0  0  0  0  0  0
  188.8940  177.6730  142.9200 C   0  0  0  0  0  2  0  0  0  0  0  0
  188.2370  177.1020  144.1650 C   0  0  0  0  0  2  0  0  0  0  0  0
  188.5460  177.9470  145.3100 N   0  0  0  0  0  2  0  0  0  0  0  0
  189.2110  177.1210  146.3130 C   0  0  1  0  0  3  0  0  0  0  0  0
  192.1580  175.8040  147.5410 C   0  0  0  0  0  0  0  0  0  0  0  0
  191.4730  177.3410  145.3340 O   0  0  0  0  0  0  0  0  0  0  0  0
  191.3310  177.0370  147.7700 C   0  0  0  0  0  2  0  0  0  0  0  0
  191.5690  175.9490  145.1300 C   0  0  0  0  0  2  0  0  0  0  0  0
  190.6760  177.5700  146.4830 C   0  0  2  0  0  3  0  0  0  0  0  0
  192.4980  175.3250  146.1620 C   0  0  0  0  0  2  0  0  0  0  0  0
  192.6050  175.2050  148.5040 O   0  0  0  0  0  0  0  0  0  0  0  0
  188.2180  176.1790  148.2330 O   0  0  0  0  0  0  0  0  0  0  0  0
  188.0860  178.5220  148.2180 C   0  0  0  0  0  1  0  0  0  0  0  0
  188.4740  177.2060  147.6270 C   0  0  0  0  0  0  0  0  0  0  0  0
  183.2130  178.3430  143.2500 C   0  0  0  0  0  2  0  0  0  0  0  0
  182.4380  179.1570  142.2360 C   0  0  0  0  0  2  0  0  0  0  0  0
  179.6870  178.8440  140.0690 C   0  0  0  0  0  2  0  0  0  0  0  0
  181.1860  179.0780  140.0570 C   0  0  0  0  0  0  0  0  0  0  0  0
  180.2580  180.1700  140.5540 C   0  0  0  0  0  2  0  0  0  0  0  0
  182.0250  178.3020  141.0550 C   0  0  1  0  0  3  0  0  0  0  0  0
  183.3340  178.9080  139.0640 C   0  0  0  0  0  2  0  0  0  0  0  0
  183.2660  177.9470  140.2470 C   0  0  0  0  0  2  0  0  0  0  0  0
  181.9100  179.3550  138.7540 C   0  0  1  0  0  3  0  0  0  0  0  0
  181.3500  178.5100  137.6130 C   0  0  0  0  0  2  0  0  0  0  0  0
  182.3340  176.7750  136.1800 C   0  0  0  0  0  3  0  0  0  0  0  0
  182.4550  177.9670  136.7630 C   0  0  0  0  0  3  0  0  0  0  0  0
  185.7250  175.8000  135.9130 C   0  0  2  0  0  3  0  0  0  0  0  0
  186.1510  176.4830  137.0570 O   0  0  0  0  0  1  0  0  0  0  0  0
  185.5240  176.7530  134.7510 C   0  0  2  0  0  3  0  0  0  0  0  0
  186.5580  177.8630  134.6930 C   0  0  0  0  0  1  0  0  0  0  0  0
  183.4340  176.2310  135.3290 C   0  0  1  0  0  3  0  0  0  0  0  0
  184.2280  177.2840  134.8340 O   0  0  0  0  0  0  0  0  0  0  0  0
  184.3140  175.3090  136.1600 C   0  0  1  0  0  3  0  0  0  0  0  0
  185.0000  171.6190  135.7170 C   0  0  0  0  0  2  0  0  0  0  0  0
  182.9590  173.3940  136.5710 C   0  0  0  0  0  2  0  0  0  0  0  0
  184.0980  173.8990  135.8010 N   0  0  0  0  0  0  0  0  0  0  0  0
  185.2850  173.0760  136.0800 C   0  0  0  0  0  2  0  0  0  0  0  0
  183.5990  169.7790  136.0570 C   0  0  0  0  0  1  0  0  0  0  0  0
  183.8780  171.1280  136.5140 N   0  0  0  0  0  0  0  0  0  0  0  0
  182.6960  171.9320  136.2080 C   0  0  0  0  0  2  0  0  0  0  0  0
  2  3  2  0  0  0  0
  3  1  1  0  0  0  0
  4  2  2  0  0  0  0
  5  4  1  6  0  0  0
  5 16  1  0  0  0  0
  6 10  2  0  0  0  0
  7  5  1  0  0  0  0
  8 11  1  0  0  0  0
  9  7  1  0  0  0  0
 10  7  1  0  0  0  0
 11  6  1  0  0  0  0
 11  9  2  0  0  0  0
 12 15  2  0  0  0  0
 14 13  1  0  0  0  0
 15 13  1  0  0  0  0
 15  6  1  0  0  0  0
 16 17  1  0  0  0  0
 17 18  1  0  0  0  0
 19 18  1  6  0  0  0
 19 29  1  0  0  0  0
 20 22  1  0  0  0  0
 20 26  2  0  0  0  0
 21 24  1  0  0  0  0
 23 21  1  0  0  0  0
 23 25  1  0  0  0  0
 24 19  1  6  0  0  0
 24 22  1  0  0  0  0
 25 20  1  0  0  0  0
 29 28  1  0  0  0  0
 29 27  2  0  0  0  0
 30  3  1  0  0  0  0
 31 30  1  0  0  0  0
 32 34  1  0  0  0  0
 33 32  1  0  0  0  0
 33 34  1  0  0  0  0
 33 35  1  0  0  0  0
 35 31  1  1  0  0  0
 36 37  1  0  0  0  0
 37 35  1  0  0  0  0
 38 39  1  6  0  0  0
 38 36  1  0  0  0  0
 38 33  1  0  0  0  0
 40 41  2  0  0  0  0
 41 39  1  0  0  0  0
 42 48  1  0  0  0  0
 42 43  1  1  0  0  0
 44 45  1  1  0  0  0
 44 47  1  0  0  0  0
 44 42  1  0  0  0  0
 46 48  1  0  0  0  0
 46 40  1  1  0  0  0
 47 46  1  0  0  0  0
 48 51  1  6  0  0  0
 49 52  1  0  0  0  0
 49 54  1  0  0  0  0
 51 52  1  0  0  0  0
 51 50  1  0  0  0  0
 53 54  1  0  0  0  0
 55 54  1  0  0  0  0
 55 50  1  0  0  0  0
M  END
>  <MODEL>
2

>  <REMARK>
 VINA RESULT:      -8.2      2.122      2.786
  Name = 
  16 active torsions:
  status: ('A' for Active; 'I' for Inactive)
    1  A    between atoms: C_1  and  C_35
    2  A    between atoms: C_1  and  C_55
    3  A    between atoms: C_7  and  C_49
    4  A    between atoms: C_8  and  C_21
    5  A    between atoms: N_12  and  C_41
    6  A    between atoms: C_15  and  C_33
    7  A    between atoms: C_15  and  N_52
    8  A    between atoms: C_17  and  C_46
    9  A    between atoms: C_17  and  C_47
   10  A    between atoms: C_17  and  N_52
   11  A    between atoms: C_19  and  C_27
   12  A    between atoms: C_19  and  C_31
   13  A    between atoms: N_23  and  C_42
   14  A    between atoms: C_27  and  C_50
   15  A    between atoms: C_33  and  C_41
   16  A    between atoms: C_41  and  C_43
                            x       y       z     vdW  Elec       q    Type
                         _______ _______ _______ _____ _____    ______ ____

>  <TORSDO>
F 16

$$$$
=
 OpenBabel10222421053D

 55 60  0  0  1  0  0  0  0  0999 V2000
  191.6480  177.0970  142.8080 C   0  0  0  0  0  1  0  0  0  0  0  0
  189.5030  177.4180  141.7370 C   0  0  0  0  0  0  0  0  0  0  0  0
  190.1760  177.3560  142.8500 C   0  0  0  0  0  0  0  0  0  0  0  0
  188.8510  177.4830  140.6090 C   0  0  0  0  0  3  0  0  0  0  0  0
  189.6020  177.4530  139.3130 C   0  0  2  0  0  3  0  0  0  0  0  0
  187.2390  176.4030  136.8860 C   0  0  0  0  0  0  0  0  0  0  0  0
  188.6730  177.2910  138.1960 N   0  0  0  0  0  0  0  0  0  0  0  0
  187.2770  178.2040  135.0360 C   0  0  0  0  0  1  0  0  0  0  0  0
  188.5940  178.1220  137.1660 N   0  0  0  0  0  0  0  0  0  0  0  0
  187.8820  176.2360  138.0570 N   0  0  0  0  0  0  0  0  0  0  0  0
  187.6880  177.5880  136.3290 C   0  0  0  0  0  0  0  0  0  0  0  0
  186.5880  174.5800  135.5010 O   0  0  0  0  0  0  0  0  0  0  0  0
  184.8920  175.5280  136.7850 N   0  0  0  0  0  2  0  0  0  0  0  0
  183.9250  174.6390  136.3010 N   0  0  0  0  0  1  0  0  0  0  0  0
  186.2480  175.4560  136.3460 C   0  0  0  0  0  0  0  0  0  0  0  0
  190.6460  176.3360  139.3030 C   0  0  0  0  0  2  0  0  0  0  0  0
  191.9760  176.8130  138.7440 C   0  0  0  0  0  2  0  0  0  0  0  0
  191.9730  176.6750  137.2950 N   0  0  0  0  0  2  0  0  0  0  0  0
  192.5310  175.3660  136.9660 C   0  0  1  0  0  3  0  0  0  0  0  0
  191.8460  172.5160  135.1390 C   0  0  0  0  0  0  0  0  0  0  0  0
  190.8180  175.0930  135.2000 O   0  0  0  0  0  0  0  0  0  0  0  0
  192.8130  173.6630  135.0570 C   0  0  0  0  0  2  0  0  0  0  0  0
  190.1310  174.1200  135.9540 C   0  0  0  0  0  2  0  0  0  0  0  0
  192.1990  175.0010  135.5050 C   0  0  2  0  0  3  0  0  0  0  0  0
  190.3830  172.7320  135.3840 C   0  0  0  0  0  2  0  0  0  0  0  0
  192.2560  171.3840  134.9530 O   0  0  0  0  0  0  0  0  0  0  0  0
  194.7260  176.0830  136.4940 O   0  0  0  0  0  0  0  0  0  0  0  0
  194.6500  174.5390  138.2610 C   0  0  0  0  0  1  0  0  0  0  0  0
  194.0230  175.3660  137.1870 C   0  0  0  0  0  0  0  0  0  0  0  0
  189.5070  177.7070  144.1380 C   0  0  0  0  0  2  0  0  0  0  0  0
  188.0490  177.2990  144.1010 C   0  0  0  0  0  2  0  0  0  0  0  0
  185.7340  179.4130  142.5080 C   0  0  0  0  0  2  0  0  0  0  0  0
  185.8550  178.4510  143.6750 C   0  0  0  0  0  0  0  0  0  0  0  0
  185.8530  177.9160  142.2560 C   0  0  0  0  0  2  0  0  0  0  0  0
  187.1500  178.4640  144.4640 C   0  0  1  0  0  3  0  0  0  0  0  0
  185.2690  177.6910  145.8460 C   0  0  0  0  0  2  0  0  0  0  0  0
  186.6730  178.2870  145.8990 C   0  0  0  0  0  2  0  0  0  0  0  0
  184.6430  178.1130  144.5210 C   0  0  1  0  0  3  0  0  0  0  0  0
  183.7590  179.3360  144.7450 C   0  0  0  0  0  2  0  0  0  0  0  0
  182.3520  178.9030  142.7790 C   0  0  0  0  0  3  0  0  0  0  0  0
  182.4290  179.1580  144.0840 C   0  0  0  0  0  3  0  0  0  0  0  0
  180.3020  179.4700  139.9510 C   0  0  2  0  0  3  0  0  0  0  0  0
  181.0860  180.5010  139.4220 O   0  0  0  0  0  1  0  0  0  0  0  0
  179.4660  179.9620  141.1160 C   0  0  2  0  0  3  0  0  0  0  0  0
  178.9310  181.3700  140.9240 C   0  0  0  0  0  1  0  0  0  0  0  0
  181.0260  178.7220  142.1170 C   0  0  1  0  0  3  0  0  0  0  0  0
  180.2410  179.8800  142.2820 O   0  0  0  0  0  0  0  0  0  0  0  0
  181.2260  178.4800  140.6280 C   0  0  1  0  0  3  0  0  0  0  0  0
  179.4900  175.1270  140.4880 C   0  0  0  0  0  2  0  0  0  0  0  0
  180.8450  176.9780  138.8190 C   0  0  0  0  0  2  0  0  0  0  0  0
  180.9640  177.0760  140.2760 N   0  0  0  0  0  0  0  0  0  0  0  0
  179.7320  176.5760  140.9060 C   0  0  0  0  0  2  0  0  0  0  0  0
  179.2160  173.6490  138.6970 C   0  0  0  0  0  1  0  0  0  0  0  0
  179.3490  175.0550  139.0350 N   0  0  0  0  0  0  0  0  0  0  0  0
  180.5870  175.5250  138.4180 C   0  0  0  0  0  2  0  0  0  0  0  0
  1  3  1  0  0  0  0
  2  3  2  0  0  0  0
  3 30  1  0  0  0  0
  4  2  2  0  0  0  0
  5 16  1  1  0  0  0
  5  4  1  0  0  0  0
  6 10  2  0  0  0  0
  7  5  1  0  0  0  0
  8 11  1  0  0  0  0
  9  7  1  0  0  0  0
 10  7  1  0  0  0  0
 11  6  1  0  0  0  0
 11  9  2  0  0  0  0
 12 15  2  0  0  0  0
 14 13  1  0  0  0  0
 15 13  1  0  0  0  0
 15  6  1  0  0  0  0
 17 16  1  0  0  0  0
 18 17  1  0  0  0  0
 19 29  1  6  0  0  0
 19 18  1  0  0  0  0
 20 25  1  0  0  0  0
 21 24  1  0  0  0  0
 21 23  1  0  0  0  0
 22 20  1  0  0  0  0
 22 24  1  0  0  0  0
 24 19  1  1  0  0  0
 25 23  1  0  0  0  0
 26 20  2  0  0  0  0
 27 29  2  0  0  0  0
 29 28  1  0  0  0  0
 31 30  1  0  0  0  0
 32 33  1  0  0  0  0
 33 35  1  0  0  0  0
 33 38  1  0  0  0  0
 34 32  1  0  0  0  0
 34 33  1  0  0  0  0
 35 31  1  6  0  0  0
 35 37  1  0  0  0  0
 36 37  1  0  0  0  0
 38 39  1  1  0  0  0
 38 36  1  0  0  0  0
 40 41  2  0  0  0  0
 41 39  1  0  0  0  0
 42 43  1  1  0  0  0
 42 48  1  0  0  0  0
 42 44  1  0  0  0  0
 44 45  1  6  0  0  0
 44 47  1  0  0  0  0
 46 47  1  0  0  0  0
 46 40  1  1  0  0  0
 48 51  1  1  0  0  0
 48 46  1  0  0  0  0
 49 52  1  0  0  0  0
 50 51  1  0  0  0  0
 51 52  1  0  0  0  0
 53 54  1  0  0  0  0
 54 49  1  0  0  0  0
 55 50  1  0  0  0  0
 55 54  1  0  0  0  0
M  END
>  <MODEL>
3

>  <REMARK>
 VINA RESULT:      -8.2      3.488      7.143
  Name = 
  16 active torsions:
  status: ('A' for Active; 'I' for Inactive)
    1  A    between atoms: C_1  and  C_35
    2  A    between atoms: C_1  and  C_55
    3  A    between atoms: C_7  and  C_49
    4  A    between atoms: C_8  and  C_21
    5  A    between atoms: N_12  and  C_41
    6  A    between atoms: C_15  and  C_33
    7  A    between atoms: C_15  and  N_52
    8  A    between atoms: C_17  and  C_46
    9  A    between atoms: C_17  and  C_47
   10  A    between atoms: C_17  and  N_52
   11  A    between atoms: C_19  and  C_27
   12  A    between atoms: C_19  and  C_31
   13  A    between atoms: N_23  and  C_42
   14  A    between atoms: C_27  and  C_50
   15  A    between atoms: C_33  and  C_41
   16  A    between atoms: C_41  and  C_43
                            x       y       z     vdW  Elec       q    Type
                         _______ _______ _______ _____ _____    ______ ____

>  <TORSDO>
F 16

$$$$
=
 OpenBabel10222421053D

 55 60  0  0  1  0  0  0  0  0999 V2000
  185.6330  180.1670  143.1830 C   0  0  0  0  0  1  0  0  0  0  0  0
  186.6030  178.0030  142.7070 C   0  0  0  0  0  0  0  0  0  0  0  0
  185.5360  178.6850  143.0100 C   0  0  0  0  0  0  0  0  0  0  0  0
  187.6840  177.3420  142.3980 C   0  0  0  0  0  3  0  0  0  0  0  0
  188.9430  178.0850  142.0740 C   0  0  2  0  0  3  0  0  0  0  0  0
  190.4640  176.9940  139.0610 C   0  0  0  0  0  0  0  0  0  0  0  0
  189.3580  177.7990  140.7010 N   0  0  0  0  0  0  0  0  0  0  0  0
  189.3720  178.3790  137.1750 C   0  0  0  0  0  1  0  0  0  0  0  0
  188.9010  178.4420  139.6350 N   0  0  0  0  0  0  0  0  0  0  0  0
  190.3110  176.9280  140.3980 N   0  0  0  0  0  0  0  0  0  0  0  0
  189.5780  177.9450  138.5860 C   0  0  0  0  0  0  0  0  0  0  0  0
  192.5520  176.6420  137.9760 O   0  0  0  0  0  0  0  0  0  0  0  0
  191.0750  174.8420  137.9280 N   0  0  0  0  0  2  0  0  0  0  0  0
  191.9650  174.0330  137.2120 N   0  0  0  0  0  1  0  0  0  0  0  0
  191.4240  176.1750  138.2990 C   0  0  0  0  0  0  0  0  0  0  0  0
  190.0640  177.7310  143.0520 C   0  0  0  0  0  2  0  0  0  0  0  0
  189.7990  178.2940  144.4390 C   0  0  0  0  0  2  0  0  0  0  0  0
  189.5000  177.2040  145.3570 N   0  0  0  0  0  2  0  0  0  0  0  0
  189.8330  177.6490  146.7070 C   0  0  1  0  0  3  0  0  0  0  0  0
  186.7420  178.9090  147.5950 C   0  0  0  0  0  0  0  0  0  0  0  0
  187.7600  176.3680  147.1420 O   0  0  0  0  0  0  0  0  0  0  0  0
  188.0100  178.5220  148.3010 C   0  0  0  0  0  2  0  0  0  0  0  0
  187.0980  176.9860  146.0610 C   0  0  0  0  0  2  0  0  0  0  0  0
  188.6920  177.2900  147.6810 C   0  0  2  0  0  3  0  0  0  0  0  0
  186.1050  178.0210  146.5700 C   0  0  0  0  0  2  0  0  0  0  0  0
  186.1920  179.9530  147.9000 O   0  0  0  0  0  0  0  0  0  0  0  0
  191.5950  177.3300  148.2400 O   0  0  0  0  0  0  0  0  0  0  0  0
  191.8330  176.0050  146.3170 C   0  0  0  0  0  1  0  0  0  0  0  0
  191.1300  177.0220  147.1550 C   0  0  0  0  0  0  0  0  0  0  0  0
  184.2050  178.0090  143.0170 C   0  0  0  0  0  2  0  0  0  0  0  0
  183.2280  178.7590  142.1380 C   0  0  0  0  0  2  0  0  0  0  0  0
  180.3970  177.6020  140.4040 C   0  0  0  0  0  2  0  0  0  0  0  0
  181.6400  178.4490  140.2130 C   0  0  0  0  0  0  0  0  0  0  0  0
  180.5020  178.9660  141.0710 C   0  0  0  0  0  2  0  0  0  0  0  0
  182.9200  177.9770  140.8770 C   0  0  1  0  0  3  0  0  0  0  0  0
  183.3950  179.3420  138.8880 C   0  0  0  0  0  2  0  0  0  0  0  0
  183.9800  178.2940  139.8310 C   0  0  0  0  0  2  0  0  0  0  0  0
  181.8790  179.1790  138.9060 C   0  0  1  0  0  3  0  0  0  0  0  0
  181.4470  178.3380  137.7080 C   0  0  0  0  0  2  0  0  0  0  0  0
  182.6000  176.5550  136.4750 C   0  0  0  0  0  3  0  0  0  0  0  0
  182.6360  177.7820  136.9920 C   0  0  0  0  0  3  0  0  0  0  0  0
  186.0990  176.0340  136.4040 C   0  0  2  0  0  3  0  0  0  0  0  0
  186.3980  177.0050  137.3650 O   0  0  0  0  0  1  0  0  0  0  0  0
  185.7950  176.6690  135.0610 C   0  0  2  0  0  3  0  0  0  0  0  0
  186.6650  177.8740  134.7520 C   0  0  0  0  0  1  0  0  0  0  0  0
  183.7850  175.9980  135.7570 C   0  0  1  0  0  3  0  0  0  0  0  0
  184.4360  177.0170  135.0350 O   0  0  0  0  0  0  0  0  0  0  0  0
  184.7650  175.4140  136.7650 C   0  0  1  0  0  3  0  0  0  0  0  0
  183.4840  171.8710  137.0460 C   0  0  0  0  0  2  0  0  0  0  0  0
  185.0710  173.5130  135.3640 C   0  0  0  0  0  2  0  0  0  0  0  0
  184.7560  173.9440  136.7280 N   0  0  0  0  0  0  0  0  0  0  0  0
  183.4500  173.3960  137.1290 C   0  0  0  0  0  2  0  0  0  0  0  0
  183.8850  170.0150  135.6830 C   0  0  0  0  0  1  0  0  0  0  0  0
  183.7740  171.4620  135.6740 N   0  0  0  0  0  0  0  0  0  0  0  0
  185.0850  171.9850  135.2940 C   0  0  0  0  0  2  0  0  0  0  0  0
  2  3  2  0  0  0  0
  3 30  1  0  0  0  0
  3  1  1  0  0  0  0
  4  2  2  0  0  0  0
  5  4  1  1  0  0  0
  5 16  1  0  0  0  0
  6 10  2  0  0  0  0
  7  5  1  0  0  0  0
  8 11  1  0  0  0  0
  9  7  1  0  0  0  0
 10  7  1  0  0  0  0
 11  6  1  0  0  0  0
 11  9  2  0  0  0  0
 12 15  2  0  0  0  0
 13 15  1  0  0  0  0
 14 13  1  0  0  0  0
 15  6  1  0  0  0  0
 16 17  1  0  0  0  0
 17 18  1  0  0  0  0
 19 18  1  6  0  0  0
 19 29  1  0  0  0  0
 20 26  2  0  0  0  0
 20 22  1  0  0  0  0
 21 24  1  0  0  0  0
 23 25  1  0  0  0  0
 23 21  1  0  0  0  0
 24 19  1  6  0  0  0
 24 22  1  0  0  0  0
 25 20  1  0  0  0  0
 28 29  1  0  0  0  0
 29 27  2  0  0  0  0
 31 30  1  0  0  0  0
 32 34  1  0  0  0  0
 33 32  1  0  0  0  0
 33 35  1  0  0  0  0
 33 34  1  0  0  0  0
 35 31  1  1  0  0  0
 36 38  1  0  0  0  0
 36 37  1  0  0  0  0
 37 35  1  0  0  0  0
 38 39  1  6  0  0  0
 38 33  1  0  0  0  0
 40 41  2  0  0  0  0
 41 39  1  0  0  0  0
 42 48  1  0  0  0  0
 42 43  1  1  0  0  0
 44 45  1  1  0  0  0
 44 42  1  0  0  0  0
 46 40  1  1  0  0  0
 46 48  1  0  0  0  0
 47 44  1  0  0  0  0
 47 46  1  0  0  0  0
 48 51  1  6  0  0  0
 49 52  1  0  0  0  0
 50 51  1  0  0  0  0
 51 52  1  0  0  0  0
 54 53  1  0  0  0  0
 54 49  1  0  0  0  0
 55 50  1  0  0  0  0
 55 54  1  0  0  0  0
M  END
>  <MODEL>
4

>  <REMARK>
 VINA RESULT:      -7.8      2.390      3.742
  Name = 
  16 active torsions:
  status: ('A' for Active; 'I' for Inactive)
    1  A    between atoms: C_1  and  C_35
    2  A    between atoms: C_1  and  C_55
    3  A    between atoms: C_7  and  C_49
    4  A    between atoms: C_8  and  C_21
    5  A    between atoms: N_12  and  C_41
    6  A    between atoms: C_15  and  C_33
    7  A    between atoms: C_15  and  N_52
    8  A    between atoms: C_17  and  C_46
    9  A    between atoms: C_17  and  C_47
   10  A    between atoms: C_17  and  N_52
   11  A    between atoms: C_19  and  C_27
   12  A    between atoms: C_19  and  C_31
   13  A    between atoms: N_23  and  C_42
   14  A    between atoms: C_27  and  C_50
   15  A    between atoms: C_33  and  C_41
   16  A    between atoms: C_41  and  C_43
                            x       y       z     vdW  Elec       q    Type
                         _______ _______ _______ _____ _____    ______ ____

>  <TORSDO>
F 16

$$$$
=
 OpenBabel10222421053D

 55 60  0  0  1  0  0  0  0  0999 V2000
  191.5370  176.5520  142.8400 C   0  0  0  0  0  1  0  0  0  0  0  0
  189.5260  177.3860  141.7860 C   0  0  0  0  0  0  0  0  0  0  0  0
  190.1500  177.1050  142.8950 C   0  0  0  0  0  0  0  0  0  0  0  0
  188.9250  177.6660  140.6630 C   0  0  0  0  0  3  0  0  0  0  0  0
  189.6800  177.5760  139.3730 C   0  0  2  0  0  3  0  0  0  0  0  0
  187.3710  176.4220  136.9410 C   0  0  0  0  0  0  0  0  0  0  0  0
  188.7530  177.3760  138.2600 N   0  0  0  0  0  0  0  0  0  0  0  0
  187.2640  178.2640  135.1350 C   0  0  0  0  0  1  0  0  0  0  0  0
  188.6060  178.2240  137.2510 N   0  0  0  0  0  0  0  0  0  0  0  0
  188.0360  176.2720  138.1030 N   0  0  0  0  0  0  0  0  0  0  0  0
  187.7310  177.6480  136.4090 C   0  0  0  0  0  0  0  0  0  0  0  0
  185.2730  175.3020  136.8480 O   0  0  0  0  0  0  0  0  0  0  0  0
  186.8710  174.5800  135.3150 N   0  0  0  0  0  2  0  0  0  0  0  0
  186.0140  173.6230  134.7580 N   0  0  0  0  0  1  0  0  0  0  0  0
  186.4430  175.4200  136.3860 C   0  0  0  0  0  0  0  0  0  0  0  0
  190.7140  176.4510  139.4120 C   0  0  0  0  0  2  0  0  0  0  0  0
  191.6670  176.5210  138.2300 C   0  0  0  0  0  2  0  0  0  0  0  0
  192.4750  175.3100  138.1840 N   0  0  0  0  0  2  0  0  0  0  0  0
  192.7660  175.0160  136.7840 C   0  0  1  0  0  3  0  0  0  0  0  0
  195.8640  174.0840  135.5730 C   0  0  0  0  0  0  0  0  0  0  0  0
  194.3820  173.4630  137.8350 O   0  0  0  0  0  0  0  0  0  0  0  0
  194.4390  173.6500  135.3840 C   0  0  0  0  0  2  0  0  0  0  0  0
  195.3440  174.4840  137.9710 C   0  0  0  0  0  2  0  0  0  0  0  0
  193.6090  173.7290  136.6780 C   0  0  2  0  0  3  0  0  0  0  0  0
  196.4460  174.3150  136.9350 C   0  0  0  0  0  2  0  0  0  0  0  0
  196.5790  174.2070  134.5940 O   0  0  0  0  0  0  0  0  0  0  0  0
  191.2860  175.6080  135.0480 O   0  0  0  0  0  0  0  0  0  0  0  0
  190.4690  173.8380  136.3540 C   0  0  0  0  0  1  0  0  0  0  0  0
  191.4830  174.8760  136.0040 C   0  0  0  0  0  0  0  0  0  0  0  0
  189.5410  177.4910  144.2020 C   0  0  0  0  0  2  0  0  0  0  0  0
  188.0650  177.1540  144.2150 C   0  0  0  0  0  2  0  0  0  0  0  0
  185.9400  179.3530  142.4810 C   0  0  0  0  0  2  0  0  0  0  0  0
  185.9620  178.4240  143.6790 C   0  0  0  0  0  0  0  0  0  0  0  0
  185.9730  177.8450  142.2780 C   0  0  0  0  0  2  0  0  0  0  0  0
  187.2300  178.3830  144.5120 C   0  0  1  0  0  3  0  0  0  0  0  0
  185.2590  177.7720  145.8500 C   0  0  0  0  0  2  0  0  0  0  0  0
  186.6950  178.2820  145.9340 C   0  0  0  0  0  2  0  0  0  0  0  0
  184.7050  178.1890  144.4920 C   0  0  1  0  0  3  0  0  0  0  0  0
  183.8920  179.4710  144.6490 C   0  0  0  0  0  2  0  0  0  0  0  0
  182.4060  178.8630  142.7910 C   0  0  0  0  0  3  0  0  0  0  0  0
  182.5360  179.3190  144.0360 C   0  0  0  0  0  3  0  0  0  0  0  0
  180.2500  179.5160  140.0610 C   0  0  2  0  0  3  0  0  0  0  0  0
  181.0200  180.5550  139.5300 O   0  0  0  0  0  1  0  0  0  0  0  0
  179.4630  179.9820  141.2710 C   0  0  2  0  0  3  0  0  0  0  0  0
  178.9310  181.3970  141.1370 C   0  0  0  0  0  1  0  0  0  0  0  0
  181.0530  178.7070  142.1780 C   0  0  1  0  0  3  0  0  0  0  0  0
  180.2830  179.8650  142.4040 O   0  0  0  0  0  0  0  0  0  0  0  0
  181.1930  178.5030  140.6760 C   0  0  1  0  0  3  0  0  0  0  0  0
  179.4150  175.1730  140.4960 C   0  0  0  0  0  2  0  0  0  0  0  0
  180.7600  177.0450  138.8430 C   0  0  0  0  0  2  0  0  0  0  0  0
  180.9080  177.1100  140.2990 N   0  0  0  0  0  0  0  0  0  0  0  0
  179.6820  176.6110  140.9420 C   0  0  0  0  0  2  0  0  0  0  0  0
  179.0900  173.7390  138.6790 C   0  0  0  0  0  1  0  0  0  0  0  0
  179.2450  175.1350  139.0450 N   0  0  0  0  0  0  0  0  0  0  0  0
  180.4780  175.6040  138.4150 C   0  0  0  0  0  2  0  0  0  0  0  0
  1  3  1  0  0  0  0
  2  3  2  0  0  0  0
  3 30  1  0  0  0  0
  4  2  2  0  0  0  0
  5 16  1  1  0  0  0
  5  4  1  0  0  0  0
  6 10  2  0  0  0  0
  7  5  1  0  0  0  0
  8 11  1  0  0  0  0
  9  7  1  0  0  0  0
 10  7  1  0  0  0  0
 11  6  1  0  0  0  0
 11  9  2  0  0  0  0
 13 15  1  0  0  0  0
 14 13  1  0  0  0  0
 15 12  2  0  0  0  0
 15  6  1  0  0  0  0
 17 16  1  0  0  0  0
 18 17  1  0  0  0  0
 19 29  1  6  0  0  0
 19 18  1  0  0  0  0
 20 25  1  0  0  0  0
 21 23  1  0  0  0  0
 22 20  1  0  0  0  0
 22 24  1  0  0  0  0
 24 19  1  1  0  0  0
 24 21  1  0  0  0  0
 25 23  1  0  0  0  0
 26 20  2  0  0  0  0
 27 29  2  0  0  0  0
 29 28  1  0  0  0  0
 30 31  1  0  0  0  0
 32 33  1  0  0  0  0
 33 38  1  0  0  0  0
 33 35  1  0  0  0  0
 34 32  1  0  0  0  0
 34 33  1  0  0  0  0
 35 31  1  6  0  0  0
 35 37  1  0  0  0  0
 36 37  1  0  0  0  0
 38 39  1  1  0  0  0
 38 36  1  0  0  0  0
 40 41  2  0  0  0  0
 41 39  1  0  0  0  0
 42 43  1  1  0  0  0
 42 48  1  0  0  0  0
 42 44  1  0  0  0  0
 44 45  1  6  0  0  0
 44 47  1  0  0  0  0
 46 47  1  0  0  0  0
 46 40  1  1  0  0  0
 48 51  1  1  0  0  0
 48 46  1  0  0  0  0
 49 52  1  0  0  0  0
 50 51  1  0  0  0  0
 51 52  1  0  0  0  0
 53 54  1  0  0  0  0
 54 49  1  0  0  0  0
 55 50  1  0  0  0  0
 55 54  1  0  0  0  0
M  END
>  <MODEL>
5

>  <REMARK>
 VINA RESULT:      -7.7      3.559      7.175
  Name = 
  16 active torsions:
  status: ('A' for Active; 'I' for Inactive)
    1  A    between atoms: C_1  and  C_35
    2  A    between atoms: C_1  and  C_55
    3  A    between atoms: C_7  and  C_49
    4  A    between atoms: C_8  and  C_21
    5  A    between atoms: N_12  and  C_41
    6  A    between atoms: C_15  and  C_33
    7  A    between atoms: C_15  and  N_52
    8  A    between atoms: C_17  and  C_46
    9  A    between atoms: C_17  and  C_47
   10  A    between atoms: C_17  and  N_52
   11  A    between atoms: C_19  and  C_27
   12  A    between atoms: C_19  and  C_31
   13  A    between atoms: N_23  and  C_42
   14  A    between atoms: C_27  and  C_50
   15  A    between atoms: C_33  and  C_41
   16  A    between atoms: C_41  and  C_43
                            x       y       z     vdW  Elec       q    Type
                         _______ _______ _______ _____ _____    ______ ____

>  <TORSDO>
F 16

$$$$
=
 OpenBabel10222421053D

 55 60  0  0  1  0  0  0  0  0999 V2000
  185.8830  179.9530  142.3340 C   0  0  0  0  0  1  0  0  0  0  0  0
  186.8950  177.7700  142.5800 C   0  0  0  0  0  0  0  0  0  0  0  0
  185.8010  178.4750  142.5450 C   0  0  0  0  0  0  0  0  0  0  0  0
  188.0040  177.0840  142.6050 C   0  0  0  0  0  3  0  0  0  0  0  0
  189.3010  177.7540  142.2710 C   0  0  2  0  0  3  0  0  0  0  0  0
  190.6580  176.8080  139.1340 C   0  0  0  0  0  0  0  0  0  0  0  0
  189.6380  177.5280  140.8660 N   0  0  0  0  0  0  0  0  0  0  0  0
  189.4280  178.2360  137.3700 C   0  0  0  0  0  1  0  0  0  0  0  0
  189.1050  178.1990  139.8550 N   0  0  0  0  0  0  0  0  0  0  0  0
  190.5880  176.6900  140.4740 N   0  0  0  0  0  0  0  0  0  0  0  0
  189.7270  177.7550  138.7490 C   0  0  0  0  0  0  0  0  0  0  0  0
  191.3310  174.8420  137.9720 O   0  0  0  0  0  0  0  0  0  0  0  0
  192.7840  176.6560  137.8130 N   0  0  0  0  0  2  0  0  0  0  0  0
  193.6850  175.9600  136.9980 N   0  0  0  0  0  1  0  0  0  0  0  0
  191.5870  176.0390  138.2860 C   0  0  0  0  0  0  0  0  0  0  0  0
  190.4310  177.2590  143.1750 C   0  0  0  0  0  2  0  0  0  0  0  0
  190.3810  177.9100  144.5470 C   0  0  0  0  0  2  0  0  0  0  0  0
  189.5120  177.1360  145.4220 N   0  0  0  0  0  2  0  0  0  0  0  0
  189.6870  177.6320  146.7840 C   0  0  1  0  0  3  0  0  0  0  0  0
  186.5910  179.0140  147.4460 C   0  0  0  0  0  0  0  0  0  0  0  0
  187.5240  176.4430  146.9750 O   0  0  0  0  0  0  0  0  0  0  0  0
  187.7700  178.5350  148.2450 C   0  0  0  0  0  2  0  0  0  0  0  0
  186.9940  177.1360  145.8680 C   0  0  0  0  0  2  0  0  0  0  0  0
  188.4460  177.2940  147.6350 C   0  0  2  0  0  3  0  0  0  0  0  0
  186.0090  178.2000  146.3300 C   0  0  0  0  0  2  0  0  0  0  0  0
  186.0660  180.0720  147.7460 O   0  0  0  0  0  0  0  0  0  0  0  0
  191.5090  177.6490  148.2780 O   0  0  0  0  0  0  0  0  0  0  0  0
  191.4400  175.6980  146.9770 C   0  0  0  0  0  1  0  0  0  0  0  0
  190.9300  177.0360  147.3970 C   0  0  0  0  0  0  0  0  0  0  0  0
  184.4770  177.7840  142.5500 C   0  0  0  0  0  2  0  0  0  0  0  0
  183.3800  178.7470  142.1490 C   0  0  0  0  0  2  0  0  0  0  0  0
  180.0230  178.1930  141.2640 C   0  0  0  0  0  2  0  0  0  0  0  0
  181.2670  178.9250  140.7980 C   0  0  0  0  0  0  0  0  0  0  0  0
  180.5250  179.4110  142.0270 C   0  0  0  0  0  2  0  0  0  0  0  0
  182.5990  178.2180  140.9630 C   0  0  1  0  0  3  0  0  0  0  0  0
  182.6670  179.8320  139.1090 C   0  0  0  0  0  2  0  0  0  0  0  0
  183.3380  178.5880  139.6840 C   0  0  0  0  0  2  0  0  0  0  0  0
  181.2170  179.8280  139.5820 C   0  0  1  0  0  3  0  0  0  0  0  0
  180.3280  179.2450  138.4870 C   0  0  0  0  0  2  0  0  0  0  0  0
  180.7320  177.0850  137.3900 C   0  0  0  0  0  3  0  0  0  0  0  0
  181.1150  178.3450  137.5870 C   0  0  0  0  0  3  0  0  0  0  0  0
  183.2540  174.6260  137.0530 C   0  0  2  0  0  3  0  0  0  0  0  0
  183.8440  174.8670  138.2970 O   0  0  0  0  0  1  0  0  0  0  0  0
  183.6440  175.6920  136.0470 C   0  0  2  0  0  3  0  0  0  0  0  0
  185.0820  176.1570  136.1860 C   0  0  0  0  0  1  0  0  0  0  0  0
  181.5140  176.1850  136.4900 C   0  0  1  0  0  3  0  0  0  0  0  0
  182.7570  176.7720  136.1830 O   0  0  0  0  0  0  0  0  0  0  0  0
  181.7640  174.8560  137.1880 C   0  0  1  0  0  3  0  0  0  0  0  0
  180.8360  171.7530  135.2420 C   0  0  0  0  0  2  0  0  0  0  0  0
  180.2950  173.0530  137.7040 C   0  0  0  0  0  2  0  0  0  0  0  0
  180.9360  173.7870  136.6100 N   0  0  0  0  0  0  0  0  0  0  0  0
  181.7350  172.8580  135.7950 C   0  0  0  0  0  2  0  0  0  0  0  0
  179.3190  170.0510  135.7600 C   0  0  0  0  0  1  0  0  0  0  0  0
  180.2280  171.0180  136.3480 N   0  0  0  0  0  0  0  0  0  0  0  0
  179.4120  171.9420  137.1350 C   0  0  0  0  0  2  0  0  0  0  0  0
  1  3  1  0  0  0  0
  2  4  2  0  0  0  0
  3 30  1  0  0  0  0
  3  2  2  0  0  0  0
  5  4  1  1  0  0  0
  5 16  1  0  0  0  0
  6 10  2  0  0  0  0
  7  5  1  0  0  0  0
  8 11  1  0  0  0  0
  9  7  1  0  0  0  0
 10  7  1  0  0  0  0
 11  6  1  0  0  0  0
 11  9  2  0  0  0  0
 12 15  2  0  0  0  0
 13 15  1  0  0  0  0
 14 13  1  0  0  0  0
 15  6  1  0  0  0  0
 16 17  1  0  0  0  0
 17 18  1  0  0  0  0
 19 18  1  6  0  0  0
 19 29  1  0  0  0  0
 20 26  2  0  0  0  0
 20 22  1  0  0  0  0
 21 24  1  0  0  0  0
 23 25  1  0  0  0  0
 23 21  1  0  0  0  0
 24 19  1  6  0  0  0
 24 22  1  0  0  0  0
 25 20  1  0  0  0  0
 28 29  1  0  0  0  0
 29 27  2  0  0  0  0
 31 30  1  0  0  0  0
 32 34  1  0  0  0  0
 33 35  1  0  0  0  0
 33 32  1  0  0  0  0
 33 34  1  0  0  0  0
 35 31  1  1  0  0  0
 36 38  1  0  0  0  0
 36 37  1  0  0  0  0
 37 35  1  0  0  0  0
 38 39  1  6  0  0  0
 38 33  1  0  0  0  0
 40 41  2  0  0  0  0
 41 39  1  0  0  0  0
 42 48  1  0  0  0  0
 42 43  1  1  0  0  0
 44 47  1  0  0  0  0
 44 45  1  1  0  0  0
 44 42  1  0  0  0  0
 46 48  1  0  0  0  0
 46 40  1  1  0  0  0
 47 46  1  0  0  0  0
 48 51  1  6  0  0  0
 49 52  1  0  0  0  0
 49 54  1  0  0  0  0
 51 50  1  0  0  0  0
 52 51  1  0  0  0  0
 53 54  1  0  0  0  0
 54 55  1  0  0  0  0
 55 50  1  0  0  0  0
M  END
>  <MODEL>
6

>  <REMARK>
 VINA RESULT:      -7.3      1.925      3.143
  Name = 
  16 active torsions:
  status: ('A' for Active; 'I' for Inactive)
    1  A    between atoms: C_1  and  C_35
    2  A    between atoms: C_1  and  C_55
    3  A    between atoms: C_7  and  C_49
    4  A    between atoms: C_8  and  C_21
    5  A    between atoms: N_12  and  C_41
    6  A    between atoms: C_15  and  C_33
    7  A    between atoms: C_15  and  N_52
    8  A    between atoms: C_17  and  C_46
    9  A    between atoms: C_17  and  C_47
   10  A    between atoms: C_17  and  N_52
   11  A    between atoms: C_19  and  C_27
   12  A    between atoms: C_19  and  C_31
   13  A    between atoms: N_23  and  C_42
   14  A    between atoms: C_27  and  C_50
   15  A    between atoms: C_33  and  C_41
   16  A    between atoms: C_41  and  C_43
                            x       y       z     vdW  Elec       q    Type
                         _______ _______ _______ _____ _____    ______ ____

>  <TORSDO>
F 16

$$$$
=
 OpenBabel10222421053D

 55 60  0  0  1  0  0  0  0  0999 V2000
  184.4790  179.3980  140.2170 C   0  0  0  0  0  1  0  0  0  0  0  0
  183.0690  177.4350  140.1400 C   0  0  0  0  0  0  0  0  0  0  0  0
  183.5530  178.4110  140.8520 C   0  0  0  0  0  0  0  0  0  0  0  0
  182.5920  176.4690  139.4050 C   0  0  0  0  0  3  0  0  0  0  0  0
  182.8510  176.4590  137.9300 C   0  0  2  0  0  3  0  0  0  0  0  0
  182.6440  173.1010  136.8070 C   0  0  0  0  0  0  0  0  0  0  0  0
  183.0630  175.0890  137.4650 N   0  0  0  0  0  0  0  0  0  0  0  0
  185.0550  172.1830  136.8720 C   0  0  0  0  0  1  0  0  0  0  0  0
  184.2400  174.4780  137.4590 N   0  0  0  0  0  0  0  0  0  0  0  0
  182.0740  174.2880  137.0910 N   0  0  0  0  0  0  0  0  0  0  0  0
  184.0020  173.2230  137.0390 C   0  0  0  0  0  0  0  0  0  0  0  0
  180.9330  171.4590  137.0150 O   0  0  0  0  0  0  0  0  0  0  0  0
  182.2670  171.2920  135.1120 N   0  0  0  0  0  2  0  0  0  0  0  0
  181.5750  170.1730  134.6340 N   0  0  0  0  0  1  0  0  0  0  0  0
  181.8970  171.9190  136.3400 C   0  0  0  0  0  0  0  0  0  0  0  0
  184.0530  177.3330  137.5720 C   0  0  0  0  0  2  0  0  0  0  0  0
  185.3630  176.5780  137.7200 C   0  0  0  0  0  2  0  0  0  0  0  0
  186.3940  177.2310  136.9260 N   0  0  0  0  0  2  0  0  0  0  0  0
  187.6910  176.8900  137.5030 C   0  0  1  0  0  3  0  0  0  0  0  0
  190.2780  174.6390  137.0890 C   0  0  0  0  0  0  0  0  0  0  0  0
  188.1540  175.4870  135.5180 O   0  0  0  0  0  0  0  0  0  0  0  0
  190.0750  176.1170  136.9170 C   0  0  0  0  0  2  0  0  0  0  0  0
  187.9610  174.3000  136.2550 C   0  0  0  0  0  2  0  0  0  0  0  0
  188.6740  176.4750  136.3900 C   0  0  2  0  0  3  0  0  0  0  0  0
  189.2990  173.6390  136.5540 C   0  0  0  0  0  2  0  0  0  0  0  0
  191.2910  174.2420  137.6380 O   0  0  0  0  0  0  0  0  0  0  0  0
  188.9250  178.8880  137.7100 O   0  0  0  0  0  0  0  0  0  0  0  0
  187.9190  178.2450  139.7310 C   0  0  0  0  0  1  0  0  0  0  0  0
  188.2370  178.0600  138.2840 C   0  0  0  0  0  0  0  0  0  0  0  0
  183.0520  178.6310  142.2420 C   0  0  0  0  0  2  0  0  0  0  0  0
  184.1600  179.1660  143.1230 C   0  0  0  0  0  2  0  0  0  0  0  0
  186.7510  176.8530  143.6670 C   0  0  0  0  0  2  0  0  0  0  0  0
  186.0670  178.0420  144.3150 C   0  0  0  0  0  0  0  0  0  0  0  0
  186.9480  178.2510  143.0980 C   0  0  0  0  0  2  0  0  0  0  0  0
  184.5600  178.1480  144.1710 C   0  0  1  0  0  3  0  0  0  0  0  0
  185.3480  179.2830  146.2050 C   0  0  0  0  0  2  0  0  0  0  0  0
  184.1270  178.6560  145.5390 C   0  0  0  0  0  2  0  0  0  0  0  0
  186.5840  178.6070  145.6220 C   0  0  1  0  0  3  0  0  0  0  0  0
  187.0490  177.5010  146.5650 C   0  0  0  0  0  2  0  0  0  0  0  0
  189.4600  177.8920  146.8180 C   0  0  0  0  0  3  0  0  0  0  0  0
  188.4790  177.1490  146.3070 C   0  0  0  0  0  3  0  0  0  0  0  0
  191.9750  175.4040  146.7310 C   0  0  2  0  0  3  0  0  0  0  0  0
  191.2720  174.4780  147.5070 O   0  0  0  0  0  1  0  0  0  0  0  0
  192.5710  176.5000  147.5930 C   0  0  2  0  0  3  0  0  0  0  0  0
  193.0930  176.0010  148.9290 C   0  0  0  0  0  1  0  0  0  0  0  0
  190.8890  177.5420  146.5640 C   0  0  1  0  0  3  0  0  0  0  0  0
  191.5980  177.4940  147.7800 O   0  0  0  0  0  0  0  0  0  0  0  0
  190.9700  176.1750  145.9000 C   0  0  1  0  0  3  0  0  0  0  0  0
  190.6480  176.0210  142.1380 C   0  0  0  0  0  2  0  0  0  0  0  0
  191.6520  177.6940  144.1970 C   0  0  0  0  0  2  0  0  0  0  0  0
  191.3300  176.2930  144.4790 N   0  0  0  0  0  0  0  0  0  0  0  0
  190.2360  175.8520  143.6000 C   0  0  0  0  0  2  0  0  0  0  0  0
  191.4130  177.5060  140.5020 C   0  0  0  0  0  1  0  0  0  0  0  0
  190.9400  177.4280  141.8720 N   0  0  0  0  0  0  0  0  0  0  0  0
  192.0470  177.8490  142.7280 C   0  0  0  0  0  2  0  0  0  0  0  0
  1  3  1  0  0  0  0
  2  3  2  0  0  0  0
  3 30  1  0  0  0  0
  4  2  2  0  0  0  0
  5 16  1  1  0  0  0
  5  4  1  0  0  0  0
  6 11  1  0  0  0  0
  6 10  2  0  0  0  0
  7  5  1  0  0  0  0
  8 11  1  0  0  0  0
  9  7  1  0  0  0  0
 10  7  1  0  0  0  0
 11  9  2  0  0  0  0
 13 15  1  0  0  0  0
 14 13  1  0  0  0  0
 15  6  1  0  0  0  0
 15 12  2  0  0  0  0
 16 17  1  0  0  0  0
 18 17  1  0  0  0  0
 19 18  1  6  0  0  0
 19 29  1  0  0  0  0
 20 26  2  0  0  0  0
 21 23  1  0  0  0  0
 21 24  1  0  0  0  0
 22 20  1  0  0  0  0
 23 25  1  0  0  0  0
 24 22  1  0  0  0  0
 24 19  1  1  0  0  0
 25 20  1  0  0  0  0
 27 29  2  0  0  0  0
 29 28  1  0  0  0  0
 30 31  1  0  0  0  0
 32 33  1  0  0  0  0
 33 38  1  0  0  0  0
 34 32  1  0  0  0  0
 34 33  1  0  0  0  0
 35 31  1  6  0  0  0
 35 33  1  0  0  0  0
 35 37  1  0  0  0  0
 37 36  1  0  0  0  0
 38 36  1  0  0  0  0
 38 39  1  1  0  0  0
 41 39  1  0  0  0  0
 41 40  2  0  0  0  0
 42 43  1  1  0  0  0
 42 44  1  0  0  0  0
 44 47  1  0  0  0  0
 44 45  1  1  0  0  0
 46 40  1  1  0  0  0
 46 47  1  0  0  0  0
 48 51  1  6  0  0  0
 48 46  1  0  0  0  0
 48 42  1  0  0  0  0
 49 52  1  0  0  0  0
 50 51  1  0  0  0  0
 52 51  1  0  0  0  0
 53 54  1  0  0  0  0
 54 49  1  0  0  0  0
 54 55  1  0  0  0  0
 55 50  1  0  0  0  0
M  END
>  <MODEL>
7

>  <REMARK>
 VINA RESULT:      -7.1      2.392     10.055
  Name = 
  16 active torsions:
  status: ('A' for Active; 'I' for Inactive)
    1  A    between atoms: C_1  and  C_35
    2  A    between atoms: C_1  and  C_55
    3  A    between atoms: C_7  and  C_49
    4  A    between atoms: C_8  and  C_21
    5  A    between atoms: N_12  and  C_41
    6  A    between atoms: C_15  and  C_33
    7  A    between atoms: C_15  and  N_52
    8  A    between atoms: C_17  and  C_46
    9  A    between atoms: C_17  and  C_47
   10  A    between atoms: C_17  and  N_52
   11  A    between atoms: C_19  and  C_27
   12  A    between atoms: C_19  and  C_31
   13  A    between atoms: N_23  and  C_42
   14  A    between atoms: C_27  and  C_50
   15  A    between atoms: C_33  and  C_41
   16  A    between atoms: C_41  and  C_43
                            x       y       z     vdW  Elec       q    Type
                         _______ _______ _______ _____ _____    ______ ____

>  <TORSDO>
F 16

$$$$
=
 OpenBabel10222421053D

 55 60  0  0  1  0  0  0  0  0999 V2000
  182.6300  175.8320  139.3810 C   0  0  0  0  0  1  0  0  0  0  0  0
  183.4350  177.1660  137.5320 C   0  0  0  0  0  0  0  0  0  0  0  0
  182.6740  177.0970  138.5860 C   0  0  0  0  0  0  0  0  0  0  0  0
  184.2090  177.2140  136.4830 C   0  0  0  0  0  3  0  0  0  0  0  0
  185.1380  176.0760  136.1920 C   0  0  2  0  0  3  0  0  0  0  0  0
  188.6440  176.3930  136.6190 C   0  0  0  0  0  0  0  0  0  0  0  0
  186.5250  176.4990  136.3760 N   0  0  0  0  0  0  0  0  0  0  0  0
  189.0650  178.8720  137.2070 C   0  0  0  0  0  1  0  0  0  0  0  0
  186.8920  177.7310  136.7000 N   0  0  0  0  0  0  0  0  0  0  0  0
  187.5520  175.6600  136.3310 N   0  0  0  0  0  0  0  0  0  0  0  0
  188.2270  177.6920  136.8500 C   0  0  0  0  0  0  0  0  0  0  0  0
  190.7290  175.8140  135.6270 O   0  0  0  0  0  0  0  0  0  0  0  0
  190.5340  175.3610  137.9030 N   0  0  0  0  0  2  0  0  0  0  0  0
  191.8330  174.8450  137.9890 N   0  0  0  0  0  1  0  0  0  0  0  0
  190.0130  175.8490  136.6680 C   0  0  0  0  0  0  0  0  0  0  0  0
  184.9300  175.5380  134.7760 C   0  0  0  0  0  2  0  0  0  0  0  0
  183.5590  174.9050  134.6100 C   0  0  0  0  0  2  0  0  0  0  0  0
  183.2840  174.0330  135.7420 N   0  0  0  0  0  2  0  0  0  0  0  0
  182.8330  172.7460  135.2210 C   0  0  1  0  0  3  0  0  0  0  0  0
  186.1730  172.1920  135.9080 C   0  0  0  0  0  0  0  0  0  0  0  0
  183.7880  171.6100  137.2020 O   0  0  0  0  0  0  0  0  0  0  0  0
  185.0900  171.5130  135.1180 C   0  0  0  0  0  2  0  0  0  0  0  0
  184.4580  172.7820  137.6080 C   0  0  0  0  0  2  0  0  0  0  0  0
  183.7080  171.6090  135.7870 C   0  0  2  0  0  3  0  0  0  0  0  0
  185.9460  172.6730  137.3090 C   0  0  0  0  0  2  0  0  0  0  0  0
  187.2790  172.3130  135.4110 O   0  0  0  0  0  0  0  0  0  0  0  0
  180.8970  171.4160  135.4140 O   0  0  0  0  0  0  0  0  0  0  0  0
  180.5420  173.6200  136.1370 C   0  0  0  0  0  1  0  0  0  0  0  0
  181.3820  172.5240  135.5700 C   0  0  0  0  0  0  0  0  0  0  0  0
  181.9880  178.3270  139.0830 C   0  0  0  0  0  2  0  0  0  0  0  0
  181.3530  178.0660  140.4330 C   0  0  0  0  0  2  0  0  0  0  0  0
  180.2940  179.3080  143.5470 C   0  0  0  0  0  2  0  0  0  0  0  0
  181.4870  178.6580  142.8730 C   0  0  0  0  0  0  0  0  0  0  0  0
  180.2360  177.8430  143.1360 C   0  0  0  0  0  2  0  0  0  0  0  0
  181.8120  179.0870  141.4540 C   0  0  1  0  0  3  0  0  0  0  0  0
  183.8170  178.2790  142.6260 C   0  0  0  0  0  2  0  0  0  0  0  0
  183.3340  179.1310  141.4560 C   0  0  0  0  0  2  0  0  0  0  0  0
  182.7140  178.2810  143.6790 C   0  0  1  0  0  3  0  0  0  0  0  0
  183.0300  179.3310  144.7410 C   0  0  0  0  0  2  0  0  0  0  0  0
  185.0960  178.7450  145.9320 C   0  0  0  0  0  3  0  0  0  0  0  0
  184.5060  179.4390  144.9590 C   0  0  0  0  0  3  0  0  0  0  0  0
  188.1330  177.1270  146.7590 C   0  0  2  0  0  3  0  0  0  0  0  0
  187.5320  176.0000  147.3290 O   0  0  0  0  0  1  0  0  0  0  0  0
  188.0780  178.3130  147.7030 C   0  0  2  0  0  3  0  0  0  0  0  0
  188.2830  177.9340  149.1590 C   0  0  0  0  0  1  0  0  0  0  0  0
  186.5700  178.8490  146.1510 C   0  0  1  0  0  3  0  0  0  0  0  0
  186.8470  178.9620  147.5270 O   0  0  0  0  0  0  0  0  0  0  0  0
  187.2550  177.5990  145.6180 C   0  0  1  0  0  3  0  0  0  0  0  0
  189.9640  177.4470  142.9880 C   0  0  0  0  0  2  0  0  0  0  0  0
  187.1390  177.4980  143.2420 C   0  0  0  0  0  2  0  0  0  0  0  0
  187.9860  177.8800  144.3740 N   0  0  0  0  0  0  0  0  0  0  0  0
  189.2580  177.1430  144.3090 C   0  0  0  0  0  2  0  0  0  0  0  0
  189.7960  177.4350  140.6570 C   0  0  0  0  0  1  0  0  0  0  0  0
  189.1130  177.0350  141.8740 N   0  0  0  0  0  0  0  0  0  0  0  0
  187.8650  177.7940  141.9290 C   0  0  0  0  0  2  0  0  0  0  0  0
  2  3  2  0  0  0  0
  3 30  1  0  0  0  0
  3  1  1  0  0  0  0
  4  2  2  0  0  0  0
  5 16  1  6  0  0  0
  5  7  1  0  0  0  0
  5  4  1  0  0  0  0
  6 15  1  0  0  0  0
  6 11  1  0  0  0  0
  7  9  1  0  0  0  0
  9 11  2  0  0  0  0
 10  7  1  0  0  0  0
 10  6  2  0  0  0  0
 11  8  1  0  0  0  0
 12 15  2  0  0  0  0
 13 14  1  0  0  0  0
 15 13  1  0  0  0  0
 17 16  1  0  0  0  0
 17 18  1  0  0  0  0
 19 29  1  1  0  0  0
 19 18  1  0  0  0  0
 20 25  1  0  0  0  0
 21 23  1  0  0  0  0
 22 24  1  0  0  0  0
 22 20  1  0  0  0  0
 24 19  1  6  0  0  0
 24 21  1  0  0  0  0
 25 23  1  0  0  0  0
 26 20  2  0  0  0  0
 27 29  2  0  0  0  0
 29 28  1  0  0  0  0
 30 31  1  0  0  0  0
 33 34  1  0  0  0  0
 33 32  1  0  0  0  0
 33 38  1  0  0  0  0
 34 32  1  0  0  0  0
 35 31  1  6  0  0  0
 35 37  1  0  0  0  0
 35 33  1  0  0  0  0
 36 38  1  0  0  0  0
 37 36  1  0  0  0  0
 38 39  1  1  0  0  0
 39 41  1  0  0  0  0
 41 40  2  0  0  0  0
 42 43  1  1  0  0  0
 42 44  1  0  0  0  0
 44 45  1  1  0  0  0
 46 40  1  1  0  0  0
 46 47  1  0  0  0  0
 47 44  1  0  0  0  0
 48 51  1  6  0  0  0
 48 46  1  0  0  0  0
 48 42  1  0  0  0  0
 49 52  1  0  0  0  0
 50 51  1  0  0  0  0
 52 51  1  0  0  0  0
 53 54  1  0  0  0  0
 54 55  1  0  0  0  0
 54 49  1  0  0  0  0
 55 50  1  0  0  0  0
M  END
>  <MODEL>
8

>  <REMARK>
 VINA RESULT:      -7.0      2.458      9.650
  Name = 
  16 active torsions:
  status: ('A' for Active; 'I' for Inactive)
    1  A    between atoms: C_1  and  C_35
    2  A    between atoms: C_1  and  C_55
    3  A    between atoms: C_7  and  C_49
    4  A    between atoms: C_8  and  C_21
    5  A    between atoms: N_12  and  C_41
    6  A    between atoms: C_15  and  C_33
    7  A    between atoms: C_15  and  N_52
    8  A    between atoms: C_17  and  C_46
    9  A    between atoms: C_17  and  C_47
   10  A    between atoms: C_17  and  N_52
   11  A    between atoms: C_19  and  C_27
   12  A    between atoms: C_19  and  C_31
   13  A    between atoms: N_23  and  C_42
   14  A    between atoms: C_27  and  C_50
   15  A    between atoms: C_33  and  C_41
   16  A    between atoms: C_41  and  C_43
                            x       y       z     vdW  Elec       q    Type
                         _______ _______ _______ _____ _____    ______ ____

>  <TORSDO>
F 16

$$$$
=
 OpenBabel10222421053D

 55 60  0  0  1  0  0  0  0  0999 V2000
  184.4450  179.0690  140.7880 C   0  0  0  0  0  1  0  0  0  0  0  0
  182.2230  178.1480  140.5400 C   0  0  0  0  0  0  0  0  0  0  0  0
  183.1320  178.6200  141.3440 C   0  0  0  0  0  0  0  0  0  0  0  0
  181.3250  177.6840  139.7150 C   0  0  0  0  0  3  0  0  0  0  0  0
  181.5640  177.7570  138.2380 C   0  0  2  0  0  3  0  0  0  0  0  0
  183.9730  175.2430  137.5650 C   0  0  0  0  0  0  0  0  0  0  0  0
  182.7280  176.9500  137.8760 N   0  0  0  0  0  0  0  0  0  0  0  0
  186.1780  176.4910  137.0650 C   0  0  0  0  0  1  0  0  0  0  0  0
  183.9280  177.4490  137.6140 N   0  0  0  0  0  0  0  0  0  0  0  0
  182.7180  175.6230  137.8690 N   0  0  0  0  0  0  0  0  0  0  0  0
  184.7300  176.3910  137.4050 C   0  0  0  0  0  0  0  0  0  0  0  0
  185.5540  173.4830  137.8200 O   0  0  0  0  0  0  0  0  0  0  0  0
  183.5070  172.8730  136.8930 N   0  0  0  0  0  2  0  0  0  0  0  0
  183.8770  171.5290  136.7690 N   0  0  0  0  0  1  0  0  0  0  0  0
  184.4030  173.8390  137.4420 C   0  0  0  0  0  0  0  0  0  0  0  0
  181.7560  179.2020  137.7780 C   0  0  0  0  0  2  0  0  0  0  0  0
  180.7230  179.6040  136.7380 C   0  0  0  0  0  2  0  0  0  0  0  0
  179.5350  180.1170  137.4050 N   0  0  0  0  0  2  0  0  0  0  0  0
  179.7880  181.5080  137.7690 C   0  0  1  0  0  3  0  0  0  0  0  0
  179.9100  184.7760  136.6570 C   0  0  0  0  0  0  0  0  0  0  0  0
  179.2140  182.3460  135.5120 O   0  0  0  0  0  0  0  0  0  0  0  0
  178.9310  183.9060  137.3920 C   0  0  0  0  0  2  0  0  0  0  0  0
  180.5330  182.7940  135.2930 C   0  0  0  0  0  2  0  0  0  0  0  0
  178.9320  182.4490  136.8960 C   0  0  2  0  0  3  0  0  0  0  0  0
  180.6060  184.3090  135.4140 C   0  0  0  0  0  2  0  0  0  0  0  0
  180.1080  185.9100  137.0570 O   0  0  0  0  0  0  0  0  0  0  0  0
  179.0060  182.7850  139.5890 O   0  0  0  0  0  0  0  0  0  0  0  0
  179.7440  180.6550  140.2430 C   0  0  0  0  0  1  0  0  0  0  0  0
  179.4920  181.7250  139.2320 C   0  0  0  0  0  0  0  0  0  0  0  0
  182.7960  178.8610  142.7780 C   0  0  0  0  0  2  0  0  0  0  0  0
  184.0280  179.2990  143.5410 C   0  0  0  0  0  2  0  0  0  0  0  0
  186.6340  176.9700  143.9190 C   0  0  0  0  0  2  0  0  0  0  0  0
  185.9670  178.1300  144.6340 C   0  0  0  0  0  0  0  0  0  0  0  0
  186.8150  178.3910  143.4040 C   0  0  0  0  0  2  0  0  0  0  0  0
  184.4570  178.2390  144.5350 C   0  0  1  0  0  3  0  0  0  0  0  0
  185.2980  179.2900  146.5930 C   0  0  0  0  0  2  0  0  0  0  0  0
  184.0600  178.6890  145.9340 C   0  0  0  0  0  2  0  0  0  0  0  0
  186.5190  178.6410  145.9500 C   0  0  1  0  0  3  0  0  0  0  0  0
  187.0080  177.4970  146.8330 C   0  0  0  0  0  2  0  0  0  0  0  0
  189.4310  177.8630  146.9960 C   0  0  0  0  0  3  0  0  0  0  0  0
  188.4240  177.1420  146.5060 C   0  0  0  0  0  3  0  0  0  0  0  0
  191.9410  175.3740  146.8130 C   0  0  2  0  0  3  0  0  0  0  0  0
  191.2810  174.4590  147.6390 O   0  0  0  0  0  1  0  0  0  0  0  0
  192.5800  176.4830  147.6270 C   0  0  2  0  0  3  0  0  0  0  0  0
  193.1720  176.0030  148.9410 C   0  0  0  0  0  1  0  0  0  0  0  0
  190.8460  177.5090  146.6730 C   0  0  1  0  0  3  0  0  0  0  0  0
  191.6180  177.4790  147.8500 O   0  0  0  0  0  0  0  0  0  0  0  0
  190.8930  176.1330  146.0250 C   0  0  1  0  0  3  0  0  0  0  0  0
  190.3120  176.1630  142.2920 C   0  0  0  0  0  2  0  0  0  0  0  0
  191.7310  177.5590  144.3120 C   0  0  0  0  0  2  0  0  0  0  0  0
  191.1790  176.2310  144.5850 N   0  0  0  0  0  0  0  0  0  0  0  0
  189.9680  176.0230  143.7740 C   0  0  0  0  0  2  0  0  0  0  0  0
  191.2290  177.5380  140.6390 C   0  0  0  0  0  1  0  0  0  0  0  0
  190.8370  177.5020  142.0360 N   0  0  0  0  0  0  0  0  0  0  0  0
  192.0540  177.6880  142.8220 C   0  0  0  0  0  2  0  0  0  0  0  0
  1  3  1  0  0  0  0
  2  3  2  0  0  0  0
  3 30  1  0  0  0  0
  4  2  2  0  0  0  0
  5 16  1  1  0  0  0
  5  4  1  0  0  0  0
  6 10  2  0  0  0  0
  7  5  1  0  0  0  0
  8 11  1  0  0  0  0
  9  7  1  0  0  0  0
 10  7  1  0  0  0  0
 11  6  1  0  0  0  0
 11  9  2  0  0  0  0
 13 15  1  0  0  0  0
 14 13  1  0  0  0  0
 15  6  1  0  0  0  0
 15 12  2  0  0  0  0
 17 18  1  0  0  0  0
 17 16  1  0  0  0  0
 19 18  1  6  0  0  0
 19 29  1  0  0  0  0
 20 26  2  0  0  0  0
 20 22  1  0  0  0  0
 21 24  1  0  0  0  0
 23 25  1  0  0  0  0
 23 21  1  0  0  0  0
 24 22  1  0  0  0  0
 24 19  1  1  0  0  0
 25 20  1  0  0  0  0
 29 27  2  0  0  0  0
 29 28  1  0  0  0  0
 30 31  1  0  0  0  0
 32 33  1  0  0  0  0
 33 38  1  0  0  0  0
 34 32  1  0  0  0  0
 34 33  1  0  0  0  0
 35 31  1  6  0  0  0
 35 33  1  0  0  0  0
 35 37  1  0  0  0  0
 37 36  1  0  0  0  0
 38 36  1  0  0  0  0
 38 39  1  1  0  0  0
 41 39  1  0  0  0  0
 41 40  2  0  0  0  0
 42 44  1  0  0  0  0
 42 43  1  1  0  0  0
 44 47  1  0  0  0  0
 44 45  1  1  0  0  0
 46 40  1  1  0  0  0
 46 47  1  0  0  0  0
 48 51  1  6  0  0  0
 48 46  1  0  0  0  0
 48 42  1  0  0  0  0
 49 52  1  0  0  0  0
 50 51  1  0  0  0  0
 52 51  1  0  0  0  0
 53 54  1  0  0  0  0
 54 49  1  0  0  0  0
 54 55  1  0  0  0  0
 55 50  1  0  0  0  0
M  END
>  <MODEL>
9

>  <REMARK>
 VINA RESULT:      -6.9      3.285     11.425
  Name = 
  16 active torsions:
  status: ('A' for Active; 'I' for Inactive)
    1  A    between atoms: C_1  and  C_35
    2  A    between atoms: C_1  and  C_55
    3  A    between atoms: C_7  and  C_49
    4  A    between atoms: C_8  and  C_21
    5  A    between atoms: N_12  and  C_41
    6  A    between atoms: C_15  and  C_33
    7  A    between atoms: C_15  and  N_52
    8  A    between atoms: C_17  and  C_46
    9  A    between atoms: C_17  and  C_47
   10  A    between atoms: C_17  and  N_52
   11  A    between atoms: C_19  and  C_27
   12  A    between atoms: C_19  and  C_31
   13  A    between atoms: N_23  and  C_42
   14  A    between atoms: C_27  and  C_50
   15  A    between atoms: C_33  and  C_41
   16  A    between atoms: C_41  and  C_43
                            x       y       z     vdW  Elec       q    Type
                         _______ _______ _______ _____ _____    ______ ____

>  <TORSDO>
F 16

$$$$
