=
 OpenBabel10222418573D

 43 45  0  0  1  0  0  0  0  0999 V2000
  186.0940  174.1790  137.3860 O   0  0  0  0  0  0  0  0  0  0  0  0
  187.2130  176.3060  137.1900 C   0  0  0  0  0  2  0  0  0  0  0  0
  182.7870  172.5030  136.7400 C   0  0  0  0  0  2  0  0  0  0  0  0
  184.8750  173.9570  136.6800 C   0  0  2  0  0  0  0  0  0  0  0  0
  183.8350  175.7140  138.1970 C   0  0  0  0  0  2  0  0  0  0  0  0
  183.7710  177.2320  138.2340 C   0  0  0  0  0  2  0  0  0  0  0  0
  182.5790  174.9410  136.2080 C   0  0  0  0  0  0  0  0  0  0  0  0
  186.7900  177.8630  135.2960 C   0  0  0  0  0  1  0  0  0  0  0  0
  187.0260  174.9120  136.6130 C   0  0  1  0  0  3  0  0  0  0  0  0
  186.2120  177.2650  136.5630 C   0  0  2  0  0  3  0  0  0  0  0  0
  185.1080  173.5420  135.2140 C   0  0  0  0  0  1  0  0  0  0  0  0
  185.8470  178.3350  137.4870 N   0  0  0  0  0  2  0  0  0  0  0  0
  183.9610  175.2000  136.7590 C   0  0  2  0  0  3  0  0  0  0  0  0
  185.1340  177.7840  138.6390 C   0  0  1  0  0  3  0  0  0  0  0  0
  184.1430  172.8140  137.3850 C   0  0  0  0  0  2  0  0  0  0  0  0
  181.9970  173.7170  136.2990 C   0  0  0  0  0  0  0  0  0  0  0  0
  180.4190  173.2140  134.5940 O   0  0  0  0  0  0  0  0  0  0  0  0
  180.6150  173.4650  135.8120 C   0  0  0  0  0  0  0  0  0  0  0  0
  179.4480  173.4660  136.7110 C   0  0  0  0  0  3  0  0  0  0  0  0
  178.9540  174.5700  137.2570 C   0  0  0  0  0  2  0  0  0  0  0  0
  181.2570  177.0470  135.2890 C   0  0  0  0  0  3  0  0  0  0  0  0
  181.8610  176.0900  135.7040 C   0  0  0  0  0  0  0  0  0  0  0  0
  188.3680  174.2020  136.6370 C   0  0  0  0  0  2  0  0  0  0  0  0
  189.4960  175.1850  136.3800 C   0  0  0  0  0  2  0  0  0  0  0  0
  191.2040  174.0450  137.5780 O   0  0  0  0  0  0  0  0  0  0  0  0
  190.5090  175.0900  137.4680 C   0  0  0  0  0  0  0  0  0  0  0  0
  190.7780  176.0180  139.6290 O   0  0  0  0  0  0  0  0  0  0  0  0
  190.8440  177.4760  137.9050 F   0  0  0  0  0  0  0  0  0  0  0  0
  190.7160  176.2150  138.3870 C   0  0  0  0  0  0  0  0  0  0  0  0
  184.9690  178.8740  139.6870 C   0  0  0  0  0  2  0  0  0  0  0  0
  184.3480  178.7540  142.0960 C   0  0  0  0  0  1  0  0  0  0  0  0
  185.3950  178.3810  141.0600 C   0  0  2  0  0  3  0  0  0  0  0  0
  186.7210  179.0220  141.4230 C   0  0  0  0  0  2  0  0  0  0  0  0
  187.7640  178.0860  141.2870 O   0  0  0  0  0  0  0  0  0  0  0  0
  188.3920  177.8780  142.5390 C   0  0  1  0  0  3  0  0  0  0  0  0
  188.9190  176.0110  143.9020 O   0  0  0  0  0  0  0  0  0  0  0  0
  187.8380  176.6920  143.3180 C   0  0  1  0  0  3  0  0  0  0  0  0
  189.8790  177.6390  142.4460 C   0  0  2  0  0  3  0  0  0  0  0  0
  186.8960  177.1820  144.3980 C   0  0  0  0  0  1  0  0  0  0  0  0
  189.9970  176.2310  143.0310 C   0  0  1  0  0  3  0  0  0  0  0  0
  191.3210  175.9230  143.7140 C   0  0  0  0  0  1  0  0  0  0  0  0
  190.5790  178.7080  143.2780 C   0  0  0  0  0  2  0  0  0  0  0  0
  189.9590  178.8250  144.5210 O   0  0  0  0  0  1  0  0  0  0  0  0
  3 15  1  0  0  0  0
  4 11  1  6  0  0  0
  4 13  1  0  0  0  0
  4 15  1  0  0  0  0
  4  1  1  0  0  0  0
  5  6  1  0  0  0  0
  6 14  1  0  0  0  0
  7 16  2  0  0  0  0
  7 13  1  0  0  0  0
  9 23  1  1  0  0  0
  9  2  1  0  0  0  0
  9  1  1  0  0  0  0
 10  8  1  6  0  0  0
 10  2  1  0  0  0  0
 10 12  1  0  0  0  0
 12 14  1  0  0  0  0
 13  5  1  1  0  0  0
 14 30  1  1  0  0  0
 16  3  1  0  0  0  0
 17 18  2  0  0  0  0
 18 16  1  0  0  0  0
 18 19  1  0  0  0  0
 19 20  2  0  0  0  0
 21 22  3  0  0  0  0
 22  7  1  0  0  0  0
 24 23  1  0  0  0  0
 24 26  1  0  0  0  0
 26 25  2  0  0  0  0
 26 29  1  0  0  0  0
 28 29  1  0  0  0  0
 29 27  2  0  0  0  0
 30 32  1  0  0  0  0
 32 33  1  0  0  0  0
 32 31  1  1  0  0  0
 34 33  1  0  0  0  0
 35 34  1  6  0  0  0
 35 37  1  0  0  0  0
 37 36  1  0  0  0  0
 37 39  1  1  0  0  0
 38 35  1  0  0  0  0
 38 40  1  0  0  0  0
 38 42  1  1  0  0  0
 40 41  1  1  0  0  0
 40 36  1  0  0  0  0
 42 43  1  0  0  0  0
M  END
>  <MODEL>
1

>  <REMARK>
 VINA RESULT:      -6.0      0.000      0.000
  Name = 
  13 active torsions:
  status: ('A' for Active; 'I' for Inactive)
    1  A    between atoms: C_2  and  C_23
    2  A    between atoms: C_2  and  O_28
    3  A    between atoms: C_3  and  C_42
    4  A    between atoms: C_5  and  O_28
    5  A    between atoms: C_6  and  C_18
    6  A    between atoms: C_13  and  C_21
    7  A    between atoms: C_19  and  C_34
    8  A    between atoms: C_23  and  C_32
    9  A    between atoms: C_25  and  C_26
   10  A    between atoms: C_25  and  C_33
   11  A    between atoms: C_32  and  C_39
   12  A    between atoms: C_33  and  C_34
   13  A    between atoms: C_41  and  C_42
                            x       y       z     vdW  Elec       q    Type
                         _______ _______ _______ _____ _____    ______ ____

>  <TORSDO>
F 13

$$$$
=
 OpenBabel10222418573D

 43 45  0  0  1  0  0  0  0  0999 V2000
  186.1860  179.2050  144.8580 O   0  0  0  0  0  0  0  0  0  0  0  0
  188.0270  177.7520  144.2990 C   0  0  0  0  0  2  0  0  0  0  0  0
  182.6630  180.0480  143.8370 C   0  0  0  0  0  2  0  0  0  0  0  0
  184.8830  178.9160  144.3560 C   0  0  2  0  0  0  0  0  0  0  0  0
  185.8110  179.4170  142.0420 C   0  0  0  0  0  2  0  0  0  0  0  0
  186.6030  178.6590  140.9890 C   0  0  0  0  0  2  0  0  0  0  0  0
  183.5850  178.3500  142.2440 C   0  0  0  0  0  0  0  0  0  0  0  0
  187.6880  175.4120  143.5250 C   0  0  0  0  0  1  0  0  0  0  0  0
  186.8740  178.0320  145.2480 C   0  0  1  0  0  3  0  0  0  0  0  0
  187.5510  176.8740  143.1500 C   0  0  2  0  0  3  0  0  0  0  0  0
  184.1370  177.8730  145.2120 C   0  0  0  0  0  1  0  0  0  0  0  0
  188.3050  177.1390  141.9280 N   0  0  0  0  0  2  0  0  0  0  0  0
  184.9500  178.4660  142.8800 C   0  0  2  0  0  3  0  0  0  0  0  0
  188.0450  178.5010  141.4620 C   0  0  1  0  0  3  0  0  0  0  0  0
  184.0820  180.2190  144.3930 C   0  0  0  0  0  2  0  0  0  0  0  0
  182.5590  179.1590  142.6160 C   0  0  0  0  0  0  0  0  0  0  0  0
  181.0240  179.7420  140.8970 O   0  0  0  0  0  0  0  0  0  0  0  0
  181.2280  179.0930  141.9580 C   0  0  0  0  0  0  0  0  0  0  0  0
  180.1270  178.2680  142.4820 C   0  0  0  0  0  3  0  0  0  0  0  0
  179.6860  178.3530  143.7300 C   0  0  0  0  0  2  0  0  0  0  0  0
  183.3640  176.6630  140.2110 C   0  0  0  0  0  3  0  0  0  0  0  0
  183.4680  177.4320  141.1330 C   0  0  0  0  0  0  0  0  0  0  0  0
  187.4420  178.2230  146.6440 C   0  0  0  0  0  2  0  0  0  0  0  0
  188.2490  177.0070  147.0620 C   0  0  0  0  0  2  0  0  0  0  0  0
  189.6220  178.2380  148.5640 O   0  0  0  0  0  0  0  0  0  0  0  0
  189.5730  177.4360  147.5930 C   0  0  0  0  0  0  0  0  0  0  0  0
  191.8750  176.8910  147.6820 O   0  0  0  0  0  0  0  0  0  0  0  0
  190.8180  176.4320  145.7390 F   0  0  0  0  0  0  0  0  0  0  0  0
  190.8110  176.9070  147.0090 C   0  0  0  0  0  0  0  0  0  0  0  0
  189.0070  178.8280  140.3300 C   0  0  0  0  0  2  0  0  0  0  0  0
  191.1860  177.6260  140.4310 C   0  0  0  0  0  1  0  0  0  0  0  0
  189.7690  177.5910  139.8840 C   0  0  2  0  0  3  0  0  0  0  0  0
  189.8090  177.5580  138.3680 C   0  0  0  0  0  2  0  0  0  0  0  0
  189.0790  176.4540  137.8890 O   0  0  0  0  0  0  0  0  0  0  0  0
  188.0650  176.8930  137.0050 C   0  0  1  0  0  3  0  0  0  0  0  0
  186.6650  175.8940  135.3720 O   0  0  0  0  0  0  0  0  0  0  0  0
  188.0130  176.1220  135.6920 C   0  0  1  0  0  3  0  0  0  0  0  0
  186.6720  176.8040  137.5770 C   0  0  2  0  0  3  0  0  0  0  0  0
  188.6720  176.9320  134.5950 C   0  0  0  0  0  1  0  0  0  0  0  0
  186.0070  175.8240  136.6100 C   0  0  1  0  0  3  0  0  0  0  0  0
  184.5060  176.0000  136.4390 C   0  0  0  0  0  1  0  0  0  0  0  0
  186.0620  178.2010  137.5470 C   0  0  0  0  0  2  0  0  0  0  0  0
  187.0450  179.1430  137.2480 O   0  0  0  0  0  1  0  0  0  0  0  0
  1  9  1  0  0  0  0
  2  9  1  0  0  0  0
  3 15  1  0  0  0  0
  4 15  1  0  0  0  0
  4  1  1  0  0  0  0
  4 11  1  1  0  0  0
  6 14  1  0  0  0  0
  6  5  1  0  0  0  0
  7 16  2  0  0  0  0
  7 13  1  0  0  0  0
  9 23  1  1  0  0  0
 10  8  1  1  0  0  0
 10  2  1  0  0  0  0
 12 10  1  0  0  0  0
 13  5  1  6  0  0  0
 13  4  1  0  0  0  0
 14 30  1  6  0  0  0
 14 12  1  0  0  0  0
 16  3  1  0  0  0  0
 17 18  2  0  0  0  0
 18 19  1  0  0  0  0
 18 16  1  0  0  0  0
 19 20  2  0  0  0  0
 21 22  3  0  0  0  0
 22  7  1  0  0  0  0
 23 24  1  0  0  0  0
 24 26  1  0  0  0  0
 26 25  2  0  0  0  0
 28 29  1  0  0  0  0
 29 26  1  0  0  0  0
 29 27  2  0  0  0  0
 32 30  1  0  0  0  0
 32 31  1  1  0  0  0
 33 32  1  0  0  0  0
 34 33  1  0  0  0  0
 35 38  1  0  0  0  0
 35 34  1  1  0  0  0
 36 37  1  0  0  0  0
 36 40  1  0  0  0  0
 37 39  1  6  0  0  0
 37 35  1  0  0  0  0
 38 42  1  6  0  0  0
 40 41  1  6  0  0  0
 40 38  1  0  0  0  0
 43 42  1  0  0  0  0
M  END
>  <MODEL>
2

>  <REMARK>
 VINA RESULT:      -5.7      3.242      7.973
  Name = 
  13 active torsions:
  status: ('A' for Active; 'I' for Inactive)
    1  A    between atoms: C_2  and  C_23
    2  A    between atoms: C_2  and  O_28
    3  A    between atoms: C_3  and  C_42
    4  A    between atoms: C_5  and  O_28
    5  A    between atoms: C_6  and  C_18
    6  A    between atoms: C_13  and  C_21
    7  A    between atoms: C_19  and  C_34
    8  A    between atoms: C_23  and  C_32
    9  A    between atoms: C_25  and  C_26
   10  A    between atoms: C_25  and  C_33
   11  A    between atoms: C_32  and  C_39
   12  A    between atoms: C_33  and  C_34
   13  A    between atoms: C_41  and  C_42
                            x       y       z     vdW  Elec       q    Type
                         _______ _______ _______ _____ _____    ______ ____

>  <TORSDO>
F 13

$$$$
=
 OpenBabel10222418573D

 43 45  0  0  1  0  0  0  0  0999 V2000
  186.1230  174.0970  137.2190 O   0  0  0  0  0  0  0  0  0  0  0  0
  186.6490  176.4090  136.7830 C   0  0  0  0  0  2  0  0  0  0  0  0
  183.3500  171.5760  136.8770 C   0  0  0  0  0  2  0  0  0  0  0  0
  184.9890  173.5020  136.5920 C   0  0  2  0  0  0  0  0  0  0  0  0
  183.5600  175.0750  137.9910 C   0  0  0  0  0  2  0  0  0  0  0  0
  183.1060  176.5220  137.8950 C   0  0  0  0  0  2  0  0  0  0  0  0
  182.5070  173.8140  136.1380 C   0  0  0  0  0  0  0  0  0  0  0  0
  185.7990  177.6130  134.7780 C   0  0  0  0  0  1  0  0  0  0  0  0
  186.8170  174.9640  136.3430 C   0  0  1  0  0  3  0  0  0  0  0  0
  185.4210  177.0140  136.1190 C   0  0  2  0  0  3  0  0  0  0  0  0
  185.2910  173.0180  135.1600 C   0  0  0  0  0  1  0  0  0  0  0  0
  184.8110  178.0400  136.9590 N   0  0  0  0  0  2  0  0  0  0  0  0
  183.7860  174.4710  136.6010 C   0  0  2  0  0  3  0  0  0  0  0  0
  184.2880  177.4410  138.1860 C   0  0  1  0  0  3  0  0  0  0  0  0
  184.5910  172.2850  137.4290 C   0  0  0  0  0  2  0  0  0  0  0  0
  182.2630  172.4980  136.3640 C   0  0  0  0  0  0  0  0  0  0  0  0
  180.8660  171.3640  134.8100 O   0  0  0  0  0  0  0  0  0  0  0  0
  180.9850  171.8540  135.9650 C   0  0  0  0  0  0  0  0  0  0  0  0
  179.8390  171.7350  136.8840 C   0  0  0  0  0  3  0  0  0  0  0  0
  179.6390  172.5580  137.9050 C   0  0  0  0  0  2  0  0  0  0  0  0
  180.6760  175.4200  135.0880 C   0  0  0  0  0  3  0  0  0  0  0  0
  181.5050  174.6870  135.5660 C   0  0  0  0  0  0  0  0  0  0  0  0
  188.2970  174.6270  136.3700 C   0  0  0  0  0  2  0  0  0  0  0  0
  188.9900  175.3600  137.5050 C   0  0  0  0  0  2  0  0  0  0  0  0
  190.3310  176.3970  135.8370 O   0  0  0  0  0  0  0  0  0  0  0  0
  189.7770  176.5040  136.9640 C   0  0  0  0  0  0  0  0  0  0  0  0
  189.3740  178.8150  137.2750 O   0  0  0  0  0  0  0  0  0  0  0  0
  190.5280  177.7760  138.9160 F   0  0  0  0  0  0  0  0  0  0  0  0
  189.8820  177.7540  137.7240 C   0  0  0  0  0  0  0  0  0  0  0  0
  183.8680  178.5500  139.1390 C   0  0  0  0  0  2  0  0  0  0  0  0
  182.0780  178.2300  140.8420 C   0  0  0  0  0  1  0  0  0  0  0  0
  183.5440  177.9940  140.5160 C   0  0  2  0  0  3  0  0  0  0  0  0
  184.4120  178.6930  141.5450 C   0  0  0  0  0  2  0  0  0  0  0  0
  184.6710  177.8280  142.6250 O   0  0  0  0  0  0  0  0  0  0  0  0
  185.9160  178.1550  143.2170 C   0  0  1  0  0  3  0  0  0  0  0  0
  187.3130  177.2250  144.8920 O   0  0  0  0  0  0  0  0  0  0  0  0
  186.0280  177.7510  144.6810 C   0  0  1  0  0  3  0  0  0  0  0  0
  187.1030  177.5220  142.5340 C   0  0  2  0  0  3  0  0  0  0  0  0
  185.8190  178.9640  145.5650 C   0  0  0  0  0  1  0  0  0  0  0  0
  187.6780  176.6610  143.6590 C   0  0  1  0  0  3  0  0  0  0  0  0
  189.1790  176.4240  143.5920 C   0  0  0  0  0  1  0  0  0  0  0  0
  188.0350  178.6410  142.0830 C   0  0  0  0  0  2  0  0  0  0  0  0
  188.1260  178.6530  140.6910 O   0  0  0  0  0  1  0  0  0  0  0  0
  3 15  1  0  0  0  0
  4 11  1  6  0  0  0
  4 13  1  0  0  0  0
  4  1  1  0  0  0  0
  4 15  1  0  0  0  0
  6  5  1  0  0  0  0
  6 14  1  0  0  0  0
  7 16  2  0  0  0  0
  7 13  1  0  0  0  0
  9 23  1  1  0  0  0
  9  2  1  0  0  0  0
  9  1  1  0  0  0  0
 10  8  1  6  0  0  0
 10  2  1  0  0  0  0
 10 12  1  0  0  0  0
 12 14  1  0  0  0  0
 13  5  1  1  0  0  0
 14 30  1  1  0  0  0
 16  3  1  0  0  0  0
 17 18  2  0  0  0  0
 18 16  1  0  0  0  0
 18 19  1  0  0  0  0
 19 20  2  0  0  0  0
 21 22  3  0  0  0  0
 22  7  1  0  0  0  0
 23 24  1  0  0  0  0
 25 26  2  0  0  0  0
 26 24  1  0  0  0  0
 26 29  1  0  0  0  0
 27 29  2  0  0  0  0
 29 28  1  0  0  0  0
 30 32  1  0  0  0  0
 32 31  1  1  0  0  0
 32 33  1  0  0  0  0
 33 34  1  0  0  0  0
 35 34  1  6  0  0  0
 35 37  1  0  0  0  0
 37 36  1  0  0  0  0
 37 39  1  1  0  0  0
 38 42  1  1  0  0  0
 38 35  1  0  0  0  0
 38 40  1  0  0  0  0
 40 41  1  6  0  0  0
 40 36  1  0  0  0  0
 43 42  1  0  0  0  0
M  END
>  <MODEL>
3

>  <REMARK>
 VINA RESULT:      -5.7      1.544      1.951
  Name = 
  13 active torsions:
  status: ('A' for Active; 'I' for Inactive)
    1  A    between atoms: C_2  and  C_23
    2  A    between atoms: C_2  and  O_28
    3  A    between atoms: C_3  and  C_42
    4  A    between atoms: C_5  and  O_28
    5  A    between atoms: C_6  and  C_18
    6  A    between atoms: C_13  and  C_21
    7  A    between atoms: C_19  and  C_34
    8  A    between atoms: C_23  and  C_32
    9  A    between atoms: C_25  and  C_26
   10  A    between atoms: C_25  and  C_33
   11  A    between atoms: C_32  and  C_39
   12  A    between atoms: C_33  and  C_34
   13  A    between atoms: C_41  and  C_42
                            x       y       z     vdW  Elec       q    Type
                         _______ _______ _______ _____ _____    ______ ____

>  <TORSDO>
F 13

$$$$
=
 OpenBabel10222418573D

 43 45  0  0  1  0  0  0  0  0999 V2000
  184.3090  175.5220  137.8630 O   0  0  0  0  0  0  0  0  0  0  0  0
  186.5000  176.5180  137.7300 C   0  0  0  0  0  2  0  0  0  0  0  0
  180.6620  176.4140  138.1240 C   0  0  0  0  0  2  0  0  0  0  0  0
  183.1550  176.3240  137.6190 C   0  0  2  0  0  0  0  0  0  0  0  0
  183.7490  177.5850  139.7460 C   0  0  0  0  0  2  0  0  0  0  0  0
  184.6970  178.7100  140.1270 C   0  0  0  0  0  2  0  0  0  0  0  0
  182.0210  178.5140  138.2350 C   0  0  0  0  0  0  0  0  0  0  0  0
  186.9280  178.6370  136.4980 C   0  0  0  0  0  1  0  0  0  0  0  0
  185.3680  175.8380  136.9800 C   0  0  1  0  0  3  0  0  0  0  0  0
  186.2910  178.0260  137.7300 C   0  0  2  0  0  3  0  0  0  0  0  0
  182.8440  176.4710  136.1160 C   0  0  0  0  0  1  0  0  0  0  0  0
  186.8520  178.6430  138.9280 N   0  0  0  0  0  2  0  0  0  0  0  0
  183.2980  177.7090  138.2870 C   0  0  2  0  0  3  0  0  0  0  0  0
  186.1300  178.1870  140.1150 C   0  0  1  0  0  3  0  0  0  0  0  0
  181.9670  175.6250  138.2820 C   0  0  0  0  0  2  0  0  0  0  0  0
  180.8030  177.9150  138.2680 C   0  0  0  0  0  0  0  0  0  0  0  0
  178.9310  178.8900  139.3620 O   0  0  0  0  0  0  0  0  0  0  0  0
  179.5400  178.6990  138.2760 C   0  0  0  0  0  0  0  0  0  0  0  0
  178.9750  179.2990  137.0550 C   0  0  0  0  0  3  0  0  0  0  0  0
  179.1530  178.7850  135.8450 C   0  0  0  0  0  2  0  0  0  0  0  0
  182.2790  181.1520  138.3180 C   0  0  0  0  0  3  0  0  0  0  0  0
  182.1640  179.9520  138.2830 C   0  0  0  0  0  0  0  0  0  0  0  0
  185.9060  174.5590  136.3630 C   0  0  0  0  0  2  0  0  0  0  0  0
  185.0960  173.3620  136.8260 C   0  0  0  0  0  2  0  0  0  0  0  0
  186.8220  171.9720  135.9650 O   0  0  0  0  0  0  0  0  0  0  0  0
  185.5860  172.1260  136.1530 C   0  0  0  0  0  0  0  0  0  0  0  0
  184.9280  170.3060  134.7900 O   0  0  0  0  0  0  0  0  0  0  0  0
  183.4470  170.9550  136.3680 F   0  0  0  0  0  0  0  0  0  0  0  0
  184.6390  171.0850  135.7360 C   0  0  0  0  0  0  0  0  0  0  0  0
  186.8700  178.6570  141.3570 C   0  0  0  0  0  2  0  0  0  0  0  0
  185.6130  178.3630  143.4880 C   0  0  0  0  0  1  0  0  0  0  0  0
  186.6110  177.7290  142.5330 C   0  0  2  0  0  3  0  0  0  0  0  0
  187.9190  177.4780  143.2580 C   0  0  0  0  0  2  0  0  0  0  0  0
  187.6670  176.9490  144.5390 O   0  0  0  0  0  0  0  0  0  0  0  0
  188.5400  177.5410  145.4840 C   0  0  1  0  0  3  0  0  0  0  0  0
  189.4250  176.9490  147.6030 O   0  0  0  0  0  0  0  0  0  0  0  0
  188.2160  177.1860  146.9300 C   0  0  1  0  0  3  0  0  0  0  0  0
  189.9900  177.1700  145.2950 C   0  0  2  0  0  3  0  0  0  0  0  0
  187.4790  178.3350  147.5870 C   0  0  0  0  0  1  0  0  0  0  0  0
  190.2980  176.4640  146.6160 C   0  0  1  0  0  3  0  0  0  0  0  0
  191.7450  176.5530  147.0770 C   0  0  0  0  0  1  0  0  0  0  0  0
  190.7810  178.4580  145.0920 C   0  0  0  0  0  2  0  0  0  0  0  0
  191.6980  178.2940  144.0540 O   0  0  0  0  0  1  0  0  0  0  0  0
  2 10  1  0  0  0  0
  3 16  1  0  0  0  0
  3 15  1  0  0  0  0
  4 11  1  6  0  0  0
  4  1  1  0  0  0  0
  4 15  1  0  0  0  0
  4 13  1  0  0  0  0
  5  6  1  0  0  0  0
  7 16  2  0  0  0  0
  7 22  1  0  0  0  0
  7 13  1  0  0  0  0
  9 23  1  1  0  0  0
  9  2  1  0  0  0  0
  9  1  1  0  0  0  0
 10  8  1  6  0  0  0
 10 12  1  0  0  0  0
 12 14  1  0  0  0  0
 13  5  1  1  0  0  0
 14  6  1  0  0  0  0
 14 30  1  1  0  0  0
 16 18  1  0  0  0  0
 18 17  2  0  0  0  0
 19 18  1  0  0  0  0
 20 19  2  0  0  0  0
 22 21  3  0  0  0  0
 23 24  1  0  0  0  0
 25 26  2  0  0  0  0
 26 24  1  0  0  0  0
 27 29  2  0  0  0  0
 29 26  1  0  0  0  0
 29 28  1  0  0  0  0
 30 32  1  0  0  0  0
 32 33  1  0  0  0  0
 32 31  1  1  0  0  0
 33 34  1  0  0  0  0
 35 34  1  6  0  0  0
 35 37  1  0  0  0  0
 37 39  1  1  0  0  0
 37 36  1  0  0  0  0
 38 42  1  1  0  0  0
 38 35  1  0  0  0  0
 38 40  1  0  0  0  0
 40 41  1  1  0  0  0
 40 36  1  0  0  0  0
 43 42  1  0  0  0  0
M  END
>  <MODEL>
4

>  <REMARK>
 VINA RESULT:      -5.6      3.002      4.336
  Name = 
  13 active torsions:
  status: ('A' for Active; 'I' for Inactive)
    1  A    between atoms: C_2  and  C_23
    2  A    between atoms: C_2  and  O_28
    3  A    between atoms: C_3  and  C_42
    4  A    between atoms: C_5  and  O_28
    5  A    between atoms: C_6  and  C_18
    6  A    between atoms: C_13  and  C_21
    7  A    between atoms: C_19  and  C_34
    8  A    between atoms: C_23  and  C_32
    9  A    between atoms: C_25  and  C_26
   10  A    between atoms: C_25  and  C_33
   11  A    between atoms: C_32  and  C_39
   12  A    between atoms: C_33  and  C_34
   13  A    between atoms: C_41  and  C_42
                            x       y       z     vdW  Elec       q    Type
                         _______ _______ _______ _____ _____    ______ ____

>  <TORSDO>
F 13

$$$$
=
 OpenBabel10222418573D

 43 45  0  0  1  0  0  0  0  0999 V2000
  187.3760  177.1200  138.6940 O   0  0  0  0  0  0  0  0  0  0  0  0
  185.8150  177.1000  136.8560 C   0  0  0  0  0  2  0  0  0  0  0  0
  191.0290  176.6760  139.4810 C   0  0  0  0  0  2  0  0  0  0  0  0
  188.7740  177.2120  138.4300 C   0  0  2  0  0  0  0  0  0  0  0  0
  188.5880  174.9040  137.3760 C   0  0  0  0  0  2  0  0  0  0  0  0
  188.1660  174.3450  136.0280 C   0  0  0  0  0  2  0  0  0  0  0  0
  190.6620  176.2170  137.0480 C   0  0  0  0  0  0  0  0  0  0  0  0
  186.4090  177.9520  134.5960 C   0  0  0  0  0  1  0  0  0  0  0  0
  186.6200  177.9460  137.8290 C   0  0  1  0  0  3  0  0  0  0  0  0
  186.6320  176.8380  135.5990 C   0  0  2  0  0  3  0  0  0  0  0  0
  189.2390  178.6640  138.2010 C   0  0  0  0  0  1  0  0  0  0  0  0
  186.2820  175.5570  134.9930 N   0  0  0  0  0  2  0  0  0  0  0  0
  189.1670  176.3160  137.2340 C   0  0  2  0  0  3  0  0  0  0  0  0
  186.6510  174.4600  135.8870 C   0  0  1  0  0  3  0  0  0  0  0  0
  189.5060  176.6680  139.6580 C   0  0  0  0  0  2  0  0  0  0  0  0
  191.5140  176.2760  138.1040 C   0  0  0  0  0  0  0  0  0  0  0  0
  193.7170  177.1440  137.8980 O   0  0  0  0  0  0  0  0  0  0  0  0
  192.9830  176.1220  137.9390 C   0  0  0  0  0  0  0  0  0  0  0  0
  193.6340  174.8040  137.8490 C   0  0  0  0  0  3  0  0  0  0  0  0
  194.9320  174.6190  138.0550 C   0  0  0  0  0  2  0  0  0  0  0  0
  191.5190  175.6740  134.5980 C   0  0  0  0  0  3  0  0  0  0  0  0
  191.1260  175.9230  135.7100 C   0  0  0  0  0  0  0  0  0  0  0  0
  185.6510  178.7790  138.6490 C   0  0  0  0  0  2  0  0  0  0  0  0
  185.9550  178.6460  140.1310 C   0  0  0  0  0  2  0  0  0  0  0  0
  183.6560  179.2190  140.3330 O   0  0  0  0  0  0  0  0  0  0  0  0
  184.7270  178.9260  140.9270 C   0  0  0  0  0  0  0  0  0  0  0  0
  185.0180  179.8520  143.0860 O   0  0  0  0  0  0  0  0  0  0  0  0
  184.5080  177.6530  143.0070 F   0  0  0  0  0  0  0  0  0  0  0  0
  184.7590  178.8350  142.3920 C   0  0  0  0  0  0  0  0  0  0  0  0
  186.0750  173.1620  135.3420 C   0  0  0  0  0  2  0  0  0  0  0  0
  184.5830  171.2220  135.8060 C   0  0  0  0  0  1  0  0  0  0  0  0
  185.0080  172.6040  136.2710 C   0  0  2  0  0  3  0  0  0  0  0  0
  183.8110  173.5360  136.2590 C   0  0  0  0  0  2  0  0  0  0  0  0
  183.5770  174.0370  137.5540 O   0  0  0  0  0  0  0  0  0  0  0  0
  182.4010  174.8260  137.5600 C   0  0  1  0  0  3  0  0  0  0  0  0
  180.3580  174.8490  138.7630 O   0  0  0  0  0  0  0  0  0  0  0  0
  181.1380  174.0510  137.9100 C   0  0  1  0  0  3  0  0  0  0  0  0
  182.4440  175.9820  138.5280 C   0  0  2  0  0  3  0  0  0  0  0  0
  180.3610  173.7370  136.6480 C   0  0  0  0  0  1  0  0  0  0  0  0
  181.2830  175.6390  139.4620 C   0  0  1  0  0  3  0  0  0  0  0  0
  180.5990  176.8340  140.1100 C   0  0  0  0  0  1  0  0  0  0  0  0
  182.2330  177.2670  137.7350 C   0  0  0  0  0  2  0  0  0  0  0  0
  182.3170  177.0030  136.3690 O   0  0  0  0  0  1  0  0  0  0  0  0
  2  9  1  0  0  0  0
  3 15  1  0  0  0  0
  4 11  1  6  0  0  0
  4  1  1  0  0  0  0
  4 15  1  0  0  0  0
  6  5  1  0  0  0  0
  7 13  1  0  0  0  0
  7 16  2  0  0  0  0
  9 23  1  1  0  0  0
  9  1  1  0  0  0  0
 10  8  1  6  0  0  0
 10  2  1  0  0  0  0
 12 10  1  0  0  0  0
 12 14  1  0  0  0  0
 13  5  1  1  0  0  0
 13  4  1  0  0  0  0
 14 30  1  6  0  0  0
 14  6  1  0  0  0  0
 16  3  1  0  0  0  0
 17 18  2  0  0  0  0
 18 16  1  0  0  0  0
 19 18  1  0  0  0  0
 19 20  2  0  0  0  0
 21 22  3  0  0  0  0
 22  7  1  0  0  0  0
 23 24  1  0  0  0  0
 24 26  1  0  0  0  0
 25 26  2  0  0  0  0
 26 29  1  0  0  0  0
 29 28  1  0  0  0  0
 29 27  2  0  0  0  0
 30 32  1  0  0  0  0
 32 31  1  6  0  0  0
 33 32  1  0  0  0  0
 33 34  1  0  0  0  0
 35 34  1  1  0  0  0
 35 37  1  0  0  0  0
 35 38  1  0  0  0  0
 36 40  1  0  0  0  0
 37 39  1  6  0  0  0
 37 36  1  0  0  0  0
 38 42  1  6  0  0  0
 38 40  1  0  0  0  0
 40 41  1  6  0  0  0
 43 42  1  0  0  0  0
M  END
>  <MODEL>
5

>  <REMARK>
 VINA RESULT:      -5.4      2.842      8.591
  Name = 
  13 active torsions:
  status: ('A' for Active; 'I' for Inactive)
    1  A    between atoms: C_2  and  C_23
    2  A    between atoms: C_2  and  O_28
    3  A    between atoms: C_3  and  C_42
    4  A    between atoms: C_5  and  O_28
    5  A    between atoms: C_6  and  C_18
    6  A    between atoms: C_13  and  C_21
    7  A    between atoms: C_19  and  C_34
    8  A    between atoms: C_23  and  C_32
    9  A    between atoms: C_25  and  C_26
   10  A    between atoms: C_25  and  C_33
   11  A    between atoms: C_32  and  C_39
   12  A    between atoms: C_33  and  C_34
   13  A    between atoms: C_41  and  C_42
                            x       y       z     vdW  Elec       q    Type
                         _______ _______ _______ _____ _____    ______ ____

>  <TORSDO>
F 13

$$$$
=
 OpenBabel10222418573D

 43 45  0  0  1  0  0  0  0  0999 V2000
  185.6790  175.1140  137.3220 O   0  0  0  0  0  0  0  0  0  0  0  0
  187.2110  176.9410  137.6800 C   0  0  0  0  0  2  0  0  0  0  0  0
  182.0790  174.3850  136.5060 C   0  0  0  0  0  2  0  0  0  0  0  0
  184.4210  175.3610  136.6980 C   0  0  2  0  0  0  0  0  0  0  0  0
  183.8140  176.7100  138.7670 C   0  0  0  0  0  2  0  0  0  0  0  0
  184.0690  178.1210  139.2710 C   0  0  0  0  0  2  0  0  0  0  0  0
  182.3680  176.8590  136.7630 C   0  0  0  0  0  0  0  0  0  0  0  0
  187.0680  179.0690  136.3970 C   0  0  0  0  0  1  0  0  0  0  0  0
  186.7210  175.8640  136.7260 C   0  0  1  0  0  3  0  0  0  0  0  0
  186.4140  178.2210  137.4700 C   0  0  2  0  0  3  0  0  0  0  0  0
  184.5200  175.3950  135.1600 C   0  0  0  0  0  1  0  0  0  0  0  0
  186.3070  178.9910  138.7060 N   0  0  0  0  0  2  0  0  0  0  0  0
  183.7890  176.6640  137.2360 C   0  0  2  0  0  3  0  0  0  0  0  0
  185.5280  178.2490  139.6960 C   0  0  1  0  0  3  0  0  0  0  0  0
  183.4870  174.2140  137.0870 C   0  0  0  0  0  2  0  0  0  0  0  0
  181.5460  175.8020  136.5300 C   0  0  0  0  0  0  0  0  0  0  0  0
  179.8350  176.0340  134.8970 O   0  0  0  0  0  0  0  0  0  0  0  0
  180.1290  175.9830  136.1210 C   0  0  0  0  0  0  0  0  0  0  0  0
  179.0300  176.0780  137.0970 C   0  0  0  0  0  3  0  0  0  0  0  0
  179.1650  175.7530  138.3760 C   0  0  0  0  0  2  0  0  0  0  0  0
  181.5010  179.3620  136.6490 C   0  0  0  0  0  3  0  0  0  0  0  0
  181.8910  178.2230  136.7020 C   0  0  0  0  0  0  0  0  0  0  0  0
  187.8860  174.9420  136.4090 C   0  0  0  0  0  2  0  0  0  0  0  0
  189.2010  175.5930  136.7970 C   0  0  0  0  0  2  0  0  0  0  0  0
  189.7790  173.3600  137.3740 O   0  0  0  0  0  0  0  0  0  0  0  0
  190.1630  174.5550  137.2610 C   0  0  0  0  0  0  0  0  0  0  0  0
  192.5000  174.1980  137.1300 O   0  0  0  0  0  0  0  0  0  0  0  0
  191.8340  176.0210  138.2870 F   0  0  0  0  0  0  0  0  0  0  0  0
  191.5550  174.9140  137.5550 C   0  0  0  0  0  0  0  0  0  0  0  0
  185.6240  178.9610  141.0360 C   0  0  0  0  0  2  0  0  0  0  0  0
  184.7870  178.3090  143.2910 C   0  0  0  0  0  1  0  0  0  0  0  0
  185.7620  177.9650  142.1770 C   0  0  2  0  0  3  0  0  0  0  0  0
  187.1810  178.0190  142.7080 C   0  0  0  0  0  2  0  0  0  0  0  0
  187.5550  176.7600  143.2150 O   0  0  0  0  0  0  0  0  0  0  0  0
  188.8220  176.8490  143.8410 C   0  0  1  0  0  3  0  0  0  0  0  0
  191.0140  177.4770  143.1890 O   0  0  0  0  0  0  0  0  0  0  0  0
  189.9920  176.5550  142.9110 C   0  0  1  0  0  3  0  0  0  0  0  0
  189.1160  178.2030  144.4390 C   0  0  2  0  0  3  0  0  0  0  0  0
  190.4940  175.1450  143.1480 C   0  0  0  0  0  1  0  0  0  0  0  0
  190.3480  178.6270  143.6400 C   0  0  1  0  0  3  0  0  0  0  0  0
  191.3040  179.5590  144.3690 C   0  0  0  0  0  1  0  0  0  0  0  0
  189.3890  178.0090  145.9270 C   0  0  0  0  0  2  0  0  0  0  0  0
  188.1960  178.0920  146.6440 O   0  0  0  0  0  1  0  0  0  0  0  0
  3 16  1  0  0  0  0
  3 15  1  0  0  0  0
  4 11  1  6  0  0  0
  4 15  1  0  0  0  0
  4 13  1  0  0  0  0
  4  1  1  0  0  0  0
  5  6  1  0  0  0  0
  6 14  1  0  0  0  0
  7 13  1  0  0  0  0
  9 23  1  1  0  0  0
  9  1  1  0  0  0  0
  9  2  1  0  0  0  0
 10  8  1  6  0  0  0
 10  2  1  0  0  0  0
 10 12  1  0  0  0  0
 12 14  1  0  0  0  0
 13  5  1  1  0  0  0
 14 30  1  1  0  0  0
 16  7  2  0  0  0  0
 17 18  2  0  0  0  0
 18 16  1  0  0  0  0
 18 19  1  0  0  0  0
 19 20  2  0  0  0  0
 21 22  3  0  0  0  0
 22  7  1  0  0  0  0
 23 24  1  0  0  0  0
 24 26  1  0  0  0  0
 26 25  2  0  0  0  0
 26 29  1  0  0  0  0
 27 29  2  0  0  0  0
 29 28  1  0  0  0  0
 30 32  1  0  0  0  0
 32 33  1  0  0  0  0
 32 31  1  1  0  0  0
 33 34  1  0  0  0  0
 35 34  1  6  0  0  0
 35 38  1  0  0  0  0
 36 40  1  0  0  0  0
 37 39  1  1  0  0  0
 37 36  1  0  0  0  0
 37 35  1  0  0  0  0
 38 42  1  1  0  0  0
 40 41  1  1  0  0  0
 40 38  1  0  0  0  0
 42 43  1  0  0  0  0
M  END
>  <MODEL>
6

>  <REMARK>
 VINA RESULT:      -5.4      1.530      2.090
  Name = 
  13 active torsions:
  status: ('A' for Active; 'I' for Inactive)
    1  A    between atoms: C_2  and  C_23
    2  A    between atoms: C_2  and  O_28
    3  A    between atoms: C_3  and  C_42
    4  A    between atoms: C_5  and  O_28
    5  A    between atoms: C_6  and  C_18
    6  A    between atoms: C_13  and  C_21
    7  A    between atoms: C_19  and  C_34
    8  A    between atoms: C_23  and  C_32
    9  A    between atoms: C_25  and  C_26
   10  A    between atoms: C_25  and  C_33
   11  A    between atoms: C_32  and  C_39
   12  A    between atoms: C_33  and  C_34
   13  A    between atoms: C_41  and  C_42
                            x       y       z     vdW  Elec       q    Type
                         _______ _______ _______ _____ _____    ______ ____

>  <TORSDO>
F 13

$$$$
=
 OpenBabel10222418573D

 43 45  0  0  1  0  0  0  0  0999 V2000
  190.8340  176.7160  137.0810 O   0  0  0  0  0  0  0  0  0  0  0  0
  188.7330  175.9220  136.2040 C   0  0  0  0  0  2  0  0  0  0  0  0
  192.5830  177.5040  140.3180 C   0  0  0  0  0  2  0  0  0  0  0  0
  191.1320  176.5380  138.4640 C   0  0  2  0  0  0  0  0  0  0  0  0
  189.2360  178.1640  138.9420 C   0  0  0  0  0  2  0  0  0  0  0  0
  187.7220  178.0830  139.0520 C   0  0  0  0  0  2  0  0  0  0  0  0
  190.2120  176.8650  140.8110 C   0  0  0  0  0  0  0  0  0  0  0  0
  187.3770  174.1870  137.3620 C   0  0  0  0  0  1  0  0  0  0  0  0
  190.1780  175.5880  136.5320 C   0  0  1  0  0  3  0  0  0  0  0  0
  187.8460  175.6280  137.4060 C   0  0  2  0  0  3  0  0  0  0  0  0
  191.6930  175.1350  138.7720 C   0  0  0  0  0  1  0  0  0  0  0  0
  186.6900  176.5180  137.4470 N   0  0  0  0  0  2  0  0  0  0  0  0
  189.8920  176.8360  139.3350 C   0  0  2  0  0  3  0  0  0  0  0  0
  187.1260  177.8980  137.6600 C   0  0  1  0  0  3  0  0  0  0  0  0
  192.2010  177.5670  138.8350 C   0  0  0  0  0  2  0  0  0  0  0  0
  191.4240  177.2780  141.2660 C   0  0  0  0  0  0  0  0  0  0  0  0
  192.0590  176.3270  143.3500 O   0  0  0  0  0  0  0  0  0  0  0  0
  191.7300  177.3660  142.7180 C   0  0  0  0  0  0  0  0  0  0  0  0
  191.6960  178.6390  143.4570 C   0  0  0  0  0  3  0  0  0  0  0  0
  190.9230  178.8430  144.5170 C   0  0  0  0  0  2  0  0  0  0  0  0
  188.2140  176.3010  142.4600 C   0  0  0  0  0  3  0  0  0  0  0  0
  189.1230  176.5610  141.7120 C   0  0  0  0  0  0  0  0  0  0  0  0
  190.8760  175.1770  135.2470 C   0  0  0  0  0  2  0  0  0  0  0  0
  192.1380  175.9940  135.0410 C   0  0  0  0  0  2  0  0  0  0  0  0
  193.3010  173.9970  135.6010 O   0  0  0  0  0  0  0  0  0  0  0  0
  193.3140  175.2570  135.5830 C   0  0  0  0  0  0  0  0  0  0  0  0
  195.3330  175.4220  136.8080 O   0  0  0  0  0  0  0  0  0  0  0  0
  194.6740  177.2880  135.7180 F   0  0  0  0  0  0  0  0  0  0  0  0
  194.4890  175.9910  136.0670 C   0  0  0  0  0  0  0  0  0  0  0  0
  185.9360  178.8270  137.4720 C   0  0  0  0  0  2  0  0  0  0  0  0
  183.7140  177.7090  137.3450 C   0  0  0  0  0  1  0  0  0  0  0  0
  184.7350  178.3470  138.2710 C   0  0  2  0  0  3  0  0  0  0  0  0
  184.1090  179.5340  138.9780 C   0  0  0  0  0  2  0  0  0  0  0  0
  184.6060  179.6300  140.2920 O   0  0  0  0  0  0  0  0  0  0  0  0
  183.9330  178.7070  141.1300 C   0  0  1  0  0  3  0  0  0  0  0  0
  183.0130  178.7320  143.3150 O   0  0  0  0  0  0  0  0  0  0  0  0
  184.2180  178.8990  142.6140 C   0  0  1  0  0  3  0  0  0  0  0  0
  182.4310  178.7450  141.0010 C   0  0  2  0  0  3  0  0  0  0  0  0
  185.2290  177.8710  143.0790 C   0  0  0  0  0  1  0  0  0  0  0  0
  182.0150  179.1420  142.4180 C   0  0  1  0  0  3  0  0  0  0  0  0
  180.6480  178.6390  142.8570 C   0  0  0  0  0  1  0  0  0  0  0  0
  181.9590  177.3540  140.5930 C   0  0  0  0  0  2  0  0  0  0  0  0
  181.0260  177.4510  139.5620 O   0  0  0  0  0  1  0  0  0  0  0  0
  1  4  1  0  0  0  0
  2  9  1  0  0  0  0
  2 10  1  0  0  0  0
  3 16  1  0  0  0  0
  4 11  1  1  0  0  0
  4 15  1  0  0  0  0
  4 13  1  0  0  0  0
  5  6  1  0  0  0  0
  7 16  2  0  0  0  0
  7 22  1  0  0  0  0
  9 23  1  6  0  0  0
  9  1  1  0  0  0  0
 10  8  1  6  0  0  0
 10 12  1  0  0  0  0
 12 14  1  0  0  0  0
 13  5  1  6  0  0  0
 13  7  1  0  0  0  0
 14 30  1  1  0  0  0
 14  6  1  0  0  0  0
 15  3  1  0  0  0  0
 16 18  1  0  0  0  0
 18 17  2  0  0  0  0
 18 19  1  0  0  0  0
 19 20  2  0  0  0  0
 22 21  3  0  0  0  0
 24 23  1  0  0  0  0
 24 26  1  0  0  0  0
 26 25  2  0  0  0  0
 26 29  1  0  0  0  0
 28 29  1  0  0  0  0
 29 27  2  0  0  0  0
 30 32  1  0  0  0  0
 32 31  1  6  0  0  0
 32 33  1  0  0  0  0
 33 34  1  0  0  0  0
 35 34  1  6  0  0  0
 35 37  1  0  0  0  0
 37 39  1  1  0  0  0
 37 36  1  0  0  0  0
 38 42  1  1  0  0  0
 38 35  1  0  0  0  0
 38 40  1  0  0  0  0
 40 41  1  1  0  0  0
 40 36  1  0  0  0  0
 43 42  1  0  0  0  0
M  END
>  <MODEL>
7

>  <REMARK>
 VINA RESULT:      -5.1      3.045      7.549
  Name = 
  13 active torsions:
  status: ('A' for Active; 'I' for Inactive)
    1  A    between atoms: C_2  and  C_23
    2  A    between atoms: C_2  and  O_28
    3  A    between atoms: C_3  and  C_42
    4  A    between atoms: C_5  and  O_28
    5  A    between atoms: C_6  and  C_18
    6  A    between atoms: C_13  and  C_21
    7  A    between atoms: C_19  and  C_34
    8  A    between atoms: C_23  and  C_32
    9  A    between atoms: C_25  and  C_26
   10  A    between atoms: C_25  and  C_33
   11  A    between atoms: C_32  and  C_39
   12  A    between atoms: C_33  and  C_34
   13  A    between atoms: C_41  and  C_42
                            x       y       z     vdW  Elec       q    Type
                         _______ _______ _______ _____ _____    ______ ____

>  <TORSDO>
F 13

$$$$
=
 OpenBabel10222418573D

 43 45  0  0  1  0  0  0  0  0999 V2000
  182.9440  178.9480  139.8120 O   0  0  0  0  0  0  0  0  0  0  0  0
  182.6290  176.5580  139.8050 C   0  0  0  0  0  2  0  0  0  0  0  0
  181.7790  182.0920  138.1030 C   0  0  0  0  0  2  0  0  0  0  0  0
  181.9940  179.7860  139.1560 C   0  0  2  0  0  0  0  0  0  0  0  0
  182.7760  178.7360  136.9750 C   0  0  0  0  0  2  0  0  0  0  0  0
  182.4830  177.4600  136.2050 C   0  0  0  0  0  2  0  0  0  0  0  0
  180.7230  180.1200  136.9800 C   0  0  0  0  0  0  0  0  0  0  0  0
  180.4150  175.5070  139.3770 C   0  0  0  0  0  1  0  0  0  0  0  0
  182.3220  177.8770  140.4950 C   0  0  1  0  0  3  0  0  0  0  0  0
  181.5700  176.2640  138.7520 C   0  0  2  0  0  3  0  0  0  0  0  0
  180.7640  180.0860  140.0360 C   0  0  0  0  0  1  0  0  0  0  0  0
  182.1210  175.4890  137.6440 N   0  0  0  0  0  2  0  0  0  0  0  0
  181.5640  179.1740  137.8040 C   0  0  2  0  0  3  0  0  0  0  0  0
  183.1220  176.2770  136.9270 C   0  0  1  0  0  3  0  0  0  0  0  0
  182.6910  181.1120  138.8490 C   0  0  0  0  0  2  0  0  0  0  0  0
  180.9000  181.4650  137.0420 C   0  0  0  0  0  0  0  0  0  0  0  0
  178.9430  182.7110  136.5250 O   0  0  0  0  0  0  0  0  0  0  0  0
  180.1180  182.4010  136.1930 C   0  0  0  0  0  0  0  0  0  0  0  0
  180.6730  183.0170  134.9760 C   0  0  0  0  0  3  0  0  0  0  0  0
  180.4150  184.2660  134.6110 C   0  0  0  0  0  2  0  0  0  0  0  0
  179.0630  179.0150  135.2320 C   0  0  0  0  0  3  0  0  0  0  0  0
  179.8180  179.5130  136.0290 C   0  0  0  0  0  0  0  0  0  0  0  0
  182.8560  177.8080  141.9150 C   0  0  0  0  0  2  0  0  0  0  0  0
  184.3460  178.0970  141.9380 C   0  0  0  0  0  2  0  0  0  0  0  0
  183.9870  178.6440  144.2240 O   0  0  0  0  0  0  0  0  0  0  0  0
  184.8070  178.2690  143.3440 C   0  0  0  0  0  0  0  0  0  0  0  0
  186.6330  178.2780  144.8500 O   0  0  0  0  0  0  0  0  0  0  0  0
  187.0250  177.3760  142.8160 F   0  0  0  0  0  0  0  0  0  0  0  0
  186.1980  177.9760  143.7080 C   0  0  0  0  0  0  0  0  0  0  0  0
  183.8390  175.3800  135.9310 C   0  0  0  0  0  2  0  0  0  0  0  0
  186.1420  174.5580  135.4520 C   0  0  0  0  0  1  0  0  0  0  0  0
  185.2990  175.7770  135.7880 C   0  0  2  0  0  3  0  0  0  0  0  0
  185.7750  176.3800  137.0950 C   0  0  0  0  0  2  0  0  0  0  0  0
  186.9390  175.7210  137.5350 O   0  0  0  0  0  0  0  0  0  0  0  0
  188.0400  176.6120  137.4990 C   0  0  1  0  0  3  0  0  0  0  0  0
  188.7820  178.4710  138.7700 O   0  0  0  0  0  0  0  0  0  0  0  0
  187.7120  178.0190  137.9800 C   0  0  1  0  0  3  0  0  0  0  0  0
  189.2160  176.1670  138.3320 C   0  0  2  0  0  3  0  0  0  0  0  0
  187.5270  178.9390  136.7910 C   0  0  0  0  0  1  0  0  0  0  0  0
  189.3240  177.3100  139.3410 C   0  0  1  0  0  3  0  0  0  0  0  0
  190.7230  177.5700  139.8800 C   0  0  0  0  0  1  0  0  0  0  0  0
  190.4260  176.0480  137.4110 C   0  0  0  0  0  2  0  0  0  0  0  0
  190.5790  174.7270  136.9940 O   0  0  0  0  0  1  0  0  0  0  0  0
  1  9  1  0  0  0  0
  2  9  1  0  0  0  0
  3 15  1  0  0  0  0
  4  1  1  0  0  0  0
  4 11  1  1  0  0  0
  6 14  1  0  0  0  0
  6  5  1  0  0  0  0
  7 16  2  0  0  0  0
  7 13  1  0  0  0  0
  9 23  1  1  0  0  0
 10  8  1  1  0  0  0
 10  2  1  0  0  0  0
 12 10  1  0  0  0  0
 13  5  1  6  0  0  0
 13  4  1  0  0  0  0
 14 30  1  6  0  0  0
 14 12  1  0  0  0  0
 15  4  1  0  0  0  0
 16  3  1  0  0  0  0
 18 17  2  0  0  0  0
 18 16  1  0  0  0  0
 19 18  1  0  0  0  0
 20 19  2  0  0  0  0
 21 22  3  0  0  0  0
 22  7  1  0  0  0  0
 23 24  1  0  0  0  0
 24 26  1  0  0  0  0
 26 29  1  0  0  0  0
 26 25  2  0  0  0  0
 28 29  1  0  0  0  0
 29 27  2  0  0  0  0
 32 31  1  1  0  0  0
 32 30  1  0  0  0  0
 32 33  1  0  0  0  0
 33 34  1  0  0  0  0
 35 34  1  1  0  0  0
 35 37  1  0  0  0  0
 35 38  1  0  0  0  0
 36 40  1  0  0  0  0
 37 39  1  6  0  0  0
 37 36  1  0  0  0  0
 38 42  1  6  0  0  0
 38 40  1  0  0  0  0
 40 41  1  6  0  0  0
 43 42  1  0  0  0  0
M  END
>  <MODEL>
8

>  <REMARK>
 VINA RESULT:      -4.8      3.551      6.876
  Name = 
  13 active torsions:
  status: ('A' for Active; 'I' for Inactive)
    1  A    between atoms: C_2  and  C_23
    2  A    between atoms: C_2  and  O_28
    3  A    between atoms: C_3  and  C_42
    4  A    between atoms: C_5  and  O_28
    5  A    between atoms: C_6  and  C_18
    6  A    between atoms: C_13  and  C_21
    7  A    between atoms: C_19  and  C_34
    8  A    between atoms: C_23  and  C_32
    9  A    between atoms: C_25  and  C_26
   10  A    between atoms: C_25  and  C_33
   11  A    between atoms: C_32  and  C_39
   12  A    between atoms: C_33  and  C_34
   13  A    between atoms: C_41  and  C_42
                            x       y       z     vdW  Elec       q    Type
                         _______ _______ _______ _____ _____    ______ ____

>  <TORSDO>
F 13

$$$$
=
 OpenBabel10222418573D

 43 45  0  0  1  0  0  0  0  0999 V2000
  182.1280  179.0910  137.1400 O   0  0  0  0  0  0  0  0  0  0  0  0
  183.8510  179.6770  138.7210 C   0  0  0  0  0  2  0  0  0  0  0  0
  180.5230  176.1220  135.4750 C   0  0  0  0  0  2  0  0  0  0  0  0
  181.6650  177.7440  137.0690 C   0  0  2  0  0  0  0  0  0  0  0  0
  183.9810  177.1370  136.2100 C   0  0  0  0  0  2  0  0  0  0  0  0
  185.3400  176.8490  136.8260 C   0  0  0  0  0  2  0  0  0  0  0  0
  182.4330  175.3270  136.8850 C   0  0  0  0  0  0  0  0  0  0  0  0
  184.3570  178.2800  140.7170 C   0  0  0  0  0  1  0  0  0  0  0  0
  182.3620  179.5000  138.4740 C   0  0  1  0  0  3  0  0  0  0  0  0
  184.4550  178.3670  139.2070 C   0  0  2  0  0  3  0  0  0  0  0  0
  180.5990  177.4280  138.1360 C   0  0  0  0  0  1  0  0  0  0  0  0
  185.8520  178.2400  138.7990 N   0  0  0  0  0  2  0  0  0  0  0  0
  182.8460  176.7520  137.1640 C   0  0  2  0  0  3  0  0  0  0  0  0
  185.9440  178.1520  137.3430 C   0  0  1  0  0  3  0  0  0  0  0  0
  181.0280  177.5530  135.6910 C   0  0  0  0  0  2  0  0  0  0  0  0
  181.4270  175.0370  136.0190 C   0  0  0  0  0  0  0  0  0  0  0  0
  181.6900  173.0070  134.8090 O   0  0  0  0  0  0  0  0  0  0  0  0
  181.0500  173.6370  135.6930 C   0  0  0  0  0  0  0  0  0  0  0  0
  179.9610  172.9290  136.3880 C   0  0  0  0  0  3  0  0  0  0  0  0
  180.0450  172.5290  137.6500 C   0  0  0  0  0  2  0  0  0  0  0  0
  183.9260  173.4250  137.9720 C   0  0  0  0  0  3  0  0  0  0  0  0
  183.2470  174.2910  137.4820 C   0  0  0  0  0  0  0  0  0  0  0  0
  181.6770  180.8320  138.7190 C   0  0  0  0  0  2  0  0  0  0  0  0
  181.1400  181.4030  137.4180 C   0  0  0  0  0  2  0  0  0  0  0  0
  179.8040  183.1080  138.3980 O   0  0  0  0  0  0  0  0  0  0  0  0
  180.7480  182.8270  137.6130 C   0  0  0  0  0  0  0  0  0  0  0  0
  182.3080  184.6060  137.5370 O   0  0  0  0  0  0  0  0  0  0  0  0
  181.2510  184.1250  135.5990 F   0  0  0  0  0  0  0  0  0  0  0  0
  181.4740  183.8950  136.9170 C   0  0  0  0  0  0  0  0  0  0  0  0
  187.4050  178.2510  136.9320 C   0  0  0  0  0  2  0  0  0  0  0  0
  189.1970  179.0970  138.4420 C   0  0  0  0  0  1  0  0  0  0  0  0
  188.3240  177.9040  138.0930 C   0  0  2  0  0  3  0  0  0  0  0  0
  189.2000  176.7320  137.6920 C   0  0  0  0  0  2  0  0  0  0  0  0
  188.4630  175.8230  136.9100 O   0  0  0  0  0  0  0  0  0  0  0  0
  189.1240  174.5710  136.8740 C   0  0  1  0  0  3  0  0  0  0  0  0
  189.2890  172.7640  135.3480 O   0  0  0  0  0  0  0  0  0  0  0  0
  188.3640  173.4930  136.1130 C   0  0  1  0  0  3  0  0  0  0  0  0
  190.4940  174.6190  136.2430 C   0  0  2  0  0  3  0  0  0  0  0  0
  187.6660  172.5710  137.0910 C   0  0  0  0  0  1  0  0  0  0  0  0
  190.3110  173.6780  135.0510 C   0  0  1  0  0  3  0  0  0  0  0  0
  191.5720  172.9580  134.5960 C   0  0  0  0  0  1  0  0  0  0  0  0
  191.5020  174.1170  137.2700 C   0  0  0  0  0  2  0  0  0  0  0  0
  192.6630  174.8870  137.2120 O   0  0  0  0  0  1  0  0  0  0  0  0
  1  9  1  0  0  0  0
  2 10  1  0  0  0  0
  3 15  1  0  0  0  0
  3 16  1  0  0  0  0
  4  1  1  0  0  0  0
  4 13  1  0  0  0  0
  4 11  1  1  0  0  0
  5  6  1  0  0  0  0
  6 14  1  0  0  0  0
  7 13  1  0  0  0  0
  7 22  1  0  0  0  0
  9 23  1  6  0  0  0
  9  2  1  0  0  0  0
 10  8  1  1  0  0  0
 12 10  1  0  0  0  0
 13  5  1  6  0  0  0
 14 30  1  1  0  0  0
 14 12  1  0  0  0  0
 15  4  1  0  0  0  0
 16  7  2  0  0  0  0
 17 18  2  0  0  0  0
 18 16  1  0  0  0  0
 18 19  1  0  0  0  0
 19 20  2  0  0  0  0
 22 21  3  0  0  0  0
 24 26  1  0  0  0  0
 24 23  1  0  0  0  0
 26 25  2  0  0  0  0
 28 29  1  0  0  0  0
 29 27  2  0  0  0  0
 29 26  1  0  0  0  0
 30 32  1  0  0  0  0
 32 31  1  6  0  0  0
 33 32  1  0  0  0  0
 34 33  1  0  0  0  0
 35 34  1  6  0  0  0
 36 37  1  0  0  0  0
 37 35  1  0  0  0  0
 37 39  1  1  0  0  0
 38 35  1  0  0  0  0
 38 42  1  1  0  0  0
 40 41  1  1  0  0  0
 40 36  1  0  0  0  0
 40 38  1  0  0  0  0
 43 42  1  0  0  0  0
M  END
>  <MODEL>
9

>  <REMARK>
 VINA RESULT:      -4.7      3.738      6.961
  Name = 
  13 active torsions:
  status: ('A' for Active; 'I' for Inactive)
    1  A    between atoms: C_2  and  C_23
    2  A    between atoms: C_2  and  O_28
    3  A    between atoms: C_3  and  C_42
    4  A    between atoms: C_5  and  O_28
    5  A    between atoms: C_6  and  C_18
    6  A    between atoms: C_13  and  C_21
    7  A    between atoms: C_19  and  C_34
    8  A    between atoms: C_23  and  C_32
    9  A    between atoms: C_25  and  C_26
   10  A    between atoms: C_25  and  C_33
   11  A    between atoms: C_32  and  C_39
   12  A    between atoms: C_33  and  C_34
   13  A    between atoms: C_41  and  C_42
                            x       y       z     vdW  Elec       q    Type
                         _______ _______ _______ _____ _____    ______ ____

>  <TORSDO>
F 13

$$$$
