=
 OpenBabel10222418343D

 65 73  0  0  1  0  0  0  0  0999 V2000
  189.9590  177.4520  142.7310 C   0  0  1  0  0  3  0  0  0  0  0  0
  186.5350  178.3820  139.3690 C   0  0  0  0  0  2  0  0  0  0  0  0
  187.9320  178.5360  139.8680 C   0  0  0  0  0  0  0  0  0  0  0  0
  191.1430  177.9840  141.9060 C   0  0  1  0  0  3  0  0  0  0  0  0
  193.2730  175.9130  138.8470 C   0  0  2  0  0  3  0  0  0  0  0  0
  190.1170  175.8270  136.9810 O   0  0  0  0  0  0  0  0  0  0  0  0
  190.8530  175.6430  138.1570 C   0  0  0  0  0  0  0  0  0  0  0  0
  188.7020  177.6960  136.3430 C   0  0  0  0  0  2  0  0  0  0  0  0
  191.7080  177.0240  140.8480 C   0  0  1  0  0  3  0  0  0  0  0  0
  190.0980  177.0720  136.2850 C   0  0  2  0  0  3  0  0  0  0  0  0
  191.5120  177.5410  139.5430 O   0  0  0  0  0  0  0  0  0  0  0  0
  190.6170  174.6370  138.8770 O   0  0  0  0  0  0  0  0  0  0  0  0
  191.9310  176.6090  138.5560 C   0  0  1  0  0  3  0  0  0  0  0  0
  194.0550  176.6840  139.9140 C   0  0  0  0  0  2  0  0  0  0  0  0
  188.6780  177.1880  141.9760 C   0  0  0  0  0  3  0  0  0  0  0  0
  188.2920  177.8950  140.9440 C   0  0  0  0  0  0  0  0  0  0  0  0
  190.8880  179.2650  141.4000 O   0  0  0  0  0  1  0  0  0  0  0  0
  188.8750  178.4940  138.7330 C   0  0  0  0  0  2  0  0  0  0  0  0
  188.1470  177.6070  137.7560 C   0  0  1  0  0  3  0  0  0  0  0  0
  186.6850  177.9880  137.9000 C   0  0  1  0  0  3  0  0  0  0  0  0
  193.2000  176.8270  141.1670 C   0  0  0  0  0  2  0  0  0  0  0  0
  194.0270  175.6780  137.6030 N   0  0  2  0  0  0  0  0  0  0  0  0
  196.3910  172.8780  138.2410 C   0  0  0  0  0  2  0  0  0  0  0  0
  195.2730  174.9590  137.8960 C   0  0  2  0  0  3  0  0  0  0  0  0
  195.9480  174.5870  136.6060 C   0  0  2  0  0  3  0  0  0  0  0  0
  197.0120  173.5990  137.0400 C   0  0  2  0  0  3  0  0  0  0  0  0
  195.1040  173.6220  138.5830 C   0  0  0  0  0  2  0  0  0  0  0  0
  194.4020  176.9670  136.9890 C   0  0  0  0  0  2  0  0  0  0  0  0
  195.2040  176.7610  135.6910 C   0  0  0  0  0  2  0  0  0  0  0  0
  197.0850  175.5680  134.5980 C   0  0  0  0  0  1  0  0  0  0  0  0
  196.4280  175.8700  135.9330 C   0  0  2  0  0  3  0  0  0  0  0  0
  197.2920  172.6060  135.9240 C   0  0  0  0  0  2  0  0  0  0  0  0
  198.9800  171.9490  136.0790 S   0  0  0  0  0  1  0  0  0  0  0  0
  185.7870  176.8380  137.5740 C   0  0  0  0  0  0  0  0  0  0  0  0
  183.8050  174.7270  137.2900 O   0  0  0  0  0  0  0  0  0  0  0  0
  183.5080  175.7650  137.9370 C   0  0  0  0  0  0  0  0  0  0  0  0
  186.2100  175.8830  136.8670 O   0  0  0  0  0  0  0  0  0  0  0  0
  184.4540  176.8320  138.0950 N   0  0  0  0  0  2  0  0  0  0  0  0
  179.2490  175.2780  139.3490 O   0  0  0  0  0  0  0  0  0  0  0  0
  182.1470  175.8710  138.5600 C   0  0  2  0  0  3  0  0  0  0  0  0
  179.8180  175.4960  138.0660 C   0  0  2  0  0  3  0  0  0  0  0  0
  180.3310  176.8880  140.7660 C   0  0  0  0  0  2  0  0  0  0  0  0
  181.2670  177.8190  139.9590 C   0  0  2  0  0  0  0  0  0  0  0  0
  181.1850  174.8510  137.9900 C   0  0  0  0  0  2  0  0  0  0  0  0
  178.9320  177.5240  138.7580 C   0  0  2  0  0  3  0  0  0  0  0  0
  180.0450  176.9830  137.8820 C   0  0  1  0  0  3  0  0  0  0  0  0
  181.4510  177.2540  138.5060 C   0  0  2  0  0  0  0  0  0  0  0  0
  182.5880  177.9990  140.6920 C   0  0  0  0  0  1  0  0  0  0  0  0
  179.1770  178.9900  139.1680 C   0  0  0  0  0  2  0  0  0  0  0  0
  180.5340  179.1640  139.8750 C   0  0  0  0  0  2  0  0  0  0  0  0
  179.0630  176.5510  139.9300 C   0  0  1  0  0  3  0  0  0  0  0  0
  182.1820  178.2590  137.6080 C   0  0  0  0  0  1  0  0  0  0  0  0
  189.7840  175.1830  143.4050 O   0  0  0  0  0  0  0  0  0  0  0  0
  190.3640  176.2530  143.5430 C   0  0  0  0  0  0  0  0  0  0  0  0
  191.7470  175.1240  145.0970 O   0  0  0  0  0  1  0  0  0  0  0  0
  191.5470  176.3500  144.4580 C   0  0  2  0  0  3  0  0  0  0  0  0
  191.3410  177.4380  145.5020 C   0  0  0  0  0  2  0  0  0  0  0  0
  190.6490  176.8780  146.7410 C   0  0  1  0  0  3  0  0  0  0  0  0
  191.5800  176.7650  147.7760 O   0  0  0  0  0  1  0  0  0  0  0  0
  189.5980  178.0630  148.5390 O   0  0  0  0  0  1  0  0  0  0  0  0
  189.4980  177.7880  147.1720 C   0  0  2  0  0  3  0  0  0  0  0  0
  187.3440  177.9780  146.1490 O   0  0  0  0  0  1  0  0  0  0  0  0
  188.1480  177.1300  146.9140 C   0  0  0  0  0  2  0  0  0  0  0  0
  190.4980  176.8670  134.8620 C   0  0  0  0  0  3  0  0  0  0  0  0
  191.5730  176.3590  134.5940 O   0  0  0  0  0  0  0  0  0  0  0  0
  1 54  1  6  0  0  0
  2  3  1  0  0  0  0
  3 16  2  0  0  0  0
  4 17  1  6  0  0  0
  4  1  1  0  0  0  0
  5 14  1  1  0  0  0
  6  7  1  0  0  0  0
  7 12  2  0  0  0  0
  9 21  1  1  0  0  0
  9  4  1  0  0  0  0
 10 64  1  6  0  0  0
 10  8  1  0  0  0  0
 10  6  1  0  0  0  0
 11  9  1  0  0  0  0
 13  7  1  1  0  0  0
 13  5  1  0  0  0  0
 13 11  1  0  0  0  0
 14 21  1  0  0  0  0
 15  1  1  0  0  0  0
 16 15  2  0  0  0  0
 18  3  1  0  0  0  0
 19  8  1  6  0  0  0
 19 20  1  0  0  0  0
 19 18  1  0  0  0  0
 20 34  1  1  0  0  0
 20  2  1  0  0  0  0
 22 28  1  1  0  0  0
 22 24  1  0  0  0  0
 22  5  1  0  0  0  0
 23 27  1  0  0  0  0
 24 27  1  6  0  0  0
 25 26  1  0  0  0  0
 25 24  1  0  0  0  0
 26 23  1  0  0  0  0
 29 31  1  0  0  0  0
 29 28  1  0  0  0  0
 30 31  1  0  0  0  0
 31 25  1  0  0  0  0
 32 33  1  0  0  0  0
 32 26  1  0  0  0  0
 34 38  1  0  0  0  0
 35 36  2  0  0  0  0
 36 38  1  0  0  0  0
 36 40  1  0  0  0  0
 37 34  2  0  0  0  0
 39 51  1  0  0  0  0
 41 39  1  0  0  0  0
 43 48  1  0  0  0  0
 43 42  1  0  0  0  0
 44 41  1  0  0  0  0
 44 40  1  0  0  0  0
 45 49  1  0  0  0  0
 45 51  1  0  0  0  0
 46 41  1  0  0  0  0
 46 47  1  0  0  0  0
 46 45  1  0  0  0  0
 47 40  1  0  0  0  0
 47 43  1  0  0  0  0
 49 50  1  0  0  0  0
 50 43  1  0  0  0  0
 51 42  1  0  0  0  0
 52 47  1  0  0  0  0
 53 54  2  0  0  0  0
 54 56  1  0  0  0  0
 56 55  1  0  0  0  0
 56 57  1  0  0  0  0
 57 58  1  0  0  0  0
 58 61  1  0  0  0  0
 58 59  1  0  0  0  0
 61 60  1  0  0  0  0
 62 63  1  0  0  0  0
 63 61  1  0  0  0  0
 65 64  2  0  0  0  0
M  END
>  <MODEL>
1

>  <REMARK>
 VINA RESULT:      -4.1      0.000      0.000
  Name = 
  11 active torsions:
  status: ('A' for Active; 'I' for Inactive)
    1  A    between atoms: N_2  and  C_17
    2  A    between atoms: C_3  and  C_35
    3  A    between atoms: C_6  and  C_9
    4  A    between atoms: C_9  and  C_52
    5  A    between atoms: C_10  and  C_58
    6  A    between atoms: C_15  and  C_28
    7  A    between atoms: C_29  and  C_32
    8  A    between atoms: C_40  and  C_53
    9  A    between atoms: C_43  and  C_53
   10  A    between atoms: C_43  and  C_65
   11  A    between atoms: C_52  and  C_65
                            x       y       z     vdW  Elec       q    Type
                         _______ _______ _______ _____ _____    ______ ____

>  <TORSDO>
F 11

$$$$
=
 OpenBabel10222418343D

 65 73  0  0  1  0  0  0  0  0999 V2000
  190.4230  177.1850  142.7780 C   0  0  1  0  0  3  0  0  0  0  0  0
  187.1110  178.5250  139.4410 C   0  0  0  0  0  2  0  0  0  0  0  0
  188.5090  178.5590  139.9610 C   0  0  0  0  0  0  0  0  0  0  0  0
  191.6500  177.6840  141.9950 C   0  0  1  0  0  3  0  0  0  0  0  0
  193.6810  175.6530  138.8440 C   0  0  2  0  0  3  0  0  0  0  0  0
  190.5510  175.8780  136.9460 O   0  0  0  0  0  0  0  0  0  0  0  0
  191.2570  175.5810  138.1170 C   0  0  0  0  0  0  0  0  0  0  0  0
  189.2680  177.8680  136.4020 C   0  0  0  0  0  2  0  0  0  0  0  0
  192.1650  176.7500  140.8890 C   0  0  1  0  0  3  0  0  0  0  0  0
  190.6210  177.1590  136.3220 C   0  0  2  0  0  3  0  0  0  0  0  0
  192.0200  177.3500  139.6150 O   0  0  0  0  0  0  0  0  0  0  0  0
  190.9480  174.5530  138.7760 O   0  0  0  0  0  0  0  0  0  0  0  0
  192.3900  176.4500  138.5800 C   0  0  1  0  0  3  0  0  0  0  0  0
  194.4970  176.3100  139.9600 C   0  0  0  0  0  2  0  0  0  0  0  0
  189.1380  177.0480  141.9960 C   0  0  0  0  0  3  0  0  0  0  0  0
  188.8120  177.8360  141.0030 C   0  0  0  0  0  0  0  0  0  0  0  0
  191.4850  179.0050  141.5600 O   0  0  0  0  0  1  0  0  0  0  0  0
  189.4610  178.5190  138.8340 C   0  0  0  0  0  2  0  0  0  0  0  0
  188.6900  177.7370  137.8020 C   0  0  1  0  0  3  0  0  0  0  0  0
  187.2540  178.2040  137.9540 C   0  0  1  0  0  3  0  0  0  0  0  0
  193.6370  176.4380  141.2110 C   0  0  0  0  0  2  0  0  0  0  0  0
  194.4340  175.4390  137.5950 N   0  0  2  0  0  0  0  0  0  0  0  0
  196.3620  172.2810  137.9810 C   0  0  0  0  0  2  0  0  0  0  0  0
  195.5570  174.5240  137.8340 C   0  0  2  0  0  3  0  0  0  0  0  0
  196.2160  174.1910  136.5250 C   0  0  2  0  0  3  0  0  0  0  0  0
  197.1160  173.0230  136.8720 C   0  0  2  0  0  3  0  0  0  0  0  0
  195.1810  173.1630  138.3760 C   0  0  0  0  0  2  0  0  0  0  0  0
  195.0050  176.7160  137.1250 C   0  0  0  0  0  2  0  0  0  0  0  0
  195.8120  176.5290  135.8280 C   0  0  0  0  0  2  0  0  0  0  0  0
  197.5420  175.1970  134.6500 C   0  0  0  0  0  1  0  0  0  0  0  0
  196.8910  175.4540  135.9970 C   0  0  2  0  0  3  0  0  0  0  0  0
  197.2910  172.1170  135.6650 C   0  0  0  0  0  2  0  0  0  0  0  0
  198.9890  171.4720  135.6050 S   0  0  0  0  0  1  0  0  0  0  0  0
  186.2880  177.1360  137.5540 C   0  0  0  0  0  0  0  0  0  0  0  0
  184.1030  175.3030  136.9790 O   0  0  0  0  0  0  0  0  0  0  0  0
  183.8420  176.5070  137.2350 C   0  0  0  0  0  0  0  0  0  0  0  0
  186.7020  175.9780  137.2730 O   0  0  0  0  0  0  0  0  0  0  0  0
  184.8910  177.4450  137.5190 N   0  0  0  0  0  2  0  0  0  0  0  0
  179.8190  178.4650  136.6460 O   0  0  0  0  0  0  0  0  0  0  0  0
  182.4100  176.9550  137.2590 C   0  0  2  0  0  3  0  0  0  0  0  0
  181.0600  178.9480  137.1390 C   0  0  2  0  0  3  0  0  0  0  0  0
  179.4810  176.3880  137.8040 C   0  0  0  0  0  2  0  0  0  0  0  0
  180.5900  176.1330  138.8530 C   0  0  2  0  0  0  0  0  0  0  0  0
  182.2030  178.2240  136.4600 C   0  0  0  0  0  2  0  0  0  0  0  0
  179.6940  178.6150  138.9820 C   0  0  2  0  0  3  0  0  0  0  0  0
  181.1630  178.6060  138.6120 C   0  0  1  0  0  3  0  0  0  0  0  0
  181.7580  177.1630  138.6480 C   0  0  2  0  0  0  0  0  0  0  0  0
  181.0610  174.6880  138.7780 C   0  0  0  0  0  1  0  0  0  0  0  0
  179.4200  177.8440  140.2900 C   0  0  0  0  0  2  0  0  0  0  0  0
  179.9350  176.3940  140.2140 C   0  0  0  0  0  2  0  0  0  0  0  0
  179.1380  177.9040  137.7480 C   0  0  1  0  0  3  0  0  0  0  0  0
  182.7660  177.0940  139.8010 C   0  0  0  0  0  1  0  0  0  0  0  0
  190.1890  174.8660  143.2240 O   0  0  0  0  0  0  0  0  0  0  0  0
  190.7390  175.9180  143.5240 C   0  0  0  0  0  0  0  0  0  0  0  0
  191.6990  174.7820  145.3640 O   0  0  0  0  0  1  0  0  0  0  0  0
  191.8030  175.9330  144.5790 C   0  0  2  0  0  3  0  0  0  0  0  0
  191.6760  177.1640  145.4640 C   0  0  0  0  0  2  0  0  0  0  0  0
  190.8500  176.8550  146.7090 C   0  0  1  0  0  3  0  0  0  0  0  0
  191.6490  177.0220  147.8430 O   0  0  0  0  0  1  0  0  0  0  0  0
  189.3100  178.0200  148.1280 O   0  0  0  0  0  1  0  0  0  0  0  0
  189.6320  177.7760  146.7890 C   0  0  2  0  0  3  0  0  0  0  0  0
  187.2860  177.3280  146.9060 O   0  0  0  0  0  1  0  0  0  0  0  0
  188.4200  177.1480  146.1130 C   0  0  0  0  0  2  0  0  0  0  0  0
  191.0270  177.0070  134.8940 C   0  0  0  0  0  3  0  0  0  0  0  0
  192.0830  176.4710  134.6080 O   0  0  0  0  0  0  0  0  0  0  0  0
  1 54  1  6  0  0  0
  2  3  1  0  0  0  0
  3 16  2  0  0  0  0
  4 17  1  6  0  0  0
  4  1  1  0  0  0  0
  5 14  1  1  0  0  0
  6  7  1  0  0  0  0
  7 12  2  0  0  0  0
  9 21  1  1  0  0  0
  9  4  1  0  0  0  0
 10 64  1  6  0  0  0
 10  8  1  0  0  0  0
 10  6  1  0  0  0  0
 11  9  1  0  0  0  0
 13  7  1  1  0  0  0
 13  5  1  0  0  0  0
 13 11  1  0  0  0  0
 14 21  1  0  0  0  0
 15  1  1  0  0  0  0
 16 15  2  0  0  0  0
 18  3  1  0  0  0  0
 19  8  1  6  0  0  0
 19 20  1  0  0  0  0
 19 18  1  0  0  0  0
 20 34  1  1  0  0  0
 20  2  1  0  0  0  0
 22 28  1  1  0  0  0
 22 24  1  0  0  0  0
 22  5  1  0  0  0  0
 23 27  1  0  0  0  0
 24 27  1  6  0  0  0
 25 26  1  0  0  0  0
 25 24  1  0  0  0  0
 26 23  1  0  0  0  0
 29 31  1  0  0  0  0
 29 28  1  0  0  0  0
 30 31  1  0  0  0  0
 31 25  1  0  0  0  0
 32 26  1  0  0  0  0
 33 32  1  0  0  0  0
 35 36  2  0  0  0  0
 36 40  1  0  0  0  0
 36 38  1  0  0  0  0
 37 34  2  0  0  0  0
 38 34  1  0  0  0  0
 39 41  1  0  0  0  0
 39 51  1  0  0  0  0
 40 47  1  0  0  0  0
 41 46  1  0  0  0  0
 42 43  1  0  0  0  0
 43 50  1  0  0  0  0
 44 41  1  0  0  0  0
 44 40  1  0  0  0  0
 45 49  1  0  0  0  0
 46 47  1  0  0  0  0
 46 45  1  0  0  0  0
 47 43  1  0  0  0  0
 47 52  1  0  0  0  0
 48 43  1  0  0  0  0
 50 49  1  0  0  0  0
 51 42  1  0  0  0  0
 51 45  1  0  0  0  0
 53 54  2  0  0  0  0
 54 56  1  0  0  0  0
 56 55  1  0  0  0  0
 56 57  1  0  0  0  0
 57 58  1  0  0  0  0
 58 61  1  0  0  0  0
 58 59  1  0  0  0  0
 61 60  1  0  0  0  0
 63 61  1  0  0  0  0
 63 62  1  0  0  0  0
 65 64  2  0  0  0  0
M  END
>  <MODEL>
2

>  <REMARK>
 VINA RESULT:      -3.3      0.891      1.409
  Name = 
  11 active torsions:
  status: ('A' for Active; 'I' for Inactive)
    1  A    between atoms: N_2  and  C_17
    2  A    between atoms: C_3  and  C_35
    3  A    between atoms: C_6  and  C_9
    4  A    between atoms: C_9  and  C_52
    5  A    between atoms: C_10  and  C_58
    6  A    between atoms: C_15  and  C_28
    7  A    between atoms: C_29  and  C_32
    8  A    between atoms: C_40  and  C_53
    9  A    between atoms: C_43  and  C_53
   10  A    between atoms: C_43  and  C_65
   11  A    between atoms: C_52  and  C_65
                            x       y       z     vdW  Elec       q    Type
                         _______ _______ _______ _____ _____    ______ ____

>  <TORSDO>
F 11

$$$$
=
 OpenBabel10222418343D

 65 73  0  0  1  0  0  0  0  0999 V2000
  184.1040  177.8420  138.7300 C   0  0  1  0  0  3  0  0  0  0  0  0
  188.7330  177.8560  137.1610 C   0  0  0  0  0  2  0  0  0  0  0  0
  187.6390  178.4740  137.9640 C   0  0  0  0  0  0  0  0  0  0  0  0
  184.2940  178.9320  139.8000 C   0  0  1  0  0  3  0  0  0  0  0  0
  185.8590  178.4210  143.7330 C   0  0  2  0  0  3  0  0  0  0  0  0
  188.9930  177.3810  142.1380 O   0  0  0  0  0  0  0  0  0  0  0  0
  187.6010  177.3180  142.2640 C   0  0  0  0  0  0  0  0  0  0  0  0
  190.3240  178.6010  140.5120 C   0  0  0  0  0  2  0  0  0  0  0  0
  184.9040  178.4660  141.1300 C   0  0  1  0  0  3  0  0  0  0  0  0
  189.6790  178.6090  141.8990 C   0  0  2  0  0  3  0  0  0  0  0  0
  186.1700  179.0660  141.3410 O   0  0  0  0  0  0  0  0  0  0  0  0
  187.0280  176.1990  142.1890 O   0  0  0  0  0  0  0  0  0  0  0  0
  186.7890  178.5560  142.5130 C   0  0  1  0  0  3  0  0  0  0  0  0
  184.5910  179.2550  143.5340 C   0  0  0  0  0  2  0  0  0  0  0  0
  185.3620  177.2140  138.1800 C   0  0  0  0  0  3  0  0  0  0  0  0
  186.4890  177.8650  138.0380 C   0  0  0  0  0  0  0  0  0  0  0  0
  184.9260  180.0660  139.2760 O   0  0  0  0  0  1  0  0  0  0  0  0
  188.1860  179.0000  139.2300 C   0  0  0  0  0  2  0  0  0  0  0  0
  189.3430  178.0680  139.4810 C   0  0  1  0  0  3  0  0  0  0  0  0
  189.9310  177.8010  138.1080 C   0  0  1  0  0  3  0  0  0  0  0  0
  183.9040  178.8360  142.2400 C   0  0  0  0  0  2  0  0  0  0  0  0
  186.5810  178.7140  144.9830 N   0  0  2  0  0  0  0  0  0  0  0  0
  189.2450  176.1460  145.3630 C   0  0  0  0  0  2  0  0  0  0  0  0
  187.2920  177.5170  145.4480 C   0  0  2  0  0  3  0  0  0  0  0  0
  188.1500  177.8740  146.6290 C   0  0  2  0  0  3  0  0  0  0  0  0
  189.0450  176.6620  146.7920 C   0  0  2  0  0  3  0  0  0  0  0  0
  188.2920  176.9360  144.4720 C   0  0  0  0  0  2  0  0  0  0  0  0
  185.6250  179.0910  146.0420 C   0  0  0  0  0  2  0  0  0  0  0  0
  186.3440  179.3920  147.3690 C   0  0  0  0  0  2  0  0  0  0  0  0
  188.0350  178.6310  149.0160 C   0  0  0  0  0  1  0  0  0  0  0  0
  187.2300  178.2180  147.7980 C   0  0  2  0  0  3  0  0  0  0  0  0
  190.3800  177.0720  147.3900 C   0  0  0  0  0  2  0  0  0  0  0  0
  191.7460  176.3780  146.4110 S   0  0  0  0  0  1  0  0  0  0  0  0
  190.5840  176.4580  138.0460 C   0  0  0  0  0  0  0  0  0  0  0  0
  192.1530  174.0370  137.6650 O   0  0  0  0  0  0  0  0  0  0  0  0
  192.6970  175.1570  137.4780 C   0  0  0  0  0  0  0  0  0  0  0  0
  189.9220  175.4170  138.3110 O   0  0  0  0  0  0  0  0  0  0  0  0
  191.9600  176.3740  137.6600 N   0  0  0  0  0  2  0  0  0  0  0  0
  196.7690  176.1410  135.7990 O   0  0  0  0  0  0  0  0  0  0  0  0
  194.1320  175.2070  137.0420 C   0  0  2  0  0  3  0  0  0  0  0  0
  195.5120  175.8910  135.1880 C   0  0  2  0  0  3  0  0  0  0  0  0
  197.0240  174.3640  137.3950 C   0  0  0  0  0  2  0  0  0  0  0  0
  195.8630  173.3450  137.3030 C   0  0  2  0  0  0  0  0  0  0  0  0
  194.3940  176.3580  136.0950 C   0  0  0  0  0  2  0  0  0  0  0  0
  196.7830  173.9730  134.9080 C   0  0  2  0  0  3  0  0  0  0  0  0
  195.3330  174.3930  135.0400 C   0  0  1  0  0  3  0  0  0  0  0  0
  194.7190  173.9260  136.3980 C   0  0  2  0  0  0  0  0  0  0  0  0
  195.3780  172.9760  138.6980 C   0  0  0  0  0  1  0  0  0  0  0  0
  196.9840  172.4760  135.2180 C   0  0  0  0  0  2  0  0  0  0  0  0
  196.4550  172.1080  136.6170 C   0  0  0  0  0  2  0  0  0  0  0  0
  197.3890  174.8850  135.9750 C   0  0  1  0  0  3  0  0  0  0  0  0
  193.6560  172.8640  136.0960 C   0  0  0  0  0  1  0  0  0  0  0  0
  183.4190  175.6030  139.1160 O   0  0  0  0  0  0  0  0  0  0  0  0
  183.1350  176.7920  139.1980 C   0  0  0  0  0  0  0  0  0  0  0  0
  181.1920  176.0870  140.3500 O   0  0  0  0  0  1  0  0  0  0  0  0
  181.8560  177.2120  139.8550 C   0  0  2  0  0  3  0  0  0  0  0  0
  180.9520  177.9410  138.8710 C   0  0  0  0  0  2  0  0  0  0  0  0
  181.0320  179.4510  139.0750 C   0  0  1  0  0  3  0  0  0  0  0  0
  181.4500  180.0530  137.8850 O   0  0  0  0  0  1  0  0  0  0  0  0
  179.8450  181.2120  140.1850 O   0  0  0  0  0  1  0  0  0  0  0  0
  179.6710  180.0100  139.4920 C   0  0  2  0  0  3  0  0  0  0  0  0
  179.1570  179.3700  141.7390 O   0  0  0  0  0  1  0  0  0  0  0  0
  178.9310  179.0380  140.4010 C   0  0  0  0  0  2  0  0  0  0  0  0
  190.7270  178.8170  142.9410 C   0  0  0  0  0  3  0  0  0  0  0  0
  190.4600  179.4100  143.9720 O   0  0  0  0  0  0  0  0  0  0  0  0
  1 54  1  1  0  0  0
  1  4  1  0  0  0  0
  2  3  1  0  0  0  0
  2 20  1  0  0  0  0
  3 16  2  0  0  0  0
  3 18  1  0  0  0  0
  4 17  1  6  0  0  0
  4  9  1  0  0  0  0
  5 14  1  6  0  0  0
  5 22  1  0  0  0  0
  6  7  1  0  0  0  0
  7 13  1  0  0  0  0
  8 10  1  0  0  0  0
  9 11  1  0  0  0  0
  9 21  1  1  0  0  0
 10  6  1  0  0  0  0
 10 64  1  1  0  0  0
 12  7  2  0  0  0  0
 13 11  1  6  0  0  0
 13  5  1  0  0  0  0
 15  1  1  0  0  0  0
 16 15  2  0  0  0  0
 19 18  1  6  0  0  0
 19  8  1  0  0  0  0
 20 34  1  1  0  0  0
 20 19  1  0  0  0  0
 21 14  1  0  0  0  0
 22 24  1  0  0  0  0
 22 28  1  1  0  0  0
 23 26  1  0  0  0  0
 24 27  1  6  0  0  0
 24 25  1  0  0  0  0
 25 26  1  0  0  0  0
 25 31  1  0  0  0  0
 26 32  1  0  0  0  0
 27 23  1  0  0  0  0
 28 29  1  0  0  0  0
 29 31  1  0  0  0  0
 31 30  1  0  0  0  0
 33 32  1  0  0  0  0
 34 37  2  0  0  0  0
 36 38  1  0  0  0  0
 36 35  2  0  0  0  0
 38 34  1  0  0  0  0
 39 51  1  0  0  0  0
 40 36  1  0  0  0  0
 41 39  1  0  0  0  0
 41 44  1  0  0  0  0
 43 42  1  0  0  0  0
 43 48  1  0  0  0  0
 44 40  1  0  0  0  0
 45 46  1  0  0  0  0
 45 49  1  0  0  0  0
 45 51  1  0  0  0  0
 46 41  1  0  0  0  0
 46 47  1  0  0  0  0
 47 40  1  0  0  0  0
 47 43  1  0  0  0  0
 49 50  1  0  0  0  0
 50 43  1  0  0  0  0
 51 42  1  0  0  0  0
 52 47  1  0  0  0  0
 53 54  2  0  0  0  0
 54 56  1  0  0  0  0
 56 55  1  0  0  0  0
 57 58  1  0  0  0  0
 57 56  1  0  0  0  0
 58 61  1  0  0  0  0
 59 58  1  0  0  0  0
 61 60  1  0  0  0  0
 61 63  1  0  0  0  0
 63 62  1  0  0  0  0
 64 65  2  0  0  0  0
M  END
>  <MODEL>
3

>  <REMARK>
 VINA RESULT:      -3.0      3.014     11.335
  Name = 
  11 active torsions:
  status: ('A' for Active; 'I' for Inactive)
    1  A    between atoms: N_2  and  C_17
    2  A    between atoms: C_3  and  C_35
    3  A    between atoms: C_6  and  C_9
    4  A    between atoms: C_9  and  C_52
    5  A    between atoms: C_10  and  C_58
    6  A    between atoms: C_15  and  C_28
    7  A    between atoms: C_29  and  C_32
    8  A    between atoms: C_40  and  C_53
    9  A    between atoms: C_43  and  C_53
   10  A    between atoms: C_43  and  C_65
   11  A    between atoms: C_52  and  C_65
                            x       y       z     vdW  Elec       q    Type
                         _______ _______ _______ _____ _____    ______ ____

>  <TORSDO>
F 11

$$$$
=
 OpenBabel10222418343D

 65 73  0  0  1  0  0  0  0  0999 V2000
  186.4480  177.4570  136.3920 C   0  0  1  0  0  3  0  0  0  0  0  0
  190.9250  176.6670  134.5960 C   0  0  0  0  0  2  0  0  0  0  0  0
  190.0090  177.4240  135.4970 C   0  0  0  0  0  0  0  0  0  0  0  0
  186.8930  178.3950  137.5270 C   0  0  1  0  0  3  0  0  0  0  0  0
  188.4550  177.2570  141.3280 C   0  0  2  0  0  3  0  0  0  0  0  0
  191.2530  175.7420  139.5050 O   0  0  0  0  0  0  0  0  0  0  0  0
  189.8830  175.9510  139.6960 C   0  0  0  0  0  0  0  0  0  0  0  0
  192.7490  176.7980  137.9090 C   0  0  0  0  0  2  0  0  0  0  0  0
  187.4410  177.7080  138.7880 C   0  0  1  0  0  3  0  0  0  0  0  0
  192.1670  176.8220  139.3230 C   0  0  2  0  0  3  0  0  0  0  0  0
  188.8090  178.0210  138.9770 O   0  0  0  0  0  0  0  0  0  0  0  0
  189.0910  174.9800  139.5690 O   0  0  0  0  0  0  0  0  0  0  0  0
  189.3510  177.3020  140.0760 C   0  0  1  0  0  3  0  0  0  0  0  0
  187.3790  178.3430  141.2550 C   0  0  0  0  0  2  0  0  0  0  0  0
  187.5310  176.6350  135.7340 C   0  0  0  0  0  3  0  0  0  0  0  0
  188.7610  177.0550  135.5840 C   0  0  0  0  0  0  0  0  0  0  0  0
  187.7260  179.4170  137.0570 O   0  0  0  0  0  1  0  0  0  0  0  0
  190.6950  177.7240  136.7690 C   0  0  0  0  0  2  0  0  0  0  0  0
  191.6450  176.5600  136.8920 C   0  0  1  0  0  3  0  0  0  0  0  0
  192.1180  176.2940  135.4750 C   0  0  1  0  0  3  0  0  0  0  0  0
  186.5760  178.1790  139.9700 C   0  0  0  0  0  2  0  0  0  0  0  0
  189.2650  177.2960  142.5580 N   0  0  2  0  0  0  0  0  0  0  0  0
  186.9140  177.3520  145.4410 C   0  0  0  0  0  2  0  0  0  0  0  0
  188.4590  177.8010  143.6770 C   0  0  2  0  0  3  0  0  0  0  0  0
  189.2470  177.6830  144.9520 C   0  0  2  0  0  3  0  0  0  0  0  0
  188.2080  177.9240  146.0280 C   0  0  2  0  0  3  0  0  0  0  0  0
  187.2060  177.0100  143.9830 C   0  0  0  0  0  2  0  0  0  0  0  0
  190.4000  178.2230  142.3870 C   0  0  0  0  0  2  0  0  0  0  0  0
  191.2630  178.3000  143.6590 C   0  0  0  0  0  2  0  0  0  0  0  0
  191.2780  178.5660  146.1250 C   0  0  0  0  0  1  0  0  0  0  0  0
  190.4140  178.6650  144.8820 C   0  0  2  0  0  3  0  0  0  0  0  0
  188.5830  177.1740  147.2950 C   0  0  0  0  0  2  0  0  0  0  0  0
  187.1910  177.1820  148.4640 S   0  0  0  0  0  1  0  0  0  0  0  0
  192.4800  174.8560  135.2820 C   0  0  0  0  0  0  0  0  0  0  0  0
  193.5930  172.2060  134.8340 O   0  0  0  0  0  0  0  0  0  0  0  0
  194.3610  173.1450  135.1710 C   0  0  0  0  0  0  0  0  0  0  0  0
  191.5890  174.0100  134.9940 O   0  0  0  0  0  0  0  0  0  0  0  0
  193.8510  174.4650  135.4060 N   0  0  0  0  0  2  0  0  0  0  0  0
  198.5540  171.4780  135.2340 O   0  0  0  0  0  0  0  0  0  0  0  0
  195.8290  172.8720  135.3080 C   0  0  2  0  0  3  0  0  0  0  0  0
  197.3670  171.1230  135.9300 C   0  0  2  0  0  3  0  0  0  0  0  0
  198.6910  173.8650  135.4610 C   0  0  0  0  0  2  0  0  0  0  0  0
  197.5660  174.4170  136.3690 C   0  0  2  0  0  0  0  0  0  0  0  0
  196.1570  171.4130  135.0690 C   0  0  0  0  0  2  0  0  0  0  0  0
  198.7010  172.2810  137.4320 C   0  0  2  0  0  3  0  0  0  0  0  0
  197.2360  172.0120  137.1510 C   0  0  1  0  0  3  0  0  0  0  0  0
  196.5040  173.2920  136.6380 C   0  0  2  0  0  0  0  0  0  0  0  0
  196.9560  175.6650  135.7490 C   0  0  0  0  0  1  0  0  0  0  0  0
  198.9030  173.5290  138.3150 C   0  0  0  0  0  2  0  0  0  0  0  0
  198.2490  174.7770  137.6940 C   0  0  0  0  0  2  0  0  0  0  0  0
  199.1800  172.4890  135.9950 C   0  0  1  0  0  3  0  0  0  0  0  0
  195.4980  173.7240  137.7110 C   0  0  0  0  0  1  0  0  0  0  0  0
  184.5070  176.9860  137.6730 O   0  0  0  0  0  0  0  0  0  0  0  0
  185.3010  176.5880  136.8300 C   0  0  0  0  0  0  0  0  0  0  0  0
  183.7910  175.2260  135.6200 O   0  0  0  0  0  1  0  0  0  0  0  0
  185.0800  175.2670  136.1570 C   0  0  2  0  0  3  0  0  0  0  0  0
  185.2570  174.1190  137.1390 C   0  0  0  0  0  2  0  0  0  0  0  0
  185.7830  172.8740  136.4310 C   0  0  1  0  0  3  0  0  0  0  0  0
  186.7280  172.2470  137.2480 O   0  0  0  0  0  1  0  0  0  0  0  0
  184.1630  172.1380  134.8270 O   0  0  0  0  0  1  0  0  0  0  0  0
  184.6390  171.9080  136.1210 C   0  0  2  0  0  3  0  0  0  0  0  0
  182.5090  171.1180  136.8680 O   0  0  0  0  0  1  0  0  0  0  0  0
  183.4830  172.0920  137.0950 C   0  0  0  0  0  2  0  0  0  0  0  0
  193.2710  176.7290  140.3230 C   0  0  0  0  0  3  0  0  0  0  0  0
  194.4290  176.6290  139.9540 O   0  0  0  0  0  0  0  0  0  0  0  0
  1 54  1  1  0  0  0
  1  4  1  0  0  0  0
  2 20  1  0  0  0  0
  2  3  1  0  0  0  0
  3 16  2  0  0  0  0
  3 18  1  0  0  0  0
  4 17  1  6  0  0  0
  4  9  1  0  0  0  0
  5 14  1  1  0  0  0
  5 22  1  0  0  0  0
  6  7  1  0  0  0  0
  7 13  1  0  0  0  0
  8 10  1  0  0  0  0
  9 11  1  0  0  0  0
  9 21  1  1  0  0  0
 10  6  1  0  0  0  0
 10 64  1  1  0  0  0
 12  7  2  0  0  0  0
 13 11  1  6  0  0  0
 13  5  1  0  0  0  0
 15  1  1  0  0  0  0
 16 15  2  0  0  0  0
 19 18  1  6  0  0  0
 19  8  1  0  0  0  0
 20 34  1  1  0  0  0
 20 19  1  0  0  0  0
 21 14  1  0  0  0  0
 22 28  1  6  0  0  0
 22 24  1  0  0  0  0
 23 26  1  0  0  0  0
 24 27  1  1  0  0  0
 24 25  1  0  0  0  0
 25 26  1  0  0  0  0
 26 32  1  0  0  0  0
 27 23  1  0  0  0  0
 28 29  1  0  0  0  0
 29 31  1  0  0  0  0
 31 25  1  0  0  0  0
 31 30  1  0  0  0  0
 32 33  1  0  0  0  0
 34 38  1  0  0  0  0
 35 36  2  0  0  0  0
 36 40  1  0  0  0  0
 36 38  1  0  0  0  0
 37 34  2  0  0  0  0
 39 41  1  0  0  0  0
 39 51  1  0  0  0  0
 40 47  1  0  0  0  0
 41 46  1  0  0  0  0
 42 51  1  0  0  0  0
 42 43  1  0  0  0  0
 43 47  1  0  0  0  0
 43 50  1  0  0  0  0
 44 40  1  0  0  0  0
 44 41  1  0  0  0  0
 45 49  1  0  0  0  0
 46 45  1  0  0  0  0
 47 46  1  0  0  0  0
 47 52  1  0  0  0  0
 48 43  1  0  0  0  0
 50 49  1  0  0  0  0
 51 45  1  0  0  0  0
 54 53  2  0  0  0  0
 55 56  1  0  0  0  0
 56 54  1  0  0  0  0
 56 57  1  0  0  0  0
 58 57  1  0  0  0  0
 58 59  1  0  0  0  0
 60 61  1  0  0  0  0
 61 58  1  0  0  0  0
 61 63  1  0  0  0  0
 62 63  1  0  0  0  0
 65 64  2  0  0  0  0
M  END
>  <MODEL>
4

>  <REMARK>
 VINA RESULT:      -2.8      4.186     11.592
  Name = 
  11 active torsions:
  status: ('A' for Active; 'I' for Inactive)
    1  A    between atoms: N_2  and  C_17
    2  A    between atoms: C_3  and  C_35
    3  A    between atoms: C_6  and  C_9
    4  A    between atoms: C_9  and  C_52
    5  A    between atoms: C_10  and  C_58
    6  A    between atoms: C_15  and  C_28
    7  A    between atoms: C_29  and  C_32
    8  A    between atoms: C_40  and  C_53
    9  A    between atoms: C_43  and  C_53
   10  A    between atoms: C_43  and  C_65
   11  A    between atoms: C_52  and  C_65
                            x       y       z     vdW  Elec       q    Type
                         _______ _______ _______ _____ _____    ______ ____

>  <TORSDO>
F 11

$$$$
=
 OpenBabel10222418343D

 65 73  0  0  1  0  0  0  0  0999 V2000
  184.0160  177.8220  138.8700 C   0  0  1  0  0  3  0  0  0  0  0  0
  188.6240  177.8530  137.2390 C   0  0  0  0  0  2  0  0  0  0  0  0
  187.5380  178.4660  138.0580 C   0  0  0  0  0  0  0  0  0  0  0  0
  184.2160  178.9110  139.9380 C   0  0  1  0  0  3  0  0  0  0  0  0
  185.8350  178.3990  143.8490 C   0  0  2  0  0  3  0  0  0  0  0  0
  188.9510  177.3720  142.2120 O   0  0  0  0  0  0  0  0  0  0  0  0
  187.5610  177.3040  142.3560 C   0  0  0  0  0  0  0  0  0  0  0  0
  190.2560  178.5990  140.5710 C   0  0  0  0  0  2  0  0  0  0  0  0
  184.8450  178.4450  141.2600 C   0  0  1  0  0  3  0  0  0  0  0  0
  189.6300  178.6020  141.9660 C   0  0  2  0  0  3  0  0  0  0  0  0
  186.1120  179.0490  141.4540 O   0  0  0  0  0  0  0  0  0  0  0  0
  186.9900  176.1840  142.2870 O   0  0  0  0  0  0  0  0  0  0  0  0
  186.7480  178.5390  142.6180 C   0  0  1  0  0  3  0  0  0  0  0  0
  184.5610  179.2300  143.6690 C   0  0  0  0  0  2  0  0  0  0  0  0
  185.2690  177.1980  138.3030 C   0  0  0  0  0  3  0  0  0  0  0  0
  186.3910  177.8530  138.1460 C   0  0  0  0  0  0  0  0  0  0  0  0
  184.8380  180.0480  139.4080 O   0  0  0  0  0  1  0  0  0  0  0  0
  188.1000  178.9920  139.3170 C   0  0  0  0  0  2  0  0  0  0  0  0
  189.2630  178.0630  139.5520 C   0  0  1  0  0  3  0  0  0  0  0  0
  189.8340  177.8000  138.1700 C   0  0  1  0  0  3  0  0  0  0  0  0
  183.8590  178.8100  142.3830 C   0  0  0  0  0  2  0  0  0  0  0  0
  186.5730  178.6940  145.0900 N   0  0  2  0  0  0  0  0  0  0  0  0
  189.4090  176.2960  145.2990 C   0  0  0  0  0  2  0  0  0  0  0  0
  187.3740  177.5300  145.4890 C   0  0  2  0  0  3  0  0  0  0  0  0
  188.2400  177.8990  146.6600 C   0  0  2  0  0  3  0  0  0  0  0  0
  189.2170  176.7440  146.7510 C   0  0  2  0  0  3  0  0  0  0  0  0
  188.3800  177.0530  144.4650 C   0  0  0  0  0  2  0  0  0  0  0  0
  185.6250  178.9660  146.1880 C   0  0  0  0  0  2  0  0  0  0  0  0
  186.3610  179.2650  147.5070 C   0  0  0  0  0  2  0  0  0  0  0  0
  188.1460  178.5570  149.0770 C   0  0  0  0  0  1  0  0  0  0  0  0
  187.3340  178.1370  147.8660 C   0  0  2  0  0  3  0  0  0  0  0  0
  190.5400  177.2200  147.3290 C   0  0  0  0  0  2  0  0  0  0  0  0
  191.8580  176.0300  146.9400 S   0  0  0  0  0  1  0  0  0  0  0  0
  190.4910  176.4590  138.0980 C   0  0  0  0  0  0  0  0  0  0  0  0
  192.0590  174.0430  137.6890 O   0  0  0  0  0  0  0  0  0  0  0  0
  192.5940  175.1640  137.4820 C   0  0  0  0  0  0  0  0  0  0  0  0
  189.8400  175.4170  138.3850 O   0  0  0  0  0  0  0  0  0  0  0  0
  191.8570  176.3790  137.6780 N   0  0  0  0  0  2  0  0  0  0  0  0
  196.6200  176.1610  135.7050 O   0  0  0  0  0  0  0  0  0  0  0  0
  194.0170  175.2170  137.0100 C   0  0  2  0  0  3  0  0  0  0  0  0
  195.3480  175.9140  135.1250 C   0  0  2  0  0  3  0  0  0  0  0  0
  196.9170  174.3730  137.2820 C   0  0  0  0  0  2  0  0  0  0  0  0
  195.7540  173.3550  137.2140 C   0  0  2  0  0  0  0  0  0  0  0  0
  194.2530  176.3750  136.0630 C   0  0  0  0  0  2  0  0  0  0  0  0
  196.6120  173.9980  134.8000 C   0  0  2  0  0  3  0  0  0  0  0  0
  195.1660  174.4170  134.9720 C   0  0  1  0  0  3  0  0  0  0  0  0
  194.5870  173.9410  136.3420 C   0  0  2  0  0  0  0  0  0  0  0  0
  195.3060  172.9770  138.6180 C   0  0  0  0  0  1  0  0  0  0  0  0
  196.8210  172.4990  135.0960 C   0  0  0  0  0  2  0  0  0  0  0  0
  196.3290  172.1220  136.5050 C   0  0  0  0  0  2  0  0  0  0  0  0
  197.2450  174.9030  135.8570 C   0  0  1  0  0  3  0  0  0  0  0  0
  193.5170  172.8810  136.0620 C   0  0  0  0  0  1  0  0  0  0  0  0
  183.0470  176.4240  140.5250 O   0  0  0  0  0  0  0  0  0  0  0  0
  183.0560  176.7680  139.3490 C   0  0  0  0  0  0  0  0  0  0  0  0
  180.7900  176.1770  139.0110 O   0  0  0  0  0  1  0  0  0  0  0  0
  182.0450  176.2060  138.3960 C   0  0  2  0  0  3  0  0  0  0  0  0
  182.4290  174.8000  137.9610 C   0  0  0  0  0  2  0  0  0  0  0  0
  181.5380  174.3230  136.8170 C   0  0  1  0  0  3  0  0  0  0  0  0
  181.8460  175.0460  135.6620 O   0  0  0  0  0  1  0  0  0  0  0  0
  180.7010  172.1030  137.1600 O   0  0  0  0  0  1  0  0  0  0  0  0
  181.7390  172.8280  136.5660 C   0  0  2  0  0  3  0  0  0  0  0  0
  183.5330  171.2520  136.4240 O   0  0  0  0  0  1  0  0  0  0  0  0
  183.0580  172.3430  137.1550 C   0  0  0  0  0  2  0  0  0  0  0  0
  190.6910  178.8130  142.9940 C   0  0  0  0  0  3  0  0  0  0  0  0
  191.6380  178.0480  143.0650 O   0  0  0  0  0  0  0  0  0  0  0  0
  1 54  1  1  0  0  0
  1  4  1  0  0  0  0
  2  3  1  0  0  0  0
  2 20  1  0  0  0  0
  3 16  2  0  0  0  0
  3 18  1  0  0  0  0
  4 17  1  6  0  0  0
  4  9  1  0  0  0  0
  5 14  1  6  0  0  0
  5 22  1  0  0  0  0
  6  7  1  0  0  0  0
  7 13  1  0  0  0  0
  8 10  1  0  0  0  0
  9 11  1  0  0  0  0
  9 21  1  1  0  0  0
 10  6  1  0  0  0  0
 10 64  1  1  0  0  0
 12  7  2  0  0  0  0
 13 11  1  6  0  0  0
 13  5  1  0  0  0  0
 15  1  1  0  0  0  0
 16 15  2  0  0  0  0
 19 18  1  6  0  0  0
 19  8  1  0  0  0  0
 20 34  1  1  0  0  0
 20 19  1  0  0  0  0
 21 14  1  0  0  0  0
 22 24  1  0  0  0  0
 22 28  1  1  0  0  0
 23 26  1  0  0  0  0
 24 27  1  6  0  0  0
 24 25  1  0  0  0  0
 25 26  1  0  0  0  0
 25 31  1  0  0  0  0
 26 32  1  0  0  0  0
 27 23  1  0  0  0  0
 28 29  1  0  0  0  0
 29 31  1  0  0  0  0
 31 30  1  0  0  0  0
 33 32  1  0  0  0  0
 34 37  2  0  0  0  0
 36 38  1  0  0  0  0
 36 35  2  0  0  0  0
 38 34  1  0  0  0  0
 39 51  1  0  0  0  0
 40 36  1  0  0  0  0
 41 39  1  0  0  0  0
 41 44  1  0  0  0  0
 43 42  1  0  0  0  0
 43 48  1  0  0  0  0
 44 40  1  0  0  0  0
 45 46  1  0  0  0  0
 45 49  1  0  0  0  0
 45 51  1  0  0  0  0
 46 41  1  0  0  0  0
 46 47  1  0  0  0  0
 47 40  1  0  0  0  0
 47 43  1  0  0  0  0
 49 50  1  0  0  0  0
 50 43  1  0  0  0  0
 51 42  1  0  0  0  0
 52 47  1  0  0  0  0
 54 53  2  0  0  0  0
 56 55  1  0  0  0  0
 56 54  1  0  0  0  0
 57 56  1  0  0  0  0
 58 57  1  0  0  0  0
 59 58  1  0  0  0  0
 61 58  1  0  0  0  0
 61 63  1  0  0  0  0
 61 60  1  0  0  0  0
 62 63  1  0  0  0  0
 64 65  2  0  0  0  0
M  END
>  <MODEL>
5

>  <REMARK>
 VINA RESULT:      -2.7      2.985     11.470
  Name = 
  11 active torsions:
  status: ('A' for Active; 'I' for Inactive)
    1  A    between atoms: N_2  and  C_17
    2  A    between atoms: C_3  and  C_35
    3  A    between atoms: C_6  and  C_9
    4  A    between atoms: C_9  and  C_52
    5  A    between atoms: C_10  and  C_58
    6  A    between atoms: C_15  and  C_28
    7  A    between atoms: C_29  and  C_32
    8  A    between atoms: C_40  and  C_53
    9  A    between atoms: C_43  and  C_53
   10  A    between atoms: C_43  and  C_65
   11  A    between atoms: C_52  and  C_65
                            x       y       z     vdW  Elec       q    Type
                         _______ _______ _______ _____ _____    ______ ____

>  <TORSDO>
F 11

$$$$
=
 OpenBabel10222418343D

 65 73  0  0  1  0  0  0  0  0999 V2000
  188.1560  178.1170  137.1530 C   0  0  1  0  0  3  0  0  0  0  0  0
  186.0930  179.7010  141.2920 C   0  0  0  0  0  2  0  0  0  0  0  0
  186.0230  179.4650  139.8210 C   0  0  0  0  0  0  0  0  0  0  0  0
  186.8720  178.1620  136.3060 C   0  0  1  0  0  3  0  0  0  0  0  0
  183.7950  175.2140  136.1580 C   0  0  2  0  0  3  0  0  0  0  0  0
  183.2230  175.9150  139.7120 O   0  0  0  0  0  0  0  0  0  0  0  0
  184.0760  175.6390  138.6380 C   0  0  0  0  0  0  0  0  0  0  0  0
  182.7290  178.0520  140.7570 C   0  0  0  0  0  2  0  0  0  0  0  0
  185.9210  176.9660  136.4670 C   0  0  1  0  0  3  0  0  0  0  0  0
  182.3240  177.0220  139.7010 C   0  0  2  0  0  3  0  0  0  0  0  0
  184.6900  177.3740  137.0350 O   0  0  0  0  0  0  0  0  0  0  0  0
  185.0350  174.8400  138.8050 O   0  0  0  0  0  0  0  0  0  0  0  0
  183.8490  176.2580  137.2890 C   0  0  1  0  0  3  0  0  0  0  0  0
  184.3220  175.8130  134.8510 C   0  0  0  0  0  2  0  0  0  0  0  0
  187.9760  178.1860  138.6510 C   0  0  0  0  0  3  0  0  0  0  0  0
  187.0170  178.8630  139.2300 C   0  0  0  0  0  0  0  0  0  0  0  0
  186.2200  179.3960  136.4190 O   0  0  0  0  0  1  0  0  0  0  0  0
  184.6680  179.0090  139.4530 C   0  0  0  0  0  2  0  0  0  0  0  0
  184.2290  178.2930  140.7040 C   0  0  1  0  0  3  0  0  0  0  0  0
  184.7900  179.1240  141.8440 C   0  0  1  0  0  3  0  0  0  0  0  0
  185.7310  176.3490  135.0700 C   0  0  0  0  0  2  0  0  0  0  0  0
  182.4490  174.6240  136.0480 N   0  0  2  0  0  0  0  0  0  0  0  0
  182.8210  170.9350  136.3490 C   0  0  0  0  0  2  0  0  0  0  0  0
  182.5490  173.2080  135.6720 C   0  0  2  0  0  3  0  0  0  0  0  0
  181.1840  172.5820  135.7210 C   0  0  2  0  0  3  0  0  0  0  0  0
  181.4750  171.0970  135.6350 C   0  0  2  0  0  3  0  0  0  0  0  0
  183.3500  172.3400  136.6180 C   0  0  0  0  0  2  0  0  0  0  0  0
  181.6850  175.3030  134.9850 C   0  0  0  0  0  2  0  0  0  0  0  0
  180.2760  174.7030  134.8310 C   0  0  0  0  0  2  0  0  0  0  0  0
  178.9310  172.6290  134.6220 C   0  0  0  0  0  1  0  0  0  0  0  0
  180.3410  173.1890  134.6020 C   0  0  2  0  0  3  0  0  0  0  0  0
  180.4000  170.3080  136.3630 C   0  0  0  0  0  2  0  0  0  0  0  0
  179.1950  169.6450  135.1750 S   0  0  0  0  0  1  0  0  0  0  0  0
  185.0610  178.2840  143.0500 C   0  0  0  0  0  0  0  0  0  0  0  0
  185.9910  176.5930  145.2270 O   0  0  0  0  0  0  0  0  0  0  0  0
  186.8360  177.1990  144.5170 C   0  0  0  0  0  0  0  0  0  0  0  0
  184.1050  177.7770  143.6990 O   0  0  0  0  0  0  0  0  0  0  0  0
  186.4180  178.0460  143.4370 N   0  0  0  0  0  2  0  0  0  0  0  0
  190.9830  176.8430  146.2610 O   0  0  0  0  0  0  0  0  0  0  0  0
  188.2970  177.0120  144.8020 C   0  0  2  0  0  3  0  0  0  0  0  0
  190.0890  177.9380  146.1220 C   0  0  2  0  0  3  0  0  0  0  0  0
  190.9830  175.7900  144.1020 C   0  0  0  0  0  2  0  0  0  0  0  0
  190.1360  176.5860  143.0800 C   0  0  2  0  0  0  0  0  0  0  0  0
  188.6580  177.4510  146.2050 C   0  0  0  0  0  2  0  0  0  0  0  0
  191.7070  178.1830  144.4800 C   0  0  2  0  0  3  0  0  0  0  0  0
  190.2520  178.5240  144.7330 C   0  0  1  0  0  3  0  0  0  0  0  0
  189.2970  177.6830  143.8280 C   0  0  2  0  0  0  0  0  0  0  0  0
  189.2690  175.6370  142.2660 C   0  0  0  0  0  1  0  0  0  0  0  0
  192.0580  178.2160  142.9780 C   0  0  0  0  0  2  0  0  0  0  0  0
  191.1480  177.2800  142.1610 C   0  0  0  0  0  2  0  0  0  0  0  0
  191.7210  176.7690  145.0600 C   0  0  1  0  0  3  0  0  0  0  0  0
  188.6220  178.6370  142.8370 C   0  0  0  0  0  1  0  0  0  0  0  0
  189.3000  176.7460  135.5900 O   0  0  0  0  0  0  0  0  0  0  0  0
  189.0160  176.9470  136.7650 C   0  0  0  0  0  0  0  0  0  0  0  0
  190.4220  176.8510  138.6660 O   0  0  0  0  0  1  0  0  0  0  0  0
  189.6040  176.0790  137.8360 C   0  0  2  0  0  3  0  0  0  0  0  0
  190.4200  174.9460  137.2330 C   0  0  0  0  0  2  0  0  0  0  0  0
  191.9140  175.1910  137.4220 C   0  0  1  0  0  3  0  0  0  0  0  0
  192.5280  174.0010  137.8200 O   0  0  0  0  0  1  0  0  0  0  0  0
  191.9840  175.0230  135.0330 O   0  0  0  0  0  1  0  0  0  0  0  0
  192.5460  175.6940  136.1230 C   0  0  2  0  0  3  0  0  0  0  0  0
  194.6550  176.1710  137.1430 O   0  0  0  0  0  1  0  0  0  0  0  0
  194.0490  175.4510  136.1120 C   0  0  0  0  0  2  0  0  0  0  0  0
  180.9330  176.5500  139.9670 C   0  0  0  0  0  3  0  0  0  0  0  0
  179.9940  177.3230  139.8820 O   0  0  0  0  0  0  0  0  0  0  0  0
  1 54  1  1  0  0  0
  1 15  1  0  0  0  0
  2 20  1  0  0  0  0
  3  2  1  0  0  0  0
  4 17  1  1  0  0  0
  4  9  1  0  0  0  0
  4  1  1  0  0  0  0
  5 14  1  6  0  0  0
  5 13  1  0  0  0  0
  7 12  2  0  0  0  0
  7  6  1  0  0  0  0
  9 21  1  6  0  0  0
  9 11  1  0  0  0  0
 10  6  1  0  0  0  0
 10 64  1  1  0  0  0
 10  8  1  0  0  0  0
 13 11  1  6  0  0  0
 13  7  1  0  0  0  0
 14 21  1  0  0  0  0
 15 16  2  0  0  0  0
 16  3  2  0  0  0  0
 18  3  1  0  0  0  0
 19 18  1  6  0  0  0
 19  8  1  0  0  0  0
 19 20  1  0  0  0  0
 20 34  1  1  0  0  0
 22 28  1  6  0  0  0
 22  5  1  0  0  0  0
 23 27  1  0  0  0  0
 24 25  1  0  0  0  0
 24 22  1  0  0  0  0
 24 27  1  1  0  0  0
 26 25  1  0  0  0  0
 26 23  1  0  0  0  0
 26 32  1  0  0  0  0
 29 28  1  0  0  0  0
 31 30  1  0  0  0  0
 31 29  1  0  0  0  0
 31 25  1  0  0  0  0
 33 32  1  0  0  0  0
 34 38  1  0  0  0  0
 34 37  2  0  0  0  0
 36 40  1  0  0  0  0
 36 35  2  0  0  0  0
 38 36  1  0  0  0  0
 40 44  1  0  0  0  0
 41 44  1  0  0  0  0
 41 39  1  0  0  0  0
 42 51  1  0  0  0  0
 43 47  1  0  0  0  0
 43 42  1  0  0  0  0
 45 46  1  0  0  0  0
 45 51  1  0  0  0  0
 46 41  1  0  0  0  0
 47 46  1  0  0  0  0
 47 40  1  0  0  0  0
 48 43  1  0  0  0  0
 49 45  1  0  0  0  0
 50 49  1  0  0  0  0
 50 43  1  0  0  0  0
 51 39  1  0  0  0  0
 52 47  1  0  0  0  0
 53 54  2  0  0  0  0
 54 56  1  0  0  0  0
 56 55  1  0  0  0  0
 57 58  1  0  0  0  0
 57 56  1  0  0  0  0
 58 59  1  0  0  0  0
 60 61  1  0  0  0  0
 61 58  1  0  0  0  0
 63 61  1  0  0  0  0
 63 62  1  0  0  0  0
 65 64  2  0  0  0  0
M  END
>  <MODEL>
6

>  <REMARK>
 VINA RESULT:      -2.2      3.496     10.558
  Name = 
  11 active torsions:
  status: ('A' for Active; 'I' for Inactive)
    1  A    between atoms: N_2  and  C_17
    2  A    between atoms: C_3  and  C_35
    3  A    between atoms: C_6  and  C_9
    4  A    between atoms: C_9  and  C_52
    5  A    between atoms: C_10  and  C_58
    6  A    between atoms: C_15  and  C_28
    7  A    between atoms: C_29  and  C_32
    8  A    between atoms: C_40  and  C_53
    9  A    between atoms: C_43  and  C_53
   10  A    between atoms: C_43  and  C_65
   11  A    between atoms: C_52  and  C_65
                            x       y       z     vdW  Elec       q    Type
                         _______ _______ _______ _____ _____    ______ ____

>  <TORSDO>
F 11

$$$$
=
 OpenBabel10222418343D

 65 73  0  0  1  0  0  0  0  0999 V2000
  186.6750  176.9750  135.8630 C   0  0  1  0  0  3  0  0  0  0  0  0
  181.8030  176.6000  135.7330 C   0  0  0  0  0  2  0  0  0  0  0  0
  183.1030  176.3200  136.4070 C   0  0  0  0  0  0  0  0  0  0  0  0
  186.8360  176.4760  137.3100 C   0  0  1  0  0  3  0  0  0  0  0  0
  186.3460  178.7580  140.8780 C   0  0  2  0  0  3  0  0  0  0  0  0
  182.8490  179.2140  139.8720 O   0  0  0  0  0  0  0  0  0  0  0  0
  184.2190  179.2280  139.5890 C   0  0  0  0  0  0  0  0  0  0  0  0
  181.2020  177.5030  139.3580 C   0  0  0  0  0  2  0  0  0  0  0  0
  186.5760  177.5160  138.4100 C   0  0  1  0  0  3  0  0  0  0  0  0
  182.1920  178.0560  140.3850 C   0  0  2  0  0  3  0  0  0  0  0  0
  185.4460  177.1580  139.1850 O   0  0  0  0  0  0  0  0  0  0  0  0
  184.6900  180.1600  138.8840 O   0  0  0  0  0  0  0  0  0  0  0  0
  185.1340  178.1700  140.1320 C   0  0  1  0  0  3  0  0  0  0  0  0
  187.5590  177.8350  140.7400 C   0  0  0  0  0  2  0  0  0  0  0  0
  185.2830  177.3860  135.4450 C   0  0  0  0  0  3  0  0  0  0  0  0
  184.1970  176.8190  135.9030 C   0  0  0  0  0  0  0  0  0  0  0  0
  186.1500  175.2740  137.5220 O   0  0  0  0  0  1  0  0  0  0  0  0
  182.9420  176.4380  137.8700 C   0  0  0  0  0  2  0  0  0  0  0  0
  181.8440  177.4640  137.9810 C   0  0  1  0  0  3  0  0  0  0  0  0
  180.8980  177.1460  136.8370 C   0  0  1  0  0  3  0  0  0  0  0  0
  187.8540  177.5990  139.2640 C   0  0  0  0  0  2  0  0  0  0  0  0
  185.9990  179.0900  142.2710 N   0  0  2  0  0  0  0  0  0  0  0  0
  187.8670  176.7460  144.4750 C   0  0  0  0  0  2  0  0  0  0  0  0
  186.2870  177.9480  143.1480 C   0  0  2  0  0  3  0  0  0  0  0  0
  186.0800  178.3540  144.5800 C   0  0  2  0  0  3  0  0  0  0  0  0
  186.7100  177.2190  145.3610 C   0  0  2  0  0  3  0  0  0  0  0  0
  187.7220  177.4690  143.1400 C   0  0  0  0  0  2  0  0  0  0  0  0
  184.5530  179.3660  142.3790 C   0  0  0  0  0  2  0  0  0  0  0  0
  184.1500  179.7040  143.8260 C   0  0  0  0  0  2  0  0  0  0  0  0
  184.3150  179.0580  146.2150 C   0  0  0  0  0  1  0  0  0  0  0  0
  184.5890  178.6000  144.7940 C   0  0  2  0  0  3  0  0  0  0  0  0
  187.2450  177.7290  146.6890 C   0  0  0  0  0  2  0  0  0  0  0  0
  188.8910  177.0290  147.0120 S   0  0  0  0  0  1  0  0  0  0  0  0
  180.1800  178.3690  136.3660 C   0  0  0  0  0  0  0  0  0  0  0  0
  179.0340  180.9690  135.7400 O   0  0  0  0  0  0  0  0  0  0  0  0
  180.1730  180.9130  136.2730 C   0  0  0  0  0  0  0  0  0  0  0  0
  179.0580  178.2690  135.7980 O   0  0  0  0  0  0  0  0  0  0  0  0
  180.7760  179.6510  136.5930 N   0  0  0  0  0  2  0  0  0  0  0  0
  183.0850  184.1880  137.3490 O   0  0  0  0  0  0  0  0  0  0  0  0
  180.8940  182.1900  136.5900 C   0  0  2  0  0  3  0  0  0  0  0  0
  182.5610  183.0890  138.0800 C   0  0  2  0  0  3  0  0  0  0  0  0
  181.1620  185.2000  136.3250 C   0  0  0  0  0  2  0  0  0  0  0  0
  179.8500  184.5150  136.7770 C   0  0  2  0  0  0  0  0  0  0  0  0
  182.2790  181.9340  137.1450 C   0  0  0  0  0  2  0  0  0  0  0  0
  181.4490  184.9810  138.8280 C   0  0  2  0  0  3  0  0  0  0  0  0
  181.2230  183.4910  138.6670 C   0  0  1  0  0  3  0  0  0  0  0  0
  180.1840  183.1850  137.5420 C   0  0  2  0  0  0  0  0  0  0  0  0
  178.9360  184.2920  135.5810 C   0  0  0  0  0  1  0  0  0  0  0  0
  180.1230  185.7590  138.9540 C   0  0  0  0  0  2  0  0  0  0  0  0
  179.1920  185.4950  137.7560 C   0  0  0  0  0  2  0  0  0  0  0  0
  182.1710  185.2520  137.5080 C   0  0  1  0  0  3  0  0  0  0  0  0
  178.9320  182.5950  138.2010 C   0  0  0  0  0  1  0  0  0  0  0  0
  187.3010  179.1580  135.1770 O   0  0  0  0  0  0  0  0  0  0  0  0
  187.6750  178.0540  135.5510 C   0  0  0  0  0  0  0  0  0  0  0  0
  189.8350  177.9310  134.5940 O   0  0  0  0  0  1  0  0  0  0  0  0
  189.1310  177.7980  135.7940 C   0  0  2  0  0  3  0  0  0  0  0  0
  189.3530  176.4030  136.3590 C   0  0  0  0  0  2  0  0  0  0  0  0
  190.5550  175.7340  135.6990 C   0  0  1  0  0  3  0  0  0  0  0  0
  191.6520  175.8070  136.5610 O   0  0  0  0  0  1  0  0  0  0  0  0
  188.9110  173.9900  135.6840 O   0  0  0  0  0  1  0  0  0  0  0  0
  190.2450  174.2720  135.3730 C   0  0  2  0  0  3  0  0  0  0  0  0
  190.9520  172.0160  135.7330 O   0  0  0  0  0  1  0  0  0  0  0  0
  191.1320  173.3290  136.1740 C   0  0  0  0  0  2  0  0  0  0  0  0
  181.4710  178.3960  141.6470 C   0  0  0  0  0  3  0  0  0  0  0  0
  180.3330  178.0010  141.8300 O   0  0  0  0  0  0  0  0  0  0  0  0
  1 54  1  1  0  0  0
  1  4  1  0  0  0  0
  2  3  1  0  0  0  0
  2 20  1  0  0  0  0
  3 18  1  0  0  0  0
  4 17  1  1  0  0  0
  4  9  1  0  0  0  0
  5 14  1  1  0  0  0
  5 22  1  0  0  0  0
  6 10  1  0  0  0  0
  7  6  1  0  0  0  0
  7 13  1  0  0  0  0
  8 10  1  0  0  0  0
  9 11  1  0  0  0  0
  9 21  1  1  0  0  0
 10 64  1  1  0  0  0
 12  7  2  0  0  0  0
 13 11  1  6  0  0  0
 13  5  1  0  0  0  0
 15  1  1  0  0  0  0
 15 16  2  0  0  0  0
 16  3  2  0  0  0  0
 19 18  1  1  0  0  0
 19  8  1  0  0  0  0
 20 34  1  6  0  0  0
 20 19  1  0  0  0  0
 21 14  1  0  0  0  0
 22 28  1  6  0  0  0
 22 24  1  0  0  0  0
 23 26  1  0  0  0  0
 24 27  1  1  0  0  0
 24 25  1  0  0  0  0
 25 31  1  0  0  0  0
 25 26  1  0  0  0  0
 26 32  1  0  0  0  0
 27 23  1  0  0  0  0
 28 29  1  0  0  0  0
 29 31  1  0  0  0  0
 31 30  1  0  0  0  0
 32 33  1  0  0  0  0
 34 38  1  0  0  0  0
 35 36  2  0  0  0  0
 36 40  1  0  0  0  0
 36 38  1  0  0  0  0
 37 34  2  0  0  0  0
 39 51  1  0  0  0  0
 39 41  1  0  0  0  0
 40 44  1  0  0  0  0
 40 47  1  0  0  0  0
 41 46  1  0  0  0  0
 42 43  1  0  0  0  0
 42 51  1  0  0  0  0
 43 47  1  0  0  0  0
 43 50  1  0  0  0  0
 44 41  1  0  0  0  0
 45 49  1  0  0  0  0
 46 45  1  0  0  0  0
 47 52  1  0  0  0  0
 47 46  1  0  0  0  0
 48 43  1  0  0  0  0
 50 49  1  0  0  0  0
 51 45  1  0  0  0  0
 53 54  2  0  0  0  0
 54 56  1  0  0  0  0
 55 56  1  0  0  0  0
 56 57  1  0  0  0  0
 58 57  1  0  0  0  0
 58 59  1  0  0  0  0
 61 60  1  0  0  0  0
 61 58  1  0  0  0  0
 61 63  1  0  0  0  0
 62 63  1  0  0  0  0
 64 65  2  0  0  0  0
M  END
>  <MODEL>
7

>  <REMARK>
 VINA RESULT:      -1.5      4.599      9.537
  Name = 
  11 active torsions:
  status: ('A' for Active; 'I' for Inactive)
    1  A    between atoms: N_2  and  C_17
    2  A    between atoms: C_3  and  C_35
    3  A    between atoms: C_6  and  C_9
    4  A    between atoms: C_9  and  C_52
    5  A    between atoms: C_10  and  C_58
    6  A    between atoms: C_15  and  C_28
    7  A    between atoms: C_29  and  C_32
    8  A    between atoms: C_40  and  C_53
    9  A    between atoms: C_43  and  C_53
   10  A    between atoms: C_43  and  C_65
   11  A    between atoms: C_52  and  C_65
                            x       y       z     vdW  Elec       q    Type
                         _______ _______ _______ _____ _____    ______ ____

>  <TORSDO>
F 11

$$$$
