=
 OpenBabel10222416393D

 30 34  0  0  1  0  0  0  0  0999 V2000
  188.2130  177.3440  145.1970 C   0  0  0  0  0  0  0  0  0  0  0  0
  185.3130  178.3510  143.0580 N   0  0  0  0  0  0  0  0  0  0  0  0
  189.8060  177.9130  142.0700 N   0  0  0  0  0  0  0  0  0  0  0  0
  186.1510  178.5710  145.8050 C   0  0  0  0  0  3  0  0  0  0  0  0
  186.5290  178.5240  147.0920 C   0  0  0  0  0  3  0  0  0  0  0  0
  186.7610  177.5940  144.8290 C   0  0  1  0  0  3  0  0  0  0  0  0
  189.1980  177.2190  144.2190 O   0  0  0  0  0  0  0  0  0  0  0  0
  189.1910  178.3540  140.8310 C   0  0  2  0  0  3  0  0  0  0  0  0
  187.5260  177.4910  142.3430 C   0  0  2  0  0  3  0  0  0  0  0  0
  187.5540  177.5000  147.5140 C   0  0  2  0  0  3  0  0  0  0  0  0
  186.5140  177.9430  143.3770 C   0  0  0  0  0  0  0  0  0  0  0  0
  188.9040  177.5030  142.8910 C   0  0  0  0  0  0  0  0  0  0  0  0
  188.2360  177.9400  148.7920 C   0  0  0  0  0  1  0  0  0  0  0  0
  187.6920  178.4050  141.1320 C   0  0  0  0  0  2  0  0  0  0  0  0
  188.5500  177.3090  146.4540 N   0  0  0  0  0  0  0  0  0  0  0  0
  183.4990  178.7750  139.2830 C   0  0  0  0  0  0  0  0  0  0  0  0
  183.0520  177.7590  140.1300 C   0  0  0  0  0  3  0  0  0  0  0  0
  182.9650  178.9300  138.1540 O   0  0  0  0  0  0  0  0  0  0  0  0
  185.1060  179.4600  140.8900 C   0  0  0  0  0  3  0  0  0  0  0  0
  184.5030  179.6010  139.6790 N   0  0  0  0  0  0  0  0  0  0  0  0
  184.7170  178.4350  141.7570 C   0  0  2  0  0  3  0  0  0  0  0  0
  183.6590  177.5990  141.3770 C   0  0  0  0  0  3  0  0  0  0  0  0
  190.0660  175.6610  137.5820 C   0  0  0  0  0  3  0  0  0  0  0  0
  191.0860  176.0810  138.4380 C   0  0  0  0  0  3  0  0  0  0  0  0
  189.4930  177.4060  139.7030 C   0  0  0  0  0  0  0  0  0  0  0  0
  190.8110  176.9560  139.5020 C   0  0  0  0  0  0  0  0  0  0  0  0
  188.4740  176.9820  138.8340 C   0  0  0  0  0  3  0  0  0  0  0  0
  188.7590  176.1120  137.7800 C   0  0  0  0  0  3  0  0  0  0  0  0
  191.8260  177.3860  140.3640 O   0  0  0  0  0  0  0  0  0  0  0  0
  193.2030  177.3440  140.0140 C   0  0  0  0  0  1  0  0  0  0  0  0
  1 15  2  0  0  0  0
  2 11  2  0  0  0  0
  3 12  2  0  0  0  0
  4  5  2  0  0  0  0
  5 10  1  0  0  0  0
  6  1  1  0  0  0  0
  6  4  1  1  0  0  0
  7  1  1  0  0  0  0
  8 25  1  6  0  0  0
  8 14  1  0  0  0  0
  8  3  1  0  0  0  0
  9 14  1  6  0  0  0
  9 12  1  0  0  0  0
  9 11  1  0  0  0  0
 10 13  1  1  0  0  0
 11  6  1  0  0  0  0
 12  7  1  0  0  0  0
 15 10  1  0  0  0  0
 16 20  1  0  0  0  0
 16 17  1  0  0  0  0
 17 22  2  0  0  0  0
 18 16  2  0  0  0  0
 19 21  1  0  0  0  0
 20 19  2  0  0  0  0
 21  2  1  1  0  0  0
 22 21  1  0  0  0  0
 23 28  2  0  0  0  0
 23 24  1  0  0  0  0
 24 26  2  0  0  0  0
 26 25  1  0  0  0  0
 26 29  1  0  0  0  0
 27 25  2  0  0  0  0
 28 27  1  0  0  0  0
 30 29  1  0  0  0  0
M  END
>  <MODEL>
1

>  <REMARK>
 VINA RESULT:      -9.5      0.000      0.000
  Name = 
  3 active torsions:
  status: ('A' for Active; 'I' for Inactive)
    1  A    between atoms: N_3  and  C_24
    2  A    between atoms: C_15  and  C_17
    3  A    between atoms: C_16  and  O_20
                            x       y       z     vdW  Elec       q    Type
                         _______ _______ _______ _____ _____    ______ ____

>  <TORSDO>
F 3

$$$$
=
 OpenBabel10222416393D

 30 34  0  0  1  0  0  0  0  0999 V2000
  188.1880  177.3780  145.1200 C   0  0  0  0  0  0  0  0  0  0  0  0
  185.2510  178.3330  143.0090 N   0  0  0  0  0  0  0  0  0  0  0  0
  189.7460  178.0090  141.9870 N   0  0  0  0  0  0  0  0  0  0  0  0
  186.1020  178.5510  145.7520 C   0  0  0  0  0  3  0  0  0  0  0  0
  186.4900  178.5030  147.0350 C   0  0  0  0  0  3  0  0  0  0  0  0
  186.7280  177.5960  144.7640 C   0  0  1  0  0  3  0  0  0  0  0  0
  189.1690  177.2840  144.1350 O   0  0  0  0  0  0  0  0  0  0  0  0
  189.1120  178.4460  140.7560 C   0  0  2  0  0  3  0  0  0  0  0  0
  187.4780  177.5310  142.2720 C   0  0  2  0  0  3  0  0  0  0  0  0
  187.5420  177.5000  147.4430 C   0  0  2  0  0  3  0  0  0  0  0  0
  186.4630  177.9520  143.3160 C   0  0  0  0  0  0  0  0  0  0  0  0
  188.8600  177.5720  142.8110 C   0  0  0  0  0  0  0  0  0  0  0  0
  188.2220  177.9470  148.7200 C   0  0  0  0  0  1  0  0  0  0  0  0
  187.6140  178.4590  141.0670 C   0  0  0  0  0  2  0  0  0  0  0  0
  188.5340  177.3410  146.3740 N   0  0  0  0  0  0  0  0  0  0  0  0
  183.3940  178.7400  139.2530 C   0  0  0  0  0  0  0  0  0  0  0  0
  183.0160  177.6770  140.0750 C   0  0  0  0  0  2  0  0  0  0  0  0
  182.8460  178.8900  138.1300 O   0  0  0  0  0  0  0  0  0  0  0  0
  184.9640  179.4830  140.8710 C   0  0  0  0  0  3  0  0  0  0  0  0
  184.3470  179.6160  139.6660 N   0  0  0  0  0  0  0  0  0  0  0  0
  184.6440  178.4130  141.7120 C   0  0  0  0  0  0  0  0  0  0  0  0
  183.6380  177.5220  141.3150 C   0  0  0  0  0  3  0  0  0  0  0  0
  190.0000  175.7540  137.5090 C   0  0  0  0  0  3  0  0  0  0  0  0
  188.9130  176.6250  137.4190 C   0  0  0  0  0  3  0  0  0  0  0  0
  189.4290  177.5130  139.6180 C   0  0  0  0  0  0  0  0  0  0  0  0
  188.6170  177.5090  138.4710 C   0  0  0  0  0  0  0  0  0  0  0  0
  190.5180  176.6300  139.7020 C   0  0  0  0  0  3  0  0  0  0  0  0
  190.8030  175.7560  138.6520 C   0  0  0  0  0  3  0  0  0  0  0  0
  187.5270  178.3850  138.3920 O   0  0  0  0  0  0  0  0  0  0  0  0
  186.5760  178.3370  137.3370 C   0  0  0  0  0  1  0  0  0  0  0  0
  1 15  2  0  0  0  0
  2 11  2  0  0  0  0
  3 12  2  0  0  0  0
  4  5  2  0  0  0  0
  5 10  1  0  0  0  0
  6  1  1  0  0  0  0
  6  4  1  1  0  0  0
  7  1  1  0  0  0  0
  8 25  1  6  0  0  0
  8 14  1  0  0  0  0
  8  3  1  0  0  0  0
  9 14  1  6  0  0  0
  9 12  1  0  0  0  0
  9 11  1  0  0  0  0
 10 13  1  1  0  0  0
 11  6  1  0  0  0  0
 12  7  1  0  0  0  0
 15 10  1  0  0  0  0
 16 20  1  0  0  0  0
 16 17  1  0  0  0  0
 17 22  1  0  0  0  0
 18 16  2  0  0  0  0
 19 21  1  0  0  0  0
 20 19  2  0  0  0  0
 21  2  1  0  0  0  0
 22 21  2  0  0  0  0
 23 28  1  0  0  0  0
 24 23  2  0  0  0  0
 24 26  1  0  0  0  0
 25 27  1  0  0  0  0
 26 25  2  0  0  0  0
 28 27  2  0  0  0  0
 29 26  1  0  0  0  0
 30 29  1  0  0  0  0
M  END
>  <MODEL>
2

>  <REMARK>
 VINA RESULT:      -9.4      1.012      1.808
  Name = 
  3 active torsions:
  status: ('A' for Active; 'I' for Inactive)
    1  A    between atoms: N_3  and  C_24
    2  A    between atoms: C_15  and  C_17
    3  A    between atoms: C_16  and  O_20
                            x       y       z     vdW  Elec       q    Type
                         _______ _______ _______ _____ _____    ______ ____

>  <TORSDO>
F 3

$$$$
=
 OpenBabel10222416393D

 30 34  0  0  1  0  0  0  0  0999 V2000
  189.3520  177.8510  138.8450 C   0  0  0  0  0  0  0  0  0  0  0  0
  186.1310  178.6030  140.5930 N   0  0  0  0  0  0  0  0  0  0  0  0
  189.8400  176.2110  141.9610 N   0  0  0  0  0  0  0  0  0  0  0  0
  187.0780  178.1390  137.9120 C   0  0  0  0  0  3  0  0  0  0  0  0
  187.5960  178.0510  136.6780 C   0  0  0  0  0  3  0  0  0  0  0  0
  187.9900  178.4850  139.0640 C   0  0  1  0  0  3  0  0  0  0  0  0
  190.0710  177.2920  139.9000 O   0  0  0  0  0  0  0  0  0  0  0  0
  188.9090  176.1280  143.0730 C   0  0  2  0  0  3  0  0  0  0  0  0
  188.2980  177.9240  141.5880 C   0  0  2  0  0  3  0  0  0  0  0  0
  189.0740  178.2940  136.4880 C   0  0  2  0  0  3  0  0  0  0  0  0
  187.3760  178.2410  140.4270 C   0  0  0  0  0  0  0  0  0  0  0  0
  189.4760  177.1370  141.1450 C   0  0  0  0  0  0  0  0  0  0  0  0
  189.5520  177.6340  135.2120 C   0  0  0  0  0  1  0  0  0  0  0  0
  187.7230  177.0010  142.6580 C   0  0  0  0  0  2  0  0  0  0  0  0
  189.8260  177.7750  137.6350 N   0  0  0  0  0  0  0  0  0  0  0  0
  183.8700  179.2030  144.0920 C   0  0  0  0  0  0  0  0  0  0  0  0
  184.9870  180.0090  143.8710 C   0  0  0  0  0  3  0  0  0  0  0  0
  183.1710  179.3690  145.1250 O   0  0  0  0  0  0  0  0  0  0  0  0
  184.2670  178.0320  142.0650 C   0  0  0  0  0  3  0  0  0  0  0  0
  183.5320  178.2430  143.1900 N   0  0  0  0  0  0  0  0  0  0  0  0
  185.4140  178.7910  141.8200 C   0  0  2  0  0  3  0  0  0  0  0  0
  185.7540  179.8080  142.7220 C   0  0  0  0  0  3  0  0  0  0  0  0
  190.7070  177.5740  146.7140 C   0  0  0  0  0  3  0  0  0  0  0  0
  189.3180  177.5810  146.5670 C   0  0  0  0  0  3  0  0  0  0  0  0
  189.5370  176.6220  144.3480 C   0  0  0  0  0  0  0  0  0  0  0  0
  188.7220  177.1090  145.3850 C   0  0  0  0  0  0  0  0  0  0  0  0
  190.9330  176.6230  144.5020 C   0  0  0  0  0  3  0  0  0  0  0  0
  191.5140  177.0950  145.6810 C   0  0  0  0  0  3  0  0  0  0  0  0
  187.3310  177.1140  145.2270 O   0  0  0  0  0  0  0  0  0  0  0  0
  186.4460  177.6450  146.2050 C   0  0  0  0  0  1  0  0  0  0  0  0
  1  6  1  0  0  0  0
  1  7  1  0  0  0  0
  3  8  1  0  0  0  0
  5  4  2  0  0  0  0
  6  4  1  6  0  0  0
  6 11  1  0  0  0  0
  7 12  1  0  0  0  0
  8 25  1  1  0  0  0
  9 14  1  1  0  0  0
 10 13  1  6  0  0  0
 10  5  1  0  0  0  0
 10 15  1  0  0  0  0
 11  2  2  0  0  0  0
 11  9  1  0  0  0  0
 12  9  1  0  0  0  0
 12  3  2  0  0  0  0
 14  8  1  0  0  0  0
 15  1  2  0  0  0  0
 16 18  2  0  0  0  0
 17 16  1  0  0  0  0
 19 20  2  0  0  0  0
 20 16  1  0  0  0  0
 21  2  1  6  0  0  0
 21 19  1  0  0  0  0
 21 22  1  0  0  0  0
 22 17  2  0  0  0  0
 24 23  1  0  0  0  0
 25 27  2  0  0  0  0
 25 26  1  0  0  0  0
 26 24  2  0  0  0  0
 27 28  1  0  0  0  0
 28 23  2  0  0  0  0
 29 26  1  0  0  0  0
 29 30  1  0  0  0  0
M  END
>  <MODEL>
3

>  <REMARK>
 VINA RESULT:      -9.2      2.372      6.538
  Name = 
  3 active torsions:
  status: ('A' for Active; 'I' for Inactive)
    1  A    between atoms: N_3  and  C_24
    2  A    between atoms: C_15  and  C_17
    3  A    between atoms: C_16  and  O_20
                            x       y       z     vdW  Elec       q    Type
                         _______ _______ _______ _____ _____    ______ ____

>  <TORSDO>
F 3

$$$$
=
 OpenBabel10222416393D

 30 34  0  0  1  0  0  0  0  0999 V2000
  189.6550  176.3850  137.8430 C   0  0  0  0  0  0  0  0  0  0  0  0
  191.5760  176.7620  141.0310 N   0  0  0  0  0  0  0  0  0  0  0  0
  187.5160  178.5260  139.7070 N   0  0  0  0  0  0  0  0  0  0  0  0
  192.1010  176.4030  138.2220 C   0  0  0  0  0  3  0  0  0  0  0  0
  192.2820  176.1000  136.9270 C   0  0  0  0  0  3  0  0  0  0  0  0
  190.7580  176.1290  138.8540 C   0  0  1  0  0  3  0  0  0  0  0  0
  188.4570  176.9930  138.2130 O   0  0  0  0  0  0  0  0  0  0  0  0
  187.7370  179.0540  141.0420 C   0  0  2  0  0  3  0  0  0  0  0  0
  189.1600  177.1530  140.6360 C   0  0  2  0  0  3  0  0  0  0  0  0
  191.1340  175.5040  136.1500 C   0  0  2  0  0  3  0  0  0  0  0  0
  190.5670  176.7970  140.2000 C   0  0  0  0  0  0  0  0  0  0  0  0
  188.3170  177.5450  139.4800 C   0  0  0  0  0  0  0  0  0  0  0  0
  191.3260  175.7440  134.6670 C   0  0  0  0  0  1  0  0  0  0  0  0
  189.0330  178.3940  141.5170 C   0  0  0  0  0  2  0  0  0  0  0  0
  189.8620  176.0860  136.5930 N   0  0  0  0  0  0  0  0  0  0  0  0
  191.3910  177.4440  145.1810 C   0  0  0  0  0  0  0  0  0  0  0  0
  191.6640  178.5220  144.3370 C   0  0  0  0  0  3  0  0  0  0  0  0
  191.3190  177.6240  146.4240 O   0  0  0  0  0  0  0  0  0  0  0  0
  191.2710  175.9710  143.3230 C   0  0  0  0  0  3  0  0  0  0  0  0
  191.1960  176.2030  144.6610 N   0  0  0  0  0  0  0  0  0  0  0  0
  191.5770  177.0120  142.4420 C   0  0  2  0  0  3  0  0  0  0  0  0
  191.7450  178.3040  142.9600 C   0  0  0  0  0  3  0  0  0  0  0  0
  184.4430  178.1520  143.6700 C   0  0  0  0  0  3  0  0  0  0  0  0
  184.2090  178.7750  142.4420 C   0  0  0  0  0  3  0  0  0  0  0  0
  186.5870  178.7300  141.9550 C   0  0  0  0  0  0  0  0  0  0  0  0
  185.2760  179.0700  141.5770 C   0  0  0  0  0  0  0  0  0  0  0  0
  186.8130  178.1080  143.1940 C   0  0  0  0  0  3  0  0  0  0  0  0
  185.7450  177.8190  144.0470 C   0  0  0  0  0  3  0  0  0  0  0  0
  185.0530  179.6970  140.3440 O   0  0  0  0  0  0  0  0  0  0  0  0
  183.9940  179.3260  139.4720 C   0  0  0  0  0  1  0  0  0  0  0  0
  1  7  1  0  0  0  0
  1  6  1  0  0  0  0
  3  8  1  0  0  0  0
  5  4  2  0  0  0  0
  6  4  1  6  0  0  0
  6 11  1  0  0  0  0
  7 12  1  0  0  0  0
  8 14  1  0  0  0  0
  8 25  1  1  0  0  0
  9 14  1  1  0  0  0
 10 13  1  6  0  0  0
 10 15  1  0  0  0  0
 10  5  1  0  0  0  0
 11  9  1  0  0  0  0
 11  2  2  0  0  0  0
 12  3  2  0  0  0  0
 12  9  1  0  0  0  0
 15  1  2  0  0  0  0
 16 18  2  0  0  0  0
 17 16  1  0  0  0  0
 19 20  2  0  0  0  0
 20 16  1  0  0  0  0
 21  2  1  6  0  0  0
 21 22  1  0  0  0  0
 21 19  1  0  0  0  0
 22 17  2  0  0  0  0
 23 28  1  0  0  0  0
 24 23  2  0  0  0  0
 25 27  1  0  0  0  0
 26 25  2  0  0  0  0
 26 24  1  0  0  0  0
 27 28  2  0  0  0  0
 29 26  1  0  0  0  0
 30 29  1  0  0  0  0
M  END
>  <MODEL>
4

>  <REMARK>
 VINA RESULT:      -9.1      2.401      8.075
  Name = 
  3 active torsions:
  status: ('A' for Active; 'I' for Inactive)
    1  A    between atoms: N_3  and  C_24
    2  A    between atoms: C_15  and  C_17
    3  A    between atoms: C_16  and  O_20
                            x       y       z     vdW  Elec       q    Type
                         _______ _______ _______ _____ _____    ______ ____

>  <TORSDO>
F 3

$$$$
=
 OpenBabel10222416393D

 30 34  0  0  1  0  0  0  0  0999 V2000
  189.1650  177.9860  139.1330 C   0  0  0  0  0  0  0  0  0  0  0  0
  185.8460  178.7330  140.6900 N   0  0  0  0  0  0  0  0  0  0  0  0
  189.4870  176.3760  142.2860 N   0  0  0  0  0  0  0  0  0  0  0  0
  186.9450  178.2520  138.0710 C   0  0  0  0  0  3  0  0  0  0  0  0
  187.5330  178.1570  136.8690 C   0  0  0  0  0  3  0  0  0  0  0  0
  187.7890  178.6140  139.2700 C   0  0  1  0  0  3  0  0  0  0  0  0
  189.8270  177.4410  140.2320 O   0  0  0  0  0  0  0  0  0  0  0  0
  188.4950  176.2970  143.3450 C   0  0  2  0  0  3  0  0  0  0  0  0
  187.9580  178.0760  141.8110 C   0  0  2  0  0  3  0  0  0  0  0  0
  189.0180  178.4080  136.7610 C   0  0  2  0  0  3  0  0  0  0  0  0
  187.1010  178.3770  140.5980 C   0  0  0  0  0  0  0  0  0  0  0  0
  189.1630  177.2930  141.4430 C   0  0  0  0  0  0  0  0  0  0  0  0
  189.5710  177.7400  135.5190 C   0  0  0  0  0  1  0  0  0  0  0  0
  187.3290  177.1580  142.8560 C   0  0  0  0  0  2  0  0  0  0  0  0
  189.7070  177.9030  137.9530 N   0  0  0  0  0  0  0  0  0  0  0  0
  183.6820  179.2230  144.2680 C   0  0  0  0  0  0  0  0  0  0  0  0
  183.1640  178.3820  143.2810 C   0  0  0  0  0  3  0  0  0  0  0  0
  183.0600  179.3780  145.3500 O   0  0  0  0  0  0  0  0  0  0  0  0
  185.5580  179.7300  142.9030 C   0  0  0  0  0  3  0  0  0  0  0  0
  184.8610  179.8690  144.0620 N   0  0  0  0  0  0  0  0  0  0  0  0
  185.0600  178.9260  141.8730 C   0  0  2  0  0  3  0  0  0  0  0  0
  183.8650  178.2250  142.0840 C   0  0  0  0  0  3  0  0  0  0  0  0
  190.0710  177.7260  147.0920 C   0  0  0  0  0  3  0  0  0  0  0  0
  190.9130  177.1010  146.1710 C   0  0  0  0  0  3  0  0  0  0  0  0
  189.0460  176.8060  144.6480 C   0  0  0  0  0  0  0  0  0  0  0  0
  190.4100  176.6340  144.9450 C   0  0  0  0  0  0  0  0  0  0  0  0
  188.2050  177.4320  145.5830 C   0  0  0  0  0  3  0  0  0  0  0  0
  188.7170  177.8910  146.7990 C   0  0  0  0  0  3  0  0  0  0  0  0
  191.2450  176.0030  144.0150 O   0  0  0  0  0  0  0  0  0  0  0  0
  192.0560  174.8820  144.3440 C   0  0  0  0  0  1  0  0  0  0  0  0
  1  6  1  0  0  0  0
  1  7  1  0  0  0  0
  3  8  1  0  0  0  0
  5  4  2  0  0  0  0
  6  4  1  6  0  0  0
  6 11  1  0  0  0  0
  7 12  1  0  0  0  0
  8 25  1  1  0  0  0
  9 14  1  1  0  0  0
 10 13  1  6  0  0  0
 10  5  1  0  0  0  0
 10 15  1  0  0  0  0
 11  2  2  0  0  0  0
 11  9  1  0  0  0  0
 12  9  1  0  0  0  0
 12  3  2  0  0  0  0
 14  8  1  0  0  0  0
 15  1  2  0  0  0  0
 16 18  2  0  0  0  0
 17 16  1  0  0  0  0
 19 20  2  0  0  0  0
 20 16  1  0  0  0  0
 21  2  1  1  0  0  0
 21 22  1  0  0  0  0
 21 19  1  0  0  0  0
 22 17  2  0  0  0  0
 24 23  2  0  0  0  0
 25 26  2  0  0  0  0
 25 27  1  0  0  0  0
 26 24  1  0  0  0  0
 27 28  2  0  0  0  0
 28 23  1  0  0  0  0
 29 30  1  0  0  0  0
 29 26  1  0  0  0  0
M  END
>  <MODEL>
5

>  <REMARK>
 VINA RESULT:      -8.7      2.432      6.204
  Name = 
  3 active torsions:
  status: ('A' for Active; 'I' for Inactive)
    1  A    between atoms: N_3  and  C_24
    2  A    between atoms: C_15  and  C_17
    3  A    between atoms: C_16  and  O_20
                            x       y       z     vdW  Elec       q    Type
                         _______ _______ _______ _____ _____    ______ ____

>  <TORSDO>
F 3

$$$$
=
 OpenBabel10222416393D

 30 34  0  0  1  0  0  0  0  0999 V2000
  189.5450  176.8590  144.6110 C   0  0  0  0  0  0  0  0  0  0  0  0
  186.0350  178.1490  144.5010 N   0  0  0  0  0  0  0  0  0  0  0  0
  189.3310  178.0380  141.2640 N   0  0  0  0  0  0  0  0  0  0  0  0
  188.1820  177.8890  146.4020 C   0  0  0  0  0  3  0  0  0  0  0  0
  189.1650  177.6200  147.2750 C   0  0  0  0  0  3  0  0  0  0  0  0
  188.1320  177.1260  145.1010 C   0  0  1  0  0  3  0  0  0  0  0  0
  189.8730  176.9450  143.2600 O   0  0  0  0  0  0  0  0  0  0  0  0
  188.1970  178.6790  140.6230 C   0  0  2  0  0  3  0  0  0  0  0  0
  187.4960  177.5020  142.6040 C   0  0  2  0  0  3  0  0  0  0  0  0
  190.1880  176.5680  146.9200 C   0  0  2  0  0  3  0  0  0  0  0  0
  187.1960  177.7270  144.0730 C   0  0  0  0  0  0  0  0  0  0  0  0
  188.9570  177.4570  142.3500 C   0  0  0  0  0  0  0  0  0  0  0  0
  191.4600  176.7890  147.7110 C   0  0  0  0  0  1  0  0  0  0  0  0
  187.0760  178.6280  141.6620 C   0  0  0  0  0  2  0  0  0  0  0  0
  190.4780  176.6050  145.4830 N   0  0  0  0  0  0  0  0  0  0  0  0
  182.4800  178.9460  142.3900 C   0  0  0  0  0  0  0  0  0  0  0  0
  183.4460  178.1340  141.7930 C   0  0  0  0  0  2  0  0  0  0  0  0
  181.4050  179.1900  141.7850 O   0  0  0  0  0  0  0  0  0  0  0  0
  183.8500  179.2280  144.3090 C   0  0  0  0  0  3  0  0  0  0  0  0
  182.6980  179.4660  143.6270 N   0  0  0  0  0  0  0  0  0  0  0  0
  184.8600  178.4500  143.7350 C   0  0  0  0  0  0  0  0  0  0  0  0
  184.6360  177.8770  142.4760 C   0  0  0  0  0  3  0  0  0  0  0  0
  187.0690  176.6020  137.0180 C   0  0  0  0  0  3  0  0  0  0  0  0
  186.1940  177.5200  137.6010 C   0  0  0  0  0  3  0  0  0  0  0  0
  187.8080  177.9620  139.3590 C   0  0  0  0  0  0  0  0  0  0  0  0
  186.5530  178.2050  138.7740 C   0  0  0  0  0  0  0  0  0  0  0  0
  188.6820  177.0330  138.7680 C   0  0  0  0  0  3  0  0  0  0  0  0
  188.3140  176.3580  137.6020 C   0  0  0  0  0  3  0  0  0  0  0  0
  185.6810  179.1250  139.3690 O   0  0  0  0  0  0  0  0  0  0  0  0
  184.3780  179.3880  138.8650 C   0  0  0  0  0  1  0  0  0  0  0  0
  1  6  1  0  0  0  0
  1 15  2  0  0  0  0
  3 12  2  0  0  0  0
  4  5  2  0  0  0  0
  6  4  1  1  0  0  0
  7  1  1  0  0  0  0
  8 25  1  6  0  0  0
  8  3  1  0  0  0  0
  8 14  1  0  0  0  0
  9 14  1  6  0  0  0
  9 11  1  0  0  0  0
 10  5  1  0  0  0  0
 10 13  1  1  0  0  0
 11  2  2  0  0  0  0
 11  6  1  0  0  0  0
 12  9  1  0  0  0  0
 12  7  1  0  0  0  0
 15 10  1  0  0  0  0
 16 20  1  0  0  0  0
 17 16  1  0  0  0  0
 17 22  1  0  0  0  0
 18 16  2  0  0  0  0
 20 19  2  0  0  0  0
 21 19  1  0  0  0  0
 21  2  1  0  0  0  0
 22 21  2  0  0  0  0
 23 24  2  0  0  0  0
 23 28  1  0  0  0  0
 24 26  1  0  0  0  0
 26 25  2  0  0  0  0
 26 29  1  0  0  0  0
 27 25  1  0  0  0  0
 28 27  2  0  0  0  0
 30 29  1  0  0  0  0
M  END
>  <MODEL>
6

>  <REMARK>
 VINA RESULT:      -8.6      1.980      3.190
  Name = 
  3 active torsions:
  status: ('A' for Active; 'I' for Inactive)
    1  A    between atoms: N_3  and  C_24
    2  A    between atoms: C_15  and  C_17
    3  A    between atoms: C_16  and  O_20
                            x       y       z     vdW  Elec       q    Type
                         _______ _______ _______ _____ _____    ______ ____

>  <TORSDO>
F 3

$$$$
=
 OpenBabel10222416393D

 30 34  0  0  1  0  0  0  0  0999 V2000
  190.3900  176.4640  144.2810 C   0  0  0  0  0  0  0  0  0  0  0  0
  187.0710  177.9700  143.4370 N   0  0  0  0  0  0  0  0  0  0  0  0
  190.8160  177.2240  140.8350 N   0  0  0  0  0  0  0  0  0  0  0  0
  188.8570  177.8030  145.6900 C   0  0  0  0  0  3  0  0  0  0  0  0
  189.6620  177.5780  146.7400 C   0  0  0  0  0  3  0  0  0  0  0  0
  188.9470  176.8880  144.4930 C   0  0  1  0  0  3  0  0  0  0  0  0
  190.9350  176.3560  143.0030 O   0  0  0  0  0  0  0  0  0  0  0  0
  189.8590  177.8570  139.9430 C   0  0  2  0  0  3  0  0  0  0  0  0
  188.7510  176.9900  141.8990 C   0  0  2  0  0  3  0  0  0  0  0  0
  190.6310  176.4220  146.6830 C   0  0  2  0  0  3  0  0  0  0  0  0
  188.2430  177.4180  143.2620 C   0  0  0  0  0  0  0  0  0  0  0  0
  190.2240  176.8120  141.9000 C   0  0  0  0  0  0  0  0  0  0  0  0
  191.7750  176.6520  147.6470 C   0  0  0  0  0  1  0  0  0  0  0  0
  188.5880  178.0140  140.7790 C   0  0  0  0  0  2  0  0  0  0  0  0
  191.1470  176.2580  145.3200 N   0  0  0  0  0  0  0  0  0  0  0  0
  184.1400  178.9920  140.5930 C   0  0  0  0  0  0  0  0  0  0  0  0
  183.7600  178.2380  141.7050 C   0  0  0  0  0  3  0  0  0  0  0  0
  183.2810  179.3200  139.7340 O   0  0  0  0  0  0  0  0  0  0  0  0
  186.3910  179.0380  141.3470 C   0  0  0  0  0  3  0  0  0  0  0  0
  185.4350  179.3780  140.4410 N   0  0  0  0  0  0  0  0  0  0  0  0
  186.0640  178.2530  142.4560 C   0  0  2  0  0  3  0  0  0  0  0  0
  184.7270  177.8780  142.6450 C   0  0  0  0  0  3  0  0  0  0  0  0
  189.1600  175.4710  136.4230 C   0  0  0  0  0  3  0  0  0  0  0  0
  190.4640  175.6930  136.8710 C   0  0  0  0  0  3  0  0  0  0  0  0
  189.6140  177.0150  138.7210 C   0  0  0  0  0  0  0  0  0  0  0  0
  190.7030  176.4670  138.0190 C   0  0  0  0  0  0  0  0  0  0  0  0
  188.3060  176.7890  138.2610 C   0  0  0  0  0  3  0  0  0  0  0  0
  188.0810  176.0190  137.1170 C   0  0  0  0  0  3  0  0  0  0  0  0
  192.0060  176.6990  138.4750 O   0  0  0  0  0  0  0  0  0  0  0  0
  193.1590  176.3770  137.7090 C   0  0  0  0  0  1  0  0  0  0  0  0
  1  6  1  0  0  0  0
  1 15  2  0  0  0  0
  3 12  2  0  0  0  0
  4  5  2  0  0  0  0
  6  4  1  1  0  0  0
  7  1  1  0  0  0  0
  8 25  1  6  0  0  0
  8 14  1  0  0  0  0
  8  3  1  0  0  0  0
  9 14  1  6  0  0  0
  9 12  1  0  0  0  0
  9 11  1  0  0  0  0
 10  5  1  0  0  0  0
 10 13  1  1  0  0  0
 11  2  2  0  0  0  0
 11  6  1  0  0  0  0
 12  7  1  0  0  0  0
 15 10  1  0  0  0  0
 16 17  1  0  0  0  0
 17 22  2  0  0  0  0
 18 16  2  0  0  0  0
 19 21  1  0  0  0  0
 20 16  1  0  0  0  0
 20 19  2  0  0  0  0
 21 22  1  0  0  0  0
 21  2  1  1  0  0  0
 23 24  2  0  0  0  0
 23 28  1  0  0  0  0
 24 26  1  0  0  0  0
 26 29  1  0  0  0  0
 26 25  2  0  0  0  0
 27 25  1  0  0  0  0
 28 27  2  0  0  0  0
 30 29  1  0  0  0  0
M  END
>  <MODEL>
7

>  <REMARK>
 VINA RESULT:      -8.5      1.713      2.052
  Name = 
  3 active torsions:
  status: ('A' for Active; 'I' for Inactive)
    1  A    between atoms: N_3  and  C_24
    2  A    between atoms: C_15  and  C_17
    3  A    between atoms: C_16  and  O_20
                            x       y       z     vdW  Elec       q    Type
                         _______ _______ _______ _____ _____    ______ ____

>  <TORSDO>
F 3

$$$$
=
 OpenBabel10222416393D

 30 34  0  0  1  0  0  0  0  0999 V2000
  190.0680  177.5240  140.7240 C   0  0  0  0  0  0  0  0  0  0  0  0
  186.4060  178.2450  140.9780 N   0  0  0  0  0  0  0  0  0  0  0  0
  189.3680  176.4610  144.0430 N   0  0  0  0  0  0  0  0  0  0  0  0
  188.3170  177.4450  138.9760 C   0  0  0  0  0  3  0  0  0  0  0  0
  189.2700  177.2070  138.0630 C   0  0  0  0  0  3  0  0  0  0  0  0
  188.7100  178.0560  140.3000 C   0  0  1  0  0  3  0  0  0  0  0  0
  190.3420  177.2110  142.0540 O   0  0  0  0  0  0  0  0  0  0  0  0
  188.0850  176.4720  144.7240 C   0  0  2  0  0  3  0  0  0  0  0  0
  188.0440  177.9400  142.8140 C   0  0  2  0  0  3  0  0  0  0  0  0
  190.7010  177.5530  138.3940 C   0  0  2  0  0  3  0  0  0  0  0  0
  187.6290  177.9780  141.3560 C   0  0  0  0  0  0  0  0  0  0  0  0
  189.3200  177.2050  142.9950 C   0  0  0  0  0  0  0  0  0  0  0  0
  191.6470  176.7430  137.5330 C   0  0  0  0  0  1  0  0  0  0  0  0
  187.1260  177.1520  143.7440 C   0  0  0  0  0  2  0  0  0  0  0  0
  190.9710  177.2980  139.8130 N   0  0  0  0  0  0  0  0  0  0  0  0
  182.9930  179.2650  143.2210 C   0  0  0  0  0  0  0  0  0  0  0  0
  184.2340  179.7520  143.6320 C   0  0  0  0  0  3  0  0  0  0  0  0
  181.9560  179.5640  143.8680 O   0  0  0  0  0  0  0  0  0  0  0  0
  184.0020  178.1260  141.3980 C   0  0  0  0  0  3  0  0  0  0  0  0
  182.9020  178.4740  142.1190 N   0  0  0  0  0  0  0  0  0  0  0  0
  185.2700  178.5600  141.7930 C   0  0  2  0  0  3  0  0  0  0  0  0
  185.3750  179.4060  142.9060 C   0  0  0  0  0  3  0  0  0  0  0  0
  188.3060  178.5930  148.4690 C   0  0  0  0  0  3  0  0  0  0  0  0
  189.4090  177.8740  148.0050 C   0  0  0  0  0  3  0  0  0  0  0  0
  188.1650  177.2220  146.0250 C   0  0  0  0  0  0  0  0  0  0  0  0
  189.3490  177.1820  146.7840 C   0  0  0  0  0  0  0  0  0  0  0  0
  187.0580  177.9440  146.5020 C   0  0  0  0  0  3  0  0  0  0  0  0
  187.1300  178.6280  147.7180 C   0  0  0  0  0  3  0  0  0  0  0  0
  190.4480  176.4550  146.3110 O   0  0  0  0  0  0  0  0  0  0  0  0
  191.6800  176.3760  147.0160 C   0  0  0  0  0  1  0  0  0  0  0  0
  1  7  1  0  0  0  0
  2 11  2  0  0  0  0
  3  8  1  0  0  0  0
  5 10  1  0  0  0  0
  5  4  2  0  0  0  0
  6  4  1  6  0  0  0
  6  1  1  0  0  0  0
  6 11  1  0  0  0  0
  7 12  1  0  0  0  0
  8 25  1  1  0  0  0
  9 12  1  0  0  0  0
  9 14  1  1  0  0  0
 10 13  1  6  0  0  0
 10 15  1  0  0  0  0
 11  9  1  0  0  0  0
 12  3  2  0  0  0  0
 14  8  1  0  0  0  0
 15  1  2  0  0  0  0
 16 17  1  0  0  0  0
 16 18  2  0  0  0  0
 19 21  1  0  0  0  0
 19 20  2  0  0  0  0
 20 16  1  0  0  0  0
 21  2  1  6  0  0  0
 21 22  1  0  0  0  0
 22 17  2  0  0  0  0
 24 23  1  0  0  0  0
 25 27  2  0  0  0  0
 25 26  1  0  0  0  0
 26 24  2  0  0  0  0
 27 28  1  0  0  0  0
 28 23  2  0  0  0  0
 29 26  1  0  0  0  0
 29 30  1  0  0  0  0
M  END
>  <MODEL>
8

>  <REMARK>
 VINA RESULT:      -8.5      2.006      6.328
  Name = 
  3 active torsions:
  status: ('A' for Active; 'I' for Inactive)
    1  A    between atoms: N_3  and  C_24
    2  A    between atoms: C_15  and  C_17
    3  A    between atoms: C_16  and  O_20
                            x       y       z     vdW  Elec       q    Type
                         _______ _______ _______ _____ _____    ______ ____

>  <TORSDO>
F 3

$$$$
=
 OpenBabel10222416393D

 30 34  0  0  1  0  0  0  0  0999 V2000
  188.0180  177.5380  145.2750 C   0  0  0  0  0  0  0  0  0  0  0  0
  184.6680  178.3580  143.8250 N   0  0  0  0  0  0  0  0  0  0  0  0
  188.8890  178.4250  141.9440 N   0  0  0  0  0  0  0  0  0  0  0  0
  186.0220  178.5180  146.3620 C   0  0  0  0  0  3  0  0  0  0  0  0
  186.6560  178.4430  147.5430 C   0  0  0  0  0  3  0  0  0  0  0  0
  186.5060  177.6590  145.2190 C   0  0  1  0  0  3  0  0  0  0  0  0
  188.7920  177.5630  144.1160 O   0  0  0  0  0  0  0  0  0  0  0  0
  187.9990  178.8660  140.8850 C   0  0  2  0  0  3  0  0  0  0  0  0
  186.7570  177.7620  142.6290 C   0  0  2  0  0  3  0  0  0  0  0  0
  187.8310  177.5070  147.6820 C   0  0  2  0  0  3  0  0  0  0  0  0
  185.9400  178.0570  143.8720 C   0  0  0  0  0  0  0  0  0  0  0  0
  188.2120  177.8850  142.8960 C   0  0  0  0  0  0  0  0  0  0  0  0
  188.7160  177.9460  148.8290 C   0  0  0  0  0  1  0  0  0  0  0  0
  186.5930  178.7510  141.4780 C   0  0  0  0  0  2  0  0  0  0  0  0
  188.6040  177.4720  146.4350 N   0  0  0  0  0  0  0  0  0  0  0  0
  182.0370  178.5150  140.5430 C   0  0  0  0  0  0  0  0  0  0  0  0
  183.2880  177.9200  140.3700 C   0  0  0  0  0  2  0  0  0  0  0  0
  181.2280  178.5650  139.5810 O   0  0  0  0  0  0  0  0  0  0  0  0
  182.5400  179.0030  142.8110 C   0  0  0  0  0  3  0  0  0  0  0  0
  181.6900  179.0340  141.7500 N   0  0  0  0  0  0  0  0  0  0  0  0
  183.8160  178.4490  142.6760 C   0  0  0  0  0  0  0  0  0  0  0  0
  184.1750  177.8780  141.4470 C   0  0  0  0  0  3  0  0  0  0  0  0
  188.4420  176.4450  137.3470 C   0  0  0  0  0  3  0  0  0  0  0  0
  189.5040  176.5770  138.2430 C   0  0  0  0  0  3  0  0  0  0  0  0
  188.1490  178.0130  139.6550 C   0  0  0  0  0  0  0  0  0  0  0  0
  189.3690  177.3610  139.4010 C   0  0  0  0  0  0  0  0  0  0  0  0
  187.0870  177.8780  138.7460 C   0  0  0  0  0  3  0  0  0  0  0  0
  187.2330  177.0960  137.5980 C   0  0  0  0  0  3  0  0  0  0  0  0
  190.4290  177.5030  140.3050 O   0  0  0  0  0  0  0  0  0  0  0  0
  191.7650  177.1310  139.9900 C   0  0  0  0  0  1  0  0  0  0  0  0
  1 15  2  0  0  0  0
  2 11  2  0  0  0  0
  3 12  2  0  0  0  0
  4  5  2  0  0  0  0
  5 10  1  0  0  0  0
  6  1  1  0  0  0  0
  6  4  1  1  0  0  0
  7  1  1  0  0  0  0
  8 25  1  6  0  0  0
  8 14  1  0  0  0  0
  8  3  1  0  0  0  0
  9 14  1  6  0  0  0
  9 12  1  0  0  0  0
  9 11  1  0  0  0  0
 10 13  1  1  0  0  0
 11  6  1  0  0  0  0
 12  7  1  0  0  0  0
 15 10  1  0  0  0  0
 16 20  1  0  0  0  0
 17 16  1  0  0  0  0
 17 22  1  0  0  0  0
 18 16  2  0  0  0  0
 20 19  2  0  0  0  0
 21 19  1  0  0  0  0
 21  2  1  0  0  0  0
 22 21  2  0  0  0  0
 23 28  2  0  0  0  0
 23 24  1  0  0  0  0
 24 26  2  0  0  0  0
 26 25  1  0  0  0  0
 26 29  1  0  0  0  0
 27 25  2  0  0  0  0
 28 27  1  0  0  0  0
 30 29  1  0  0  0  0
M  END
>  <MODEL>
9

>  <REMARK>
 VINA RESULT:      -8.3      1.245      1.455
  Name = 
  3 active torsions:
  status: ('A' for Active; 'I' for Inactive)
    1  A    between atoms: N_3  and  C_24
    2  A    between atoms: C_15  and  C_17
    3  A    between atoms: C_16  and  O_20
                            x       y       z     vdW  Elec       q    Type
                         _______ _______ _______ _____ _____    ______ ____

>  <TORSDO>
F 3

$$$$
