=
 OpenBabel10222418593D

 38 44  0  0  1  0  0  0  0  0999 V2000
  188.6170  176.7400  137.0950 S   0  0  0  0  0  0  0  0  0  0  0  0
  188.0700  178.6260  140.5010 C   0  0  2  0  0  3  0  0  0  0  0  0
  188.5310  177.7340  139.3860 C   0  0  0  0  0  0  0  0  0  0  0  0
  185.8350  178.4510  139.4670 N   0  0  0  0  0  0  0  0  0  0  0  0
  189.7580  177.1560  139.3190 N   0  0  0  0  0  0  0  0  0  0  0  0
  187.7530  177.6090  138.2470 C   0  0  0  0  0  0  0  0  0  0  0  0
  188.3390  178.0860  141.8180 N   0  0  0  0  0  0  0  0  0  0  0  0
  189.9440  176.5440  138.1240 C   0  0  0  0  0  0  0  0  0  0  0  0
  186.0840  178.3740  141.8360 N   0  0  0  0  0  0  0  0  0  0  0  0
  186.4250  178.3090  138.1280 C   0  0  1  0  0  3  0  0  0  0  0  0
  186.5700  178.6540  140.5280 C   0  0  0  0  0  0  0  0  0  0  0  0
  187.1120  178.0530  142.5540 C   0  0  0  0  0  3  0  0  0  0  0  0
  185.4720  177.5300  137.2410 C   0  0  0  0  0  1  0  0  0  0  0  0
  191.5300  176.2080  145.4100 C   0  0  0  0  0  2  0  0  0  0  0  0
  190.9480  177.4910  145.8380 N   0  0  0  0  0  0  0  0  0  0  0  0
  189.6280  177.8820  142.3450 N   0  0  2  0  0  0  0  0  0  0  0  0
  190.4370  175.7650  143.4030 C   0  0  2  0  0  3  0  0  0  0  0  0
  190.9890  177.9590  144.4300 C   0  0  1  0  0  3  0  0  0  0  0  0
  189.9880  176.4600  142.1240 C   0  0  2  0  0  3  0  0  0  0  0  0
  191.5740  176.6420  143.9730 C   0  0  1  0  0  0  0  0  0  0  0  0
  189.6220  178.2900  143.7650 C   0  0  0  0  0  2  0  0  0  0  0  0
  191.4570  176.2580  142.4870 C   0  0  1  0  0  3  0  0  0  0  0  0
  189.5970  177.2050  146.3200 C   0  0  0  0  0  2  0  0  0  0  0  0
  189.3900  177.8760  147.9980 S   0  0  0  0  0  0  0  0  0  0  0  0
  187.5780  177.7380  147.9300 C   0  0  0  0  0  2  0  0  0  0  0  0
  187.1210  177.8930  146.5580 N   0  0  0  0  0  2  0  0  0  0  0  0
  184.3850  178.0330  147.1890 O   0  0  0  0  0  0  0  0  0  0  0  0
  185.9500  180.0950  147.5080 O   0  0  0  0  0  1  0  0  0  0  0  0
  185.6990  178.9180  146.5940 P   0  0  1  0  0  0  0  0  0  0  0  0
  184.0290  179.1090  144.7870 C   0  0  0  0  0  1  0  0  0  0  0  0
  185.3490  179.4900  145.0360 O   0  0  0  0  0  0  0  0  0  0  0  0
  192.3660  176.2920  138.0720 C   0  0  0  0  0  3  0  0  0  0  0  0
  191.1630  175.8230  137.7570 C   0  0  0  0  0  3  0  0  0  0  0  0
  193.5980  175.5420  137.6940 C   0  0  1  0  0  3  0  0  0  0  0  0
  194.1180  176.0770  136.3740 C   0  0  0  0  0  1  0  0  0  0  0  0
  194.5760  175.7090  138.6780 O   0  0  0  0  0  0  0  0  0  0  0  0
  196.6170  174.8640  138.1190 O   0  0  0  0  0  1  0  0  0  0  0  0
  195.3520  174.5490  138.6170 C   0  0  0  0  0  2  0  0  0  0  0  0
  1  8  1  0  0  0  0
  1  6  1  0  0  0  0
  2  3  1  6  0  0  0
  2 11  1  0  0  0  0
  2  7  1  0  0  0  0
  4 11  2  0  0  0  0
  5  3  1  0  0  0  0
  6  3  2  0  0  0  0
  7 12  1  0  0  0  0
  8  5  2  0  0  0  0
  9 12  2  0  0  0  0
 10 13  1  6  0  0  0
 10  6  1  0  0  0  0
 10  4  1  0  0  0  0
 11  9  1  0  0  0  0
 14 15  1  0  0  0  0
 15 23  1  0  0  0  0
 16  7  1  1  0  0  0
 16 21  1  0  0  0  0
 17 20  1  0  0  0  0
 18 15  1  0  0  0  0
 19 16  1  0  0  0  0
 19 22  1  0  0  0  0
 19 17  1  0  0  0  0
 20 18  1  0  0  0  0
 20 14  1  0  0  0  0
 21 18  1  0  0  0  0
 22 17  1  0  0  0  0
 22 20  1  0  0  0  0
 23 24  1  0  0  0  0
 25 24  1  0  0  0  0
 26 29  1  0  0  0  0
 26 25  1  0  0  0  0
 29 27  2  0  0  0  0
 29 28  1  0  0  0  0
 30 31  1  0  0  0  0
 31 29  1  0  0  0  0
 33 32  2  0  0  0  0
 33  8  1  0  0  0  0
 34 32  1  0  0  0  0
 34 36  1  0  0  0  0
 35 34  1  0  0  0  0
 37 38  1  0  0  0  0
 38 36  1  0  0  0  0
M  END
>  <MODEL>
1

>  <REMARK>
 VINA RESULT:      -7.9      0.000      0.000
  Name = 
  11 active torsions:
  status: ('A' for Active; 'I' for Inactive)
    1  A    between atoms: N_6  and  C_8
    2  A    between atoms: C_8  and  S_29
    3  A    between atoms: N_11  and  N_18
    4  A    between atoms: C_13  and  N_15
    5  A    between atoms: C_13  and  S_29
    6  A    between atoms: N_15  and  P_20
    7  A    between atoms: P_20  and  O_24
    8  A    between atoms: C_21  and  C_22
    9  A    between atoms: C_22  and  O_26
   10  A    between atoms: C_23  and  C_38
   11  A    between atoms: O_26  and  C_32
                            x       y       z     vdW  Elec       q    Type
                         _______ _______ _______ _____ _____    ______ ____

>  <TORSDO>
F 11

$$$$
=
 OpenBabel10222418593D

 38 44  0  0  1  0  0  0  0  0999 V2000
  189.9780  177.0780  145.0950 S   0  0  0  0  0  0  0  0  0  0  0  0
  186.0650  177.4540  145.0920 C   0  0  2  0  0  3  0  0  0  0  0  0
  187.5230  177.3860  144.7460 C   0  0  0  0  0  0  0  0  0  0  0  0
  186.8160  178.2990  147.2870 N   0  0  0  0  0  0  0  0  0  0  0  0
  188.0090  177.1430  143.5020 N   0  0  0  0  0  0  0  0  0  0  0  0
  188.4650  177.3900  145.7610 C   0  0  0  0  0  0  0  0  0  0  0  0
  185.2960  178.2830  144.1840 N   0  0  0  0  0  0  0  0  0  0  0  0
  189.3540  176.9770  143.5280 C   0  0  0  0  0  0  0  0  0  0  0  0
  184.9190  179.2540  146.2050 N   0  0  0  0  0  0  0  0  0  0  0  0
  188.0560  177.5150  147.2050 C   0  0  1  0  0  3  0  0  0  0  0  0
  185.8910  178.2280  146.3660 C   0  0  0  0  0  0  0  0  0  0  0  0
  184.5950  179.2660  144.9520 C   0  0  0  0  0  3  0  0  0  0  0  0
  189.1350  178.1990  148.0230 C   0  0  0  0  0  1  0  0  0  0  0  0
  183.0080  179.1700  139.6480 C   0  0  0  0  0  2  0  0  0  0  0  0
  182.1410  178.3690  140.5290 N   0  0  0  0  0  0  0  0  0  0  0  0
  185.0890  177.9900  142.8240 N   0  0  2  0  0  0  0  0  0  0  0  0
  184.8260  179.6870  141.0050 C   0  0  2  0  0  3  0  0  0  0  0  0
  183.3480  177.6910  141.0680 C   0  0  1  0  0  3  0  0  0  0  0  0
  185.7580  179.0470  142.0260 C   0  0  2  0  0  3  0  0  0  0  0  0
  184.2510  178.5160  140.1790 C   0  0  1  0  0  0  0  0  0  0  0  0
  183.6350  177.8820  142.5850 C   0  0  0  0  0  2  0  0  0  0  0  0
  185.7390  178.6450  140.5530 C   0  0  1  0  0  3  0  0  0  0  0  0
  181.5220  179.2980  141.4730 C   0  0  0  0  0  2  0  0  0  0  0  0
  180.0230  178.5460  142.1780 S   0  0  0  0  0  0  0  0  0  0  0  0
  179.6790  177.5910  140.6700 C   0  0  0  0  0  2  0  0  0  0  0  0
  179.0320  176.3360  141.0160 N   0  0  0  0  0  2  0  0  0  0  0  0
  178.9310  175.3510  138.3850 O   0  0  0  0  0  0  0  0  0  0  0  0
  181.1320  175.2450  139.7810 O   0  0  0  0  0  1  0  0  0  0  0  0
  179.6310  175.1160  139.9080 P   0  0  1  0  0  0  0  0  0  0  0  0
  179.2380  173.6760  141.8730 C   0  0  0  0  0  1  0  0  0  0  0  0
  179.2530  173.5650  140.4820 O   0  0  0  0  0  0  0  0  0  0  0  0
  190.1350  177.5190  141.2850 C   0  0  0  0  0  3  0  0  0  0  0  0
  190.1670  176.7130  142.3400 C   0  0  0  0  0  3  0  0  0  0  0  0
  190.9740  177.2370  140.0850 C   0  0  1  0  0  3  0  0  0  0  0  0
  192.4270  177.5080  140.4210 C   0  0  0  0  0  1  0  0  0  0  0  0
  190.8270  175.9000  139.7060 O   0  0  0  0  0  0  0  0  0  0  0  0
  191.0820  174.5600  137.8810 O   0  0  0  0  0  1  0  0  0  0  0  0
  191.1040  175.8790  138.3380 C   0  0  0  0  0  2  0  0  0  0  0  0
  1  6  1  0  0  0  0
  2  3  1  6  0  0  0
  2 11  1  0  0  0  0
  3  6  2  0  0  0  0
  5  8  2  0  0  0  0
  5  3  1  0  0  0  0
  6 10  1  0  0  0  0
  7 12  1  0  0  0  0
  7  2  1  0  0  0  0
  8  1  1  0  0  0  0
  9 11  1  0  0  0  0
 10  4  1  0  0  0  0
 10 13  1  1  0  0  0
 11  4  2  0  0  0  0
 12  9  2  0  0  0  0
 14 20  1  0  0  0  0
 14 15  1  0  0  0  0
 15 18  1  0  0  0  0
 15 23  1  0  0  0  0
 16 21  1  1  0  0  0
 16  7  1  0  0  0  0
 17 19  1  0  0  0  0
 18 21  1  0  0  0  0
 19 16  1  0  0  0  0
 20 22  1  0  0  0  0
 20 17  1  0  0  0  0
 20 18  1  0  0  0  0
 22 17  1  0  0  0  0
 22 19  1  0  0  0  0
 23 24  1  0  0  0  0
 25 26  1  0  0  0  0
 25 24  1  0  0  0  0
 27 29  2  0  0  0  0
 28 29  1  0  0  0  0
 29 31  1  0  0  0  0
 29 26  1  0  0  0  0
 31 30  1  0  0  0  0
 32 33  2  0  0  0  0
 33  8  1  0  0  0  0
 34 35  1  0  0  0  0
 34 32  1  0  0  0  0
 36 34  1  0  0  0  0
 37 38  1  0  0  0  0
 38 36  1  0  0  0  0
M  END
>  <MODEL>
2

>  <REMARK>
 VINA RESULT:      -7.3      4.543      7.563
  Name = 
  11 active torsions:
  status: ('A' for Active; 'I' for Inactive)
    1  A    between atoms: N_6  and  C_8
    2  A    between atoms: C_8  and  S_29
    3  A    between atoms: N_11  and  N_18
    4  A    between atoms: C_13  and  N_15
    5  A    between atoms: C_13  and  S_29
    6  A    between atoms: N_15  and  P_20
    7  A    between atoms: P_20  and  O_24
    8  A    between atoms: C_21  and  C_22
    9  A    between atoms: C_22  and  O_26
   10  A    between atoms: C_23  and  C_38
   11  A    between atoms: O_26  and  C_32
                            x       y       z     vdW  Elec       q    Type
                         _______ _______ _______ _____ _____    ______ ____

>  <TORSDO>
F 11

$$$$
=
 OpenBabel10222418593D

 38 44  0  0  1  0  0  0  0  0999 V2000
  189.9950  177.1470  145.4120 S   0  0  0  0  0  0  0  0  0  0  0  0
  186.0860  177.4580  145.1370 C   0  0  2  0  0  3  0  0  0  0  0  0
  187.5650  177.4100  144.8920 C   0  0  0  0  0  0  0  0  0  0  0  0
  186.6710  178.3380  147.3680 N   0  0  0  0  0  0  0  0  0  0  0  0
  188.1390  177.1620  143.6870 N   0  0  0  0  0  0  0  0  0  0  0  0
  188.4360  177.4400  145.9690 C   0  0  0  0  0  0  0  0  0  0  0  0
  185.3690  178.2640  144.1690 N   0  0  0  0  0  0  0  0  0  0  0  0
  189.4810  177.0190  143.8070 C   0  0  0  0  0  0  0  0  0  0  0  0
  184.8390  179.2510  146.1480 N   0  0  0  0  0  0  0  0  0  0  0  0
  187.9270  177.5740  147.3810 C   0  0  1  0  0  3  0  0  0  0  0  0
  185.8140  178.2420  146.3880 C   0  0  0  0  0  0  0  0  0  0  0  0
  184.6010  179.2440  144.8760 C   0  0  0  0  0  3  0  0  0  0  0  0
  188.9370  178.2840  148.2620 C   0  0  0  0  0  1  0  0  0  0  0  0
  183.4390  179.1130  139.4620 C   0  0  0  0  0  2  0  0  0  0  0  0
  182.4980  178.3370  140.2870 N   0  0  0  0  0  0  0  0  0  0  0  0
  185.2600  177.9540  142.8020 N   0  0  2  0  0  0  0  0  0  0  0  0
  185.1570  179.6270  140.9440 C   0  0  2  0  0  3  0  0  0  0  0  0
  183.6500  177.6520  140.9250 C   0  0  1  0  0  3  0  0  0  0  0  0
  186.0020  178.9900  142.0420 C   0  0  2  0  0  3  0  0  0  0  0  0
  184.6290  178.4510  140.0940 C   0  0  1  0  0  0  0  0  0  0  0  0
  183.8260  177.8620  142.4550 C   0  0  0  0  0  2  0  0  0  0  0  0
  186.0870  178.5660  140.5770 C   0  0  1  0  0  3  0  0  0  0  0  0
  181.8220  179.2880  141.1690 C   0  0  0  0  0  2  0  0  0  0  0  0
  180.0830  178.8000  141.3790 S   0  0  0  0  0  0  0  0  0  0  0  0
  179.5480  179.7280  139.9090 C   0  0  0  0  0  2  0  0  0  0  0  0
  179.9890  181.1100  140.0090 N   0  0  0  0  0  2  0  0  0  0  0  0
  182.0250  182.2360  138.4310 O   0  0  0  0  0  1  0  0  0  0  0  0
  180.3930  180.4500  137.4540 O   0  0  0  0  0  0  0  0  0  0  0  0
  180.4450  181.6300  138.3980 P   0  0  1  0  0  0  0  0  0  0  0  0
  180.1890  183.9110  137.4910 C   0  0  0  0  0  1  0  0  0  0  0  0
  179.3800  182.8300  137.8450 O   0  0  0  0  0  0  0  0  0  0  0  0
  190.0700  177.1370  141.4460 C   0  0  0  0  0  3  0  0  0  0  0  0
  190.3780  176.7550  142.6800 C   0  0  0  0  0  3  0  0  0  0  0  0
  190.9970  176.8640  140.3100 C   0  0  1  0  0  3  0  0  0  0  0  0
  190.2990  177.2060  139.0080 C   0  0  0  0  0  1  0  0  0  0  0  0
  192.1480  177.6470  140.4380 O   0  0  0  0  0  0  0  0  0  0  0  0
  194.2710  176.9360  140.0170 O   0  0  0  0  0  1  0  0  0  0  0  0
  193.0170  177.1740  139.4530 C   0  0  0  0  0  2  0  0  0  0  0  0
  1  6  1  0  0  0  0
  2  3  1  6  0  0  0
  2 11  1  0  0  0  0
  3  6  2  0  0  0  0
  4 10  1  0  0  0  0
  5  8  2  0  0  0  0
  5  3  1  0  0  0  0
  6 10  1  0  0  0  0
  7 12  1  0  0  0  0
  7  2  1  0  0  0  0
  8  1  1  0  0  0  0
  9 11  1  0  0  0  0
 10 13  1  1  0  0  0
 11  4  2  0  0  0  0
 12  9  2  0  0  0  0
 14 20  1  0  0  0  0
 14 15  1  0  0  0  0
 15 18  1  0  0  0  0
 15 23  1  0  0  0  0
 16 21  1  6  0  0  0
 16  7  1  0  0  0  0
 17 19  1  0  0  0  0
 18 21  1  0  0  0  0
 19 16  1  0  0  0  0
 20 22  1  0  0  0  0
 20 18  1  0  0  0  0
 20 17  1  0  0  0  0
 22 17  1  0  0  0  0
 22 19  1  0  0  0  0
 23 24  1  0  0  0  0
 25 26  1  0  0  0  0
 25 24  1  0  0  0  0
 28 29  2  0  0  0  0
 29 27  1  0  0  0  0
 29 26  1  0  0  0  0
 30 31  1  0  0  0  0
 31 29  1  0  0  0  0
 32 33  2  0  0  0  0
 33  8  1  0  0  0  0
 34 36  1  0  0  0  0
 34 32  1  0  0  0  0
 35 34  1  0  0  0  0
 38 37  1  0  0  0  0
 38 36  1  0  0  0  0
M  END
>  <MODEL>
3

>  <REMARK>
 VINA RESULT:      -7.3      4.421      7.653
  Name = 
  11 active torsions:
  status: ('A' for Active; 'I' for Inactive)
    1  A    between atoms: N_6  and  C_8
    2  A    between atoms: C_8  and  S_29
    3  A    between atoms: N_11  and  N_18
    4  A    between atoms: C_13  and  N_15
    5  A    between atoms: C_13  and  S_29
    6  A    between atoms: N_15  and  P_20
    7  A    between atoms: P_20  and  O_24
    8  A    between atoms: C_21  and  C_22
    9  A    between atoms: C_22  and  O_26
   10  A    between atoms: C_23  and  C_38
   11  A    between atoms: O_26  and  C_32
                            x       y       z     vdW  Elec       q    Type
                         _______ _______ _______ _____ _____    ______ ____

>  <TORSDO>
F 11

$$$$
=
 OpenBabel10222418593D

 38 44  0  0  1  0  0  0  0  0999 V2000
  189.7690  177.6690  139.7610 S   0  0  0  0  0  0  0  0  0  0  0  0
  186.5610  178.2830  137.5740 C   0  0  2  0  0  3  0  0  0  0  0  0
  187.5460  177.9800  138.6640 C   0  0  0  0  0  0  0  0  0  0  0  0
  188.2350  177.3040  136.0450 N   0  0  0  0  0  0  0  0  0  0  0  0
  187.2790  178.0790  139.9920 N   0  0  0  0  0  0  0  0  0  0  0  0
  188.8730  177.7530  138.3400 C   0  0  0  0  0  0  0  0  0  0  0  0
  185.2680  177.6620  137.7780 N   0  0  0  0  0  0  0  0  0  0  0  0
  188.4030  177.9040  140.7290 C   0  0  0  0  0  0  0  0  0  0  0  0
  185.9150  176.8400  135.7590 N   0  0  0  0  0  0  0  0  0  0  0  0
  189.3380  177.7520  136.9080 C   0  0  1  0  0  3  0  0  0  0  0  0
  186.9890  177.5930  136.3110 C   0  0  0  0  0  0  0  0  0  0  0  0
  184.9440  176.8950  136.6140 C   0  0  0  0  0  3  0  0  0  0  0  0
  190.5280  176.8290  136.7190 C   0  0  0  0  0  1  0  0  0  0  0  0
  180.6740  179.1940  139.5540 C   0  0  0  0  0  2  0  0  0  0  0  0
  181.4920  180.3470  139.1400 N   0  0  0  0  0  0  0  0  0  0  0  0
  184.3910  177.9810  138.8310 N   0  0  2  0  0  0  0  0  0  0  0  0
  181.9690  177.3640  138.9310 C   0  0  2  0  0  3  0  0  0  0  0  0
  182.7040  179.6350  139.6190 C   0  0  1  0  0  3  0  0  0  0  0  0
  183.4120  176.8730  138.9560 C   0  0  2  0  0  3  0  0  0  0  0  0
  181.8780  178.4380  140.0360 C   0  0  1  0  0  0  0  0  0  0  0  0
  183.7820  179.2970  138.5500 C   0  0  0  0  0  2  0  0  0  0  0  0
  182.5840  177.0830  140.2220 C   0  0  1  0  0  3  0  0  0  0  0  0
  181.4010  180.4310  137.6830 C   0  0  0  0  0  2  0  0  0  0  0  0
  179.6540  180.4930  137.1810 S   0  0  0  0  0  0  0  0  0  0  0  0
  179.8330  182.1360  136.4230 C   0  0  0  0  0  2  0  0  0  0  0  0
  179.9340  183.1510  137.4590 N   0  0  0  0  0  2  0  0  0  0  0  0
  182.2460  184.7470  137.5300 O   0  0  0  0  0  1  0  0  0  0  0  0
  180.9970  184.2820  135.2880 O   0  0  0  0  0  0  0  0  0  0  0  0
  180.7550  184.5330  136.7590 P   0  0  1  0  0  0  0  0  0  0  0  0
  179.1570  185.7840  138.1610 C   0  0  0  0  0  1  0  0  0  0  0  0
  179.8100  185.9290  136.9360 O   0  0  0  0  0  0  0  0  0  0  0  0
  189.5740  177.8250  142.8630 C   0  0  0  0  0  3  0  0  0  0  0  0
  188.4340  177.9420  142.1910 C   0  0  0  0  0  3  0  0  0  0  0  0
  189.5890  177.8720  144.3540 C   0  0  1  0  0  3  0  0  0  0  0  0
  188.1940  177.5780  144.8720 C   0  0  0  0  0  1  0  0  0  0  0  0
  190.4780  176.9150  144.8500 O   0  0  0  0  0  0  0  0  0  0  0  0
  191.7780  176.9520  146.7210 O   0  0  0  0  0  1  0  0  0  0  0  0
  190.4790  177.1060  146.2330 C   0  0  0  0  0  2  0  0  0  0  0  0
  1  8  1  0  0  0  0
  2 11  1  6  0  0  0
  2  7  1  0  0  0  0
  2  3  1  0  0  0  0
  3  5  1  0  0  0  0
  4 11  2  0  0  0  0
  4 10  1  0  0  0  0
  5  8  2  0  0  0  0
  6  3  2  0  0  0  0
  6  1  1  0  0  0  0
  8 33  1  0  0  0  0
  9 11  1  0  0  0  0
  9 12  2  0  0  0  0
 10 13  1  1  0  0  0
 10  6  1  0  0  0  0
 12  7  1  0  0  0  0
 14 20  1  0  0  0  0
 15 14  1  0  0  0  0
 15 18  1  0  0  0  0
 16  7  1  6  0  0  0
 16 19  1  0  0  0  0
 17 19  1  0  0  0  0
 17 20  1  0  0  0  0
 17 22  1  0  0  0  0
 18 20  1  0  0  0  0
 19 22  1  0  0  0  0
 20 22  1  0  0  0  0
 21 16  1  0  0  0  0
 21 18  1  0  0  0  0
 23 15  1  0  0  0  0
 24 23  1  0  0  0  0
 25 24  1  0  0  0  0
 25 26  1  0  0  0  0
 28 29  2  0  0  0  0
 29 31  1  0  0  0  0
 29 26  1  0  0  0  0
 29 27  1  0  0  0  0
 31 30  1  0  0  0  0
 32 34  1  0  0  0  0
 33 32  2  0  0  0  0
 34 36  1  0  0  0  0
 34 35  1  0  0  0  0
 36 38  1  0  0  0  0
 38 37  1  0  0  0  0
M  END
>  <MODEL>
4

>  <REMARK>
 VINA RESULT:      -6.9      5.500      8.938
  Name = 
  11 active torsions:
  status: ('A' for Active; 'I' for Inactive)
    1  A    between atoms: N_6  and  C_8
    2  A    between atoms: C_8  and  S_29
    3  A    between atoms: N_11  and  N_18
    4  A    between atoms: C_13  and  N_15
    5  A    between atoms: C_13  and  S_29
    6  A    between atoms: N_15  and  P_20
    7  A    between atoms: P_20  and  O_24
    8  A    between atoms: C_21  and  C_22
    9  A    between atoms: C_22  and  O_26
   10  A    between atoms: C_23  and  C_38
   11  A    between atoms: O_26  and  C_32
                            x       y       z     vdW  Elec       q    Type
                         _______ _______ _______ _____ _____    ______ ____

>  <TORSDO>
F 11

$$$$
=
 OpenBabel10222418593D

 38 44  0  0  1  0  0  0  0  0999 V2000
  184.6190  178.4180  143.3710 S   0  0  0  0  0  0  0  0  0  0  0  0
  188.1760  178.6180  141.7100 C   0  0  2  0  0  3  0  0  0  0  0  0
  186.7100  178.5050  142.0060 C   0  0  0  0  0  0  0  0  0  0  0  0
  188.5110  177.4740  143.8720 N   0  0  0  0  0  0  0  0  0  0  0  0
  185.7210  178.7890  141.1190 N   0  0  0  0  0  0  0  0  0  0  0  0
  186.2930  178.2700  143.3060 C   0  0  0  0  0  0  0  0  0  0  0  0
  188.5600  177.9980  140.4580 N   0  0  0  0  0  0  0  0  0  0  0  0
  184.5060  178.7530  141.7180 C   0  0  0  0  0  0  0  0  0  0  0  0
  189.8490  176.9090  141.9820 N   0  0  0  0  0  0  0  0  0  0  0  0
  187.2860  178.0730  144.4200 C   0  0  1  0  0  3  0  0  0  0  0  0
  188.9460  177.7640  142.6750 C   0  0  0  0  0  0  0  0  0  0  0  0
  189.6100  177.0610  140.7190 C   0  0  0  0  0  3  0  0  0  0  0  0
  186.7250  177.1660  145.5000 C   0  0  0  0  0  1  0  0  0  0  0  0
  188.0920  177.3810  135.3580 C   0  0  0  0  0  2  0  0  0  0  0  0
  189.4330  177.8790  135.7090 N   0  0  0  0  0  0  0  0  0  0  0  0
  188.1420  178.4420  139.1900 N   0  0  2  0  0  0  0  0  0  0  0  0
  187.0980  177.0060  137.4280 C   0  0  2  0  0  3  0  0  0  0  0  0
  188.8290  178.6760  136.8070 C   0  0  1  0  0  3  0  0  0  0  0  0
  186.9500  177.6480  138.8020 C   0  0  2  0  0  3  0  0  0  0  0  0
  187.4480  178.1620  136.4670 C   0  0  1  0  0  0  0  0  0  0  0  0
  189.2780  178.3220  138.2540 C   0  0  0  0  0  2  0  0  0  0  0  0
  186.3440  178.2480  137.5360 C   0  0  1  0  0  3  0  0  0  0  0  0
  190.2040  176.7280  136.1780 C   0  0  0  0  0  2  0  0  0  0  0  0
  190.3020  175.4790  134.8600 S   0  0  0  0  0  0  0  0  0  0  0  0
  191.9360  174.8960  135.4060 C   0  0  0  0  0  2  0  0  0  0  0  0
  192.7960  176.0320  135.6920 N   0  0  0  0  0  2  0  0  0  0  0  0
  193.5540  176.7600  138.2990 O   0  0  0  0  0  1  0  0  0  0  0  0
  193.3540  174.2550  137.6030 O   0  0  0  0  0  0  0  0  0  0  0  0
  193.7790  175.6080  137.0810 P   0  0  1  0  0  0  0  0  0  0  0  0
  195.7900  174.2080  136.7910 C   0  0  0  0  0  1  0  0  0  0  0  0
  195.4170  175.5440  136.6440 O   0  0  0  0  0  0  0  0  0  0  0  0
  182.1500  178.3040  141.2910 C   0  0  0  0  0  3  0  0  0  0  0  0
  183.2450  179.0060  141.0190 C   0  0  0  0  0  3  0  0  0  0  0  0
  180.8720  178.5770  140.5730 C   0  0  1  0  0  3  0  0  0  0  0  0
  180.5030  177.3640  139.7410 C   0  0  0  0  0  1  0  0  0  0  0  0
  179.8540  178.8320  141.4960 O   0  0  0  0  0  0  0  0  0  0  0  0
  180.0500  180.8730  142.4890 O   0  0  0  0  0  1  0  0  0  0  0  0
  179.5800  180.1950  141.3630 C   0  0  0  0  0  2  0  0  0  0  0  0
  2  3  1  1  0  0  0
  2 11  1  0  0  0  0
  3  6  2  0  0  0  0
  4 10  1  0  0  0  0
  5  8  2  0  0  0  0
  5  3  1  0  0  0  0
  6  1  1  0  0  0  0
  6 10  1  0  0  0  0
  7 12  1  0  0  0  0
  7  2  1  0  0  0  0
  8  1  1  0  0  0  0
  9 11  1  0  0  0  0
 10 13  1  1  0  0  0
 11  4  2  0  0  0  0
 12  9  2  0  0  0  0
 14 15  1  0  0  0  0
 14 20  1  0  0  0  0
 15 23  1  0  0  0  0
 15 18  1  0  0  0  0
 16 21  1  6  0  0  0
 16  7  1  0  0  0  0
 17 22  1  0  0  0  0
 17 19  1  0  0  0  0
 18 21  1  0  0  0  0
 19 16  1  0  0  0  0
 20 18  1  0  0  0  0
 20 17  1  0  0  0  0
 20 22  1  0  0  0  0
 22 19  1  0  0  0  0
 24 25  1  0  0  0  0
 24 23  1  0  0  0  0
 25 26  1  0  0  0  0
 26 29  1  0  0  0  0
 29 28  2  0  0  0  0
 29 27  1  0  0  0  0
 31 30  1  0  0  0  0
 31 29  1  0  0  0  0
 33 32  2  0  0  0  0
 33  8  1  0  0  0  0
 34 32  1  0  0  0  0
 34 36  1  0  0  0  0
 35 34  1  0  0  0  0
 38 36  1  0  0  0  0
 38 37  1  0  0  0  0
M  END
>  <MODEL>
5

>  <REMARK>
 VINA RESULT:      -6.6      3.770     10.074
  Name = 
  11 active torsions:
  status: ('A' for Active; 'I' for Inactive)
    1  A    between atoms: N_6  and  C_8
    2  A    between atoms: C_8  and  S_29
    3  A    between atoms: N_11  and  N_18
    4  A    between atoms: C_13  and  N_15
    5  A    between atoms: C_13  and  S_29
    6  A    between atoms: N_15  and  P_20
    7  A    between atoms: P_20  and  O_24
    8  A    between atoms: C_21  and  C_22
    9  A    between atoms: C_22  and  O_26
   10  A    between atoms: C_23  and  C_38
   11  A    between atoms: O_26  and  C_32
                            x       y       z     vdW  Elec       q    Type
                         _______ _______ _______ _____ _____    ______ ____

>  <TORSDO>
F 11

$$$$
=
 OpenBabel10222418593D

 38 44  0  0  1  0  0  0  0  0999 V2000
  189.6290  177.2070  141.3810 S   0  0  0  0  0  0  0  0  0  0  0  0
  187.0480  178.5770  138.7500 C   0  0  2  0  0  3  0  0  0  0  0  0
  187.7450  178.0380  139.9640 C   0  0  0  0  0  0  0  0  0  0  0  0
  188.6940  177.2690  137.4550 N   0  0  0  0  0  0  0  0  0  0  0  0
  187.2890  178.1710  141.2360 N   0  0  0  0  0  0  0  0  0  0  0  0
  189.0240  177.5200  139.8430 C   0  0  0  0  0  0  0  0  0  0  0  0
  185.6340  178.2640  138.7120 N   0  0  0  0  0  0  0  0  0  0  0  0
  188.2070  177.7300  142.1310 C   0  0  0  0  0  0  0  0  0  0  0  0
  186.4100  177.3520  136.7790 N   0  0  0  0  0  0  0  0  0  0  0  0
  189.7090  177.4380  138.5040 C   0  0  1  0  0  3  0  0  0  0  0  0
  187.5170  177.8300  137.5350 C   0  0  0  0  0  0  0  0  0  0  0  0
  185.3470  177.6110  137.4710 C   0  0  0  0  0  3  0  0  0  0  0  0
  190.6790  176.2720  138.4550 C   0  0  0  0  0  1  0  0  0  0  0  0
  180.7680  179.1640  140.1680 C   0  0  0  0  0  2  0  0  0  0  0  0
  181.2450  180.2080  139.2460 N   0  0  0  0  0  0  0  0  0  0  0  0
  184.6860  178.7550  139.6290 N   0  0  2  0  0  0  0  0  0  0  0  0
  182.5250  177.6380  140.2110 C   0  0  2  0  0  3  0  0  0  0  0  0
  182.5980  180.0950  139.8470 C   0  0  1  0  0  3  0  0  0  0  0  0
  184.0460  177.5900  140.2870 C   0  0  2  0  0  3  0  0  0  0  0  0
  182.1260  179.0120  140.7910 C   0  0  1  0  0  0  0  0  0  0  0  0
  183.7440  179.6320  138.9040 C   0  0  0  0  0  2  0  0  0  0  0  0
  183.1730  178.0870  141.4370 C   0  0  1  0  0  3  0  0  0  0  0  0
  181.1580  179.6530  137.8950 C   0  0  0  0  0  2  0  0  0  0  0  0
  179.4270  179.6690  137.3370 S   0  0  0  0  0  0  0  0  0  0  0  0
  179.7290  180.9980  136.1340 C   0  0  0  0  0  2  0  0  0  0  0  0
  180.8570  181.8080  136.5660 N   0  0  0  0  0  2  0  0  0  0  0  0
  179.4040  183.1090  138.5910 O   0  0  0  0  0  1  0  0  0  0  0  0
  181.3530  184.3130  137.3430 O   0  0  0  0  0  0  0  0  0  0  0  0
  180.2160  183.3420  137.1240 P   0  0  1  0  0  0  0  0  0  0  0  0
  178.9310  185.3070  136.3660 C   0  0  0  0  0  1  0  0  0  0  0  0
  179.1500  183.9860  135.9730 O   0  0  0  0  0  0  0  0  0  0  0  0
  186.7830  177.7560  144.1070 C   0  0  0  0  0  3  0  0  0  0  0  0
  188.0020  177.7340  143.5800 C   0  0  0  0  0  3  0  0  0  0  0  0
  186.5920  177.7550  145.5860 C   0  0  1  0  0  3  0  0  0  0  0  0
  187.9430  177.6190  146.2600 C   0  0  0  0  0  1  0  0  0  0  0  0
  185.9920  178.9520  145.9880 O   0  0  0  0  0  0  0  0  0  0  0  0
  183.7280  179.0030  145.7410 O   0  0  0  0  0  1  0  0  0  0  0  0
  184.9490  179.1560  145.0830 C   0  0  0  0  0  2  0  0  0  0  0  0
  1  8  1  0  0  0  0
  2 11  1  6  0  0  0
  2  3  1  0  0  0  0
  3  5  1  0  0  0  0
  4 11  2  0  0  0  0
  4 10  1  0  0  0  0
  5  8  2  0  0  0  0
  6  3  2  0  0  0  0
  6  1  1  0  0  0  0
  7  2  1  0  0  0  0
  8 33  1  0  0  0  0
  9 12  2  0  0  0  0
  9 11  1  0  0  0  0
 10 13  1  1  0  0  0
 10  6  1  0  0  0  0
 12  7  1  0  0  0  0
 14 20  1  0  0  0  0
 15 18  1  0  0  0  0
 15 14  1  0  0  0  0
 16  7  1  6  0  0  0
 16 19  1  0  0  0  0
 17 19  1  0  0  0  0
 17 20  1  0  0  0  0
 17 22  1  0  0  0  0
 18 20  1  0  0  0  0
 19 22  1  0  0  0  0
 20 22  1  0  0  0  0
 21 16  1  0  0  0  0
 21 18  1  0  0  0  0
 23 15  1  0  0  0  0
 24 23  1  0  0  0  0
 25 26  1  0  0  0  0
 25 24  1  0  0  0  0
 26 29  1  0  0  0  0
 29 28  2  0  0  0  0
 29 27  1  0  0  0  0
 31 30  1  0  0  0  0
 31 29  1  0  0  0  0
 32 34  1  0  0  0  0
 33 32  2  0  0  0  0
 34 36  1  0  0  0  0
 34 35  1  0  0  0  0
 38 37  1  0  0  0  0
 38 36  1  0  0  0  0
M  END
>  <MODEL>
6

>  <REMARK>
 VINA RESULT:      -6.6      5.087      9.338
  Name = 
  11 active torsions:
  status: ('A' for Active; 'I' for Inactive)
    1  A    between atoms: N_6  and  C_8
    2  A    between atoms: C_8  and  S_29
    3  A    between atoms: N_11  and  N_18
    4  A    between atoms: C_13  and  N_15
    5  A    between atoms: C_13  and  S_29
    6  A    between atoms: N_15  and  P_20
    7  A    between atoms: P_20  and  O_24
    8  A    between atoms: C_21  and  C_22
    9  A    between atoms: C_22  and  O_26
   10  A    between atoms: C_23  and  C_38
   11  A    between atoms: O_26  and  C_32
                            x       y       z     vdW  Elec       q    Type
                         _______ _______ _______ _____ _____    ______ ____

>  <TORSDO>
F 11

$$$$
=
 OpenBabel10222418593D

 38 44  0  0  1  0  0  0  0  0999 V2000
  189.8600  177.2380  141.5860 S   0  0  0  0  0  0  0  0  0  0  0  0
  187.4190  178.5390  138.7920 C   0  0  2  0  0  3  0  0  0  0  0  0
  188.0530  178.0390  140.0560 C   0  0  0  0  0  0  0  0  0  0  0  0
  189.0980  177.1560  137.6220 N   0  0  0  0  0  0  0  0  0  0  0  0
  187.5450  178.2290  141.3000 N   0  0  0  0  0  0  0  0  0  0  0  0
  189.3280  177.4970  140.0110 C   0  0  0  0  0  0  0  0  0  0  0  0
  186.0030  178.2450  138.7040 N   0  0  0  0  0  0  0  0  0  0  0  0
  188.4160  177.8120  142.2510 C   0  0  0  0  0  0  0  0  0  0  0  0
  186.8470  177.2460  136.8440 N   0  0  0  0  0  0  0  0  0  0  0  0
  190.0690  177.3520  138.7080 C   0  0  1  0  0  3  0  0  0  0  0  0
  187.9280  177.7370  137.6290 C   0  0  0  0  0  0  0  0  0  0  0  0
  185.7590  177.5480  137.4780 C   0  0  0  0  0  3  0  0  0  0  0  0
  191.0200  176.1710  138.7480 C   0  0  0  0  0  1  0  0  0  0  0  0
  181.1210  178.6900  140.3090 C   0  0  0  0  0  2  0  0  0  0  0  0
  181.3710  179.5430  139.1350 N   0  0  0  0  0  0  0  0  0  0  0  0
  185.0250  178.7870  139.5580 N   0  0  2  0  0  0  0  0  0  0  0  0
  183.1150  177.5170  140.5570 C   0  0  2  0  0  3  0  0  0  0  0  0
  182.7470  179.7940  139.6330 C   0  0  1  0  0  3  0  0  0  0  0  0
  184.6240  177.7280  140.5170 C   0  0  2  0  0  3  0  0  0  0  0  0
  182.5100  178.9090  140.8360 C   0  0  1  0  0  0  0  0  0  0  0  0
  183.9150  179.3040  138.7300 C   0  0  0  0  0  2  0  0  0  0  0  0
  183.7270  178.3430  141.5890 C   0  0  1  0  0  3  0  0  0  0  0  0
  181.3240  178.6730  137.9600 C   0  0  0  0  0  2  0  0  0  0  0  0
  180.1420  177.3200  138.2470 S   0  0  0  0  0  0  0  0  0  0  0  0
  180.6880  176.4060  136.7740 C   0  0  0  0  0  2  0  0  0  0  0  0
  180.6770  174.9770  137.0460 N   0  0  0  0  0  2  0  0  0  0  0  0
  183.2240  174.9200  138.2340 O   0  0  0  0  0  1  0  0  0  0  0  0
  182.3330  172.8920  136.8570 O   0  0  0  0  0  0  0  0  0  0  0  0
  182.3270  174.4030  136.8950 P   0  0  1  0  0  0  0  0  0  0  0  0
  184.3830  174.6790  135.5600 C   0  0  0  0  0  1  0  0  0  0  0  0
  183.0280  174.9980  135.4700 O   0  0  0  0  0  0  0  0  0  0  0  0
  186.9330  177.6550  144.1770 C   0  0  0  0  0  3  0  0  0  0  0  0
  188.1480  177.8770  143.6890 C   0  0  0  0  0  3  0  0  0  0  0  0
  186.6780  177.7210  145.6450 C   0  0  1  0  0  3  0  0  0  0  0  0
  188.0000  177.6270  146.3820 C   0  0  0  0  0  1  0  0  0  0  0  0
  186.0540  178.9300  145.9650 O   0  0  0  0  0  0  0  0  0  0  0  0
  183.7800  179.0030  145.8440 O   0  0  0  0  0  1  0  0  0  0  0  0
  184.9620  179.0130  145.1000 C   0  0  0  0  0  2  0  0  0  0  0  0
  1  8  1  0  0  0  0
  2 11  1  6  0  0  0
  2  3  1  0  0  0  0
  3  5  1  0  0  0  0
  4 11  2  0  0  0  0
  4 10  1  0  0  0  0
  5  8  2  0  0  0  0
  6  3  2  0  0  0  0
  6  1  1  0  0  0  0
  7  2  1  0  0  0  0
  8 33  1  0  0  0  0
  9 12  2  0  0  0  0
  9 11  1  0  0  0  0
 10 13  1  1  0  0  0
 10  6  1  0  0  0  0
 12  7  1  0  0  0  0
 14 20  1  0  0  0  0
 15 18  1  0  0  0  0
 15 14  1  0  0  0  0
 16  7  1  6  0  0  0
 16 19  1  0  0  0  0
 17 20  1  0  0  0  0
 17 22  1  0  0  0  0
 18 20  1  0  0  0  0
 19 17  1  0  0  0  0
 19 22  1  0  0  0  0
 20 22  1  0  0  0  0
 21 16  1  0  0  0  0
 21 18  1  0  0  0  0
 23 24  1  0  0  0  0
 23 15  1  0  0  0  0
 25 26  1  0  0  0  0
 25 24  1  0  0  0  0
 28 29  2  0  0  0  0
 29 26  1  0  0  0  0
 29 27  1  0  0  0  0
 31 30  1  0  0  0  0
 31 29  1  0  0  0  0
 32 34  1  0  0  0  0
 33 32  2  0  0  0  0
 34 36  1  0  0  0  0
 34 35  1  0  0  0  0
 38 37  1  0  0  0  0
 38 36  1  0  0  0  0
M  END
>  <MODEL>
7

>  <REMARK>
 VINA RESULT:      -6.6      4.559      9.042
  Name = 
  11 active torsions:
  status: ('A' for Active; 'I' for Inactive)
    1  A    between atoms: N_6  and  C_8
    2  A    between atoms: C_8  and  S_29
    3  A    between atoms: N_11  and  N_18
    4  A    between atoms: C_13  and  N_15
    5  A    between atoms: C_13  and  S_29
    6  A    between atoms: N_15  and  P_20
    7  A    between atoms: P_20  and  O_24
    8  A    between atoms: C_21  and  C_22
    9  A    between atoms: C_22  and  O_26
   10  A    between atoms: C_23  and  C_38
   11  A    between atoms: O_26  and  C_32
                            x       y       z     vdW  Elec       q    Type
                         _______ _______ _______ _____ _____    ______ ____

>  <TORSDO>
F 11

$$$$
=
 OpenBabel10222418593D

 38 44  0  0  1  0  0  0  0  0999 V2000
  184.6140  178.6520  142.9070 S   0  0  0  0  0  0  0  0  0  0  0  0
  188.3090  178.5220  141.5720 C   0  0  2  0  0  3  0  0  0  0  0  0
  186.8190  178.5220  141.7370 C   0  0  0  0  0  0  0  0  0  0  0  0
  188.3710  177.4850  143.8120 N   0  0  0  0  0  0  0  0  0  0  0  0
  185.9340  178.8180  140.7500 N   0  0  0  0  0  0  0  0  0  0  0  0
  186.2730  178.3910  143.0040 C   0  0  0  0  0  0  0  0  0  0  0  0
  188.7570  177.8060  140.3940 N   0  0  0  0  0  0  0  0  0  0  0  0
  184.6710  178.8980  141.2350 C   0  0  0  0  0  0  0  0  0  0  0  0
  189.8270  176.7250  142.0850 N   0  0  0  0  0  0  0  0  0  0  0  0
  187.1470  178.1940  144.2140 C   0  0  1  0  0  3  0  0  0  0  0  0
  188.9290  177.6760  142.6460 C   0  0  0  0  0  0  0  0  0  0  0  0
  189.7110  176.8180  140.7990 C   0  0  0  0  0  3  0  0  0  0  0  0
  186.4310  177.3900  145.2830 C   0  0  0  0  0  1  0  0  0  0  0  0
  188.5080  176.8570  135.3310 C   0  0  0  0  0  2  0  0  0  0  0  0
  189.8840  177.1860  135.7400 N   0  0  0  0  0  0  0  0  0  0  0  0
  188.4850  178.2020  139.0720 N   0  0  2  0  0  0  0  0  0  0  0  0
  187.3480  176.7930  137.3460 C   0  0  2  0  0  3  0  0  0  0  0  0
  189.3400  178.1450  136.7330 C   0  0  1  0  0  3  0  0  0  0  0  0
  187.2150  177.5570  138.6580 C   0  0  2  0  0  3  0  0  0  0  0  0
  187.9210  177.8070  136.3330 C   0  0  1  0  0  0  0  0  0  0  0  0
  189.6450  177.8480  138.2290 C   0  0  0  0  0  2  0  0  0  0  0  0
  186.7800  178.1340  137.3130 C   0  0  1  0  0  3  0  0  0  0  0  0
  190.4480  175.9780  136.3410 C   0  0  0  0  0  2  0  0  0  0  0  0
  192.2040  175.8300  135.8890 S   0  0  0  0  0  0  0  0  0  0  0  0
  192.6460  175.0670  137.4790 C   0  0  0  0  0  2  0  0  0  0  0  0
  193.9100  175.6080  137.9520 N   0  0  0  0  0  2  0  0  0  0  0  0
  195.5600  173.6490  139.1110 O   0  0  0  0  0  1  0  0  0  0  0  0
  194.5990  173.3510  136.7050 O   0  0  0  0  0  0  0  0  0  0  0  0
  195.1420  174.3970  137.6520 P   0  0  1  0  0  0  0  0  0  0  0  0
  196.0910  175.6140  135.7270 C   0  0  0  0  0  1  0  0  0  0  0  0
  196.5140  175.1140  136.9590 O   0  0  0  0  0  0  0  0  0  0  0  0
  183.6050  179.4140  139.1070 C   0  0  0  0  0  3  0  0  0  0  0  0
  183.4980  179.1910  140.4120 C   0  0  0  0  0  3  0  0  0  0  0  0
  182.3980  179.7080  138.2820 C   0  0  1  0  0  3  0  0  0  0  0  0
  181.8690  178.4110  137.7000 C   0  0  0  0  0  1  0  0  0  0  0  0
  181.4100  180.2950  139.0760 O   0  0  0  0  0  0  0  0  0  0  0  0
  181.5630  182.3980  138.2130 O   0  0  0  0  0  1  0  0  0  0  0  0
  180.7920  181.2350  138.2490 C   0  0  0  0  0  2  0  0  0  0  0  0
  1  6  1  0  0  0  0
  2  3  1  1  0  0  0
  2 11  1  0  0  0  0
  3  6  2  0  0  0  0
  4 10  1  0  0  0  0
  5  8  2  0  0  0  0
  5  3  1  0  0  0  0
  6 10  1  0  0  0  0
  7 12  1  0  0  0  0
  7  2  1  0  0  0  0
  8  1  1  0  0  0  0
  9 11  1  0  0  0  0
 10 13  1  1  0  0  0
 11  4  2  0  0  0  0
 12  9  2  0  0  0  0
 14 15  1  0  0  0  0
 14 20  1  0  0  0  0
 15 23  1  0  0  0  0
 15 18  1  0  0  0  0
 16 21  1  6  0  0  0
 16  7  1  0  0  0  0
 17 19  1  0  0  0  0
 18 21  1  0  0  0  0
 19 16  1  0  0  0  0
 20 18  1  0  0  0  0
 20 22  1  0  0  0  0
 20 17  1  0  0  0  0
 22 17  1  0  0  0  0
 22 19  1  0  0  0  0
 24 23  1  0  0  0  0
 24 25  1  0  0  0  0
 25 26  1  0  0  0  0
 28 29  2  0  0  0  0
 29 26  1  0  0  0  0
 29 27  1  0  0  0  0
 30 31  1  0  0  0  0
 31 29  1  0  0  0  0
 32 33  2  0  0  0  0
 33  8  1  0  0  0  0
 34 36  1  0  0  0  0
 34 32  1  0  0  0  0
 35 34  1  0  0  0  0
 37 38  1  0  0  0  0
 38 36  1  0  0  0  0
M  END
>  <MODEL>
8

>  <REMARK>
 VINA RESULT:      -6.5      4.048      9.798
  Name = 
  11 active torsions:
  status: ('A' for Active; 'I' for Inactive)
    1  A    between atoms: N_6  and  C_8
    2  A    between atoms: C_8  and  S_29
    3  A    between atoms: N_11  and  N_18
    4  A    between atoms: C_13  and  N_15
    5  A    between atoms: C_13  and  S_29
    6  A    between atoms: N_15  and  P_20
    7  A    between atoms: P_20  and  O_24
    8  A    between atoms: C_21  and  C_22
    9  A    between atoms: C_22  and  O_26
   10  A    between atoms: C_23  and  C_38
   11  A    between atoms: O_26  and  C_32
                            x       y       z     vdW  Elec       q    Type
                         _______ _______ _______ _____ _____    ______ ____

>  <TORSDO>
F 11

$$$$
=
 OpenBabel10222418593D

 38 44  0  0  1  0  0  0  0  0999 V2000
  184.7920  178.3570  143.3270 S   0  0  0  0  0  0  0  0  0  0  0  0
  188.2100  178.5830  141.3990 C   0  0  2  0  0  3  0  0  0  0  0  0
  186.7730  178.4540  141.8070 C   0  0  0  0  0  0  0  0  0  0  0  0
  188.7230  177.4670  143.5420 N   0  0  0  0  0  0  0  0  0  0  0  0
  185.7160  178.7150  140.9950 N   0  0  0  0  0  0  0  0  0  0  0  0
  186.4580  178.2290  143.1370 C   0  0  0  0  0  0  0  0  0  0  0  0
  188.5070  177.9530  140.1280 N   0  0  0  0  0  0  0  0  0  0  0  0
  184.5500  178.6720  141.6840 C   0  0  0  0  0  0  0  0  0  0  0  0
  189.9220  176.8980  141.5620 N   0  0  0  0  0  0  0  0  0  0  0  0
  187.5350  178.0570  144.1750 C   0  0  1  0  0  3  0  0  0  0  0  0
  189.0620  177.7490  142.3120 C   0  0  0  0  0  0  0  0  0  0  0  0
  189.5860  177.0320  140.3190 C   0  0  0  0  0  3  0  0  0  0  0  0
  187.0700  177.1560  145.3040 C   0  0  0  0  0  1  0  0  0  0  0  0
  187.8140  177.3590  135.0520 C   0  0  0  0  0  2  0  0  0  0  0  0
  189.1290  177.9550  135.3390 N   0  0  0  0  0  0  0  0  0  0  0  0
  187.9880  178.3770  138.8910 N   0  0  2  0  0  0  0  0  0  0  0  0
  186.9640  176.8840  137.1650 C   0  0  2  0  0  3  0  0  0  0  0  0
  188.5260  178.6910  136.4800 C   0  0  1  0  0  3  0  0  0  0  0  0
  186.8420  177.4980  138.5550 C   0  0  2  0  0  3  0  0  0  0  0  0
  187.1720  178.0750  136.2050 C   0  0  1  0  0  0  0  0  0  0  0  0
  189.0780  178.3570  137.8950 C   0  0  0  0  0  2  0  0  0  0  0  0
  186.1240  178.0630  137.3320 C   0  0  1  0  0  3  0  0  0  0  0  0
  190.0100  176.8620  135.7490 C   0  0  0  0  0  2  0  0  0  0  0  0
  189.7270  175.4150  134.6840 S   0  0  0  0  0  0  0  0  0  0  0  0
  191.0350  174.4460  135.4950 C   0  0  0  0  0  2  0  0  0  0  0  0
  192.2360  175.2550  135.6330 N   0  0  0  0  0  2  0  0  0  0  0  0
  191.4220  174.8480  138.2920 O   0  0  0  0  0  1  0  0  0  0  0  0
  193.7210  173.9630  137.4360 O   0  0  0  0  0  0  0  0  0  0  0  0
  192.7640  175.1250  137.3000 P   0  0  1  0  0  0  0  0  0  0  0  0
  193.0660  176.8300  139.0580 C   0  0  0  0  0  1  0  0  0  0  0  0
  193.5490  176.5500  137.7790 O   0  0  0  0  0  0  0  0  0  0  0  0
  183.0770  178.9410  139.7630 C   0  0  0  0  0  3  0  0  0  0  0  0
  183.2360  178.9000  141.0810 C   0  0  0  0  0  3  0  0  0  0  0  0
  181.7300  179.1700  139.1650 C   0  0  1  0  0  3  0  0  0  0  0  0
  181.7660  180.4390  138.3360 C   0  0  0  0  0  1  0  0  0  0  0  0
  181.3840  178.0920  138.3460 O   0  0  0  0  0  0  0  0  0  0  0  0
  181.5160  177.6200  136.1210 O   0  0  0  0  0  1  0  0  0  0  0  0
  182.1500  178.2550  137.1910 C   0  0  0  0  0  2  0  0  0  0  0  0
  2  3  1  1  0  0  0
  2 11  1  0  0  0  0
  3  6  2  0  0  0  0
  4 10  1  0  0  0  0
  5  8  2  0  0  0  0
  5  3  1  0  0  0  0
  6  1  1  0  0  0  0
  6 10  1  0  0  0  0
  7 12  1  0  0  0  0
  7  2  1  0  0  0  0
  8  1  1  0  0  0  0
  9 11  1  0  0  0  0
 10 13  1  1  0  0  0
 11  4  2  0  0  0  0
 12  9  2  0  0  0  0
 14 15  1  0  0  0  0
 14 20  1  0  0  0  0
 15 23  1  0  0  0  0
 15 18  1  0  0  0  0
 16 21  1  6  0  0  0
 16  7  1  0  0  0  0
 17 22  1  0  0  0  0
 17 19  1  0  0  0  0
 18 21  1  0  0  0  0
 19 16  1  0  0  0  0
 20 18  1  0  0  0  0
 20 17  1  0  0  0  0
 20 22  1  0  0  0  0
 22 19  1  0  0  0  0
 24 25  1  0  0  0  0
 24 23  1  0  0  0  0
 25 26  1  0  0  0  0
 26 29  1  0  0  0  0
 29 28  2  0  0  0  0
 29 31  1  0  0  0  0
 29 27  1  0  0  0  0
 31 30  1  0  0  0  0
 32 33  2  0  0  0  0
 33  8  1  0  0  0  0
 34 32  1  0  0  0  0
 35 34  1  0  0  0  0
 36 34  1  0  0  0  0
 37 38  1  0  0  0  0
 38 36  1  0  0  0  0
M  END
>  <MODEL>
9

>  <REMARK>
 VINA RESULT:      -6.5      4.075      9.443
  Name = 
  11 active torsions:
  status: ('A' for Active; 'I' for Inactive)
    1  A    between atoms: N_6  and  C_8
    2  A    between atoms: C_8  and  S_29
    3  A    between atoms: N_11  and  N_18
    4  A    between atoms: C_13  and  N_15
    5  A    between atoms: C_13  and  S_29
    6  A    between atoms: N_15  and  P_20
    7  A    between atoms: P_20  and  O_24
    8  A    between atoms: C_21  and  C_22
    9  A    between atoms: C_22  and  O_26
   10  A    between atoms: C_23  and  C_38
   11  A    between atoms: O_26  and  C_32
                            x       y       z     vdW  Elec       q    Type
                         _______ _______ _______ _____ _____    ______ ____

>  <TORSDO>
F 11

$$$$
