=
 OpenBabel10222420273D

 31 35  0  0  1  0  0  0  0  0999 V2000
  182.3960  178.7480  141.8030 C   0  0  0  0  0  0  0  0  0  0  0  0
  184.3340  178.7120  143.4430 C   0  0  0  0  0  0  0  0  0  0  0  0
  180.3580  175.9910  141.0570 C   0  0  0  0  0  3  0  0  0  0  0  0
  182.0510  177.2640  137.3550 C   0  0  0  0  0  3  0  0  0  0  0  0
  180.8670  176.5070  137.4280 C   0  0  0  0  0  0  0  0  0  0  0  0
  182.2050  177.2590  139.7800 C   0  0  0  0  0  0  0  0  0  0  0  0
  185.3590  178.2530  145.6410 N   0  0  0  0  0  0  0  0  0  0  0  0
  185.3010  178.6280  141.0870 C   0  0  0  0  0  3  0  0  0  0  0  0
  185.4440  178.4670  142.5670 C   0  0  0  0  0  0  0  0  0  0  0  0
  184.2310  178.5550  138.5760 S   0  0  0  0  0  0  0  0  0  0  0  0
  184.2490  178.2850  140.3520 C   0  0  0  0  0  0  0  0  0  0  0  0
  183.2760  178.9620  145.4680 O   0  0  0  0  0  0  0  0  0  0  0  0
  182.7080  177.6300  138.5380 C   0  0  0  0  0  0  0  0  0  0  0  0
  181.0330  176.4990  139.8430 C   0  0  0  0  0  0  0  0  0  0  0  0
  180.3740  176.1400  138.6930 C   0  0  0  0  0  0  0  0  0  0  0  0
  187.7620  178.0340  141.9200 N   0  0  0  0  0  1  0  0  0  0  0  0
  184.3360  178.6480  144.8570 C   0  0  0  0  0  0  0  0  0  0  0  0
  179.1570  175.3500  138.9820 C   0  0  0  0  0  3  0  0  0  0  0  0
  179.1260  175.2560  140.5140 C   0  0  0  0  0  2  0  0  0  0  0  0
  186.6250  177.8750  145.4020 C   0  0  0  0  0  0  0  0  0  0  0  0
  183.0280  177.6850  140.9520 C   0  0  1  0  0  3  0  0  0  0  0  0
  187.2060  177.8770  144.1910 N   0  0  0  0  0  0  0  0  0  0  0  0
  186.7700  178.1460  142.9440 C   0  0  0  0  0  0  0  0  0  0  0  0
  183.0190  179.1790  142.8990 C   0  0  0  0  0  3  0  0  0  0  0  0
  181.1480  179.3780  141.4440 C   0  0  0  0  0  0  0  0  0  0  0  0
  180.1080  179.9100  141.1440 C   0  0  0  0  0  0  0  0  0  0  0  0
  178.9320  180.5140  140.8050 O   0  0  0  0  0  1  0  0  0  0  0  0
  187.4320  177.5030  146.5270 C   0  0  0  0  0  0  0  0  0  0  0  0
  188.0840  177.2020  147.4360 N   0  0  0  0  0  0  0  0  0  0  0  0
  180.6100  174.9110  135.7090 O   0  0  0  0  0  1  0  0  0  0  0  0
  180.1460  176.1390  136.1770 C   0  0  0  0  0  2  0  0  0  0  0  0
  1 24  2  0  0  0  0
  2 17  1  0  0  0  0
  4  5  2  0  0  0  0
  4 13  1  0  0  0  0
  5 15  1  0  0  0  0
  6 14  1  0  0  0  0
  8  9  1  0  0  0  0
  9 23  1  0  0  0  0
  9  2  2  0  0  0  0
 10 11  1  0  0  0  0
 11 21  1  0  0  0  0
 11  8  2  0  0  0  0
 13 10  1  0  0  0  0
 13  6  2  0  0  0  0
 14  3  2  0  0  0  0
 15 18  2  0  0  0  0
 15 14  1  0  0  0  0
 16 23  1  0  0  0  0
 17 12  2  0  0  0  0
 17  7  1  0  0  0  0
 18 19  1  0  0  0  0
 19  3  1  0  0  0  0
 20  7  2  0  0  0  0
 20 28  1  0  0  0  0
 21  6  1  6  0  0  0
 21  1  1  0  0  0  0
 22 20  1  0  0  0  0
 23 22  2  0  0  0  0
 24  2  1  0  0  0  0
 25  1  1  0  0  0  0
 26 25  3  0  0  0  0
 27 26  1  0  0  0  0
 28 29  3  0  0  0  0
 30 31  1  0  0  0  0
 31  5  1  0  0  0  0
M  END
>  <MODEL>
1

>  <REMARK>
 VINA RESULT:      -6.8      0.000      0.000
  Name = 
  3 active torsions:
  status: ('A' for Active; 'I' for Inactive)
    1  A    between atoms: C_1  and  C_11
    2  A    between atoms: C_2  and  C_26
    3  A    between atoms: C_6  and  C_29
                            x       y       z     vdW  Elec       q    Type
                         _______ _______ _______ _____ _____    ______ ____

>  <TORSDO>
F 3

$$$$
=
 OpenBabel10222420273D

 31 35  0  0  1  0  0  0  0  0999 V2000
  189.5180  177.1840  138.5370 C   0  0  0  0  0  0  0  0  0  0  0  0
  188.9620  177.8330  140.9280 C   0  0  0  0  0  0  0  0  0  0  0  0
  188.9700  174.0090  137.1490 C   0  0  0  0  0  3  0  0  0  0  0  0
  193.1390  174.7990  136.7180 C   0  0  0  0  0  3  0  0  0  0  0  0
  192.4560  173.8700  135.9140 C   0  0  1  0  0  3  0  0  0  0  0  0
  191.0710  175.3100  137.8870 C   0  0  0  0  0  0  0  0  0  0  0  0
  187.4520  178.0200  142.8700 N   0  0  0  0  0  0  0  0  0  0  0  0
  191.4780  177.4550  140.7850 C   0  0  0  0  0  3  0  0  0  0  0  0
  190.2230  177.6240  141.5810 C   0  0  0  0  0  0  0  0  0  0  0  0
  193.1920  176.6850  138.8040 S   0  0  0  0  0  0  0  0  0  0  0  0
  191.6080  176.7850  139.6450 C   0  0  0  0  0  0  0  0  0  0  0  0
  186.7120  178.2870  140.8090 O   0  0  0  0  0  0  0  0  0  0  0  0
  192.4340  175.5090  137.7010 C   0  0  0  0  0  0  0  0  0  0  0  0
  190.4010  174.3770  137.0890 C   0  0  0  0  0  0  0  0  0  0  0  0
  191.0780  173.6800  136.1180 C   0  0  0  0  0  0  0  0  0  0  0  0
  191.8200  177.5000  143.4280 N   0  0  0  0  0  1  0  0  0  0  0  0
  187.7090  178.0560  141.5480 C   0  0  0  0  0  0  0  0  0  0  0  0
  190.1850  172.7560  135.3850 C   0  0  0  0  0  3  0  0  0  0  0  0
  188.8110  172.9680  136.0340 C   0  0  0  0  0  3  0  0  0  0  0  0
  188.2100  177.8390  143.9640 C   0  0  0  0  0  0  0  0  0  0  0  0
  190.4580  176.1060  138.9930 C   0  0  1  0  0  3  0  0  0  0  0  0
  189.5460  177.7030  143.9520 N   0  0  0  0  0  0  0  0  0  0  0  0
  190.4700  177.6320  142.9740 C   0  0  0  0  0  0  0  0  0  0  0  0
  188.8810  177.9330  139.4360 C   0  0  0  0  0  3  0  0  0  0  0  0
  189.3210  177.4900  137.1410 C   0  0  0  0  0  0  0  0  0  0  0  0
  189.1530  177.7400  135.9730 C   0  0  0  0  0  0  0  0  0  0  0  0
  188.9630  178.0210  134.6510 O   0  0  0  0  0  1  0  0  0  0  0  0
  187.5530  177.8540  145.2390 C   0  0  0  0  0  0  0  0  0  0  0  0
  187.0230  177.8670  146.2680 N   0  0  0  0  0  0  0  0  0  0  0  0
  194.5080  173.5830  134.7850 O   0  0  0  0  0  1  0  0  0  0  0  0
  193.1910  173.1320  134.8470 C   0  0  0  0  0  2  0  0  0  0  0  0
  1 21  1  0  0  0  0
  1 24  2  0  0  0  0
  2 17  1  0  0  0  0
  2  9  2  0  0  0  0
  4 13  2  0  0  0  0
  5 31  1  6  0  0  0
  5 15  1  0  0  0  0
  5  4  1  0  0  0  0
  7 20  2  0  0  0  0
  8  9  1  0  0  0  0
  9 23  1  0  0  0  0
 10 11  1  0  0  0  0
 11  8  2  0  0  0  0
 12 17  2  0  0  0  0
 13  6  1  0  0  0  0
 13 10  1  0  0  0  0
 14  3  1  0  0  0  0
 14  6  2  0  0  0  0
 15 14  1  0  0  0  0
 17  7  1  0  0  0  0
 18 19  1  0  0  0  0
 18 15  2  0  0  0  0
 19  3  2  0  0  0  0
 20 28  1  0  0  0  0
 21  6  1  6  0  0  0
 21 11  1  0  0  0  0
 22 20  1  0  0  0  0
 23 16  1  0  0  0  0
 23 22  2  0  0  0  0
 24  2  1  0  0  0  0
 25  1  1  0  0  0  0
 26 25  3  0  0  0  0
 27 26  1  0  0  0  0
 28 29  3  0  0  0  0
 30 31  1  0  0  0  0
M  END
>  <MODEL>
2

>  <REMARK>
 VINA RESULT:      -6.8      6.884      8.588
  Name = 
  3 active torsions:
  status: ('A' for Active; 'I' for Inactive)
    1  A    between atoms: C_1  and  C_11
    2  A    between atoms: C_2  and  C_26
    3  A    between atoms: C_6  and  C_29
                            x       y       z     vdW  Elec       q    Type
                         _______ _______ _______ _____ _____    ______ ____

>  <TORSDO>
F 3

$$$$
=
 OpenBabel10222420273D

 31 35  0  0  1  0  0  0  0  0999 V2000
  190.7990  178.1200  142.2750 C   0  0  0  0  0  0  0  0  0  0  0  0
  191.4220  177.1060  140.0320 C   0  0  0  0  0  0  0  0  0  0  0  0
  190.6630  176.3480  145.3000 C   0  0  0  0  0  3  0  0  0  0  0  0
  186.7880  178.0340  144.7260 C   0  0  0  0  0  3  0  0  0  0  0  0
  187.2680  177.6490  145.9910 C   0  0  0  0  0  0  0  0  0  0  0  0
  188.8850  177.3400  143.7170 C   0  0  0  0  0  0  0  0  0  0  0  0
  192.8840  175.8090  138.5250 N   0  0  0  0  0  0  0  0  0  0  0  0
  188.8900  177.3850  140.0890 C   0  0  0  0  0  3  0  0  0  0  0  0
  190.1300  176.8020  139.4880 C   0  0  0  0  0  0  0  0  0  0  0  0
  187.1000  178.2870  141.9430 S   0  0  0  0  0  0  0  0  0  0  0  0
  188.6440  177.5590  141.3820 C   0  0  0  0  0  0  0  0  0  0  0  0
  193.7200  177.0930  140.1140 O   0  0  0  0  0  0  0  0  0  0  0  0
  187.6070  177.8720  143.6000 C   0  0  0  0  0  0  0  0  0  0  0  0
  189.3520  176.9510  144.9760 C   0  0  0  0  0  0  0  0  0  0  0  0
  188.5630  177.1120  146.0890 C   0  0  0  0  0  0  0  0  0  0  0  0
  188.4960  175.9240  137.8930 N   0  0  0  0  0  1  0  0  0  0  0  0
  192.6760  176.6690  139.5420 C   0  0  0  0  0  0  0  0  0  0  0  0
  189.2470  176.6470  147.3170 C   0  0  0  0  0  3  0  0  0  0  0  0
  190.6160  176.1610  146.8220 C   0  0  0  0  0  2  0  0  0  0  0  0
  192.0760  175.1690  137.6650 C   0  0  0  0  0  0  0  0  0  0  0  0
  189.6310  177.1890  142.4310 C   0  0  1  0  0  3  0  0  0  0  0  0
  190.7440  175.3300  137.6050 N   0  0  0  0  0  0  0  0  0  0  0  0
  189.8530  176.0330  138.3320 C   0  0  0  0  0  0  0  0  0  0  0  0
  191.5630  178.0510  141.1860 C   0  0  0  0  0  3  0  0  0  0  0  0
  191.0970  179.1460  143.2450 C   0  0  0  0  0  0  0  0  0  0  0  0
  191.3440  180.0000  144.0600 C   0  0  0  0  0  0  0  0  0  0  0  0
  191.6220  180.9660  144.9840 O   0  0  0  0  0  1  0  0  0  0  0  0
  192.6860  174.2990  136.7010 C   0  0  0  0  0  0  0  0  0  0  0  0
  193.1770  173.5970  135.9230 N   0  0  0  0  0  0  0  0  0  0  0  0
  185.6170  178.9750  147.0320 O   0  0  0  0  0  1  0  0  0  0  0  0
  186.4150  177.8450  147.1980 C   0  0  0  0  0  2  0  0  0  0  0  0
  1 21  1  0  0  0  0
  1 25  1  0  0  0  0
  2 24  1  0  0  0  0
  3 19  1  0  0  0  0
  4  5  2  0  0  0  0
  5 15  1  0  0  0  0
  5 31  1  0  0  0  0
  6 14  1  0  0  0  0
  7 17  1  0  0  0  0
  8 11  2  0  0  0  0
  9  2  2  0  0  0  0
  9  8  1  0  0  0  0
 10 13  1  0  0  0  0
 11 10  1  0  0  0  0
 13  6  2  0  0  0  0
 13  4  1  0  0  0  0
 14  3  2  0  0  0  0
 14 15  1  0  0  0  0
 15 18  2  0  0  0  0
 16 23  1  0  0  0  0
 17  2  1  0  0  0  0
 17 12  2  0  0  0  0
 19 18  1  0  0  0  0
 20  7  2  0  0  0  0
 21 11  1  6  0  0  0
 21  6  1  0  0  0  0
 22 20  1  0  0  0  0
 22 23  2  0  0  0  0
 23  9  1  0  0  0  0
 24  1  2  0  0  0  0
 25 26  3  0  0  0  0
 26 27  1  0  0  0  0
 28 20  1  0  0  0  0
 29 28  3  0  0  0  0
 30 31  1  0  0  0  0
M  END
>  <MODEL>
3

>  <REMARK>
 VINA RESULT:      -6.2      6.805      9.784
  Name = 
  3 active torsions:
  status: ('A' for Active; 'I' for Inactive)
    1  A    between atoms: C_1  and  C_11
    2  A    between atoms: C_2  and  C_26
    3  A    between atoms: C_6  and  C_29
                            x       y       z     vdW  Elec       q    Type
                         _______ _______ _______ _____ _____    ______ ____

>  <TORSDO>
F 3

$$$$
=
 OpenBabel10222420273D

 31 35  0  0  1  0  0  0  0  0999 V2000
  183.4890  177.6640  138.5820 C   0  0  0  0  0  0  0  0  0  0  0  0
  184.4620  175.7110  137.2850 C   0  0  0  0  0  0  0  0  0  0  0  0
  184.0770  178.2950  141.9830 C   0  0  0  0  0  3  0  0  0  0  0  0
  179.8500  177.9300  141.5480 C   0  0  0  0  0  3  0  0  0  0  0  0
  180.4460  178.6100  142.6250 C   0  0  0  0  0  0  0  0  0  0  0  0
  182.0490  177.4420  140.6380 C   0  0  0  0  0  0  0  0  0  0  0  0
  186.3180  174.2840  136.5040 N   0  0  0  0  0  0  0  0  0  0  0  0
  182.0290  175.1650  137.8120 C   0  0  0  0  0  3  0  0  0  0  0  0
  183.3980  174.7520  137.3720 C   0  0  0  0  0  0  0  0  0  0  0  0
  180.0310  176.4330  139.1730 S   0  0  0  0  0  0  0  0  0  0  0  0
  181.7360  176.0370  138.7710 C   0  0  0  0  0  0  0  0  0  0  0  0
  186.5730  176.4600  136.7680 O   0  0  0  0  0  0  0  0  0  0  0  0
  180.6640  177.3500  140.5640 C   0  0  0  0  0  0  0  0  0  0  0  0
  182.6340  178.1120  141.7170 C   0  0  0  0  0  0  0  0  0  0  0  0
  181.8480  178.6920  142.6830 C   0  0  0  0  0  0  0  0  0  0  0  0
  182.2500  172.6140  137.0710 N   0  0  0  0  0  1  0  0  0  0  0  0
  185.7850  175.4760  136.8400 C   0  0  0  0  0  0  0  0  0  0  0  0
  182.6620  179.3550  143.7260 C   0  0  0  0  0  3  0  0  0  0  0  0
  184.1110  179.1170  143.2780 C   0  0  0  0  0  2  0  0  0  0  0  0
  185.8320  173.0350  136.4200 C   0  0  0  0  0  0  0  0  0  0  0  0
  182.7910  176.7460  139.5430 C   0  0  1  0  0  3  0  0  0  0  0  0
  184.5470  172.7020  136.6210 N   0  0  0  0  0  0  0  0  0  0  0  0
  183.4510  173.3880  137.0000 C   0  0  0  0  0  0  0  0  0  0  0  0
  184.2150  177.1570  137.5880 C   0  0  0  0  0  3  0  0  0  0  0  0
  183.3530  179.0990  138.6560 C   0  0  0  0  0  0  0  0  0  0  0  0
  183.2350  180.2980  138.7110 C   0  0  0  0  0  0  0  0  0  0  0  0
  183.1020  181.6550  138.7720 O   0  0  0  0  0  1  0  0  0  0  0  0
  186.7370  171.9940  136.0280 C   0  0  0  0  0  0  0  0  0  0  0  0
  187.4680  171.1530  135.7120 N   0  0  0  0  0  0  0  0  0  0  0  0
  179.0380  178.2810  144.4910 O   0  0  0  0  0  1  0  0  0  0  0  0
  179.5870  179.2550  143.6590 C   0  0  0  0  0  2  0  0  0  0  0  0
  1 25  1  0  0  0  0
  2  9  2  0  0  0  0
  2 24  1  0  0  0  0
  3 19  1  0  0  0  0
  4  5  2  0  0  0  0
  5 15  1  0  0  0  0
  5 31  1  0  0  0  0
  6 14  1  0  0  0  0
  7 17  1  0  0  0  0
  8 11  2  0  0  0  0
  9  8  1  0  0  0  0
 10 13  1  0  0  0  0
 11 10  1  0  0  0  0
 11 21  1  0  0  0  0
 12 17  2  0  0  0  0
 13  6  2  0  0  0  0
 13  4  1  0  0  0  0
 14  3  2  0  0  0  0
 14 15  1  0  0  0  0
 15 18  2  0  0  0  0
 17  2  1  0  0  0  0
 19 18  1  0  0  0  0
 20  7  2  0  0  0  0
 20 22  1  0  0  0  0
 21  1  1  6  0  0  0
 21  6  1  0  0  0  0
 22 23  2  0  0  0  0
 23 16  1  0  0  0  0
 23  9  1  0  0  0  0
 24  1  2  0  0  0  0
 25 26  3  0  0  0  0
 26 27  1  0  0  0  0
 28 20  1  0  0  0  0
 29 28  3  0  0  0  0
 31 30  1  0  0  0  0
M  END
>  <MODEL>
4

>  <REMARK>
 VINA RESULT:      -6.1      4.247      7.111
  Name = 
  3 active torsions:
  status: ('A' for Active; 'I' for Inactive)
    1  A    between atoms: C_1  and  C_11
    2  A    between atoms: C_2  and  C_26
    3  A    between atoms: C_6  and  C_29
                            x       y       z     vdW  Elec       q    Type
                         _______ _______ _______ _____ _____    ______ ____

>  <TORSDO>
F 3

$$$$
=
 OpenBabel10222420273D

 31 35  0  0  1  0  0  0  0  0999 V2000
  183.6230  178.3670  138.6460 C   0  0  0  0  0  0  0  0  0  0  0  0
  185.9190  178.5880  139.7080 C   0  0  0  0  0  0  0  0  0  0  0  0
  181.3550  175.7740  139.3110 C   0  0  0  0  0  3  0  0  0  0  0  0
  182.0730  175.6860  135.1080 C   0  0  0  0  0  3  0  0  0  0  0  0
  180.9210  175.1300  135.6930 C   0  0  0  0  0  0  0  0  0  0  0  0
  182.8540  176.3800  137.3020 C   0  0  0  0  0  0  0  0  0  0  0  0
  187.4620  178.6810  141.6320 N   0  0  0  0  0  0  0  0  0  0  0  0
  186.2340  177.6970  137.3420 C   0  0  0  0  0  3  0  0  0  0  0  0
  186.7520  177.9660  138.7190 C   0  0  0  0  0  0  0  0  0  0  0  0
  184.5450  177.0130  135.3090 S   0  0  0  0  0  0  0  0  0  0  0  0
  185.0140  177.2790  137.0220 C   0  0  0  0  0  0  0  0  0  0  0  0
  185.4360  179.5490  141.7400 O   0  0  0  0  0  0  0  0  0  0  0  0
  183.0300  176.3050  135.9250 C   0  0  0  0  0  0  0  0  0  0  0  0
  181.7100  175.8170  137.8760 C   0  0  0  0  0  0  0  0  0  0  0  0
  180.7600  175.2150  137.0870 C   0  0  0  0  0  0  0  0  0  0  0  0
  188.8030  177.0890  137.7160 N   0  0  0  0  0  1  0  0  0  0  0  0
  186.2860  178.9450  141.0280 C   0  0  0  0  0  0  0  0  0  0  0  0
  179.6310  174.6950  137.8900 C   0  0  0  0  0  3  0  0  0  0  0  0
  179.9960  175.0630  139.3340 C   0  0  0  0  0  2  0  0  0  0  0  0
  188.6060  178.1020  141.2330 C   0  0  0  0  0  0  0  0  0  0  0  0
  183.9690  177.0330  138.0510 C   0  0  1  0  0  3  0  0  0  0  0  0
  188.8510  177.6770  139.9830 N   0  0  0  0  0  0  0  0  0  0  0  0
  188.1160  177.6150  138.8550 C   0  0  0  0  0  0  0  0  0  0  0  0
  184.5270  179.0260  139.3700 C   0  0  0  0  0  3  0  0  0  0  0  0
  182.3510  179.0050  138.4110 C   0  0  0  0  0  0  0  0  0  0  0  0
  181.2900  179.5450  138.2130 C   0  0  0  0  0  0  0  0  0  0  0  0
  180.0910  180.1570  137.9890 O   0  0  0  0  0  1  0  0  0  0  0  0
  189.6640  177.9870  142.1960 C   0  0  0  0  0  0  0  0  0  0  0  0
  190.5170  177.8930  142.9720 N   0  0  0  0  0  0  0  0  0  0  0  0
  180.1900  173.1510  134.6350 O   0  0  0  0  0  1  0  0  0  0  0  0
  179.8840  174.4970  134.8290 C   0  0  0  0  0  2  0  0  0  0  0  0
  1 24  2  0  0  0  0
  2 17  1  0  0  0  0
  3 19  1  0  0  0  0
  4  5  2  0  0  0  0
  4 13  1  0  0  0  0
  5 15  1  0  0  0  0
  6 14  1  0  0  0  0
  6 21  1  0  0  0  0
  8  9  1  0  0  0  0
  9 23  1  0  0  0  0
  9  2  2  0  0  0  0
 10 13  1  0  0  0  0
 10 11  1  0  0  0  0
 11  8  2  0  0  0  0
 13  6  2  0  0  0  0
 14  3  2  0  0  0  0
 15 14  1  0  0  0  0
 15 18  2  0  0  0  0
 16 23  1  0  0  0  0
 17  7  1  0  0  0  0
 17 12  2  0  0  0  0
 18 19  1  0  0  0  0
 20  7  2  0  0  0  0
 20 28  1  0  0  0  0
 21 11  1  6  0  0  0
 21  1  1  0  0  0  0
 22 20  1  0  0  0  0
 23 22  2  0  0  0  0
 24  2  1  0  0  0  0
 25  1  1  0  0  0  0
 26 25  3  0  0  0  0
 27 26  1  0  0  0  0
 28 29  3  0  0  0  0
 30 31  1  0  0  0  0
 31  5  1  0  0  0  0
M  END
>  <MODEL>
5

>  <REMARK>
 VINA RESULT:      -5.7      2.858      3.519
  Name = 
  3 active torsions:
  status: ('A' for Active; 'I' for Inactive)
    1  A    between atoms: C_1  and  C_11
    2  A    between atoms: C_2  and  C_26
    3  A    between atoms: C_6  and  C_29
                            x       y       z     vdW  Elec       q    Type
                         _______ _______ _______ _____ _____    ______ ____

>  <TORSDO>
F 3

$$$$
=
 OpenBabel10222420273D

 31 35  0  0  1  0  0  0  0  0999 V2000
  183.3770  178.5120  142.0920 C   0  0  0  0  0  0  0  0  0  0  0  0
  185.8280  178.1590  142.6530 C   0  0  0  0  0  0  0  0  0  0  0  0
  181.1950  175.9930  140.9960 C   0  0  0  0  0  3  0  0  0  0  0  0
  181.1640  179.0010  137.9720 C   0  0  0  0  0  3  0  0  0  0  0  0
  180.1180  178.0740  138.1310 C   0  0  0  0  0  0  0  0  0  0  0  0
  182.3340  178.0060  139.8550 C   0  0  0  0  0  0  0  0  0  0  0  0
  187.6850  177.0220  143.8140 N   0  0  0  0  0  0  0  0  0  0  0  0
  185.7020  179.2590  140.3590 C   0  0  0  0  0  3  0  0  0  0  0  0
  186.4590  178.5210  141.4170 C   0  0  0  0  0  0  0  0  0  0  0  0
  183.6660  180.0470  138.7180 S   0  0  0  0  0  0  0  0  0  0  0  0
  184.4340  179.0640  140.0100 C   0  0  0  0  0  0  0  0  0  0  0  0
  185.7320  177.3270  144.7950 O   0  0  0  0  0  0  0  0  0  0  0  0
  182.2650  178.9530  138.8400 C   0  0  0  0  0  0  0  0  0  0  0  0
  181.2940  177.0820  140.0010 C   0  0  0  0  0  0  0  0  0  0  0  0
  180.2060  177.1230  139.1630 C   0  0  0  0  0  0  0  0  0  0  0  0
  188.2790  178.8490  139.8180 N   0  0  0  0  0  1  0  0  0  0  0  0
  186.4290  177.5070  143.7570 C   0  0  0  0  0  0  0  0  0  0  0  0
  179.2210  176.0690  139.4930 C   0  0  0  0  0  3  0  0  0  0  0  0
  179.8430  175.3360  140.6890 C   0  0  0  0  0  2  0  0  0  0  0  0
  188.7270  177.0280  142.9670 C   0  0  0  0  0  0  0  0  0  0  0  0
  183.5790  178.0470  140.6790 C   0  0  1  0  0  3  0  0  0  0  0  0
  188.7380  177.6490  141.7770 N   0  0  0  0  0  0  0  0  0  0  0  0
  187.8170  178.3290  141.0670 C   0  0  0  0  0  0  0  0  0  0  0  0
  184.4090  178.5520  142.9320 C   0  0  0  0  0  3  0  0  0  0  0  0
  182.0990  178.9850  142.5690 C   0  0  0  0  0  0  0  0  0  0  0  0
  181.0290  179.3770  142.9620 C   0  0  0  0  0  0  0  0  0  0  0  0
  179.8160  179.8200  143.4060 O   0  0  0  0  0  1  0  0  0  0  0  0
  189.9330  176.3770  143.3910 C   0  0  0  0  0  0  0  0  0  0  0  0
  190.9060  175.8520  143.7330 N   0  0  0  0  0  0  0  0  0  0  0  0
  179.3000  177.7800  135.9370 O   0  0  0  0  0  1  0  0  0  0  0  0
  178.9310  178.1360  137.2320 C   0  0  0  0  0  2  0  0  0  0  0  0
  1 25  1  0  0  0  0
  1 24  2  0  0  0  0
  2 24  1  0  0  0  0
  2 17  1  0  0  0  0
  4  5  2  0  0  0  0
  4 13  1  0  0  0  0
  5 15  1  0  0  0  0
  6 14  1  0  0  0  0
  8  9  1  0  0  0  0
  9  2  2  0  0  0  0
 10 13  1  0  0  0  0
 10 11  1  0  0  0  0
 11  8  2  0  0  0  0
 11 21  1  0  0  0  0
 13  6  2  0  0  0  0
 14  3  2  0  0  0  0
 15 18  2  0  0  0  0
 15 14  1  0  0  0  0
 16 23  1  0  0  0  0
 17  7  1  0  0  0  0
 17 12  2  0  0  0  0
 18 19  1  0  0  0  0
 19  3  1  0  0  0  0
 20 28  1  0  0  0  0
 20  7  2  0  0  0  0
 21  6  1  6  0  0  0
 21  1  1  0  0  0  0
 22 20  1  0  0  0  0
 23  9  1  0  0  0  0
 23 22  2  0  0  0  0
 25 26  3  0  0  0  0
 26 27  1  0  0  0  0
 28 29  3  0  0  0  0
 30 31  1  0  0  0  0
 31  5  1  0  0  0  0
M  END
>  <MODEL>
6

>  <REMARK>
 VINA RESULT:      -5.7      1.870      2.241
  Name = 
  3 active torsions:
  status: ('A' for Active; 'I' for Inactive)
    1  A    between atoms: C_1  and  C_11
    2  A    between atoms: C_2  and  C_26
    3  A    between atoms: C_6  and  C_29
                            x       y       z     vdW  Elec       q    Type
                         _______ _______ _______ _____ _____    ______ ____

>  <TORSDO>
F 3

$$$$
=
 OpenBabel10222420273D

 31 35  0  0  1  0  0  0  0  0999 V2000
  187.1110  177.9040  138.4410 C   0  0  0  0  0  0  0  0  0  0  0  0
  186.6230  178.5200  140.8560 C   0  0  0  0  0  0  0  0  0  0  0  0
  186.1020  174.9180  136.8990 C   0  0  0  0  0  3  0  0  0  0  0  0
  190.3490  175.0740  136.5420 C   0  0  0  0  0  3  0  0  0  0  0  0
  189.5440  174.2980  135.6890 C   0  0  1  0  0  3  0  0  0  0  0  0
  188.3670  175.8430  137.7160 C   0  0  0  0  0  0  0  0  0  0  0  0
  185.1290  178.8500  142.7920 N   0  0  0  0  0  0  0  0  0  0  0  0
  189.0530  177.7650  140.7160 C   0  0  0  0  0  3  0  0  0  0  0  0
  187.8260  178.0900  141.5080 C   0  0  0  0  0  0  0  0  0  0  0  0
  190.6590  176.8310  138.7160 S   0  0  0  0  0  0  0  0  0  0  0  0
  189.0960  177.1360  139.5470 C   0  0  0  0  0  0  0  0  0  0  0  0
  184.4720  179.3220  140.7390 O   0  0  0  0  0  0  0  0  0  0  0  0
  189.7460  175.8390  137.5510 C   0  0  0  0  0  0  0  0  0  0  0  0
  187.5740  175.0630  136.8690 C   0  0  0  0  0  0  0  0  0  0  0  0
  188.1500  174.3150  135.8710 C   0  0  0  0  0  0  0  0  0  0  0  0
  189.3560  177.6360  143.3620 N   0  0  0  0  0  1  0  0  0  0  0  0
  185.4100  178.9060  141.4750 C   0  0  0  0  0  0  0  0  0  0  0  0
  187.1370  173.5740  135.0870 C   0  0  0  0  0  3  0  0  0  0  0  0
  185.8020  173.9660  135.7340 C   0  0  0  0  0  3  0  0  0  0  0  0
  185.8330  178.5040  143.8820 C   0  0  0  0  0  0  0  0  0  0  0  0
  187.8650  176.6730  138.8530 C   0  0  1  0  0  3  0  0  0  0  0  0
  187.1320  178.1640  143.8750 N   0  0  0  0  0  0  0  0  0  0  0  0
  188.0500  177.9960  142.9030 C   0  0  0  0  0  0  0  0  0  0  0  0
  186.5820  178.7000  139.3690 C   0  0  0  0  0  3  0  0  0  0  0  0
  186.9850  178.3000  137.0590 C   0  0  0  0  0  0  0  0  0  0  0  0
  186.8760  178.6270  135.9040 C   0  0  0  0  0  0  0  0  0  0  0  0
  186.7520  178.9940  134.5950 O   0  0  0  0  0  1  0  0  0  0  0  0
  185.1660  178.5620  145.1510 C   0  0  0  0  0  0  0  0  0  0  0  0
  184.6280  178.6090  146.1750 N   0  0  0  0  0  0  0  0  0  0  0  0
  190.4880  172.2290  135.0580 O   0  0  0  0  0  1  0  0  0  0  0  0
  190.1740  173.5060  134.5940 C   0  0  0  0  0  2  0  0  0  0  0  0
  1 21  1  0  0  0  0
  1 24  2  0  0  0  0
  2 17  1  0  0  0  0
  2  9  2  0  0  0  0
  4 13  2  0  0  0  0
  5 31  1  6  0  0  0
  5 15  1  0  0  0  0
  5  4  1  0  0  0  0
  7 20  2  0  0  0  0
  8  9  1  0  0  0  0
  9 23  1  0  0  0  0
 10 11  1  0  0  0  0
 11  8  2  0  0  0  0
 12 17  2  0  0  0  0
 13  6  1  0  0  0  0
 13 10  1  0  0  0  0
 14  3  1  0  0  0  0
 14  6  2  0  0  0  0
 15 14  1  0  0  0  0
 17  7  1  0  0  0  0
 18 19  1  0  0  0  0
 18 15  2  0  0  0  0
 19  3  2  0  0  0  0
 20 28  1  0  0  0  0
 21  6  1  6  0  0  0
 21 11  1  0  0  0  0
 22 20  1  0  0  0  0
 23 16  1  0  0  0  0
 23 22  2  0  0  0  0
 24  2  1  0  0  0  0
 25  1  1  0  0  0  0
 26 25  3  0  0  0  0
 27 26  1  0  0  0  0
 28 29  3  0  0  0  0
 31 30  1  0  0  0  0
M  END
>  <MODEL>
7

>  <REMARK>
 VINA RESULT:      -5.5      5.111      6.478
  Name = 
  3 active torsions:
  status: ('A' for Active; 'I' for Inactive)
    1  A    between atoms: C_1  and  C_11
    2  A    between atoms: C_2  and  C_26
    3  A    between atoms: C_6  and  C_29
                            x       y       z     vdW  Elec       q    Type
                         _______ _______ _______ _____ _____    ______ ____

>  <TORSDO>
F 3

$$$$
=
 OpenBabel10222420273D

 31 35  0  0  1  0  0  0  0  0999 V2000
  183.4770  178.7000  140.4890 C   0  0  0  0  0  0  0  0  0  0  0  0
  184.9790  178.7070  142.5360 C   0  0  0  0  0  0  0  0  0  0  0  0
  181.5740  175.9550  139.4170 C   0  0  0  0  0  3  0  0  0  0  0  0
  184.1230  176.9890  136.1570 C   0  0  0  0  0  3  0  0  0  0  0  0
  182.9290  176.2650  135.9870 C   0  0  0  0  0  0  0  0  0  0  0  0
  183.7100  177.1100  138.5490 C   0  0  0  0  0  0  0  0  0  0  0  0
  185.4480  178.3430  144.9310 N   0  0  0  0  0  0  0  0  0  0  0  0
  186.4630  178.4750  140.4780 C   0  0  0  0  0  3  0  0  0  0  0  0
  186.2530  178.3910  141.9560 C   0  0  0  0  0  0  0  0  0  0  0  0
  186.0030  178.2930  137.7930 S   0  0  0  0  0  0  0  0  0  0  0  0
  185.5990  178.1170  139.5340 C   0  0  0  0  0  0  0  0  0  0  0  0
  183.4890  179.0890  144.2450 O   0  0  0  0  0  0  0  0  0  0  0  0
  184.5000  177.4030  137.4430 C   0  0  0  0  0  0  0  0  0  0  0  0
  182.5290  176.3820  138.3720 C   0  0  0  0  0  0  0  0  0  0  0  0
  182.1440  175.9770  137.1170 C   0  0  0  0  0  0  0  0  0  0  0  0
  188.6410  177.8700  141.8900 N   0  0  0  0  0  1  0  0  0  0  0  0
  184.6500  178.7190  143.9130 C   0  0  0  0  0  0  0  0  0  0  0  0
  180.8660  175.2310  137.1510 C   0  0  0  0  0  3  0  0  0  0  0  0
  180.4770  175.2210  138.6350 C   0  0  0  0  0  2  0  0  0  0  0  0
  186.7220  177.9240  145.0130 C   0  0  0  0  0  0  0  0  0  0  0  0
  184.2520  177.5790  139.8600 C   0  0  1  0  0  3  0  0  0  0  0  0
  187.5670  177.8470  143.9720 N   0  0  0  0  0  0  0  0  0  0  0  0
  187.4430  178.0590  142.6480 C   0  0  0  0  0  0  0  0  0  0  0  0
  183.8430  179.1750  141.6780 C   0  0  0  0  0  3  0  0  0  0  0  0
  182.3690  179.3380  139.8190 C   0  0  0  0  0  0  0  0  0  0  0  0
  181.4460  179.8780  139.2610 C   0  0  0  0  0  0  0  0  0  0  0  0
  180.4020  180.4900  138.6300 O   0  0  0  0  0  1  0  0  0  0  0  0
  187.2320  177.5940  146.3120 C   0  0  0  0  0  0  0  0  0  0  0  0
  187.6440  177.3270  147.3600 N   0  0  0  0  0  0  0  0  0  0  0  0
  182.2830  174.4710  134.5960 O   0  0  0  0  0  1  0  0  0  0  0  0
  182.5050  175.8470  134.6200 C   0  0  0  0  0  2  0  0  0  0  0  0
  1 24  2  0  0  0  0
  2 17  1  0  0  0  0
  4 13  1  0  0  0  0
  5  4  2  0  0  0  0
  5 15  1  0  0  0  0
  7 20  2  0  0  0  0
  8  9  1  0  0  0  0
  9  2  2  0  0  0  0
  9 23  1  0  0  0  0
 10 11  1  0  0  0  0
 11 21  1  0  0  0  0
 11  8  2  0  0  0  0
 13 10  1  0  0  0  0
 13  6  2  0  0  0  0
 14  6  1  0  0  0  0
 14  3  2  0  0  0  0
 15 18  2  0  0  0  0
 15 14  1  0  0  0  0
 16 23  1  0  0  0  0
 17 12  2  0  0  0  0
 17  7  1  0  0  0  0
 18 19  1  0  0  0  0
 19  3  1  0  0  0  0
 20 28  1  0  0  0  0
 21  6  1  6  0  0  0
 21  1  1  0  0  0  0
 22 20  1  0  0  0  0
 23 22  2  0  0  0  0
 24  2  1  0  0  0  0
 25  1  1  0  0  0  0
 26 25  3  0  0  0  0
 27 26  1  0  0  0  0
 28 29  3  0  0  0  0
 30 31  1  0  0  0  0
 31  5  1  0  0  0  0
M  END
>  <MODEL>
8

>  <REMARK>
 VINA RESULT:      -5.5      1.479      1.780
  Name = 
  3 active torsions:
  status: ('A' for Active; 'I' for Inactive)
    1  A    between atoms: C_1  and  C_11
    2  A    between atoms: C_2  and  C_26
    3  A    between atoms: C_6  and  C_29
                            x       y       z     vdW  Elec       q    Type
                         _______ _______ _______ _____ _____    ______ ____

>  <TORSDO>
F 3

$$$$
=
 OpenBabel10222420273D

 31 35  0  0  1  0  0  0  0  0999 V2000
  189.2680  174.8220  137.0980 C   0  0  0  0  0  0  0  0  0  0  0  0
  191.7770  174.7010  136.7340 C   0  0  0  0  0  0  0  0  0  0  0  0
  187.0560  176.7290  135.1550 C   0  0  0  0  0  3  0  0  0  0  0  0
  186.5740  178.0670  139.1760 C   0  0  0  0  0  3  0  0  0  0  0  0
  185.5840  178.2470  138.1920 C   0  0  0  0  0  0  0  0  0  0  0  0
  187.9870  176.9440  137.5500 C   0  0  0  0  0  0  0  0  0  0  0  0
  193.7940  174.3450  135.3560 N   0  0  0  0  0  0  0  0  0  0  0  0
  191.3480  176.2380  138.7200 C   0  0  0  0  0  3  0  0  0  0  0  0
  192.2480  175.6950  137.6550 C   0  0  0  0  0  0  0  0  0  0  0  0
  189.1110  177.1600  139.9840 S   0  0  0  0  0  0  0  0  0  0  0  0
  190.0560  176.5210  138.5970 C   0  0  0  0  0  0  0  0  0  0  0  0
  191.9590  173.1610  135.0360 O   0  0  0  0  0  0  0  0  0  0  0  0
  187.7690  177.4160  138.8390 C   0  0  0  0  0  0  0  0  0  0  0  0
  187.0020  177.1350  136.5760 C   0  0  1  0  0  3  0  0  0  0  0  0
  185.8230  177.7640  136.8940 C   0  0  0  0  0  0  0  0  0  0  0  0
  193.8570  177.1340  138.8030 N   0  0  0  0  0  1  0  0  0  0  0  0
  192.5250  174.0650  135.7130 C   0  0  0  0  0  0  0  0  0  0  0  0
  184.9190  177.8540  135.7260 C   0  0  0  0  0  3  0  0  0  0  0  0
  185.6990  177.1750  134.5940 C   0  0  0  0  0  3  0  0  0  0  0  0
  194.7290  175.1900  135.8200 C   0  0  0  0  0  0  0  0  0  0  0  0
  189.3190  176.3050  137.3240 C   0  0  1  0  0  3  0  0  0  0  0  0
  194.5810  175.9710  136.9020 N   0  0  0  0  0  0  0  0  0  0  0  0
  193.5610  176.2150  137.7480 C   0  0  0  0  0  0  0  0  0  0  0  0
  190.3890  174.1490  136.8470 C   0  0  0  0  0  3  0  0  0  0  0  0
  188.0400  174.0710  137.2060 C   0  0  0  0  0  0  0  0  0  0  0  0
  187.0110  173.4470  137.2920 C   0  0  0  0  0  0  0  0  0  0  0  0
  185.8450  172.7440  137.3890 O   0  0  0  0  0  1  0  0  0  0  0  0
  195.9970  175.2130  135.1500 C   0  0  0  0  0  0  0  0  0  0  0  0
  197.0200  175.2320  134.6090 N   0  0  0  0  0  0  0  0  0  0  0  0
  184.5550  180.1170  139.2000 O   0  0  0  0  0  1  0  0  0  0  0  0
  184.2990  178.9120  138.5490 C   0  0  0  0  0  2  0  0  0  0  0  0
  1 25  1  0  0  0  0
  2 24  1  0  0  0  0
  2  9  2  0  0  0  0
  5 31  1  0  0  0  0
  5  4  2  0  0  0  0
  6 13  2  0  0  0  0
  7 17  1  0  0  0  0
  7 20  2  0  0  0  0
  9 23  1  0  0  0  0
  9  8  1  0  0  0  0
 11  8  2  0  0  0  0
 11 10  1  0  0  0  0
 12 17  2  0  0  0  0
 13  4  1  0  0  0  0
 13 10  1  0  0  0  0
 14  3  1  6  0  0  0
 14 15  1  0  0  0  0
 14  6  1  0  0  0  0
 15  5  1  0  0  0  0
 17  2  1  0  0  0  0
 18 15  2  0  0  0  0
 19  3  2  0  0  0  0
 19 18  1  0  0  0  0
 20 22  1  0  0  0  0
 21  1  1  1  0  0  0
 21  6  1  0  0  0  0
 21 11  1  0  0  0  0
 22 23  2  0  0  0  0
 23 16  1  0  0  0  0
 24  1  2  0  0  0  0
 25 26  3  0  0  0  0
 26 27  1  0  0  0  0
 28 20  1  0  0  0  0
 29 28  3  0  0  0  0
 31 30  1  0  0  0  0
M  END
>  <MODEL>
9

>  <REMARK>
 VINA RESULT:      -5.2      7.267      9.532
  Name = 
  3 active torsions:
  status: ('A' for Active; 'I' for Inactive)
    1  A    between atoms: C_1  and  C_11
    2  A    between atoms: C_2  and  C_26
    3  A    between atoms: C_6  and  C_29
                            x       y       z     vdW  Elec       q    Type
                         _______ _______ _______ _____ _____    ______ ____

>  <TORSDO>
F 3

$$$$
