=
 OpenBabel10222420053D

 27 31  0  0  1  0  0  0  0  0999 V2000
  180.0050  176.2920  140.1330 O   0  0  0  0  0  0  0  0  0  0  0  0
  183.5270  178.9160  141.8420 N   0  0  0  0  0  0  0  0  0  0  0  0
  185.7050  178.7900  141.2510 C   0  0  0  0  0  0  0  0  0  0  0  0
  186.1570  177.8340  144.2690 N   0  0  0  0  0  0  0  0  0  0  0  0
  189.4650  177.8000  142.5210 N   0  0  0  0  0  0  0  0  0  0  0  0
  185.7730  177.5210  145.6450 C   0  0  0  0  0  1  0  0  0  0  0  0
  179.0380  178.1590  142.1220 N   0  0  0  0  0  1  0  0  0  0  0  0
  184.8420  178.5880  142.2740 C   0  0  0  0  0  0  0  0  0  0  0  0
  182.2850  175.9720  139.4170 C   0  0  0  0  0  2  0  0  0  0  0  0
  180.1800  179.0480  141.9790 C   0  0  1  0  0  3  0  0  0  0  0  0
  183.4230  176.9940  139.3560 C   0  0  0  0  0  2  0  0  0  0  0  0
  185.0880  178.1970  143.5490 N   0  0  0  0  0  0  0  0  0  0  0  0
  189.7370  177.0640  144.7500 C   0  0  0  0  0  3  0  0  0  0  0  0
  183.6070  179.3220  140.4400 C   0  0  1  0  0  3  0  0  0  0  0  0
  181.3410  178.5800  142.8720 C   0  0  1  0  0  3  0  0  0  0  0  0
  185.0270  179.2620  140.0980 N   0  0  0  0  0  0  0  0  0  0  0  0
  182.5440  179.4980  142.7430 C   0  0  0  0  0  2  0  0  0  0  0  0
  187.3460  178.5380  141.2890 S   0  0  0  0  0  0  0  0  0  0  0  0
  188.1220  177.9790  142.6710 C   0  0  0  0  0  0  0  0  0  0  0  0
  190.2740  177.3570  143.5120 C   0  0  0  0  0  3  0  0  0  0  0  0
  188.3740  177.2380  144.9410 C   0  0  0  0  0  3  0  0  0  0  0  0
  180.9100  178.5620  144.3270 C   0  0  0  0  0  1  0  0  0  0  0  0
  187.4980  177.6990  143.9260 C   0  0  0  0  0  0  0  0  0  0  0  0
  182.7910  178.3870  139.5280 C   0  0  2  0  0  3  0  0  0  0  0  0
  180.5390  179.1920  140.4930 C   0  0  0  0  0  2  0  0  0  0  0  0
  181.4540  178.1450  140.0430 N   0  0  0  0  0  0  0  0  0  0  0  0
  181.1450  176.7720  139.9010 C   0  0  0  0  0  0  0  0  0  0  0  0
  2  8  1  0  0  0  0
  2 17  1  0  0  0  0
  3 18  1  0  0  0  0
  3  8  1  0  0  0  0
  4  6  1  0  0  0  0
  5 19  2  0  0  0  0
  5 20  1  0  0  0  0
  8 12  2  0  0  0  0
  9 27  1  0  0  0  0
 10  7  1  6  0  0  0
 10 15  1  0  0  0  0
 11  9  1  0  0  0  0
 12  4  1  0  0  0  0
 13 21  1  0  0  0  0
 14 16  1  6  0  0  0
 14  2  1  0  0  0  0
 15 22  1  1  0  0  0
 16  3  2  0  0  0  0
 17 15  1  0  0  0  0
 18 19  1  0  0  0  0
 19 23  1  0  0  0  0
 20 13  2  0  0  0  0
 23  4  1  0  0  0  0
 23 21  2  0  0  0  0
 24 11  1  1  0  0  0
 24 26  1  0  0  0  0
 24 14  1  0  0  0  0
 25 10  1  0  0  0  0
 26 25  1  0  0  0  0
 27 26  1  0  0  0  0
 27  1  2  0  0  0  0
M  END
>  <MODEL>
1

>  <REMARK>
 VINA RESULT:      -8.0      0.000      0.000
  Name = 
  0 active torsions:
  status: ('A' for Active; 'I' for Inactive)
                            x       y       z     vdW  Elec       q    Type
                         _______ _______ _______ _____ _____    ______ ____

>  <TORSDO>
F 0

$$$$
=
 OpenBabel10222420053D

 27 31  0  0  1  0  0  0  0  0999 V2000
  187.8860  174.3890  135.4760 O   0  0  0  0  0  0  0  0  0  0  0  0
  189.1850  177.5990  138.6720 N   0  0  0  0  0  0  0  0  0  0  0  0
  190.8130  177.3690  140.2230 C   0  0  0  0  0  0  0  0  0  0  0  0
  188.4160  177.5600  142.3310 N   0  0  0  0  0  0  0  0  0  0  0  0
  191.6040  177.0580  144.2230 N   0  0  0  0  0  0  0  0  0  0  0  0
  187.0330  177.7360  142.7720 C   0  0  0  0  0  1  0  0  0  0  0  0
  186.2920  176.7920  135.2390 N   0  0  0  0  0  1  0  0  0  0  0  0
  189.4750  177.5030  140.0620 C   0  0  0  0  0  0  0  0  0  0  0  0
  189.6170  173.9370  137.0930 C   0  0  0  0  0  2  0  0  0  0  0  0
  187.2740  177.6230  135.9180 C   0  0  1  0  0  3  0  0  0  0  0  0
  190.5680  174.9220  137.7790 C   0  0  0  0  0  2  0  0  0  0  0  0
  188.4970  177.5980  140.9950 N   0  0  0  0  0  0  0  0  0  0  0  0
  189.7920  177.1680  145.7360 C   0  0  0  0  0  3  0  0  0  0  0  0
  190.4470  177.4880  137.9430 C   0  0  1  0  0  3  0  0  0  0  0  0
  187.0780  177.5520  137.4410 C   0  0  1  0  0  3  0  0  0  0  0  0
  191.4800  177.3730  138.9710 N   0  0  0  0  0  0  0  0  0  0  0  0
  188.0910  178.4180  138.1710 C   0  0  0  0  0  2  0  0  0  0  0  0
  191.6160  177.2200  141.6690 S   0  0  0  0  0  0  0  0  0  0  0  0
  190.7970  177.2190  143.1370 C   0  0  0  0  0  0  0  0  0  0  0  0
  191.1450  177.0290  145.4960 C   0  0  0  0  0  3  0  0  0  0  0  0
  188.9400  177.3380  144.6540 C   0  0  0  0  0  3  0  0  0  0  0  0
  185.6880  178.0290  137.8150 C   0  0  0  0  0  1  0  0  0  0  0  0
  189.3870  177.3720  143.3090 C   0  0  0  0  0  0  0  0  0  0  0  0
  190.4640  176.2570  137.0190 C   0  0  2  0  0  3  0  0  0  0  0  0
  188.6850  177.2490  135.4400 C   0  0  0  0  0  2  0  0  0  0  0  0
  189.2580  176.1530  136.2170 N   0  0  0  0  0  0  0  0  0  0  0  0
  188.8260  174.8060  136.2010 C   0  0  0  0  0  0  0  0  0  0  0  0
  1 27  2  0  0  0  0
  2  8  1  0  0  0  0
  3 18  1  0  0  0  0
  4  6  1  0  0  0  0
  4 23  1  0  0  0  0
  5 20  1  0  0  0  0
  8  3  1  0  0  0  0
  8 12  2  0  0  0  0
  9 11  1  0  0  0  0
 10  7  1  6  0  0  0
 10 15  1  0  0  0  0
 12  4  1  0  0  0  0
 14  2  1  0  0  0  0
 14 16  1  1  0  0  0
 15 22  1  6  0  0  0
 15 17  1  0  0  0  0
 16  3  2  0  0  0  0
 17  2  1  0  0  0  0
 18 19  1  0  0  0  0
 19 23  1  0  0  0  0
 19  5  2  0  0  0  0
 20 13  2  0  0  0  0
 21 13  1  0  0  0  0
 23 21  2  0  0  0  0
 24 11  1  1  0  0  0
 24 14  1  0  0  0  0
 25 10  1  0  0  0  0
 25 26  1  0  0  0  0
 26 24  1  0  0  0  0
 27 26  1  0  0  0  0
 27  9  1  0  0  0  0
M  END
>  <MODEL>
2

>  <REMARK>
 VINA RESULT:      -7.9      4.685      6.638
  Name = 
  0 active torsions:
  status: ('A' for Active; 'I' for Inactive)
                            x       y       z     vdW  Elec       q    Type
                         _______ _______ _______ _____ _____    ______ ____

>  <TORSDO>
F 0

$$$$
=
 OpenBabel10222420053D

 27 31  0  0  1  0  0  0  0  0999 V2000
  180.4990  176.1480  137.5430 O   0  0  0  0  0  0  0  0  0  0  0  0
  183.2960  179.0000  140.0440 N   0  0  0  0  0  0  0  0  0  0  0  0
  185.4590  178.6280  140.5810 C   0  0  0  0  0  0  0  0  0  0  0  0
  184.3830  178.5300  143.5900 N   0  0  0  0  0  0  0  0  0  0  0  0
  188.0670  177.8810  143.6420 N   0  0  0  0  0  0  0  0  0  0  0  0
  183.3910  178.6280  144.6610 C   0  0  0  0  0  1  0  0  0  0  0  0
  179.0800  178.5310  138.3680 N   0  0  0  0  0  1  0  0  0  0  0  0
  184.2150  178.7530  141.1010 C   0  0  0  0  0  0  0  0  0  0  0  0
  182.7760  175.5500  138.0640 C   0  0  0  0  0  2  0  0  0  0  0  0
  180.2970  179.2980  138.5750 C   0  0  1  0  0  3  0  0  0  0  0  0
  183.9770  176.4690  138.3090 C   0  0  0  0  0  2  0  0  0  0  0  0
  183.8120  178.7220  142.3940 N   0  0  0  0  0  0  0  0  0  0  0  0
  187.2130  177.7830  145.8430 C   0  0  0  0  0  3  0  0  0  0  0  0
  184.0460  178.9980  138.7890 C   0  0  1  0  0  3  0  0  0  0  0  0
  180.8570  179.0510  139.9850 C   0  0  1  0  0  3  0  0  0  0  0  0
  185.4410  178.7880  139.1710 N   0  0  0  0  0  0  0  0  0  0  0  0
  182.1270  179.8490  140.2260 C   0  0  0  0  0  2  0  0  0  0  0  0
  186.8530  178.3320  141.4340 S   0  0  0  0  0  0  0  0  0  0  0  0
  186.8430  178.1480  143.1050 C   0  0  0  0  0  0  0  0  0  0  0  0
  188.2760  177.6980  144.9670 C   0  0  0  0  0  3  0  0  0  0  0  0
  185.9520  178.0570  145.3320 C   0  0  0  0  0  3  0  0  0  0  0  0
  179.8370  179.4550  141.0330 C   0  0  0  0  0  1  0  0  0  0  0  0
  185.6970  178.2530  143.9520 C   0  0  0  0  0  0  0  0  0  0  0  0
  183.5700  177.8800  137.8430 C   0  0  2  0  0  3  0  0  0  0  0  0
  181.2880  179.0100  137.4380 C   0  0  0  0  0  2  0  0  0  0  0  0
  182.1230  177.8430  137.7170 N   0  0  0  0  0  0  0  0  0  0  0  0
  181.6870  176.4990  137.7660 C   0  0  0  0  0  0  0  0  0  0  0  0
  1 27  2  0  0  0  0
  2 17  1  0  0  0  0
  2  8  1  0  0  0  0
  3  8  1  0  0  0  0
  3 18  1  0  0  0  0
  4 23  1  0  0  0  0
  4  6  1  0  0  0  0
  5 20  1  0  0  0  0
  8 12  2  0  0  0  0
  9 11  1  0  0  0  0
 10  7  1  6  0  0  0
 10 15  1  0  0  0  0
 12  4  1  0  0  0  0
 14 16  1  1  0  0  0
 14  2  1  0  0  0  0
 15 17  1  0  0  0  0
 15 22  1  1  0  0  0
 16  3  2  0  0  0  0
 18 19  1  0  0  0  0
 19  5  2  0  0  0  0
 19 23  1  0  0  0  0
 20 13  2  0  0  0  0
 21 13  1  0  0  0  0
 23 21  2  0  0  0  0
 24 11  1  1  0  0  0
 24 14  1  0  0  0  0
 25 26  1  0  0  0  0
 25 10  1  0  0  0  0
 26 27  1  0  0  0  0
 26 24  1  0  0  0  0
 27  9  1  0  0  0  0
M  END
>  <MODEL>
3

>  <REMARK>
 VINA RESULT:      -6.8      1.742      2.314
  Name = 
  0 active torsions:
  status: ('A' for Active; 'I' for Inactive)
                            x       y       z     vdW  Elec       q    Type
                         _______ _______ _______ _____ _____    ______ ____

>  <TORSDO>
F 0

$$$$
=
 OpenBabel10222420053D

 27 31  0  0  1  0  0  0  0  0999 V2000
  182.0410  175.6060  137.6670 O   0  0  0  0  0  0  0  0  0  0  0  0
  185.2000  178.4960  139.6360 N   0  0  0  0  0  0  0  0  0  0  0  0
  187.4470  178.2530  139.6050 C   0  0  0  0  0  0  0  0  0  0  0  0
  187.1500  177.8870  142.7670 N   0  0  0  0  0  0  0  0  0  0  0  0
  190.7650  177.5110  141.8770 N   0  0  0  0  0  0  0  0  0  0  0  0
  186.4480  177.8440  144.0490 C   0  0  0  0  0  1  0  0  0  0  0  0
  180.7350  177.8210  138.9950 N   0  0  0  0  0  1  0  0  0  0  0  0
  186.3640  178.2520  140.4170 C   0  0  0  0  0  0  0  0  0  0  0  0
  184.4060  175.1480  137.5740 C   0  0  0  0  0  2  0  0  0  0  0  0
  181.9200  178.6630  138.9610 C   0  0  1  0  0  3  0  0  0  0  0  0
  185.5760  176.1370  137.5940 C   0  0  0  0  0  2  0  0  0  0  0  0
  186.2930  178.1110  141.7630 N   0  0  0  0  0  0  0  0  0  0  0  0
  190.4850  177.2120  144.2050 C   0  0  0  0  0  3  0  0  0  0  0  0
  185.6170  178.6280  138.2410 C   0  0  1  0  0  3  0  0  0  0  0  0
  182.8230  178.3690  140.1720 C   0  0  1  0  0  3  0  0  0  0  0  0
  187.0730  178.4990  138.2580 N   0  0  0  0  0  0  0  0  0  0  0  0
  184.0660  179.2430  140.1600 C   0  0  0  0  0  2  0  0  0  0  0  0
  189.0220  178.0080  140.0700 S   0  0  0  0  0  0  0  0  0  0  0  0
  189.4330  177.7200  141.6740 C   0  0  0  0  0  0  0  0  0  0  0  0
  191.3040  177.2620  143.0940 C   0  0  0  0  0  3  0  0  0  0  0  0
  189.1240  177.4240  144.0360 C   0  0  0  0  0  3  0  0  0  0  0  0
  182.0700  178.6300  141.4630 C   0  0  0  0  0  1  0  0  0  0  0  0
  188.5270  177.6860  142.7780 C   0  0  0  0  0  0  0  0  0  0  0  0
  184.9880  177.5390  137.3530 C   0  0  2  0  0  3  0  0  0  0  0  0
  182.6160  178.5200  137.6000 C   0  0  0  0  0  2  0  0  0  0  0  0
  183.5590  177.4040  137.5770 N   0  0  0  0  0  0  0  0  0  0  0  0
  183.2250  176.0300  137.6230 C   0  0  0  0  0  0  0  0  0  0  0  0
  2 17  1  0  0  0  0
  2  8  1  0  0  0  0
  3 18  1  0  0  0  0
  3  8  1  0  0  0  0
  4 23  1  0  0  0  0
  4  6  1  0  0  0  0
  5 20  1  0  0  0  0
  8 12  2  0  0  0  0
  9 11  1  0  0  0  0
  9 27  1  0  0  0  0
 10  7  1  6  0  0  0
 10 15  1  0  0  0  0
 12  4  1  0  0  0  0
 14 16  1  1  0  0  0
 14  2  1  0  0  0  0
 15 22  1  1  0  0  0
 16  3  2  0  0  0  0
 17 15  1  0  0  0  0
 18 19  1  0  0  0  0
 19  5  2  0  0  0  0
 19 23  1  0  0  0  0
 20 13  2  0  0  0  0
 21 13  1  0  0  0  0
 23 21  2  0  0  0  0
 24 26  1  0  0  0  0
 24 11  1  1  0  0  0
 24 14  1  0  0  0  0
 25 10  1  0  0  0  0
 26 25  1  0  0  0  0
 26 27  1  0  0  0  0
 27  1  2  0  0  0  0
M  END
>  <MODEL>
4

>  <REMARK>
 VINA RESULT:      -6.5      1.974      2.647
  Name = 
  0 active torsions:
  status: ('A' for Active; 'I' for Inactive)
                            x       y       z     vdW  Elec       q    Type
                         _______ _______ _______ _____ _____    ______ ____

>  <TORSDO>
F 0

$$$$
=
 OpenBabel10222420053D

 27 31  0  0  1  0  0  0  0  0999 V2000
  179.6470  181.7580  136.7680 O   0  0  0  0  0  0  0  0  0  0  0  0
  180.9590  178.4910  139.9010 N   0  0  0  0  0  0  0  0  0  0  0  0
  180.9940  178.7230  142.1490 C   0  0  0  0  0  0  0  0  0  0  0  0
  184.1590  178.3940  141.8330 N   0  0  0  0  0  0  0  0  0  0  0  0
  183.3920  178.9340  145.4550 N   0  0  0  0  0  0  0  0  0  0  0  0
  185.4160  178.1620  141.1220 C   0  0  0  0  0  1  0  0  0  0  0  0
  180.4550  179.3150  135.4430 N   0  0  0  0  0  1  0  0  0  0  0  0
  181.7810  178.5530  141.0600 C   0  0  0  0  0  0  0  0  0  0  0  0
  179.6700  182.2120  139.1350 C   0  0  0  0  0  2  0  0  0  0  0  0
  180.2460  178.4940  136.6250 C   0  0  1  0  0  3  0  0  0  0  0  0
  179.4810  181.2360  140.3000 C   0  0  0  0  0  2  0  0  0  0  0  0
  183.1250  178.3990  140.9810 N   0  0  0  0  0  0  0  0  0  0  0  0
  185.7270  178.7220  145.1610 C   0  0  0  0  0  3  0  0  0  0  0  0
  179.5720  178.6630  140.3270 C   0  0  1  0  0  3  0  0  0  0  0  0
  181.4960  178.5130  137.5200 C   0  0  1  0  0  3  0  0  0  0  0  0
  179.6240  178.7780  141.7830 N   0  0  0  0  0  0  0  0  0  0  0  0
  181.3030  177.6550  138.7600 C   0  0  0  0  0  2  0  0  0  0  0  0
  181.5100  178.8510  143.7220 S   0  0  0  0  0  0  0  0  0  0  0  0
  183.1410  178.7820  144.1240 C   0  0  0  0  0  0  0  0  0  0  0  0
  184.6360  178.9100  145.9870 C   0  0  0  0  0  3  0  0  0  0  0  0
  185.5090  178.5600  143.8000 C   0  0  0  0  0  3  0  0  0  0  0  0
  182.6960  177.9820  136.7580 C   0  0  0  0  0  1  0  0  0  0  0  0
  184.2200  178.5810  143.2100 C   0  0  0  0  0  0  0  0  0  0  0  0
  178.9380  179.9230  139.7080 C   0  0  2  0  0  3  0  0  0  0  0  0
  178.9530  178.9260  137.3300 C   0  0  0  0  0  2  0  0  0  0  0  0
  179.1780  180.0150  138.2780 N   0  0  0  0  0  0  0  0  0  0  0  0
  179.5190  181.3470  137.9500 C   0  0  0  0  0  0  0  0  0  0  0  0
  1 27  2  0  0  0  0
  2 14  1  0  0  0  0
  2  8  1  0  0  0  0
  3 18  1  0  0  0  0
  4 23  1  0  0  0  0
  5 20  1  0  0  0  0
  6  4  1  0  0  0  0
  8  3  1  0  0  0  0
  9 11  1  0  0  0  0
 10  7  1  6  0  0  0
 10 25  1  0  0  0  0
 10 15  1  0  0  0  0
 12  8  2  0  0  0  0
 12  4  1  0  0  0  0
 13 20  2  0  0  0  0
 14 16  1  1  0  0  0
 15 22  1  6  0  0  0
 15 17  1  0  0  0  0
 16  3  2  0  0  0  0
 17  2  1  0  0  0  0
 18 19  1  0  0  0  0
 19  5  2  0  0  0  0
 21 13  1  0  0  0  0
 23 21  2  0  0  0  0
 23 19  1  0  0  0  0
 24 11  1  1  0  0  0
 24 14  1  0  0  0  0
 25 26  1  0  0  0  0
 26 24  1  0  0  0  0
 27 26  1  0  0  0  0
 27  9  1  0  0  0  0
M  END
>  <MODEL>
5

>  <REMARK>
 VINA RESULT:      -6.3      2.916      5.128
  Name = 
  0 active torsions:
  status: ('A' for Active; 'I' for Inactive)
                            x       y       z     vdW  Elec       q    Type
                         _______ _______ _______ _____ _____    ______ ____

>  <TORSDO>
F 0

$$$$
=
 OpenBabel10222420053D

 27 31  0  0  1  0  0  0  0  0999 V2000
  182.2030  174.8970  138.4860 O   0  0  0  0  0  0  0  0  0  0  0  0
  185.9200  177.7280  137.8660 N   0  0  0  0  0  0  0  0  0  0  0  0
  187.9030  177.1590  136.9420 C   0  0  0  0  0  0  0  0  0  0  0  0
  189.0860  177.7410  139.8550 N   0  0  0  0  0  0  0  0  0  0  0  0
  191.8910  176.6050  137.6550 N   0  0  0  0  0  0  0  0  0  0  0  0
  189.0480  178.1610  141.2550 C   0  0  0  0  0  1  0  0  0  0  0  0
  181.6550  177.5610  139.4750 N   0  0  0  0  0  1  0  0  0  0  0  0
  187.3120  177.5450  138.0970 C   0  0  0  0  0  0  0  0  0  0  0  0
  184.2630  174.0900  137.5280 C   0  0  0  0  0  2  0  0  0  0  0  0
  182.6960  178.1770  138.6670 C   0  0  1  0  0  3  0  0  0  0  0  0
  185.3140  174.8620  136.7250 C   0  0  0  0  0  2  0  0  0  0  0  0
  187.8650  177.7970  139.3090 N   0  0  0  0  0  0  0  0  0  0  0  0
  192.7070  177.0140  139.8350 C   0  0  0  0  0  3  0  0  0  0  0  0
  185.6530  177.4020  136.4660 C   0  0  1  0  0  3  0  0  0  0  0  0
  184.0510  178.1050  139.3890 C   0  0  1  0  0  3  0  0  0  0  0  0
  186.9550  177.0700  135.8900 N   0  0  0  0  0  0  0  0  0  0  0  0
  185.1530  178.7490  138.5650 C   0  0  0  0  0  2  0  0  0  0  0  0
  189.5160  176.8270  136.7290 S   0  0  0  0  0  0  0  0  0  0  0  0
  190.6150  176.9410  137.9960 C   0  0  0  0  0  0  0  0  0  0  0  0
  192.9270  176.6310  138.5270 C   0  0  0  0  0  3  0  0  0  0  0  0
  191.4200  177.3670  140.2160 C   0  0  0  0  0  3  0  0  0  0  0  0
  183.9740  178.8240  140.7230 C   0  0  0  0  0  1  0  0  0  0  0  0
  190.3140  177.3510  139.3310 C   0  0  0  0  0  0  0  0  0  0  0  0
  184.6840  176.2120  136.3340 C   0  0  2  0  0  3  0  0  0  0  0  0
  182.6910  177.5590  137.2610 C   0  0  0  0  0  2  0  0  0  0  0  0
  183.5160  176.3550  137.1850 N   0  0  0  0  0  0  0  0  0  0  0  0
  183.2370  175.1140  137.8020 C   0  0  0  0  0  0  0  0  0  0  0  0
  2  8  1  0  0  0  0
  2 17  1  0  0  0  0
  3  8  1  0  0  0  0
  4  6  1  0  0  0  0
  5 19  2  0  0  0  0
  5 20  1  0  0  0  0
  8 12  2  0  0  0  0
  9 27  1  0  0  0  0
 10 15  1  0  0  0  0
 10  7  1  1  0  0  0
 11  9  1  0  0  0  0
 12  4  1  0  0  0  0
 13 21  1  0  0  0  0
 14 16  1  6  0  0  0
 14  2  1  0  0  0  0
 15 22  1  1  0  0  0
 16  3  2  0  0  0  0
 17 15  1  0  0  0  0
 18  3  1  0  0  0  0
 18 19  1  0  0  0  0
 19 23  1  0  0  0  0
 20 13  2  0  0  0  0
 23  4  1  0  0  0  0
 23 21  2  0  0  0  0
 24 14  1  0  0  0  0
 24 11  1  1  0  0  0
 24 26  1  0  0  0  0
 25 10  1  0  0  0  0
 26 25  1  0  0  0  0
 26 27  1  0  0  0  0
 27  1  2  0  0  0  0
M  END
>  <MODEL>
6

>  <REMARK>
 VINA RESULT:      -6.3      3.650      4.795
  Name = 
  0 active torsions:
  status: ('A' for Active; 'I' for Inactive)
                            x       y       z     vdW  Elec       q    Type
                         _______ _______ _______ _____ _____    ______ ____

>  <TORSDO>
F 0

$$$$
=
 OpenBabel10222420053D

 27 31  0  0  1  0  0  0  0  0999 V2000
  183.8800  174.1580  136.4690 O   0  0  0  0  0  0  0  0  0  0  0  0
  186.8110  177.5130  138.0070 N   0  0  0  0  0  0  0  0  0  0  0  0
  188.9480  177.2220  138.6860 C   0  0  0  0  0  0  0  0  0  0  0  0
  187.8470  178.1360  141.5450 N   0  0  0  0  0  0  0  0  0  0  0  0
  191.4900  177.3530  141.8860 N   0  0  0  0  0  0  0  0  0  0  0  0
  186.8550  178.6160  142.5060 C   0  0  0  0  0  1  0  0  0  0  0  0
  182.5870  176.7480  136.4660 N   0  0  0  0  0  1  0  0  0  0  0  0
  187.7090  177.5670  139.1090 C   0  0  0  0  0  0  0  0  0  0  0  0
  186.1170  173.6440  137.2060 C   0  0  0  0  0  2  0  0  0  0  0  0
  183.8440  177.4800  136.4480 C   0  0  1  0  0  3  0  0  0  0  0  0
  187.3640  174.5320  137.1760 C   0  0  0  0  0  2  0  0  0  0  0  0
  187.2960  177.9670  140.3370 N   0  0  0  0  0  0  0  0  0  0  0  0
  190.6170  177.9990  143.9850 C   0  0  0  0  0  3  0  0  0  0  0  0
  187.5690  177.0760  136.8360 C   0  0  1  0  0  3  0  0  0  0  0  0
  184.3790  177.6640  137.8780 C   0  0  1  0  0  3  0  0  0  0  0  0
  188.9470  176.9280  137.2970 N   0  0  0  0  0  0  0  0  0  0  0  0
  185.6900  178.4320  137.8840 C   0  0  0  0  0  2  0  0  0  0  0  0
  190.3170  177.1420  139.6210 S   0  0  0  0  0  0  0  0  0  0  0  0
  190.2860  177.4970  141.2640 C   0  0  0  0  0  0  0  0  0  0  0  0
  191.6800  177.5890  143.2060 C   0  0  0  0  0  3  0  0  0  0  0  0
  189.3760  178.1610  143.3840 C   0  0  0  0  0  3  0  0  0  0  0  0
  183.3760  178.4290  138.7200 C   0  0  0  0  0  1  0  0  0  0  0  0
  189.1420  177.9210  142.0070 C   0  0  0  0  0  0  0  0  0  0  0  0
  187.0380  175.7410  136.2800 C   0  0  2  0  0  3  0  0  0  0  0  0
  184.8250  176.7970  135.4850 C   0  0  0  0  0  2  0  0  0  0  0  0
  185.5930  175.7390  136.1380 N   0  0  0  0  0  0  0  0  0  0  0  0
  185.0830  174.5020  136.5970 C   0  0  0  0  0  0  0  0  0  0  0  0
  1 27  2  0  0  0  0
  2  8  1  0  0  0  0
  3  8  1  0  0  0  0
  3 18  1  0  0  0  0
  4 23  1  0  0  0  0
  4  6  1  0  0  0  0
  5 20  1  0  0  0  0
  8 12  2  0  0  0  0
 10  7  1  1  0  0  0
 10 15  1  0  0  0  0
 11  9  1  0  0  0  0
 12  4  1  0  0  0  0
 14 16  1  1  0  0  0
 14  2  1  0  0  0  0
 15 17  1  0  0  0  0
 15 22  1  1  0  0  0
 16  3  2  0  0  0  0
 17  2  1  0  0  0  0
 18 19  1  0  0  0  0
 19  5  2  0  0  0  0
 19 23  1  0  0  0  0
 20 13  2  0  0  0  0
 21 13  1  0  0  0  0
 23 21  2  0  0  0  0
 24 14  1  0  0  0  0
 24 11  1  1  0  0  0
 25 26  1  0  0  0  0
 25 10  1  0  0  0  0
 26 24  1  0  0  0  0
 26 27  1  0  0  0  0
 27  9  1  0  0  0  0
M  END
>  <MODEL>
7

>  <REMARK>
 VINA RESULT:      -6.3      3.543      4.891
  Name = 
  0 active torsions:
  status: ('A' for Active; 'I' for Inactive)
                            x       y       z     vdW  Elec       q    Type
                         _______ _______ _______ _____ _____    ______ ____

>  <TORSDO>
F 0

$$$$
=
 OpenBabel10222420053D

 27 31  0  0  1  0  0  0  0  0999 V2000
  190.9330  176.3650  140.3530 O   0  0  0  0  0  0  0  0  0  0  0  0
  187.4370  176.5150  137.1950 N   0  0  0  0  0  0  0  0  0  0  0  0
  185.4540  177.5720  137.4360 C   0  0  0  0  0  0  0  0  0  0  0  0
  184.2130  174.6270  137.3280 N   0  0  0  0  0  0  0  0  0  0  0  0
  181.4150  177.0610  137.8240 N   0  0  0  0  0  0  0  0  0  0  0  0
  184.2300  173.1720  137.1820 C   0  0  0  0  0  1  0  0  0  0  0  0
  191.6230  174.8780  137.9680 N   0  0  0  0  0  1  0  0  0  0  0  0
  186.0290  176.3520  137.3180 C   0  0  0  0  0  0  0  0  0  0  0  0
  188.8580  177.5030  140.8140 C   0  0  0  0  0  2  0  0  0  0  0  0
  190.6550  175.5760  137.1380 C   0  0  1  0  0  3  0  0  0  0  0  0
  187.8890  178.1670  139.8310 C   0  0  0  0  0  2  0  0  0  0  0  0
  185.4530  175.1270  137.2580 N   0  0  0  0  0  0  0  0  0  0  0  0
  180.5530  174.8600  137.7750 C   0  0  0  0  0  3  0  0  0  0  0  0
  187.7290  177.9450  137.2710 C   0  0  1  0  0  3  0  0  0  0  0  0
  189.2740  174.9090  137.2470 C   0  0  1  0  0  3  0  0  0  0  0  0
  186.4290  178.6010  137.3930 N   0  0  0  0  0  0  0  0  0  0  0  0
  188.2460  175.6190  136.3820 C   0  0  0  0  0  2  0  0  0  0  0  0
  183.8300  177.8780  137.6050 S   0  0  0  0  0  0  0  0  0  0  0  0
  182.6980  176.6360  137.6510 C   0  0  0  0  0  0  0  0  0  0  0  0
  180.3540  176.2220  137.8890 C   0  0  0  0  0  3  0  0  0  0  0  0
  181.8480  174.3920  137.5940 C   0  0  0  0  0  3  0  0  0  0  0  0
  189.3530  173.4610  136.7990 C   0  0  0  0  0  1  0  0  0  0  0  0
  182.9800  175.2410  137.5230 C   0  0  0  0  0  0  0  0  0  0  0  0
  188.6210  178.2810  138.4810 C   0  0  2  0  0  3  0  0  0  0  0  0
  190.6660  177.0730  137.4800 C   0  0  0  0  0  2  0  0  0  0  0  0
  189.7660  177.3930  138.5850 N   0  0  0  0  0  0  0  0  0  0  0  0
  189.9400  177.0180  139.9370 C   0  0  0  0  0  0  0  0  0  0  0  0
  2 14  1  0  0  0  0
  2  8  1  0  0  0  0
  3 18  1  0  0  0  0
  4 23  1  0  0  0  0
  5 20  1  0  0  0  0
  6  4  1  0  0  0  0
  8  3  1  0  0  0  0
 10 15  1  0  0  0  0
 10 25  1  0  0  0  0
 10  7  1  1  0  0  0
 11  9  1  0  0  0  0
 12  8  2  0  0  0  0
 12  4  1  0  0  0  0
 13 20  2  0  0  0  0
 14 16  1  1  0  0  0
 14 24  1  0  0  0  0
 15 22  1  6  0  0  0
 16  3  2  0  0  0  0
 17  2  1  0  0  0  0
 17 15  1  0  0  0  0
 18 19  1  0  0  0  0
 19  5  2  0  0  0  0
 21 13  1  0  0  0  0
 23 21  2  0  0  0  0
 23 19  1  0  0  0  0
 24 26  1  0  0  0  0
 24 11  1  1  0  0  0
 25 26  1  0  0  0  0
 26 27  1  0  0  0  0
 27  1  2  0  0  0  0
 27  9  1  0  0  0  0
M  END
>  <MODEL>
8

>  <REMARK>
 VINA RESULT:      -6.2      4.769      8.850
  Name = 
  0 active torsions:
  status: ('A' for Active; 'I' for Inactive)
                            x       y       z     vdW  Elec       q    Type
                         _______ _______ _______ _____ _____    ______ ____

>  <TORSDO>
F 0

$$$$
=
 OpenBabel10222420053D

 27 31  0  0  1  0  0  0  0  0999 V2000
  191.3680  175.2530  138.3100 O   0  0  0  0  0  0  0  0  0  0  0  0
  187.1940  176.8310  136.7950 N   0  0  0  0  0  0  0  0  0  0  0  0
  185.8060  178.2310  137.9000 C   0  0  0  0  0  0  0  0  0  0  0  0
  183.8200  175.7270  137.9660 N   0  0  0  0  0  0  0  0  0  0  0  0
  182.1840  178.5670  139.7700 N   0  0  0  0  0  0  0  0  0  0  0  0
  183.3700  174.3670  137.6690 C   0  0  0  0  0  1  0  0  0  0  0  0
  190.7370  174.1760  135.6990 N   0  0  0  0  0  1  0  0  0  0  0  0
  185.9320  176.9650  137.4370 C   0  0  0  0  0  0  0  0  0  0  0  0
  189.9980  176.7050  139.6610 C   0  0  0  0  0  2  0  0  0  0  0  0
  189.7830  175.2290  135.3920 C   0  0  1  0  0  3  0  0  0  0  0  0
  188.9810  177.7570  139.2100 C   0  0  0  0  0  2  0  0  0  0  0  0
  185.0470  175.9400  137.4740 N   0  0  0  0  0  0  0  0  0  0  0  0
  180.7700  176.6750  139.8220 C   0  0  0  0  0  3  0  0  0  0  0  0
  187.8900  178.1120  136.9050 C   0  0  1  0  0  3  0  0  0  0  0  0
  188.3960  174.8810  135.9550 C   0  0  1  0  0  3  0  0  0  0  0  0
  186.9570  179.0030  137.5930 N   0  0  0  0  0  0  0  0  0  0  0  0
  187.3810  175.9660  135.6400 C   0  0  0  0  0  2  0  0  0  0  0  0
  184.5010  178.8510  138.7190 S   0  0  0  0  0  0  0  0  0  0  0  0
  183.1510  177.9120  139.0670 C   0  0  0  0  0  0  0  0  0  0  0  0
  181.0190  177.9920  140.1510 C   0  0  0  0  0  3  0  0  0  0  0  0
  181.7310  175.9770  139.1030 C   0  0  0  0  0  3  0  0  0  0  0  0
  187.8990  173.5770  135.3590 C   0  0  0  0  0  1  0  0  0  0  0  0
  182.9600  176.5470  138.6890 C   0  0  0  0  0  0  0  0  0  0  0  0
  189.2010  177.9820  137.7030 C   0  0  2  0  0  3  0  0  0  0  0  0
  190.3390  176.5820  135.8610 C   0  0  0  0  0  2  0  0  0  0  0  0
  190.0070  176.8590  137.2570 N   0  0  0  0  0  0  0  0  0  0  0  0
  190.5230  176.1820  138.3860 C   0  0  0  0  0  0  0  0  0  0  0  0
  1 27  2  0  0  0  0
  2 14  1  0  0  0  0
  2  8  1  0  0  0  0
  3 18  1  0  0  0  0
  4 23  1  0  0  0  0
  5 20  1  0  0  0  0
  6  4  1  0  0  0  0
  8 12  2  0  0  0  0
  8  3  1  0  0  0  0
 10  7  1  1  0  0  0
 10 25  1  0  0  0  0
 10 15  1  0  0  0  0
 11  9  1  0  0  0  0
 12  4  1  0  0  0  0
 13 20  2  0  0  0  0
 14 16  1  1  0  0  0
 14 24  1  0  0  0  0
 15 22  1  6  0  0  0
 16  3  2  0  0  0  0
 17 15  1  0  0  0  0
 17  2  1  0  0  0  0
 18 19  1  0  0  0  0
 19  5  2  0  0  0  0
 21 13  1  0  0  0  0
 23 19  1  0  0  0  0
 23 21  2  0  0  0  0
 24 11  1  1  0  0  0
 25 26  1  0  0  0  0
 26 24  1  0  0  0  0
 26 27  1  0  0  0  0
 27  9  1  0  0  0  0
M  END
>  <MODEL>
9

>  <REMARK>
 VINA RESULT:      -6.0      4.980      8.614
  Name = 
  0 active torsions:
  status: ('A' for Active; 'I' for Inactive)
                            x       y       z     vdW  Elec       q    Type
                         _______ _______ _______ _____ _____    ______ ____

>  <TORSDO>
F 0

$$$$
