=
 OpenBabel10222417233D

 57 60  0  0  1  0  0  0  0  0999 V2000
  182.3050  178.7370  142.6510 C   0  0  0  0  0  2  0  0  0  0  0  0
  182.7510  178.8730  140.2390 C   0  0  2  0  0  3  0  0  0  0  0  0
  186.0830  178.4220  142.8430 O   0  0  0  0  0  0  0  0  0  0  0  0
  187.6820  178.7690  141.1560 C   0  0  0  0  0  2  0  0  0  0  0  0
  185.3260  178.6770  140.4210 C   0  0  1  0  0  3  0  0  0  0  0  0
  183.7760  178.9280  142.3630 C   0  0  1  0  0  3  0  0  0  0  0  0
  184.7410  178.2210  143.3040 C   0  0  2  0  0  3  0  0  0  0  0  0
  183.9430  178.3330  140.9960 C   0  0  1  0  0  3  0  0  0  0  0  0
  186.4120  178.5900  141.4880 C   0  0  0  0  0  0  0  0  0  0  0  0
  181.6360  178.9170  141.2910 C   0  0  0  0  0  2  0  0  0  0  0  0
  183.8680  179.7300  144.9300 O   0  0  0  0  0  0  0  0  0  0  0  0
  185.3340  178.1170  145.7660 N   0  0  0  0  0  2  0  0  0  0  0  0
  184.6090  178.7370  144.7000 C   0  0  0  0  0  0  0  0  0  0  0  0
  185.2440  178.5730  147.0380 O   0  0  0  0  0  0  0  0  0  0  0  0
  186.5610  178.8450  147.4160 C   0  0  0  0  0  2  0  0  0  0  0  0
  188.0340  177.0130  148.1710 C   0  0  0  0  0  1  0  0  0  0  0  0
  187.4820  177.7260  146.9550 C   0  0  2  0  0  3  0  0  0  0  0  0
  188.6430  178.2790  146.1390 C   0  0  0  0  0  2  0  0  0  0  0  0
  188.0290  176.5880  144.5730 O   0  0  0  0  0  0  0  0  0  0  0  0
  188.7720  177.5740  144.8270 C   0  0  0  0  0  0  0  0  0  0  0  0
  189.7240  178.0040  143.8520 N   0  0  0  0  0  2  0  0  0  0  0  0
  191.8370  178.4870  144.1340 C   0  0  0  0  0  1  0  0  0  0  0  0
  190.5540  179.0500  144.0820 O   0  0  0  0  0  0  0  0  0  0  0  0
  182.4020  178.0130  139.1910 O   0  0  0  0  0  0  0  0  0  0  0  0
  182.3990  178.8160  138.0410 C   0  0  2  0  0  3  0  0  0  0  0  0
  181.1900  180.6390  137.6740 C   0  0  0  0  0  1  0  0  0  0  0  0
  182.2870  180.1630  138.3990 O   0  0  0  0  0  0  0  0  0  0  0  0
  181.2610  178.4170  137.1080 C   0  0  0  0  0  2  0  0  0  0  0  0
  181.6120  177.1870  136.2870 C   0  0  0  0  0  1  0  0  0  0  0  0
  185.6310  177.9400  139.2500 O   0  0  0  0  0  0  0  0  0  0  0  0
  185.7100  178.8240  138.1590 C   0  0  0  0  0  2  0  0  0  0  0  0
  187.8820  176.7940  138.6140 F   0  0  0  0  0  0  0  0  0  0  0  0
  189.2610  177.8710  136.9840 C   0  0  2  0  0  3  0  0  0  0  0  0
  187.6490  177.4880  135.1430 O   0  0  0  0  0  0  0  0  0  0  0  0
  188.1310  178.0100  137.9970 C   0  0  1  0  0  3  0  0  0  0  0  0
  188.8350  177.0190  135.7740 C   0  0  2  0  0  3  0  0  0  0  0  0
  186.5590  177.6010  136.0530 C   0  0  2  0  0  3  0  0  0  0  0  0
  190.4060  177.3460  137.5890 O   0  0  0  0  0  1  0  0  0  0  0  0
  186.8970  178.5050  137.2500 C   0  0  1  0  0  3  0  0  0  0  0  0
  185.1050  176.0090  135.5240 C   0  0  0  0  0  1  0  0  0  0  0  0
  186.0920  176.3420  136.4530 O   0  0  0  0  0  0  0  0  0  0  0  0
  188.8090  175.5140  136.0540 C   0  0  0  0  0  2  0  0  0  0  0  0
  189.7630  174.8150  135.2090 N   0  0  0  0  0  2  0  0  0  0  0  0
  190.9360  174.0400  136.2240 S   0  0  0  0  0  0  0  0  0  0  0  0
  191.1660  172.6390  135.7290 O   0  0  0  0  0  0  0  0  0  0  0  0
  190.4370  173.9760  137.6410 O   0  0  0  0  0  0  0  0  0  0  0  0
  192.4180  174.9360  136.1810 N   0  0  0  0  0  2  0  0  0  0  0  0
  193.4580  174.0800  136.7290 C   0  0  0  0  0  2  0  0  0  0  0  0
  194.0770  175.7340  138.3410 O   0  0  0  0  0  1  0  0  0  0  0  0
  194.5770  174.9170  137.3260 C   0  0  1  0  0  3  0  0  0  0  0  0
  196.0780  172.8450  137.0000 C   0  0  1  0  0  3  0  0  0  0  0  0
  195.6040  173.6980  139.2570 O   0  0  0  0  0  1  0  0  0  0  0  0
  197.0600  173.9810  137.2900 C   0  0  2  0  0  3  0  0  0  0  0  0
  196.4330  171.7260  137.7570 O   0  0  0  0  0  1  0  0  0  0  0  0
  195.6620  174.0040  137.8960 C   0  0  2  0  0  0  0  0  0  0  0  0
  197.1900  174.8560  136.0530 C   0  0  0  0  0  2  0  0  0  0  0  0
  197.7210  176.0950  136.4150 O   0  0  0  0  0  1  0  0  0  0  0  0
  2 24  1  6  0  0  0
  2  8  1  0  0  0  0
  2 10  1  0  0  0  0
  3  7  1  0  0  0  0
  4  9  2  0  0  0  0
  5 30  1  6  0  0  0
  5  8  1  0  0  0  0
  5  9  1  0  0  0  0
  6  1  1  1  0  0  0
  6  7  1  0  0  0  0
  7 13  1  1  0  0  0
  8  6  1  0  0  0  0
  9  3  1  0  0  0  0
 10  1  1  0  0  0  0
 12 14  1  0  0  0  0
 13 11  2  0  0  0  0
 13 12  1  0  0  0  0
 14 15  1  0  0  0  0
 17 15  1  0  0  0  0
 17 16  1  0  0  0  0
 18 17  1  0  0  0  0
 19 20  2  0  0  0  0
 20 18  1  0  0  0  0
 21 23  1  0  0  0  0
 21 20  1  0  0  0  0
 23 22  1  0  0  0  0
 25 27  1  0  0  0  0
 25 24  1  0  0  0  0
 26 27  1  0  0  0  0
 28 25  1  0  0  0  0
 29 28  1  0  0  0  0
 31 30  1  0  0  0  0
 33 38  1  0  0  0  0
 33 35  1  0  0  0  0
 34 36  1  0  0  0  0
 34 37  1  0  0  0  0
 35 32  1  0  0  0  0
 36 42  1  0  0  0  0
 36 33  1  0  0  0  0
 37 41  1  0  0  0  0
 37 39  1  0  0  0  0
 39 35  1  0  0  0  0
 39 31  1  0  0  0  0
 40 41  1  0  0  0  0
 43 42  1  0  0  0  0
 43 44  1  0  0  0  0
 44 46  2  0  0  0  0
 45 44  2  0  0  0  0
 47 44  1  0  0  0  0
 47 48  1  0  0  0  0
 48 50  1  0  0  0  0
 50 55  1  0  0  0  0
 50 49  1  0  0  0  0
 51 53  1  0  0  0  0
 51 54  1  0  0  0  0
 51 55  1  0  0  0  0
 53 55  1  0  0  0  0
 55 52  1  0  0  0  0
 56 57  1  0  0  0  0
 56 53  1  0  0  0  0
M  END
>  <MODEL>
1

>  <REMARK>
 VINA RESULT:      -7.0      0.000      0.000
  Name = 
  23 active torsions:
  status: ('A' for Active; 'I' for Inactive)
    1  A    between atoms: C_1  and  C_10
    2  A    between atoms: C_2  and  C_35
    3  A    between atoms: N_3  and  C_9
    4  A    between atoms: N_3  and  S_25
    5  A    between atoms: C_7  and  O_38
    6  A    between atoms: C_9  and  C_45
    7  A    between atoms: C_10  and  O_18
    8  A    between atoms: C_10  and  O_38
    9  A    between atoms: C_13  and  O_22
   10  A    between atoms: C_13  and  C_52
   11  A    between atoms: N_15  and  C_16
   12  A    between atoms: N_15  and  S_25
   13  A    between atoms: C_16  and  C_57
   14  A    between atoms: O_22  and  C_29
   15  A    between atoms: N_27  and  O_42
   16  A    between atoms: C_28  and  C_37
   17  A    between atoms: C_33  and  C_43
   18  A    between atoms: N_40  and  O_55
   19  A    between atoms: O_42  and  C_49
   20  A    between atoms: C_43  and  C_51
   21  A    between atoms: C_46  and  O_50
   22  A    between atoms: C_49  and  C_51
   23  A    between atoms: C_54  and  C_57
                            x       y       z     vdW  Elec       q    Type
                         _______ _______ _______ _____ _____    ______ ____

>  <TORSDO>
F 23

$$$$
=
 OpenBabel10222417233D

 57 60  0  0  1  0  0  0  0  0999 V2000
  183.1350  178.6980  144.1590 C   0  0  0  0  0  2  0  0  0  0  0  0
  182.8520  178.9940  141.7370 C   0  0  2  0  0  3  0  0  0  0  0  0
  186.7640  178.1580  143.1820 O   0  0  0  0  0  0  0  0  0  0  0  0
  187.8100  178.5430  141.1130 C   0  0  0  0  0  2  0  0  0  0  0  0
  185.3410  178.6410  141.1210 C   0  0  1  0  0  3  0  0  0  0  0  0
  184.4630  178.8280  143.4510 C   0  0  1  0  0  3  0  0  0  0  0  0
  185.6080  177.9980  144.0140 C   0  0  2  0  0  3  0  0  0  0  0  0
  184.1700  178.3310  142.0660 C   0  0  1  0  0  3  0  0  0  0  0  0
  186.6860  178.4110  141.8020 C   0  0  0  0  0  0  0  0  0  0  0  0
  182.1070  179.0190  143.0770 C   0  0  0  0  0  2  0  0  0  0  0  0
  185.5220  179.5170  145.8500 O   0  0  0  0  0  0  0  0  0  0  0  0
  186.7350  177.5620  146.2430 N   0  0  0  0  0  2  0  0  0  0  0  0
  185.9370  178.4110  145.4130 C   0  0  0  0  0  0  0  0  0  0  0  0
  187.0600  177.9190  147.5090 O   0  0  0  0  0  0  0  0  0  0  0  0
  187.8970  176.8970  147.9650 C   0  0  0  0  0  2  0  0  0  0  0  0
  189.4170  178.7390  148.5910 C   0  0  0  0  0  1  0  0  0  0  0  0
  189.3450  177.3630  147.9640 C   0  0  2  0  0  3  0  0  0  0  0  0
  189.8900  177.4400  146.5440 C   0  0  0  0  0  2  0  0  0  0  0  0
  191.9600  176.7260  147.4910 O   0  0  0  0  0  0  0  0  0  0  0  0
  191.2550  176.8380  146.4520 C   0  0  0  0  0  0  0  0  0  0  0  0
  191.7730  176.3810  145.2010 N   0  0  0  0  0  2  0  0  0  0  0  0
  191.7070  177.4980  143.3230 C   0  0  0  0  0  1  0  0  0  0  0  0
  191.0610  176.4900  144.0530 O   0  0  0  0  0  0  0  0  0  0  0  0
  182.1430  178.2380  140.7960 O   0  0  0  0  0  0  0  0  0  0  0  0
  180.8060  178.6370  140.9350 C   0  0  2  0  0  3  0  0  0  0  0  0
  180.7670  176.5920  140.0750 C   0  0  0  0  0  1  0  0  0  0  0  0
  179.9550  177.5580  140.6770 O   0  0  0  0  0  0  0  0  0  0  0  0
  180.4890  179.7990  139.9990 C   0  0  0  0  0  2  0  0  0  0  0  0
  181.1930  179.6500  138.6610 C   0  0  0  0  0  1  0  0  0  0  0  0
  185.2270  177.9800  139.8730 O   0  0  0  0  0  0  0  0  0  0  0  0
  185.0480  178.9400  138.8600 C   0  0  0  0  0  2  0  0  0  0  0  0
  187.5400  177.2960  138.4880 F   0  0  0  0  0  0  0  0  0  0  0  0
  187.7230  178.0450  136.2250 C   0  0  2  0  0  3  0  0  0  0  0  0
  185.5470  177.0650  135.5630 O   0  0  0  0  0  0  0  0  0  0  0  0
  187.2100  178.3330  137.6300 C   0  0  1  0  0  3  0  0  0  0  0  0
  186.9580  176.8790  135.5710 C   0  0  2  0  0  3  0  0  0  0  0  0
  185.0240  177.3060  136.8650 C   0  0  2  0  0  3  0  0  0  0  0  0
  189.0980  177.7950  136.2410 O   0  0  0  0  0  1  0  0  0  0  0  0
  185.6970  178.5100  137.5450 C   0  0  1  0  0  3  0  0  0  0  0  0
  183.8890  175.4680  137.3780 C   0  0  0  0  0  1  0  0  0  0  0  0
  185.0730  176.1520  137.6590 O   0  0  0  0  0  0  0  0  0  0  0  0
  187.3770  175.4990  136.0810 C   0  0  0  0  0  2  0  0  0  0  0  0
  188.4730  174.9660  135.2890 N   0  0  0  0  0  2  0  0  0  0  0  0
  189.6060  174.1990  136.3560 S   0  0  0  0  0  0  0  0  0  0  0  0
  189.2100  172.7620  136.5430 O   0  0  0  0  0  0  0  0  0  0  0  0
  189.6000  174.8810  137.6960 O   0  0  0  0  0  0  0  0  0  0  0  0
  191.1950  174.2940  135.6730 N   0  0  0  0  0  2  0  0  0  0  0  0
  192.1450  174.1390  136.7640 C   0  0  0  0  0  2  0  0  0  0  0  0
  192.7620  176.4340  137.0210 O   0  0  0  0  0  1  0  0  0  0  0  0
  193.2490  175.1770  136.6600 C   0  0  1  0  0  3  0  0  0  0  0  0
  194.6530  173.3010  137.7400 C   0  0  1  0  0  3  0  0  0  0  0  0
  194.5840  175.5440  138.7460 O   0  0  0  0  0  1  0  0  0  0  0  0
  195.6800  174.1740  137.0180 C   0  0  2  0  0  3  0  0  0  0  0  0
  195.1230  173.0030  139.0200 O   0  0  0  0  0  1  0  0  0  0  0  0
  194.4080  174.7960  137.5810 C   0  0  2  0  0  0  0  0  0  0  0  0
  195.6020  173.9030  135.5230 C   0  0  0  0  0  2  0  0  0  0  0  0
  196.8560  174.1080  134.9480 O   0  0  0  0  0  1  0  0  0  0  0  0
  2 24  1  6  0  0  0
  2  8  1  0  0  0  0
  2 10  1  0  0  0  0
  3  7  1  0  0  0  0
  4  9  2  0  0  0  0
  5 30  1  6  0  0  0
  5  9  1  0  0  0  0
  5  8  1  0  0  0  0
  6  7  1  0  0  0  0
  6  1  1  1  0  0  0
  7 13  1  1  0  0  0
  8  6  1  0  0  0  0
  9  3  1  0  0  0  0
 10  1  1  0  0  0  0
 12 14  1  0  0  0  0
 13 11  2  0  0  0  0
 13 12  1  0  0  0  0
 14 15  1  0  0  0  0
 17 15  1  0  0  0  0
 17 16  1  0  0  0  0
 18 17  1  0  0  0  0
 20 18  1  0  0  0  0
 20 19  2  0  0  0  0
 21 20  1  0  0  0  0
 22 23  1  0  0  0  0
 23 21  1  0  0  0  0
 24 25  1  0  0  0  0
 26 27  1  0  0  0  0
 27 25  1  0  0  0  0
 28 25  1  0  0  0  0
 29 28  1  0  0  0  0
 31 30  1  0  0  0  0
 33 38  1  0  0  0  0
 33 35  1  0  0  0  0
 34 36  1  0  0  0  0
 34 37  1  0  0  0  0
 35 32  1  0  0  0  0
 36 42  1  0  0  0  0
 36 33  1  0  0  0  0
 37 39  1  0  0  0  0
 37 41  1  0  0  0  0
 39 35  1  0  0  0  0
 39 31  1  0  0  0  0
 40 41  1  0  0  0  0
 43 42  1  0  0  0  0
 43 44  1  0  0  0  0
 44 45  2  0  0  0  0
 44 46  2  0  0  0  0
 47 44  1  0  0  0  0
 47 48  1  0  0  0  0
 50 48  1  0  0  0  0
 50 49  1  0  0  0  0
 50 55  1  0  0  0  0
 51 54  1  0  0  0  0
 53 55  1  0  0  0  0
 53 51  1  0  0  0  0
 55 51  1  0  0  0  0
 55 52  1  0  0  0  0
 56 53  1  0  0  0  0
 57 56  1  0  0  0  0
M  END
>  <MODEL>
2

>  <REMARK>
 VINA RESULT:      -6.8      1.642      2.097
  Name = 
  23 active torsions:
  status: ('A' for Active; 'I' for Inactive)
    1  A    between atoms: C_1  and  C_10
    2  A    between atoms: C_2  and  C_35
    3  A    between atoms: N_3  and  C_9
    4  A    between atoms: N_3  and  S_25
    5  A    between atoms: C_7  and  O_38
    6  A    between atoms: C_9  and  C_45
    7  A    between atoms: C_10  and  O_18
    8  A    between atoms: C_10  and  O_38
    9  A    between atoms: C_13  and  O_22
   10  A    between atoms: C_13  and  C_52
   11  A    between atoms: N_15  and  C_16
   12  A    between atoms: N_15  and  S_25
   13  A    between atoms: C_16  and  C_57
   14  A    between atoms: O_22  and  C_29
   15  A    between atoms: N_27  and  O_42
   16  A    between atoms: C_28  and  C_37
   17  A    between atoms: C_33  and  C_43
   18  A    between atoms: N_40  and  O_55
   19  A    between atoms: O_42  and  C_49
   20  A    between atoms: C_43  and  C_51
   21  A    between atoms: C_46  and  O_50
   22  A    between atoms: C_49  and  C_51
   23  A    between atoms: C_54  and  C_57
                            x       y       z     vdW  Elec       q    Type
                         _______ _______ _______ _____ _____    ______ ____

>  <TORSDO>
F 23

$$$$
=
 OpenBabel10222417233D

 57 60  0  0  1  0  0  0  0  0999 V2000
  188.8140  173.6270  136.1010 C   0  0  0  0  0  2  0  0  0  0  0  0
  191.0430  174.4390  136.7350 C   0  0  2  0  0  3  0  0  0  0  0  0
  187.7020  176.8900  137.6920 O   0  0  0  0  0  0  0  0  0  0  0  0
  189.0080  178.7220  138.3710 C   0  0  0  0  0  2  0  0  0  0  0  0
  190.2400  176.6620  137.7900 C   0  0  1  0  0  3  0  0  0  0  0  0
  188.7820  175.0760  136.5280 C   0  0  1  0  0  3  0  0  0  0  0  0
  187.5370  175.5280  137.2770 C   0  0  2  0  0  3  0  0  0  0  0  0
  189.9510  175.1890  137.4620 C   0  0  1  0  0  3  0  0  0  0  0  0
  188.9530  177.4530  137.9940 C   0  0  0  0  0  0  0  0  0  0  0  0
  190.3010  173.2930  136.0350 C   0  0  0  0  0  2  0  0  0  0  0  0
  186.4130  175.5790  135.1750 O   0  0  0  0  0  0  0  0  0  0  0  0
  185.0480  175.1250  137.0140 N   0  0  0  0  0  2  0  0  0  0  0  0
  186.3180  175.4100  136.4200 C   0  0  0  0  0  0  0  0  0  0  0  0
  183.9250  175.0280  136.2630 O   0  0  0  0  0  0  0  0  0  0  0  0
  183.0800  174.1850  136.9880 C   0  0  0  0  0  2  0  0  0  0  0  0
  181.9070  174.4780  134.8360 C   0  0  0  0  0  1  0  0  0  0  0  0
  181.7450  174.0380  136.2750 C   0  0  2  0  0  3  0  0  0  0  0  0
  180.6770  174.8990  136.9360 C   0  0  0  0  0  2  0  0  0  0  0  0
  179.9560  173.3150  138.5670 O   0  0  0  0  0  0  0  0  0  0  0  0
  180.4210  174.4650  138.3440 C   0  0  0  0  0  0  0  0  0  0  0  0
  180.7000  175.3350  139.4430 N   0  0  0  0  0  2  0  0  0  0  0  0
  180.8310  177.2880  140.4130 C   0  0  0  0  0  1  0  0  0  0  0  0
  181.1890  176.5840  139.2550 O   0  0  0  0  0  0  0  0  0  0  0  0
  191.9810  173.9320  137.6440 O   0  0  0  0  0  0  0  0  0  0  0  0
  193.2180  174.0360  136.9920 C   0  0  2  0  0  3  0  0  0  0  0  0
  194.6070  172.6340  135.9780 C   0  0  0  0  0  1  0  0  0  0  0  0
  193.9660  172.8720  137.1980 O   0  0  0  0  0  0  0  0  0  0  0  0
  193.9880  175.2560  137.4870 C   0  0  0  0  0  2  0  0  0  0  0  0
  193.9040  176.4100  136.5020 C   0  0  0  0  0  1  0  0  0  0  0  0
  191.1650  176.8140  138.8520 O   0  0  0  0  0  0  0  0  0  0  0  0
  190.6000  177.6460  139.8370 C   0  0  0  0  0  2  0  0  0  0  0  0
  191.4480  178.4280  142.6150 F   0  0  0  0  0  0  0  0  0  0  0  0
  191.0930  176.1890  143.3770 C   0  0  2  0  0  3  0  0  0  0  0  0
  188.6790  176.2200  142.8230 O   0  0  0  0  0  0  0  0  0  0  0  0
  191.4140  177.1050  142.2020 C   0  0  1  0  0  3  0  0  0  0  0  0
  189.6420  176.3750  143.8600 C   0  0  2  0  0  3  0  0  0  0  0  0
  188.9280  177.0840  141.7180 C   0  0  2  0  0  3  0  0  0  0  0  0
  191.9980  176.3900  144.4230 O   0  0  0  0  0  1  0  0  0  0  0  0
  190.3400  176.8920  141.1410 C   0  0  1  0  0  3  0  0  0  0  0  0
  187.3380  178.6330  141.6600 C   0  0  0  0  0  1  0  0  0  0  0  0
  188.6630  178.4210  142.0430 O   0  0  0  0  0  0  0  0  0  0  0  0
  189.4230  177.6380  144.6950 C   0  0  0  0  0  2  0  0  0  0  0  0
  189.3420  177.3140  146.1090 N   0  0  0  0  0  2  0  0  0  0  0  0
  187.7590  177.7310  146.6830 S   0  0  0  0  0  0  0  0  0  0  0  0
  187.8910  178.6020  147.9010 O   0  0  0  0  0  0  0  0  0  0  0  0
  186.9990  176.4890  147.0580 O   0  0  0  0  0  0  0  0  0  0  0  0
  186.8980  178.5740  145.4390 N   0  0  0  0  0  2  0  0  0  0  0  0
  185.8470  177.6890  144.9630 C   0  0  0  0  0  2  0  0  0  0  0  0
  184.4910  179.1350  146.3000 O   0  0  0  0  0  1  0  0  0  0  0  0
  184.4830  178.3280  145.1620 C   0  0  1  0  0  3  0  0  0  0  0  0
  183.6390  178.3940  142.7250 C   0  0  1  0  0  3  0  0  0  0  0  0
  184.9370  180.2690  143.6470 O   0  0  0  0  0  1  0  0  0  0  0  0
  182.6750  179.3070  143.4840 C   0  0  2  0  0  3  0  0  0  0  0  0
  184.0280  179.0210  141.5390 O   0  0  0  0  0  1  0  0  0  0  0  0
  184.1220  179.1740  143.9410 C   0  0  2  0  0  0  0  0  0  0  0  0
  181.7110  178.4540  144.2930 C   0  0  0  0  0  2  0  0  0  0  0  0
  180.4090  178.6710  143.8430 O   0  0  0  0  0  1  0  0  0  0  0  0
  2  8  1  0  0  0  0
  2 24  1  1  0  0  0
  3  9  1  0  0  0  0
  5  9  1  0  0  0  0
  5 30  1  1  0  0  0
  6  1  1  1  0  0  0
  6  7  1  0  0  0  0
  6  8  1  0  0  0  0
  7 13  1  6  0  0  0
  7  3  1  0  0  0  0
  8  5  1  0  0  0  0
  9  4  2  0  0  0  0
 10  1  1  0  0  0  0
 10  2  1  0  0  0  0
 11 13  2  0  0  0  0
 13 12  1  0  0  0  0
 14 15  1  0  0  0  0
 14 12  1  0  0  0  0
 16 17  1  0  0  0  0
 17 18  1  0  0  0  0
 17 15  1  0  0  0  0
 18 20  1  0  0  0  0
 20 19  2  0  0  0  0
 20 21  1  0  0  0  0
 23 21  1  0  0  0  0
 23 22  1  0  0  0  0
 25 27  1  0  0  0  0
 25 28  1  0  0  0  0
 25 24  1  0  0  0  0
 26 27  1  0  0  0  0
 29 28  1  0  0  0  0
 30 31  1  0  0  0  0
 31 39  1  0  0  0  0
 33 36  1  0  0  0  0
 33 38  1  0  0  0  0
 34 36  1  0  0  0  0
 35 32  1  0  0  0  0
 35 33  1  0  0  0  0
 36 42  1  0  0  0  0
 37 41  1  0  0  0  0
 37 34  1  0  0  0  0
 39 37  1  0  0  0  0
 39 35  1  0  0  0  0
 40 41  1  0  0  0  0
 42 43  1  0  0  0  0
 43 44  1  0  0  0  0
 44 46  2  0  0  0  0
 44 45  2  0  0  0  0
 47 44  1  0  0  0  0
 48 50  1  0  0  0  0
 48 47  1  0  0  0  0
 50 49  1  0  0  0  0
 51 53  1  0  0  0  0
 51 55  1  0  0  0  0
 52 55  1  0  0  0  0
 53 55  1  0  0  0  0
 53 56  1  0  0  0  0
 54 51  1  0  0  0  0
 55 50  1  0  0  0  0
 57 56  1  0  0  0  0
M  END
>  <MODEL>
3

>  <REMARK>
 VINA RESULT:      -5.8      3.073     10.970
  Name = 
  23 active torsions:
  status: ('A' for Active; 'I' for Inactive)
    1  A    between atoms: C_1  and  C_10
    2  A    between atoms: C_2  and  C_35
    3  A    between atoms: N_3  and  C_9
    4  A    between atoms: N_3  and  S_25
    5  A    between atoms: C_7  and  O_38
    6  A    between atoms: C_9  and  C_45
    7  A    between atoms: C_10  and  O_18
    8  A    between atoms: C_10  and  O_38
    9  A    between atoms: C_13  and  O_22
   10  A    between atoms: C_13  and  C_52
   11  A    between atoms: N_15  and  C_16
   12  A    between atoms: N_15  and  S_25
   13  A    between atoms: C_16  and  C_57
   14  A    between atoms: O_22  and  C_29
   15  A    between atoms: N_27  and  O_42
   16  A    between atoms: C_28  and  C_37
   17  A    between atoms: C_33  and  C_43
   18  A    between atoms: N_40  and  O_55
   19  A    between atoms: O_42  and  C_49
   20  A    between atoms: C_43  and  C_51
   21  A    between atoms: C_46  and  O_50
   22  A    between atoms: C_49  and  C_51
   23  A    between atoms: C_54  and  C_57
                            x       y       z     vdW  Elec       q    Type
                         _______ _______ _______ _____ _____    ______ ____

>  <TORSDO>
F 23

$$$$
=
 OpenBabel10222417233D

 57 60  0  0  1  0  0  0  0  0999 V2000
  181.8970  177.9560  135.5110 C   0  0  0  0  0  2  0  0  0  0  0  0
  179.7700  178.5870  136.5670 C   0  0  2  0  0  3  0  0  0  0  0  0
  182.1740  175.6900  138.5450 O   0  0  0  0  0  0  0  0  0  0  0  0
  180.5360  175.1530  140.1430 C   0  0  0  0  0  2  0  0  0  0  0  0
  179.9930  177.0100  138.6070 C   0  0  1  0  0  3  0  0  0  0  0  0
  181.5310  177.0200  136.6400 C   0  0  1  0  0  3  0  0  0  0  0  0
  182.6900  176.4790  137.4660 C   0  0  2  0  0  3  0  0  0  0  0  0
  180.6820  177.8710  137.5370 C   0  0  1  0  0  3  0  0  0  0  0  0
  180.9300  175.9360  139.1490 C   0  0  0  0  0  0  0  0  0  0  0  0
  180.6570  178.8260  135.3380 C   0  0  0  0  0  2  0  0  0  0  0  0
  183.1280  174.9010  135.7330 O   0  0  0  0  0  0  0  0  0  0  0  0
  185.0180  175.6800  136.8610 N   0  0  0  0  0  2  0  0  0  0  0  0
  183.6070  175.6460  136.6300 C   0  0  0  0  0  0  0  0  0  0  0  0
  185.8700  174.9230  136.1270 O   0  0  0  0  0  0  0  0  0  0  0  0
  187.1250  175.1380  136.7010 C   0  0  0  0  0  2  0  0  0  0  0  0
  189.0930  174.5790  135.3190 C   0  0  0  0  0  1  0  0  0  0  0  0
  188.0970  175.6680  135.6590 C   0  0  2  0  0  3  0  0  0  0  0  0
  188.8520  176.8800  136.1850 C   0  0  0  0  0  2  0  0  0  0  0  0
  187.0510  178.3170  135.5720 O   0  0  0  0  0  0  0  0  0  0  0  0
  187.9320  178.0330  136.4270 C   0  0  0  0  0  0  0  0  0  0  0  0
  188.0350  178.8180  137.6170 N   0  0  0  0  0  2  0  0  0  0  0  0
  188.2470  178.1750  139.6940 C   0  0  0  0  0  1  0  0  0  0  0  0
  188.9730  178.5610  138.5590 O   0  0  0  0  0  0  0  0  0  0  0  0
  179.3380  179.8050  137.1050 O   0  0  0  0  0  0  0  0  0  0  0  0
  180.3360  180.7310  136.7680 C   0  0  2  0  0  3  0  0  0  0  0  0
  180.2590  182.3330  138.3010 C   0  0  0  0  0  1  0  0  0  0  0  0
  180.9730  181.1910  137.9250 O   0  0  0  0  0  0  0  0  0  0  0  0
  179.7460  181.9000  135.9860 C   0  0  0  0  0  2  0  0  0  0  0  0
  180.6660  182.3450  134.8620 C   0  0  0  0  0  1  0  0  0  0  0  0
  179.3830  177.7850  139.6240 O   0  0  0  0  0  0  0  0  0  0  0  0
  180.2760  178.7940  140.0290 C   0  0  0  0  0  2  0  0  0  0  0  0
  183.0190  179.9170  140.5370 F   0  0  0  0  0  0  0  0  0  0  0  0
  183.7080  177.8490  141.5200 C   0  0  2  0  0  3  0  0  0  0  0  0
  182.0240  177.9710  143.3310 O   0  0  0  0  0  0  0  0  0  0  0  0
  182.7700  178.5540  140.5470 C   0  0  1  0  0  3  0  0  0  0  0  0
  183.3830  178.2080  142.9810 C   0  0  2  0  0  3  0  0  0  0  0  0
  181.1150  178.6410  142.4630 C   0  0  2  0  0  3  0  0  0  0  0  0
  185.0420  178.1360  141.2180 O   0  0  0  0  0  1  0  0  0  0  0  0
  181.3400  178.2640  140.9890 C   0  0  1  0  0  3  0  0  0  0  0  0
  179.8320  180.3630  143.0250 C   0  0  0  0  0  1  0  0  0  0  0  0
  181.1380  180.0270  142.6660 O   0  0  0  0  0  0  0  0  0  0  0  0
  183.8760  179.5940  143.4030 C   0  0  0  0  0  2  0  0  0  0  0  0
  183.7720  179.7630  144.8430 N   0  0  0  0  0  2  0  0  0  0  0  0
  185.0890  178.9210  145.5950 S   0  0  0  0  0  0  0  0  0  0  0  0
  184.5650  177.6740  146.2510 O   0  0  0  0  0  0  0  0  0  0  0  0
  185.7270  179.7880  146.6450 O   0  0  0  0  0  0  0  0  0  0  0  0
  186.2710  178.5110  144.3980 N   0  0  0  0  0  2  0  0  0  0  0  0
  187.4300  177.9790  145.0970 C   0  0  0  0  0  2  0  0  0  0  0  0
  187.4390  176.7440  143.0500 O   0  0  0  0  0  1  0  0  0  0  0  0
  188.0930  176.8870  144.2740 C   0  0  1  0  0  3  0  0  0  0  0  0
  190.0280  178.5540  144.6440 C   0  0  1  0  0  3  0  0  0  0  0  0
  190.0930  176.9620  142.7700 O   0  0  0  0  0  1  0  0  0  0  0  0
  190.5680  177.2240  145.1720 C   0  0  2  0  0  3  0  0  0  0  0  0
  191.0020  179.1610  143.8480 O   0  0  0  0  0  1  0  0  0  0  0  0
  189.5600  177.2410  144.0300 C   0  0  2  0  0  0  0  0  0  0  0  0
  189.9350  176.9300  146.5230 C   0  0  0  0  0  2  0  0  0  0  0  0
  190.8200  176.1800  147.2970 O   0  0  0  0  0  1  0  0  0  0  0  0
  2 24  1  1  0  0  0
  2  8  1  0  0  0  0
  3  9  1  0  0  0  0
  5  9  1  0  0  0  0
  5 30  1  1  0  0  0
  6  1  1  6  0  0  0
  6  7  1  0  0  0  0
  6  8  1  0  0  0  0
  7 13  1  6  0  0  0
  7  3  1  0  0  0  0
  8  5  1  0  0  0  0
  9  4  2  0  0  0  0
 10  1  1  0  0  0  0
 10  2  1  0  0  0  0
 11 13  2  0  0  0  0
 13 12  1  0  0  0  0
 14 15  1  0  0  0  0
 14 12  1  0  0  0  0
 16 17  1  0  0  0  0
 17 18  1  0  0  0  0
 17 15  1  0  0  0  0
 18 20  1  0  0  0  0
 19 20  2  0  0  0  0
 20 21  1  0  0  0  0
 21 23  1  0  0  0  0
 23 22  1  0  0  0  0
 25 24  1  0  0  0  0
 25 27  1  0  0  0  0
 27 26  1  0  0  0  0
 28 25  1  0  0  0  0
 29 28  1  0  0  0  0
 30 31  1  0  0  0  0
 31 39  1  0  0  0  0
 32 35  1  0  0  0  0
 33 36  1  0  0  0  0
 35 39  1  0  0  0  0
 35 33  1  0  0  0  0
 36 34  1  0  0  0  0
 36 42  1  0  0  0  0
 37 41  1  0  0  0  0
 37 34  1  0  0  0  0
 38 33  1  0  0  0  0
 39 37  1  0  0  0  0
 41 40  1  0  0  0  0
 42 43  1  0  0  0  0
 43 44  1  0  0  0  0
 44 45  2  0  0  0  0
 44 46  2  0  0  0  0
 47 48  1  0  0  0  0
 47 44  1  0  0  0  0
 49 50  1  0  0  0  0
 50 48  1  0  0  0  0
 51 53  1  0  0  0  0
 52 55  1  0  0  0  0
 53 56  1  0  0  0  0
 54 51  1  0  0  0  0
 55 50  1  0  0  0  0
 55 51  1  0  0  0  0
 55 53  1  0  0  0  0
 56 57  1  0  0  0  0
M  END
>  <MODEL>
4

>  <REMARK>
 VINA RESULT:      -5.2      4.167      8.730
  Name = 
  23 active torsions:
  status: ('A' for Active; 'I' for Inactive)
    1  A    between atoms: C_1  and  C_10
    2  A    between atoms: C_2  and  C_35
    3  A    between atoms: N_3  and  C_9
    4  A    between atoms: N_3  and  S_25
    5  A    between atoms: C_7  and  O_38
    6  A    between atoms: C_9  and  C_45
    7  A    between atoms: C_10  and  O_18
    8  A    between atoms: C_10  and  O_38
    9  A    between atoms: C_13  and  O_22
   10  A    between atoms: C_13  and  C_52
   11  A    between atoms: N_15  and  C_16
   12  A    between atoms: N_15  and  S_25
   13  A    between atoms: C_16  and  C_57
   14  A    between atoms: O_22  and  C_29
   15  A    between atoms: N_27  and  O_42
   16  A    between atoms: C_28  and  C_37
   17  A    between atoms: C_33  and  C_43
   18  A    between atoms: N_40  and  O_55
   19  A    between atoms: O_42  and  C_49
   20  A    between atoms: C_43  and  C_51
   21  A    between atoms: C_46  and  O_50
   22  A    between atoms: C_49  and  C_51
   23  A    between atoms: C_54  and  C_57
                            x       y       z     vdW  Elec       q    Type
                         _______ _______ _______ _____ _____    ______ ____

>  <TORSDO>
F 23

$$$$
=
 OpenBabel10222417233D

 57 60  0  0  1  0  0  0  0  0999 V2000
  191.6200  176.6660  139.7290 C   0  0  0  0  0  2  0  0  0  0  0  0
  189.6290  178.0930  139.9070 C   0  0  2  0  0  3  0  0  0  0  0  0
  190.4130  176.2560  136.1530 O   0  0  0  0  0  0  0  0  0  0  0  0
  188.7410  177.4510  135.0110 C   0  0  0  0  0  2  0  0  0  0  0  0
  188.8560  177.8010  137.4540 C   0  0  1  0  0  3  0  0  0  0  0  0
  191.0230  176.9670  138.3740 C   0  0  1  0  0  3  0  0  0  0  0  0
  191.1020  175.8510  137.3420 C   0  0  2  0  0  3  0  0  0  0  0  0
  189.5750  177.2140  138.6780 C   0  0  1  0  0  3  0  0  0  0  0  0
  189.3160  177.1330  136.1620 C   0  0  0  0  0  0  0  0  0  0  0  0
  190.8430  177.5670  140.6830 C   0  0  0  0  0  2  0  0  0  0  0  0
  193.2310  174.9060  137.8520 O   0  0  0  0  0  0  0  0  0  0  0  0
  193.0760  175.9170  135.7540 N   0  0  0  0  0  2  0  0  0  0  0  0
  192.5210  175.5210  137.0110 C   0  0  0  0  0  0  0  0  0  0  0  0
  194.3640  175.6440  135.4350 O   0  0  0  0  0  0  0  0  0  0  0  0
  194.2970  174.5290  134.5960 C   0  0  0  0  0  2  0  0  0  0  0  0
  194.3250  172.2630  135.5760 C   0  0  0  0  0  1  0  0  0  0  0  0
  195.1920  173.4190  135.1240 C   0  0  2  0  0  3  0  0  0  0  0  0
  196.0200  173.9030  136.3060 C   0  0  0  0  0  2  0  0  0  0  0  0
  197.8570  173.8140  134.7860 O   0  0  0  0  0  0  0  0  0  0  0  0
  197.4200  174.2290  135.8940 C   0  0  0  0  0  0  0  0  0  0  0  0
  198.2710  175.0090  136.7360 N   0  0  0  0  0  2  0  0  0  0  0  0
  198.6130  174.7570  138.8790 C   0  0  0  0  0  1  0  0  0  0  0  0
  197.8540  175.4680  137.9400 O   0  0  0  0  0  0  0  0  0  0  0  0
  188.4610  177.9490  140.6670 O   0  0  0  0  0  0  0  0  0  0  0  0
  188.8900  177.4810  141.9170 C   0  0  2  0  0  3  0  0  0  0  0  0
  186.7860  177.9030  142.4780 C   0  0  0  0  0  1  0  0  0  0  0  0
  187.8070  176.9600  142.6310 O   0  0  0  0  0  0  0  0  0  0  0  0
  189.5610  178.5980  142.7100 C   0  0  0  0  0  2  0  0  0  0  0  0
  190.0200  178.1190  144.0770 C   0  0  0  0  0  1  0  0  0  0  0  0
  187.4480  177.8200  137.6030 O   0  0  0  0  0  0  0  0  0  0  0  0
  186.9680  176.4970  137.5970 C   0  0  0  0  0  2  0  0  0  0  0  0
  184.7710  174.4520  137.7900 F   0  0  0  0  0  0  0  0  0  0  0  0
  184.1500  174.8710  135.5190 C   0  0  2  0  0  3  0  0  0  0  0  0
  183.5980  177.2470  135.9470 O   0  0  0  0  0  0  0  0  0  0  0  0
  185.2540  174.8980  136.5700 C   0  0  1  0  0  3  0  0  0  0  0  0
  183.0720  175.9320  135.8030 C   0  0  2  0  0  3  0  0  0  0  0  0
  184.6120  177.3190  136.9450 C   0  0  2  0  0  3  0  0  0  0  0  0
  183.5870  173.5960  135.4250 O   0  0  0  0  0  1  0  0  0  0  0  0
  185.7600  176.3330  136.6750 C   0  0  1  0  0  3  0  0  0  0  0  0
  184.0870  178.4580  138.7780 C   0  0  0  0  0  1  0  0  0  0  0  0
  184.0770  177.1730  138.2310 O   0  0  0  0  0  0  0  0  0  0  0  0
  182.1060  175.5490  136.9270 C   0  0  0  0  0  2  0  0  0  0  0  0
  181.0060  176.4960  137.0070 N   0  0  0  0  0  2  0  0  0  0  0  0
  179.8620  175.9170  138.1750 S   0  0  0  0  0  0  0  0  0  0  0  0
  180.6020  175.2490  139.3000 O   0  0  0  0  0  0  0  0  0  0  0  0
  178.9360  174.9150  137.5440 O   0  0  0  0  0  0  0  0  0  0  0  0
  178.9340  177.2480  138.7820 N   0  0  0  0  0  2  0  0  0  0  0  0
  179.4910  177.6110  140.0760 C   0  0  0  0  0  2  0  0  0  0  0  0
  179.5590  179.7560  139.0220 O   0  0  0  0  0  1  0  0  0  0  0  0
  180.1660  178.9700  140.0030 C   0  0  1  0  0  3  0  0  0  0  0  0
  179.6990  178.7790  142.5330 C   0  0  1  0  0  3  0  0  0  0  0  0
  179.4810  180.9430  141.3840 O   0  0  0  0  0  1  0  0  0  0  0  0
  181.0890  179.4130  142.4510 C   0  0  2  0  0  3  0  0  0  0  0  0
  178.9330  179.4720  143.4730 O   0  0  0  0  0  1  0  0  0  0  0  0
  180.0630  179.6740  141.3550 C   0  0  2  0  0  0  0  0  0  0  0  0
  182.1030  178.3430  142.0780 C   0  0  0  0  0  2  0  0  0  0  0  0
  183.3820  178.7710  142.4350 O   0  0  0  0  0  1  0  0  0  0  0  0
  1 10  1  0  0  0  0
  2 24  1  1  0  0  0
  2 10  1  0  0  0  0
  3  9  1  0  0  0  0
  3  7  1  0  0  0  0
  4  9  2  0  0  0  0
  5 30  1  1  0  0  0
  5  8  1  0  0  0  0
  6  8  1  0  0  0  0
  6  1  1  1  0  0  0
  7 13  1  6  0  0  0
  7  6  1  0  0  0  0
  8  2  1  0  0  0  0
  9  5  1  0  0  0  0
 12 13  1  0  0  0  0
 13 11  2  0  0  0  0
 14 12  1  0  0  0  0
 15 17  1  0  0  0  0
 15 14  1  0  0  0  0
 17 16  1  0  0  0  0
 17 18  1  0  0  0  0
 19 20  2  0  0  0  0
 20 18  1  0  0  0  0
 20 21  1  0  0  0  0
 21 23  1  0  0  0  0
 23 22  1  0  0  0  0
 24 25  1  0  0  0  0
 25 27  1  0  0  0  0
 25 28  1  0  0  0  0
 26 27  1  0  0  0  0
 28 29  1  0  0  0  0
 31 30  1  0  0  0  0
 33 36  1  0  0  0  0
 33 35  1  0  0  0  0
 34 37  1  0  0  0  0
 35 39  1  0  0  0  0
 35 32  1  0  0  0  0
 36 34  1  0  0  0  0
 36 42  1  0  0  0  0
 37 41  1  0  0  0  0
 38 33  1  0  0  0  0
 39 37  1  0  0  0  0
 39 31  1  0  0  0  0
 41 40  1  0  0  0  0
 42 43  1  0  0  0  0
 43 44  1  0  0  0  0
 44 47  1  0  0  0  0
 44 45  2  0  0  0  0
 46 44  2  0  0  0  0
 47 48  1  0  0  0  0
 49 50  1  0  0  0  0
 50 48  1  0  0  0  0
 50 55  1  0  0  0  0
 51 54  1  0  0  0  0
 53 51  1  0  0  0  0
 55 52  1  0  0  0  0
 55 53  1  0  0  0  0
 55 51  1  0  0  0  0
 56 57  1  0  0  0  0
 56 53  1  0  0  0  0
M  END
>  <MODEL>
5

>  <REMARK>
 VINA RESULT:      -4.8      3.392     11.146
  Name = 
  23 active torsions:
  status: ('A' for Active; 'I' for Inactive)
    1  A    between atoms: C_1  and  C_10
    2  A    between atoms: C_2  and  C_35
    3  A    between atoms: N_3  and  C_9
    4  A    between atoms: N_3  and  S_25
    5  A    between atoms: C_7  and  O_38
    6  A    between atoms: C_9  and  C_45
    7  A    between atoms: C_10  and  O_18
    8  A    between atoms: C_10  and  O_38
    9  A    between atoms: C_13  and  O_22
   10  A    between atoms: C_13  and  C_52
   11  A    between atoms: N_15  and  C_16
   12  A    between atoms: N_15  and  S_25
   13  A    between atoms: C_16  and  C_57
   14  A    between atoms: O_22  and  C_29
   15  A    between atoms: N_27  and  O_42
   16  A    between atoms: C_28  and  C_37
   17  A    between atoms: C_33  and  C_43
   18  A    between atoms: N_40  and  O_55
   19  A    between atoms: O_42  and  C_49
   20  A    between atoms: C_43  and  C_51
   21  A    between atoms: C_46  and  O_50
   22  A    between atoms: C_49  and  C_51
   23  A    between atoms: C_54  and  C_57
                            x       y       z     vdW  Elec       q    Type
                         _______ _______ _______ _____ _____    ______ ____

>  <TORSDO>
F 23

$$$$
=
 OpenBabel10222417233D

 57 60  0  0  1  0  0  0  0  0999 V2000
  191.7150  176.6840  139.8190 C   0  0  0  0  0  2  0  0  0  0  0  0
  189.4470  177.5470  140.2000 C   0  0  2  0  0  3  0  0  0  0  0  0
  190.5800  176.6720  136.1950 O   0  0  0  0  0  0  0  0  0  0  0  0
  188.6560  177.6330  135.2470 C   0  0  0  0  0  2  0  0  0  0  0  0
  188.7250  177.5420  137.7140 C   0  0  1  0  0  3  0  0  0  0  0  0
  191.0420  177.0830  138.5260 C   0  0  1  0  0  3  0  0  0  0  0  0
  191.3640  176.2270  137.3090 C   0  0  2  0  0  3  0  0  0  0  0  0
  189.5810  176.9230  138.8300 C   0  0  1  0  0  3  0  0  0  0  0  0
  189.3080  177.2510  136.3350 C   0  0  0  0  0  0  0  0  0  0  0  0
  190.7630  177.1860  140.9000 C   0  0  0  0  0  2  0  0  0  0  0  0
  193.6280  176.7990  137.7900 O   0  0  0  0  0  0  0  0  0  0  0  0
  193.2770  175.8370  135.6920 N   0  0  0  0  0  2  0  0  0  0  0  0
  192.8160  176.3050  136.9630 C   0  0  0  0  0  0  0  0  0  0  0  0
  194.5850  175.9110  135.3470 O   0  0  0  0  0  0  0  0  0  0  0  0
  194.9360  174.6060  134.9920 C   0  0  0  0  0  2  0  0  0  0  0  0
  197.0770  173.6110  135.7140 C   0  0  0  0  0  1  0  0  0  0  0  0
  195.6590  173.9240  136.1430 C   0  0  2  0  0  3  0  0  0  0  0  0
  194.9650  172.6260  136.5300 C   0  0  0  0  0  2  0  0  0  0  0  0
  195.2740  173.1780  138.8290 O   0  0  0  0  0  0  0  0  0  0  0  0
  195.2310  172.2700  137.9570 C   0  0  0  0  0  0  0  0  0  0  0  0
  195.4330  170.9100  138.3490 N   0  0  0  0  0  2  0  0  0  0  0  0
  196.7560  169.6390  137.1620 C   0  0  0  0  0  1  0  0  0  0  0  0
  195.4090  169.8990  137.4490 O   0  0  0  0  0  0  0  0  0  0  0  0
  188.3580  176.9960  140.8870 O   0  0  0  0  0  0  0  0  0  0  0  0
  188.0260  177.9410  141.8690 C   0  0  2  0  0  3  0  0  0  0  0  0
  187.2390  177.3780  143.8650 C   0  0  0  0  0  1  0  0  0  0  0  0
  188.4230  177.4830  143.1280 O   0  0  0  0  0  0  0  0  0  0  0  0
  186.5280  178.2280  141.8560 C   0  0  0  0  0  2  0  0  0  0  0  0
  186.0890  178.8640  140.5470 C   0  0  0  0  0  1  0  0  0  0  0  0
  187.3540  177.2030  137.8250 O   0  0  0  0  0  0  0  0  0  0  0  0
  187.2180  175.8050  137.7320 C   0  0  0  0  0  2  0  0  0  0  0  0
  185.2100  173.5770  137.9510 F   0  0  0  0  0  0  0  0  0  0  0  0
  184.8410  173.6470  135.5890 C   0  0  2  0  0  3  0  0  0  0  0  0
  184.0260  175.9850  135.6310 O   0  0  0  0  0  0  0  0  0  0  0  0
  185.7980  173.9190  136.7440 C   0  0  1  0  0  3  0  0  0  0  0  0
  183.6430  174.6140  135.6070 C   0  0  2  0  0  3  0  0  0  0  0  0
  184.8970  176.2860  136.7170 C   0  0  2  0  0  3  0  0  0  0  0  0
  184.4120  172.3170  135.6050 O   0  0  0  0  0  1  0  0  0  0  0  0
  186.1550  175.4020  136.7120 C   0  0  1  0  0  3  0  0  0  0  0  0
  183.7930  177.5520  138.1700 C   0  0  0  0  0  1  0  0  0  0  0  0
  184.2210  176.2430  137.9440 O   0  0  0  0  0  0  0  0  0  0  0  0
  182.5840  174.2710  136.6570 C   0  0  0  0  0  2  0  0  0  0  0  0
  181.3720  175.0430  136.4390 N   0  0  0  0  0  2  0  0  0  0  0  0
  180.4480  175.0480  137.9070 S   0  0  0  0  0  0  0  0  0  0  0  0
  181.3850  175.1450  139.0780 O   0  0  0  0  0  0  0  0  0  0  0  0
  179.6560  173.7760  138.0260 O   0  0  0  0  0  0  0  0  0  0  0  0
  179.3620  176.3990  137.9000 N   0  0  0  0  0  2  0  0  0  0  0  0
  180.1370  177.5790  138.2480 C   0  0  0  0  0  2  0  0  0  0  0  0
  179.1960  178.2070  136.1420 O   0  0  0  0  0  1  0  0  0  0  0  0
  180.1540  178.5640  137.0910 C   0  0  1  0  0  3  0  0  0  0  0  0
  181.0590  180.9120  137.6630 C   0  0  1  0  0  3  0  0  0  0  0  0
  178.9660  180.1030  138.6690 O   0  0  0  0  0  1  0  0  0  0  0  0
  179.9260  181.1750  136.6700 C   0  0  2  0  0  3  0  0  0  0  0  0
  180.9490  181.8030  138.7320 O   0  0  0  0  0  1  0  0  0  0  0  0
  179.8610  179.9730  137.6050 C   0  0  2  0  0  0  0  0  0  0  0  0
  180.3970  180.8170  135.2690 C   0  0  0  0  0  2  0  0  0  0  0  0
  180.7940  181.9760  134.6020 O   0  0  0  0  0  1  0  0  0  0  0  0
  1 10  1  0  0  0  0
  2 24  1  1  0  0  0
  2 10  1  0  0  0  0
  3  9  1  0  0  0  0
  3  7  1  0  0  0  0
  4  9  2  0  0  0  0
  5 30  1  6  0  0  0
  5  8  1  0  0  0  0
  6  8  1  0  0  0  0
  6  1  1  1  0  0  0
  7 13  1  6  0  0  0
  7  6  1  0  0  0  0
  8  2  1  0  0  0  0
  9  5  1  0  0  0  0
 12 13  1  0  0  0  0
 13 11  2  0  0  0  0
 14 12  1  0  0  0  0
 15 14  1  0  0  0  0
 15 17  1  0  0  0  0
 16 17  1  0  0  0  0
 17 18  1  0  0  0  0
 18 20  1  0  0  0  0
 20 21  1  0  0  0  0
 20 19  2  0  0  0  0
 22 23  1  0  0  0  0
 23 21  1  0  0  0  0
 24 25  1  0  0  0  0
 25 27  1  0  0  0  0
 27 26  1  0  0  0  0
 28 25  1  0  0  0  0
 29 28  1  0  0  0  0
 31 30  1  0  0  0  0
 33 38  1  0  0  0  0
 33 36  1  0  0  0  0
 33 35  1  0  0  0  0
 34 37  1  0  0  0  0
 35 32  1  0  0  0  0
 36 34  1  0  0  0  0
 36 42  1  0  0  0  0
 37 41  1  0  0  0  0
 39 37  1  0  0  0  0
 39 35  1  0  0  0  0
 39 31  1  0  0  0  0
 41 40  1  0  0  0  0
 43 42  1  0  0  0  0
 43 44  1  0  0  0  0
 44 46  2  0  0  0  0
 44 45  2  0  0  0  0
 47 44  1  0  0  0  0
 47 48  1  0  0  0  0
 49 50  1  0  0  0  0
 50 55  1  0  0  0  0
 50 48  1  0  0  0  0
 51 54  1  0  0  0  0
 53 55  1  0  0  0  0
 53 51  1  0  0  0  0
 55 51  1  0  0  0  0
 55 52  1  0  0  0  0
 56 53  1  0  0  0  0
 57 56  1  0  0  0  0
M  END
>  <MODEL>
6

>  <REMARK>
 VINA RESULT:      -4.7      3.421     10.952
  Name = 
  23 active torsions:
  status: ('A' for Active; 'I' for Inactive)
    1  A    between atoms: C_1  and  C_10
    2  A    between atoms: C_2  and  C_35
    3  A    between atoms: N_3  and  C_9
    4  A    between atoms: N_3  and  S_25
    5  A    between atoms: C_7  and  O_38
    6  A    between atoms: C_9  and  C_45
    7  A    between atoms: C_10  and  O_18
    8  A    between atoms: C_10  and  O_38
    9  A    between atoms: C_13  and  O_22
   10  A    between atoms: C_13  and  C_52
   11  A    between atoms: N_15  and  C_16
   12  A    between atoms: N_15  and  S_25
   13  A    between atoms: C_16  and  C_57
   14  A    between atoms: O_22  and  C_29
   15  A    between atoms: N_27  and  O_42
   16  A    between atoms: C_28  and  C_37
   17  A    between atoms: C_33  and  C_43
   18  A    between atoms: N_40  and  O_55
   19  A    between atoms: O_42  and  C_49
   20  A    between atoms: C_43  and  C_51
   21  A    between atoms: C_46  and  O_50
   22  A    between atoms: C_49  and  C_51
   23  A    between atoms: C_54  and  C_57
                            x       y       z     vdW  Elec       q    Type
                         _______ _______ _______ _____ _____    ______ ____

>  <TORSDO>
F 23

$$$$
=
 OpenBabel10222417233D

 57 60  0  0  1  0  0  0  0  0999 V2000
  184.1730  178.2880  142.8260 C   0  0  0  0  0  2  0  0  0  0  0  0
  183.4150  178.7760  140.5400 C   0  0  2  0  0  3  0  0  0  0  0  0
  187.5800  178.1700  141.1540 O   0  0  0  0  0  0  0  0  0  0  0  0
  188.1840  178.8350  138.9830 C   0  0  0  0  0  2  0  0  0  0  0  0
  185.7610  178.7080  139.4490 C   0  0  1  0  0  3  0  0  0  0  0  0
  185.3300  178.6010  141.9060 C   0  0  1  0  0  3  0  0  0  0  0  0
  186.6180  177.8310  142.1610 C   0  0  2  0  0  3  0  0  0  0  0  0
  184.8160  178.2080  140.5520 C   0  0  1  0  0  3  0  0  0  0  0  0
  187.2240  178.5390  139.8470 C   0  0  0  0  0  0  0  0  0  0  0  0
  182.9380  178.6120  141.9890 C   0  0  0  0  0  2  0  0  0  0  0  0
  188.2160  178.8460  143.6100 O   0  0  0  0  0  0  0  0  0  0  0  0
  186.5410  177.6280  144.6860 N   0  0  0  0  0  2  0  0  0  0  0  0
  187.1750  178.1420  143.5120 C   0  0  0  0  0  0  0  0  0  0  0  0
  187.0340  177.8830  145.9220 O   0  0  0  0  0  0  0  0  0  0  0  0
  187.8260  176.7740  146.2270 C   0  0  0  0  0  2  0  0  0  0  0  0
  188.7240  178.2650  147.9780 C   0  0  0  0  0  1  0  0  0  0  0  0
  189.0880  177.2120  146.9530 C   0  0  2  0  0  3  0  0  0  0  0  0
  190.1000  177.8020  145.9800 C   0  0  0  0  0  2  0  0  0  0  0  0
  192.0820  176.8650  146.9190 O   0  0  0  0  0  0  0  0  0  0  0  0
  191.3370  176.9660  145.9070 C   0  0  0  0  0  0  0  0  0  0  0  0
  191.6880  176.2760  144.7060 N   0  0  0  0  0  2  0  0  0  0  0  0
  191.8180  176.7510  142.5770 C   0  0  0  0  0  1  0  0  0  0  0  0
  190.9280  176.3630  143.5880 O   0  0  0  0  0  0  0  0  0  0  0  0
  182.5960  178.0480  139.6690 O   0  0  0  0  0  0  0  0  0  0  0  0
  181.9330  179.0110  138.8950 C   0  0  2  0  0  3  0  0  0  0  0  0
  179.9390  179.4100  138.0090 C   0  0  0  0  0  1  0  0  0  0  0  0
  180.5660  179.0040  139.1910 O   0  0  0  0  0  0  0  0  0  0  0  0
  182.1570  178.7560  137.4080 C   0  0  0  0  0  2  0  0  0  0  0  0
  182.3760  177.2810  137.1180 C   0  0  0  0  0  1  0  0  0  0  0  0
  185.4600  178.1560  138.1800 O   0  0  0  0  0  0  0  0  0  0  0  0
  185.9440  176.8360  138.1260 C   0  0  0  0  0  2  0  0  0  0  0  0
  188.8320  176.3920  137.4120 F   0  0  0  0  0  0  0  0  0  0  0  0
  188.3330  176.7190  135.0960 C   0  0  2  0  0  3  0  0  0  0  0  0
  186.7790  174.7930  135.0010 O   0  0  0  0  0  0  0  0  0  0  0  0
  187.9470  177.0090  136.5420 C   0  0  1  0  0  3  0  0  0  0  0  0
  188.1040  175.2400  134.7340 C   0  0  2  0  0  3  0  0  0  0  0  0
  186.3920  175.0180  136.3530 C   0  0  2  0  0  3  0  0  0  0  0  0
  189.6560  177.0960  134.8520 O   0  0  0  0  0  1  0  0  0  0  0  0
  186.5260  176.4960  136.7550 C   0  0  1  0  0  3  0  0  0  0  0  0
  186.4670  172.9180  137.0720 C   0  0  0  0  0  1  0  0  0  0  0  0
  187.0750  174.1640  137.2300 O   0  0  0  0  0  0  0  0  0  0  0  0
  189.1750  174.2950  135.2820 C   0  0  0  0  0  2  0  0  0  0  0  0
  190.5060  174.8190  135.0250 N   0  0  0  0  0  2  0  0  0  0  0  0
  191.4480  174.6750  136.4750 S   0  0  0  0  0  0  0  0  0  0  0  0
  190.6240  173.9950  137.5310 O   0  0  0  0  0  0  0  0  0  0  0  0
  191.8450  176.0360  136.9740 O   0  0  0  0  0  0  0  0  0  0  0  0
  192.8750  173.7490  136.1460 N   0  0  0  0  0  2  0  0  0  0  0  0
  193.6880  173.7640  137.3510 C   0  0  0  0  0  2  0  0  0  0  0  0
  195.1520  175.4880  138.1260 O   0  0  0  0  0  1  0  0  0  0  0  0
  194.9720  174.5420  137.1170 C   0  0  1  0  0  3  0  0  0  0  0  0
  196.3820  172.8370  135.7890 C   0  0  1  0  0  3  0  0  0  0  0  0
  196.4090  172.8320  138.2480 O   0  0  0  0  0  1  0  0  0  0  0  0
  197.3940  173.8860  136.2520 C   0  0  2  0  0  3  0  0  0  0  0  0
  196.9040  171.5630  136.0200 O   0  0  0  0  0  1  0  0  0  0  0  0
  196.1630  173.5850  137.0980 C   0  0  2  0  0  0  0  0  0  0  0  0
  197.2420  175.1370  135.4000 C   0  0  0  0  0  2  0  0  0  0  0  0
  197.7420  176.2370  136.0960 O   0  0  0  0  0  1  0  0  0  0  0  0
  2 24  1  6  0  0  0
  2  8  1  0  0  0  0
  2 10  1  0  0  0  0
  3  7  1  0  0  0  0
  4  9  2  0  0  0  0
  5 30  1  6  0  0  0
  5  9  1  0  0  0  0
  5  8  1  0  0  0  0
  6  7  1  0  0  0  0
  6  1  1  1  0  0  0
  7 13  1  1  0  0  0
  8  6  1  0  0  0  0
  9  3  1  0  0  0  0
 10  1  1  0  0  0  0
 12 14  1  0  0  0  0
 13 11  2  0  0  0  0
 13 12  1  0  0  0  0
 14 15  1  0  0  0  0
 15 17  1  0  0  0  0
 17 16  1  0  0  0  0
 18 17  1  0  0  0  0
 20 18  1  0  0  0  0
 20 19  2  0  0  0  0
 21 20  1  0  0  0  0
 22 23  1  0  0  0  0
 23 21  1  0  0  0  0
 25 27  1  0  0  0  0
 25 24  1  0  0  0  0
 26 27  1  0  0  0  0
 28 25  1  0  0  0  0
 29 28  1  0  0  0  0
 31 30  1  0  0  0  0
 33 35  1  0  0  0  0
 34 37  1  0  0  0  0
 35 39  1  0  0  0  0
 35 32  1  0  0  0  0
 36 34  1  0  0  0  0
 36 33  1  0  0  0  0
 36 42  1  0  0  0  0
 37 39  1  0  0  0  0
 37 41  1  0  0  0  0
 38 33  1  0  0  0  0
 39 31  1  0  0  0  0
 40 41  1  0  0  0  0
 43 42  1  0  0  0  0
 43 44  1  0  0  0  0
 44 46  2  0  0  0  0
 44 45  2  0  0  0  0
 47 44  1  0  0  0  0
 47 48  1  0  0  0  0
 50 48  1  0  0  0  0
 50 49  1  0  0  0  0
 51 54  1  0  0  0  0
 51 53  1  0  0  0  0
 51 55  1  0  0  0  0
 53 55  1  0  0  0  0
 55 50  1  0  0  0  0
 55 52  1  0  0  0  0
 56 57  1  0  0  0  0
 56 53  1  0  0  0  0
M  END
>  <MODEL>
7

>  <REMARK>
 VINA RESULT:      -4.6      1.666      2.064
  Name = 
  23 active torsions:
  status: ('A' for Active; 'I' for Inactive)
    1  A    between atoms: C_1  and  C_10
    2  A    between atoms: C_2  and  C_35
    3  A    between atoms: N_3  and  C_9
    4  A    between atoms: N_3  and  S_25
    5  A    between atoms: C_7  and  O_38
    6  A    between atoms: C_9  and  C_45
    7  A    between atoms: C_10  and  O_18
    8  A    between atoms: C_10  and  O_38
    9  A    between atoms: C_13  and  O_22
   10  A    between atoms: C_13  and  C_52
   11  A    between atoms: N_15  and  C_16
   12  A    between atoms: N_15  and  S_25
   13  A    between atoms: C_16  and  C_57
   14  A    between atoms: O_22  and  C_29
   15  A    between atoms: N_27  and  O_42
   16  A    between atoms: C_28  and  C_37
   17  A    between atoms: C_33  and  C_43
   18  A    between atoms: N_40  and  O_55
   19  A    between atoms: O_42  and  C_49
   20  A    between atoms: C_43  and  C_51
   21  A    between atoms: C_46  and  O_50
   22  A    between atoms: C_49  and  C_51
   23  A    between atoms: C_54  and  C_57
                            x       y       z     vdW  Elec       q    Type
                         _______ _______ _______ _____ _____    ______ ____

>  <TORSDO>
F 23

$$$$
=
 OpenBabel10222417233D

 57 60  0  0  1  0  0  0  0  0999 V2000
  191.6870  176.6930  139.3690 C   0  0  0  0  0  2  0  0  0  0  0  0
  189.4870  177.7220  138.9970 C   0  0  2  0  0  3  0  0  0  0  0  0
  190.8610  174.9040  136.1240 O   0  0  0  0  0  0  0  0  0  0  0  0
  189.1220  175.3330  134.6010 C   0  0  0  0  0  2  0  0  0  0  0  0
  188.9770  176.4950  136.7760 C   0  0  1  0  0  3  0  0  0  0  0  0
  191.1640  176.4130  137.9790 C   0  0  1  0  0  3  0  0  0  0  0  0
  191.5030  175.0480  137.3960 C   0  0  2  0  0  3  0  0  0  0  0  0
  189.6750  176.4880  138.1450 C   0  0  1  0  0  3  0  0  0  0  0  0
  189.6420  175.5250  135.8050 C   0  0  0  0  0  0  0  0  0  0  0  0
  190.7000  177.7100  139.9360 C   0  0  0  0  0  2  0  0  0  0  0  0
  193.6280  174.2090  138.0790 O   0  0  0  0  0  0  0  0  0  0  0  0
  193.6540  175.5010  136.1350 N   0  0  0  0  0  2  0  0  0  0  0  0
  192.9800  174.8820  137.2340 C   0  0  0  0  0  0  0  0  0  0  0  0
  194.9940  175.3800  135.9730 O   0  0  0  0  0  0  0  0  0  0  0  0
  195.1480  174.6890  134.7680 C   0  0  0  0  0  2  0  0  0  0  0  0
  195.1920  172.2240  134.6450 C   0  0  0  0  0  1  0  0  0  0  0  0
  196.0100  173.4530  134.9760 C   0  0  2  0  0  3  0  0  0  0  0  0
  196.4810  173.3560  136.4200 C   0  0  0  0  0  2  0  0  0  0  0  0
  198.7490  173.3660  135.6820 O   0  0  0  0  0  0  0  0  0  0  0  0
  197.9190  173.7440  136.5520 C   0  0  0  0  0  0  0  0  0  0  0  0
  198.3670  174.5420  137.6490 N   0  0  0  0  0  2  0  0  0  0  0  0
  198.3380  175.2460  139.7170 C   0  0  0  0  0  1  0  0  0  0  0  0
  197.5180  174.9630  138.6160 O   0  0  0  0  0  0  0  0  0  0  0  0
  188.2980  177.6370  139.7310 O   0  0  0  0  0  0  0  0  0  0  0  0
  188.6670  177.8860  141.0610 C   0  0  2  0  0  3  0  0  0  0  0  0
  188.8840  177.0920  143.1210 C   0  0  0  0  0  1  0  0  0  0  0  0
  188.5650  176.7120  141.8140 O   0  0  0  0  0  0  0  0  0  0  0  0
  187.7980  178.9830  141.6660 C   0  0  0  0  0  2  0  0  0  0  0  0
  186.3440  178.8440  141.2450 C   0  0  0  0  0  1  0  0  0  0  0  0
  187.5760  176.3140  136.8750 O   0  0  0  0  0  0  0  0  0  0  0  0
  187.3030  174.9510  137.0960 C   0  0  0  0  0  2  0  0  0  0  0  0
  185.1730  173.2110  138.3140 F   0  0  0  0  0  0  0  0  0  0  0  0
  184.2220  172.8260  136.1540 C   0  0  2  0  0  3  0  0  0  0  0  0
  183.7220  175.2220  135.7770 O   0  0  0  0  0  0  0  0  0  0  0  0
  185.4680  173.1720  136.9600 C   0  0  1  0  0  3  0  0  0  0  0  0
  183.1900  173.9680  136.1890 C   0  0  2  0  0  3  0  0  0  0  0  0
  184.8720  175.5960  136.5300 C   0  0  2  0  0  3  0  0  0  0  0  0
  183.6590  171.6280  136.6030 O   0  0  0  0  0  1  0  0  0  0  0  0
  185.9740  174.5260  136.4730 C   0  0  1  0  0  3  0  0  0  0  0  0
  184.6230  177.3330  137.8910 C   0  0  0  0  0  1  0  0  0  0  0  0
  184.5330  175.9410  137.8460 O   0  0  0  0  0  0  0  0  0  0  0  0
  182.4030  174.0530  137.4980 C   0  0  0  0  0  2  0  0  0  0  0  0
  181.2580  174.9370  137.3560 N   0  0  0  0  0  2  0  0  0  0  0  0
  180.5970  175.2460  138.9300 S   0  0  0  0  0  0  0  0  0  0  0  0
  181.6980  175.7080  139.8430 O   0  0  0  0  0  0  0  0  0  0  0  0
  179.9950  173.9900  139.4960 O   0  0  0  0  0  0  0  0  0  0  0  0
  179.3710  176.4640  138.8120 N   0  0  0  0  0  2  0  0  0  0  0  0
  179.9460  177.7060  139.3030 C   0  0  0  0  0  2  0  0  0  0  0  0
  178.9400  179.1610  137.6950 O   0  0  0  0  0  1  0  0  0  0  0  0
  180.1650  178.6810  138.1580 C   0  0  1  0  0  3  0  0  0  0  0  0
  180.3450  181.2140  138.6110 C   0  0  1  0  0  3  0  0  0  0  0  0
  182.3690  179.8650  138.2510 O   0  0  0  0  0  1  0  0  0  0  0  0
  180.7220  180.5650  139.9430 C   0  0  2  0  0  3  0  0  0  0  0  0
  181.2590  182.2290  138.3200 O   0  0  0  0  0  1  0  0  0  0  0  0
  181.0260  179.8520  138.6310 C   0  0  2  0  0  0  0  0  0  0  0  0
  179.4620  180.0530  140.6230 C   0  0  0  0  0  2  0  0  0  0  0  0
  179.2060  180.8160  141.7620 O   0  0  0  0  0  1  0  0  0  0  0  0
  1 10  1  0  0  0  0
  2 24  1  1  0  0  0
  2 10  1  0  0  0  0
  3  7  1  0  0  0  0
  4  9  2  0  0  0  0
  5 30  1  1  0  0  0
  5  8  1  0  0  0  0
  6  8  1  0  0  0  0
  6  1  1  1  0  0  0
  7 13  1  6  0  0  0
  7  6  1  0  0  0  0
  8  2  1  0  0  0  0
  9  3  1  0  0  0  0
  9  5  1  0  0  0  0
 12 13  1  0  0  0  0
 13 11  2  0  0  0  0
 14 12  1  0  0  0  0
 15 17  1  0  0  0  0
 15 14  1  0  0  0  0
 16 17  1  0  0  0  0
 17 18  1  0  0  0  0
 18 20  1  0  0  0  0
 19 20  2  0  0  0  0
 20 21  1  0  0  0  0
 21 23  1  0  0  0  0
 23 22  1  0  0  0  0
 24 25  1  0  0  0  0
 25 28  1  0  0  0  0
 25 27  1  0  0  0  0
 27 26  1  0  0  0  0
 29 28  1  0  0  0  0
 30 31  1  0  0  0  0
 33 36  1  0  0  0  0
 33 38  1  0  0  0  0
 33 35  1  0  0  0  0
 34 36  1  0  0  0  0
 34 37  1  0  0  0  0
 35 32  1  0  0  0  0
 36 42  1  0  0  0  0
 37 41  1  0  0  0  0
 39 37  1  0  0  0  0
 39 35  1  0  0  0  0
 39 31  1  0  0  0  0
 41 40  1  0  0  0  0
 43 42  1  0  0  0  0
 43 44  1  0  0  0  0
 44 46  2  0  0  0  0
 44 45  2  0  0  0  0
 47 44  1  0  0  0  0
 47 48  1  0  0  0  0
 49 50  1  0  0  0  0
 50 55  1  0  0  0  0
 50 48  1  0  0  0  0
 51 55  1  0  0  0  0
 51 53  1  0  0  0  0
 52 55  1  0  0  0  0
 53 56  1  0  0  0  0
 54 51  1  0  0  0  0
 55 53  1  0  0  0  0
 56 57  1  0  0  0  0
M  END
>  <MODEL>
8

>  <REMARK>
 VINA RESULT:      -4.5      3.511     11.202
  Name = 
  23 active torsions:
  status: ('A' for Active; 'I' for Inactive)
    1  A    between atoms: C_1  and  C_10
    2  A    between atoms: C_2  and  C_35
    3  A    between atoms: N_3  and  C_9
    4  A    between atoms: N_3  and  S_25
    5  A    between atoms: C_7  and  O_38
    6  A    between atoms: C_9  and  C_45
    7  A    between atoms: C_10  and  O_18
    8  A    between atoms: C_10  and  O_38
    9  A    between atoms: C_13  and  O_22
   10  A    between atoms: C_13  and  C_52
   11  A    between atoms: N_15  and  C_16
   12  A    between atoms: N_15  and  S_25
   13  A    between atoms: C_16  and  C_57
   14  A    between atoms: O_22  and  C_29
   15  A    between atoms: N_27  and  O_42
   16  A    between atoms: C_28  and  C_37
   17  A    between atoms: C_33  and  C_43
   18  A    between atoms: N_40  and  O_55
   19  A    between atoms: O_42  and  C_49
   20  A    between atoms: C_43  and  C_51
   21  A    between atoms: C_46  and  O_50
   22  A    between atoms: C_49  and  C_51
   23  A    between atoms: C_54  and  C_57
                            x       y       z     vdW  Elec       q    Type
                         _______ _______ _______ _____ _____    ______ ____

>  <TORSDO>
F 23

$$$$
=
 OpenBabel10222417233D

 57 60  0  0  1  0  0  0  0  0999 V2000
  188.3050  177.1920  143.9000 C   0  0  0  0  0  2  0  0  0  0  0  0
  186.8070  178.2710  142.2790 C   0  0  2  0  0  3  0  0  0  0  0  0
  190.5900  176.9210  140.8800 O   0  0  0  0  0  0  0  0  0  0  0  0
  190.3790  177.9390  138.7720 C   0  0  0  0  0  2  0  0  0  0  0  0
  188.4080  178.0840  140.2540 C   0  0  1  0  0  3  0  0  0  0  0  0
  189.0180  177.5170  142.6080 C   0  0  1  0  0  3  0  0  0  0  0  0
  190.0800  176.5230  142.1580 C   0  0  2  0  0  3  0  0  0  0  0  0
  187.9150  177.5080  141.5900 C   0  0  1  0  0  3  0  0  0  0  0  0
  189.8220  177.6130  139.9290 C   0  0  0  0  0  0  0  0  0  0  0  0
  186.9470  177.8730  143.7540 C   0  0  0  0  0  2  0  0  0  0  0  0
  192.0960  177.3350  143.1380 O   0  0  0  0  0  0  0  0  0  0  0  0
  191.2660  175.3640  144.0750 N   0  0  0  0  0  2  0  0  0  0  0  0
  191.2010  176.4480  143.1440 C   0  0  0  0  0  0  0  0  0  0  0  0
  192.2790  175.2640  144.9690 O   0  0  0  0  0  0  0  0  0  0  0  0
  191.6530  175.2090  146.2160 C   0  0  0  0  0  2  0  0  0  0  0  0
  193.0440  175.5340  148.2300 C   0  0  0  0  0  1  0  0  0  0  0  0
  192.2540  176.2460  147.1520 C   0  0  2  0  0  3  0  0  0  0  0  0
  191.1640  177.0810  147.8110 C   0  0  0  0  0  2  0  0  0  0  0  0
  190.5880  178.2100  145.7910 O   0  0  0  0  0  0  0  0  0  0  0  0
  190.1790  177.5830  146.8050 C   0  0  0  0  0  0  0  0  0  0  0  0
  188.7780  177.3600  146.9740 N   0  0  0  0  0  2  0  0  0  0  0  0
  187.7540  177.7070  148.8720 C   0  0  0  0  0  1  0  0  0  0  0  0
  188.2870  176.7030  148.0520 O   0  0  0  0  0  0  0  0  0  0  0  0
  185.5580  177.8810  141.7820 O   0  0  0  0  0  0  0  0  0  0  0  0
  184.7120  178.9750  142.0130 C   0  0  2  0  0  3  0  0  0  0  0  0
  183.7990  179.5380  143.9550 C   0  0  0  0  0  1  0  0  0  0  0  0
  185.0070  179.5550  143.2510 O   0  0  0  0  0  0  0  0  0  0  0  0
  183.2490  178.5450  141.9630 C   0  0  0  0  0  2  0  0  0  0  0  0
  182.6160  178.8650  140.6190 C   0  0  0  0  0  1  0  0  0  0  0  0
  187.4910  177.8710  139.1950 O   0  0  0  0  0  0  0  0  0  0  0  0
  187.9390  178.5600  138.0530 C   0  0  0  0  0  2  0  0  0  0  0  0
  187.7600  175.5700  137.7860 F   0  0  0  0  0  0  0  0  0  0  0  0
  188.1950  175.7310  135.4400 C   0  0  2  0  0  3  0  0  0  0  0  0
  186.1670  177.0830  135.0010 O   0  0  0  0  0  0  0  0  0  0  0  0
  188.3620  176.3590  136.8190 C   0  0  1  0  0  3  0  0  0  0  0  0
  186.7290  175.7760  134.9720 C   0  0  2  0  0  3  0  0  0  0  0  0
  186.2760  177.6920  136.2840 C   0  0  2  0  0  3  0  0  0  0  0  0
  188.6850  174.4230  135.4290 O   0  0  0  0  0  1  0  0  0  0  0  0
  187.7320  177.7470  136.7770 C   0  0  1  0  0  3  0  0  0  0  0  0
  184.4170  178.0210  137.4530 C   0  0  0  0  0  1  0  0  0  0  0  0
  185.4230  177.0840  137.2140 O   0  0  0  0  0  0  0  0  0  0  0  0
  185.8340  174.7260  135.6350 C   0  0  0  0  0  2  0  0  0  0  0  0
  185.0520  174.0120  134.6390 N   0  0  0  0  0  2  0  0  0  0  0  0
  183.4500  173.7750  135.2600 S   0  0  0  0  0  0  0  0  0  0  0  0
  182.9340  172.4410  134.7950 O   0  0  0  0  0  0  0  0  0  0  0  0
  182.5310  174.8510  134.7510 O   0  0  0  0  0  0  0  0  0  0  0  0
  183.4880  173.8270  136.9910 N   0  0  0  0  0  2  0  0  0  0  0  0
  182.1140  173.7230  137.4580 C   0  0  0  0  0  2  0  0  0  0  0  0
  182.9900  175.4950  138.8020 O   0  0  0  0  0  1  0  0  0  0  0  0
  181.8630  174.7010  138.5930 C   0  0  1  0  0  3  0  0  0  0  0  0
  179.6220  174.9660  137.3410 C   0  0  1  0  0  3  0  0  0  0  0  0
  180.9130  176.9460  138.0210 O   0  0  0  0  0  1  0  0  0  0  0  0
  179.2800  175.2750  138.7990 C   0  0  2  0  0  3  0  0  0  0  0  0
  179.0350  175.9280  136.5170 O   0  0  0  0  0  1  0  0  0  0  0  0
  180.6670  175.5920  138.2560 C   0  0  2  0  0  0  0  0  0  0  0  0
  179.2280  173.9740  139.5860 C   0  0  0  0  0  2  0  0  0  0  0  0
  179.6570  174.2050  140.8930 O   0  0  0  0  0  1  0  0  0  0  0  0
  2 24  1  6  0  0  0
  2 10  1  0  0  0  0
  3  7  1  0  0  0  0
  4  9  2  0  0  0  0
  5 30  1  6  0  0  0
  5  8  1  0  0  0  0
  6  1  1  1  0  0  0
  7  6  1  0  0  0  0
  7 13  1  1  0  0  0
  8  2  1  0  0  0  0
  8  6  1  0  0  0  0
  9  5  1  0  0  0  0
  9  3  1  0  0  0  0
 10  1  1  0  0  0  0
 11 13  2  0  0  0  0
 12 14  1  0  0  0  0
 13 12  1  0  0  0  0
 14 15  1  0  0  0  0
 15 17  1  0  0  0  0
 17 18  1  0  0  0  0
 17 16  1  0  0  0  0
 19 20  2  0  0  0  0
 20 21  1  0  0  0  0
 20 18  1  0  0  0  0
 21 23  1  0  0  0  0
 23 22  1  0  0  0  0
 24 25  1  0  0  0  0
 25 27  1  0  0  0  0
 27 26  1  0  0  0  0
 28 25  1  0  0  0  0
 29 28  1  0  0  0  0
 31 30  1  0  0  0  0
 33 35  1  0  0  0  0
 34 37  1  0  0  0  0
 35 32  1  0  0  0  0
 36 34  1  0  0  0  0
 36 33  1  0  0  0  0
 36 42  1  0  0  0  0
 37 39  1  0  0  0  0
 37 41  1  0  0  0  0
 38 33  1  0  0  0  0
 39 35  1  0  0  0  0
 39 31  1  0  0  0  0
 41 40  1  0  0  0  0
 43 44  1  0  0  0  0
 43 42  1  0  0  0  0
 44 47  1  0  0  0  0
 45 44  2  0  0  0  0
 46 44  2  0  0  0  0
 47 48  1  0  0  0  0
 48 50  1  0  0  0  0
 50 49  1  0  0  0  0
 51 55  1  0  0  0  0
 51 53  1  0  0  0  0
 52 55  1  0  0  0  0
 53 56  1  0  0  0  0
 54 51  1  0  0  0  0
 55 50  1  0  0  0  0
 55 53  1  0  0  0  0
 56 57  1  0  0  0  0
M  END
>  <MODEL>
9

>  <REMARK>
 VINA RESULT:      -4.5      3.798      8.044
  Name = 
  23 active torsions:
  status: ('A' for Active; 'I' for Inactive)
    1  A    between atoms: C_1  and  C_10
    2  A    between atoms: C_2  and  C_35
    3  A    between atoms: N_3  and  C_9
    4  A    between atoms: N_3  and  S_25
    5  A    between atoms: C_7  and  O_38
    6  A    between atoms: C_9  and  C_45
    7  A    between atoms: C_10  and  O_18
    8  A    between atoms: C_10  and  O_38
    9  A    between atoms: C_13  and  O_22
   10  A    between atoms: C_13  and  C_52
   11  A    between atoms: N_15  and  C_16
   12  A    between atoms: N_15  and  S_25
   13  A    between atoms: C_16  and  C_57
   14  A    between atoms: O_22  and  C_29
   15  A    between atoms: N_27  and  O_42
   16  A    between atoms: C_28  and  C_37
   17  A    between atoms: C_33  and  C_43
   18  A    between atoms: N_40  and  O_55
   19  A    between atoms: O_42  and  C_49
   20  A    between atoms: C_43  and  C_51
   21  A    between atoms: C_46  and  O_50
   22  A    between atoms: C_49  and  C_51
   23  A    between atoms: C_54  and  C_57
                            x       y       z     vdW  Elec       q    Type
                         _______ _______ _______ _____ _____    ______ ____

>  <TORSDO>
F 23

$$$$
