=
 OpenBabel10222418043D

 35 38  0  0  1  0  0  0  0  0999 V2000
  189.3250  177.3640  144.3890 C   0  0  0  0  0  0  0  0  0  0  0  0
  189.3850  177.6000  142.9910 C   0  0  0  0  0  0  0  0  0  0  0  0
  191.7600  177.4560  140.2510 O   0  0  0  0  0  0  0  0  0  0  0  0
  188.2840  178.3430  140.9150 C   0  0  0  0  0  3  0  0  0  0  0  0
  191.6050  176.5420  144.2960 C   0  0  0  0  0  3  0  0  0  0  0  0
  189.4020  177.8190  140.0540 C   0  0  1  0  0  3  0  0  0  0  0  0
  190.4520  176.8280  145.0240 C   0  0  0  0  0  3  0  0  0  0  0  0
  188.2650  178.2120  142.2440 C   0  0  0  0  0  3  0  0  0  0  0  0
  190.6500  177.5330  140.8450 C   0  0  0  0  0  0  0  0  0  0  0  0
  191.6410  176.7780  142.9600 N   0  0  0  0  0  0  0  0  0  0  0  0
  190.5700  177.2900  142.2960 C   0  0  0  0  0  0  0  0  0  0  0  0
  186.1930  176.1670  135.7840 O   0  0  0  0  0  0  0  0  0  0  0  0
  188.9550  176.6050  139.3820 N   0  0  0  0  0  2  0  0  0  0  0  0
  188.6160  177.6220  137.2630 N   0  0  0  0  0  0  0  0  0  0  0  0
  187.5900  176.0360  135.7750 C   0  0  2  0  0  3  0  0  0  0  0  0
  185.9360  177.4200  135.2100 C   0  0  0  0  0  2  0  0  0  0  0  0
  187.0760  178.3480  135.5580 C   0  0  0  0  0  2  0  0  0  0  0  0
  188.1250  175.0470  137.2090 S   0  0  0  0  0  0  0  0  0  0  0  0
  188.2080  177.4210  135.8850 C   0  0  1  0  0  3  0  0  0  0  0  0
  188.6320  176.5600  137.9910 C   0  0  0  0  0  0  0  0  0  0  0  0
  186.8910  177.9930  144.5840 N   0  0  0  0  0  2  0  0  0  0  0  0
  185.6610  178.2890  145.2570 C   0  0  0  0  0  0  0  0  0  0  0  0
  188.1940  177.6100  146.4810 O   0  0  0  0  0  0  0  0  0  0  0  0
  188.1290  177.6540  145.2240 C   0  0  0  0  0  0  0  0  0  0  0  0
  185.5870  178.2630  146.5150 O   0  0  0  0  0  0  0  0  0  0  0  0
  184.4650  178.6660  144.4590 C   0  0  0  0  0  2  0  0  0  0  0  0
  184.8990  179.1980  143.1090 C   0  0  0  0  0  2  0  0  0  0  0  0
  184.5800  178.1730  142.0330 C   0  0  0  0  0  2  0  0  0  0  0  0
  183.7540  178.7660  140.8850 C   0  0  1  0  0  3  0  0  0  0  0  0
  184.2870  180.2540  139.0360 O   0  0  0  0  0  1  0  0  0  0  0  0
  184.5470  178.9980  139.5910 C   0  0  2  0  0  3  0  0  0  0  0  0
  184.3360  177.8910  138.5640 C   0  0  0  0  0  2  0  0  0  0  0  0
  183.3970  178.2720  137.6020 O   0  0  0  0  0  1  0  0  0  0  0  0
  181.5410  178.8500  140.8700 C   0  0  0  0  0  1  0  0  0  0  0  0
  182.6170  177.9930  140.6340 O   0  0  0  0  0  0  0  0  0  0  0  0
  1  7  1  0  0  0  0
  1 24  1  0  0  0  0
  2  1  2  0  0  0  0
  3  9  2  0  0  0  0
  4  8  2  0  0  0  0
  5  7  2  0  0  0  0
  6 13  1  1  0  0  0
  6  9  1  0  0  0  0
  6  4  1  0  0  0  0
  8  2  1  0  0  0  0
  9 11  1  0  0  0  0
 10  5  1  0  0  0  0
 11 10  2  0  0  0  0
 11  2  1  0  0  0  0
 14 20  2  0  0  0  0
 15 12  1  1  0  0  0
 15 19  1  0  0  0  0
 15 18  1  0  0  0  0
 16 17  1  0  0  0  0
 16 12  1  0  0  0  0
 18 20  1  0  0  0  0
 19 17  1  1  0  0  0
 19 14  1  0  0  0  0
 20 13  1  0  0  0  0
 21 24  1  0  0  0  0
 21 22  1  0  0  0  0
 22 25  2  0  0  0  0
 24 23  2  0  0  0  0
 26 22  1  0  0  0  0
 27 26  1  0  0  0  0
 28 27  1  0  0  0  0
 29 28  1  1  0  0  0
 31 30  1  6  0  0  0
 31 29  1  0  0  0  0
 32 31  1  0  0  0  0
 33 32  1  0  0  0  0
 35 34  1  0  0  0  0
 35 29  1  0  0  0  0
M  END
>  <MODEL>
1

>  <REMARK>
 VINA RESULT:      -8.0      0.000      0.000
  Name = 
  9 active torsions:
  status: ('A' for Active; 'I' for Inactive)
    1  A    between atoms: C_1  and  C_24
    2  A    between atoms: C_6  and  C_10
    3  A    between atoms: C_6  and  C_12
    4  A    between atoms: N_8  and  C_17
    5  A    between atoms: C_10  and  C_19
    6  A    between atoms: C_11  and  C_12
    7  A    between atoms: C_11  and  C_32
    8  A    between atoms: C_11  and  O_35
    9  A    between atoms: C_13  and  C_32
                            x       y       z     vdW  Elec       q    Type
                         _______ _______ _______ _____ _____    ______ ____

>  <TORSDO>
F 9

$$$$
=
 OpenBabel10222418043D

 35 38  0  0  1  0  0  0  0  0999 V2000
  184.3650  178.8040  142.6520 C   0  0  0  0  0  0  0  0  0  0  0  0
  183.1730  178.8040  141.8840 C   0  0  0  0  0  0  0  0  0  0  0  0
  179.5780  178.6070  142.3380 O   0  0  0  0  0  0  0  0  0  0  0  0
  182.0670  178.8380  139.6810 C   0  0  0  0  0  3  0  0  0  0  0  0
  183.0090  178.8170  144.6630 C   0  0  0  0  0  3  0  0  0  0  0  0
  180.7140  179.0960  140.2880 C   0  0  1  0  0  3  0  0  0  0  0  0
  184.2600  178.8140  144.0490 C   0  0  0  0  0  3  0  0  0  0  0  0
  183.1840  178.7390  140.4070 C   0  0  0  0  0  3  0  0  0  0  0  0
  180.6830  178.8070  141.7660 C   0  0  0  0  0  0  0  0  0  0  0  0
  181.8810  178.8130  143.9080 N   0  0  0  0  0  0  0  0  0  0  0  0
  181.9310  178.8120  142.5490 C   0  0  0  0  0  0  0  0  0  0  0  0
  180.3770  182.8340  136.1460 O   0  0  0  0  0  0  0  0  0  0  0  0
  180.3420  180.4850  140.0500 N   0  0  0  0  0  2  0  0  0  0  0  0
  179.7220  180.1740  137.7780 N   0  0  0  0  0  0  0  0  0  0  0  0
  179.2430  182.3110  136.7850 C   0  0  2  0  0  3  0  0  0  0  0  0
  180.6180  181.9780  135.0620 C   0  0  0  0  0  2  0  0  0  0  0  0
  180.1860  180.5820  135.4500 C   0  0  0  0  0  2  0  0  0  0  0  0
  179.3390  182.6420  138.5750 S   0  0  0  0  0  0  0  0  0  0  0  0
  179.2180  180.8050  136.5730 C   0  0  1  0  0  3  0  0  0  0  0  0
  179.8090  180.9440  138.8060 C   0  0  0  0  0  0  0  0  0  0  0  0
  186.7690  178.0440  142.7010 N   0  0  0  0  0  2  0  0  0  0  0  0
  188.1220  177.9370  142.2410 C   0  0  0  0  0  0  0  0  0  0  0  0
  185.9790  179.4400  141.0070 O   0  0  0  0  0  0  0  0  0  0  0  0
  185.7290  178.7940  142.0590 C   0  0  0  0  0  0  0  0  0  0  0  0
  188.4990  178.5220  141.1900 O   0  0  0  0  0  0  0  0  0  0  0  0
  189.1020  177.1530  143.0370 C   0  0  0  0  0  2  0  0  0  0  0  0
  188.4810  176.7470  144.3570 C   0  0  0  0  0  2  0  0  0  0  0  0
  189.0780  177.5820  145.4780 C   0  0  0  0  0  2  0  0  0  0  0  0
  189.5770  176.7240  146.6470 C   0  0  1  0  0  3  0  0  0  0  0  0
  191.7880  177.4250  145.9160 O   0  0  0  0  0  1  0  0  0  0  0  0
  191.0550  176.9360  147.0010 C   0  0  2  0  0  3  0  0  0  0  0  0
  191.7070  175.6880  147.5850 C   0  0  0  0  0  2  0  0  0  0  0  0
  192.9970  175.9640  148.0440 O   0  0  0  0  0  1  0  0  0  0  0  0
  189.0850  178.1710  148.2500 C   0  0  0  0  0  1  0  0  0  0  0  0
  188.7700  176.8960  147.7750 O   0  0  0  0  0  0  0  0  0  0  0  0
  1  7  1  0  0  0  0
  2 11  1  0  0  0  0
  2  1  2  0  0  0  0
  4  6  1  0  0  0  0
  4  8  2  0  0  0  0
  6 13  1  1  0  0  0
  6  9  1  0  0  0  0
  7  5  2  0  0  0  0
  8  2  1  0  0  0  0
  9  3  2  0  0  0  0
  9 11  1  0  0  0  0
 10  5  1  0  0  0  0
 11 10  2  0  0  0  0
 14 20  2  0  0  0  0
 15 12  1  6  0  0  0
 15 18  1  0  0  0  0
 16 17  1  0  0  0  0
 16 12  1  0  0  0  0
 18 20  1  0  0  0  0
 19 17  1  6  0  0  0
 19 15  1  0  0  0  0
 19 14  1  0  0  0  0
 20 13  1  0  0  0  0
 22 21  1  0  0  0  0
 22 26  1  0  0  0  0
 23 24  2  0  0  0  0
 24  1  1  0  0  0  0
 24 21  1  0  0  0  0
 25 22  2  0  0  0  0
 26 27  1  0  0  0  0
 27 28  1  0  0  0  0
 29 28  1  6  0  0  0
 29 31  1  0  0  0  0
 29 35  1  0  0  0  0
 31 30  1  6  0  0  0
 31 32  1  0  0  0  0
 32 33  1  0  0  0  0
 35 34  1  0  0  0  0
M  END
>  <MODEL>
2

>  <REMARK>
 VINA RESULT:      -7.9      4.219      8.602
  Name = 
  9 active torsions:
  status: ('A' for Active; 'I' for Inactive)
    1  A    between atoms: C_1  and  C_24
    2  A    between atoms: C_6  and  C_10
    3  A    between atoms: C_6  and  C_12
    4  A    between atoms: N_8  and  C_17
    5  A    between atoms: C_10  and  C_19
    6  A    between atoms: C_11  and  C_12
    7  A    between atoms: C_11  and  C_32
    8  A    between atoms: C_11  and  O_35
    9  A    between atoms: C_13  and  C_32
                            x       y       z     vdW  Elec       q    Type
                         _______ _______ _______ _____ _____    ______ ____

>  <TORSDO>
F 9

$$$$
=
 OpenBabel10222418043D

 35 38  0  0  1  0  0  0  0  0999 V2000
  188.7200  177.7340  139.9120 C   0  0  0  0  0  0  0  0  0  0  0  0
  187.4270  178.2370  140.2110 C   0  0  0  0  0  0  0  0  0  0  0  0
  184.6080  179.8070  138.5510 O   0  0  0  0  0  0  0  0  0  0  0  0
  185.6760  178.7370  141.8710 C   0  0  0  0  0  3  0  0  0  0  0  0
  188.2890  178.1650  137.5650 C   0  0  0  0  0  3  0  0  0  0  0  0
  184.6460  179.0040  140.8060 C   0  0  1  0  0  3  0  0  0  0  0  0
  189.1320  177.7050  138.5740 C   0  0  0  0  0  3  0  0  0  0  0  0
  186.9270  178.3570  141.5970 C   0  0  0  0  0  3  0  0  0  0  0  0
  185.2650  179.2150  139.4500 C   0  0  0  0  0  0  0  0  0  0  0  0
  187.0580  178.6450  137.8740 N   0  0  0  0  0  0  0  0  0  0  0  0
  186.6090  178.6870  139.1560 C   0  0  0  0  0  0  0  0  0  0  0  0
  179.3910  177.6780  142.1750 O   0  0  0  0  0  0  0  0  0  0  0  0
  183.7150  177.8830  140.7530 N   0  0  0  0  0  2  0  0  0  0  0  0
  181.7510  179.2170  140.6790 N   0  0  0  0  0  0  0  0  0  0  0  0
  179.8180  177.7950  140.8440 C   0  0  2  0  0  3  0  0  0  0  0  0
  178.9310  178.9550  142.5280 C   0  0  0  0  0  2  0  0  0  0  0  0
  179.7470  179.9820  141.7780 C   0  0  0  0  0  2  0  0  0  0  0  0
  181.2090  176.6560  140.5430 S   0  0  0  0  0  0  0  0  0  0  0  0
  180.3020  179.2180  140.6120 C   0  0  1  0  0  3  0  0  0  0  0  0
  182.3010  178.0540  140.6380 C   0  0  0  0  0  0  0  0  0  0  0  0
  189.7940  177.9420  142.1850 N   0  0  0  0  0  2  0  0  0  0  0  0
  190.6590  177.5750  143.2660 C   0  0  0  0  0  0  0  0  0  0  0  0
  190.3650  176.2060  140.7340 O   0  0  0  0  0  0  0  0  0  0  0  0
  189.6690  177.2350  140.9430 C   0  0  0  0  0  0  0  0  0  0  0  0
  191.3960  176.5560  143.1920 O   0  0  0  0  0  0  0  0  0  0  0  0
  190.7110  178.4310  144.4800 C   0  0  0  0  0  2  0  0  0  0  0  0
  190.3400  177.6130  145.7000 C   0  0  0  0  0  2  0  0  0  0  0  0
  188.9270  177.0760  145.5400 C   0  0  0  0  0  2  0  0  0  0  0  0
  187.9610  177.6470  146.5850 C   0  0  1  0  0  3  0  0  0  0  0  0
  186.3250  177.1500  144.8560 O   0  0  0  0  0  1  0  0  0  0  0  0
  186.4870  177.6290  146.1580 C   0  0  2  0  0  3  0  0  0  0  0  0
  185.8060  178.9830  146.3330 C   0  0  0  0  0  2  0  0  0  0  0  0
  184.4240  178.8350  146.4680 O   0  0  0  0  0  1  0  0  0  0  0  0
  188.3740  178.0430  148.7250 C   0  0  0  0  0  1  0  0  0  0  0  0
  188.1250  177.0110  147.8190 O   0  0  0  0  0  0  0  0  0  0  0  0
  1  2  1  0  0  0  0
  1 24  1  0  0  0  0
  2  8  1  0  0  0  0
  3  9  2  0  0  0  0
  5 10  2  0  0  0  0
  5  7  1  0  0  0  0
  6 13  1  6  0  0  0
  6  4  1  0  0  0  0
  7  1  2  0  0  0  0
  8  4  2  0  0  0  0
  9  6  1  0  0  0  0
 10 11  1  0  0  0  0
 11  9  1  0  0  0  0
 11  2  2  0  0  0  0
 12 16  1  0  0  0  0
 15 18  1  1  0  0  0
 15 12  1  0  0  0  0
 17 16  1  0  0  0  0
 18 20  1  0  0  0  0
 19 14  1  0  0  0  0
 19 15  1  0  0  0  0
 19 17  1  1  0  0  0
 20 14  2  0  0  0  0
 20 13  1  0  0  0  0
 21 22  1  0  0  0  0
 22 26  1  0  0  0  0
 23 24  2  0  0  0  0
 24 21  1  0  0  0  0
 25 22  2  0  0  0  0
 26 27  1  0  0  0  0
 28 27  1  0  0  0  0
 29 28  1  6  0  0  0
 29 35  1  0  0  0  0
 31 30  1  6  0  0  0
 31 32  1  0  0  0  0
 31 29  1  0  0  0  0
 32 33  1  0  0  0  0
 35 34  1  0  0  0  0
M  END
>  <MODEL>
3

>  <REMARK>
 VINA RESULT:      -7.7      2.603      7.085
  Name = 
  9 active torsions:
  status: ('A' for Active; 'I' for Inactive)
    1  A    between atoms: C_1  and  C_24
    2  A    between atoms: C_6  and  C_10
    3  A    between atoms: C_6  and  C_12
    4  A    between atoms: N_8  and  C_17
    5  A    between atoms: C_10  and  C_19
    6  A    between atoms: C_11  and  C_12
    7  A    between atoms: C_11  and  C_32
    8  A    between atoms: C_11  and  O_35
    9  A    between atoms: C_13  and  C_32
                            x       y       z     vdW  Elec       q    Type
                         _______ _______ _______ _____ _____    ______ ____

>  <TORSDO>
F 9

$$$$
=
 OpenBabel10222418043D

 35 38  0  0  1  0  0  0  0  0999 V2000
  191.1030  176.8860  138.8320 C   0  0  0  0  0  0  0  0  0  0  0  0
  189.8580  177.2640  138.2660 C   0  0  0  0  0  0  0  0  0  0  0  0
  188.1770  177.3290  135.0510 O   0  0  0  0  0  0  0  0  0  0  0  0
  187.6170  178.2540  138.5350 C   0  0  0  0  0  3  0  0  0  0  0  0
  191.7600  176.0040  136.6700 C   0  0  0  0  0  3  0  0  0  0  0  0
  187.1720  177.7860  137.1750 C   0  0  1  0  0  3  0  0  0  0  0  0
  192.0440  176.2510  138.0120 C   0  0  0  0  0  3  0  0  0  0  0  0
  188.8250  177.9860  139.0390 C   0  0  0  0  0  3  0  0  0  0  0  0
  188.3290  177.3790  136.3010 C   0  0  0  0  0  0  0  0  0  0  0  0
  190.5640  176.3770  136.1490 N   0  0  0  0  0  0  0  0  0  0  0  0
  189.6150  176.9890  136.9060 C   0  0  0  0  0  0  0  0  0  0  0  0
  182.4450  176.4020  139.8180 O   0  0  0  0  0  0  0  0  0  0  0  0
  186.2560  176.6640  137.3350 N   0  0  0  0  0  2  0  0  0  0  0  0
  184.3420  177.9900  137.8050 N   0  0  0  0  0  0  0  0  0  0  0  0
  182.5150  176.5550  138.4250 C   0  0  2  0  0  3  0  0  0  0  0  0
  182.0950  177.6670  140.3110 C   0  0  0  0  0  2  0  0  0  0  0  0
  182.6920  178.7170  139.4030 C   0  0  0  0  0  2  0  0  0  0  0  0
  183.7770  175.4310  137.7450 S   0  0  0  0  0  0  0  0  0  0  0  0
  182.9250  177.9860  138.1140 C   0  0  1  0  0  3  0  0  0  0  0  0
  184.8610  176.8300  137.5930 C   0  0  0  0  0  0  0  0  0  0  0  0
  190.4840  176.9280  141.2760 N   0  0  0  0  0  2  0  0  0  0  0  0
  190.6960  177.1130  142.6810 C   0  0  0  0  0  0  0  0  0  0  0  0
  192.6290  177.5050  140.5650 O   0  0  0  0  0  0  0  0  0  0  0  0
  191.4690  177.1260  140.2530 C   0  0  0  0  0  0  0  0  0  0  0  0
  191.8170  177.4750  143.1270 O   0  0  0  0  0  0  0  0  0  0  0  0
  189.5630  176.9080  143.6220 C   0  0  0  0  0  2  0  0  0  0  0  0
  188.2960  176.6260  142.8430 C   0  0  0  0  0  2  0  0  0  0  0  0
  187.4340  177.8770  142.8040 C   0  0  0  0  0  2  0  0  0  0  0  0
  186.1310  177.7160  143.5960 C   0  0  1  0  0  3  0  0  0  0  0  0
  186.8680  177.4220  145.8950 O   0  0  0  0  0  1  0  0  0  0  0  0
  186.1850  178.2760  145.0240 C   0  0  2  0  0  3  0  0  0  0  0  0
  184.8070  178.6300  145.5720 C   0  0  0  0  0  2  0  0  0  0  0  0
  184.8080  178.6290  146.9690 O   0  0  0  0  0  1  0  0  0  0  0  0
  185.6240  178.9880  141.8540 C   0  0  0  0  0  1  0  0  0  0  0  0
  185.0490  178.2570  142.8950 O   0  0  0  0  0  0  0  0  0  0  0  0
  1 24  1  0  0  0  0
  2  1  1  0  0  0  0
  2  8  1  0  0  0  0
  3  9  2  0  0  0  0
  4  8  2  0  0  0  0
  5  7  1  0  0  0  0
  6 13  1  1  0  0  0
  6  4  1  0  0  0  0
  7  1  2  0  0  0  0
  9 11  1  0  0  0  0
  9  6  1  0  0  0  0
 10  5  2  0  0  0  0
 10 11  1  0  0  0  0
 11  2  2  0  0  0  0
 12 16  1  0  0  0  0
 13 20  1  0  0  0  0
 14 19  1  0  0  0  0
 15 18  1  1  0  0  0
 15 12  1  0  0  0  0
 17 16  1  0  0  0  0
 19 15  1  0  0  0  0
 19 17  1  1  0  0  0
 20 18  1  0  0  0  0
 20 14  2  0  0  0  0
 21 22  1  0  0  0  0
 22 25  2  0  0  0  0
 22 26  1  0  0  0  0
 24 23  2  0  0  0  0
 24 21  1  0  0  0  0
 27 26  1  0  0  0  0
 28 27  1  0  0  0  0
 29 28  1  6  0  0  0
 29 31  1  0  0  0  0
 31 32  1  0  0  0  0
 31 30  1  1  0  0  0
 32 33  1  0  0  0  0
 34 35  1  0  0  0  0
 35 29  1  0  0  0  0
M  END
>  <MODEL>
4

>  <REMARK>
 VINA RESULT:      -7.3      2.109      5.633
  Name = 
  9 active torsions:
  status: ('A' for Active; 'I' for Inactive)
    1  A    between atoms: C_1  and  C_24
    2  A    between atoms: C_6  and  C_10
    3  A    between atoms: C_6  and  C_12
    4  A    between atoms: N_8  and  C_17
    5  A    between atoms: C_10  and  C_19
    6  A    between atoms: C_11  and  C_12
    7  A    between atoms: C_11  and  C_32
    8  A    between atoms: C_11  and  O_35
    9  A    between atoms: C_13  and  C_32
                            x       y       z     vdW  Elec       q    Type
                         _______ _______ _______ _____ _____    ______ ____

>  <TORSDO>
F 9

$$$$
=
 OpenBabel10222418043D

 35 38  0  0  1  0  0  0  0  0999 V2000
  190.8410  176.7860  138.5090 C   0  0  0  0  0  0  0  0  0  0  0  0
  189.5850  177.2230  138.0150 C   0  0  0  0  0  0  0  0  0  0  0  0
  187.7780  177.4990  134.8810 O   0  0  0  0  0  0  0  0  0  0  0  0
  187.3830  178.2510  138.4280 C   0  0  0  0  0  3  0  0  0  0  0  0
  191.3880  176.0050  136.2790 C   0  0  0  0  0  3  0  0  0  0  0  0
  186.8720  177.8660  137.0660 C   0  0  1  0  0  3  0  0  0  0  0  0
  191.7310  176.1730  137.6190 C   0  0  0  0  0  3  0  0  0  0  0  0
  188.6030  177.9280  138.8670 C   0  0  0  0  0  3  0  0  0  0  0  0
  187.9810  177.4790  136.1240 C   0  0  0  0  0  0  0  0  0  0  0  0
  190.1820  176.4340  135.8270 N   0  0  0  0  0  0  0  0  0  0  0  0
  189.2800  177.0270  136.6540 C   0  0  0  0  0  0  0  0  0  0  0  0
  182.1850  176.4800  139.7790 O   0  0  0  0  0  0  0  0  0  0  0  0
  185.9340  176.7590  137.2040 N   0  0  0  0  0  2  0  0  0  0  0  0
  184.0650  178.1070  137.7820 N   0  0  0  0  0  0  0  0  0  0  0  0
  182.2220  176.6890  138.3930 C   0  0  2  0  0  3  0  0  0  0  0  0
  181.8790  177.7310  140.3340 C   0  0  0  0  0  2  0  0  0  0  0  0
  182.4760  178.8040  139.4530 C   0  0  0  0  0  2  0  0  0  0  0  0
  183.4390  175.5660  137.6330 S   0  0  0  0  0  0  0  0  0  0  0  0
  182.6570  178.1230  138.1300 C   0  0  1  0  0  3  0  0  0  0  0  0
  184.5500  176.9460  137.5080 C   0  0  0  0  0  0  0  0  0  0  0  0
  190.4250  176.4500  140.9730 N   0  0  0  0  0  2  0  0  0  0  0  0
  190.7120  176.5230  142.3750 C   0  0  0  0  0  0  0  0  0  0  0  0
  192.3610  177.5020  140.2090 O   0  0  0  0  0  0  0  0  0  0  0  0
  191.2700  176.9410  139.9240 C   0  0  0  0  0  0  0  0  0  0  0  0
  191.7800  177.0460  142.7930 O   0  0  0  0  0  0  0  0  0  0  0  0
  189.7170  176.0060  143.3510 C   0  0  0  0  0  2  0  0  0  0  0  0
  188.7150  177.0910  143.6840 C   0  0  0  0  0  2  0  0  0  0  0  0
  189.1750  177.8450  144.9200 C   0  0  0  0  0  2  0  0  0  0  0  0
  188.6120  177.2470  146.2150 C   0  0  1  0  0  3  0  0  0  0  0  0
  189.6680  177.8940  148.3090 O   0  0  0  0  0  1  0  0  0  0  0  0
  189.6710  176.9440  147.2840 C   0  0  2  0  0  3  0  0  0  0  0  0
  191.0690  176.7750  146.6980 C   0  0  0  0  0  2  0  0  0  0  0  0
  192.0210  176.6220  147.7090 O   0  0  0  0  0  1  0  0  0  0  0  0
  186.4130  177.5090  146.2480 C   0  0  0  0  0  1  0  0  0  0  0  0
  187.5990  178.0550  146.7410 O   0  0  0  0  0  0  0  0  0  0  0  0
  1 24  1  0  0  0  0
  2  1  1  0  0  0  0
  2  8  1  0  0  0  0
  3  9  2  0  0  0  0
  4  8  2  0  0  0  0
  5  7  1  0  0  0  0
  6 13  1  1  0  0  0
  6  4  1  0  0  0  0
  7  1  2  0  0  0  0
  9 11  1  0  0  0  0
  9  6  1  0  0  0  0
 10  5  2  0  0  0  0
 10 11  1  0  0  0  0
 11  2  2  0  0  0  0
 12 16  1  0  0  0  0
 13 20  1  0  0  0  0
 14 19  1  0  0  0  0
 15 18  1  6  0  0  0
 15 12  1  0  0  0  0
 17 16  1  0  0  0  0
 19 15  1  0  0  0  0
 19 17  1  1  0  0  0
 20 18  1  0  0  0  0
 20 14  2  0  0  0  0
 21 22  1  0  0  0  0
 22 25  2  0  0  0  0
 22 26  1  0  0  0  0
 24 23  2  0  0  0  0
 24 21  1  0  0  0  0
 26 27  1  0  0  0  0
 27 28  1  0  0  0  0
 29 28  1  6  0  0  0
 29 35  1  0  0  0  0
 29 31  1  0  0  0  0
 31 30  1  1  0  0  0
 32 31  1  0  0  0  0
 32 33  1  0  0  0  0
 34 35  1  0  0  0  0
M  END
>  <MODEL>
5

>  <REMARK>
 VINA RESULT:      -7.2      2.322      6.779
  Name = 
  9 active torsions:
  status: ('A' for Active; 'I' for Inactive)
    1  A    between atoms: C_1  and  C_24
    2  A    between atoms: C_6  and  C_10
    3  A    between atoms: C_6  and  C_12
    4  A    between atoms: N_8  and  C_17
    5  A    between atoms: C_10  and  C_19
    6  A    between atoms: C_11  and  C_12
    7  A    between atoms: C_11  and  C_32
    8  A    between atoms: C_11  and  O_35
    9  A    between atoms: C_13  and  C_32
                            x       y       z     vdW  Elec       q    Type
                         _______ _______ _______ _____ _____    ______ ____

>  <TORSDO>
F 9

$$$$
=
 OpenBabel10222418043D

 35 38  0  0  1  0  0  0  0  0999 V2000
  188.7170  177.1820  138.2020 C   0  0  0  0  0  0  0  0  0  0  0  0
  189.7980  176.3730  137.7670 C   0  0  0  0  0  0  0  0  0  0  0  0
  190.7160  174.2290  134.9870 O   0  0  0  0  0  0  0  0  0  0  0  0
  192.0270  175.4080  138.1800 C   0  0  0  0  0  3  0  0  0  0  0  0
  187.6050  176.7420  136.0920 C   0  0  0  0  0  3  0  0  0  0  0  0
  192.1640  174.9380  136.7570 C   0  0  1  0  0  3  0  0  0  0  0  0
  187.6250  177.3570  137.3420 C   0  0  0  0  0  3  0  0  0  0  0  0
  190.9670  176.0880  138.6260 C   0  0  0  0  0  3  0  0  0  0  0  0
  190.8470  174.9290  136.0270 C   0  0  0  0  0  0  0  0  0  0  0  0
  188.6480  175.9700  135.6970 N   0  0  0  0  0  0  0  0  0  0  0  0
  189.7340  175.7760  136.4920 C   0  0  0  0  0  0  0  0  0  0  0  0
  197.6490  175.9550  136.4010 O   0  0  0  0  0  0  0  0  0  0  0  0
  193.1080  175.8020  136.0590 N   0  0  0  0  0  2  0  0  0  0  0  0
  194.9370  174.2910  136.1770 N   0  0  0  0  0  0  0  0  0  0  0  0
  196.9180  175.3760  135.3530 C   0  0  2  0  0  3  0  0  0  0  0  0
  198.1190  174.8760  137.1640 C   0  0  0  0  0  2  0  0  0  0  0  0
  197.1030  173.7590  137.0880 C   0  0  0  0  0  2  0  0  0  0  0  0
  195.5510  176.4810  134.8730 S   0  0  0  0  0  0  0  0  0  0  0  0
  196.3290  174.0620  135.8400 C   0  0  1  0  0  3  0  0  0  0  0  0
  194.4470  175.4050  135.7570 C   0  0  0  0  0  0  0  0  0  0  0  0
  188.6680  177.0660  140.7200 N   0  0  0  0  0  2  0  0  0  0  0  0
  188.6360  177.5790  142.0580 C   0  0  0  0  0  0  0  0  0  0  0  0
  188.6380  179.1160  139.6060 O   0  0  0  0  0  0  0  0  0  0  0  0
  188.6740  177.8590  139.5250 C   0  0  0  0  0  0  0  0  0  0  0  0
  188.6140  178.8200  142.2780 O   0  0  0  0  0  0  0  0  0  0  0  0
  188.5910  176.6310  143.2010 C   0  0  0  0  0  2  0  0  0  0  0  0
  187.8250  177.2510  144.3510 C   0  0  0  0  0  2  0  0  0  0  0  0
  188.8020  177.8660  145.3390 C   0  0  0  0  0  2  0  0  0  0  0  0
  189.6680  176.8120  146.0400 C   0  0  1  0  0  3  0  0  0  0  0  0
  191.6490  177.2410  144.6950 O   0  0  0  0  0  1  0  0  0  0  0  0
  191.1750  177.1050  146.0030 C   0  0  2  0  0  3  0  0  0  0  0  0
  191.9940  176.0800  146.7790 C   0  0  0  0  0  2  0  0  0  0  0  0
  192.4060  176.5980  148.0100 O   0  0  0  0  0  1  0  0  0  0  0  0
  189.0130  177.8820  147.8650 C   0  0  0  0  0  1  0  0  0  0  0  0
  189.2390  176.6030  147.3540 O   0  0  0  0  0  0  0  0  0  0  0  0
  1 24  1  0  0  0  0
  2  1  1  0  0  0  0
  2  8  1  0  0  0  0
  3  9  2  0  0  0  0
  4  8  2  0  0  0  0
  5  7  1  0  0  0  0
  6 13  1  6  0  0  0
  6  4  1  0  0  0  0
  7  1  2  0  0  0  0
  9 11  1  0  0  0  0
  9  6  1  0  0  0  0
 10  5  2  0  0  0  0
 10 11  1  0  0  0  0
 11  2  2  0  0  0  0
 12 16  1  0  0  0  0
 15 18  1  1  0  0  0
 15 19  1  0  0  0  0
 15 12  1  0  0  0  0
 17 16  1  0  0  0  0
 18 20  1  0  0  0  0
 19 14  1  0  0  0  0
 19 17  1  1  0  0  0
 20 13  1  0  0  0  0
 20 14  2  0  0  0  0
 21 22  1  0  0  0  0
 22 25  2  0  0  0  0
 22 26  1  0  0  0  0
 24 23  2  0  0  0  0
 24 21  1  0  0  0  0
 26 27  1  0  0  0  0
 27 28  1  0  0  0  0
 29 28  1  1  0  0  0
 29 35  1  0  0  0  0
 31 30  1  6  0  0  0
 31 29  1  0  0  0  0
 31 32  1  0  0  0  0
 32 33  1  0  0  0  0
 35 34  1  0  0  0  0
M  END
>  <MODEL>
6

>  <REMARK>
 VINA RESULT:      -7.1      4.466      7.952
  Name = 
  9 active torsions:
  status: ('A' for Active; 'I' for Inactive)
    1  A    between atoms: C_1  and  C_24
    2  A    between atoms: C_6  and  C_10
    3  A    between atoms: C_6  and  C_12
    4  A    between atoms: N_8  and  C_17
    5  A    between atoms: C_10  and  C_19
    6  A    between atoms: C_11  and  C_12
    7  A    between atoms: C_11  and  C_32
    8  A    between atoms: C_11  and  O_35
    9  A    between atoms: C_13  and  C_32
                            x       y       z     vdW  Elec       q    Type
                         _______ _______ _______ _____ _____    ______ ____

>  <TORSDO>
F 9

$$$$
=
 OpenBabel10222418043D

 35 38  0  0  1  0  0  0  0  0999 V2000
  186.9650  178.5410  140.5030 C   0  0  0  0  0  0  0  0  0  0  0  0
  186.3160  178.2290  139.2800 C   0  0  0  0  0  0  0  0  0  0  0  0
  187.1140  177.5680  135.8030 O   0  0  0  0  0  0  0  0  0  0  0  0
  184.2310  177.8580  138.0200 C   0  0  0  0  0  3  0  0  0  0  0  0
  189.0980  178.2670  139.3800 C   0  0  0  0  0  3  0  0  0  0  0  0
  184.9680  177.3010  136.8310 C   0  0  1  0  0  3  0  0  0  0  0  0
  188.3660  178.5510  140.5310 C   0  0  0  0  0  3  0  0  0  0  0  0
  184.8440  178.2470  139.1410 C   0  0  0  0  0  3  0  0  0  0  0  0
  186.4390  177.6220  136.8660 C   0  0  0  0  0  0  0  0  0  0  0  0
  188.4560  177.9740  138.2210 N   0  0  0  0  0  0  0  0  0  0  0  0
  187.0980  177.9430  138.1450 C   0  0  0  0  0  0  0  0  0  0  0  0
  180.9270  173.4540  137.1730 O   0  0  0  0  0  0  0  0  0  0  0  0
  184.7800  175.8570  136.7890 N   0  0  0  0  0  2  0  0  0  0  0  0
  182.5440  175.9370  135.9920 N   0  0  0  0  0  0  0  0  0  0  0  0
  181.6230  173.7160  135.9830 C   0  0  2  0  0  3  0  0  0  0  0  0
  179.8140  174.3070  137.1450 C   0  0  0  0  0  2  0  0  0  0  0  0
  180.2000  175.5730  136.4160 C   0  0  0  0  0  2  0  0  0  0  0  0
  183.4090  173.4760  136.2500 S   0  0  0  0  0  0  0  0  0  0  0  0
  181.3830  175.1650  135.5890 C   0  0  1  0  0  3  0  0  0  0  0  0
  183.5790  175.2440  136.3150 C   0  0  0  0  0  0  0  0  0  0  0  0
  186.5490  178.1230  142.9540 N   0  0  0  0  0  2  0  0  0  0  0  0
  185.9410  178.3260  144.2360 C   0  0  0  0  0  0  0  0  0  0  0  0
  185.3660  179.7640  141.7920 O   0  0  0  0  0  0  0  0  0  0  0  0
  186.2430  178.8610  141.7620 C   0  0  0  0  0  0  0  0  0  0  0  0
  185.0600  179.2110  144.4050 O   0  0  0  0  0  0  0  0  0  0  0  0
  186.3330  177.4540  145.3740 C   0  0  0  0  0  2  0  0  0  0  0  0
  187.6720  177.9000  145.9230 C   0  0  0  0  0  2  0  0  0  0  0  0
  188.7760  177.0440  145.3250 C   0  0  0  0  0  2  0  0  0  0  0  0
  190.1010  177.8050  145.1910 C   0  0  1  0  0  3  0  0  0  0  0  0
  191.6860  176.0140  144.7500 O   0  0  0  0  0  1  0  0  0  0  0  0
  191.3330  177.0160  145.6570 C   0  0  2  0  0  3  0  0  0  0  0  0
  191.1730  176.4510  147.0640 C   0  0  0  0  0  2  0  0  0  0  0  0
  192.2810  176.7610  147.8570 O   0  0  0  0  0  1  0  0  0  0  0  0
  191.3360  179.1810  143.9720 C   0  0  0  0  0  1  0  0  0  0  0  0
  190.2800  178.2730  143.8860 O   0  0  0  0  0  0  0  0  0  0  0  0
  1  7  1  0  0  0  0
  1 24  1  0  0  0  0
  2  1  2  0  0  0  0
  3  9  2  0  0  0  0
  4  8  2  0  0  0  0
  5  7  2  0  0  0  0
  6 13  1  1  0  0  0
  6  9  1  0  0  0  0
  6  4  1  0  0  0  0
  8  2  1  0  0  0  0
  9 11  1  0  0  0  0
 10  5  1  0  0  0  0
 11 10  2  0  0  0  0
 11  2  1  0  0  0  0
 14 20  2  0  0  0  0
 15 18  1  1  0  0  0
 15 12  1  0  0  0  0
 16 12  1  0  0  0  0
 17 16  1  0  0  0  0
 18 20  1  0  0  0  0
 19 15  1  0  0  0  0
 19 14  1  0  0  0  0
 19 17  1  1  0  0  0
 20 13  1  0  0  0  0
 21 22  1  0  0  0  0
 22 25  2  0  0  0  0
 22 26  1  0  0  0  0
 24 23  2  0  0  0  0
 24 21  1  0  0  0  0
 26 27  1  0  0  0  0
 28 27  1  0  0  0  0
 29 28  1  6  0  0  0
 29 31  1  0  0  0  0
 31 30  1  6  0  0  0
 31 32  1  0  0  0  0
 32 33  1  0  0  0  0
 35 34  1  0  0  0  0
 35 29  1  0  0  0  0
M  END
>  <MODEL>
7

>  <REMARK>
 VINA RESULT:      -7.0      3.181      6.608
  Name = 
  9 active torsions:
  status: ('A' for Active; 'I' for Inactive)
    1  A    between atoms: C_1  and  C_24
    2  A    between atoms: C_6  and  C_10
    3  A    between atoms: C_6  and  C_12
    4  A    between atoms: N_8  and  C_17
    5  A    between atoms: C_10  and  C_19
    6  A    between atoms: C_11  and  C_12
    7  A    between atoms: C_11  and  C_32
    8  A    between atoms: C_11  and  O_35
    9  A    between atoms: C_13  and  C_32
                            x       y       z     vdW  Elec       q    Type
                         _______ _______ _______ _____ _____    ______ ____

>  <TORSDO>
F 9

$$$$
=
 OpenBabel10222418043D

 35 38  0  0  1  0  0  0  0  0999 V2000
  188.8320  177.2460  137.8000 C   0  0  0  0  0  0  0  0  0  0  0  0
  189.8730  176.3450  137.4570 C   0  0  0  0  0  0  0  0  0  0  0  0
  190.7720  174.0140  134.8260 O   0  0  0  0  0  0  0  0  0  0  0  0
  192.0060  175.2510  138.0290 C   0  0  0  0  0  3  0  0  0  0  0  0
  187.7960  176.7830  135.6560 C   0  0  0  0  0  3  0  0  0  0  0  0
  192.1780  174.7060  136.6360 C   0  0  1  0  0  3  0  0  0  0  0  0
  187.7980  177.4540  136.8780 C   0  0  0  0  0  3  0  0  0  0  0  0
  190.9750  176.0220  138.3880 C   0  0  0  0  0  3  0  0  0  0  0  0
  190.9010  174.7520  135.8400 C   0  0  0  0  0  0  0  0  0  0  0  0
  188.8000  175.9240  135.3510 N   0  0  0  0  0  0  0  0  0  0  0  0
  189.8300  175.6950  136.2090 C   0  0  0  0  0  0  0  0  0  0  0  0
  197.6880  175.6360  136.7980 O   0  0  0  0  0  0  0  0  0  0  0  0
  193.2140  175.4700  135.9510 N   0  0  0  0  0  2  0  0  0  0  0  0
  194.9860  173.9740  136.4680 N   0  0  0  0  0  0  0  0  0  0  0  0
  197.0700  174.9350  135.7520 C   0  0  2  0  0  3  0  0  0  0  0  0
  198.0440  174.6580  137.7380 C   0  0  0  0  0  2  0  0  0  0  0  0
  197.0210  173.5470  137.6840 C   0  0  0  0  0  2  0  0  0  0  0  0
  195.7900  175.9790  134.9830 S   0  0  0  0  0  0  0  0  0  0  0  0
  196.4020  173.6950  136.3260 C   0  0  1  0  0  3  0  0  0  0  0  0
  194.5700  175.0290  135.8580 C   0  0  0  0  0  0  0  0  0  0  0  0
  188.4450  177.2770  140.2920 N   0  0  0  0  0  2  0  0  0  0  0  0
  188.3590  177.8560  141.5990 C   0  0  0  0  0  0  0  0  0  0  0  0
  188.9990  179.2240  139.1320 O   0  0  0  0  0  0  0  0  0  0  0  0
  188.7720  177.9860  139.0880 C   0  0  0  0  0  0  0  0  0  0  0  0
  188.5800  179.0830  141.7830 O   0  0  0  0  0  0  0  0  0  0  0  0
  187.9680  177.0000  142.7510 C   0  0  0  0  0  2  0  0  0  0  0  0
  188.3770  177.6700  144.0470 C   0  0  0  0  0  2  0  0  0  0  0  0
  187.5320  177.1260  145.1870 C   0  0  0  0  0  2  0  0  0  0  0  0
  187.3420  178.1480  146.3140 C   0  0  1  0  0  3  0  0  0  0  0  0
  185.8000  179.7140  147.3560 O   0  0  0  0  0  1  0  0  0  0  0  0
  186.0770  179.0070  146.1830 C   0  0  2  0  0  3  0  0  0  0  0  0
  184.8640  178.2040  145.7270 C   0  0  0  0  0  2  0  0  0  0  0  0
  183.7170  179.0020  145.7000 O   0  0  0  0  0  1  0  0  0  0  0  0
  188.6360  177.8680  148.0900 C   0  0  0  0  0  1  0  0  0  0  0  0
  187.3880  177.5280  147.5660 O   0  0  0  0  0  0  0  0  0  0  0  0
  1 24  1  0  0  0  0
  2  1  1  0  0  0  0
  2  8  1  0  0  0  0
  3  9  2  0  0  0  0
  4  8  2  0  0  0  0
  5  7  1  0  0  0  0
  6 13  1  6  0  0  0
  6  4  1  0  0  0  0
  7  1  2  0  0  0  0
  9 11  1  0  0  0  0
  9  6  1  0  0  0  0
 10  5  2  0  0  0  0
 10 11  1  0  0  0  0
 11  2  2  0  0  0  0
 12 16  1  0  0  0  0
 15 18  1  1  0  0  0
 15 19  1  0  0  0  0
 15 12  1  0  0  0  0
 17 16  1  0  0  0  0
 18 20  1  0  0  0  0
 19 14  1  0  0  0  0
 19 17  1  1  0  0  0
 20 13  1  0  0  0  0
 20 14  2  0  0  0  0
 21 22  1  0  0  0  0
 22 25  2  0  0  0  0
 22 26  1  0  0  0  0
 24 23  2  0  0  0  0
 24 21  1  0  0  0  0
 26 27  1  0  0  0  0
 27 28  1  0  0  0  0
 29 28  1  6  0  0  0
 29 35  1  0  0  0  0
 31 29  1  0  0  0  0
 31 30  1  1  0  0  0
 32 31  1  0  0  0  0
 33 32  1  0  0  0  0
 35 34  1  0  0  0  0
M  END
>  <MODEL>
8

>  <REMARK>
 VINA RESULT:      -6.9      4.363      7.502
  Name = 
  9 active torsions:
  status: ('A' for Active; 'I' for Inactive)
    1  A    between atoms: C_1  and  C_24
    2  A    between atoms: C_6  and  C_10
    3  A    between atoms: C_6  and  C_12
    4  A    between atoms: N_8  and  C_17
    5  A    between atoms: C_10  and  C_19
    6  A    between atoms: C_11  and  C_12
    7  A    between atoms: C_11  and  C_32
    8  A    between atoms: C_11  and  O_35
    9  A    between atoms: C_13  and  C_32
                            x       y       z     vdW  Elec       q    Type
                         _______ _______ _______ _____ _____    ______ ____

>  <TORSDO>
F 9

$$$$
=
 OpenBabel10222418043D

 35 38  0  0  1  0  0  0  0  0999 V2000
  188.7470  177.3780  137.7170 C   0  0  0  0  0  0  0  0  0  0  0  0
  189.8010  176.4750  137.4250 C   0  0  0  0  0  0  0  0  0  0  0  0
  190.7810  174.0830  134.8780 O   0  0  0  0  0  0  0  0  0  0  0  0
  191.9250  175.4090  138.0780 C   0  0  0  0  0  3  0  0  0  0  0  0
  187.7690  176.8550  135.5600 C   0  0  0  0  0  3  0  0  0  0  0  0
  192.1360  174.8290  136.7050 C   0  0  1  0  0  3  0  0  0  0  0  0
  187.7370  177.5560  136.7640 C   0  0  0  0  0  3  0  0  0  0  0  0
  190.8820  176.1820  138.3910 C   0  0  0  0  0  3  0  0  0  0  0  0
  190.8800  174.8480  135.8750 C   0  0  0  0  0  0  0  0  0  0  0  0
  188.7860  175.9940  135.3030 N   0  0  0  0  0  0  0  0  0  0  0  0
  189.7940  175.7920  136.1920 C   0  0  0  0  0  0  0  0  0  0  0  0
  197.6680  175.6250  136.8440 O   0  0  0  0  0  0  0  0  0  0  0  0
  193.1850  175.5810  136.0270 N   0  0  0  0  0  2  0  0  0  0  0  0
  194.9240  174.0350  136.5020 N   0  0  0  0  0  0  0  0  0  0  0  0
  197.0260  174.9590  135.7900 C   0  0  2  0  0  3  0  0  0  0  0  0
  198.0070  174.6220  137.7630 C   0  0  0  0  0  2  0  0  0  0  0  0
  196.9580  173.5360  137.6950 C   0  0  0  0  0  2  0  0  0  0  0  0
  195.7660  176.0480  135.0500 S   0  0  0  0  0  0  0  0  0  0  0  0
  196.3330  173.7250  136.3450 C   0  0  1  0  0  3  0  0  0  0  0  0
  194.5300  175.1110  135.9160 C   0  0  0  0  0  0  0  0  0  0  0  0
  188.0800  177.5290  140.1440 N   0  0  0  0  0  2  0  0  0  0  0  0
  187.9290  178.1470  141.4280 C   0  0  0  0  0  0  0  0  0  0  0  0
  189.0580  179.3410  139.0470 O   0  0  0  0  0  0  0  0  0  0  0  0
  188.6510  178.1510  138.9840 C   0  0  0  0  0  0  0  0  0  0  0  0
  188.3130  179.3310  141.6290 O   0  0  0  0  0  0  0  0  0  0  0  0
  187.2790  177.3890  142.5290 C   0  0  0  0  0  2  0  0  0  0  0  0
  188.3260  176.6210  143.3090 C   0  0  0  0  0  2  0  0  0  0  0  0
  188.9110  177.5130  144.3900 C   0  0  0  0  0  2  0  0  0  0  0  0
  190.3370  177.1050  144.7790 C   0  0  1  0  0  3  0  0  0  0  0  0
  191.0000  179.2500  143.8440 O   0  0  0  0  0  1  0  0  0  0  0  0
  191.4380  177.9530  144.1270 C   0  0  2  0  0  3  0  0  0  0  0  0
  192.0340  177.2940  142.8870 C   0  0  0  0  0  2  0  0  0  0  0  0
  191.2590  177.5620  141.7560 O   0  0  0  0  0  1  0  0  0  0  0  0
  191.6780  176.3800  146.3870 C   0  0  0  0  0  1  0  0  0  0  0  0
  190.4910  177.0820  146.1680 O   0  0  0  0  0  0  0  0  0  0  0  0
  1 24  1  0  0  0  0
  2  1  1  0  0  0  0
  2  8  1  0  0  0  0
  3  9  2  0  0  0  0
  4  8  2  0  0  0  0
  5  7  1  0  0  0  0
  6 13  1  6  0  0  0
  6  4  1  0  0  0  0
  7  1  2  0  0  0  0
  9 11  1  0  0  0  0
  9  6  1  0  0  0  0
 10  5  2  0  0  0  0
 10 11  1  0  0  0  0
 11  2  2  0  0  0  0
 12 16  1  0  0  0  0
 15 18  1  1  0  0  0
 15 19  1  0  0  0  0
 15 12  1  0  0  0  0
 17 16  1  0  0  0  0
 18 20  1  0  0  0  0
 19 14  1  0  0  0  0
 19 17  1  1  0  0  0
 20 13  1  0  0  0  0
 20 14  2  0  0  0  0
 21 22  1  0  0  0  0
 22 25  2  0  0  0  0
 22 26  1  0  0  0  0
 24 23  2  0  0  0  0
 24 21  1  0  0  0  0
 26 27  1  0  0  0  0
 27 28  1  0  0  0  0
 29 28  1  1  0  0  0
 29 35  1  0  0  0  0
 31 30  1  6  0  0  0
 31 29  1  0  0  0  0
 32 31  1  0  0  0  0
 33 32  1  0  0  0  0
 35 34  1  0  0  0  0
M  END
>  <MODEL>
9

>  <REMARK>
 VINA RESULT:      -6.7      4.374      7.754
  Name = 
  9 active torsions:
  status: ('A' for Active; 'I' for Inactive)
    1  A    between atoms: C_1  and  C_24
    2  A    between atoms: C_6  and  C_10
    3  A    between atoms: C_6  and  C_12
    4  A    between atoms: N_8  and  C_17
    5  A    between atoms: C_10  and  C_19
    6  A    between atoms: C_11  and  C_12
    7  A    between atoms: C_11  and  C_32
    8  A    between atoms: C_11  and  O_35
    9  A    between atoms: C_13  and  C_32
                            x       y       z     vdW  Elec       q    Type
                         _______ _______ _______ _____ _____    ______ ____

>  <TORSDO>
F 9

$$$$
