=
 OpenBabel10222418003D

 35 38  0  0  1  0  0  0  0  0999 V2000
  184.1560  179.1010  144.5040 N   0  0  0  0  0  0  0  0  0  0  0  0
  183.0600  179.3550  143.8570 C   0  0  0  0  0  3  0  0  0  0  0  0
  185.7380  178.4880  142.7760 C   0  0  0  0  0  3  0  0  0  0  0  0
  183.5450  178.4290  141.5750 C   0  0  0  0  0  0  0  0  0  0  0  0
  185.0110  178.5980  141.6670 C   0  0  0  0  0  3  0  0  0  0  0  0
  182.6730  178.7480  142.5630 C   0  0  0  0  0  0  0  0  0  0  0  0
  185.1450  178.1170  144.0920 C   0  0  1  0  0  3  0  0  0  0  0  0
  188.1850  177.8010  147.0710 C   0  0  0  0  0  0  0  0  0  0  0  0
  186.2130  178.0140  145.1320 C   0  0  0  0  0  0  0  0  0  0  0  0
  186.9090  178.2680  147.3910 C   0  0  0  0  0  3  0  0  0  0  0  0
  185.9570  178.3630  146.4250 N   0  0  0  0  0  0  0  0  0  0  0  0
  188.4670  177.4310  145.7550 C   0  0  0  0  0  3  0  0  0  0  0  0
  187.4760  177.5360  144.7780 C   0  0  0  0  0  3  0  0  0  0  0  0
  189.2310  177.6950  148.1200 C   0  0  0  0  0  1  0  0  0  0  0  0
  183.0470  177.9990  140.2260 C   0  0  0  0  0  2  0  0  0  0  0  0
  183.8460  178.6250  139.0870 C   0  0  0  0  0  2  0  0  0  0  0  0
  184.2390  177.6200  138.1010 N   0  0  0  0  0  0  0  0  0  0  0  0
  185.9220  177.0620  136.4420 N   0  0  0  0  0  0  0  0  0  0  0  0
  187.1900  177.0590  135.9530 C   0  0  0  0  0  3  0  0  0  0  0  0
  187.9180  178.3080  137.8750 C   0  0  0  0  0  0  0  0  0  0  0  0
  188.9230  178.9350  138.5990 O   0  0  0  0  0  1  0  0  0  0  0  0
  185.5980  177.6720  137.6190 C   0  0  0  0  0  0  0  0  0  0  0  0
  188.2130  177.6880  136.6610 C   0  0  0  0  0  3  0  0  0  0  0  0
  186.6110  178.2980  138.3600 C   0  0  0  0  0  3  0  0  0  0  0  0
  183.3180  176.5750  137.6930 C   0  0  0  0  0  0  0  0  0  0  0  0
  182.2680  176.6890  136.8800 C   0  0  0  0  0  0  0  0  0  0  0  0
  183.3200  175.1680  138.2050 C   0  0  0  0  0  2  0  0  0  0  0  0
  181.5820  175.4540  136.7990 N   0  0  0  0  0  0  0  0  0  0  0  0
  181.8020  177.9030  136.1540 C   0  0  0  0  0  1  0  0  0  0  0  0
  182.1600  174.5960  137.5340 N   0  0  0  0  0  0  0  0  0  0  0  0
  181.1980  178.6380  142.3280 C   0  0  0  0  0  2  0  0  0  0  0  0
  179.6010  178.6810  144.0690 C   0  0  0  0  0  1  0  0  0  0  0  0
  180.4770  179.5080  143.2510 N   0  0  0  0  0  0  0  0  0  0  0  0
  179.8220  180.3560  140.9850 C   0  0  0  0  0  1  0  0  0  0  0  0
  179.6760  180.4820  142.5020 C   0  0  0  0  0  2  0  0  0  0  0  0
  2  1  2  0  0  0  0
  3  7  1  0  0  0  0
  4  5  1  0  0  0  0
  4  6  2  0  0  0  0
  5  3  2  0  0  0  0
  6  2  1  0  0  0  0
  7  1  1  0  0  0  0
  7  9  1  1  0  0  0
  8 10  1  0  0  0  0
  8 14  1  0  0  0  0
  9 11  1  0  0  0  0
 11 10  2  0  0  0  0
 12  8  2  0  0  0  0
 13  9  2  0  0  0  0
 13 12  1  0  0  0  0
 15  4  1  0  0  0  0
 16 15  1  0  0  0  0
 17 16  1  0  0  0  0
 18 22  1  0  0  0  0
 19 18  2  0  0  0  0
 19 23  1  0  0  0  0
 20 24  1  0  0  0  0
 20 21  1  0  0  0  0
 22 17  1  0  0  0  0
 22 24  2  0  0  0  0
 23 20  2  0  0  0  0
 25 17  1  0  0  0  0
 25 27  1  0  0  0  0
 26 25  2  0  0  0  0
 28 26  1  0  0  0  0
 28 30  2  0  0  0  0
 29 26  1  0  0  0  0
 30 27  1  0  0  0  0
 31  6  1  0  0  0  0
 31 33  1  0  0  0  0
 33 32  1  0  0  0  0
 34 35  1  0  0  0  0
 35 33  1  0  0  0  0
M  END
>  <MODEL>
1

>  <REMARK>
 VINA RESULT:      -7.8      0.000      0.000
  Name = 
  9 active torsions:
  status: ('A' for Active; 'I' for Inactive)
    1  A    between atoms: C_1  and  C_8
    2  A    between atoms: C_1  and  C_17
    3  A    between atoms: C_2  and  N_7
    4  A    between atoms: N_7  and  C_8
    5  A    between atoms: N_7  and  C_28
    6  A    between atoms: C_11  and  C_35
    7  A    between atoms: C_13  and  N_32
    8  A    between atoms: C_23  and  C_25
    9  A    between atoms: C_25  and  N_32
                            x       y       z     vdW  Elec       q    Type
                         _______ _______ _______ _____ _____    ______ ____

>  <TORSDO>
F 9

$$$$
=
 OpenBabel10222418003D

 35 38  0  0  1  0  0  0  0  0999 V2000
  186.8720  178.5940  138.4380 N   0  0  0  0  0  0  0  0  0  0  0  0
  188.1170  178.2340  138.5070 C   0  0  0  0  0  3  0  0  0  0  0  0
  186.2020  178.8660  140.7480 C   0  0  0  0  0  3  0  0  0  0  0  0
  188.3870  177.6630  140.9360 C   0  0  0  0  0  0  0  0  0  0  0  0
  187.3170  178.5670  141.4090 C   0  0  0  0  0  3  0  0  0  0  0  0
  188.7310  177.4970  139.6350 C   0  0  0  0  0  0  0  0  0  0  0  0
  185.8630  178.2590  139.4300 C   0  0  1  0  0  3  0  0  0  0  0  0
  182.0560  179.6400  138.0830 C   0  0  0  0  0  0  0  0  0  0  0  0
  184.5260  178.7380  138.9660 C   0  0  0  0  0  0  0  0  0  0  0  0
  182.9180  180.4800  138.7900 C   0  0  0  0  0  3  0  0  0  0  0  0
  184.1250  180.0170  139.2120 N   0  0  0  0  0  0  0  0  0  0  0  0
  182.4490  178.3280  137.8140 C   0  0  0  0  0  3  0  0  0  0  0  0
  183.6920  177.8720  138.2550 C   0  0  0  0  0  3  0  0  0  0  0  0
  180.7360  180.1370  137.6200 C   0  0  0  0  0  1  0  0  0  0  0  0
  189.1920  177.0180  142.0260 C   0  0  0  0  0  2  0  0  0  0  0  0
  188.3120  176.4590  143.1410 C   0  0  0  0  0  2  0  0  0  0  0  0
  188.5370  177.1680  144.4000 N   0  0  0  0  0  0  0  0  0  0  0  0
  187.4200  177.9450  146.4100 N   0  0  0  0  0  0  0  0  0  0  0  0
  186.3470  178.4240  147.0950 C   0  0  0  0  0  3  0  0  0  0  0  0
  185.0650  178.4210  145.0600 C   0  0  0  0  0  0  0  0  0  0  0  0
  183.8790  178.6570  144.3790 O   0  0  0  0  0  1  0  0  0  0  0  0
  187.3740  177.7000  145.0680 C   0  0  0  0  0  0  0  0  0  0  0  0
  185.1480  178.6740  146.4290 C   0  0  0  0  0  3  0  0  0  0  0  0
  186.1760  177.9280  144.3760 C   0  0  0  0  0  3  0  0  0  0  0  0
  189.8640  177.2570  144.9790 C   0  0  0  0  0  0  0  0  0  0  0  0
  190.7930  178.1850  144.7470 C   0  0  0  0  0  0  0  0  0  0  0  0
  190.4850  176.2410  145.8860 C   0  0  0  0  0  2  0  0  0  0  0  0
  191.9800  177.8700  145.4500 N   0  0  0  0  0  0  0  0  0  0  0  0
  190.6850  179.3850  143.8710 C   0  0  0  0  0  1  0  0  0  0  0  0
  191.8210  176.7860  146.0910 N   0  0  0  0  0  0  0  0  0  0  0  0
  189.9010  176.6350  139.2710 C   0  0  0  0  0  2  0  0  0  0  0  0
  189.4920  175.1460  137.4820 C   0  0  0  0  0  1  0  0  0  0  0  0
  189.9740  176.4770  137.8220 N   0  0  0  0  0  0  0  0  0  0  0  0
  192.3880  176.5170  138.4980 C   0  0  0  0  0  1  0  0  0  0  0  0
  191.3620  176.6270  137.3700 C   0  0  0  0  0  2  0  0  0  0  0  0
  1  2  2  0  0  0  0
  1  7  1  0  0  0  0
  2  6  1  0  0  0  0
  3  5  2  0  0  0  0
  4  5  1  0  0  0  0
  4 15  1  0  0  0  0
  6  4  2  0  0  0  0
  7  9  1  6  0  0  0
  7  3  1  0  0  0  0
  8 10  1  0  0  0  0
  9 11  1  0  0  0  0
 10 11  2  0  0  0  0
 12  8  2  0  0  0  0
 12 13  1  0  0  0  0
 13  9  2  0  0  0  0
 14  8  1  0  0  0  0
 15 16  1  0  0  0  0
 16 17  1  0  0  0  0
 17 25  1  0  0  0  0
 17 22  1  0  0  0  0
 18 19  1  0  0  0  0
 20 23  1  0  0  0  0
 21 20  1  0  0  0  0
 22 18  2  0  0  0  0
 23 19  2  0  0  0  0
 24 20  2  0  0  0  0
 24 22  1  0  0  0  0
 25 27  1  0  0  0  0
 26 25  2  0  0  0  0
 26 28  1  0  0  0  0
 27 30  1  0  0  0  0
 28 30  2  0  0  0  0
 29 26  1  0  0  0  0
 31  6  1  0  0  0  0
 32 33  1  0  0  0  0
 33 31  1  0  0  0  0
 35 33  1  0  0  0  0
 35 34  1  0  0  0  0
M  END
>  <MODEL>
2

>  <REMARK>
 VINA RESULT:      -7.8      3.225      9.455
  Name = 
  9 active torsions:
  status: ('A' for Active; 'I' for Inactive)
    1  A    between atoms: C_1  and  C_8
    2  A    between atoms: C_1  and  C_17
    3  A    between atoms: C_2  and  N_7
    4  A    between atoms: N_7  and  C_8
    5  A    between atoms: N_7  and  C_28
    6  A    between atoms: C_11  and  C_35
    7  A    between atoms: C_13  and  N_32
    8  A    between atoms: C_23  and  C_25
    9  A    between atoms: C_25  and  N_32
                            x       y       z     vdW  Elec       q    Type
                         _______ _______ _______ _____ _____    ______ ____

>  <TORSDO>
F 9

$$$$
=
 OpenBabel10222418003D

 35 38  0  0  1  0  0  0  0  0999 V2000
  188.9970  176.9110  142.8550 N   0  0  0  0  0  0  0  0  0  0  0  0
  188.3820  177.1400  141.7350 C   0  0  0  0  0  3  0  0  0  0  0  0
  187.3350  177.3720  144.5530 C   0  0  0  0  0  3  0  0  0  0  0  0
  186.3080  178.3380  142.4870 C   0  0  0  0  0  0  0  0  0  0  0  0
  186.2740  177.7220  143.8310 C   0  0  0  0  0  3  0  0  0  0  0  0
  187.2630  178.0930  141.5560 C   0  0  0  0  0  0  0  0  0  0  0  0
  188.7330  177.6170  144.0980 C   0  0  1  0  0  3  0  0  0  0  0  0
  191.5200  176.3710  147.0800 C   0  0  0  0  0  0  0  0  0  0  0  0
  189.7040  177.1730  145.1430 C   0  0  0  0  0  0  0  0  0  0  0  0
  191.8210  176.2580  145.7220 C   0  0  0  0  0  3  0  0  0  0  0  0
  190.9150  176.6590  144.7890 N   0  0  0  0  0  0  0  0  0  0  0  0
  190.2880  176.9020  147.4660 C   0  0  0  0  0  3  0  0  0  0  0  0
  189.3730  177.3070  146.4930 C   0  0  0  0  0  3  0  0  0  0  0  0
  192.5020  175.9350  148.1050 C   0  0  0  0  0  1  0  0  0  0  0  0
  185.1070  179.1720  142.1490 C   0  0  0  0  0  2  0  0  0  0  0  0
  183.8030  178.5140  142.5880 C   0  0  0  0  0  2  0  0  0  0  0  0
  182.7600  178.6770  141.5770 N   0  0  0  0  0  0  0  0  0  0  0  0
  180.7980  180.0960  141.4010 N   0  0  0  0  0  0  0  0  0  0  0  0
  179.5790  180.5380  141.8090 C   0  0  0  0  0  3  0  0  0  0  0  0
  179.6150  178.9360  143.6020 C   0  0  0  0  0  0  0  0  0  0  0  0
  179.0210  178.3510  144.7120 O   0  0  0  0  0  1  0  0  0  0  0  0
  181.4560  179.0870  142.0410 C   0  0  0  0  0  0  0  0  0  0  0  0
  178.9620  179.9600  142.9180 C   0  0  0  0  0  3  0  0  0  0  0  0
  180.8660  178.4990  143.1690 C   0  0  0  0  0  3  0  0  0  0  0  0
  183.0560  178.5110  140.1660 C   0  0  0  0  0  0  0  0  0  0  0  0
  182.9160  177.4090  139.4300 C   0  0  1  0  0  3  0  0  0  0  0  0
  183.6860  179.5440  139.2830 C   0  0  0  0  0  3  0  0  0  0  0  0
  183.3880  177.6400  138.1160 N   0  0  0  0  0  0  0  0  0  0  0  0
  182.3790  176.0870  139.8590 C   0  0  0  0  0  1  0  0  0  0  0  0
  183.8210  178.8290  138.0210 N   0  0  0  0  0  0  0  0  0  0  0  0
  187.1470  178.6880  140.1860 C   0  0  0  0  0  2  0  0  0  0  0  0
  189.0690  178.7230  138.8140 C   0  0  0  0  0  1  0  0  0  0  0  0
  187.9370  177.9130  139.2350 N   0  0  0  0  0  0  0  0  0  0  0  0
  187.7960  176.5790  137.1170 C   0  0  0  0  0  1  0  0  0  0  0  0
  187.1180  177.5660  138.0670 C   0  0  0  0  0  2  0  0  0  0  0  0
  1  7  1  0  0  0  0
  2  1  2  0  0  0  0
  4  5  1  0  0  0  0
  5  3  2  0  0  0  0
  6  2  1  0  0  0  0
  6  4  2  0  0  0  0
  7  3  1  0  0  0  0
  7  9  1  1  0  0  0
  8 12  1  0  0  0  0
  8 14  1  0  0  0  0
  9 13  1  0  0  0  0
 10  8  2  0  0  0  0
 11  9  2  0  0  0  0
 11 10  1  0  0  0  0
 13 12  2  0  0  0  0
 15  4  1  0  0  0  0
 15 16  1  0  0  0  0
 17 22  1  0  0  0  0
 17 16  1  0  0  0  0
 18 19  2  0  0  0  0
 18 22  1  0  0  0  0
 19 23  1  0  0  0  0
 20 21  1  0  0  0  0
 22 24  2  0  0  0  0
 23 20  2  0  0  0  0
 24 20  1  0  0  0  0
 25 17  1  0  0  0  0
 26 29  1  1  0  0  0
 26 25  1  0  0  0  0
 27 25  2  0  0  0  0
 28 26  1  0  0  0  0
 30 28  2  0  0  0  0
 30 27  1  0  0  0  0
 31  6  1  0  0  0  0
 32 33  1  0  0  0  0
 33 31  1  0  0  0  0
 34 35  1  0  0  0  0
 35 33  1  0  0  0  0
M  END
>  <MODEL>
3

>  <REMARK>
 VINA RESULT:      -7.7      2.904      6.322
  Name = 
  9 active torsions:
  status: ('A' for Active; 'I' for Inactive)
    1  A    between atoms: C_1  and  C_8
    2  A    between atoms: C_1  and  C_17
    3  A    between atoms: C_2  and  N_7
    4  A    between atoms: N_7  and  C_8
    5  A    between atoms: N_7  and  C_28
    6  A    between atoms: C_11  and  C_35
    7  A    between atoms: C_13  and  N_32
    8  A    between atoms: C_23  and  C_25
    9  A    between atoms: C_25  and  N_32
                            x       y       z     vdW  Elec       q    Type
                         _______ _______ _______ _____ _____    ______ ____

>  <TORSDO>
F 9

$$$$
=
 OpenBabel10222418003D

 35 38  0  0  1  0  0  0  0  0999 V2000
  190.5500  176.4510  142.5420 N   0  0  0  0  0  0  0  0  0  0  0  0
  190.1930  176.6410  141.3090 C   0  0  0  0  0  3  0  0  0  0  0  0
  188.5450  176.9090  143.8200 C   0  0  0  0  0  3  0  0  0  0  0  0
  187.9830  177.8070  141.5540 C   0  0  0  0  0  0  0  0  0  0  0  0
  187.6640  177.2190  142.8730 C   0  0  0  0  0  3  0  0  0  0  0  0
  189.1240  177.5650  140.8640 C   0  0  0  0  0  0  0  0  0  0  0  0
  190.0050  177.1770  143.6780 C   0  0  1  0  0  3  0  0  0  0  0  0
  192.0550  176.0200  147.2380 C   0  0  0  0  0  0  0  0  0  0  0  0
  190.7290  176.7780  144.9220 C   0  0  0  0  0  0  0  0  0  0  0  0
  191.0720  177.0110  147.2640 C   0  0  0  0  0  3  0  0  0  0  0  0
  190.4340  177.3660  146.1160 N   0  0  0  0  0  0  0  0  0  0  0  0
  192.3690  175.3990  146.0280 C   0  0  0  0  0  3  0  0  0  0  0  0
  191.7020  175.7780  144.8620 C   0  0  0  0  0  3  0  0  0  0  0  0
  192.7570  175.6280  148.4860 C   0  0  0  0  0  1  0  0  0  0  0  0
  186.8720  178.6060  140.9380 C   0  0  0  0  0  2  0  0  0  0  0  0
  186.2150  179.5510  141.9400 C   0  0  0  0  0  2  0  0  0  0  0  0
  184.8380  179.1480  142.2230 N   0  0  0  0  0  0  0  0  0  0  0  0
  183.6750  179.7530  140.1800 N   0  0  0  0  0  0  0  0  0  0  0  0
  182.8830  179.4830  139.1090 C   0  0  0  0  0  3  0  0  0  0  0  0
  182.6970  177.2000  139.8410 C   0  0  0  0  0  0  0  0  0  0  0  0
  182.2020  175.9140  139.6720 O   0  0  0  0  0  1  0  0  0  0  0  0
  184.0130  178.7960  141.0920 C   0  0  0  0  0  0  0  0  0  0  0  0
  182.3810  178.1960  138.9180 C   0  0  0  0  0  3  0  0  0  0  0  0
  183.5090  177.4970  140.9330 C   0  0  0  0  0  3  0  0  0  0  0  0
  184.3610  179.0330  143.5890 C   0  0  0  0  0  0  0  0  0  0  0  0
  183.0980  179.0710  144.0140 C   0  0  0  0  0  0  0  0  0  0  0  0
  185.2260  178.9540  144.8080 C   0  0  0  0  0  2  0  0  0  0  0  0
  183.0600  179.0020  145.4270 N   0  0  0  0  0  0  0  0  0  0  0  0
  181.8610  179.1950  143.1930 C   0  0  0  0  0  1  0  0  0  0  0  0
  184.2430  178.9360  145.8820 N   0  0  0  0  0  0  0  0  0  0  0  0
  189.3030  178.1270  139.4860 C   0  0  0  0  0  2  0  0  0  0  0  0
  190.3780  177.0780  137.6620 C   0  0  0  0  0  1  0  0  0  0  0  0
  189.1820  177.0660  138.4920 N   0  0  0  0  0  0  0  0  0  0  0  0
  188.0220  178.6320  136.9150 C   0  0  0  0  0  1  0  0  0  0  0  0
  187.9990  177.2940  137.6550 C   0  0  0  0  0  2  0  0  0  0  0  0
  1  7  1  0  0  0  0
  2  1  2  0  0  0  0
  4  5  1  0  0  0  0
  5  3  2  0  0  0  0
  6  2  1  0  0  0  0
  6  4  2  0  0  0  0
  7  3  1  0  0  0  0
  7  9  1  1  0  0  0
  8 10  1  0  0  0  0
  8 14  1  0  0  0  0
  9 11  1  0  0  0  0
 11 10  2  0  0  0  0
 12  8  2  0  0  0  0
 13  9  2  0  0  0  0
 13 12  1  0  0  0  0
 15  4  1  0  0  0  0
 15 16  1  0  0  0  0
 16 17  1  0  0  0  0
 17 25  1  0  0  0  0
 18 22  1  0  0  0  0
 19 18  2  0  0  0  0
 20 24  1  0  0  0  0
 21 20  1  0  0  0  0
 22 17  1  0  0  0  0
 23 19  1  0  0  0  0
 23 20  2  0  0  0  0
 24 22  2  0  0  0  0
 25 26  2  0  0  0  0
 25 27  1  0  0  0  0
 26 28  1  0  0  0  0
 27 30  1  0  0  0  0
 28 30  2  0  0  0  0
 29 26  1  0  0  0  0
 31  6  1  0  0  0  0
 32 33  1  0  0  0  0
 33 31  1  0  0  0  0
 34 35  1  0  0  0  0
 35 33  1  0  0  0  0
M  END
>  <MODEL>
4

>  <REMARK>
 VINA RESULT:      -7.6      2.941      6.673
  Name = 
  9 active torsions:
  status: ('A' for Active; 'I' for Inactive)
    1  A    between atoms: C_1  and  C_8
    2  A    between atoms: C_1  and  C_17
    3  A    between atoms: C_2  and  N_7
    4  A    between atoms: N_7  and  C_8
    5  A    between atoms: N_7  and  C_28
    6  A    between atoms: C_11  and  C_35
    7  A    between atoms: C_13  and  N_32
    8  A    between atoms: C_23  and  C_25
    9  A    between atoms: C_25  and  N_32
                            x       y       z     vdW  Elec       q    Type
                         _______ _______ _______ _____ _____    ______ ____

>  <TORSDO>
F 9

$$$$
=
 OpenBabel10222418003D

 35 38  0  0  1  0  0  0  0  0999 V2000
  183.9460  178.6190  143.4070 N   0  0  0  0  0  0  0  0  0  0  0  0
  183.0720  178.6450  142.4480 C   0  0  0  0  0  3  0  0  0  0  0  0
  186.0640  178.9770  142.2900 C   0  0  0  0  0  3  0  0  0  0  0  0
  184.5080  178.4880  140.3950 C   0  0  0  0  0  0  0  0  0  0  0  0
  185.7020  179.0990  141.0160 C   0  0  0  0  0  3  0  0  0  0  0  0
  183.3370  178.2650  141.0410 C   0  0  0  0  0  0  0  0  0  0  0  0
  185.3110  178.1360  143.2630 C   0  0  1  0  0  3  0  0  0  0  0  0
  187.2330  178.1500  147.0730 C   0  0  0  0  0  0  0  0  0  0  0  0
  185.9890  178.1480  144.5940 C   0  0  0  0  0  0  0  0  0  0  0  0
  186.0010  178.7790  146.8860 C   0  0  0  0  0  3  0  0  0  0  0  0
  185.4090  178.7650  145.6620 N   0  0  0  0  0  0  0  0  0  0  0  0
  187.8420  177.5060  145.9950 C   0  0  0  0  0  3  0  0  0  0  0  0
  187.2170  177.5020  144.7470 C   0  0  0  0  0  3  0  0  0  0  0  0
  187.8870  178.1620  148.4060 C   0  0  0  0  0  1  0  0  0  0  0  0
  184.6220  178.2450  138.9180 C   0  0  0  0  0  2  0  0  0  0  0  0
  186.0040  178.6030  138.3790 C   0  0  0  0  0  2  0  0  0  0  0  0
  186.6480  177.4440  137.7610 N   0  0  0  0  0  0  0  0  0  0  0  0
  188.8140  176.4160  137.3820 N   0  0  0  0  0  0  0  0  0  0  0  0
  190.0750  176.0700  137.7520 C   0  0  0  0  0  3  0  0  0  0  0  0
  189.7320  177.1510  139.8730 C   0  0  0  0  0  0  0  0  0  0  0  0
  190.1920  177.5200  141.1290 O   0  0  0  0  0  1  0  0  0  0  0  0
  187.9850  177.1270  138.2000 C   0  0  0  0  0  0  0  0  0  0  0  0
  190.5590  176.4360  139.0080 C   0  0  0  0  0  3  0  0  0  0  0  0
  188.4410  177.4940  139.4750 C   0  0  0  0  0  3  0  0  0  0  0  0
  185.9330  176.6130  136.8110 C   0  0  0  0  0  0  0  0  0  0  0  0
  185.8140  176.7980  135.4960 C   0  0  0  0  0  0  0  0  0  0  0  0
  185.0930  175.4230  137.1570 C   0  0  0  0  0  2  0  0  0  0  0  0
  184.9710  175.8070  134.9400 N   0  0  0  0  0  0  0  0  0  0  0  0
  186.4190  177.8790  134.6680 C   0  0  0  0  0  1  0  0  0  0  0  0
  184.5620  175.0320  135.8590 N   0  0  0  0  0  0  0  0  0  0  0  0
  182.1520  177.7370  140.2910 C   0  0  0  0  0  2  0  0  0  0  0  0
  179.8810  177.5390  140.9100 C   0  0  0  0  0  1  0  0  0  0  0  0
  180.9540  178.4870  140.6540 N   0  0  0  0  0  0  0  0  0  0  0  0
  181.0200  178.8890  138.1800 C   0  0  0  0  0  1  0  0  0  0  0  0
  180.5700  179.3810  139.5560 C   0  0  0  0  0  2  0  0  0  0  0  0
  2  1  2  0  0  0  0
  3  7  1  0  0  0  0
  4  5  1  0  0  0  0
  4  6  2  0  0  0  0
  5  3  2  0  0  0  0
  6  2  1  0  0  0  0
  7  1  1  0  0  0  0
  7  9  1  1  0  0  0
  8 14  1  0  0  0  0
  9 13  2  0  0  0  0
  9 11  1  0  0  0  0
 10  8  1  0  0  0  0
 11 10  2  0  0  0  0
 12  8  2  0  0  0  0
 13 12  1  0  0  0  0
 15  4  1  0  0  0  0
 16 15  1  0  0  0  0
 17 22  1  0  0  0  0
 17 16  1  0  0  0  0
 18 19  2  0  0  0  0
 18 22  1  0  0  0  0
 19 23  1  0  0  0  0
 20 21  1  0  0  0  0
 22 24  2  0  0  0  0
 23 20  2  0  0  0  0
 24 20  1  0  0  0  0
 25 27  1  0  0  0  0
 25 17  1  0  0  0  0
 26 25  2  0  0  0  0
 28 26  1  0  0  0  0
 28 30  2  0  0  0  0
 29 26  1  0  0  0  0
 30 27  1  0  0  0  0
 31 33  1  0  0  0  0
 31  6  1  0  0  0  0
 33 32  1  0  0  0  0
 34 35  1  0  0  0  0
 35 33  1  0  0  0  0
M  END
>  <MODEL>
5

>  <REMARK>
 VINA RESULT:      -7.4      1.847      2.505
  Name = 
  9 active torsions:
  status: ('A' for Active; 'I' for Inactive)
    1  A    between atoms: C_1  and  C_8
    2  A    between atoms: C_1  and  C_17
    3  A    between atoms: C_2  and  N_7
    4  A    between atoms: N_7  and  C_8
    5  A    between atoms: N_7  and  C_28
    6  A    between atoms: C_11  and  C_35
    7  A    between atoms: C_13  and  N_32
    8  A    between atoms: C_23  and  C_25
    9  A    between atoms: C_25  and  N_32
                            x       y       z     vdW  Elec       q    Type
                         _______ _______ _______ _____ _____    ______ ____

>  <TORSDO>
F 9

$$$$
=
 OpenBabel10222418003D

 35 38  0  0  1  0  0  0  0  0999 V2000
  189.0660  176.8910  142.8750 N   0  0  0  0  0  0  0  0  0  0  0  0
  188.4530  177.1160  141.7540 C   0  0  0  0  0  3  0  0  0  0  0  0
  187.4110  177.3950  144.5690 C   0  0  0  0  0  3  0  0  0  0  0  0
  186.3970  178.3520  142.4930 C   0  0  0  0  0  0  0  0  0  0  0  0
  186.3550  177.7520  143.8440 C   0  0  0  0  0  3  0  0  0  0  0  0
  187.3480  178.0830  141.5650 C   0  0  0  0  0  0  0  0  0  0  0  0
  188.8130  177.6150  144.1110 C   0  0  1  0  0  3  0  0  0  0  0  0
  191.5830  176.3640  147.1070 C   0  0  0  0  0  0  0  0  0  0  0  0
  189.7780  177.1690  145.1600 C   0  0  0  0  0  0  0  0  0  0  0  0
  191.9280  176.3450  145.7550 C   0  0  0  0  0  3  0  0  0  0  0  0
  191.0270  176.7450  144.8170 N   0  0  0  0  0  0  0  0  0  0  0  0
  190.3110  176.8010  147.4820 C   0  0  0  0  0  3  0  0  0  0  0  0
  189.4020  177.2080  146.5040 C   0  0  0  0  0  3  0  0  0  0  0  0
  192.5590  175.9270  148.1370 C   0  0  0  0  0  1  0  0  0  0  0  0
  185.2080  179.2000  142.1460 C   0  0  0  0  0  2  0  0  0  0  0  0
  183.9620  178.7980  142.9300 C   0  0  0  0  0  2  0  0  0  0  0  0
  182.7910  178.7200  142.0600 N   0  0  0  0  0  0  0  0  0  0  0  0
  183.4590  179.2490  139.7860 N   0  0  0  0  0  0  0  0  0  0  0  0
  183.6680  178.9390  138.4800 C   0  0  0  0  0  3  0  0  0  0  0  0
  182.9620  176.6820  138.9170 C   0  0  0  0  0  0  0  0  0  0  0  0
  182.7100  175.3890  138.4800 O   0  0  0  0  0  1  0  0  0  0  0  0
  183.0180  178.3260  140.6900 C   0  0  0  0  0  0  0  0  0  0  0  0
  183.4260  177.6440  138.0210 C   0  0  0  0  0  3  0  0  0  0  0  0
  182.7520  177.0200  140.2530 C   0  0  0  0  0  3  0  0  0  0  0  0
  181.4570  178.9520  142.5810 C   0  0  0  0  0  0  0  0  0  0  0  0
  180.4410  179.5660  141.9730 C   0  0  0  0  0  0  0  0  0  0  0  0
  180.9980  178.6280  143.9690 C   0  0  0  0  0  2  0  0  0  0  0  0
  179.3340  179.6560  142.8500 N   0  0  0  0  0  0  0  0  0  0  0  0
  180.4080  180.1280  140.5940 C   0  0  0  0  0  1  0  0  0  0  0  0
  179.6320  179.1340  143.9680 N   0  0  0  0  0  0  0  0  0  0  0  0
  187.2390  178.6640  140.1880 C   0  0  0  0  0  2  0  0  0  0  0  0
  189.1070  178.6280  138.7420 C   0  0  0  0  0  1  0  0  0  0  0  0
  187.9860  177.8450  139.2390 N   0  0  0  0  0  0  0  0  0  0  0  0
  187.8720  177.2750  136.8000 C   0  0  0  0  0  1  0  0  0  0  0  0
  187.1200  177.4600  138.1180 C   0  0  0  0  0  2  0  0  0  0  0  0
  1  7  1  0  0  0  0
  2  1  2  0  0  0  0
  4  5  1  0  0  0  0
  5  3  2  0  0  0  0
  6  2  1  0  0  0  0
  6  4  2  0  0  0  0
  7  3  1  0  0  0  0
  7  9  1  1  0  0  0
  8 12  1  0  0  0  0
  8 14  1  0  0  0  0
  9 13  1  0  0  0  0
 10  8  2  0  0  0  0
 11  9  2  0  0  0  0
 11 10  1  0  0  0  0
 13 12  2  0  0  0  0
 15  4  1  0  0  0  0
 15 16  1  0  0  0  0
 17 25  1  0  0  0  0
 17 16  1  0  0  0  0
 18 22  1  0  0  0  0
 19 18  2  0  0  0  0
 20 24  1  0  0  0  0
 21 20  1  0  0  0  0
 22 17  1  0  0  0  0
 23 19  1  0  0  0  0
 23 20  2  0  0  0  0
 24 22  2  0  0  0  0
 25 27  1  0  0  0  0
 26 25  2  0  0  0  0
 26 28  1  0  0  0  0
 28 30  2  0  0  0  0
 29 26  1  0  0  0  0
 30 27  1  0  0  0  0
 31  6  1  0  0  0  0
 32 33  1  0  0  0  0
 33 31  1  0  0  0  0
 34 35  1  0  0  0  0
 35 33  1  0  0  0  0
M  END
>  <MODEL>
6

>  <REMARK>
 VINA RESULT:      -7.4      2.480      5.764
  Name = 
  9 active torsions:
  status: ('A' for Active; 'I' for Inactive)
    1  A    between atoms: C_1  and  C_8
    2  A    between atoms: C_1  and  C_17
    3  A    between atoms: C_2  and  N_7
    4  A    between atoms: N_7  and  C_8
    5  A    between atoms: N_7  and  C_28
    6  A    between atoms: C_11  and  C_35
    7  A    between atoms: C_13  and  N_32
    8  A    between atoms: C_23  and  C_25
    9  A    between atoms: C_25  and  N_32
                            x       y       z     vdW  Elec       q    Type
                         _______ _______ _______ _____ _____    ______ ____

>  <TORSDO>
F 9

$$$$
=
 OpenBabel10222418003D

 35 38  0  0  1  0  0  0  0  0999 V2000
  183.8780  179.0990  144.5490 N   0  0  0  0  0  0  0  0  0  0  0  0
  182.7490  179.3510  143.9620 C   0  0  0  0  0  3  0  0  0  0  0  0
  185.4350  178.7690  142.7240 C   0  0  0  0  0  3  0  0  0  0  0  0
  183.2110  178.7010  141.5820 C   0  0  0  0  0  0  0  0  0  0  0  0
  184.6670  178.9490  141.6530 C   0  0  0  0  0  3  0  0  0  0  0  0
  182.3550  178.8610  142.6210 C   0  0  0  0  0  0  0  0  0  0  0  0
  184.9090  178.2260  144.0080 C   0  0  1  0  0  3  0  0  0  0  0  0
  188.0760  177.8360  146.8420 C   0  0  0  0  0  0  0  0  0  0  0  0
  186.0140  178.0810  145.0020 C   0  0  0  0  0  0  0  0  0  0  0  0
  188.2790  177.5480  145.4910 C   0  0  0  0  0  3  0  0  0  0  0  0
  187.2540  177.6760  144.6070 N   0  0  0  0  0  0  0  0  0  0  0  0
  186.8170  178.2600  147.2690 C   0  0  0  0  0  3  0  0  0  0  0  0
  185.7780  178.3850  146.3450 C   0  0  0  0  0  3  0  0  0  0  0  0
  189.1890  177.6980  147.8140 C   0  0  0  0  0  1  0  0  0  0  0  0
  182.6940  178.3850  140.2090 C   0  0  0  0  0  2  0  0  0  0  0  0
  183.4290  177.2100  139.5710 C   0  0  0  0  0  2  0  0  0  0  0  0
  183.4090  177.3020  138.1120 N   0  0  0  0  0  0  0  0  0  0  0  0
  184.8650  176.9580  136.2000 N   0  0  0  0  0  0  0  0  0  0  0  0
  186.0470  177.0700  135.5380 C   0  0  0  0  0  3  0  0  0  0  0  0
  186.9710  178.2480  137.4200 C   0  0  0  0  0  0  0  0  0  0  0  0
  188.0320  178.8970  138.0370 O   0  0  0  0  0  1  0  0  0  0  0  0
  184.6800  177.4740  137.4490 C   0  0  0  0  0  0  0  0  0  0  0  0
  187.1230  177.7230  136.1380 C   0  0  0  0  0  3  0  0  0  0  0  0
  185.7510  178.1220  138.0820 C   0  0  0  0  0  3  0  0  0  0  0  0
  182.1710  177.1460  137.3710 C   0  0  0  0  0  0  0  0  0  0  0  0
  181.5230  176.0130  137.1000 C   0  0  1  0  0  3  0  0  0  0  0  0
  181.4330  178.2450  136.6720 C   0  0  0  0  0  3  0  0  0  0  0  0
  180.3960  176.2810  136.2880 N   0  0  0  0  0  0  0  0  0  0  0  0
  181.8830  174.6310  137.5250 C   0  0  0  0  0  1  0  0  0  0  0  0
  180.3340  177.5250  136.0420 N   0  0  0  0  0  0  0  0  0  0  0  0
  180.8810  178.6850  142.4160 C   0  0  0  0  0  2  0  0  0  0  0  0
  179.2450  179.0560  144.0790 C   0  0  0  0  0  1  0  0  0  0  0  0
  180.1470  179.7130  143.1460 N   0  0  0  0  0  0  0  0  0  0  0  0
  179.3340  179.9760  140.7890 C   0  0  0  0  0  1  0  0  0  0  0  0
  179.3730  180.5370  142.2100 C   0  0  0  0  0  2  0  0  0  0  0  0
  2  1  2  0  0  0  0
  3  7  1  0  0  0  0
  4  5  1  0  0  0  0
  4  6  2  0  0  0  0
  5  3  2  0  0  0  0
  6  2  1  0  0  0  0
  7  1  1  0  0  0  0
  7  9  1  1  0  0  0
  8 12  1  0  0  0  0
  8 14  1  0  0  0  0
  9 13  1  0  0  0  0
 10  8  2  0  0  0  0
 11  9  2  0  0  0  0
 11 10  1  0  0  0  0
 13 12  2  0  0  0  0
 15  4  1  0  0  0  0
 16 15  1  0  0  0  0
 17 16  1  0  0  0  0
 18 22  1  0  0  0  0
 19 23  1  0  0  0  0
 19 18  2  0  0  0  0
 20 21  1  0  0  0  0
 20 24  1  0  0  0  0
 22 24  2  0  0  0  0
 22 17  1  0  0  0  0
 23 20  2  0  0  0  0
 25 17  1  0  0  0  0
 26 25  1  0  0  0  0
 26 29  1  6  0  0  0
 27 25  2  0  0  0  0
 28 26  1  0  0  0  0
 30 28  2  0  0  0  0
 30 27  1  0  0  0  0
 31  6  1  0  0  0  0
 31 33  1  0  0  0  0
 33 32  1  0  0  0  0
 34 35  1  0  0  0  0
 35 33  1  0  0  0  0
M  END
>  <MODEL>
7

>  <REMARK>
 VINA RESULT:      -7.3      0.994      1.553
  Name = 
  9 active torsions:
  status: ('A' for Active; 'I' for Inactive)
    1  A    between atoms: C_1  and  C_8
    2  A    between atoms: C_1  and  C_17
    3  A    between atoms: C_2  and  N_7
    4  A    between atoms: N_7  and  C_8
    5  A    between atoms: N_7  and  C_28
    6  A    between atoms: C_11  and  C_35
    7  A    between atoms: C_13  and  N_32
    8  A    between atoms: C_23  and  C_25
    9  A    between atoms: C_25  and  N_32
                            x       y       z     vdW  Elec       q    Type
                         _______ _______ _______ _____ _____    ______ ____

>  <TORSDO>
F 9

$$$$
=
 OpenBabel10222418003D

 35 38  0  0  1  0  0  0  0  0999 V2000
  183.9400  178.9510  144.1110 N   0  0  0  0  0  0  0  0  0  0  0  0
  182.9310  179.1150  143.3120 C   0  0  0  0  0  3  0  0  0  0  0  0
  185.8510  178.7960  142.6330 C   0  0  0  0  0  3  0  0  0  0  0  0
  183.9140  178.5570  141.0700 C   0  0  0  0  0  0  0  0  0  0  0  0
  185.2980  178.9300  141.4310 C   0  0  0  0  0  3  0  0  0  0  0  0
  182.8580  178.6200  141.9180 C   0  0  0  0  0  0  0  0  0  0  0  0
  185.1320  178.1830  143.7850 C   0  0  1  0  0  3  0  0  0  0  0  0
  187.6750  177.9670  147.2060 C   0  0  0  0  0  0  0  0  0  0  0  0
  186.0260  178.1150  144.9800 C   0  0  0  0  0  0  0  0  0  0  0  0
  186.3950  178.5170  147.2940 C   0  0  0  0  0  3  0  0  0  0  0  0
  185.6030  178.5790  146.1900 N   0  0  0  0  0  0  0  0  0  0  0  0
  188.1260  177.4790  145.9790 C   0  0  0  0  0  3  0  0  0  0  0  0
  187.2980  177.5510  144.8580 C   0  0  0  0  0  3  0  0  0  0  0  0
  188.5460  177.8970  148.4060 C   0  0  0  0  0  1  0  0  0  0  0  0
  183.7110  178.2250  139.6210 C   0  0  0  0  0  2  0  0  0  0  0  0
  184.7320  178.9140  138.7210 C   0  0  0  0  0  2  0  0  0  0  0  0
  185.4760  177.9410  137.9230 N   0  0  0  0  0  0  0  0  0  0  0  0
  183.7610  177.3890  136.2970 N   0  0  0  0  0  0  0  0  0  0  0  0
  182.9890  176.5180  135.5950 C   0  0  0  0  0  3  0  0  0  0  0  0
  184.0870  174.6830  136.6940 C   0  0  0  0  0  0  0  0  0  0  0  0
  184.2510  173.3190  136.8960 O   0  0  0  0  0  1  0  0  0  0  0  0
  184.7030  176.9680  137.1890 C   0  0  0  0  0  0  0  0  0  0  0  0
  183.1410  175.1450  135.7790 C   0  0  0  0  0  3  0  0  0  0  0  0
  184.8670  175.5920  137.4050 C   0  0  0  0  0  3  0  0  0  0  0  0
  186.9220  178.0120  137.8180 C   0  0  0  0  0  0  0  0  0  0  0  0
  187.6530  178.1180  136.7080 C   0  0  0  0  0  0  0  0  0  0  0  0
  187.8830  177.8710  138.9570 C   0  0  0  0  0  2  0  0  0  0  0  0
  189.0300  178.0780  137.0290 N   0  0  0  0  0  0  0  0  0  0  0  0
  187.1680  178.2340  135.3040 C   0  0  0  0  0  1  0  0  0  0  0  0
  189.1720  177.9410  138.2820 N   0  0  0  0  0  0  0  0  0  0  0  0
  181.4760  178.3200  141.4220 C   0  0  0  0  0  2  0  0  0  0  0  0
  179.5360  179.5240  142.0260 C   0  0  0  0  0  1  0  0  0  0  0  0
  180.7400  179.5610  141.2090 N   0  0  0  0  0  0  0  0  0  0  0  0
  181.1100  180.8150  139.0700 C   0  0  0  0  0  1  0  0  0  0  0  0
  180.3710  179.6900  139.7950 C   0  0  0  0  0  2  0  0  0  0  0  0
  2  1  2  0  0  0  0
  3  7  1  0  0  0  0
  4  5  1  0  0  0  0
  4  6  2  0  0  0  0
  5  3  2  0  0  0  0
  6  2  1  0  0  0  0
  7  1  1  0  0  0  0
  7  9  1  1  0  0  0
  8 10  1  0  0  0  0
  8 14  1  0  0  0  0
  9 11  1  0  0  0  0
 11 10  2  0  0  0  0
 12  8  2  0  0  0  0
 13  9  2  0  0  0  0
 13 12  1  0  0  0  0
 15  4  1  0  0  0  0
 16 15  1  0  0  0  0
 17 16  1  0  0  0  0
 18 22  1  0  0  0  0
 19 23  1  0  0  0  0
 19 18  2  0  0  0  0
 20 21  1  0  0  0  0
 20 24  1  0  0  0  0
 22 24  2  0  0  0  0
 22 17  1  0  0  0  0
 23 20  2  0  0  0  0
 25 17  1  0  0  0  0
 25 27  1  0  0  0  0
 26 28  1  0  0  0  0
 26 25  2  0  0  0  0
 28 30  2  0  0  0  0
 29 26  1  0  0  0  0
 30 27  1  0  0  0  0
 31  6  1  0  0  0  0
 33 31  1  0  0  0  0
 33 32  1  0  0  0  0
 34 35  1  0  0  0  0
 35 33  1  0  0  0  0
M  END
>  <MODEL>
8

>  <REMARK>
 VINA RESULT:      -7.3      1.890      3.436
  Name = 
  9 active torsions:
  status: ('A' for Active; 'I' for Inactive)
    1  A    between atoms: C_1  and  C_8
    2  A    between atoms: C_1  and  C_17
    3  A    between atoms: C_2  and  N_7
    4  A    between atoms: N_7  and  C_8
    5  A    between atoms: N_7  and  C_28
    6  A    between atoms: C_11  and  C_35
    7  A    between atoms: C_13  and  N_32
    8  A    between atoms: C_23  and  C_25
    9  A    between atoms: C_25  and  N_32
                            x       y       z     vdW  Elec       q    Type
                         _______ _______ _______ _____ _____    ______ ____

>  <TORSDO>
F 9

$$$$
=
 OpenBabel10222418003D

 35 38  0  0  1  0  0  0  0  0999 V2000
  191.4340  176.1340  136.5830 N   0  0  0  0  0  0  0  0  0  0  0  0
  190.1980  176.5100  136.7090 C   0  0  0  0  0  3  0  0  0  0  0  0
  192.3130  176.2170  138.8370 C   0  0  0  0  0  3  0  0  0  0  0  0
  190.1480  177.4530  139.0350 C   0  0  0  0  0  0  0  0  0  0  0  0
  191.2620  176.6230  139.5430 C   0  0  0  0  0  3  0  0  0  0  0  0
  189.6850  177.4180  137.7610 C   0  0  0  0  0  0  0  0  0  0  0  0
  192.5270  176.6100  137.4150 C   0  0  1  0  0  3  0  0  0  0  0  0
  196.2300  175.0390  135.9890 C   0  0  0  0  0  0  0  0  0  0  0  0
  193.8190  176.0540  136.9110 C   0  0  0  0  0  0  0  0  0  0  0  0
  195.6190  176.1250  135.3590 C   0  0  0  0  0  3  0  0  0  0  0  0
  194.4370  176.6060  135.8290 N   0  0  0  0  0  0  0  0  0  0  0  0
  195.6190  174.4620  137.1030 C   0  0  0  0  0  3  0  0  0  0  0  0
  194.4070  174.9720  137.5700 C   0  0  0  0  0  3  0  0  0  0  0  0
  197.5200  174.5060  135.4810 C   0  0  0  0  0  1  0  0  0  0  0  0
  189.4420  178.2650  140.0820 C   0  0  0  0  0  2  0  0  0  0  0  0
  188.3050  177.4920  140.7440 C   0  0  0  0  0  2  0  0  0  0  0  0
  188.4440  177.4890  142.1990 N   0  0  0  0  0  0  0  0  0  0  0  0
  186.2900  178.5950  142.3730 N   0  0  0  0  0  0  0  0  0  0  0  0
  185.1880  179.0060  143.0540 C   0  0  0  0  0  3  0  0  0  0  0  0
  186.0550  177.9770  145.0480 C   0  0  0  0  0  0  0  0  0  0  0  0
  185.9390  177.6670  146.3960 O   0  0  0  0  0  1  0  0  0  0  0  0
  187.2850  177.8760  142.9680 C   0  0  0  0  0  0  0  0  0  0  0  0
  185.0490  178.6990  144.4080 C   0  0  0  0  0  3  0  0  0  0  0  0
  187.1790  177.5680  144.3320 C   0  0  0  0  0  3  0  0  0  0  0  0
  189.6700  177.0380  142.8310 C   0  0  0  0  0  0  0  0  0  0  0  0
  190.6020  177.7840  143.4220 C   0  0  1  0  0  3  0  0  0  0  0  0
  190.1720  175.6280  142.8430 C   0  0  0  0  0  3  0  0  0  0  0  0
  191.6800  176.9700  143.8440 N   0  0  0  0  0  0  0  0  0  0  0  0
  190.5990  179.2610  143.6210 C   0  0  0  0  0  1  0  0  0  0  0  0
  191.4510  175.7630  143.5270 N   0  0  0  0  0  0  0  0  0  0  0  0
  188.4820  178.2230  137.3760 C   0  0  0  0  0  2  0  0  0  0  0  0
  187.1980  178.2080  135.3930 C   0  0  0  0  0  1  0  0  0  0  0  0
  187.5840  177.4190  136.5530 N   0  0  0  0  0  0  0  0  0  0  0  0
  185.7650  178.2320  138.0740 C   0  0  0  0  0  1  0  0  0  0  0  0
  186.3880  177.0560  137.3220 C   0  0  0  0  0  2  0  0  0  0  0  0
  1  2  2  0  0  0  0
  1  7  1  0  0  0  0
  2  6  1  0  0  0  0
  3  5  2  0  0  0  0
  4  5  1  0  0  0  0
  4 15  1  0  0  0  0
  6  4  2  0  0  0  0
  7  9  1  6  0  0  0
  7  3  1  0  0  0  0
  8 12  1  0  0  0  0
  9 13  1  0  0  0  0
 10 11  1  0  0  0  0
 10  8  2  0  0  0  0
 11  9  2  0  0  0  0
 12 13  2  0  0  0  0
 14  8  1  0  0  0  0
 15 16  1  0  0  0  0
 16 17  1  0  0  0  0
 17 25  1  0  0  0  0
 17 22  1  0  0  0  0
 18 22  2  0  0  0  0
 18 19  1  0  0  0  0
 19 23  2  0  0  0  0
 20 21  1  0  0  0  0
 22 24  1  0  0  0  0
 23 20  1  0  0  0  0
 24 20  2  0  0  0  0
 25 27  2  0  0  0  0
 25 26  1  0  0  0  0
 26 29  1  6  0  0  0
 26 28  1  0  0  0  0
 27 30  1  0  0  0  0
 30 28  2  0  0  0  0
 31  6  1  0  0  0  0
 32 33  1  0  0  0  0
 33 35  1  0  0  0  0
 33 31  1  0  0  0  0
 35 34  1  0  0  0  0
M  END
>  <MODEL>
9

>  <REMARK>
 VINA RESULT:      -7.1      4.845      9.789
  Name = 
  9 active torsions:
  status: ('A' for Active; 'I' for Inactive)
    1  A    between atoms: C_1  and  C_8
    2  A    between atoms: C_1  and  C_17
    3  A    between atoms: C_2  and  N_7
    4  A    between atoms: N_7  and  C_8
    5  A    between atoms: N_7  and  C_28
    6  A    between atoms: C_11  and  C_35
    7  A    between atoms: C_13  and  N_32
    8  A    between atoms: C_23  and  C_25
    9  A    between atoms: C_25  and  N_32
                            x       y       z     vdW  Elec       q    Type
                         _______ _______ _______ _____ _____    ______ ____

>  <TORSDO>
F 9

$$$$
