=
 OpenBabel10222415573D

 36 38  0  0  1  0  0  0  0  0999 V2000
  187.5480  177.5820  145.1800 C   0  0  2  0  0  3  0  0  0  0  0  0
  185.5840  178.3020  143.7360 C   0  0  0  0  0  0  0  0  0  0  0  0
  183.8120  177.8780  141.8660 C   0  0  0  0  0  3  0  0  0  0  0  0
  186.5180  177.5520  146.3240 C   0  0  2  0  0  3  0  0  0  0  0  0
  185.3810  178.5920  146.2190 C   0  0  0  0  0  2  0  0  0  0  0  0
  188.3920  178.8540  145.2140 C   0  0  0  0  0  1  0  0  0  0  0  0
  184.6950  178.0920  142.8020 C   0  0  0  0  0  0  0  0  0  0  0  0
  186.7980  177.4110  143.8440 C   0  0  1  0  0  3  0  0  0  0  0  0
  185.2740  179.2640  144.8420 C   0  0  0  0  0  2  0  0  0  0  0  0
  189.3770  177.4400  140.3950 C   0  0  0  0  0  0  0  0  0  0  0  0
  187.6880  177.4360  142.6320 C   0  0  0  0  0  0  0  0  0  0  0  0
  190.2710  177.4400  139.2090 C   0  0  0  0  0  1  0  0  0  0  0  0
  188.3830  178.4140  140.5210 C   0  0  0  0  0  3  0  0  0  0  0  0
  187.5420  178.4140  141.6360 C   0  0  0  0  0  3  0  0  0  0  0  0
  189.5280  176.4640  141.3840 C   0  0  0  0  0  3  0  0  0  0  0  0
  188.6850  176.4630  142.5010 C   0  0  0  0  0  3  0  0  0  0  0  0
  182.5870  178.9250  139.8660 C   0  0  1  0  0  3  0  0  0  0  0  0
  184.2670  180.2070  139.1820 N   0  0  0  0  0  0  0  0  0  0  0  0
  182.9910  179.8570  138.9350 C   0  0  0  0  0  0  0  0  0  0  0  0
  183.6890  178.7360  140.6770 C   0  0  0  0  0  0  0  0  0  0  0  0
  184.6930  179.5190  140.2340 N   0  0  0  0  0  0  0  0  0  0  0  0
  181.2680  178.4320  140.0800 N   0  0  0  0  0  1  0  0  0  0  0  0
  182.1950  180.4820  137.9210 N   0  0  0  0  0  2  0  0  0  0  0  0
  181.1970  181.4830  138.1460 C   0  0  0  0  0  0  0  0  0  0  0  0
  180.7230  181.6690  139.3000 O   0  0  0  0  0  0  0  0  0  0  0  0
  180.7170  182.2160  137.0600 O   0  0  0  0  0  0  0  0  0  0  0  0
  180.3260  183.5740  137.1870 C   0  0  0  0  0  2  0  0  0  0  0  0
  181.1600  184.4300  136.2590 C   0  0  0  0  0  1  0  0  0  0  0  0
  187.1210  177.4380  147.7230 C   0  0  0  0  0  2  0  0  0  0  0  0
  188.5370  176.8770  147.7010 C   0  0  0  0  0  2  0  0  0  0  0  0
  189.5160  177.8810  148.2900 C   0  0  0  0  0  2  0  0  0  0  0  0
  190.9550  177.4830  147.9950 C   0  0  0  0  0  2  0  0  0  0  0  0
  190.9960  176.1760  147.2200 C   0  0  0  0  0  2  0  0  0  0  0  0
  191.9550  176.2920  146.0450 C   0  0  0  0  0  2  0  0  0  0  0  0
  191.6680  177.9370  144.1910 C   0  0  0  0  0  1  0  0  0  0  0  0
  191.2100  176.6070  144.7570 C   0  0  0  0  0  2  0  0  0  0  0  0
  1  6  1  6  0  0  0
  1  4  1  0  0  0  0
  2  8  1  0  0  0  0
  2  9  1  0  0  0  0
  3  7  2  0  0  0  0
  4 29  1  1  0  0  0
  5  4  1  0  0  0  0
  7  2  2  0  0  0  0
  8 11  1  6  0  0  0
  8  1  1  0  0  0  0
  9  5  1  0  0  0  0
 10 13  2  0  0  0  0
 10 15  1  0  0  0  0
 12 10  1  0  0  0  0
 13 14  1  0  0  0  0
 14 11  2  0  0  0  0
 15 16  2  0  0  0  0
 16 11  1  0  0  0  0
 17 22  1  1  0  0  0
 17 20  1  0  0  0  0
 18 21  1  0  0  0  0
 19 18  2  0  0  0  0
 19 17  1  0  0  0  0
 20  3  1  0  0  0  0
 21 20  2  0  0  0  0
 23 24  1  0  0  0  0
 23 19  1  0  0  0  0
 24 25  2  0  0  0  0
 26 27  1  0  0  0  0
 26 24  1  0  0  0  0
 28 27  1  0  0  0  0
 30 29  1  0  0  0  0
 30 31  1  0  0  0  0
 32 31  1  0  0  0  0
 33 32  1  0  0  0  0
 34 33  1  0  0  0  0
 35 36  1  0  0  0  0
 36 34  1  0  0  0  0
M  END
>  <MODEL>
1

>  <REMARK>
 VINA RESULT:      -8.1      0.000      0.000
  Name = 
  12 active torsions:
  status: ('A' for Active; 'I' for Inactive)
    1  A    between atoms: O_3  and  C_7
    2  A    between atoms: O_3  and  C_30
    3  A    between atoms: C_4  and  C_33
    4  A    between atoms: C_6  and  C_11
    5  A    between atoms: C_6  and  C_26
    6  A    between atoms: C_9  and  C_23
    7  A    between atoms: C_10  and  C_15
    8  A    between atoms: C_10  and  C_20
    9  A    between atoms: C_11  and  C_17
   10  A    between atoms: C_15  and  C_25
   11  A    between atoms: N_19  and  C_21
   12  A    between atoms: C_20  and  C_26
                            x       y       z     vdW  Elec       q    Type
                         _______ _______ _______ _____ _____    ______ ____

>  <TORSDO>
F 12

$$$$
=
 OpenBabel10222415573D

 36 38  0  0  1  0  0  0  0  0999 V2000
  189.0610  178.0450  143.6960 C   0  0  2  0  0  3  0  0  0  0  0  0
  189.1440  177.3630  141.2490 C   0  0  0  0  0  0  0  0  0  0  0  0
  188.8560  177.8560  138.7010 C   0  0  0  0  0  3  0  0  0  0  0  0
  190.5980  177.9700  143.6270 C   0  0  2  0  0  3  0  0  0  0  0  0
  191.1660  176.9060  142.6620 C   0  0  0  0  0  2  0  0  0  0  0  0
  188.4650  176.7990  144.3470 C   0  0  0  0  0  1  0  0  0  0  0  0
  189.0030  177.6070  139.9740 C   0  0  0  0  0  0  0  0  0  0  0  0
  188.5190  178.2810  142.2730 C   0  0  1  0  0  3  0  0  0  0  0  0
  190.1260  176.3230  141.6940 C   0  0  0  0  0  2  0  0  0  0  0  0
  184.2300  178.5320  141.9870 C   0  0  0  0  0  0  0  0  0  0  0  0
  187.0190  178.3610  142.1910 C   0  0  0  0  0  0  0  0  0  0  0  0
  182.7510  178.6220  141.8770 C   0  0  0  0  0  1  0  0  0  0  0  0
  184.8170  178.1070  143.1820 C   0  0  0  0  0  3  0  0  0  0  0  0
  186.2080  178.0230  143.2850 C   0  0  0  0  0  3  0  0  0  0  0  0
  185.0330  178.8710  140.8950 C   0  0  0  0  0  3  0  0  0  0  0  0
  186.4260  178.7850  140.9980 C   0  0  0  0  0  3  0  0  0  0  0  0
  188.2000  175.8570  137.2290 C   0  0  1  0  0  3  0  0  0  0  0  0
  186.1290  176.5320  136.7940 N   0  0  0  0  0  0  0  0  0  0  0  0
  187.0240  175.5490  136.5790 C   0  0  0  0  0  0  0  0  0  0  0  0
  187.9590  177.0740  137.8370 C   0  0  0  0  0  0  0  0  0  0  0  0
  186.7000  177.4610  137.5490 N   0  0  0  0  0  0  0  0  0  0  0  0
  189.3320  175.0120  137.4140 N   0  0  0  0  0  1  0  0  0  0  0  0
  186.7030  174.3420  135.8780 N   0  0  0  0  0  2  0  0  0  0  0  0
  186.0640  173.1950  136.4440 C   0  0  0  0  0  0  0  0  0  0  0  0
  186.0130  173.0410  137.6950 O   0  0  0  0  0  0  0  0  0  0  0  0
  185.5420  172.2210  135.5930 O   0  0  0  0  0  0  0  0  0  0  0  0
  184.1440  172.0300  135.4410 C   0  0  0  0  0  2  0  0  0  0  0  0
  183.7070  170.8280  136.2500 C   0  0  0  0  0  1  0  0  0  0  0  0
  191.3000  178.0110  144.9820 C   0  0  0  0  0  2  0  0  0  0  0  0
  191.5110  176.6220  145.5710 C   0  0  0  0  0  2  0  0  0  0  0  0
  191.2400  176.6310  147.0670 C   0  0  0  0  0  2  0  0  0  0  0  0
  189.7510  176.7500  147.3550 C   0  0  0  0  0  2  0  0  0  0  0  0
  189.4610  178.0210  148.1370 C   0  0  0  0  0  2  0  0  0  0  0  0
  187.9680  178.1470  148.4010 C   0  0  0  0  0  2  0  0  0  0  0  0
  186.0070  178.8380  147.0230 C   0  0  0  0  0  1  0  0  0  0  0  0
  187.1620  177.8630  147.1440 C   0  0  0  0  0  2  0  0  0  0  0  0
  1  6  1  6  0  0  0
  2  9  1  0  0  0  0
  2  8  1  0  0  0  0
  3  7  2  0  0  0  0
  4  1  1  0  0  0  0
  4 29  1  1  0  0  0
  5  4  1  0  0  0  0
  7  2  2  0  0  0  0
  8 11  1  1  0  0  0
  8  1  1  0  0  0  0
  9  5  1  0  0  0  0
 10 13  1  0  0  0  0
 11 14  1  0  0  0  0
 12 10  1  0  0  0  0
 13 14  2  0  0  0  0
 15 16  1  0  0  0  0
 15 10  2  0  0  0  0
 16 11  2  0  0  0  0
 17 22  1  1  0  0  0
 17 20  1  0  0  0  0
 18 21  1  0  0  0  0
 19 18  2  0  0  0  0
 19 17  1  0  0  0  0
 20  3  1  0  0  0  0
 21 20  2  0  0  0  0
 23 24  1  0  0  0  0
 23 19  1  0  0  0  0
 24 25  2  0  0  0  0
 26 24  1  0  0  0  0
 27 26  1  0  0  0  0
 27 28  1  0  0  0  0
 29 30  1  0  0  0  0
 30 31  1  0  0  0  0
 31 32  1  0  0  0  0
 32 33  1  0  0  0  0
 33 34  1  0  0  0  0
 35 36  1  0  0  0  0
 36 34  1  0  0  0  0
M  END
>  <MODEL>
2

>  <REMARK>
 VINA RESULT:      -7.8      4.183      6.425
  Name = 
  12 active torsions:
  status: ('A' for Active; 'I' for Inactive)
    1  A    between atoms: O_3  and  C_7
    2  A    between atoms: O_3  and  C_30
    3  A    between atoms: C_4  and  C_33
    4  A    between atoms: C_6  and  C_11
    5  A    between atoms: C_6  and  C_26
    6  A    between atoms: C_9  and  C_23
    7  A    between atoms: C_10  and  C_15
    8  A    between atoms: C_10  and  C_20
    9  A    between atoms: C_11  and  C_17
   10  A    between atoms: C_15  and  C_25
   11  A    between atoms: N_19  and  C_21
   12  A    between atoms: C_20  and  C_26
                            x       y       z     vdW  Elec       q    Type
                         _______ _______ _______ _____ _____    ______ ____

>  <TORSDO>
F 12

$$$$
=
 OpenBabel10222415573D

 36 38  0  0  1  0  0  0  0  0999 V2000
  189.2150  178.0070  143.8100 C   0  0  2  0  0  3  0  0  0  0  0  0
  189.3560  177.3230  141.3670 C   0  0  0  0  0  0  0  0  0  0  0  0
  189.1310  177.8120  138.8120 C   0  0  0  0  0  3  0  0  0  0  0  0
  190.7520  177.9310  143.7780 C   0  0  2  0  0  3  0  0  0  0  0  0
  191.3430  176.8660  142.8290 C   0  0  0  0  0  2  0  0  0  0  0  0
  188.6010  176.7630  144.4480 C   0  0  0  0  0  1  0  0  0  0  0  0
  189.2460  177.5650  140.0880 C   0  0  0  0  0  0  0  0  0  0  0  0
  188.7080  178.2420  142.3740 C   0  0  1  0  0  3  0  0  0  0  0  0
  190.3260  176.2810  141.8370 C   0  0  0  0  0  2  0  0  0  0  0  0
  184.4270  178.5000  141.9840 C   0  0  0  0  0  0  0  0  0  0  0  0
  187.2100  178.3230  142.2560 C   0  0  0  0  0  0  0  0  0  0  0  0
  182.9510  178.5920  141.8390 C   0  0  0  0  0  1  0  0  0  0  0  0
  184.9830  178.0210  143.1740 C   0  0  0  0  0  3  0  0  0  0  0  0
  186.3710  177.9340  143.3110 C   0  0  0  0  0  3  0  0  0  0  0  0
  185.2590  178.8900  140.9310 C   0  0  0  0  0  3  0  0  0  0  0  0
  186.6480  178.8020  141.0670 C   0  0  0  0  0  3  0  0  0  0  0  0
  187.0240  177.3840  137.4080 C   0  0  1  0  0  3  0  0  0  0  0  0
  187.6270  175.3850  136.6500 N   0  0  0  0  0  0  0  0  0  0  0  0
  186.6600  176.3200  136.6100 C   0  0  0  0  0  0  0  0  0  0  0  0
  188.2550  177.0300  137.9270 C   0  0  0  0  0  0  0  0  0  0  0  0
  188.5900  175.8120  137.4560 N   0  0  0  0  0  0  0  0  0  0  0  0
  186.3830  178.6520  137.5040 N   0  0  0  0  0  1  0  0  0  0  0  0
  185.5130  176.2200  135.7580 N   0  0  0  0  0  2  0  0  0  0  0  0
  184.2590  175.6310  136.1150 C   0  0  0  0  0  0  0  0  0  0  0  0
  184.1700  174.8700  137.1160 O   0  0  0  0  0  0  0  0  0  0  0  0
  183.1460  175.8690  135.3090 O   0  0  0  0  0  0  0  0  0  0  0  0
  182.6540  177.1800  135.0770 C   0  0  0  0  0  2  0  0  0  0  0  0
  182.2830  177.8220  136.3960 C   0  0  0  0  0  1  0  0  0  0  0  0
  191.4220  177.9730  145.1500 C   0  0  0  0  0  2  0  0  0  0  0  0
  191.5430  176.5920  145.7820 C   0  0  0  0  0  2  0  0  0  0  0  0
  191.2140  176.6540  147.2650 C   0  0  0  0  0  2  0  0  0  0  0  0
  189.7110  176.7360  147.4920 C   0  0  0  0  0  2  0  0  0  0  0  0
  189.3480  178.0410  148.1800 C   0  0  0  0  0  2  0  0  0  0  0  0
  187.8430  178.1300  148.3780 C   0  0  0  0  0  2  0  0  0  0  0  0
  185.9060  178.8590  146.9850 C   0  0  0  0  0  1  0  0  0  0  0  0
  187.1030  177.9310  147.0650 C   0  0  0  0  0  2  0  0  0  0  0  0
  1  6  1  6  0  0  0
  2  9  1  0  0  0  0
  2  8  1  0  0  0  0
  3  7  2  0  0  0  0
  4  1  1  0  0  0  0
  4 29  1  1  0  0  0
  5  4  1  0  0  0  0
  7  2  2  0  0  0  0
  8 11  1  1  0  0  0
  8  1  1  0  0  0  0
  9  5  1  0  0  0  0
 10 13  1  0  0  0  0
 11 14  1  0  0  0  0
 12 10  1  0  0  0  0
 13 14  2  0  0  0  0
 15 16  1  0  0  0  0
 15 10  2  0  0  0  0
 16 11  2  0  0  0  0
 17 22  1  6  0  0  0
 17 20  1  0  0  0  0
 18 21  1  0  0  0  0
 19 18  2  0  0  0  0
 19 17  1  0  0  0  0
 20  3  1  0  0  0  0
 21 20  2  0  0  0  0
 23 24  1  0  0  0  0
 23 19  1  0  0  0  0
 24 25  2  0  0  0  0
 26 24  1  0  0  0  0
 27 26  1  0  0  0  0
 27 28  1  0  0  0  0
 29 30  1  0  0  0  0
 30 31  1  0  0  0  0
 31 32  1  0  0  0  0
 32 33  1  0  0  0  0
 33 34  1  0  0  0  0
 35 36  1  0  0  0  0
 36 34  1  0  0  0  0
M  END
>  <MODEL>
3

>  <REMARK>
 VINA RESULT:      -7.8      3.139      5.288
  Name = 
  12 active torsions:
  status: ('A' for Active; 'I' for Inactive)
    1  A    between atoms: O_3  and  C_7
    2  A    between atoms: O_3  and  C_30
    3  A    between atoms: C_4  and  C_33
    4  A    between atoms: C_6  and  C_11
    5  A    between atoms: C_6  and  C_26
    6  A    between atoms: C_9  and  C_23
    7  A    between atoms: C_10  and  C_15
    8  A    between atoms: C_10  and  C_20
    9  A    between atoms: C_11  and  C_17
   10  A    between atoms: C_15  and  C_25
   11  A    between atoms: N_19  and  C_21
   12  A    between atoms: C_20  and  C_26
                            x       y       z     vdW  Elec       q    Type
                         _______ _______ _______ _____ _____    ______ ____

>  <TORSDO>
F 12

$$$$
=
 OpenBabel10222415573D

 36 38  0  0  1  0  0  0  0  0999 V2000
  189.0420  177.8780  143.3070 C   0  0  2  0  0  3  0  0  0  0  0  0
  191.1280  177.1960  142.0260 C   0  0  0  0  0  0  0  0  0  0  0  0
  192.9710  177.6050  140.2220 C   0  0  0  0  0  3  0  0  0  0  0  0
  190.0010  178.0660  144.4970 C   0  0  2  0  0  3  0  0  0  0  0  0
  191.2100  177.1060  144.5310 C   0  0  0  0  0  2  0  0  0  0  0  0
  188.2840  176.5560  143.3970 C   0  0  0  0  0  1  0  0  0  0  0  0
  192.0520  177.3980  141.1250 C   0  0  0  0  0  0  0  0  0  0  0  0
  189.8530  178.0040  142.0020 C   0  0  1  0  0  3  0  0  0  0  0  0
  191.4390  176.3430  143.2180 C   0  0  0  0  0  2  0  0  0  0  0  0
  187.4750  177.5260  138.4440 C   0  0  0  0  0  0  0  0  0  0  0  0
  189.0360  177.8250  140.7510 C   0  0  0  0  0  0  0  0  0  0  0  0
  186.6480  177.3700  137.2200 C   0  0  0  0  0  1  0  0  0  0  0  0
  188.6740  176.8200  138.5710 C   0  0  0  0  0  3  0  0  0  0  0  0
  189.4530  176.9670  139.7210 C   0  0  0  0  0  3  0  0  0  0  0  0
  187.0550  178.3810  139.4660 C   0  0  0  0  0  3  0  0  0  0  0  0
  187.8350  178.5300  140.6180 C   0  0  0  0  0  3  0  0  0  0  0  0
  194.3000  175.8340  138.9200 C   0  0  1  0  0  3  0  0  0  0  0  0
  192.8180  175.5530  137.2900 N   0  0  0  0  0  0  0  0  0  0  0  0
  194.0120  175.1470  137.7600 C   0  0  0  0  0  0  0  0  0  0  0  0
  193.2180  176.6720  139.1120 C   0  0  0  0  0  0  0  0  0  0  0  0
  192.3410  176.4850  138.1050 N   0  0  0  0  0  0  0  0  0  0  0  0
  195.3650  175.5830  139.8320 N   0  0  0  0  0  1  0  0  0  0  0  0
  194.7600  174.0790  137.1690 N   0  0  0  0  0  2  0  0  0  0  0  0
  196.0700  174.1920  136.6050 C   0  0  0  0  0  0  0  0  0  0  0  0
  196.5440  175.3210  136.3060 O   0  0  0  0  0  0  0  0  0  0  0  0
  196.7970  173.0300  136.3440 O   0  0  0  0  0  0  0  0  0  0  0  0
  197.8440  172.5930  137.1960 C   0  0  0  0  0  2  0  0  0  0  0  0
  198.2910  171.2090  136.7790 C   0  0  0  0  0  1  0  0  0  0  0  0
  189.3130  178.2410  145.8490 C   0  0  0  0  0  2  0  0  0  0  0  0
  189.4770  177.0220  146.7470 C   0  0  0  0  0  2  0  0  0  0  0  0
  188.2390  176.8260  147.6080 C   0  0  0  0  0  2  0  0  0  0  0  0
  187.3420  178.0540  147.5690 C   0  0  0  0  0  2  0  0  0  0  0  0
  186.0980  177.7770  146.7410 C   0  0  0  0  0  2  0  0  0  0  0  0
  185.8490  178.9190  145.7680 C   0  0  0  0  0  2  0  0  0  0  0  0
  185.1640  178.5920  143.3910 C   0  0  0  0  0  1  0  0  0  0  0  0
  184.6930  178.6010  144.8320 C   0  0  0  0  0  2  0  0  0  0  0  0
  1  6  1  1  0  0  0
  1  4  1  0  0  0  0
  2  9  1  0  0  0  0
  3  7  2  0  0  0  0
  4  5  1  0  0  0  0
  4 29  1  1  0  0  0
  7  2  2  0  0  0  0
  8 11  1  6  0  0  0
  8  2  1  0  0  0  0
  8  1  1  0  0  0  0
  9  5  1  0  0  0  0
 10 13  2  0  0  0  0
 10 15  1  0  0  0  0
 12 10  1  0  0  0  0
 13 14  1  0  0  0  0
 14 11  2  0  0  0  0
 15 16  2  0  0  0  0
 16 11  1  0  0  0  0
 17 20  1  0  0  0  0
 17 22  1  1  0  0  0
 18 19  2  0  0  0  0
 18 21  1  0  0  0  0
 19 17  1  0  0  0  0
 20  3  1  0  0  0  0
 21 20  2  0  0  0  0
 23 19  1  0  0  0  0
 24 23  1  0  0  0  0
 25 24  2  0  0  0  0
 26 24  1  0  0  0  0
 26 27  1  0  0  0  0
 28 27  1  0  0  0  0
 29 30  1  0  0  0  0
 30 31  1  0  0  0  0
 32 31  1  0  0  0  0
 33 32  1  0  0  0  0
 34 33  1  0  0  0  0
 35 36  1  0  0  0  0
 36 34  1  0  0  0  0
M  END
>  <MODEL>
4

>  <REMARK>
 VINA RESULT:      -7.2      6.308      9.646
  Name = 
  12 active torsions:
  status: ('A' for Active; 'I' for Inactive)
    1  A    between atoms: O_3  and  C_7
    2  A    between atoms: O_3  and  C_30
    3  A    between atoms: C_4  and  C_33
    4  A    between atoms: C_6  and  C_11
    5  A    between atoms: C_6  and  C_26
    6  A    between atoms: C_9  and  C_23
    7  A    between atoms: C_10  and  C_15
    8  A    between atoms: C_10  and  C_20
    9  A    between atoms: C_11  and  C_17
   10  A    between atoms: C_15  and  C_25
   11  A    between atoms: N_19  and  C_21
   12  A    between atoms: C_20  and  C_26
                            x       y       z     vdW  Elec       q    Type
                         _______ _______ _______ _____ _____    ______ ____

>  <TORSDO>
F 12

$$$$
=
 OpenBabel10222415573D

 36 38  0  0  1  0  0  0  0  0999 V2000
  189.1810  177.6300  143.2890 C   0  0  2  0  0  3  0  0  0  0  0  0
  188.3440  177.5890  140.8900 C   0  0  0  0  0  0  0  0  0  0  0  0
  187.2410  178.7120  138.8070 C   0  0  0  0  0  3  0  0  0  0  0  0
  190.5830  177.5620  142.6560 C   0  0  2  0  0  3  0  0  0  0  0  0
  190.6740  176.7730  141.3320 C   0  0  0  0  0  2  0  0  0  0  0  0
  188.7270  176.2650  143.8020 C   0  0  0  0  0  1  0  0  0  0  0  0
  187.7940  178.1490  139.8460 C   0  0  0  0  0  0  0  0  0  0  0  0
  188.2050  178.2230  142.2540 C   0  0  1  0  0  3  0  0  0  0  0  0
  189.3110  176.4620  140.6950 C   0  0  0  0  0  2  0  0  0  0  0  0
  184.1610  178.5420  143.6960 C   0  0  0  0  0  0  0  0  0  0  0  0
  186.7860  178.3330  142.7390 C   0  0  0  0  0  0  0  0  0  0  0  0
  182.7690  178.6550  144.2040 C   0  0  0  0  0  1  0  0  0  0  0  0
  184.3920  178.3290  142.3340 C   0  0  0  0  0  3  0  0  0  0  0  0
  185.7000  178.2230  141.8560 C   0  0  0  0  0  3  0  0  0  0  0  0
  185.2380  178.6520  144.5790 C   0  0  0  0  0  3  0  0  0  0  0  0
  186.5480  178.5470  144.1010 C   0  0  0  0  0  3  0  0  0  0  0  0
  184.7230  178.6150  138.3090 C   0  0  1  0  0  3  0  0  0  0  0  0
  184.8190  176.9510  136.8400 N   0  0  0  0  0  0  0  0  0  0  0  0
  183.9910  177.8130  137.4590 C   0  0  0  0  0  0  0  0  0  0  0  0
  186.0280  178.1820  138.1660 C   0  0  0  0  0  0  0  0  0  0  0  0
  186.0530  177.1690  137.2770 N   0  0  0  0  0  0  0  0  0  0  0  0
  184.2730  179.7700  139.0100 N   0  0  0  0  0  1  0  0  0  0  0  0
  182.5970  177.9130  137.1500 N   0  0  0  0  0  2  0  0  0  0  0  0
  181.5220  177.5860  138.0350 C   0  0  0  0  0  0  0  0  0  0  0  0
  181.7280  176.8830  139.0620 O   0  0  0  0  0  0  0  0  0  0  0  0
  180.2310  178.0120  137.7200 O   0  0  0  0  0  0  0  0  0  0  0  0
  179.7950  178.1530  136.3770 C   0  0  0  0  0  2  0  0  0  0  0  0
  179.6310  179.6210  136.0500 C   0  0  0  0  0  1  0  0  0  0  0  0
  191.7120  177.2540  143.6370 C   0  0  0  0  0  2  0  0  0  0  0  0
  191.3840  177.6920  145.0580 C   0  0  0  0  0  2  0  0  0  0  0  0
  191.7210  176.5870  146.0470 C   0  0  0  0  0  2  0  0  0  0  0  0
  190.6560  176.4740  147.1280 C   0  0  0  0  0  2  0  0  0  0  0  0
  189.6640  177.6200  147.0180 C   0  0  0  0  0  2  0  0  0  0  0  0
  189.3990  178.2190  148.3910 C   0  0  0  0  0  2  0  0  0  0  0  0
  187.0260  178.1720  147.6220 C   0  0  0  0  0  1  0  0  0  0  0  0
  187.9530  178.0090  148.8110 C   0  0  0  0  0  2  0  0  0  0  0  0
  1  6  1  6  0  0  0
  2  8  1  0  0  0  0
  3  7  2  0  0  0  0
  4  1  1  0  0  0  0
  4 29  1  1  0  0  0
  5  4  1  0  0  0  0
  7  2  2  0  0  0  0
  8 11  1  1  0  0  0
  8  1  1  0  0  0  0
  9  2  1  0  0  0  0
  9  5  1  0  0  0  0
 10 12  1  0  0  0  0
 10 15  1  0  0  0  0
 11 16  1  0  0  0  0
 13 10  2  0  0  0  0
 14 13  1  0  0  0  0
 14 11  2  0  0  0  0
 16 15  2  0  0  0  0
 17 22  1  6  0  0  0
 18 21  1  0  0  0  0
 18 19  2  0  0  0  0
 19 17  1  0  0  0  0
 20 17  1  0  0  0  0
 20  3  1  0  0  0  0
 21 20  2  0  0  0  0
 23 19  1  0  0  0  0
 23 24  1  0  0  0  0
 24 25  2  0  0  0  0
 26 24  1  0  0  0  0
 27 26  1  0  0  0  0
 28 27  1  0  0  0  0
 29 30  1  0  0  0  0
 30 31  1  0  0  0  0
 31 32  1  0  0  0  0
 33 32  1  0  0  0  0
 33 34  1  0  0  0  0
 34 36  1  0  0  0  0
 35 36  1  0  0  0  0
M  END
>  <MODEL>
5

>  <REMARK>
 VINA RESULT:      -6.8      2.187      4.519
  Name = 
  12 active torsions:
  status: ('A' for Active; 'I' for Inactive)
    1  A    between atoms: O_3  and  C_7
    2  A    between atoms: O_3  and  C_30
    3  A    between atoms: C_4  and  C_33
    4  A    between atoms: C_6  and  C_11
    5  A    between atoms: C_6  and  C_26
    6  A    between atoms: C_9  and  C_23
    7  A    between atoms: C_10  and  C_15
    8  A    between atoms: C_10  and  C_20
    9  A    between atoms: C_11  and  C_17
   10  A    between atoms: C_15  and  C_25
   11  A    between atoms: N_19  and  C_21
   12  A    between atoms: C_20  and  C_26
                            x       y       z     vdW  Elec       q    Type
                         _______ _______ _______ _____ _____    ______ ____

>  <TORSDO>
F 12

$$$$
=
 OpenBabel10222415573D

 36 38  0  0  1  0  0  0  0  0999 V2000
  185.8990  177.8530  142.8130 C   0  0  2  0  0  3  0  0  0  0  0  0
  183.6470  179.0130  143.0190 C   0  0  0  0  0  0  0  0  0  0  0  0
  181.0420  179.0480  142.8560 C   0  0  0  0  0  3  0  0  0  0  0  0
  185.9200  177.9210  144.3510 C   0  0  2  0  0  3  0  0  0  0  0  0
  185.2190  179.1490  144.9690 C   0  0  0  0  0  2  0  0  0  0  0  0
  186.7590  178.9490  142.1880 C   0  0  0  0  0  1  0  0  0  0  0  0
  182.3440  179.0330  142.9400 C   0  0  0  0  0  0  0  0  0  0  0  0
  184.4330  177.9150  142.3410 C   0  0  1  0  0  3  0  0  0  0  0  0
  184.3400  179.9300  143.9800 C   0  0  0  0  0  2  0  0  0  0  0  0
  183.9240  177.7430  138.0690 C   0  0  0  0  0  0  0  0  0  0  0  0
  184.2650  177.8720  140.8470 C   0  0  0  0  0  0  0  0  0  0  0  0
  183.7410  177.6750  136.5960 C   0  0  0  0  0  1  0  0  0  0  0  0
  184.6870  178.7700  138.6310 C   0  0  0  0  0  3  0  0  0  0  0  0
  184.8590  178.8350  140.0160 C   0  0  0  0  0  3  0  0  0  0  0  0
  183.3310  176.7810  138.8920 C   0  0  0  0  0  3  0  0  0  0  0  0
  183.5030  176.8460  140.2790 C   0  0  0  0  0  3  0  0  0  0  0  0
  180.2680  180.0580  140.6260 C   0  0  1  0  0  3  0  0  0  0  0  0
  178.9570  181.6250  141.4980 N   0  0  0  0  0  0  0  0  0  0  0  0
  179.4070  181.0970  140.3440 C   0  0  0  0  0  0  0  0  0  0  0  0
  180.3110  179.9990  142.0050 C   0  0  0  0  0  0  0  0  0  0  0  0
  179.5130  180.9650  142.5050 N   0  0  0  0  0  0  0  0  0  0  0  0
  180.8190  179.1190  139.7080 N   0  0  0  0  0  1  0  0  0  0  0  0
  178.9330  181.5150  139.0590 N   0  0  0  0  0  2  0  0  0  0  0  0
  179.7240  182.1340  138.0400 C   0  0  0  0  0  0  0  0  0  0  0  0
  180.8420  182.6450  138.3190 O   0  0  0  0  0  0  0  0  0  0  0  0
  179.2170  182.2110  136.7430 O   0  0  0  0  0  0  0  0  0  0  0  0
  179.9640  181.7700  135.6190 C   0  0  0  0  0  2  0  0  0  0  0  0
  180.2890  180.3000  135.7720 C   0  0  0  0  0  1  0  0  0  0  0  0
  187.2720  177.5980  144.9850 C   0  0  0  0  0  2  0  0  0  0  0  0
  188.1500  176.7430  144.0810 C   0  0  0  0  0  2  0  0  0  0  0  0
  189.5430  177.3420  143.9710 C   0  0  0  0  0  2  0  0  0  0  0  0
  190.5580  176.2950  143.5380 C   0  0  0  0  0  2  0  0  0  0  0  0
  191.5930  176.0750  144.6300 C   0  0  0  0  0  2  0  0  0  0  0  0
  191.4430  177.1280  145.7170 C   0  0  0  0  0  2  0  0  0  0  0  0
  189.8580  176.9360  147.6340 C   0  0  0  0  0  1  0  0  0  0  0  0
  191.1940  176.4870  147.0730 C   0  0  0  0  0  2  0  0  0  0  0  0
  1  6  1  6  0  0  0
  1  4  1  0  0  0  0
  2  9  1  0  0  0  0
  3  7  2  0  0  0  0
  4  5  1  0  0  0  0
  4 29  1  6  0  0  0
  7  2  2  0  0  0  0
  8 11  1  6  0  0  0
  8  1  1  0  0  0  0
  8  2  1  0  0  0  0
  9  5  1  0  0  0  0
 10 13  2  0  0  0  0
 10 15  1  0  0  0  0
 12 10  1  0  0  0  0
 13 14  1  0  0  0  0
 14 11  2  0  0  0  0
 15 16  2  0  0  0  0
 16 11  1  0  0  0  0
 17 22  1  6  0  0  0
 17 20  1  0  0  0  0
 18 21  1  0  0  0  0
 19 17  1  0  0  0  0
 19 18  2  0  0  0  0
 20 21  2  0  0  0  0
 20  3  1  0  0  0  0
 23 19  1  0  0  0  0
 24 25  2  0  0  0  0
 24 23  1  0  0  0  0
 26 24  1  0  0  0  0
 27 28  1  0  0  0  0
 27 26  1  0  0  0  0
 30 29  1  0  0  0  0
 31 30  1  0  0  0  0
 32 31  1  0  0  0  0
 32 33  1  0  0  0  0
 33 34  1  0  0  0  0
 34 36  1  0  0  0  0
 36 35  1  0  0  0  0
M  END
>  <MODEL>
6

>  <REMARK>
 VINA RESULT:      -6.8      2.111      3.746
  Name = 
  12 active torsions:
  status: ('A' for Active; 'I' for Inactive)
    1  A    between atoms: O_3  and  C_7
    2  A    between atoms: O_3  and  C_30
    3  A    between atoms: C_4  and  C_33
    4  A    between atoms: C_6  and  C_11
    5  A    between atoms: C_6  and  C_26
    6  A    between atoms: C_9  and  C_23
    7  A    between atoms: C_10  and  C_15
    8  A    between atoms: C_10  and  C_20
    9  A    between atoms: C_11  and  C_17
   10  A    between atoms: C_15  and  C_25
   11  A    between atoms: N_19  and  C_21
   12  A    between atoms: C_20  and  C_26
                            x       y       z     vdW  Elec       q    Type
                         _______ _______ _______ _____ _____    ______ ____

>  <TORSDO>
F 12

$$$$
=
 OpenBabel10222415573D

 36 38  0  0  1  0  0  0  0  0999 V2000
  185.5350  178.3340  145.1800 C   0  0  2  0  0  3  0  0  0  0  0  0
  186.9840  177.9510  143.1280 C   0  0  0  0  0  0  0  0  0  0  0  0
  188.4720  176.4500  141.5960 C   0  0  0  0  0  3  0  0  0  0  0  0
  184.3710  178.4070  144.1750 C   0  0  2  0  0  3  0  0  0  0  0  0
  184.7270  178.9920  142.7920 C   0  0  0  0  0  2  0  0  0  0  0  0
  185.9840  179.7240  145.6260 C   0  0  0  0  0  1  0  0  0  0  0  0
  187.7270  177.2020  142.3590 C   0  0  0  0  0  0  0  0  0  0  0  0
  186.6800  177.5220  144.5430 C   0  0  1  0  0  3  0  0  0  0  0  0
  186.2360  179.1040  142.5300 C   0  0  0  0  0  2  0  0  0  0  0  0
  190.1940  177.1380  147.0020 C   0  0  0  0  0  0  0  0  0  0  0  0
  187.8960  177.3820  145.4180 C   0  0  0  0  0  0  0  0  0  0  0  0
  191.4130  177.0100  147.8420 C   0  0  0  0  0  1  0  0  0  0  0  0
  188.9450  176.7910  147.5250 C   0  0  0  0  0  3  0  0  0  0  0  0
  187.7990  176.9110  146.7360 C   0  0  0  0  0  3  0  0  0  0  0  0
  190.2960  177.6070  145.6890 C   0  0  0  0  0  3  0  0  0  0  0  0
  189.1480  177.7280  144.8990 C   0  0  0  0  0  3  0  0  0  0  0  0
  190.4820  176.7510  140.0260 C   0  0  1  0  0  3  0  0  0  0  0  0
  191.8950  177.5020  141.5660 N   0  0  0  0  0  0  0  0  0  0  0  0
  191.7620  177.2070  140.2600 C   0  0  0  0  0  0  0  0  0  0  0  0
  189.8640  176.7870  141.2610 C   0  0  0  0  0  0  0  0  0  0  0  0
  190.7460  177.2390  142.1750 N   0  0  0  0  0  0  0  0  0  0  0  0
  189.8680  176.5060  138.7650 N   0  0  0  0  0  1  0  0  0  0  0  0
  192.7880  177.4620  139.2940 N   0  0  0  0  0  2  0  0  0  0  0  0
  193.2130  176.5570  138.2710 C   0  0  0  0  0  0  0  0  0  0  0  0
  192.9230  175.3320  138.3380 O   0  0  0  0  0  0  0  0  0  0  0  0
  193.9960  177.0400  137.2220 O   0  0  0  0  0  0  0  0  0  0  0  0
  194.0590  176.3790  135.9680 C   0  0  0  0  0  2  0  0  0  0  0  0
  195.4640  175.8670  135.7360 C   0  0  0  0  0  1  0  0  0  0  0  0
  183.0620  178.9420  144.7530 C   0  0  0  0  0  2  0  0  0  0  0  0
  182.0500  179.2980  143.6710 C   0  0  0  0  0  2  0  0  0  0  0  0
  180.7140  178.6290  143.9520 C   0  0  0  0  0  2  0  0  0  0  0  0
  179.9910  178.2830  142.6580 C   0  0  0  0  0  2  0  0  0  0  0  0
  180.3380  179.2870  141.5710 C   0  0  0  0  0  2  0  0  0  0  0  0
  180.6670  178.5640  140.2730 C   0  0  0  0  0  2  0  0  0  0  0  0
  182.7550  177.2010  140.2180 C   0  0  0  0  0  1  0  0  0  0  0  0
  182.1620  178.5790  140.0000 C   0  0  0  0  0  2  0  0  0  0  0  0
  1  6  1  6  0  0  0
  2  8  1  0  0  0  0
  3  7  2  0  0  0  0
  4 29  1  1  0  0  0
  4  1  1  0  0  0  0
  5  4  1  0  0  0  0
  7  2  2  0  0  0  0
  8  1  1  0  0  0  0
  8 11  1  1  0  0  0
  9  5  1  0  0  0  0
  9  2  1  0  0  0  0
 10 13  1  0  0  0  0
 10 12  1  0  0  0  0
 11 14  1  0  0  0  0
 14 13  2  0  0  0  0
 15 10  2  0  0  0  0
 16 11  2  0  0  0  0
 16 15  1  0  0  0  0
 17 22  1  6  0  0  0
 17 19  1  0  0  0  0
 17 20  1  0  0  0  0
 18 21  1  0  0  0  0
 19 18  2  0  0  0  0
 20  3  1  0  0  0  0
 20 21  2  0  0  0  0
 23 19  1  0  0  0  0
 24 25  2  0  0  0  0
 24 23  1  0  0  0  0
 26 24  1  0  0  0  0
 27 26  1  0  0  0  0
 28 27  1  0  0  0  0
 30 31  1  0  0  0  0
 30 29  1  0  0  0  0
 32 31  1  0  0  0  0
 33 32  1  0  0  0  0
 34 33  1  0  0  0  0
 36 35  1  0  0  0  0
 36 34  1  0  0  0  0
M  END
>  <MODEL>
7

>  <REMARK>
 VINA RESULT:      -6.6      4.623      8.776
  Name = 
  12 active torsions:
  status: ('A' for Active; 'I' for Inactive)
    1  A    between atoms: O_3  and  C_7
    2  A    between atoms: O_3  and  C_30
    3  A    between atoms: C_4  and  C_33
    4  A    between atoms: C_6  and  C_11
    5  A    between atoms: C_6  and  C_26
    6  A    between atoms: C_9  and  C_23
    7  A    between atoms: C_10  and  C_15
    8  A    between atoms: C_10  and  C_20
    9  A    between atoms: C_11  and  C_17
   10  A    between atoms: C_15  and  C_25
   11  A    between atoms: N_19  and  C_21
   12  A    between atoms: C_20  and  C_26
                            x       y       z     vdW  Elec       q    Type
                         _______ _______ _______ _____ _____    ______ ____

>  <TORSDO>
F 12

$$$$
=
 OpenBabel10222415573D

 36 38  0  0  1  0  0  0  0  0999 V2000
  189.1500  177.7340  142.6530 C   0  0  2  0  0  3  0  0  0  0  0  0
  188.4090  177.5050  140.2320 C   0  0  0  0  0  0  0  0  0  0  0  0
  187.3900  178.4600  138.0270 C   0  0  0  0  0  3  0  0  0  0  0  0
  190.5760  177.6240  142.0830 C   0  0  2  0  0  3  0  0  0  0  0  0
  190.7210  176.7360  140.8290 C   0  0  0  0  0  2  0  0  0  0  0  0
  188.6780  176.4100  143.2510 C   0  0  0  0  0  1  0  0  0  0  0  0
  187.9010  177.9800  139.1280 C   0  0  0  0  0  0  0  0  0  0  0  0
  188.2160  178.2410  141.5370 C   0  0  1  0  0  3  0  0  0  0  0  0
  189.3860  176.3700  140.1640 C   0  0  0  0  0  2  0  0  0  0  0  0
  184.1130  178.6260  142.7860 C   0  0  0  0  0  0  0  0  0  0  0  0
  186.7780  178.3820  141.9550 C   0  0  0  0  0  0  0  0  0  0  0  0
  182.7000  178.7570  143.2270 C   0  0  0  0  0  1  0  0  0  0  0  0
  184.4540  178.8740  141.4530 C   0  0  0  0  0  3  0  0  0  0  0  0
  185.7820  178.7510  141.0380 C   0  0  0  0  0  3  0  0  0  0  0  0
  185.1000  178.2560  143.7030 C   0  0  0  0  0  3  0  0  0  0  0  0
  186.4310  178.1340  143.2870 C   0  0  0  0  0  3  0  0  0  0  0  0
  186.1490  176.8580  136.4490 C   0  0  1  0  0  3  0  0  0  0  0  0
  184.0960  177.5270  136.9710 N   0  0  0  0  0  0  0  0  0  0  0  0
  184.8040  176.6690  136.2130 C   0  0  0  0  0  0  0  0  0  0  0  0
  186.2040  177.8760  137.3810 C   0  0  0  0  0  0  0  0  0  0  0  0
  184.9470  178.2660  137.6730 N   0  0  0  0  0  0  0  0  0  0  0  0
  187.2280  176.0450  135.9990 N   0  0  0  0  0  1  0  0  0  0  0  0
  184.1930  175.6590  135.4020 N   0  0  0  0  0  2  0  0  0  0  0  0
  183.7130  174.3940  135.8680 C   0  0  0  0  0  0  0  0  0  0  0  0
  184.0760  173.9430  136.9880 O   0  0  0  0  0  0  0  0  0  0  0  0
  182.8760  173.6420  135.0430 O   0  0  0  0  0  0  0  0  0  0  0  0
  181.4740  173.8590  135.0000 C   0  0  0  0  0  2  0  0  0  0  0  0
  180.9650  174.1550  136.3940 C   0  0  0  0  0  1  0  0  0  0  0  0
  191.6650  177.3970  143.1290 C   0  0  0  0  0  2  0  0  0  0  0  0
  191.5080  178.3070  144.3410 C   0  0  0  0  0  2  0  0  0  0  0  0
  191.6770  177.5140  145.6270 C   0  0  0  0  0  2  0  0  0  0  0  0
  190.4020  176.7610  145.9790 C   0  0  0  0  0  2  0  0  0  0  0  0
  189.3210  177.7280  146.4310 C   0  0  0  0  0  2  0  0  0  0  0  0
  189.2860  177.8050  147.9500 C   0  0  0  0  0  2  0  0  0  0  0  0
  186.9120  178.2400  147.3190 C   0  0  0  0  0  1  0  0  0  0  0  0
  187.9270  178.2750  148.4450 C   0  0  0  0  0  2  0  0  0  0  0  0
  1  6  1  6  0  0  0
  2  8  1  0  0  0  0
  3  7  2  0  0  0  0
  4  1  1  0  0  0  0
  4 29  1  1  0  0  0
  5  4  1  0  0  0  0
  7  2  2  0  0  0  0
  8 11  1  1  0  0  0
  8  1  1  0  0  0  0
  9  2  1  0  0  0  0
  9  5  1  0  0  0  0
 10 12  1  0  0  0  0
 10 15  1  0  0  0  0
 11 16  1  0  0  0  0
 13 10  2  0  0  0  0
 14 13  1  0  0  0  0
 14 11  2  0  0  0  0
 16 15  2  0  0  0  0
 17 22  1  1  0  0  0
 17 20  1  0  0  0  0
 18 21  1  0  0  0  0
 19 17  1  0  0  0  0
 19 18  2  0  0  0  0
 20 21  2  0  0  0  0
 20  3  1  0  0  0  0
 23 24  1  0  0  0  0
 23 19  1  0  0  0  0
 24 25  2  0  0  0  0
 26 24  1  0  0  0  0
 27 26  1  0  0  0  0
 27 28  1  0  0  0  0
 29 30  1  0  0  0  0
 30 31  1  0  0  0  0
 31 32  1  0  0  0  0
 32 33  1  0  0  0  0
 33 34  1  0  0  0  0
 34 36  1  0  0  0  0
 35 36  1  0  0  0  0
M  END
>  <MODEL>
8

>  <REMARK>
 VINA RESULT:      -6.3      3.630      5.715
  Name = 
  12 active torsions:
  status: ('A' for Active; 'I' for Inactive)
    1  A    between atoms: O_3  and  C_7
    2  A    between atoms: O_3  and  C_30
    3  A    between atoms: C_4  and  C_33
    4  A    between atoms: C_6  and  C_11
    5  A    between atoms: C_6  and  C_26
    6  A    between atoms: C_9  and  C_23
    7  A    between atoms: C_10  and  C_15
    8  A    between atoms: C_10  and  C_20
    9  A    between atoms: C_11  and  C_17
   10  A    between atoms: C_15  and  C_25
   11  A    between atoms: N_19  and  C_21
   12  A    between atoms: C_20  and  C_26
                            x       y       z     vdW  Elec       q    Type
                         _______ _______ _______ _____ _____    ______ ____

>  <TORSDO>
F 12

$$$$
=
 OpenBabel10222415573D

 36 38  0  0  1  0  0  0  0  0999 V2000
  190.8790  177.2470  142.2640 C   0  0  2  0  0  3  0  0  0  0  0  0
  188.5160  177.9570  141.6530 C   0  0  0  0  0  0  0  0  0  0  0  0
  186.5070  179.6220  141.7410 C   0  0  0  0  0  3  0  0  0  0  0  0
  191.1990  177.5310  140.7850 C   0  0  2  0  0  3  0  0  0  0  0  0
  190.0480  177.2570  139.7930 C   0  0  0  0  0  2  0  0  0  0  0  0
  190.6990  175.7530  142.5250 C   0  0  0  0  0  1  0  0  0  0  0  0
  187.5100  178.7880  141.6940 C   0  0  0  0  0  0  0  0  0  0  0  0
  189.6360  178.0670  142.6600 C   0  0  1  0  0  3  0  0  0  0  0  0
  188.6800  177.0590  140.4640 C   0  0  0  0  0  2  0  0  0  0  0  0
  188.3340  177.5020  146.7250 C   0  0  0  0  0  0  0  0  0  0  0  0
  189.2000  177.8730  144.0870 C   0  0  0  0  0  0  0  0  0  0  0  0
  187.8740  177.3030  148.1240 C   0  0  0  0  0  1  0  0  0  0  0  0
  189.6550  177.8830  146.4720 C   0  0  0  0  0  3  0  0  0  0  0  0
  190.0870  178.0690  145.1560 C   0  0  0  0  0  3  0  0  0  0  0  0
  187.4460  177.3060  145.6640 C   0  0  0  0  0  3  0  0  0  0  0  0
  187.8790  177.4920  144.3470 C   0  0  0  0  0  3  0  0  0  0  0  0
  184.0260  179.0040  141.4970 C   0  0  1  0  0  3  0  0  0  0  0  0
  183.6450  178.6280  143.6530 N   0  0  0  0  0  0  0  0  0  0  0  0
  183.0840  178.6270  142.4300 C   0  0  0  0  0  0  0  0  0  0  0  0
  185.1750  179.2340  142.2300 C   0  0  0  0  0  0  0  0  0  0  0  0
  184.9110  179.0060  143.5320 N   0  0  0  0  0  0  0  0  0  0  0  0
  183.9060  178.9580  140.0790 N   0  0  0  0  0  1  0  0  0  0  0  0
  181.7460  178.1760  142.1870 N   0  0  0  0  0  2  0  0  0  0  0  0
  180.5770  179.0010  142.1850 C   0  0  0  0  0  0  0  0  0  0  0  0
  180.6000  180.1480  142.7090 O   0  0  0  0  0  0  0  0  0  0  0  0
  179.3950  178.4990  141.6410 O   0  0  0  0  0  0  0  0  0  0  0  0
  179.3500  177.2490  140.9690 C   0  0  0  0  0  2  0  0  0  0  0  0
  179.4570  177.4730  139.4770 C   0  0  0  0  0  1  0  0  0  0  0  0
  192.5550  177.0090  140.3140 C   0  0  0  0  0  2  0  0  0  0  0  0
  192.7340  177.1280  138.8060 C   0  0  0  0  0  2  0  0  0  0  0  0
  193.1300  175.7860  138.2100 C   0  0  0  0  0  2  0  0  0  0  0  0
  191.9310  175.0880  137.5840 C   0  0  0  0  0  2  0  0  0  0  0  0
  191.4280  175.8710  136.3830 C   0  0  0  0  0  2  0  0  0  0  0  0
  189.9140  176.0110  136.4430 C   0  0  0  0  0  2  0  0  0  0  0  0
  188.4400  178.0140  136.6420 C   0  0  0  0  0  1  0  0  0  0  0  0
  189.4540  177.2960  135.7720 C   0  0  0  0  0  2  0  0  0  0  0  0
  1  6  1  6  0  0  0
  1  8  1  0  0  0  0
  2  7  2  0  0  0  0
  2  8  1  0  0  0  0
  3 20  1  0  0  0  0
  4 29  1  6  0  0  0
  4  1  1  0  0  0  0
  5  9  1  0  0  0  0
  5  4  1  0  0  0  0
  7  3  2  0  0  0  0
  8 11  1  1  0  0  0
  9  2  1  0  0  0  0
 10 12  1  0  0  0  0
 11 16  2  0  0  0  0
 11 14  1  0  0  0  0
 13 10  1  0  0  0  0
 14 13  2  0  0  0  0
 15 10  2  0  0  0  0
 16 15  1  0  0  0  0
 17 22  1  6  0  0  0
 17 20  1  0  0  0  0
 17 19  1  0  0  0  0
 19 18  2  0  0  0  0
 20 21  2  0  0  0  0
 21 18  1  0  0  0  0
 23 19  1  0  0  0  0
 24 23  1  0  0  0  0
 24 25  2  0  0  0  0
 26 24  1  0  0  0  0
 27 26  1  0  0  0  0
 28 27  1  0  0  0  0
 30 29  1  0  0  0  0
 31 30  1  0  0  0  0
 32 31  1  0  0  0  0
 33 34  1  0  0  0  0
 33 32  1  0  0  0  0
 36 34  1  0  0  0  0
 36 35  1  0  0  0  0
M  END
>  <MODEL>
9

>  <REMARK>
 VINA RESULT:      -6.3      2.747      6.484
  Name = 
  12 active torsions:
  status: ('A' for Active; 'I' for Inactive)
    1  A    between atoms: O_3  and  C_7
    2  A    between atoms: O_3  and  C_30
    3  A    between atoms: C_4  and  C_33
    4  A    between atoms: C_6  and  C_11
    5  A    between atoms: C_6  and  C_26
    6  A    between atoms: C_9  and  C_23
    7  A    between atoms: C_10  and  C_15
    8  A    between atoms: C_10  and  C_20
    9  A    between atoms: C_11  and  C_17
   10  A    between atoms: C_15  and  C_25
   11  A    between atoms: N_19  and  C_21
   12  A    between atoms: C_20  and  C_26
                            x       y       z     vdW  Elec       q    Type
                         _______ _______ _______ _____ _____    ______ ____

>  <TORSDO>
F 12

$$$$
