=
 OpenBabel10222416273D

 38 42  0  0  1  0  0  0  0  0999 V2000
  186.4190  178.0150  138.3720 C   0  0  0  0  0  3  0  0  0  0  0  0
  183.3870  178.8700  143.8340 C   0  0  0  0  0  3  0  0  0  0  0  0
  184.8880  178.7660  145.7640 C   0  0  0  0  0  0  0  0  0  0  0  0
  184.5410  178.5720  142.9560 C   0  0  2  0  0  3  0  0  0  0  0  0
  186.8820  178.3770  141.4320 C   0  0  0  0  0  0  0  0  0  0  0  0
  184.5030  178.7170  141.6140 C   0  0  0  0  0  0  0  0  0  0  0  0
  188.2350  178.4730  140.8220 C   0  0  0  0  0  0  0  0  0  0  0  0
  183.5560  178.9480  145.1570 C   0  0  0  0  0  3  0  0  0  0  0  0
  186.9040  178.2800  142.8320 O   0  0  0  0  0  0  0  0  0  0  0  0
  185.4920  178.5230  139.3840 C   0  0  2  0  0  3  0  0  0  0  0  0
  187.7270  177.8620  138.4450 C   0  0  0  0  0  3  0  0  0  0  0  0
  183.2910  179.0890  141.0150 C   0  0  0  0  0  3  0  0  0  0  0  0
  188.5770  178.2100  139.5680 C   0  0  0  0  0  3  0  0  0  0  0  0
  185.0730  179.0510  147.1090 O   0  0  0  0  0  1  0  0  0  0  0  0
  183.1690  179.1920  139.6410 C   0  0  0  0  0  0  0  0  0  0  0  0
  185.6710  178.5040  140.8010 C   0  0  0  0  0  0  0  0  0  0  0  0
  185.9260  178.3550  145.0260 C   0  0  0  0  0  3  0  0  0  0  0  0
  184.2560  178.8690  138.8400 C   0  0  0  0  0  3  0  0  0  0  0  0
  185.7530  177.9560  143.5850 C   0  0  1  0  0  3  0  0  0  0  0  0
  189.3870  178.8310  141.7120 C   0  0  0  0  0  2  0  0  0  0  0  0
  190.8870  177.7120  143.4250 C   0  0  0  0  0  0  0  0  0  0  0  0
  189.7740  177.6890  142.5320 N   0  0  0  0  0  2  0  0  0  0  0  0
  191.6670  178.7010  143.4510 O   0  0  0  0  0  0  0  0  0  0  0  0
  191.1060  176.5660  144.3710 C   0  0  0  0  0  2  0  0  0  0  0  0
  191.2190  176.9660  145.7830 N   0  0  0  0  0  0  0  0  0  0  0  0
  189.8990  177.0460  146.3940 C   0  0  0  0  0  1  0  0  0  0  0  0
  192.0030  175.9880  146.5190 C   0  0  0  0  0  1  0  0  0  0  0  0
  181.9060  179.5450  139.0710 N   0  0  0  0  0  2  0  0  0  0  0  0
  180.7410  179.8860  139.8810 C   0  0  1  0  0  3  0  0  0  0  0  0
  180.0660  181.1550  139.4660 C   0  0  2  0  0  3  0  0  0  0  0  0
  179.5900  179.8890  139.0730 O   0  0  0  0  0  0  0  0  0  0  0  0
  182.1100  182.5530  138.3570 O   0  0  0  0  0  0  0  0  0  0  0  0
  180.7390  182.0210  138.0390 S   0  0  0  0  0  0  0  0  0  0  0  0
  180.8200  181.1000  136.8540 O   0  0  0  0  0  0  0  0  0  0  0  0
  179.6620  183.3810  137.6160 C   0  0  0  0  0  2  0  0  0  0  0  0
  179.5760  185.8640  137.7640 C   0  0  0  0  0  1  0  0  0  0  0  0
  180.9460  184.7740  136.0230 C   0  0  0  0  0  1  0  0  0  0  0  0
  180.4520  184.6660  137.4490 C   0  0  0  0  0  3  0  0  0  0  0  0
  1 11  2  0  0  0  0
  2  8  2  0  0  0  0
  3 14  1  0  0  0  0
  4 19  1  0  0  0  0
  4  2  1  6  0  0  0
  5  9  1  0  0  0  0
  6  4  1  0  0  0  0
  7  5  1  0  0  0  0
  7 20  1  0  0  0  0
  8  3  1  0  0  0  0
  9 19  1  0  0  0  0
 10  1  1  1  0  0  0
 10 16  1  0  0  0  0
 11 13  1  0  0  0  0
 12  6  2  0  0  0  0
 13  7  2  0  0  0  0
 15 12  1  0  0  0  0
 16  5  2  0  0  0  0
 16  6  1  0  0  0  0
 17  3  2  0  0  0  0
 18 10  1  0  0  0  0
 18 15  2  0  0  0  0
 19 17  1  1  0  0  0
 20 22  1  0  0  0  0
 21 23  2  0  0  0  0
 21 24  1  0  0  0  0
 22 21  1  0  0  0  0
 24 25  1  0  0  0  0
 25 26  1  0  0  0  0
 25 27  1  0  0  0  0
 28 15  1  0  0  0  0
 29 28  1  6  0  0  0
 30 33  1  6  0  0  0
 30 29  1  0  0  0  0
 31 30  1  0  0  0  0
 31 29  1  0  0  0  0
 33 32  2  0  0  0  0
 34 33  2  0  0  0  0
 35 33  1  0  0  0  0
 37 38  1  0  0  0  0
 38 35  1  0  0  0  0
 38 36  1  0  0  0  0
M  END
>  <MODEL>
1

>  <REMARK>
 VINA RESULT:      -8.8      0.000      0.000
  Name = 
  9 active torsions:
  status: ('A' for Active; 'I' for Inactive)
    1  A    between atoms: N_6  and  C_14
    2  A    between atoms: C_9  and  C_17
    3  A    between atoms: S_10  and  C_31
    4  A    between atoms: S_10  and  C_33
    5  A    between atoms: C_11  and  C_14
    6  A    between atoms: N_15  and  C_17
    7  A    between atoms: C_16  and  N_28
    8  A    between atoms: N_28  and  C_29
    9  A    between atoms: C_33  and  C_34
                            x       y       z     vdW  Elec       q    Type
                         _______ _______ _______ _____ _____    ______ ____

>  <TORSDO>
F 9

$$$$
=
 OpenBabel10222416273D

 38 42  0  0  1  0  0  0  0  0999 V2000
  189.1510  178.3170  137.6420 C   0  0  0  0  0  3  0  0  0  0  0  0
  185.2390  178.7430  142.5690 C   0  0  0  0  0  3  0  0  0  0  0  0
  182.8860  178.7650  141.8960 C   0  0  0  0  0  0  0  0  0  0  0  0
  185.6180  178.6950  141.1380 C   0  0  2  0  0  3  0  0  0  0  0  0
  186.1370  178.2290  138.4270 C   0  0  0  0  0  0  0  0  0  0  0  0
  186.8670  178.4040  140.7170 C   0  0  0  0  0  0  0  0  0  0  0  0
  186.1800  177.7890  137.0060 C   0  0  0  0  0  0  0  0  0  0  0  0
  183.9500  178.7890  142.9180 C   0  0  0  0  0  3  0  0  0  0  0  0
  184.8380  178.4840  138.8950 O   0  0  0  0  0  0  0  0  0  0  0  0
  188.5550  178.1310  138.9660 C   0  0  2  0  0  3  0  0  0  0  0  0
  188.5890  178.2080  136.4540 C   0  0  0  0  0  3  0  0  0  0  0  0
  187.8710  178.2190  141.6770 C   0  0  0  0  0  3  0  0  0  0  0  0
  187.2160  177.8280  136.1790 C   0  0  0  0  0  3  0  0  0  0  0  0
  181.5640  178.6080  142.2870 O   0  0  0  0  0  1  0  0  0  0  0  0
  189.1840  177.9840  141.3090 C   0  0  0  0  0  0  0  0  0  0  0  0
  187.1790  178.2780  139.3170 C   0  0  0  0  0  0  0  0  0  0  0  0
  183.1840  178.8670  140.5950 C   0  0  0  0  0  3  0  0  0  0  0  0
  189.5190  177.9820  139.9620 C   0  0  0  0  0  3  0  0  0  0  0  0
  184.5930  179.1210  140.1330 C   0  0  1  0  0  3  0  0  0  0  0  0
  184.9060  177.3110  136.3770 C   0  0  0  0  0  2  0  0  0  0  0  0
  184.0190  175.1110  137.2770 C   0  0  0  0  0  0  0  0  0  0  0  0
  184.8490  175.8540  136.3840 N   0  0  0  0  0  2  0  0  0  0  0  0
  183.3820  175.6950  138.1930 O   0  0  0  0  0  0  0  0  0  0  0  0
  183.8720  173.6280  137.0970 C   0  0  0  0  0  2  0  0  0  0  0  0
  185.0600  172.9710  136.5280 N   0  0  0  0  0  0  0  0  0  0  0  0
  186.0900  172.8160  137.5470 C   0  0  0  0  0  1  0  0  0  0  0  0
  184.7120  171.6510  136.0280 C   0  0  0  0  0  1  0  0  0  0  0  0
  190.1820  177.8300  142.3220 N   0  0  0  0  0  2  0  0  0  0  0  0
  191.1110  176.7050  142.3510 C   0  0  1  0  0  3  0  0  0  0  0  0
  191.5860  176.3490  143.7240 C   0  0  2  0  0  3  0  0  0  0  0  0
  190.5460  175.6460  143.0840 O   0  0  0  0  0  0  0  0  0  0  0  0
  191.7670  177.0910  146.3270 O   0  0  0  0  0  0  0  0  0  0  0  0
  190.9210  177.2980  145.1010 S   0  0  0  0  0  0  0  0  0  0  0  0
  190.8790  178.7610  144.7600 O   0  0  0  0  0  0  0  0  0  0  0  0
  189.2520  176.7560  145.4360 C   0  0  0  0  0  2  0  0  0  0  0  0
  188.5410  177.6610  147.6430 C   0  0  0  0  0  1  0  0  0  0  0  0
  187.0120  177.7710  145.7070 C   0  0  0  0  0  1  0  0  0  0  0  0
  188.4600  177.8430  146.1390 C   0  0  0  0  0  3  0  0  0  0  0  0
  2  8  2  0  0  0  0
  3 14  1  0  0  0  0
  3  8  1  0  0  0  0
  4  2  1  1  0  0  0
  5  9  1  0  0  0  0
  5 16  2  0  0  0  0
  6  4  1  0  0  0  0
  6 12  2  0  0  0  0
  7  5  1  0  0  0  0
  9 19  1  0  0  0  0
 10  1  1  1  0  0  0
 10 16  1  0  0  0  0
 10 18  1  0  0  0  0
 11  1  2  0  0  0  0
 13 11  1  0  0  0  0
 13  7  2  0  0  0  0
 15 12  1  0  0  0  0
 15 28  1  0  0  0  0
 16  6  1  0  0  0  0
 17  3  2  0  0  0  0
 18 15  2  0  0  0  0
 19 17  1  1  0  0  0
 19  4  1  0  0  0  0
 20 22  1  0  0  0  0
 20  7  1  0  0  0  0
 21 23  2  0  0  0  0
 22 21  1  0  0  0  0
 24 21  1  0  0  0  0
 25 24  1  0  0  0  0
 25 26  1  0  0  0  0
 27 25  1  0  0  0  0
 29 28  1  1  0  0  0
 29 31  1  0  0  0  0
 29 30  1  0  0  0  0
 30 33  1  1  0  0  0
 31 30  1  0  0  0  0
 33 35  1  0  0  0  0
 33 32  2  0  0  0  0
 34 33  2  0  0  0  0
 35 38  1  0  0  0  0
 37 38  1  0  0  0  0
 38 36  1  0  0  0  0
M  END
>  <MODEL>
2

>  <REMARK>
 VINA RESULT:      -8.8      4.073      8.933
  Name = 
  9 active torsions:
  status: ('A' for Active; 'I' for Inactive)
    1  A    between atoms: N_6  and  C_14
    2  A    between atoms: C_9  and  C_17
    3  A    between atoms: S_10  and  C_31
    4  A    between atoms: S_10  and  C_33
    5  A    between atoms: C_11  and  C_14
    6  A    between atoms: N_15  and  C_17
    7  A    between atoms: C_16  and  N_28
    8  A    between atoms: N_28  and  C_29
    9  A    between atoms: C_33  and  C_34
                            x       y       z     vdW  Elec       q    Type
                         _______ _______ _______ _____ _____    ______ ____

>  <TORSDO>
F 9

$$$$
=
 OpenBabel10222416273D

 38 42  0  0  1  0  0  0  0  0999 V2000
  188.4970  177.1410  138.0190 C   0  0  0  0  0  3  0  0  0  0  0  0
  188.9160  177.5360  144.2980 C   0  0  0  0  0  3  0  0  0  0  0  0
  191.0920  176.7940  145.1390 C   0  0  0  0  0  0  0  0  0  0  0  0
  189.3600  177.1910  142.9280 C   0  0  2  0  0  3  0  0  0  0  0  0
  190.4930  176.8380  140.3930 C   0  0  0  0  0  0  0  0  0  0  0  0
  188.7000  177.5850  141.8190 C   0  0  0  0  0  0  0  0  0  0  0  0
  191.3360  176.7850  139.1680 C   0  0  0  0  0  0  0  0  0  0  0  0
  189.7330  177.3340  145.3360 C   0  0  0  0  0  3  0  0  0  0  0  0
  191.1810  176.4810  141.5630 O   0  0  0  0  0  0  0  0  0  0  0  0
  188.3620  177.6200  139.3960 C   0  0  2  0  0  3  0  0  0  0  0  0
  189.5770  176.7300  137.3840 C   0  0  0  0  0  3  0  0  0  0  0  0
  187.4950  178.2850  141.9710 C   0  0  0  0  0  3  0  0  0  0  0  0
  190.9290  176.6980  137.9090 C   0  0  0  0  0  3  0  0  0  0  0  0
  191.9860  176.7860  146.2000 O   0  0  0  0  0  1  0  0  0  0  0  0
  186.7370  178.6600  140.8750 C   0  0  0  0  0  0  0  0  0  0  0  0
  189.2090  177.3070  140.5020 C   0  0  0  0  0  0  0  0  0  0  0  0
  191.4790  176.3360  143.9430 C   0  0  0  0  0  3  0  0  0  0  0  0
  187.1570  178.2900  139.6050 C   0  0  0  0  0  3  0  0  0  0  0  0
  190.5170  176.2500  142.7890 C   0  0  1  0  0  3  0  0  0  0  0  0
  192.8250  176.7470  139.3390 C   0  0  0  0  0  2  0  0  0  0  0  0
  193.9460  175.5820  137.3830 C   0  0  0  0  0  0  0  0  0  0  0  0
  193.4880  176.7640  138.0400 N   0  0  0  0  0  2  0  0  0  0  0  0
  193.9020  174.4680  137.9680 O   0  0  0  0  0  0  0  0  0  0  0  0
  194.4450  175.6630  135.9690 C   0  0  0  0  0  2  0  0  0  0  0  0
  195.6400  176.5040  135.8010 N   0  0  0  0  0  0  0  0  0  0  0  0
  196.7970  175.6830  135.4690 C   0  0  0  0  0  1  0  0  0  0  0  0
  195.4350  177.4570  134.7220 C   0  0  0  0  0  1  0  0  0  0  0  0
  185.5000  179.3470  141.0770 N   0  0  0  0  0  2  0  0  0  0  0  0
  184.3300  178.7090  141.6730 C   0  0  1  0  0  3  0  0  0  0  0  0
  183.1570  178.6140  140.7520 C   0  0  2  0  0  3  0  0  0  0  0  0
  184.0270  177.5290  140.9710 O   0  0  0  0  0  0  0  0  0  0  0  0
  184.1800  180.5020  139.0930 O   0  0  0  0  0  0  0  0  0  0  0  0
  183.3700  179.2340  139.0750 S   0  0  0  0  0  0  0  0  0  0  0  0
  184.0590  178.2090  138.2180 O   0  0  0  0  0  0  0  0  0  0  0  0
  181.7660  179.5690  138.3640 C   0  0  0  0  0  2  0  0  0  0  0  0
  180.2290  180.9780  139.7230 C   0  0  0  0  0  1  0  0  0  0  0  0
  180.7920  181.6340  137.4100 C   0  0  0  0  0  1  0  0  0  0  0  0
  181.3220  180.9870  138.6710 C   0  0  0  0  0  3  0  0  0  0  0  0
  2  8  2  0  0  0  0
  3  8  1  0  0  0  0
  3 14  1  0  0  0  0
  4  2  1  1  0  0  0
  5 16  2  0  0  0  0
  5  9  1  0  0  0  0
  6 12  2  0  0  0  0
  6  4  1  0  0  0  0
  7 20  1  0  0  0  0
  7  5  1  0  0  0  0
  9 19  1  0  0  0  0
 10  1  1  1  0  0  0
 10 18  1  0  0  0  0
 10 16  1  0  0  0  0
 11 13  1  0  0  0  0
 11  1  2  0  0  0  0
 13  7  2  0  0  0  0
 15 28  1  0  0  0  0
 15 12  1  0  0  0  0
 16  6  1  0  0  0  0
 17  3  2  0  0  0  0
 18 15  2  0  0  0  0
 19  4  1  0  0  0  0
 19 17  1  1  0  0  0
 21 23  2  0  0  0  0
 21 22  1  0  0  0  0
 22 20  1  0  0  0  0
 24 21  1  0  0  0  0
 25 24  1  0  0  0  0
 26 25  1  0  0  0  0
 27 25  1  0  0  0  0
 29 28  1  6  0  0  0
 30 33  1  6  0  0  0
 30 31  1  0  0  0  0
 30 29  1  0  0  0  0
 31 29  1  0  0  0  0
 33 32  2  0  0  0  0
 34 33  2  0  0  0  0
 35 38  1  0  0  0  0
 35 33  1  0  0  0  0
 37 38  1  0  0  0  0
 38 36  1  0  0  0  0
M  END
>  <MODEL>
3

>  <REMARK>
 VINA RESULT:      -8.6      3.988      5.859
  Name = 
  9 active torsions:
  status: ('A' for Active; 'I' for Inactive)
    1  A    between atoms: N_6  and  C_14
    2  A    between atoms: C_9  and  C_17
    3  A    between atoms: S_10  and  C_31
    4  A    between atoms: S_10  and  C_33
    5  A    between atoms: C_11  and  C_14
    6  A    between atoms: N_15  and  C_17
    7  A    between atoms: C_16  and  N_28
    8  A    between atoms: N_28  and  C_29
    9  A    between atoms: C_33  and  C_34
                            x       y       z     vdW  Elec       q    Type
                         _______ _______ _______ _____ _____    ______ ____

>  <TORSDO>
F 9

$$$$
=
 OpenBabel10222416273D

 38 42  0  0  1  0  0  0  0  0999 V2000
  187.7040  178.2820  137.8410 C   0  0  0  0  0  3  0  0  0  0  0  0
  184.8950  178.9020  143.4520 C   0  0  0  0  0  3  0  0  0  0  0  0
  182.4540  178.8280  143.2890 C   0  0  0  0  0  0  0  0  0  0  0  0
  184.9680  178.7790  141.9780 C   0  0  2  0  0  3  0  0  0  0  0  0
  184.9250  178.1690  139.2460 C   0  0  0  0  0  0  0  0  0  0  0  0
  186.1110  178.4940  141.3190 C   0  0  0  0  0  0  0  0  0  0  0  0
  184.6860  177.6480  137.8730 C   0  0  0  0  0  0  0  0  0  0  0  0
  183.7070  178.9370  144.0620 C   0  0  0  0  0  3  0  0  0  0  0  0
  183.7450  178.4190  139.9630 O   0  0  0  0  0  0  0  0  0  0  0  0
  187.4050  178.1600  139.2680 C   0  0  2  0  0  3  0  0  0  0  0  0
  186.9100  178.0910  136.8050 C   0  0  0  0  0  3  0  0  0  0  0  0
  187.3000  178.3890  142.0540 C   0  0  0  0  0  3  0  0  0  0  0  0
  185.5250  177.6630  136.8450 C   0  0  0  0  0  3  0  0  0  0  0  0
  181.2490  178.6630  143.9580 O   0  0  0  0  0  1  0  0  0  0  0  0
  188.5150  178.1640  141.4310 C   0  0  0  0  0  0  0  0  0  0  0  0
  186.1280  178.2940  139.8930 C   0  0  0  0  0  0  0  0  0  0  0  0
  182.4700  178.8610  141.9520 C   0  0  0  0  0  3  0  0  0  0  0  0
  188.5600  178.0920  140.0460 C   0  0  0  0  0  3  0  0  0  0  0  0
  183.7410  179.1210  141.1900 C   0  0  1  0  0  3  0  0  0  0  0  0
  183.3270  177.1030  137.5520 C   0  0  0  0  0  2  0  0  0  0  0  0
  181.2710  178.5850  137.4460 C   0  0  0  0  0  0  0  0  0  0  0  0
  182.5090  178.1220  136.9060 N   0  0  0  0  0  2  0  0  0  0  0  0
  180.7690  178.0340  138.4600 O   0  0  0  0  0  0  0  0  0  0  0  0
  180.5830  179.7670  136.8230 C   0  0  0  0  0  2  0  0  0  0  0  0
  180.5480  180.9620  137.6810 N   0  0  0  0  0  0  0  0  0  0  0  0
  181.8200  181.1280  138.3720 C   0  0  0  0  0  1  0  0  0  0  0  0
  180.3080  182.1490  136.8770 C   0  0  0  0  0  1  0  0  0  0  0  0
  189.7070  178.0940  142.2170 N   0  0  0  0  0  2  0  0  0  0  0  0
  190.7150  177.0550  142.0330 C   0  0  1  0  0  3  0  0  0  0  0  0
  191.4090  176.6550  143.2960 C   0  0  2  0  0  3  0  0  0  0  0  0
  190.3450  175.9060  142.7570 O   0  0  0  0  0  0  0  0  0  0  0  0
  191.8610  177.1670  145.9220 O   0  0  0  0  0  0  0  0  0  0  0  0
  190.8790  177.4540  144.8190 S   0  0  0  0  0  0  0  0  0  0  0  0
  190.7630  178.9390  144.6220 O   0  0  0  0  0  0  0  0  0  0  0  0
  189.2720  176.8270  145.2820 C   0  0  0  0  0  2  0  0  0  0  0  0
  188.9350  177.4850  147.6590 C   0  0  0  0  0  1  0  0  0  0  0  0
  187.0670  177.6460  146.0520 C   0  0  0  0  0  1  0  0  0  0  0  0
  188.5640  177.7880  146.2200 C   0  0  0  0  0  3  0  0  0  0  0  0
  2  8  2  0  0  0  0
  3 14  1  0  0  0  0
  3  8  1  0  0  0  0
  4  2  1  1  0  0  0
  5 16  2  0  0  0  0
  5  9  1  0  0  0  0
  6  4  1  0  0  0  0
  6 12  2  0  0  0  0
  7  5  1  0  0  0  0
  9 19  1  0  0  0  0
 10  1  1  6  0  0  0
 10 16  1  0  0  0  0
 10 18  1  0  0  0  0
 11 13  1  0  0  0  0
 11  1  2  0  0  0  0
 13  7  2  0  0  0  0
 15 12  1  0  0  0  0
 15 28  1  0  0  0  0
 16  6  1  0  0  0  0
 17  3  2  0  0  0  0
 18 15  2  0  0  0  0
 19 17  1  1  0  0  0
 19  4  1  0  0  0  0
 20  7  1  0  0  0  0
 21 23  2  0  0  0  0
 22 21  1  0  0  0  0
 22 20  1  0  0  0  0
 24 21  1  0  0  0  0
 24 25  1  0  0  0  0
 25 26  1  0  0  0  0
 27 25  1  0  0  0  0
 29 28  1  1  0  0  0
 29 31  1  0  0  0  0
 29 30  1  0  0  0  0
 30 33  1  1  0  0  0
 31 30  1  0  0  0  0
 33 35  1  0  0  0  0
 33 32  2  0  0  0  0
 34 33  2  0  0  0  0
 35 38  1  0  0  0  0
 37 38  1  0  0  0  0
 38 36  1  0  0  0  0
M  END
>  <MODEL>
4

>  <REMARK>
 VINA RESULT:      -8.5      3.045      9.267
  Name = 
  9 active torsions:
  status: ('A' for Active; 'I' for Inactive)
    1  A    between atoms: N_6  and  C_14
    2  A    between atoms: C_9  and  C_17
    3  A    between atoms: S_10  and  C_31
    4  A    between atoms: S_10  and  C_33
    5  A    between atoms: C_11  and  C_14
    6  A    between atoms: N_15  and  C_17
    7  A    between atoms: C_16  and  N_28
    8  A    between atoms: N_28  and  C_29
    9  A    between atoms: C_33  and  C_34
                            x       y       z     vdW  Elec       q    Type
                         _______ _______ _______ _____ _____    ______ ____

>  <TORSDO>
F 9

$$$$
=
 OpenBabel10222416273D

 38 42  0  0  1  0  0  0  0  0999 V2000
  188.5930  177.2030  138.0520 C   0  0  0  0  0  3  0  0  0  0  0  0
  188.9090  177.6020  144.3370 C   0  0  0  0  0  3  0  0  0  0  0  0
  191.0710  176.8640  145.2130 C   0  0  0  0  0  0  0  0  0  0  0  0
  189.3760  177.2570  142.9740 C   0  0  2  0  0  3  0  0  0  0  0  0
  190.5500  176.9050  140.4580 C   0  0  0  0  0  0  0  0  0  0  0  0
  188.7330  177.6500  141.8540 C   0  0  0  0  0  0  0  0  0  0  0  0
  191.4140  176.8530  139.2480 C   0  0  0  0  0  0  0  0  0  0  0  0
  189.7090  177.4030  145.3880 C   0  0  0  0  0  3  0  0  0  0  0  0
  191.2200  176.5500  141.6390 O   0  0  0  0  0  0  0  0  0  0  0  0
  188.4340  177.6830  139.4260 C   0  0  2  0  0  3  0  0  0  0  0  0
  189.6840  176.7950  137.4340 C   0  0  0  0  0  3  0  0  0  0  0  0
  187.5240  178.3480  141.9860 C   0  0  0  0  0  3  0  0  0  0  0  0
  191.0280  176.7650  137.9820 C   0  0  0  0  0  3  0  0  0  0  0  0
  191.9490  176.8580  146.2890 O   0  0  0  0  0  1  0  0  0  0  0  0
  186.7840  178.7210  140.8780 C   0  0  0  0  0  0  0  0  0  0  0  0
  189.2640  177.3720  140.5460 C   0  0  0  0  0  0  0  0  0  0  0  0
  191.4790  176.4070  144.0240 C   0  0  0  0  0  3  0  0  0  0  0  0
  187.2260  178.3510  139.6150 C   0  0  0  0  0  3  0  0  0  0  0  0
  190.5360  176.3180  142.8550 C   0  0  1  0  0  3  0  0  0  0  0  0
  192.9000  176.8180  139.4420 C   0  0  0  0  0  2  0  0  0  0  0  0
  194.7080  175.4160  138.3460 C   0  0  0  0  0  0  0  0  0  0  0  0
  193.5550  176.2540  138.2680 N   0  0  0  0  0  2  0  0  0  0  0  0
  195.2880  175.2260  139.4480 O   0  0  0  0  0  0  0  0  0  0  0  0
  195.2100  174.7230  137.1110 C   0  0  0  0  0  2  0  0  0  0  0  0
  196.3200  175.4180  136.4410 N   0  0  0  0  0  0  0  0  0  0  0  0
  197.4830  174.5460  136.3490 C   0  0  0  0  0  1  0  0  0  0  0  0
  195.9310  175.8020  135.0940 C   0  0  0  0  0  1  0  0  0  0  0  0
  185.5420  179.4060  141.0590 N   0  0  0  0  0  2  0  0  0  0  0  0
  184.5730  179.0280  142.0830 C   0  0  1  0  0  3  0  0  0  0  0  0
  183.1980  178.7790  141.5520 C   0  0  2  0  0  3  0  0  0  0  0  0
  184.0970  177.7300  141.8240 O   0  0  0  0  0  0  0  0  0  0  0  0
  181.5040  179.1510  139.4650 O   0  0  0  0  0  0  0  0  0  0  0  0
  182.9590  178.9280  139.7740 S   0  0  0  0  0  0  0  0  0  0  0  0
  183.7700  180.0690  139.2270 O   0  0  0  0  0  0  0  0  0  0  0  0
  183.5070  177.4250  138.9800 C   0  0  0  0  0  2  0  0  0  0  0  0
  182.7870  177.5780  136.6020 C   0  0  0  0  0  1  0  0  0  0  0  0
  185.0230  176.6930  137.1650 C   0  0  0  0  0  1  0  0  0  0  0  0
  183.9600  177.6970  137.5570 C   0  0  0  0  0  3  0  0  0  0  0  0
  2  8  2  0  0  0  0
  3  8  1  0  0  0  0
  3 14  1  0  0  0  0
  4  2  1  1  0  0  0
  5 16  2  0  0  0  0
  5  9  1  0  0  0  0
  6 12  2  0  0  0  0
  6  4  1  0  0  0  0
  7 20  1  0  0  0  0
  7  5  1  0  0  0  0
  9 19  1  0  0  0  0
 10  1  1  1  0  0  0
 10 18  1  0  0  0  0
 10 16  1  0  0  0  0
 11 13  1  0  0  0  0
 11  1  2  0  0  0  0
 13  7  2  0  0  0  0
 15 28  1  0  0  0  0
 15 12  1  0  0  0  0
 16  6  1  0  0  0  0
 17  3  2  0  0  0  0
 18 15  2  0  0  0  0
 19  4  1  0  0  0  0
 19 17  1  1  0  0  0
 21 23  2  0  0  0  0
 22 21  1  0  0  0  0
 22 20  1  0  0  0  0
 24 21  1  0  0  0  0
 25 24  1  0  0  0  0
 26 25  1  0  0  0  0
 27 25  1  0  0  0  0
 29 28  1  6  0  0  0
 30 33  1  6  0  0  0
 30 31  1  0  0  0  0
 30 29  1  0  0  0  0
 31 29  1  0  0  0  0
 32 33  2  0  0  0  0
 34 33  2  0  0  0  0
 35 33  1  0  0  0  0
 36 38  1  0  0  0  0
 37 38  1  0  0  0  0
 38 35  1  0  0  0  0
M  END
>  <MODEL>
5

>  <REMARK>
 VINA RESULT:      -8.5      4.053      6.225
  Name = 
  9 active torsions:
  status: ('A' for Active; 'I' for Inactive)
    1  A    between atoms: N_6  and  C_14
    2  A    between atoms: C_9  and  C_17
    3  A    between atoms: S_10  and  C_31
    4  A    between atoms: S_10  and  C_33
    5  A    between atoms: C_11  and  C_14
    6  A    between atoms: N_15  and  C_17
    7  A    between atoms: C_16  and  N_28
    8  A    between atoms: N_28  and  C_29
    9  A    between atoms: C_33  and  C_34
                            x       y       z     vdW  Elec       q    Type
                         _______ _______ _______ _____ _____    ______ ____

>  <TORSDO>
F 9

$$$$
=
 OpenBabel10222416273D

 38 42  0  0  1  0  0  0  0  0999 V2000
  183.6860  179.0190  144.5940 C   0  0  0  0  0  3  0  0  0  0  0  0
  185.7700  178.6310  138.6560 C   0  0  0  0  0  3  0  0  0  0  0  0
  188.1020  177.8990  138.5280 C   0  0  0  0  0  0  0  0  0  0  0  0
  185.8680  178.5900  140.1330 C   0  0  2  0  0  3  0  0  0  0  0  0
  186.1170  178.0950  142.8770 C   0  0  0  0  0  0  0  0  0  0  0  0
  184.7910  178.6540  140.9440 C   0  0  0  0  0  0  0  0  0  0  0  0
  186.3930  177.5810  144.2450 C   0  0  0  0  0  0  0  0  0  0  0  0
  186.8310  178.3170  137.9060 C   0  0  0  0  0  3  0  0  0  0  0  0
  187.2130  177.9860  142.0060 O   0  0  0  0  0  0  0  0  0  0  0  0
  183.7450  178.7640  143.1540 C   0  0  0  0  0  0  0  0  0  0  0  0
  184.5340  178.6570  145.5380 C   0  0  0  0  0  2  0  0  0  0  0  0
  183.5290  178.8510  140.3660 C   0  0  0  0  0  3  0  0  0  0  0  0
  185.7360  177.8640  145.3630 C   0  0  0  0  0  3  0  0  0  0  0  0
  189.1170  177.3850  137.7330 O   0  0  0  0  0  1  0  0  0  0  0  0
  182.3940  178.9910  141.1460 C   0  0  0  0  0  0  0  0  0  0  0  0
  184.9150  178.5210  142.3720 C   0  0  0  0  0  0  0  0  0  0  0  0
  188.2770  177.9860  139.8520 C   0  0  0  0  0  3  0  0  0  0  0  0
  182.5200  178.9860  142.5290 C   0  0  0  0  0  3  0  0  0  0  0  0
  187.2370  178.6130  140.7400 C   0  0  1  0  0  3  0  0  0  0  0  0
  187.5880  176.6980  144.4400 C   0  0  0  0  0  2  0  0  0  0  0  0
  189.1220  177.2650  146.3800 C   0  0  0  0  0  0  0  0  0  0  0  0
  188.6880  177.4500  145.0330 N   0  0  0  0  0  2  0  0  0  0  0  0
  188.4800  176.5150  147.1620 O   0  0  0  0  0  0  0  0  0  0  0  0
  190.3770  177.9380  146.8570 C   0  0  0  0  0  2  0  0  0  0  0  0
  191.6110  177.2050  146.5340 N   0  0  0  0  0  0  0  0  0  0  0  0
  191.6720  175.9580  147.2850 C   0  0  0  0  0  1  0  0  0  0  0  0
  191.6460  176.8830  145.1160 C   0  0  0  0  0  1  0  0  0  0  0  0
  181.1310  179.2190  140.5160 N   0  0  0  0  0  2  0  0  0  0  0  0
  180.0990  180.0690  141.1010 C   0  0  1  0  0  3  0  0  0  0  0  0
  179.7340  181.2470  140.2550 C   0  0  2  0  0  3  0  0  0  0  0  0
  178.9630  180.0680  140.2710 O   0  0  0  0  0  0  0  0  0  0  0  0
  182.0480  181.5120  138.8640 O   0  0  0  0  0  0  0  0  0  0  0  0
  180.5600  181.4100  138.6640 S   0  0  0  0  0  0  0  0  0  0  0  0
  180.2500  180.2300  137.7870 O   0  0  0  0  0  0  0  0  0  0  0  0
  179.9720  182.8840  137.8450 C   0  0  0  0  0  2  0  0  0  0  0  0
  181.1650  184.9660  137.1860 C   0  0  0  0  0  1  0  0  0  0  0  0
  180.6870  183.2260  135.5010 C   0  0  0  0  0  1  0  0  0  0  0  0
  181.0470  183.4720  136.9490 C   0  0  0  0  0  3  0  0  0  0  0  0
  1 11  1  0  0  0  0
  3 17  2  0  0  0  0
  4  2  1  6  0  0  0
  4 19  1  0  0  0  0
  4  6  1  0  0  0  0
  5  7  1  0  0  0  0
  6 16  1  0  0  0  0
  7 20  1  0  0  0  0
  7 13  2  0  0  0  0
  8  3  1  0  0  0  0
  8  2  2  0  0  0  0
  9  5  1  0  0  0  0
 10  1  2  0  0  0  0
 12  6  2  0  0  0  0
 12 15  1  0  0  0  0
 13 11  1  0  0  0  0
 14  3  1  0  0  0  0
 15 18  2  0  0  0  0
 16  5  2  0  0  0  0
 16 10  1  0  0  0  0
 18 10  1  0  0  0  0
 19 17  1  6  0  0  0
 19  9  1  0  0  0  0
 20 22  1  0  0  0  0
 21 24  1  0  0  0  0
 21 23  2  0  0  0  0
 22 21  1  0  0  0  0
 25 24  1  0  0  0  0
 25 26  1  0  0  0  0
 27 25  1  0  0  0  0
 28 15  1  0  0  0  0
 29 28  1  6  0  0  0
 30 33  1  6  0  0  0
 30 31  1  0  0  0  0
 30 29  1  0  0  0  0
 31 29  1  0  0  0  0
 33 32  2  0  0  0  0
 34 33  2  0  0  0  0
 35 33  1  0  0  0  0
 37 38  1  0  0  0  0
 38 36  1  0  0  0  0
 38 35  1  0  0  0  0
M  END
>  <MODEL>
6

>  <REMARK>
 VINA RESULT:      -8.4      1.587      4.076
  Name = 
  9 active torsions:
  status: ('A' for Active; 'I' for Inactive)
    1  A    between atoms: N_6  and  C_14
    2  A    between atoms: C_9  and  C_17
    3  A    between atoms: S_10  and  C_31
    4  A    between atoms: S_10  and  C_33
    5  A    between atoms: C_11  and  C_14
    6  A    between atoms: N_15  and  C_17
    7  A    between atoms: C_16  and  N_28
    8  A    between atoms: N_28  and  C_29
    9  A    between atoms: C_33  and  C_34
                            x       y       z     vdW  Elec       q    Type
                         _______ _______ _______ _____ _____    ______ ____

>  <TORSDO>
F 9

$$$$
=
 OpenBabel10222416273D

 38 42  0  0  1  0  0  0  0  0999 V2000
  184.6590  178.9130  145.3620 C   0  0  0  0  0  3  0  0  0  0  0  0
  185.1120  178.5050  139.0860 C   0  0  0  0  0  3  0  0  0  0  0  0
  187.3880  178.0010  138.3430 C   0  0  0  0  0  0  0  0  0  0  0  0
  185.6030  178.5300  140.4830 C   0  0  2  0  0  3  0  0  0  0  0  0
  186.6260  178.1680  143.0630 C   0  0  0  0  0  0  0  0  0  0  0  0
  184.7810  178.5190  141.5530 C   0  0  0  0  0  0  0  0  0  0  0  0
  187.3090  177.7360  144.3130 C   0  0  0  0  0  0  0  0  0  0  0  0
  185.9610  178.2680  138.0820 C   0  0  0  0  0  3  0  0  0  0  0  0
  187.4550  178.1330  141.9310 O   0  0  0  0  0  0  0  0  0  0  0  0
  184.3580  178.6110  143.9620 C   0  0  0  0  0  0  0  0  0  0  0  0
  185.7600  178.6720  146.0470 C   0  0  0  0  0  2  0  0  0  0  0  0
  183.3970  178.5690  141.3350 C   0  0  0  0  0  3  0  0  0  0  0  0
  186.9480  177.9950  145.5620 C   0  0  0  0  0  3  0  0  0  0  0  0
  188.2030  177.5590  137.3100 O   0  0  0  0  0  1  0  0  0  0  0  0
  182.5040  178.6270  142.3890 C   0  0  0  0  0  0  0  0  0  0  0  0
  185.2950  178.4530  142.8960 C   0  0  0  0  0  0  0  0  0  0  0  0
  187.9000  178.1550  139.5700 C   0  0  0  0  0  3  0  0  0  0  0  0
  182.9930  178.6870  143.6870 C   0  0  0  0  0  3  0  0  0  0  0  0
  187.0740  178.7100  140.6980 C   0  0  1  0  0  3  0  0  0  0  0  0
  188.5990  176.9820  144.1870 C   0  0  0  0  0  2  0  0  0  0  0  0
  190.5150  177.1160  145.8440 C   0  0  0  0  0  0  0  0  0  0  0  0
  189.1800  176.7430  145.5030 N   0  0  0  0  0  2  0  0  0  0  0  0
  191.2980  177.5660  144.9670 O   0  0  0  0  0  0  0  0  0  0  0  0
  190.9760  177.0090  147.2700 C   0  0  0  0  0  2  0  0  0  0  0  0
  191.7040  175.7670  147.5740 N   0  0  0  0  0  0  0  0  0  0  0  0
  192.2470  175.1850  146.3540 C   0  0  0  0  0  1  0  0  0  0  0  0
  192.8100  176.0420  148.4770 C   0  0  0  0  0  1  0  0  0  0  0  0
  181.1020  178.7060  142.1210 N   0  0  0  0  0  2  0  0  0  0  0  0
  180.2820  179.8430  142.5270 C   0  0  1  0  0  3  0  0  0  0  0  0
  179.5660  180.5080  141.3960 C   0  0  2  0  0  3  0  0  0  0  0  0
  178.9310  179.5760  142.2400 O   0  0  0  0  0  0  0  0  0  0  0  0
  178.9330  180.5470  138.7570 O   0  0  0  0  0  0  0  0  0  0  0  0
  179.7730  179.7970  139.7550 S   0  0  0  0  0  0  0  0  0  0  0  0
  181.2160  179.8470  139.3380 O   0  0  0  0  0  0  0  0  0  0  0  0
  179.2620  178.0860  139.7880 C   0  0  0  0  0  2  0  0  0  0  0  0
  179.6370  176.7180  137.7420 C   0  0  0  0  0  1  0  0  0  0  0  0
  180.6200  176.0190  139.8970 C   0  0  0  0  0  1  0  0  0  0  0  0
  180.2500  177.2100  139.0390 C   0  0  0  0  0  3  0  0  0  0  0  0
  1 11  1  0  0  0  0
  3 17  2  0  0  0  0
  4  2  1  6  0  0  0
  4 19  1  0  0  0  0
  4  6  1  0  0  0  0
  5  7  1  0  0  0  0
  6 16  1  0  0  0  0
  7 13  2  0  0  0  0
  8  3  1  0  0  0  0
  8  2  2  0  0  0  0
  9  5  1  0  0  0  0
 10  1  2  0  0  0  0
 12  6  2  0  0  0  0
 12 15  1  0  0  0  0
 13 11  1  0  0  0  0
 14  3  1  0  0  0  0
 15 18  2  0  0  0  0
 16  5  2  0  0  0  0
 16 10  1  0  0  0  0
 18 10  1  0  0  0  0
 19 17  1  6  0  0  0
 19  9  1  0  0  0  0
 20  7  1  0  0  0  0
 20 22  1  0  0  0  0
 21 24  1  0  0  0  0
 22 21  1  0  0  0  0
 23 21  2  0  0  0  0
 24 25  1  0  0  0  0
 25 27  1  0  0  0  0
 26 25  1  0  0  0  0
 28 15  1  0  0  0  0
 29 28  1  6  0  0  0
 30 33  1  6  0  0  0
 30 31  1  0  0  0  0
 30 29  1  0  0  0  0
 31 29  1  0  0  0  0
 32 33  2  0  0  0  0
 33 35  1  0  0  0  0
 34 33  2  0  0  0  0
 36 38  1  0  0  0  0
 38 35  1  0  0  0  0
 38 37  1  0  0  0  0
M  END
>  <MODEL>
7

>  <REMARK>
 VINA RESULT:      -8.4      2.688      4.929
  Name = 
  9 active torsions:
  status: ('A' for Active; 'I' for Inactive)
    1  A    between atoms: N_6  and  C_14
    2  A    between atoms: C_9  and  C_17
    3  A    between atoms: S_10  and  C_31
    4  A    between atoms: S_10  and  C_33
    5  A    between atoms: C_11  and  C_14
    6  A    between atoms: N_15  and  C_17
    7  A    between atoms: C_16  and  N_28
    8  A    between atoms: N_28  and  C_29
    9  A    between atoms: C_33  and  C_34
                            x       y       z     vdW  Elec       q    Type
                         _______ _______ _______ _____ _____    ______ ____

>  <TORSDO>
F 9

$$$$
=
 OpenBabel10222416273D

 38 42  0  0  1  0  0  0  0  0999 V2000
  183.9260  179.0010  145.4110 C   0  0  0  0  0  3  0  0  0  0  0  0
  185.1320  178.6490  139.2320 C   0  0  0  0  0  3  0  0  0  0  0  0
  187.4320  177.9530  138.7660 C   0  0  0  0  0  0  0  0  0  0  0  0
  185.4440  178.6080  140.6790 C   0  0  2  0  0  3  0  0  0  0  0  0
  186.0960  178.1170  143.3570 C   0  0  0  0  0  0  0  0  0  0  0  0
  184.4950  178.6550  141.6380 C   0  0  0  0  0  0  0  0  0  0  0  0
  186.5750  177.6070  144.6690 C   0  0  0  0  0  0  0  0  0  0  0  0
  186.0780  178.3510  138.3360 C   0  0  0  0  0  3  0  0  0  0  0  0
  187.0550  178.0250  142.3360 O   0  0  0  0  0  0  0  0  0  0  0  0
  183.7790  178.7480  143.9760 C   0  0  0  0  0  0  0  0  0  0  0  0
  184.9070  178.6520  146.2210 C   0  0  0  0  0  2  0  0  0  0  0  0
  183.1590  178.8320  141.2500 C   0  0  0  0  0  3  0  0  0  0  0  0
  186.0830  177.8790  145.8710 C   0  0  0  0  0  3  0  0  0  0  0  0
  188.3290  177.4550  137.8300 O   0  0  0  0  0  1  0  0  0  0  0  0
  182.1480  178.9540  142.1860 C   0  0  0  0  0  0  0  0  0  0  0  0
  184.8270  178.5230  143.0320 C   0  0  0  0  0  0  0  0  0  0  0  0
  187.7960  178.0420  140.0500 C   0  0  0  0  0  3  0  0  0  0  0  0
  182.4730  178.9510  143.5360 C   0  0  0  0  0  3  0  0  0  0  0  0
  186.8860  178.6520  141.0810 C   0  0  1  0  0  3  0  0  0  0  0  0
  187.8000  176.7420  144.6860 C   0  0  0  0  0  2  0  0  0  0  0  0
  189.3170  177.1180  146.6840 C   0  0  0  0  0  0  0  0  0  0  0  0
  188.8990  177.4280  145.3550 N   0  0  0  0  0  2  0  0  0  0  0  0
  188.6610  176.3070  147.3890 O   0  0  0  0  0  0  0  0  0  0  0  0
  190.5730  177.7330  147.2320 C   0  0  0  0  0  2  0  0  0  0  0  0
  191.8070  177.0400  146.8280 N   0  0  0  0  0  0  0  0  0  0  0  0
  192.0620  175.9050  147.7040 C   0  0  0  0  0  1  0  0  0  0  0  0
  191.6810  176.5450  145.4660 C   0  0  0  0  0  1  0  0  0  0  0  0
  180.8030  179.1630  141.7470 N   0  0  0  0  0  2  0  0  0  0  0  0
  179.8510  178.0710  141.5700 C   0  0  1  0  0  3  0  0  0  0  0  0
  179.3070  177.9630  140.1810 C   0  0  2  0  0  3  0  0  0  0  0  0
  180.3610  177.1480  140.6390 O   0  0  0  0  0  0  0  0  0  0  0  0
  178.9310  179.2810  137.8400 O   0  0  0  0  0  0  0  0  0  0  0  0
  179.9270  179.1270  138.9570 S   0  0  0  0  0  0  0  0  0  0  0  0
  180.1860  180.4670  139.5890 O   0  0  0  0  0  0  0  0  0  0  0  0
  181.4680  178.5160  138.2930 C   0  0  0  0  0  2  0  0  0  0  0  0
  181.2830  176.1610  137.5110 C   0  0  0  0  0  1  0  0  0  0  0  0
  182.2840  177.8780  136.0460 C   0  0  0  0  0  1  0  0  0  0  0  0
  181.2250  177.6180  137.0950 C   0  0  0  0  0  3  0  0  0  0  0  0
  1 11  1  0  0  0  0
  3 17  2  0  0  0  0
  4  2  1  6  0  0  0
  4 19  1  0  0  0  0
  4  6  1  0  0  0  0
  5  7  1  0  0  0  0
  6 16  1  0  0  0  0
  7 20  1  0  0  0  0
  7 13  2  0  0  0  0
  8  3  1  0  0  0  0
  8  2  2  0  0  0  0
  9  5  1  0  0  0  0
 10  1  2  0  0  0  0
 12  6  2  0  0  0  0
 12 15  1  0  0  0  0
 13 11  1  0  0  0  0
 14  3  1  0  0  0  0
 15 18  2  0  0  0  0
 16  5  2  0  0  0  0
 16 10  1  0  0  0  0
 18 10  1  0  0  0  0
 19 17  1  6  0  0  0
 19  9  1  0  0  0  0
 20 22  1  0  0  0  0
 21 24  1  0  0  0  0
 21 23  2  0  0  0  0
 22 21  1  0  0  0  0
 25 24  1  0  0  0  0
 25 26  1  0  0  0  0
 27 25  1  0  0  0  0
 28 15  1  0  0  0  0
 29 28  1  6  0  0  0
 30 33  1  6  0  0  0
 30 31  1  0  0  0  0
 30 29  1  0  0  0  0
 31 29  1  0  0  0  0
 32 33  2  0  0  0  0
 33 34  2  0  0  0  0
 35 33  1  0  0  0  0
 37 38  1  0  0  0  0
 38 36  1  0  0  0  0
 38 35  1  0  0  0  0
M  END
>  <MODEL>
8

>  <REMARK>
 VINA RESULT:      -8.2      2.806      4.927
  Name = 
  9 active torsions:
  status: ('A' for Active; 'I' for Inactive)
    1  A    between atoms: N_6  and  C_14
    2  A    between atoms: C_9  and  C_17
    3  A    between atoms: S_10  and  C_31
    4  A    between atoms: S_10  and  C_33
    5  A    between atoms: C_11  and  C_14
    6  A    between atoms: N_15  and  C_17
    7  A    between atoms: C_16  and  N_28
    8  A    between atoms: N_28  and  C_29
    9  A    between atoms: C_33  and  C_34
                            x       y       z     vdW  Elec       q    Type
                         _______ _______ _______ _____ _____    ______ ____

>  <TORSDO>
F 9

$$$$
=
 OpenBabel10222416273D

 38 42  0  0  1  0  0  0  0  0999 V2000
  189.4100  178.3670  138.1360 C   0  0  0  0  0  3  0  0  0  0  0  0
  184.9520  178.6500  142.5870 C   0  0  0  0  0  3  0  0  0  0  0  0
  182.6920  178.6590  141.6480 C   0  0  0  0  0  0  0  0  0  0  0  0
  185.4940  178.6350  141.2090 C   0  0  2  0  0  3  0  0  0  0  0  0
  186.3270  178.2300  138.5670 C   0  0  0  0  0  0  0  0  0  0  0  0
  186.7870  178.3670  140.9280 C   0  0  0  0  0  0  0  0  0  0  0  0
  186.5390  177.8190  137.1530 C   0  0  0  0  0  0  0  0  0  0  0  0
  183.6320  178.6750  142.7860 C   0  0  0  0  0  3  0  0  0  0  0  0
  184.9800  178.4600  138.8870 O   0  0  0  0  0  0  0  0  0  0  0  0
  188.6680  178.1480  139.3790 C   0  0  2  0  0  3  0  0  0  0  0  0
  188.9890  178.2750  136.8890 C   0  0  0  0  0  3  0  0  0  0  0  0
  187.6770  178.1740  141.9940 C   0  0  0  0  0  3  0  0  0  0  0  0
  187.6620  177.8850  136.4510 C   0  0  0  0  0  3  0  0  0  0  0  0
  181.3360  178.4800  141.8820 O   0  0  0  0  0  1  0  0  0  0  0  0
  189.0260  177.9610  141.7760 C   0  0  0  0  0  0  0  0  0  0  0  0
  187.2590  178.2720  139.5720 C   0  0  0  0  0  0  0  0  0  0  0  0
  183.1360  178.7910  140.3930 C   0  0  0  0  0  3  0  0  0  0  0  0
  189.5130  177.9890  140.4760 C   0  0  0  0  0  3  0  0  0  0  0  0
  184.5860  179.0700  140.1000 C   0  0  1  0  0  3  0  0  0  0  0  0
  185.3520  177.3380  136.3720 C   0  0  0  0  0  2  0  0  0  0  0  0
  183.2350  176.0630  136.9450 C   0  0  0  0  0  0  0  0  0  0  0  0
  184.6300  176.3160  137.1190 N   0  0  0  0  0  2  0  0  0  0  0  0
  182.5360  176.8110  136.2120 O   0  0  0  0  0  0  0  0  0  0  0  0
  182.6070  174.8720  137.6090 C   0  0  0  0  0  2  0  0  0  0  0  0
  181.2400  175.1100  138.1000 N   0  0  0  0  0  0  0  0  0  0  0  0
  180.4720  173.8720  138.0850 C   0  0  0  0  0  1  0  0  0  0  0  0
  181.2780  175.6050  139.4670 C   0  0  0  0  0  1  0  0  0  0  0  0
  189.9030  177.7980  142.8930 N   0  0  0  0  0  2  0  0  0  0  0  0
  190.6980  178.8930  143.4400 C   0  0  1  0  0  3  0  0  0  0  0  0
  191.4130  178.5470  144.7070 C   0  0  2  0  0  3  0  0  0  0  0  0
  192.0560  178.5270  143.4550 O   0  0  0  0  0  0  0  0  0  0  0  0
  191.6950  175.8820  144.2840 O   0  0  0  0  0  0  0  0  0  0  0  0
  191.2340  176.8660  145.3250 S   0  0  0  0  0  0  0  0  0  0  0  0
  192.0340  176.6790  146.5830 O   0  0  0  0  0  0  0  0  0  0  0  0
  189.5160  176.5600  145.7060 C   0  0  0  0  0  2  0  0  0  0  0  0
  188.9060  177.7140  147.8250 C   0  0  0  0  0  1  0  0  0  0  0  0
  187.4270  177.8780  145.8540 C   0  0  0  0  0  1  0  0  0  0  0  0
  188.8670  177.7910  146.3110 C   0  0  0  0  0  3  0  0  0  0  0  0
  2  8  2  0  0  0  0
  3 14  1  0  0  0  0
  3  8  1  0  0  0  0
  4  2  1  1  0  0  0
  5  9  1  0  0  0  0
  5 16  2  0  0  0  0
  6  4  1  0  0  0  0
  6 12  2  0  0  0  0
  7  5  1  0  0  0  0
  9 19  1  0  0  0  0
 10  1  1  1  0  0  0
 10 16  1  0  0  0  0
 10 18  1  0  0  0  0
 11  1  2  0  0  0  0
 13 11  1  0  0  0  0
 13  7  2  0  0  0  0
 15 12  1  0  0  0  0
 15 28  1  0  0  0  0
 16  6  1  0  0  0  0
 17  3  2  0  0  0  0
 18 15  2  0  0  0  0
 19 17  1  1  0  0  0
 19  4  1  0  0  0  0
 20 22  1  0  0  0  0
 20  7  1  0  0  0  0
 21 22  1  0  0  0  0
 21 24  1  0  0  0  0
 23 21  2  0  0  0  0
 24 25  1  0  0  0  0
 25 27  1  0  0  0  0
 26 25  1  0  0  0  0
 29 28  1  6  0  0  0
 29 31  1  0  0  0  0
 29 30  1  0  0  0  0
 30 33  1  6  0  0  0
 31 30  1  0  0  0  0
 32 33  2  0  0  0  0
 33 35  1  0  0  0  0
 33 34  2  0  0  0  0
 35 38  1  0  0  0  0
 37 38  1  0  0  0  0
 38 36  1  0  0  0  0
M  END
>  <MODEL>
9

>  <REMARK>
 VINA RESULT:      -8.2      4.073      9.244
  Name = 
  9 active torsions:
  status: ('A' for Active; 'I' for Inactive)
    1  A    between atoms: N_6  and  C_14
    2  A    between atoms: C_9  and  C_17
    3  A    between atoms: S_10  and  C_31
    4  A    between atoms: S_10  and  C_33
    5  A    between atoms: C_11  and  C_14
    6  A    between atoms: N_15  and  C_17
    7  A    between atoms: C_16  and  N_28
    8  A    between atoms: N_28  and  C_29
    9  A    between atoms: C_33  and  C_34
                            x       y       z     vdW  Elec       q    Type
                         _______ _______ _______ _____ _____    ______ ____

>  <TORSDO>
F 9

$$$$
