=
 OpenBabel10222416583D

 28 31  0  0  1  0  0  0  0  0999 V2000
  189.1800  178.0750  141.8090 N   0  0  0  0  0  0  0  0  0  0  0  0
  190.4780  177.1220  138.7570 C   0  0  0  0  0  0  0  0  0  0  0  0
  190.8280  177.4640  140.0030 C   0  0  0  0  0  3  0  0  0  0  0  0
  189.0420  177.4570  138.4150 C   0  0  1  0  0  3  0  0  0  0  0  0
  188.6400  178.1060  139.6850 C   0  0  0  0  0  0  0  0  0  0  0  0
  187.8310  178.0570  141.6360 C   0  0  0  0  0  0  0  0  0  0  0  0
  189.6590  178.1150  140.5590 C   0  0  0  0  0  0  0  0  0  0  0  0
  188.9870  178.4700  137.2840 C   0  0  0  0  0  1  0  0  0  0  0  0
  187.4610  178.0120  140.3310 N   0  0  0  0  0  0  0  0  0  0  0  0
  190.9070  176.5900  145.4970 C   0  0  2  0  0  3  0  0  0  0  0  0
  189.5370  175.3310  142.8210 C   0  0  0  0  0  1  0  0  0  0  0  0
  190.6040  176.4020  142.9650 C   0  0  1  0  0  3  0  0  0  0  0  0
  191.0680  178.0670  145.7010 C   0  0  1  0  0  3  0  0  0  0  0  0
  189.9550  177.8010  143.0190 C   0  0  1  0  0  3  0  0  0  0  0  0
  191.9440  177.1290  146.2830 O   0  0  0  0  0  0  0  0  0  0  0  0
  191.4860  176.0680  144.1750 C   0  0  0  0  0  2  0  0  0  0  0  0
  191.7890  178.7880  144.5580 C   0  0  0  0  0  2  0  0  0  0  0  0
  190.9110  178.9690  143.3160 C   0  0  0  0  0  2  0  0  0  0  0  0
  191.3650  176.4180  137.8710 C   0  0  0  0  0  0  0  0  0  0  0  0
  192.0790  175.8520  137.1600 N   0  0  0  0  0  0  0  0  0  0  0  0
  186.8410  177.9300  142.7490 C   0  0  0  0  0  2  0  0  0  0  0  0
  185.5350  178.6560  142.4290 C   0  0  2  0  0  3  0  0  0  0  0  0
  185.8100  179.7650  141.6270 O   0  0  0  0  0  0  0  0  0  0  0  0
  184.9670  179.6650  140.6200 O   0  0  0  0  0  1  0  0  0  0  0  0
  183.2510  178.8110  143.5450 C   0  0  0  0  0  1  0  0  0  0  0  0
  184.7380  179.1000  143.6650 C   0  0  1  0  0  3  0  0  0  0  0  0
  184.4710  178.9440  146.0610 O   0  0  0  0  0  1  0  0  0  0  0  0
  185.3190  178.6270  144.9980 C   0  0  0  0  0  2  0  0  0  0  0  0
  2  3  2  0  0  0  0
  3  7  1  0  0  0  0
  4  8  1  6  0  0  0
  4  2  1  0  0  0  0
  4  5  1  0  0  0  0
  5  9  1  0  0  0  0
  5  7  2  0  0  0  0
  6  1  1  0  0  0  0
  6 21  1  0  0  0  0
  7  1  1  0  0  0  0
  9  6  2  0  0  0  0
 10 16  1  6  0  0  0
 10 13  1  0  0  0  0
 10 15  1  0  0  0  0
 12 11  1  1  0  0  0
 12 14  1  0  0  0  0
 12 16  1  0  0  0  0
 13 17  1  6  0  0  0
 13 15  1  0  0  0  0
 14  1  1  6  0  0  0
 14 18  1  0  0  0  0
 18 17  1  0  0  0  0
 19  2  1  0  0  0  0
 20 19  3  0  0  0  0
 22 21  1  1  0  0  0
 22 26  1  0  0  0  0
 23 22  1  0  0  0  0
 24 23  1  0  0  0  0
 26 25  1  6  0  0  0
 26 28  1  0  0  0  0
 28 27  1  0  0  0  0
M  END
>  <MODEL>
1

>  <REMARK>
 VINA RESULT:      -7.3      0.000      0.000
  Name = 
  7 active torsions:
  status: ('A' for Active; 'I' for Inactive)
    1  A    between atoms: C_1  and  C_4
    2  A    between atoms: O_2  and  C_26
    3  A    between atoms: N_3  and  C_20
    4  A    between atoms: C_5  and  C_15
    5  A    between atoms: C_5  and  C_26
    6  A    between atoms: C_14  and  C_23
    7  A    between atoms: C_14  and  C_26
                            x       y       z     vdW  Elec       q    Type
                         _______ _______ _______ _____ _____    ______ ____

>  <TORSDO>
F 7

$$$$
=
 OpenBabel10222416583D

 28 31  0  0  1  0  0  0  0  0999 V2000
  188.9990  178.2980  141.6400 N   0  0  0  0  0  0  0  0  0  0  0  0
  190.3200  177.2600  138.6250 C   0  0  0  0  0  0  0  0  0  0  0  0
  190.6560  177.5890  139.8780 C   0  0  0  0  0  3  0  0  0  0  0  0
  188.9130  177.6690  138.2460 C   0  0  1  0  0  3  0  0  0  0  0  0
  188.5140  178.3460  139.5030 C   0  0  0  0  0  0  0  0  0  0  0  0
  187.6560  178.3510  141.4330 C   0  0  0  0  0  0  0  0  0  0  0  0
  189.5110  178.3050  140.4020 C   0  0  0  0  0  0  0  0  0  0  0  0
  188.9410  178.6770  137.1100 C   0  0  0  0  0  1  0  0  0  0  0  0
  187.3170  178.3190  140.1180 N   0  0  0  0  0  0  0  0  0  0  0  0
  190.5160  176.7820  145.4070 C   0  0  2  0  0  3  0  0  0  0  0  0
  189.0400  175.5740  142.7640 C   0  0  0  0  0  1  0  0  0  0  0  0
  190.2180  176.5260  142.8800 C   0  0  1  0  0  3  0  0  0  0  0  0
  190.8380  178.2390  145.5540 C   0  0  1  0  0  3  0  0  0  0  0  0
  189.7270  177.9890  142.8700 C   0  0  1  0  0  3  0  0  0  0  0  0
  191.5990  177.2350  146.1850 O   0  0  0  0  0  0  0  0  0  0  0  0
  191.0460  176.1460  144.1140 C   0  0  0  0  0  2  0  0  0  0  0  0
  191.6460  178.8290  144.3940 C   0  0  0  0  0  2  0  0  0  0  0  0
  190.8050  179.0560  143.1340 C   0  0  0  0  0  2  0  0  0  0  0  0
  191.1900  176.5040  137.7650 C   0  0  0  0  0  0  0  0  0  0  0  0
  191.8900  175.8970  137.0740 N   0  0  0  0  0  0  0  0  0  0  0  0
  186.6320  178.2830  142.5210 C   0  0  0  0  0  2  0  0  0  0  0  0
  185.4340  179.1840  142.2250 C   0  0  2  0  0  3  0  0  0  0  0  0
  185.0590  179.8500  143.3930 O   0  0  0  0  0  0  0  0  0  0  0  0
  185.4920  179.0800  144.3690 O   0  0  0  0  0  1  0  0  0  0  0  0
  182.9480  178.6750  142.4380 C   0  0  0  0  0  1  0  0  0  0  0  0
  184.2200  178.4470  141.6390 C   0  0  1  0  0  3  0  0  0  0  0  0
  184.5490  179.8750  139.7180 O   0  0  0  0  0  1  0  0  0  0  0  0
  184.0120  178.6570  140.1390 C   0  0  0  0  0  2  0  0  0  0  0  0
  2  3  2  0  0  0  0
  3  7  1  0  0  0  0
  4  8  1  6  0  0  0
  4  2  1  0  0  0  0
  4  5  1  0  0  0  0
  5  9  1  0  0  0  0
  5  7  2  0  0  0  0
  6  1  1  0  0  0  0
  6 21  1  0  0  0  0
  7  1  1  0  0  0  0
  9  6  2  0  0  0  0
 10 16  1  6  0  0  0
 10 13  1  0  0  0  0
 10 15  1  0  0  0  0
 12 11  1  1  0  0  0
 12 16  1  0  0  0  0
 13 17  1  6  0  0  0
 13 15  1  0  0  0  0
 14  1  1  6  0  0  0
 14 12  1  0  0  0  0
 14 18  1  0  0  0  0
 18 17  1  0  0  0  0
 19  2  1  0  0  0  0
 20 19  3  0  0  0  0
 22 21  1  1  0  0  0
 22 23  1  0  0  0  0
 23 24  1  0  0  0  0
 26 22  1  0  0  0  0
 26 25  1  1  0  0  0
 27 28  1  0  0  0  0
 28 26  1  0  0  0  0
M  END
>  <MODEL>
2

>  <REMARK>
 VINA RESULT:      -7.0      0.915      1.831
  Name = 
  7 active torsions:
  status: ('A' for Active; 'I' for Inactive)
    1  A    between atoms: C_1  and  C_4
    2  A    between atoms: O_2  and  C_26
    3  A    between atoms: N_3  and  C_20
    4  A    between atoms: C_5  and  C_15
    5  A    between atoms: C_5  and  C_26
    6  A    between atoms: C_14  and  C_23
    7  A    between atoms: C_14  and  C_26
                            x       y       z     vdW  Elec       q    Type
                         _______ _______ _______ _____ _____    ______ ____

>  <TORSDO>
F 7

$$$$
=
 OpenBabel10222416583D

 28 31  0  0  1  0  0  0  0  0999 V2000
  188.1140  177.9110  142.3130 N   0  0  0  0  0  0  0  0  0  0  0  0
  184.9920  178.5480  143.6370 C   0  0  0  0  0  0  0  0  0  0  0  0
  186.1690  177.9740  143.9130 C   0  0  0  0  0  3  0  0  0  0  0  0
  184.7980  178.8610  142.1680 C   0  0  1  0  0  3  0  0  0  0  0  0
  186.0670  178.3110  141.6380 C   0  0  0  0  0  0  0  0  0  0  0  0
  188.0980  178.4930  141.0830 C   0  0  0  0  0  0  0  0  0  0  0  0
  186.8170  177.8030  142.6290 C   0  0  0  0  0  0  0  0  0  0  0  0
  183.6260  178.0730  141.6080 C   0  0  0  0  0  1  0  0  0  0  0  0
  186.8470  178.8110  140.6610 N   0  0  0  0  0  0  0  0  0  0  0  0
  191.0950  176.5720  145.1610 C   0  0  2  0  0  3  0  0  0  0  0  0
  189.3180  175.2600  142.7650 C   0  0  0  0  0  1  0  0  0  0  0  0
  190.1290  176.5430  142.7940 C   0  0  1  0  0  3  0  0  0  0  0  0
  190.9910  178.0190  145.5420 C   0  0  1  0  0  3  0  0  0  0  0  0
  189.2420  177.7290  143.2270 C   0  0  1  0  0  3  0  0  0  0  0  0
  192.1740  177.2770  145.7280 O   0  0  0  0  0  0  0  0  0  0  0  0
  191.3690  176.3290  143.6710 C   0  0  0  0  0  2  0  0  0  0  0  0
  191.1870  178.9950  144.3770 C   0  0  0  0  0  2  0  0  0  0  0  0
  189.9730  179.0650  143.4450 C   0  0  0  0  0  2  0  0  0  0  0  0
  184.0510  178.9140  144.6610 C   0  0  0  0  0  0  0  0  0  0  0  0
  183.2950  179.2080  145.4850 N   0  0  0  0  0  0  0  0  0  0  0  0
  189.3210  178.9020  140.3280 C   0  0  0  0  0  2  0  0  0  0  0  0
  189.3350  178.3160  138.9160 C   0  0  2  0  0  3  0  0  0  0  0  0
  188.2620  178.8370  138.1910 O   0  0  0  0  0  0  0  0  0  0  0  0
  188.8080  179.7160  137.3750 O   0  0  0  0  0  1  0  0  0  0  0  0
  188.4250  176.2490  137.7400 C   0  0  0  0  0  1  0  0  0  0  0  0
  189.2930  176.7810  138.8680 C   0  0  1  0  0  3  0  0  0  0  0  0
  190.6630  174.9040  138.2080 O   0  0  0  0  0  1  0  0  0  0  0  0
  190.6630  176.1060  138.9200 C   0  0  0  0  0  2  0  0  0  0  0  0
  1  7  1  0  0  0  0
  2  3  2  0  0  0  0
  2 19  1  0  0  0  0
  4  8  1  6  0  0  0
  4  2  1  0  0  0  0
  5  4  1  0  0  0  0
  5  7  2  0  0  0  0
  6  1  1  0  0  0  0
  7  3  1  0  0  0  0
  9  6  2  0  0  0  0
  9  5  1  0  0  0  0
 10 16  1  6  0  0  0
 10 13  1  0  0  0  0
 10 15  1  0  0  0  0
 12 11  1  1  0  0  0
 12 14  1  0  0  0  0
 12 16  1  0  0  0  0
 13 17  1  6  0  0  0
 13 15  1  0  0  0  0
 14  1  1  6  0  0  0
 14 18  1  0  0  0  0
 18 17  1  0  0  0  0
 19 20  3  0  0  0  0
 21  6  1  0  0  0  0
 22 21  1  1  0  0  0
 23 22  1  0  0  0  0
 24 23  1  0  0  0  0
 26 25  1  6  0  0  0
 26 22  1  0  0  0  0
 26 28  1  0  0  0  0
 27 28  1  0  0  0  0
M  END
>  <MODEL>
3

>  <REMARK>
 VINA RESULT:      -6.9      2.457      5.528
  Name = 
  7 active torsions:
  status: ('A' for Active; 'I' for Inactive)
    1  A    between atoms: C_1  and  C_4
    2  A    between atoms: O_2  and  C_26
    3  A    between atoms: N_3  and  C_20
    4  A    between atoms: C_5  and  C_15
    5  A    between atoms: C_5  and  C_26
    6  A    between atoms: C_14  and  C_23
    7  A    between atoms: C_14  and  C_26
                            x       y       z     vdW  Elec       q    Type
                         _______ _______ _______ _____ _____    ______ ____

>  <TORSDO>
F 7

$$$$
=
 OpenBabel10222416583D

 28 31  0  0  1  0  0  0  0  0999 V2000
  188.0260  177.8240  142.2300 N   0  0  0  0  0  0  0  0  0  0  0  0
  184.9280  178.6010  143.5370 C   0  0  0  0  0  0  0  0  0  0  0  0
  186.0980  178.0250  143.8400 C   0  0  0  0  0  3  0  0  0  0  0  0
  184.7250  178.8200  142.0530 C   0  0  1  0  0  3  0  0  0  0  0  0
  185.9790  178.2140  141.5490 C   0  0  0  0  0  0  0  0  0  0  0  0
  188.0070  178.3240  140.9640 C   0  0  0  0  0  0  0  0  0  0  0  0
  186.7310  177.7590  142.5640 C   0  0  0  0  0  0  0  0  0  0  0  0
  183.5340  178.0170  141.5560 C   0  0  0  0  0  1  0  0  0  0  0  0
  186.7570  178.6360  140.5340 N   0  0  0  0  0  0  0  0  0  0  0  0
  190.9950  176.6370  145.1560 C   0  0  2  0  0  3  0  0  0  0  0  0
  189.1310  175.1800  142.9150 C   0  0  0  0  0  1  0  0  0  0  0  0
  189.9930  176.4260  142.8140 C   0  0  1  0  0  3  0  0  0  0  0  0
  190.9540  178.1160  145.4000 C   0  0  1  0  0  3  0  0  0  0  0  0
  189.1590  177.6820  143.1430 C   0  0  1  0  0  3  0  0  0  0  0  0
  192.1100  177.3470  145.6420 O   0  0  0  0  0  0  0  0  0  0  0  0
  191.2370  176.2450  143.6920 C   0  0  0  0  0  2  0  0  0  0  0  0
  191.1700  178.9700  144.1470 C   0  0  0  0  0  2  0  0  0  0  0  0
  189.9460  179.0020  143.2260 C   0  0  0  0  0  2  0  0  0  0  0  0
  184.0040  179.0490  144.5440 C   0  0  0  0  0  0  0  0  0  0  0  0
  183.2620  179.4090  145.3530 N   0  0  0  0  0  0  0  0  0  0  0  0
  189.2290  178.6620  140.1730 C   0  0  0  0  0  2  0  0  0  0  0  0
  189.6520  177.5060  139.2670 C   0  0  2  0  0  3  0  0  0  0  0  0
  191.0250  177.2920  139.4020 O   0  0  0  0  0  0  0  0  0  0  0  0
  191.1920  176.0160  139.1220 O   0  0  0  0  0  1  0  0  0  0  0  0
  188.1940  176.7850  137.3080 C   0  0  0  0  0  1  0  0  0  0  0  0
  189.3040  177.7060  137.7840 C   0  0  1  0  0  3  0  0  0  0  0  0
  187.7480  179.3720  136.9860 O   0  0  0  0  0  1  0  0  0  0  0  0
  189.0720  179.1600  137.3760 C   0  0  0  0  0  2  0  0  0  0  0  0
  1  7  1  0  0  0  0
  2  3  2  0  0  0  0
  2 19  1  0  0  0  0
  4  8  1  6  0  0  0
  4  2  1  0  0  0  0
  5  4  1  0  0  0  0
  5  7  2  0  0  0  0
  6  1  1  0  0  0  0
  7  3  1  0  0  0  0
  9  6  2  0  0  0  0
  9  5  1  0  0  0  0
 10 16  1  6  0  0  0
 10 13  1  0  0  0  0
 10 15  1  0  0  0  0
 12 11  1  1  0  0  0
 12 14  1  0  0  0  0
 12 16  1  0  0  0  0
 13 17  1  6  0  0  0
 13 15  1  0  0  0  0
 14  1  1  6  0  0  0
 14 18  1  0  0  0  0
 18 17  1  0  0  0  0
 19 20  3  0  0  0  0
 21  6  1  0  0  0  0
 22 23  1  0  0  0  0
 22 21  1  1  0  0  0
 24 23  1  0  0  0  0
 26 25  1  1  0  0  0
 26 22  1  0  0  0  0
 27 28  1  0  0  0  0
 28 26  1  0  0  0  0
M  END
>  <MODEL>
4

>  <REMARK>
 VINA RESULT:      -6.9      2.512      5.647
  Name = 
  7 active torsions:
  status: ('A' for Active; 'I' for Inactive)
    1  A    between atoms: C_1  and  C_4
    2  A    between atoms: O_2  and  C_26
    3  A    between atoms: N_3  and  C_20
    4  A    between atoms: C_5  and  C_15
    5  A    between atoms: C_5  and  C_26
    6  A    between atoms: C_14  and  C_23
    7  A    between atoms: C_14  and  C_26
                            x       y       z     vdW  Elec       q    Type
                         _______ _______ _______ _____ _____    ______ ____

>  <TORSDO>
F 7

$$$$
=
 OpenBabel10222416583D

 28 31  0  0  1  0  0  0  0  0999 V2000
  190.3350  177.1530  138.8290 N   0  0  0  0  0  0  0  0  0  0  0  0
  189.5700  177.0970  142.1940 C   0  0  0  0  0  0  0  0  0  0  0  0
  189.0280  177.2590  140.9810 C   0  0  0  0  0  3  0  0  0  0  0  0
  191.0820  177.1820  142.2000 C   0  0  1  0  0  3  0  0  0  0  0  0
  191.3100  177.4770  140.7660 C   0  0  0  0  0  0  0  0  0  0  0  0
  191.6680  176.8860  138.7690 C   0  0  0  0  0  0  0  0  0  0  0  0
  190.1450  177.5320  140.1000 C   0  0  0  0  0  0  0  0  0  0  0  0
  191.5440  178.3590  143.0420 C   0  0  0  0  0  1  0  0  0  0  0  0
  192.2920  177.0160  139.9680 N   0  0  0  0  0  0  0  0  0  0  0  0
  186.9170  176.9690  136.1710 C   0  0  2  0  0  3  0  0  0  0  0  0
  189.0370  179.2270  137.1850 C   0  0  0  0  0  1  0  0  0  0  0  0
  189.2750  177.8130  136.6830 C   0  0  1  0  0  3  0  0  0  0  0  0
  186.9650  175.5480  136.6440 C   0  0  1  0  0  3  0  0  0  0  0  0
  189.2880  176.8200  137.8640 C   0  0  1  0  0  3  0  0  0  0  0  0
  186.4510  175.9010  135.3810 O   0  0  0  0  0  0  0  0  0  0  0  0
  188.2410  177.4890  135.5970 C   0  0  0  0  0  2  0  0  0  0  0  0
  188.3250  174.8670  136.4620 C   0  0  0  0  0  2  0  0  0  0  0  0
  189.3690  175.3310  137.4830 C   0  0  0  0  0  2  0  0  0  0  0  0
  188.7850  176.7770  143.3550 C   0  0  0  0  0  0  0  0  0  0  0  0
  188.1530  176.5200  144.2880 N   0  0  0  0  0  0  0  0  0  0  0  0
  192.3650  176.3430  137.5630 C   0  0  0  0  0  2  0  0  0  0  0  0
  193.5580  175.4680  137.9460 C   0  0  2  0  0  3  0  0  0  0  0  0
  194.7060  175.9540  137.3180 O   0  0  0  0  0  0  0  0  0  0  0  0
  194.2590  176.7990  136.4130 O   0  0  0  0  0  1  0  0  0  0  0  0
  192.5250  173.7440  136.3820 C   0  0  0  0  0  1  0  0  0  0  0  0
  193.3800  173.9780  137.6160 C   0  0  1  0  0  3  0  0  0  0  0  0
  195.1950  172.9970  138.8730 O   0  0  0  0  0  1  0  0  0  0  0  0
  194.6800  173.1750  137.5870 C   0  0  0  0  0  2  0  0  0  0  0  0
  1  7  1  0  0  0  0
  2  4  1  0  0  0  0
  2 19  1  0  0  0  0
  3  2  2  0  0  0  0
  4  8  1  1  0  0  0
  5  4  1  0  0  0  0
  6  1  1  0  0  0  0
  6  9  2  0  0  0  0
  7  5  2  0  0  0  0
  7  3  1  0  0  0  0
  9  5  1  0  0  0  0
 10 16  1  6  0  0  0
 10 13  1  0  0  0  0
 12 11  1  1  0  0  0
 12 14  1  0  0  0  0
 13 17  1  6  0  0  0
 14 18  1  6  0  0  0
 14  1  1  0  0  0  0
 15 10  1  0  0  0  0
 15 13  1  0  0  0  0
 16 12  1  0  0  0  0
 17 18  1  0  0  0  0
 19 20  3  0  0  0  0
 21  6  1  0  0  0  0
 22 21  1  6  0  0  0
 23 22  1  0  0  0  0
 24 23  1  0  0  0  0
 26 25  1  6  0  0  0
 26 22  1  0  0  0  0
 28 26  1  0  0  0  0
 28 27  1  0  0  0  0
M  END
>  <MODEL>
5

>  <REMARK>
 VINA RESULT:      -6.6      4.109      8.468
  Name = 
  7 active torsions:
  status: ('A' for Active; 'I' for Inactive)
    1  A    between atoms: C_1  and  C_4
    2  A    between atoms: O_2  and  C_26
    3  A    between atoms: N_3  and  C_20
    4  A    between atoms: C_5  and  C_15
    5  A    between atoms: C_5  and  C_26
    6  A    between atoms: C_14  and  C_23
    7  A    between atoms: C_14  and  C_26
                            x       y       z     vdW  Elec       q    Type
                         _______ _______ _______ _____ _____    ______ ____

>  <TORSDO>
F 7

$$$$
=
 OpenBabel10222416583D

 28 31  0  0  1  0  0  0  0  0999 V2000
  189.2850  177.9230  141.4120 N   0  0  0  0  0  0  0  0  0  0  0  0
  190.2370  177.1650  138.1830 C   0  0  0  0  0  0  0  0  0  0  0  0
  190.6960  177.2420  139.4380 C   0  0  0  0  0  3  0  0  0  0  0  0
  188.8980  177.8430  137.9820 C   0  0  1  0  0  3  0  0  0  0  0  0
  188.6920  178.3730  139.3500 C   0  0  0  0  0  0  0  0  0  0  0  0
  187.9590  178.2170  141.3260 C   0  0  0  0  0  0  0  0  0  0  0  0
  189.7180  178.0400  140.1500 C   0  0  0  0  0  0  0  0  0  0  0  0
  189.0290  178.9970  137.0020 C   0  0  0  0  0  1  0  0  0  0  0  0
  187.5450  178.4400  140.0520 N   0  0  0  0  0  0  0  0  0  0  0  0
  191.9040  176.9030  144.7110 C   0  0  2  0  0  3  0  0  0  0  0  0
  190.3540  179.5540  143.6220 C   0  0  0  0  0  1  0  0  0  0  0  0
  189.8490  178.1350  143.8200 C   0  0  1  0  0  3  0  0  0  0  0  0
  191.8220  175.5780  144.0140 C   0  0  1  0  0  3  0  0  0  0  0  0
  190.0210  177.3190  142.5220 C   0  0  1  0  0  3  0  0  0  0  0  0
  192.0440  175.6830  145.4020 O   0  0  0  0  0  0  0  0  0  0  0  0
  190.5430  177.5260  145.0450 C   0  0  0  0  0  2  0  0  0  0  0  0
  190.3930  175.0800  143.7700 C   0  0  0  0  0  2  0  0  0  0  0  0
  189.6890  175.8200  142.6280 C   0  0  0  0  0  2  0  0  0  0  0  0
  190.9170  176.4230  137.1560 C   0  0  0  0  0  0  0  0  0  0  0  0
  191.4640  175.8260  136.3310 N   0  0  0  0  0  0  0  0  0  0  0  0
  187.0040  178.1450  142.4730 C   0  0  0  0  0  2  0  0  0  0  0  0
  185.5740  178.4630  142.0380 C   0  0  2  0  0  3  0  0  0  0  0  0
  185.5120  179.7840  141.5910 O   0  0  0  0  0  0  0  0  0  0  0  0
  184.9830  179.7040  140.3870 O   0  0  0  0  0  1  0  0  0  0  0  0
  185.0730  178.3970  144.5340 C   0  0  0  0  0  1  0  0  0  0  0  0
  184.5160  178.2380  143.1290 C   0  0  1  0  0  3  0  0  0  0  0  0
  182.4290  178.4360  141.9280 O   0  0  0  0  0  1  0  0  0  0  0  0
  183.2170  179.0170  142.9250 C   0  0  0  0  0  2  0  0  0  0  0  0
  2  3  2  0  0  0  0
  3  7  1  0  0  0  0
  4  8  1  6  0  0  0
  4  2  1  0  0  0  0
  4  5  1  0  0  0  0
  5  9  1  0  0  0  0
  5  7  2  0  0  0  0
  6  1  1  0  0  0  0
  6 21  1  0  0  0  0
  7  1  1  0  0  0  0
  9  6  2  0  0  0  0
 10 16  1  1  0  0  0
 10 15  1  0  0  0  0
 12 11  1  6  0  0  0
 12 16  1  0  0  0  0
 13 17  1  1  0  0  0
 13 10  1  0  0  0  0
 13 15  1  0  0  0  0
 14  1  1  6  0  0  0
 14 18  1  0  0  0  0
 14 12  1  0  0  0  0
 18 17  1  0  0  0  0
 19  2  1  0  0  0  0
 20 19  3  0  0  0  0
 22 21  1  1  0  0  0
 22 26  1  0  0  0  0
 23 22  1  0  0  0  0
 24 23  1  0  0  0  0
 26 25  1  1  0  0  0
 27 28  1  0  0  0  0
 28 26  1  0  0  0  0
M  END
>  <MODEL>
6

>  <REMARK>
 VINA RESULT:      -6.5      1.191      1.989
  Name = 
  7 active torsions:
  status: ('A' for Active; 'I' for Inactive)
    1  A    between atoms: C_1  and  C_4
    2  A    between atoms: O_2  and  C_26
    3  A    between atoms: N_3  and  C_20
    4  A    between atoms: C_5  and  C_15
    5  A    between atoms: C_5  and  C_26
    6  A    between atoms: C_14  and  C_23
    7  A    between atoms: C_14  and  C_26
                            x       y       z     vdW  Elec       q    Type
                         _______ _______ _______ _____ _____    ______ ____

>  <TORSDO>
F 7

$$$$
=
 OpenBabel10222416583D

 28 31  0  0  1  0  0  0  0  0999 V2000
  185.7150  178.2340  142.4040 N   0  0  0  0  0  0  0  0  0  0  0  0
  182.4790  178.9000  141.4070 C   0  0  0  0  0  0  0  0  0  0  0  0
  183.2020  178.4220  142.4270 C   0  0  0  0  0  3  0  0  0  0  0  0
  183.2520  179.0020  140.1090 C   0  0  1  0  0  3  0  0  0  0  0  0
  184.5490  178.4440  140.5600 C   0  0  0  0  0  0  0  0  0  0  0  0
  186.4920  178.6430  141.3650 C   0  0  0  0  0  0  0  0  0  0  0  0
  184.4980  178.1090  141.8590 C   0  0  0  0  0  0  0  0  0  0  0  0
  182.6430  178.0940  139.0550 C   0  0  0  0  0  1  0  0  0  0  0  0
  185.7890  178.8440  140.2210 N   0  0  0  0  0  0  0  0  0  0  0  0
  186.4450  179.0800  146.5920 C   0  0  2  0  0  3  0  0  0  0  0  0
  184.3760  180.0720  144.2780 C   0  0  0  0  0  1  0  0  0  0  0  0
  184.8060  178.6700  144.6720 C   0  0  1  0  0  3  0  0  0  0  0  0
  187.5170  178.0640  146.3330 C   0  0  1  0  0  3  0  0  0  0  0  0
  186.0230  178.2270  143.8340 C   0  0  1  0  0  3  0  0  0  0  0  0
  186.9370  178.2350  147.6050 O   0  0  0  0  0  0  0  0  0  0  0  0
  185.0350  178.6280  146.1890 C   0  0  0  0  0  2  0  0  0  0  0  0
  187.0110  176.7530  145.7210 C   0  0  0  0  0  2  0  0  0  0  0  0
  186.6570  176.8840  144.2360 C   0  0  0  0  0  2  0  0  0  0  0  0
  181.1250  179.3570  141.5670 C   0  0  0  0  0  0  0  0  0  0  0  0
  180.0370  179.7250  141.6960 N   0  0  0  0  0  0  0  0  0  0  0  0
  187.9380  179.0020  141.4850 C   0  0  0  0  0  2  0  0  0  0  0  0
  188.8430  177.8220  141.1320 C   0  0  2  0  0  3  0  0  0  0  0  0
  189.6560  177.5210  142.2270 O   0  0  0  0  0  0  0  0  0  0  0  0
  189.5290  178.5580  143.0300 O   0  0  0  0  0  1  0  0  0  0  0  0
  190.9130  177.1100  139.8310 C   0  0  0  0  0  1  0  0  0  0  0  0
  189.7170  178.0450  139.8880 C   0  0  1  0  0  3  0  0  0  0  0  0
  188.9290  179.3780  138.0340 O   0  0  0  0  0  1  0  0  0  0  0  0
  188.9460  178.0880  138.5690 C   0  0  0  0  0  2  0  0  0  0  0  0
  2 19  1  0  0  0  0
  2  3  2  0  0  0  0
  4  8  1  6  0  0  0
  4  5  1  0  0  0  0
  4  2  1  0  0  0  0
  5  7  2  0  0  0  0
  6 21  1  0  0  0  0
  6  1  1  0  0  0  0
  7  1  1  0  0  0  0
  7  3  1  0  0  0  0
  9  5  1  0  0  0  0
  9  6  2  0  0  0  0
 10 16  1  6  0  0  0
 10 15  1  0  0  0  0
 12 11  1  6  0  0  0
 12 16  1  0  0  0  0
 13 17  1  6  0  0  0
 13 10  1  0  0  0  0
 13 15  1  0  0  0  0
 14  1  1  6  0  0  0
 14 18  1  0  0  0  0
 14 12  1  0  0  0  0
 18 17  1  0  0  0  0
 19 20  3  0  0  0  0
 22 21  1  1  0  0  0
 22 23  1  0  0  0  0
 23 24  1  0  0  0  0
 26 25  1  6  0  0  0
 26 22  1  0  0  0  0
 27 28  1  0  0  0  0
 28 26  1  0  0  0  0
M  END
>  <MODEL>
7

>  <REMARK>
 VINA RESULT:      -6.2      3.045      6.532
  Name = 
  7 active torsions:
  status: ('A' for Active; 'I' for Inactive)
    1  A    between atoms: C_1  and  C_4
    2  A    between atoms: O_2  and  C_26
    3  A    between atoms: N_3  and  C_20
    4  A    between atoms: C_5  and  C_15
    5  A    between atoms: C_5  and  C_26
    6  A    between atoms: C_14  and  C_23
    7  A    between atoms: C_14  and  C_26
                            x       y       z     vdW  Elec       q    Type
                         _______ _______ _______ _____ _____    ______ ____

>  <TORSDO>
F 7

$$$$
=
 OpenBabel10222416583D

 28 31  0  0  1  0  0  0  0  0999 V2000
  189.9430  176.4360  138.6140 N   0  0  0  0  0  0  0  0  0  0  0  0
  192.8170  176.2290  136.7150 C   0  0  0  0  0  0  0  0  0  0  0  0
  191.4890  176.0740  136.6570 C   0  0  0  0  0  3  0  0  0  0  0  0
  193.3590  176.3090  138.1270 C   0  0  1  0  0  3  0  0  0  0  0  0
  192.0960  176.1180  138.8780 C   0  0  0  0  0  0  0  0  0  0  0  0
  190.3640  176.8500  139.8400 C   0  0  0  0  0  0  0  0  0  0  0  0
  191.0590  175.9720  138.0370 C   0  0  0  0  0  0  0  0  0  0  0  0
  194.2980  175.1460  138.4020 C   0  0  0  0  0  1  0  0  0  0  0  0
  191.7050  176.7250  140.0140 N   0  0  0  0  0  0  0  0  0  0  0  0
  186.2420  178.0220  137.0100 C   0  0  2  0  0  3  0  0  0  0  0  0
  189.2210  179.1460  137.7070 C   0  0  0  0  0  1  0  0  0  0  0  0
  188.7950  177.8920  136.9630 C   0  0  1  0  0  3  0  0  0  0  0  0
  185.8440  176.5960  137.2440 C   0  0  1  0  0  3  0  0  0  0  0  0
  188.6730  176.7040  137.9400 C   0  0  1  0  0  3  0  0  0  0  0  0
  185.2530  177.3840  136.2360 O   0  0  0  0  0  0  0  0  0  0  0  0
  187.5160  178.1920  136.1710 C   0  0  0  0  0  2  0  0  0  0  0  0
  186.7740  175.5650  136.5970 C   0  0  0  0  0  2  0  0  0  0  0  0
  188.1020  175.4060  137.3440 C   0  0  0  0  0  2  0  0  0  0  0  0
  193.6270  176.3980  135.5390 C   0  0  0  0  0  0  0  0  0  0  0  0
  194.2790  176.5340  134.5940 N   0  0  0  0  0  0  0  0  0  0  0  0
  189.4900  177.5300  140.8450 C   0  0  0  0  0  2  0  0  0  0  0  0
  189.8840  177.1620  142.2750 C   0  0  2  0  0  3  0  0  0  0  0  0
  189.3260  175.9260  142.6040 O   0  0  0  0  0  0  0  0  0  0  0  0
  190.3550  175.1750  142.9390 O   0  0  0  0  0  1  0  0  0  0  0  0
  188.4520  177.6810  144.3160 C   0  0  0  0  0  1  0  0  0  0  0  0
  189.4820  178.2060  143.3290 C   0  0  1  0  0  3  0  0  0  0  0  0
  191.6020  177.9650  144.4630 O   0  0  0  0  0  1  0  0  0  0  0  0
  190.6570  178.8940  144.0220 C   0  0  0  0  0  2  0  0  0  0  0  0
  1  6  1  0  0  0  0
  2  4  1  0  0  0  0
  3  2  2  0  0  0  0
  3  7  1  0  0  0  0
  4  8  1  6  0  0  0
  4  5  1  0  0  0  0
  5  9  1  0  0  0  0
  6  9  2  0  0  0  0
  6 21  1  0  0  0  0
  7  1  1  0  0  0  0
  7  5  2  0  0  0  0
 10 16  1  6  0  0  0
 10 13  1  0  0  0  0
 12 11  1  1  0  0  0
 12 14  1  0  0  0  0
 13 17  1  6  0  0  0
 14 18  1  6  0  0  0
 14  1  1  0  0  0  0
 15 10  1  0  0  0  0
 15 13  1  0  0  0  0
 16 12  1  0  0  0  0
 17 18  1  0  0  0  0
 19  2  1  0  0  0  0
 20 19  3  0  0  0  0
 22 21  1  6  0  0  0
 22 23  1  0  0  0  0
 22 26  1  0  0  0  0
 23 24  1  0  0  0  0
 26 28  1  0  0  0  0
 26 25  1  1  0  0  0
 28 27  1  0  0  0  0
M  END
>  <MODEL>
8

>  <REMARK>
 VINA RESULT:      -6.1      2.943      6.338
  Name = 
  7 active torsions:
  status: ('A' for Active; 'I' for Inactive)
    1  A    between atoms: C_1  and  C_4
    2  A    between atoms: O_2  and  C_26
    3  A    between atoms: N_3  and  C_20
    4  A    between atoms: C_5  and  C_15
    5  A    between atoms: C_5  and  C_26
    6  A    between atoms: C_14  and  C_23
    7  A    between atoms: C_14  and  C_26
                            x       y       z     vdW  Elec       q    Type
                         _______ _______ _______ _____ _____    ______ ____

>  <TORSDO>
F 7

$$$$
=
 OpenBabel10222416583D

 28 31  0  0  1  0  0  0  0  0999 V2000
  186.0150  178.2760  142.4330 N   0  0  0  0  0  0  0  0  0  0  0  0
  182.8300  178.6730  141.1640 C   0  0  0  0  0  0  0  0  0  0  0  0
  183.5030  178.2310  142.2340 C   0  0  0  0  0  3  0  0  0  0  0  0
  183.7010  178.8870  139.9450 C   0  0  1  0  0  3  0  0  0  0  0  0
  185.0000  178.4370  140.4970 C   0  0  0  0  0  0  0  0  0  0  0  0
  186.8370  178.7880  141.4780 C   0  0  0  0  0  0  0  0  0  0  0  0
  184.8670  178.0570  141.7780 C   0  0  0  0  0  0  0  0  0  0  0  0
  183.2750  177.9610  138.8180 C   0  0  0  0  0  1  0  0  0  0  0  0
  186.2220  178.9600  140.2810 N   0  0  0  0  0  0  0  0  0  0  0  0
  186.3850  179.0730  146.6780 C   0  0  2  0  0  3  0  0  0  0  0  0
  184.5430  180.1180  144.2010 C   0  0  0  0  0  1  0  0  0  0  0  0
  184.9160  178.7060  144.6170 C   0  0  1  0  0  3  0  0  0  0  0  0
  187.4610  178.0430  146.5030 C   0  0  1  0  0  3  0  0  0  0  0  0
  186.1950  178.2520  143.8850 C   0  0  1  0  0  3  0  0  0  0  0  0
  186.7730  178.2120  147.7220 O   0  0  0  0  0  0  0  0  0  0  0  0
  185.0100  178.6470  146.1470 C   0  0  0  0  0  2  0  0  0  0  0  0
  186.9910  176.7460  145.8360 C   0  0  0  0  0  2  0  0  0  0  0  0
  186.7720  176.8950  144.3270 C   0  0  0  0  0  2  0  0  0  0  0  0
  181.4300  178.9980  141.2120 C   0  0  0  0  0  0  0  0  0  0  0  0
  180.3050  179.2600  141.2510 N   0  0  0  0  0  0  0  0  0  0  0  0
  188.2270  179.2740  141.7370 C   0  0  0  0  0  2  0  0  0  0  0  0
  189.2600  178.1670  141.5280 C   0  0  2  0  0  3  0  0  0  0  0  0
  188.6820  177.1290  140.7960 O   0  0  0  0  0  0  0  0  0  0  0  0
  189.2990  177.1590  139.6330 O   0  0  0  0  0  1  0  0  0  0  0  0
  189.9420  176.0920  142.8380 C   0  0  0  0  0  1  0  0  0  0  0  0
  189.8600  177.6100  142.8280 C   0  0  1  0  0  3  0  0  0  0  0  0
  190.9390  179.4470  143.9670 O   0  0  0  0  0  1  0  0  0  0  0  0
  191.1710  178.2680  143.2570 C   0  0  0  0  0  2  0  0  0  0  0  0
  2 19  1  0  0  0  0
  2  3  2  0  0  0  0
  4  8  1  6  0  0  0
  4  5  1  0  0  0  0
  4  2  1  0  0  0  0
  5  7  2  0  0  0  0
  6 21  1  0  0  0  0
  6  1  1  0  0  0  0
  7  3  1  0  0  0  0
  7  1  1  0  0  0  0
  9  5  1  0  0  0  0
  9  6  2  0  0  0  0
 10 16  1  6  0  0  0
 10 15  1  0  0  0  0
 12 11  1  1  0  0  0
 12 16  1  0  0  0  0
 13 17  1  6  0  0  0
 13 10  1  0  0  0  0
 13 15  1  0  0  0  0
 14  1  1  6  0  0  0
 14 18  1  0  0  0  0
 14 12  1  0  0  0  0
 18 17  1  0  0  0  0
 19 20  3  0  0  0  0
 22 21  1  1  0  0  0
 22 26  1  0  0  0  0
 23 22  1  0  0  0  0
 24 23  1  0  0  0  0
 26 25  1  6  0  0  0
 26 28  1  0  0  0  0
 28 27  1  0  0  0  0
M  END
>  <MODEL>
9

>  <REMARK>
 VINA RESULT:      -6.1      2.824      6.090
  Name = 
  7 active torsions:
  status: ('A' for Active; 'I' for Inactive)
    1  A    between atoms: C_1  and  C_4
    2  A    between atoms: O_2  and  C_26
    3  A    between atoms: N_3  and  C_20
    4  A    between atoms: C_5  and  C_15
    5  A    between atoms: C_5  and  C_26
    6  A    between atoms: C_14  and  C_23
    7  A    between atoms: C_14  and  C_26
                            x       y       z     vdW  Elec       q    Type
                         _______ _______ _______ _____ _____    ______ ____

>  <TORSDO>
F 7

$$$$
