=
 OpenBabel10222415283D

 31 35  0  0  0  0  0  0  0  0999 V2000
  190.9700  177.5600  142.3130 N   0  0  0  0  0  0  0  0  0  0  0  0
  189.9930  177.2260  141.4390 C   0  0  0  0  0  0  0  0  0  0  0  0
  190.5230  177.1000  140.1690 C   0  0  0  0  0  0  0  0  0  0  0  0
  192.1330  177.6130  141.6230 C   0  0  0  0  0  3  0  0  0  0  0  0
  192.9420  177.0970  139.2700 C   0  0  0  0  0  1  0  0  0  0  0  0
  191.8870  177.3310  140.2930 C   0  0  0  0  0  0  0  0  0  0  0  0
  192.1190  176.0300  146.7090 C   0  0  0  0  0  0  0  0  0  0  0  0
  191.5080  176.8510  145.7690 C   0  0  0  0  0  0  0  0  0  0  0  0
  191.1860  178.1530  145.8820 N   0  0  0  0  0  0  0  0  0  0  0  0
  191.3710  176.4100  144.4890 C   0  0  0  0  0  0  0  0  0  0  0  0
  192.5150  174.7820  146.3180 N   0  0  0  0  0  2  0  0  0  0  0  0
  192.3780  174.3700  145.0170 C   0  0  0  0  0  3  0  0  0  0  0  0
  191.8250  175.1990  144.0850 N   0  0  0  0  0  0  0  0  0  0  0  0
  192.3490  176.4720  148.0430 N   0  0  0  0  0  1  0  0  0  0  0  0
  190.8390  178.5460  144.6260 C   0  0  0  0  0  3  0  0  0  0  0  0
  190.9120  177.4690  143.7450 C   0  0  0  0  0  0  0  0  0  0  0  0
  189.0170  178.5940  138.0330 C   0  0  0  0  0  2  0  0  0  0  0  0
  189.8510  176.5100  139.0460 N   0  0  0  0  0  0  0  0  0  0  0  0
  188.2080  178.7640  136.7580 C   0  0  0  0  0  2  0  0  0  0  0  0
  188.6760  176.4580  136.9220 C   0  0  0  0  0  2  0  0  0  0  0  0
  189.2630  177.1490  138.0780 C   0  0  0  0  0  0  0  0  0  0  0  0
  188.2130  177.4990  135.9970 N   0  0  0  0  0  0  0  0  0  0  0  0
  186.8340  177.1980  135.5870 C   0  0  0  0  0  3  0  0  0  0  0  0
  185.8460  177.4810  136.7150 C   0  0  0  0  0  1  0  0  0  0  0  0
  186.6910  175.7280  135.2230 C   0  0  0  0  0  1  0  0  0  0  0  0
  188.6080  177.0820  141.7960 N   0  0  0  0  0  0  0  0  0  0  0  0
  188.2340  176.1920  142.8910 C   0  0  0  0  0  2  0  0  0  0  0  0
  187.6600  177.0360  144.0350 C   0  0  0  0  0  2  0  0  0  0  0  0
  186.5500  177.8610  143.5420 N   0  0  0  0  0  2  0  0  0  0  0  0
  187.6030  178.0340  141.3320 C   0  0  0  0  0  2  0  0  0  0  0  0
  187.0500  178.7990  142.5370 C   0  0  0  0  0  2  0  0  0  0  0  0
  1 16  1  0  0  0  0
  2 26  1  0  0  0  0
  2  1  1  0  0  0  0
  3  6  1  0  0  0  0
  3  2  2  0  0  0  0
  4  1  1  0  0  0  0
  5  6  1  0  0  0  0
  6  4  2  0  0  0  0
  7 14  1  0  0  0  0
  8  9  1  0  0  0  0
  8  7  2  0  0  0  0
 10  8  1  0  0  0  0
 11  7  1  0  0  0  0
 12 11  1  0  0  0  0
 13 10  1  0  0  0  0
 13 12  2  0  0  0  0
 15  9  2  0  0  0  0
 16 10  2  0  0  0  0
 16 15  1  0  0  0  0
 17 21  1  0  0  0  0
 18  3  1  0  0  0  0
 19 17  1  0  0  0  0
 20 21  1  0  0  0  0
 21 18  2  0  0  0  0
 22 19  1  0  0  0  0
 22 20  1  0  0  0  0
 23 22  1  0  0  0  0
 23 24  1  0  0  0  0
 25 23  1  0  0  0  0
 26 27  1  0  0  0  0
 27 28  1  0  0  0  0
 29 28  1  0  0  0  0
 30 26  1  0  0  0  0
 30 31  1  0  0  0  0
 31 29  1  0  0  0  0
M  END
>  <MODEL>
1

>  <REMARK>
 VINA RESULT:      -6.9      0.000      0.000
  Name = 
  4 active torsions:
  status: ('A' for Active; 'I' for Inactive)
    1  A    between atoms: N_1  and  C_28
    2  A    between atoms: C_3  and  N_8
    3  A    between atoms: C_5  and  N_30
    4  A    between atoms: N_6  and  C_23
                            x       y       z     vdW  Elec       q    Type
                         _______ _______ _______ _____ _____    ______ ____

>  <TORSDO>
F 4

$$$$
=
 OpenBabel10222415283D

 31 35  0  0  1  0  0  0  0  0999 V2000
  190.8470  176.6120  139.8550 N   0  0  0  0  0  0  0  0  0  0  0  0
  189.6430  177.1560  139.5620 C   0  0  0  0  0  0  0  0  0  0  0  0
  189.0640  177.6590  140.7120 C   0  0  0  0  0  0  0  0  0  0  0  0
  191.0660  176.7940  141.1770 C   0  0  0  0  0  3  0  0  0  0  0  0
  189.9410  177.9900  143.1160 C   0  0  0  0  0  1  0  0  0  0  0  0
  189.9790  177.4410  141.7340 C   0  0  0  0  0  0  0  0  0  0  0  0
  192.8480  174.8110  135.8880 C   0  0  0  0  0  0  0  0  0  0  0  0
  192.7980  175.5550  137.0600 C   0  0  0  0  0  0  0  0  0  0  0  0
  193.4830  176.6730  137.3670 N   0  0  0  0  0  0  0  0  0  0  0  0
  191.8200  175.3010  137.9690 C   0  0  2  0  0  3  0  0  0  0  0  0
  191.9340  173.8090  135.7190 N   0  0  0  0  0  0  0  0  0  0  0  0
  190.9480  173.5850  136.6460 C   0  0  0  0  0  3  0  0  0  0  0  0
  190.8710  174.3530  137.7710 N   0  0  0  0  0  0  0  0  0  0  0  0
  193.8100  175.0850  134.8740 N   0  0  0  0  0  1  0  0  0  0  0  0
  192.9090  177.1410  138.5100 C   0  0  0  0  0  3  0  0  0  0  0  0
  191.8910  176.2840  138.9250 C   0  0  0  0  0  0  0  0  0  0  0  0
  186.8180  177.5270  142.7130 C   0  0  0  0  0  2  0  0  0  0  0  0
  187.9230  178.5280  140.7520 N   0  0  0  0  0  0  0  0  0  0  0  0
  185.5220  177.9520  143.3820 C   0  0  0  0  0  2  0  0  0  0  0  0
  185.9010  179.5180  141.6600 C   0  0  0  0  0  2  0  0  0  0  0  0
  186.9870  178.5290  141.6550 C   0  0  0  0  0  0  0  0  0  0  0  0
  185.1150  179.2770  142.8760 N   0  0  0  0  0  0  0  0  0  0  0  0
  183.6890  179.2210  142.5220 C   0  0  0  0  0  3  0  0  0  0  0  0
  182.8260  178.9200  143.7430 C   0  0  0  0  0  1  0  0  0  0  0  0
  183.4300  178.1190  141.5060 C   0  0  0  0  0  1  0  0  0  0  0  0
  189.0540  177.1500  138.2510 N   0  0  0  0  0  0  0  0  0  0  0  0
  187.8830  176.3200  137.9900 C   0  0  0  0  0  2  0  0  0  0  0  0
  186.6870  177.2340  137.6980 C   0  0  0  0  0  2  0  0  0  0  0  0
  187.0150  178.1520  136.5990 N   0  0  0  0  0  2  0  0  0  0  0  0
  189.3750  178.1850  137.2720 C   0  0  0  0  0  2  0  0  0  0  0  0
  188.1200  179.0200  137.0030 C   0  0  0  0  0  2  0  0  0  0  0  0
  1  4  1  0  0  0  0
  2  1  1  0  0  0  0
  2  3  2  0  0  0  0
  3 18  1  0  0  0  0
  3  6  1  0  0  0  0
  4  6  2  0  0  0  0
  6  5  1  0  0  0  0
  7  8  1  0  0  0  0
  8  9  2  0  0  0  0
  9 15  1  0  0  0  0
 10  8  1  6  0  0  0
 10 16  1  0  0  0  0
 11  7  2  0  0  0  0
 11 12  1  0  0  0  0
 12 13  2  0  0  0  0
 13 10  1  0  0  0  0
 14  7  1  0  0  0  0
 15 16  2  0  0  0  0
 16  1  1  0  0  0  0
 17 19  1  0  0  0  0
 18 21  2  0  0  0  0
 20 22  1  0  0  0  0
 21 20  1  0  0  0  0
 21 17  1  0  0  0  0
 22 19  1  0  0  0  0
 23 22  1  0  0  0  0
 23 24  1  0  0  0  0
 25 23  1  0  0  0  0
 26  2  1  0  0  0  0
 27 26  1  0  0  0  0
 28 27  1  0  0  0  0
 29 31  1  0  0  0  0
 29 28  1  0  0  0  0
 30 26  1  0  0  0  0
 31 30  1  0  0  0  0
M  END
>  <MODEL>
2

>  <REMARK>
 VINA RESULT:      -6.8      3.075      6.741
  Name = 
  4 active torsions:
  status: ('A' for Active; 'I' for Inactive)
    1  A    between atoms: N_1  and  C_28
    2  A    between atoms: C_3  and  N_8
    3  A    between atoms: C_5  and  N_30
    4  A    between atoms: N_6  and  C_23
                            x       y       z     vdW  Elec       q    Type
                         _______ _______ _______ _____ _____    ______ ____

>  <TORSDO>
F 4

$$$$
=
 OpenBabel10222415283D

 31 35  0  0  0  0  0  0  0  0999 V2000
  184.0020  178.8570  141.3260 N   0  0  0  0  0  0  0  0  0  0  0  0
  182.9910  178.6740  140.4450 C   0  0  0  0  0  0  0  0  0  0  0  0
  183.5010  178.5480  139.1660 C   0  0  0  0  0  0  0  0  0  0  0  0
  185.1610  178.8120  140.6310 C   0  0  0  0  0  3  0  0  0  0  0  0
  185.9020  178.3180  138.2510 C   0  0  0  0  0  1  0  0  0  0  0  0
  184.8820  178.6200  139.2920 C   0  0  0  0  0  0  0  0  0  0  0  0
  185.6190  178.5010  145.8250 C   0  0  0  0  0  0  0  0  0  0  0  0
  184.6650  178.6510  144.8270 C   0  0  0  0  0  0  0  0  0  0  0  0
  183.4920  179.3090  144.8860 N   0  0  0  0  0  0  0  0  0  0  0  0
  184.9720  178.2890  143.5520 C   0  0  0  0  0  0  0  0  0  0  0  0
  186.8210  177.9430  145.4920 N   0  0  0  0  0  2  0  0  0  0  0  0
  187.1090  177.6000  144.1950 C   0  0  0  0  0  3  0  0  0  0  0  0
  186.1880  177.7980  143.2090 N   0  0  0  0  0  0  0  0  0  0  0  0
  185.3710  178.9300  147.1600 N   0  0  0  0  0  1  0  0  0  0  0  0
  183.0490  179.3670  143.6000 C   0  0  0  0  0  3  0  0  0  0  0  0
  183.9370  178.7070  142.7530 C   0  0  0  0  0  0  0  0  0  0  0  0
  183.0230  175.6720  138.4150 C   0  0  0  0  0  2  0  0  0  0  0  0
  182.7650  178.0890  138.0230 N   0  0  0  0  0  0  0  0  0  0  0  0
  182.4690  174.5200  137.5940 C   0  0  0  0  0  2  0  0  0  0  0  0
  181.6490  176.4860  136.5820 C   0  0  0  0  0  2  0  0  0  0  0  0
  182.4880  176.8530  137.7310 C   0  0  0  0  0  0  0  0  0  0  0  0
  181.4670  175.0310  136.6400 N   0  0  0  0  0  0  0  0  0  0  0  0
  181.7520  174.4590  135.3160 C   0  0  0  0  0  3  0  0  0  0  0  0
  182.2840  173.0340  135.4300 C   0  0  0  0  0  1  0  0  0  0  0  0
  182.8120  175.2780  134.5940 C   0  0  0  0  0  1  0  0  0  0  0  0
  181.6000  178.6690  140.8050 N   0  0  0  0  0  0  0  0  0  0  0  0
  180.7910  179.8620  140.5760 C   0  0  0  0  0  2  0  0  0  0  0  0
  179.7380  179.5420  139.5080 C   0  0  0  0  0  2  0  0  0  0  0  0
  178.9530  178.3690  139.9130 N   0  0  0  0  0  2  0  0  0  0  0  0
  180.8920  177.4210  141.0810 C   0  0  0  0  0  2  0  0  0  0  0  0
  179.8320  177.2020  139.9990 C   0  0  0  0  0  2  0  0  0  0  0  0
  1 16  1  0  0  0  0
  2 26  1  0  0  0  0
  2  1  1  0  0  0  0
  3  6  1  0  0  0  0
  3  2  2  0  0  0  0
  4  1  1  0  0  0  0
  5  6  1  0  0  0  0
  6  4  2  0  0  0  0
  7 14  1  0  0  0  0
  8  9  1  0  0  0  0
  8  7  2  0  0  0  0
 10  8  1  0  0  0  0
 11  7  1  0  0  0  0
 12 11  1  0  0  0  0
 13 10  1  0  0  0  0
 13 12  2  0  0  0  0
 15  9  2  0  0  0  0
 16 10  2  0  0  0  0
 16 15  1  0  0  0  0
 18  3  1  0  0  0  0
 19 17  1  0  0  0  0
 20 22  1  0  0  0  0
 20 21  1  0  0  0  0
 21 18  2  0  0  0  0
 21 17  1  0  0  0  0
 22 19  1  0  0  0  0
 23 24  1  0  0  0  0
 23 22  1  0  0  0  0
 25 23  1  0  0  0  0
 26 30  1  0  0  0  0
 27 26  1  0  0  0  0
 28 29  1  0  0  0  0
 28 27  1  0  0  0  0
 29 31  1  0  0  0  0
 31 30  1  0  0  0  0
M  END
>  <MODEL>
3

>  <REMARK>
 VINA RESULT:      -6.6      4.611      7.145
  Name = 
  4 active torsions:
  status: ('A' for Active; 'I' for Inactive)
    1  A    between atoms: N_1  and  C_28
    2  A    between atoms: C_3  and  N_8
    3  A    between atoms: C_5  and  N_30
    4  A    between atoms: N_6  and  C_23
                            x       y       z     vdW  Elec       q    Type
                         _______ _______ _______ _____ _____    ______ ____

>  <TORSDO>
F 4

$$$$
=
 OpenBabel10222415283D

 31 35  0  0  0  0  0  0  0  0999 V2000
  187.6710  178.0330  141.0040 N   0  0  0  0  0  0  0  0  0  0  0  0
  188.9400  177.6350  141.2520 C   0  0  0  0  0  0  0  0  0  0  0  0
  189.6600  177.6030  140.0720 C   0  0  0  0  0  0  0  0  0  0  0  0
  187.5770  178.2950  139.6800 C   0  0  0  0  0  3  0  0  0  0  0  0
  189.1350  178.4010  137.6760 C   0  0  0  0  0  1  0  0  0  0  0  0
  188.7940  178.0390  139.0780 C   0  0  0  0  0  0  0  0  0  0  0  0
  183.3610  178.8060  142.9570 C   0  0  0  0  0  0  0  0  0  0  0  0
  184.7490  178.7660  142.9180 C   0  0  0  0  0  0  0  0  0  0  0  0
  185.6060  178.5630  143.9360 N   0  0  0  0  0  2  0  0  0  0  0  0
  185.3810  178.7190  141.7140 C   0  0  0  0  0  0  0  0  0  0  0  0
  182.6820  178.8490  141.7720 N   0  0  0  0  0  0  0  0  0  0  0  0
  183.3440  178.7840  140.5720 C   0  0  0  0  0  3  0  0  0  0  0  0
  184.7050  178.6920  140.5390 N   0  0  0  0  0  0  0  0  0  0  0  0
  182.6520  178.7860  144.1910 N   0  0  0  0  0  1  0  0  0  0  0  0
  186.8210  178.3760  143.3490 C   0  0  0  0  0  3  0  0  0  0  0  0
  186.7130  178.5030  141.9650 C   0  0  0  0  0  0  0  0  0  0  0  0
  191.1520  175.6730  138.3080 C   0  0  0  0  0  2  0  0  0  0  0  0
  191.0870  177.4820  139.9770 N   0  0  0  0  0  0  0  0  0  0  0  0
  192.3690  175.0130  137.6810 C   0  0  0  0  0  2  0  0  0  0  0  0
  193.2080  176.7170  139.0780 C   0  0  0  0  0  2  0  0  0  0  0  0
  191.7410  176.7070  139.1650 C   0  0  0  0  0  0  0  0  0  0  0  0
  193.5740  175.8070  137.9870 N   0  0  0  0  0  0  0  0  0  0  0  0
  194.6250  174.8930  138.4570 C   0  0  0  0  0  3  0  0  0  0  0  0
  195.3350  175.4500  139.6870 C   0  0  0  0  0  1  0  0  0  0  0  0
  195.6820  174.6900  137.3810 C   0  0  0  0  0  1  0  0  0  0  0  0
  189.4250  177.2550  142.5500 N   0  0  0  0  0  0  0  0  0  0  0  0
  189.4250  175.8480  142.9380 C   0  0  0  0  0  2  0  0  0  0  0  0
  190.8780  175.3810  143.0920 C   0  0  0  0  0  2  0  0  0  0  0  0
  191.5870  176.2520  144.0380 N   0  0  0  0  0  2  0  0  0  0  0  0
  190.2200  178.1740  143.3610 C   0  0  0  0  0  2  0  0  0  0  0  0
  191.6370  177.6120  143.5030 C   0  0  0  0  0  2  0  0  0  0  0  0
  1  2  1  0  0  0  0
  1 16  1  0  0  0  0
  2 26  1  0  0  0  0
  3  2  2  0  0  0  0
  4  1  1  0  0  0  0
  5  6  1  0  0  0  0
  6  4  2  0  0  0  0
  6  3  1  0  0  0  0
  7 14  1  0  0  0  0
  8  7  1  0  0  0  0
  8  9  1  0  0  0  0
 10 16  1  0  0  0  0
 10  8  2  0  0  0  0
 11  7  2  0  0  0  0
 12 11  1  0  0  0  0
 13 12  2  0  0  0  0
 13 10  1  0  0  0  0
 15  9  1  0  0  0  0
 16 15  2  0  0  0  0
 17 21  1  0  0  0  0
 18  3  1  0  0  0  0
 19 22  1  0  0  0  0
 19 17  1  0  0  0  0
 20 21  1  0  0  0  0
 21 18  2  0  0  0  0
 22 23  1  0  0  0  0
 22 20  1  0  0  0  0
 23 24  1  0  0  0  0
 25 23  1  0  0  0  0
 26 27  1  0  0  0  0
 26 30  1  0  0  0  0
 27 28  1  0  0  0  0
 28 29  1  0  0  0  0
 30 31  1  0  0  0  0
 31 29  1  0  0  0  0
M  END
>  <MODEL>
4

>  <REMARK>
 VINA RESULT:      -6.6      2.393      6.362
  Name = 
  4 active torsions:
  status: ('A' for Active; 'I' for Inactive)
    1  A    between atoms: N_1  and  C_28
    2  A    between atoms: C_3  and  N_8
    3  A    between atoms: C_5  and  N_30
    4  A    between atoms: N_6  and  C_23
                            x       y       z     vdW  Elec       q    Type
                         _______ _______ _______ _____ _____    ______ ____

>  <TORSDO>
F 4

$$$$
=
 OpenBabel10222415283D

 31 35  0  0  0  0  0  0  0  0999 V2000
  184.8560  178.0660  138.9510 N   0  0  0  0  0  0  0  0  0  0  0  0
  186.2030  178.1610  139.0360 C   0  0  0  0  0  0  0  0  0  0  0  0
  186.5560  178.7480  140.2370 C   0  0  0  0  0  0  0  0  0  0  0  0
  184.3390  178.5520  140.1020 C   0  0  0  0  0  3  0  0  0  0  0  0
  185.2050  179.3860  142.3410 C   0  0  0  0  0  1  0  0  0  0  0  0
  185.3680  178.9800  140.9190 C   0  0  0  0  0  0  0  0  0  0  0  0
  181.1320  175.5410  137.2950 C   0  0  0  0  0  0  0  0  0  0  0  0
  182.3660  176.1760  137.2290 C   0  0  0  0  0  0  0  0  0  0  0  0
  182.9550  176.7460  136.1610 N   0  0  0  0  0  0  0  0  0  0  0  0
  183.0260  176.4710  138.3810 C   0  0  0  0  0  0  0  0  0  0  0  0
  180.6500  175.1900  138.5240 N   0  0  0  0  0  2  0  0  0  0  0  0
  181.3300  175.5130  139.6710 C   0  0  0  0  0  3  0  0  0  0  0  0
  182.5160  176.1830  139.6040 N   0  0  0  0  0  0  0  0  0  0  0  0
  180.3710  175.2740  136.1210 N   0  0  0  0  0  1  0  0  0  0  0  0
  184.0200  177.4290  136.6620 C   0  0  0  0  0  3  0  0  0  0  0  0
  184.1070  177.2450  138.0410 C   0  0  0  0  0  0  0  0  0  0  0  0
  187.5810  176.9930  142.4580 C   0  0  0  0  0  2  0  0  0  0  0  0
  187.8810  178.7760  140.7870 N   0  0  0  0  0  0  0  0  0  0  0  0
  188.6030  176.4350  143.4340 C   0  0  0  0  0  2  0  0  0  0  0  0
  189.7580  178.0230  142.1290 C   0  0  0  0  0  2  0  0  0  0  0  0
  188.3570  177.9730  141.6910 C   0  0  0  0  0  0  0  0  0  0  0  0
  189.9500  176.9070  143.0620 N   0  0  0  0  0  0  0  0  0  0  0  0
  190.6190  177.4040  144.2740 C   0  0  0  0  0  3  0  0  0  0  0  0
  189.6420  177.5170  145.4400 C   0  0  0  0  0  1  0  0  0  0  0  0
  191.1980  178.7910  144.0360 C   0  0  0  0  0  1  0  0  0  0  0  0
  187.1060  177.7530  137.9960 N   0  0  0  0  0  0  0  0  0  0  0  0
  187.5500  178.7270  137.0030 C   0  0  0  0  0  2  0  0  0  0  0  0
  189.0550  178.9580  137.1800 C   0  0  0  0  0  2  0  0  0  0  0  0
  189.7700  177.6770  137.1090 N   0  0  0  0  0  2  0  0  0  0  0  0
  187.8520  176.5010  138.0870 C   0  0  0  0  0  2  0  0  0  0  0  0
  189.3440  176.8190  138.2140 C   0  0  0  0  0  2  0  0  0  0  0  0
  1  2  1  0  0  0  0
  1  4  1  0  0  0  0
  2  3  2  0  0  0  0
  3 18  1  0  0  0  0
  3  6  1  0  0  0  0
  4  6  2  0  0  0  0
  6  5  1  0  0  0  0
  7 11  1  0  0  0  0
  8  7  2  0  0  0  0
  8 10  1  0  0  0  0
  9 15  2  0  0  0  0
  9  8  1  0  0  0  0
 10 13  1  0  0  0  0
 11 12  1  0  0  0  0
 13 12  2  0  0  0  0
 14  7  1  0  0  0  0
 15 16  1  0  0  0  0
 16 10  2  0  0  0  0
 16  1  1  0  0  0  0
 17 19  1  0  0  0  0
 18 21  2  0  0  0  0
 20 22  1  0  0  0  0
 21 20  1  0  0  0  0
 21 17  1  0  0  0  0
 22 19  1  0  0  0  0
 22 23  1  0  0  0  0
 23 24  1  0  0  0  0
 25 23  1  0  0  0  0
 26 30  1  0  0  0  0
 26  2  1  0  0  0  0
 27 28  1  0  0  0  0
 27 26  1  0  0  0  0
 29 28  1  0  0  0  0
 29 31  1  0  0  0  0
 30 31  1  0  0  0  0
M  END
>  <MODEL>
5

>  <REMARK>
 VINA RESULT:      -6.5      3.441      9.026
  Name = 
  4 active torsions:
  status: ('A' for Active; 'I' for Inactive)
    1  A    between atoms: N_1  and  C_28
    2  A    between atoms: C_3  and  N_8
    3  A    between atoms: C_5  and  N_30
    4  A    between atoms: N_6  and  C_23
                            x       y       z     vdW  Elec       q    Type
                         _______ _______ _______ _____ _____    ______ ____

>  <TORSDO>
F 4

$$$$
=
 OpenBabel10222415283D

 31 35  0  0  1  0  0  0  0  0999 V2000
  190.5750  177.1430  139.6390 N   0  0  0  0  0  0  0  0  0  0  0  0
  190.1810  177.1450  140.9340 C   0  0  0  0  0  0  0  0  0  0  0  0
  188.8500  177.5080  141.0170 C   0  0  0  0  0  0  0  0  0  0  0  0
  189.5000  177.4650  138.8850 C   0  0  0  0  0  3  0  0  0  0  0  0
  187.0160  177.8720  139.2390 C   0  0  0  0  0  1  0  0  0  0  0  0
  188.4160  177.6940  139.7110 C   0  0  0  0  0  0  0  0  0  0  0  0
  193.2240  174.5310  136.6160 C   0  0  0  0  0  0  0  0  0  0  0  0
  192.9910  175.4180  137.6590 C   0  0  0  0  0  0  0  0  0  0  0  0
  193.7690  176.4330  138.0790 N   0  0  0  0  0  0  0  0  0  0  0  0
  191.7630  175.4540  138.2420 C   0  0  2  0  0  3  0  0  0  0  0  0
  192.2150  173.6850  136.2480 N   0  0  0  0  0  0  0  0  0  0  0  0
  190.9810  173.7540  136.8440 C   0  0  0  0  0  3  0  0  0  0  0  0
  190.7410  174.6630  137.8320 N   0  0  0  0  0  0  0  0  0  0  0  0
  194.4700  174.5040  135.9270 N   0  0  0  0  0  1  0  0  0  0  0  0
  192.9980  177.1360  138.9540 C   0  0  0  0  0  3  0  0  0  0  0  0
  191.7540  176.5250  139.1000 C   0  0  0  0  0  0  0  0  0  0  0  0
  186.2930  179.0030  141.5580 C   0  0  0  0  0  2  0  0  0  0  0  0
  188.0260  177.3700  142.1840 N   0  0  0  0  0  0  0  0  0  0  0  0
  185.0410  179.3900  142.3270 C   0  0  0  0  0  2  0  0  0  0  0  0
  186.0680  177.6800  143.5850 C   0  0  0  0  0  2  0  0  0  0  0  0
  186.8840  177.9530  142.3940 C   0  0  0  0  0  0  0  0  0  0  0  0
  184.8140  178.4240  143.4190 N   0  0  0  0  0  0  0  0  0  0  0  0
  184.5350  179.1750  144.6520 C   0  0  0  0  0  3  0  0  0  0  0  0
  185.3970  178.6810  145.8100 C   0  0  0  0  0  1  0  0  0  0  0  0
  183.0820  179.0020  145.0680 C   0  0  0  0  0  1  0  0  0  0  0  0
  191.0520  176.8610  142.0410 N   0  0  0  0  0  0  0  0  0  0  0  0
  192.0450  177.8490  142.4500 C   0  0  0  0  0  2  0  0  0  0  0  0
  191.6790  178.3640  143.8480 C   0  0  0  0  0  2  0  0  0  0  0  0
  191.5520  177.2360  144.7800 N   0  0  0  0  0  2  0  0  0  0  0  0
  190.7630  175.7740  142.9730 C   0  0  0  0  0  2  0  0  0  0  0  0
  190.4550  176.3700  144.3490 C   0  0  0  0  0  2  0  0  0  0  0  0
  1  2  1  0  0  0  0
  2  3  2  0  0  0  0
  2 26  1  0  0  0  0
  3 18  1  0  0  0  0
  4  1  1  0  0  0  0
  4  6  2  0  0  0  0
  5  6  1  0  0  0  0
  6  3  1  0  0  0  0
  7  8  1  0  0  0  0
  8  9  2  0  0  0  0
  9 15  1  0  0  0  0
 10  8  1  6  0  0  0
 10 16  1  0  0  0  0
 11  7  2  0  0  0  0
 11 12  1  0  0  0  0
 12 13  2  0  0  0  0
 13 10  1  0  0  0  0
 14  7  1  0  0  0  0
 15 16  2  0  0  0  0
 16  1  1  0  0  0  0
 17 19  1  0  0  0  0
 17 21  1  0  0  0  0
 18 21  2  0  0  0  0
 19 22  1  0  0  0  0
 21 20  1  0  0  0  0
 22 20  1  0  0  0  0
 22 23  1  0  0  0  0
 23 25  1  0  0  0  0
 23 24  1  0  0  0  0
 26 27  1  0  0  0  0
 26 30  1  0  0  0  0
 27 28  1  0  0  0  0
 28 29  1  0  0  0  0
 30 31  1  0  0  0  0
 31 29  1  0  0  0  0
M  END
>  <MODEL>
6

>  <REMARK>
 VINA RESULT:      -6.5      2.515      6.753
  Name = 
  4 active torsions:
  status: ('A' for Active; 'I' for Inactive)
    1  A    between atoms: N_1  and  C_28
    2  A    between atoms: C_3  and  N_8
    3  A    between atoms: C_5  and  N_30
    4  A    between atoms: N_6  and  C_23
                            x       y       z     vdW  Elec       q    Type
                         _______ _______ _______ _____ _____    ______ ____

>  <TORSDO>
F 4

$$$$
=
 OpenBabel10222415283D

 31 35  0  0  0  0  0  0  0  0999 V2000
  185.6190  178.6810  143.1930 N   0  0  0  0  0  0  0  0  0  0  0  0
  186.6220  177.9130  143.6780 C   0  0  0  0  0  0  0  0  0  0  0  0
  186.6360  177.9790  145.0590 C   0  0  0  0  0  0  0  0  0  0  0  0
  184.9630  179.2100  144.2500 C   0  0  0  0  0  3  0  0  0  0  0  0
  185.0130  179.0020  146.7830 C   0  0  0  0  0  1  0  0  0  0  0  0
  185.5700  178.7920  145.4190 C   0  0  0  0  0  0  0  0  0  0  0  0
  182.3660  179.2940  139.7260 C   0  0  0  0  0  0  0  0  0  0  0  0
  183.6180  179.0120  140.2570 C   0  0  0  0  0  0  0  0  0  0  0  0
  184.8260  179.2120  139.6960 N   0  0  0  0  0  0  0  0  0  0  0  0
  183.7250  178.6800  141.5710 C   0  0  0  0  0  0  0  0  0  0  0  0
  181.2760  179.1740  140.5410 N   0  0  0  0  0  2  0  0  0  0  0  0
  181.4140  178.8520  141.8670 C   0  0  0  0  0  3  0  0  0  0  0  0
  182.6510  178.6280  142.3970 N   0  0  0  0  0  0  0  0  0  0  0  0
  182.2090  179.7140  138.3740 N   0  0  0  0  0  1  0  0  0  0  0  0
  185.7240  179.0030  140.6980 C   0  0  0  0  0  3  0  0  0  0  0  0
  185.0640  178.6350  141.8690 C   0  0  0  0  0  0  0  0  0  0  0  0
  189.5600  178.2370  145.7300 C   0  0  0  0  0  2  0  0  0  0  0  0
  187.3810  177.1060  145.9210 N   0  0  0  0  0  0  0  0  0  0  0  0
  190.8710  177.8780  146.4100 C   0  0  0  0  0  2  0  0  0  0  0  0
  189.2750  176.3510  147.2380 C   0  0  0  0  0  2  0  0  0  0  0  0
  188.6220  177.2510  146.2780 C   0  0  0  0  0  0  0  0  0  0  0  0
  190.6200  176.8900  147.4760 N   0  0  0  0  0  0  0  0  0  0  0  0
  191.6020  175.8040  147.3440 C   0  0  0  0  0  3  0  0  0  0  0  0
  192.8040  176.0300  148.2550 C   0  0  0  0  0  1  0  0  0  0  0  0
  192.1270  175.7250  145.9180 C   0  0  0  0  0  1  0  0  0  0  0  0
  187.5530  177.1900  142.8560 N   0  0  0  0  0  0  0  0  0  0  0  0
  188.3190  177.9020  141.8370 C   0  0  0  0  0  2  0  0  0  0  0  0
  189.8020  177.8700  142.2270 C   0  0  0  0  0  2  0  0  0  0  0  0
  190.2380  176.4830  142.4290 N   0  0  0  0  0  2  0  0  0  0  0  0
  188.0020  175.8490  143.2180 C   0  0  0  0  0  2  0  0  0  0  0  0
  189.4970  175.8970  143.5460 C   0  0  0  0  0  2  0  0  0  0  0  0
  1  2  1  0  0  0  0
  1  4  1  0  0  0  0
  2  3  2  0  0  0  0
  3  6  1  0  0  0  0
  3 18  1  0  0  0  0
  4  6  2  0  0  0  0
  6  5  1  0  0  0  0
  7  8  2  0  0  0  0
  7 11  1  0  0  0  0
  8 10  1  0  0  0  0
  9  8  1  0  0  0  0
  9 15  2  0  0  0  0
 10 16  2  0  0  0  0
 10 13  1  0  0  0  0
 11 12  1  0  0  0  0
 12 13  2  0  0  0  0
 14  7  1  0  0  0  0
 15 16  1  0  0  0  0
 16  1  1  0  0  0  0
 17 21  1  0  0  0  0
 17 19  1  0  0  0  0
 18 21  2  0  0  0  0
 19 22  1  0  0  0  0
 20 22  1  0  0  0  0
 21 20  1  0  0  0  0
 23 22  1  0  0  0  0
 23 24  1  0  0  0  0
 25 23  1  0  0  0  0
 26 30  1  0  0  0  0
 26  2  1  0  0  0  0
 27 28  1  0  0  0  0
 27 26  1  0  0  0  0
 28 29  1  0  0  0  0
 29 31  1  0  0  0  0
 30 31  1  0  0  0  0
M  END
>  <MODEL>
7

>  <REMARK>
 VINA RESULT:      -6.4      3.108      9.037
  Name = 
  4 active torsions:
  status: ('A' for Active; 'I' for Inactive)
    1  A    between atoms: N_1  and  C_28
    2  A    between atoms: C_3  and  N_8
    3  A    between atoms: C_5  and  N_30
    4  A    between atoms: N_6  and  C_23
                            x       y       z     vdW  Elec       q    Type
                         _______ _______ _______ _____ _____    ______ ____

>  <TORSDO>
F 4

$$$$
=
 OpenBabel10222415283D

 31 35  0  0  0  0  0  0  0  0999 V2000
  185.5320  178.3370  139.5730 N   0  0  0  0  0  0  0  0  0  0  0  0
  186.0610  178.4560  140.8130 C   0  0  0  0  0  0  0  0  0  0  0  0
  187.4420  178.4720  140.7330 C   0  0  0  0  0  0  0  0  0  0  0  0
  186.5580  178.3140  138.6930 C   0  0  0  0  0  3  0  0  0  0  0  0
  189.0820  178.6050  138.7470 C   0  0  0  0  0  1  0  0  0  0  0  0
  187.7530  178.3980  139.3820 C   0  0  0  0  0  0  0  0  0  0  0  0
  180.7760  177.7610  139.4070 C   0  0  0  0  0  0  0  0  0  0  0  0
  181.9850  178.4110  139.1930 C   0  0  0  0  0  0  0  0  0  0  0  0
  182.2190  179.7350  139.1220 N   0  0  0  0  0  0  0  0  0  0  0  0
  183.1430  177.7000  139.2510 C   0  0  0  0  0  0  0  0  0  0  0  0
  180.7950  176.4120  139.6190 N   0  0  0  0  0  2  0  0  0  0  0  0
  181.9800  175.7220  139.6890 C   0  0  0  0  0  3  0  0  0  0  0  0
  183.1680  176.3740  139.5300 N   0  0  0  0  0  0  0  0  0  0  0  0
  179.5430  178.4730  139.4250 N   0  0  0  0  0  1  0  0  0  0  0  0
  183.5740  179.8600  139.1430 C   0  0  0  0  0  3  0  0  0  0  0  0
  184.1750  178.6030  139.1880 C   0  0  0  0  0  0  0  0  0  0  0  0
  189.0900  176.5770  142.3940 C   0  0  0  0  0  2  0  0  0  0  0  0
  188.3270  178.8420  141.8000 N   0  0  0  0  0  0  0  0  0  0  0  0
  190.0910  176.1700  143.4620 C   0  0  0  0  0  2  0  0  0  0  0  0
  190.0400  178.5280  143.4910 C   0  0  0  0  0  2  0  0  0  0  0  0
  189.1000  178.0420  142.4720 C   0  0  0  0  0  0  0  0  0  0  0  0
  190.8110  177.3640  143.9450 N   0  0  0  0  0  0  0  0  0  0  0  0
  190.8180  177.3380  145.4150 C   0  0  0  0  0  3  0  0  0  0  0  0
  191.7540  176.2570  145.9460 C   0  0  0  0  0  1  0  0  0  0  0  0
  189.4290  177.0350  145.9540 C   0  0  0  0  0  1  0  0  0  0  0  0
  185.2830  178.5030  142.0190 N   0  0  0  0  0  0  0  0  0  0  0  0
  185.3890  177.4180  142.9890 C   0  0  0  0  0  2  0  0  0  0  0  0
  186.0220  177.9670  144.2730 C   0  0  0  0  0  2  0  0  0  0  0  0
  185.2510  179.1170  144.7610 N   0  0  0  0  0  2  0  0  0  0  0  0
  184.6480  179.7410  142.4650 C   0  0  0  0  0  2  0  0  0  0  0  0
  185.3050  180.1930  143.7710 C   0  0  0  0  0  2  0  0  0  0  0  0
  1  2  1  0  0  0  0
  2 26  1  0  0  0  0
  3  2  2  0  0  0  0
  3 18  1  0  0  0  0
  4  6  2  0  0  0  0
  4  1  1  0  0  0  0
  5  6  1  0  0  0  0
  6  3  1  0  0  0  0
  7 14  1  0  0  0  0
  7 11  1  0  0  0  0
  8 10  1  0  0  0  0
  8  7  2  0  0  0  0
  9 15  2  0  0  0  0
  9  8  1  0  0  0  0
 10 13  1  0  0  0  0
 11 12  1  0  0  0  0
 13 12  2  0  0  0  0
 15 16  1  0  0  0  0
 16 10  2  0  0  0  0
 16  1  1  0  0  0  0
 17 21  1  0  0  0  0
 17 19  1  0  0  0  0
 18 21  2  0  0  0  0
 19 22  1  0  0  0  0
 20 22  1  0  0  0  0
 21 20  1  0  0  0  0
 22 23  1  0  0  0  0
 23 24  1  0  0  0  0
 23 25  1  0  0  0  0
 26 30  1  0  0  0  0
 26 27  1  0  0  0  0
 27 28  1  0  0  0  0
 28 29  1  0  0  0  0
 30 31  1  0  0  0  0
 31 29  1  0  0  0  0
M  END
>  <MODEL>
8

>  <REMARK>
 VINA RESULT:      -6.2      3.546      8.322
  Name = 
  4 active torsions:
  status: ('A' for Active; 'I' for Inactive)
    1  A    between atoms: N_1  and  C_28
    2  A    between atoms: C_3  and  N_8
    3  A    between atoms: C_5  and  N_30
    4  A    between atoms: N_6  and  C_23
                            x       y       z     vdW  Elec       q    Type
                         _______ _______ _______ _____ _____    ______ ____

>  <TORSDO>
F 4

$$$$
=
 OpenBabel10222415283D

 31 35  0  0  0  0  0  0  0  0999 V2000
  188.9950  177.4880  138.5280 N   0  0  0  0  0  0  0  0  0  0  0  0
  189.6670  176.4760  137.9320 C   0  0  0  0  0  0  0  0  0  0  0  0
  190.9130  176.3330  138.5140 C   0  0  0  0  0  0  0  0  0  0  0  0
  189.7830  177.9730  139.5150 C   0  0  0  0  0  3  0  0  0  0  0  0
  192.0060  177.3880  140.5980 C   0  0  0  0  0  1  0  0  0  0  0  0
  190.9760  177.2760  139.5300 C   0  0  0  0  0  0  0  0  0  0  0  0
  184.7510  179.3230  139.7900 C   0  0  0  0  0  0  0  0  0  0  0  0
  185.6570  178.6730  138.9640 C   0  0  0  0  0  0  0  0  0  0  0  0
  185.6780  178.6310  137.6180 N   0  0  0  0  0  0  0  0  0  0  0  0
  186.8000  178.1640  139.4980 C   0  0  0  0  0  0  0  0  0  0  0  0
  185.0210  179.3820  141.1290 N   0  0  0  0  0  2  0  0  0  0  0  0
  186.1890  178.8730  141.6380 C   0  0  0  0  0  3  0  0  0  0  0  0
  187.1010  178.2810  140.8150 N   0  0  0  0  0  0  0  0  0  0  0  0
  183.5750  179.9340  139.2680 N   0  0  0  0  0  1  0  0  0  0  0  0
  186.8810  178.0800  137.2960 C   0  0  0  0  0  3  0  0  0  0  0  0
  187.5850  177.7480  138.4520 C   0  0  0  0  0  0  0  0  0  0  0  0
  193.3460  176.2810  136.7410 C   0  0  0  0  0  2  0  0  0  0  0  0
  191.7910  175.2130  138.3240 N   0  0  0  0  0  0  0  0  0  0  0  0
  194.5880  175.6900  136.0970 C   0  0  0  0  0  2  0  0  0  0  0  0
  193.7670  174.0310  137.5580 C   0  0  0  0  0  2  0  0  0  0  0  0
  192.8840  175.2030  137.6220 C   0  0  0  0  0  0  0  0  0  0  0  0
  194.9430  174.4280  136.7740 N   0  0  0  0  0  0  0  0  0  0  0  0
  195.2030  173.4070  135.7490 C   0  0  0  0  0  3  0  0  0  0  0  0
  194.1690  172.2870  135.8070 C   0  0  0  0  0  1  0  0  0  0  0  0
  196.5680  172.7700  135.9590 C   0  0  0  0  0  1  0  0  0  0  0  0
  189.1570  175.7140  136.8250 N   0  0  0  0  0  0  0  0  0  0  0  0
  189.5510  176.0670  135.4640 C   0  0  0  0  0  2  0  0  0  0  0  0
  190.3940  174.9240  134.8850 C   0  0  0  0  0  2  0  0  0  0  0  0
  189.6520  173.6600  134.9730 N   0  0  0  0  0  2  0  0  0  0  0  0
  188.5330  174.4090  137.0250 C   0  0  0  0  0  2  0  0  0  0  0  0
  189.4110  173.3340  136.3790 C   0  0  0  0  0  2  0  0  0  0  0  0
  1  4  1  0  0  0  0
  2  3  2  0  0  0  0
  2  1  1  0  0  0  0
  3  6  1  0  0  0  0
  4  6  2  0  0  0  0
  6  5  1  0  0  0  0
  7 11  1  0  0  0  0
  8 10  1  0  0  0  0
  8  7  2  0  0  0  0
  9  8  1  0  0  0  0
 10 13  1  0  0  0  0
 11 12  1  0  0  0  0
 13 12  2  0  0  0  0
 14  7  1  0  0  0  0
 15  9  2  0  0  0  0
 15 16  1  0  0  0  0
 16  1  1  0  0  0  0
 16 10  2  0  0  0  0
 17 21  1  0  0  0  0
 18  3  1  0  0  0  0
 19 17  1  0  0  0  0
 19 22  1  0  0  0  0
 20 21  1  0  0  0  0
 21 18  2  0  0  0  0
 22 20  1  0  0  0  0
 23 24  1  0  0  0  0
 23 25  1  0  0  0  0
 23 22  1  0  0  0  0
 26 30  1  0  0  0  0
 26  2  1  0  0  0  0
 27 26  1  0  0  0  0
 28 29  1  0  0  0  0
 28 27  1  0  0  0  0
 29 31  1  0  0  0  0
 31 30  1  0  0  0  0
M  END
>  <MODEL>
9

>  <REMARK>
 VINA RESULT:      -6.2      3.858      7.506
  Name = 
  4 active torsions:
  status: ('A' for Active; 'I' for Inactive)
    1  A    between atoms: N_1  and  C_28
    2  A    between atoms: C_3  and  N_8
    3  A    between atoms: C_5  and  N_30
    4  A    between atoms: N_6  and  C_23
                            x       y       z     vdW  Elec       q    Type
                         _______ _______ _______ _____ _____    ______ ____

>  <TORSDO>
F 4

$$$$
