=
 OpenBabel10222418473D

 29 32  0  0  1  0  0  0  0  0999 V2000
  189.2320  177.0330  147.0730 C   0  0  0  0  0  3  0  0  0  0  0  0
  189.5490  177.9400  138.6970 N   0  0  0  0  0  2  0  0  0  0  0  0
  188.3300  178.6650  140.7170 C   0  0  0  0  0  2  0  0  0  0  0  0
  190.1290  177.3100  143.5180 C   0  0  0  0  0  0  0  0  0  0  0  0
  190.5640  177.6400  141.3000 C   0  0  1  0  0  3  0  0  0  0  0  0
  191.5860  176.7720  146.8660 C   0  0  0  0  0  3  0  0  0  0  0  0
  190.2620  177.1350  144.8900 C   0  0  0  0  0  0  0  0  0  0  0  0
  189.9620  176.5820  139.0490 C   0  0  2  0  0  3  0  0  0  0  0  0
  191.1370  177.3270  142.5720 O   0  0  0  0  0  0  0  0  0  0  0  0
  187.8270  177.3980  145.0860 C   0  0  0  0  0  0  0  0  0  0  0  0
  190.4590  176.8290  147.6250 N   0  0  0  0  0  0  0  0  0  0  0  0
  187.7200  177.5330  143.6770 C   0  0  0  0  0  0  0  0  0  0  0  0
  191.5090  176.9260  145.4810 C   0  0  0  0  0  3  0  0  0  0  0  0
  189.0950  177.1940  145.6880 C   0  0  0  0  0  0  0  0  0  0  0  0
  190.8840  176.5500  140.2780 C   0  0  0  0  0  2  0  0  0  0  0  0
  186.3740  177.4350  146.0940 Cl  0  0  0  0  0  0  0  0  0  0  0  0
  189.1180  177.7460  141.5300 N   0  0  0  0  0  0  0  0  0  0  0  0
  188.9180  177.5270  142.9260 C   0  0  0  0  0  0  0  0  0  0  0  0
  188.2270  178.1530  139.2790 C   0  0  0  0  0  2  0  0  0  0  0  0
  186.3770  177.6060  143.0670 C   0  0  0  0  0  3  0  0  0  0  0  0
  185.6280  178.7000  143.0660 C   0  0  0  0  0  2  0  0  0  0  0  0
  190.6030  175.8820  137.8570 C   0  0  0  0  0  2  0  0  0  0  0  0
  192.0230  176.3730  137.6040 C   0  0  0  0  0  2  0  0  0  0  0  0
  192.9880  175.2030  137.6110 C   0  0  0  0  0  2  0  0  0  0  0  0
  194.1600  175.5550  138.2840 O   0  0  0  0  0  0  0  0  0  0  0  0
  196.7670  174.9930  137.5070 O   0  0  0  0  0  1  0  0  0  0  0  0
  195.2720  174.3240  137.9330 P   0  0  0  0  0  0  0  0  0  0  0  0
  195.4460  173.4260  139.1390 O   0  0  0  0  0  1  0  0  0  0  0  0
  194.6900  173.4040  136.6400 O   0  0  0  0  0  0  0  0  0  0  0  0
  1 11  1  0  0  0  0
  2  8  1  0  0  0  0
  2 19  1  0  0  0  0
  3 17  1  0  0  0  0
  4  7  1  0  0  0  0
  5 15  1  6  0  0  0
  5 17  1  0  0  0  0
  5  9  1  0  0  0  0
  6 11  2  0  0  0  0
  7 13  2  0  0  0  0
  7 14  1  0  0  0  0
  8 22  1  6  0  0  0
  8 15  1  0  0  0  0
  9  4  1  0  0  0  0
 10 14  1  0  0  0  0
 10 16  1  0  0  0  0
 12 10  2  0  0  0  0
 13  6  1  0  0  0  0
 14  1  2  0  0  0  0
 17 18  1  0  0  0  0
 18  4  2  0  0  0  0
 18 12  1  0  0  0  0
 19  3  1  0  0  0  0
 20 12  1  0  0  0  0
 21 20  2  0  0  0  0
 23 24  1  0  0  0  0
 23 22  1  0  0  0  0
 24 25  1  0  0  0  0
 26 27  1  0  0  0  0
 27 25  1  0  0  0  0
 27 28  1  0  0  0  0
 29 27  2  0  0  0  0
M  END
>  <MODEL>
1

>  <REMARK>
 VINA RESULT:      -8.6      0.000      0.000
  Name = 
  6 active torsions:
  status: ('A' for Active; 'I' for Inactive)
    1  A    between atoms: O_2  and  P_16
    2  A    between atoms: O_2  and  C_26
    3  A    between atoms: C_9  and  C_25
    4  A    between atoms: C_13  and  C_21
    5  A    between atoms: C_22  and  C_25
    6  A    between atoms: C_22  and  C_26
                            x       y       z     vdW  Elec       q    Type
                         _______ _______ _______ _____ _____    ______ ____

>  <TORSDO>
F 6

$$$$
=
 OpenBabel10222418473D

 29 32  0  0  1  0  0  0  0  0999 V2000
  186.2830  178.3790  147.0360 C   0  0  0  0  0  3  0  0  0  0  0  0
  189.7210  176.9350  139.4750 N   0  0  0  0  0  2  0  0  0  0  0  0
  189.8590  176.3100  141.8580 C   0  0  0  0  0  2  0  0  0  0  0  0
  187.0680  177.8940  143.4770 C   0  0  0  0  0  0  0  0  0  0  0  0
  187.6610  177.4320  141.3200 C   0  0  1  0  0  3  0  0  0  0  0  0
  184.2920  178.6900  145.7750 C   0  0  0  0  0  3  0  0  0  0  0  0
  186.3420  178.1630  144.6300 C   0  0  0  0  0  0  0  0  0  0  0  0
  189.2680  178.3240  139.5390 C   0  0  2  0  0  3  0  0  0  0  0  0
  186.5950  177.8430  142.1790 O   0  0  0  0  0  0  0  0  0  0  0  0
  188.4100  177.8460  145.9190 C   0  0  0  0  0  0  0  0  0  0  0  0
  184.9520  178.6520  146.9630 N   0  0  0  0  0  0  0  0  0  0  0  0
  189.1320  177.6170  144.7190 C   0  0  0  0  0  0  0  0  0  0  0  0
  184.9750  178.4440  144.5830 C   0  0  0  0  0  3  0  0  0  0  0  0
  187.0190  178.1240  145.8720 C   0  0  0  0  0  0  0  0  0  0  0  0
  187.8950  178.4610  140.2150 C   0  0  0  0  0  2  0  0  0  0  0  0
  189.2490  177.8350  147.4750 Cl  0  0  0  0  0  0  0  0  0  0  0  0
  188.8410  177.3020  142.1840 N   0  0  0  0  0  0  0  0  0  0  0  0
  188.4030  177.6070  143.5080 C   0  0  0  0  0  0  0  0  0  0  0  0
  190.6260  176.7240  140.6010 C   0  0  0  0  0  2  0  0  0  0  0  0
  190.6000  177.4680  144.7870 C   0  0  0  0  0  3  0  0  0  0  0  0
  191.4530  178.4020  144.3890 C   0  0  0  0  0  2  0  0  0  0  0  0
  189.2710  178.9610  138.1550 C   0  0  0  0  0  2  0  0  0  0  0  0
  189.4840  177.9310  137.0530 C   0  0  0  0  0  2  0  0  0  0  0  0
  188.2870  177.9060  136.1230 C   0  0  0  0  0  2  0  0  0  0  0  0
  187.2020  178.5470  136.7240 O   0  0  0  0  0  0  0  0  0  0  0  0
  184.9450  177.7680  138.1440 O   0  0  0  0  0  1  0  0  0  0  0  0
  186.0060  177.3560  136.8920 P   0  0  0  0  0  0  0  0  0  0  0  0
  185.2320  177.2160  135.6000 O   0  0  0  0  0  0  0  0  0  0  0  0
  186.7440  175.8790  137.2570 O   0  0  0  0  0  1  0  0  0  0  0  0
  2  8  1  0  0  0  0
  2 19  1  0  0  0  0
  3 17  1  0  0  0  0
  4 18  2  0  0  0  0
  4  7  1  0  0  0  0
  5 15  1  6  0  0  0
  5  9  1  0  0  0  0
  5 17  1  0  0  0  0
  6 11  2  0  0  0  0
  7 14  1  0  0  0  0
  8 22  1  6  0  0  0
  8 15  1  0  0  0  0
  9  4  1  0  0  0  0
 10 16  1  0  0  0  0
 11  1  1  0  0  0  0
 12 20  1  0  0  0  0
 12 10  2  0  0  0  0
 13  7  2  0  0  0  0
 13  6  1  0  0  0  0
 14 10  1  0  0  0  0
 14  1  2  0  0  0  0
 17 18  1  0  0  0  0
 18 12  1  0  0  0  0
 19  3  1  0  0  0  0
 21 20  2  0  0  0  0
 23 22  1  0  0  0  0
 24 25  1  0  0  0  0
 24 23  1  0  0  0  0
 25 27  1  0  0  0  0
 27 29  1  0  0  0  0
 27 26  1  0  0  0  0
 28 27  2  0  0  0  0
M  END
>  <MODEL>
2

>  <REMARK>
 VINA RESULT:      -8.5      4.282      5.494
  Name = 
  6 active torsions:
  status: ('A' for Active; 'I' for Inactive)
    1  A    between atoms: O_2  and  P_16
    2  A    between atoms: O_2  and  C_26
    3  A    between atoms: C_9  and  C_25
    4  A    between atoms: C_13  and  C_21
    5  A    between atoms: C_22  and  C_25
    6  A    between atoms: C_22  and  C_26
                            x       y       z     vdW  Elec       q    Type
                         _______ _______ _______ _____ _____    ______ ____

>  <TORSDO>
F 6

$$$$
=
 OpenBabel10222418473D

 29 32  0  0  1  0  0  0  0  0999 V2000
  185.2700  178.7210  146.8180 C   0  0  0  0  0  3  0  0  0  0  0  0
  190.9300  176.0500  141.1690 N   0  0  0  0  0  2  0  0  0  0  0  0
  190.2270  175.8150  143.5230 C   0  0  0  0  0  2  0  0  0  0  0  0
  187.1630  177.6640  143.8480 C   0  0  0  0  0  0  0  0  0  0  0  0
  188.4090  176.8570  142.1120 C   0  0  1  0  0  3  0  0  0  0  0  0
  183.8370  178.8450  144.9260 C   0  0  0  0  0  3  0  0  0  0  0  0
  186.1130  178.1210  144.6350 C   0  0  0  0  0  0  0  0  0  0  0  0
  190.5700  177.4360  140.8700 C   0  0  2  0  0  3  0  0  0  0  0  0
  187.1460  177.4100  142.4890 O   0  0  0  0  0  0  0  0  0  0  0  0
  187.6090  177.9950  146.5790 C   0  0  0  0  0  0  0  0  0  0  0  0
  184.0600  178.9920  146.2590 N   0  0  0  0  0  0  0  0  0  0  0  0
  188.6740  177.5690  145.7420 C   0  0  0  0  0  0  0  0  0  0  0  0
  184.8600  178.4050  144.0860 C   0  0  0  0  0  3  0  0  0  0  0  0
  186.3350  178.2760  146.0230 C   0  0  0  0  0  0  0  0  0  0  0  0
  189.0620  177.6930  141.0120 C   0  0  0  0  0  2  0  0  0  0  0  0
  187.8810  178.2260  148.3110 Cl  0  0  0  0  0  0  0  0  0  0  0  0
  189.2240  176.8550  143.3340 N   0  0  0  0  0  0  0  0  0  0  0  0
  188.3900  177.3730  144.3710 C   0  0  0  0  0  0  0  0  0  0  0  0
  191.3930  176.0140  142.5530 C   0  0  0  0  0  2  0  0  0  0  0  0
  190.0230  177.4190  146.3240 C   0  0  0  0  0  3  0  0  0  0  0  0
  190.3210  176.5390  147.2710 C   0  0  0  0  0  2  0  0  0  0  0  0
  191.0740  177.8430  139.4900 C   0  0  0  0  0  2  0  0  0  0  0  0
  190.9370  176.7140  138.4770 C   0  0  0  0  0  2  0  0  0  0  0  0
  190.0460  177.1480  137.3290 C   0  0  0  0  0  2  0  0  0  0  0  0
  188.7100  176.8770  137.6330 O   0  0  0  0  0  0  0  0  0  0  0  0
  187.1990  178.1680  135.6920 O   0  0  0  0  0  0  0  0  0  0  0  0
  187.8600  178.2930  137.2450 P   0  0  0  0  0  0  0  0  0  0  0  0
  186.7520  178.5220  138.2490 O   0  0  0  0  0  1  0  0  0  0  0  0
  188.9240  179.6060  137.2880 O   0  0  0  0  0  1  0  0  0  0  0  0
  2 19  1  0  0  0  0
  4 18  2  0  0  0  0
  4  7  1  0  0  0  0
  5 15  1  6  0  0  0
  5  9  1  0  0  0  0
  5 17  1  0  0  0  0
  6 11  2  0  0  0  0
  7 14  1  0  0  0  0
  8 22  1  6  0  0  0
  8 15  1  0  0  0  0
  8  2  1  0  0  0  0
  9  4  1  0  0  0  0
 10 16  1  0  0  0  0
 11  1  1  0  0  0  0
 12 20  1  0  0  0  0
 12 10  2  0  0  0  0
 13  7  2  0  0  0  0
 13  6  1  0  0  0  0
 14 10  1  0  0  0  0
 14  1  2  0  0  0  0
 17  3  1  0  0  0  0
 17 18  1  0  0  0  0
 18 12  1  0  0  0  0
 19  3  1  0  0  0  0
 20 21  2  0  0  0  0
 23 22  1  0  0  0  0
 24 25  1  0  0  0  0
 24 23  1  0  0  0  0
 26 27  2  0  0  0  0
 27 29  1  0  0  0  0
 27 25  1  0  0  0  0
 27 28  1  0  0  0  0
M  END
>  <MODEL>
3

>  <REMARK>
 VINA RESULT:      -8.4      3.594      5.255
  Name = 
  6 active torsions:
  status: ('A' for Active; 'I' for Inactive)
    1  A    between atoms: O_2  and  P_16
    2  A    between atoms: O_2  and  C_26
    3  A    between atoms: C_9  and  C_25
    4  A    between atoms: C_13  and  C_21
    5  A    between atoms: C_22  and  C_25
    6  A    between atoms: C_22  and  C_26
                            x       y       z     vdW  Elec       q    Type
                         _______ _______ _______ _____ _____    ______ ____

>  <TORSDO>
F 6

$$$$
=
 OpenBabel10222418473D

 29 32  0  0  1  0  0  0  0  0999 V2000
  187.7840  177.4810  147.2610 C   0  0  0  0  0  3  0  0  0  0  0  0
  189.6420  177.9800  139.0530 N   0  0  0  0  0  2  0  0  0  0  0  0
  188.1270  178.8590  140.7910 C   0  0  0  0  0  2  0  0  0  0  0  0
  189.3160  177.5470  143.9190 C   0  0  0  0  0  0  0  0  0  0  0  0
  190.1580  177.7500  141.8050 C   0  0  1  0  0  3  0  0  0  0  0  0
  190.1170  177.0920  147.4920 C   0  0  0  0  0  3  0  0  0  0  0  0
  189.1910  177.4290  145.2970 C   0  0  0  0  0  0  0  0  0  0  0  0
  189.9060  176.6210  139.5230 C   0  0  2  0  0  3  0  0  0  0  0  0
  190.4750  177.4690  143.1700 O   0  0  0  0  0  0  0  0  0  0  0  0
  186.7790  177.8240  145.0410 C   0  0  0  0  0  0  0  0  0  0  0  0
  188.8780  177.2410  148.0320 N   0  0  0  0  0  0  0  0  0  0  0  0
  186.9340  177.8980  143.6320 C   0  0  0  0  0  0  0  0  0  0  0  0
  190.2980  177.1850  146.1120 C   0  0  0  0  0  3  0  0  0  0  0  0
  187.9060  177.5840  145.8690 C   0  0  0  0  0  0  0  0  0  0  0  0
  190.5910  176.5990  140.8990 C   0  0  0  0  0  2  0  0  0  0  0  0
  185.1750  177.9810  145.7670 Cl  0  0  0  0  0  0  0  0  0  0  0  0
  188.7020  177.9400  141.7660 N   0  0  0  0  0  0  0  0  0  0  0  0
  188.2440  177.7960  143.1100 C   0  0  0  0  0  0  0  0  0  0  0  0
  188.2530  178.2860  139.3780 C   0  0  0  0  0  2  0  0  0  0  0  0
  185.7270  178.0100  142.7870 C   0  0  0  0  0  3  0  0  0  0  0  0
  185.0770  179.1480  142.5800 C   0  0  0  0  0  2  0  0  0  0  0  0
  190.7080  175.8350  138.4930 C   0  0  0  0  0  2  0  0  0  0  0  0
  192.1400  176.3400  138.3780 C   0  0  0  0  0  2  0  0  0  0  0  0
  192.9080  175.5100  137.3670 C   0  0  0  0  0  2  0  0  0  0  0  0
  193.0740  174.2080  137.8470 O   0  0  0  0  0  0  0  0  0  0  0  0
  195.5810  175.2940  137.3430 O   0  0  0  0  0  1  0  0  0  0  0  0
  194.7280  173.8710  137.6810 P   0  0  0  0  0  0  0  0  0  0  0  0
  195.2600  173.2550  138.9560 O   0  0  0  0  0  1  0  0  0  0  0  0
  194.9450  172.7810  136.4070 O   0  0  0  0  0  0  0  0  0  0  0  0
  1 11  1  0  0  0  0
  2 19  1  0  0  0  0
  2  8  1  0  0  0  0
  3 17  1  0  0  0  0
  4  7  1  0  0  0  0
  5 15  1  6  0  0  0
  5  9  1  0  0  0  0
  6 11  2  0  0  0  0
  7 14  1  0  0  0  0
  7 13  2  0  0  0  0
  8 22  1  6  0  0  0
  8 15  1  0  0  0  0
  9  4  1  0  0  0  0
 10 16  1  0  0  0  0
 10 14  1  0  0  0  0
 12 10  2  0  0  0  0
 13  6  1  0  0  0  0
 14  1  2  0  0  0  0
 17  5  1  0  0  0  0
 17 18  1  0  0  0  0
 18 12  1  0  0  0  0
 18  4  2  0  0  0  0
 19  3  1  0  0  0  0
 20 12  1  0  0  0  0
 21 20  2  0  0  0  0
 23 22  1  0  0  0  0
 24 25  1  0  0  0  0
 24 23  1  0  0  0  0
 26 27  1  0  0  0  0
 27 25  1  0  0  0  0
 27 28  1  0  0  0  0
 29 27  2  0  0  0  0
M  END
>  <MODEL>
4

>  <REMARK>
 VINA RESULT:      -8.4      0.927      1.000
  Name = 
  6 active torsions:
  status: ('A' for Active; 'I' for Inactive)
    1  A    between atoms: O_2  and  P_16
    2  A    between atoms: O_2  and  C_26
    3  A    between atoms: C_9  and  C_25
    4  A    between atoms: C_13  and  C_21
    5  A    between atoms: C_22  and  C_25
    6  A    between atoms: C_22  and  C_26
                            x       y       z     vdW  Elec       q    Type
                         _______ _______ _______ _____ _____    ______ ____

>  <TORSDO>
F 6

$$$$
=
 OpenBabel10222418473D

 29 32  0  0  1  0  0  0  0  0999 V2000
  186.5590  178.3690  147.3570 C   0  0  0  0  0  3  0  0  0  0  0  0
  189.8970  176.8530  139.7650 N   0  0  0  0  0  2  0  0  0  0  0  0
  190.1110  176.3030  142.1610 C   0  0  0  0  0  2  0  0  0  0  0  0
  187.2900  177.8160  143.7950 C   0  0  0  0  0  0  0  0  0  0  0  0
  187.8560  177.3170  141.6390 C   0  0  1  0  0  3  0  0  0  0  0  0
  184.5320  178.5620  146.1310 C   0  0  0  0  0  3  0  0  0  0  0  0
  186.5780  178.0870  144.9570 C   0  0  0  0  0  0  0  0  0  0  0  0
  189.3880  178.2230  139.8000 C   0  0  2  0  0  3  0  0  0  0  0  0
  186.7930  177.7080  142.5100 O   0  0  0  0  0  0  0  0  0  0  0  0
  188.6830  177.8930  146.2080 C   0  0  0  0  0  0  0  0  0  0  0  0
  185.2170  178.5850  147.3050 N   0  0  0  0  0  0  0  0  0  0  0  0
  189.3890  177.6590  144.9990 C   0  0  0  0  0  0  0  0  0  0  0  0
  185.1990  178.3110  144.9320 C   0  0  0  0  0  3  0  0  0  0  0  0
  187.2820  178.1120  146.1840 C   0  0  0  0  0  0  0  0  0  0  0  0
  188.0240  178.3230  140.5010 C   0  0  0  0  0  2  0  0  0  0  0  0
  189.5540  177.9610  147.7450 Cl  0  0  0  0  0  0  0  0  0  0  0  0
  189.0590  177.2600  142.4810 N   0  0  0  0  0  0  0  0  0  0  0  0
  188.6360  177.5850  143.8050 C   0  0  0  0  0  0  0  0  0  0  0  0
  190.8330  176.7120  140.8760 C   0  0  0  0  0  2  0  0  0  0  0  0
  190.8630  177.5730  145.0390 C   0  0  0  0  0  3  0  0  0  0  0  0
  191.5260  176.5000  145.4490 C   0  0  0  0  0  2  0  0  0  0  0  0
  189.3350  178.8200  138.3990 C   0  0  0  0  0  2  0  0  0  0  0  0
  188.4480  178.0070  137.4650 C   0  0  0  0  0  2  0  0  0  0  0  0
  189.2840  177.3750  136.3690 C   0  0  0  0  0  2  0  0  0  0  0  0
  189.0310  176.0030  136.3070 O   0  0  0  0  0  0  0  0  0  0  0  0
  190.4970  174.0290  137.6000 O   0  0  0  0  0  1  0  0  0  0  0  0
  190.5480  175.2550  136.4340 P   0  0  0  0  0  0  0  0  0  0  0  0
  190.9470  174.6660  135.0990 O   0  0  0  0  0  0  0  0  0  0  0  0
  191.6960  176.4080  136.8950 O   0  0  0  0  0  1  0  0  0  0  0  0
  2  8  1  0  0  0  0
  2 19  1  0  0  0  0
  3 17  1  0  0  0  0
  4 18  2  0  0  0  0
  4  7  1  0  0  0  0
  5 15  1  6  0  0  0
  5 17  1  0  0  0  0
  5  9  1  0  0  0  0
  6 11  2  0  0  0  0
  7 14  1  0  0  0  0
  8 22  1  6  0  0  0
  8 15  1  0  0  0  0
  9  4  1  0  0  0  0
 10 16  1  0  0  0  0
 11  1  1  0  0  0  0
 12 20  1  0  0  0  0
 12 10  2  0  0  0  0
 13  7  2  0  0  0  0
 13  6  1  0  0  0  0
 14 10  1  0  0  0  0
 14  1  2  0  0  0  0
 17 18  1  0  0  0  0
 18 12  1  0  0  0  0
 19  3  1  0  0  0  0
 20 21  2  0  0  0  0
 23 22  1  0  0  0  0
 24 23  1  0  0  0  0
 25 24  1  0  0  0  0
 25 27  1  0  0  0  0
 27 29  1  0  0  0  0
 27 26  1  0  0  0  0
 28 27  2  0  0  0  0
M  END
>  <MODEL>
5

>  <REMARK>
 VINA RESULT:      -8.3      2.808      4.227
  Name = 
  6 active torsions:
  status: ('A' for Active; 'I' for Inactive)
    1  A    between atoms: O_2  and  P_16
    2  A    between atoms: O_2  and  C_26
    3  A    between atoms: C_9  and  C_25
    4  A    between atoms: C_13  and  C_21
    5  A    between atoms: C_22  and  C_25
    6  A    between atoms: C_22  and  C_26
                            x       y       z     vdW  Elec       q    Type
                         _______ _______ _______ _____ _____    ______ ____

>  <TORSDO>
F 6

$$$$
=
 OpenBabel10222418473D

 29 32  0  0  1  0  0  0  0  0999 V2000
  184.9400  178.8310  146.5910 C   0  0  0  0  0  3  0  0  0  0  0  0
  191.0290  176.0120  141.4880 N   0  0  0  0  0  2  0  0  0  0  0  0
  190.1850  175.8990  143.8030 C   0  0  0  0  0  2  0  0  0  0  0  0
  187.0510  177.6590  143.8180 C   0  0  0  0  0  0  0  0  0  0  0  0
  188.4300  176.7890  142.2180 C   0  0  1  0  0  3  0  0  0  0  0  0
  183.6280  178.7890  144.6090 C   0  0  0  0  0  3  0  0  0  0  0  0
  185.9390  178.1270  144.5070 C   0  0  0  0  0  0  0  0  0  0  0  0
  190.6480  177.3640  141.0790 C   0  0  2  0  0  3  0  0  0  0  0  0
  187.1300  177.3210  142.4800 O   0  0  0  0  0  0  0  0  0  0  0  0
  187.3100  178.1730  146.5450 C   0  0  0  0  0  0  0  0  0  0  0  0
  183.7600  179.0260  145.9420 N   0  0  0  0  0  0  0  0  0  0  0  0
  188.4390  177.7330  145.8040 C   0  0  0  0  0  0  0  0  0  0  0  0
  184.7170  178.3330  143.8650 C   0  0  0  0  0  3  0  0  0  0  0  0
  186.0660  178.3750  145.8940 C   0  0  0  0  0  0  0  0  0  0  0  0
  189.1270  177.5780  141.1100 C   0  0  0  0  0  2  0  0  0  0  0  0
  187.4630  178.5200  148.2720 Cl  0  0  0  0  0  0  0  0  0  0  0  0
  189.1640  176.8910  143.4870 N   0  0  0  0  0  0  0  0  0  0  0  0
  188.2500  177.4420  144.4340 C   0  0  0  0  0  0  0  0  0  0  0  0
  191.4030  176.0780  142.8970 C   0  0  0  0  0  2  0  0  0  0  0  0
  189.7520  177.6650  146.4780 C   0  0  0  0  0  3  0  0  0  0  0  0
  190.1270  176.6600  147.2590 C   0  0  0  0  0  2  0  0  0  0  0  0
  191.2270  177.7020  139.7100 C   0  0  0  0  0  2  0  0  0  0  0  0
  191.1920  176.5070  138.7660 C   0  0  0  0  0  2  0  0  0  0  0  0
  192.4160  176.5150  137.8700 C   0  0  0  0  0  2  0  0  0  0  0  0
  193.5650  176.2860  138.6290 O   0  0  0  0  0  0  0  0  0  0  0  0
  193.2340  173.9100  137.2290 O   0  0  0  0  0  1  0  0  0  0  0  0
  194.3630  174.9970  137.8680 P   0  0  0  0  0  0  0  0  0  0  0  0
  195.2450  175.5210  136.7560 O   0  0  0  0  0  0  0  0  0  0  0  0
  195.3230  174.1930  139.0030 O   0  0  0  0  0  1  0  0  0  0  0  0
  2 19  1  0  0  0  0
  4 18  2  0  0  0  0
  4  7  1  0  0  0  0
  5 15  1  6  0  0  0
  5  9  1  0  0  0  0
  5 17  1  0  0  0  0
  6 11  2  0  0  0  0
  7 14  1  0  0  0  0
  8 22  1  6  0  0  0
  8 15  1  0  0  0  0
  8  2  1  0  0  0  0
  9  4  1  0  0  0  0
 10 16  1  0  0  0  0
 11  1  1  0  0  0  0
 12 20  1  0  0  0  0
 12 10  2  0  0  0  0
 13  7  2  0  0  0  0
 13  6  1  0  0  0  0
 14 10  1  0  0  0  0
 14  1  2  0  0  0  0
 17  3  1  0  0  0  0
 17 18  1  0  0  0  0
 18 12  1  0  0  0  0
 19  3  1  0  0  0  0
 20 21  2  0  0  0  0
 23 22  1  0  0  0  0
 24 25  1  0  0  0  0
 24 23  1  0  0  0  0
 26 27  1  0  0  0  0
 27 25  1  0  0  0  0
 27 29  1  0  0  0  0
 28 27  2  0  0  0  0
M  END
>  <MODEL>
6

>  <REMARK>
 VINA RESULT:      -8.1      2.199      3.997
  Name = 
  6 active torsions:
  status: ('A' for Active; 'I' for Inactive)
    1  A    between atoms: O_2  and  P_16
    2  A    between atoms: O_2  and  C_26
    3  A    between atoms: C_9  and  C_25
    4  A    between atoms: C_13  and  C_21
    5  A    between atoms: C_22  and  C_25
    6  A    between atoms: C_22  and  C_26
                            x       y       z     vdW  Elec       q    Type
                         _______ _______ _______ _____ _____    ______ ____

>  <TORSDO>
F 6

$$$$
=
 OpenBabel10222418473D

 29 32  0  0  1  0  0  0  0  0999 V2000
  189.2390  176.9730  146.8440 C   0  0  0  0  0  3  0  0  0  0  0  0
  189.3330  177.9450  138.4700 N   0  0  0  0  0  2  0  0  0  0  0  0
  188.1770  178.6640  140.5280 C   0  0  0  0  0  2  0  0  0  0  0  0
  190.0400  177.2710  143.2680 C   0  0  0  0  0  0  0  0  0  0  0  0
  190.4170  177.6150  141.0410 C   0  0  1  0  0  3  0  0  0  0  0  0
  191.5840  176.6950  146.5700 C   0  0  0  0  0  3  0  0  0  0  0  0
  190.2090  177.0840  144.6340 C   0  0  0  0  0  0  0  0  0  0  0  0
  189.7440  176.5810  138.8000 C   0  0  2  0  0  3  0  0  0  0  0  0
  191.0220  177.2880  142.2940 O   0  0  0  0  0  0  0  0  0  0  0  0
  187.7830  177.3660  144.9000 C   0  0  0  0  0  0  0  0  0  0  0  0
  190.4790  176.7550  147.3600 N   0  0  0  0  0  0  0  0  0  0  0  0
  187.6390  177.5130  143.4950 C   0  0  0  0  0  0  0  0  0  0  0  0
  191.4710  176.8600  145.1890 C   0  0  0  0  0  3  0  0  0  0  0  0
  189.0650  177.1460  145.4640 C   0  0  0  0  0  0  0  0  0  0  0  0
  190.7000  176.5310  140.0020 C   0  0  0  0  0  2  0  0  0  0  0  0
  186.3590  177.4070  145.9470 Cl  0  0  0  0  0  0  0  0  0  0  0  0
  188.9780  177.7320  141.3120 N   0  0  0  0  0  0  0  0  0  0  0  0
  188.8150  177.5030  142.7110 C   0  0  0  0  0  0  0  0  0  0  0  0
  188.0300  178.1640  139.0900 C   0  0  0  0  0  2  0  0  0  0  0  0
  186.2800  177.6010  142.9230 C   0  0  0  0  0  3  0  0  0  0  0  0
  185.5530  178.7110  142.9230 C   0  0  0  0  0  2  0  0  0  0  0  0
  190.3470  175.8850  137.5850 C   0  0  0  0  0  2  0  0  0  0  0  0
  189.6620  174.5570  137.2900 C   0  0  0  0  0  2  0  0  0  0  0  0
  188.2170  174.7920  136.8920 C   0  0  0  0  0  2  0  0  0  0  0  0
  187.4820  173.6140  137.0450 O   0  0  0  0  0  0  0  0  0  0  0  0
  185.3140  173.7520  135.3140 O   0  0  0  0  0  0  0  0  0  0  0  0
  185.8560  174.0690  136.8850 P   0  0  0  0  0  0  0  0  0  0  0  0
  185.0060  173.3050  137.8760 O   0  0  0  0  0  1  0  0  0  0  0  0
  185.7120  175.7250  137.1940 O   0  0  0  0  0  1  0  0  0  0  0  0
  1 11  1  0  0  0  0
  2  8  1  0  0  0  0
  2 19  1  0  0  0  0
  3 17  1  0  0  0  0
  4  7  1  0  0  0  0
  5 15  1  6  0  0  0
  5 17  1  0  0  0  0
  5  9  1  0  0  0  0
  6 11  2  0  0  0  0
  7 13  2  0  0  0  0
  7 14  1  0  0  0  0
  8 22  1  6  0  0  0
  8 15  1  0  0  0  0
  9  4  1  0  0  0  0
 10 14  1  0  0  0  0
 10 16  1  0  0  0  0
 12 10  2  0  0  0  0
 13  6  1  0  0  0  0
 14  1  2  0  0  0  0
 17 18  1  0  0  0  0
 18  4  2  0  0  0  0
 18 12  1  0  0  0  0
 19  3  1  0  0  0  0
 20 21  2  0  0  0  0
 20 12  1  0  0  0  0
 23 22  1  0  0  0  0
 24 25  1  0  0  0  0
 24 23  1  0  0  0  0
 26 27  2  0  0  0  0
 27 25  1  0  0  0  0
 27 29  1  0  0  0  0
 27 28  1  0  0  0  0
M  END
>  <MODEL>
7

>  <REMARK>
 VINA RESULT:      -8.0      3.613      4.186
  Name = 
  6 active torsions:
  status: ('A' for Active; 'I' for Inactive)
    1  A    between atoms: O_2  and  P_16
    2  A    between atoms: O_2  and  C_26
    3  A    between atoms: C_9  and  C_25
    4  A    between atoms: C_13  and  C_21
    5  A    between atoms: C_22  and  C_25
    6  A    between atoms: C_22  and  C_26
                            x       y       z     vdW  Elec       q    Type
                         _______ _______ _______ _____ _____    ______ ____

>  <TORSDO>
F 6

$$$$
=
 OpenBabel10222418473D

 29 32  0  0  1  0  0  0  0  0999 V2000
  190.2460  177.1430  143.2040 C   0  0  0  0  0  3  0  0  0  0  0  0
  182.1800  179.5180  142.5790 N   0  0  0  0  0  2  0  0  0  0  0  0
  184.1460  179.5780  144.0690 C   0  0  0  0  0  2  0  0  0  0  0  0
  186.8860  178.2280  142.1750 C   0  0  0  0  0  0  0  0  0  0  0  0
  184.8000  179.0250  141.6920 C   0  0  1  0  0  3  0  0  0  0  0  0
  190.2490  177.4840  140.8510 C   0  0  0  0  0  3  0  0  0  0  0  0
  188.2220  177.8560  142.0920 C   0  0  0  0  0  0  0  0  0  0  0  0
  182.3660  178.2560  141.8640 C   0  0  2  0  0  3  0  0  0  0  0  0
  186.0640  178.6440  141.1440 O   0  0  0  0  0  0  0  0  0  0  0  0
  188.1990  177.5000  144.5230 C   0  0  0  0  0  0  0  0  0  0  0  0
  190.8860  177.1430  142.0030 N   0  0  0  0  0  0  0  0  0  0  0  0
  186.8230  177.8450  144.5680 C   0  0  0  0  0  0  0  0  0  0  0  0
  188.9030  177.8500  140.8730 C   0  0  0  0  0  3  0  0  0  0  0  0
  188.8930  177.5010  143.2860 C   0  0  0  0  0  0  0  0  0  0  0  0
  183.6660  178.2330  141.0450 C   0  0  0  0  0  2  0  0  0  0  0  0
  189.0430  177.0210  146.0010 Cl  0  0  0  0  0  0  0  0  0  0  0  0
  184.8900  178.7460  143.1320 N   0  0  0  0  0  0  0  0  0  0  0  0
  186.2090  178.2500  143.3610 C   0  0  0  0  0  0  0  0  0  0  0  0
  182.6450  179.3100  143.9470 C   0  0  0  0  0  2  0  0  0  0  0  0
  186.0930  177.7020  145.8440 C   0  0  0  0  0  3  0  0  0  0  0  0
  186.0790  178.6300  146.7910 C   0  0  0  0  0  2  0  0  0  0  0  0
  181.1560  177.9420  140.9920 C   0  0  0  0  0  2  0  0  0  0  0  0
  180.0850  179.0210  141.0930 C   0  0  0  0  0  2  0  0  0  0  0  0
  179.8610  179.6610  139.7360 C   0  0  0  0  0  2  0  0  0  0  0  0
  180.4550  180.9250  139.7020 O   0  0  0  0  0  0  0  0  0  0  0  0
  183.0530  181.0600  138.7280 O   0  0  0  0  0  1  0  0  0  0  0  0
  181.4180  180.9360  138.3060 P   0  0  0  0  0  0  0  0  0  0  0  0
  181.1970  179.6650  137.5160 O   0  0  0  0  0  1  0  0  0  0  0  0
  180.9920  182.2630  137.3490 O   0  0  0  0  0  0  0  0  0  0  0  0
  1 14  1  0  0  0  0
  2 19  1  0  0  0  0
  4 18  1  0  0  0  0
  5 15  1  6  0  0  0
  5 17  1  0  0  0  0
  6 13  2  0  0  0  0
  6 11  1  0  0  0  0
  7  4  2  0  0  0  0
  7 14  1  0  0  0  0
  8 22  1  6  0  0  0
  8  2  1  0  0  0  0
  9  5  1  0  0  0  0
  9  4  1  0  0  0  0
 10 12  1  0  0  0  0
 10 16  1  0  0  0  0
 11  1  2  0  0  0  0
 12 20  1  0  0  0  0
 13  7  1  0  0  0  0
 14 10  2  0  0  0  0
 15  8  1  0  0  0  0
 17 18  1  0  0  0  0
 17  3  1  0  0  0  0
 18 12  2  0  0  0  0
 19  3  1  0  0  0  0
 20 21  2  0  0  0  0
 22 23  1  0  0  0  0
 24 23  1  0  0  0  0
 25 24  1  0  0  0  0
 27 26  1  0  0  0  0
 27 25  1  0  0  0  0
 28 27  1  0  0  0  0
 29 27  2  0  0  0  0
M  END
>  <MODEL>
8

>  <REMARK>
 VINA RESULT:      -7.6      5.942      8.722
  Name = 
  6 active torsions:
  status: ('A' for Active; 'I' for Inactive)
    1  A    between atoms: O_2  and  P_16
    2  A    between atoms: O_2  and  C_26
    3  A    between atoms: C_9  and  C_25
    4  A    between atoms: C_13  and  C_21
    5  A    between atoms: C_22  and  C_25
    6  A    between atoms: C_22  and  C_26
                            x       y       z     vdW  Elec       q    Type
                         _______ _______ _______ _____ _____    ______ ____

>  <TORSDO>
F 6

$$$$
=
 OpenBabel10222418473D

 29 32  0  0  1  0  0  0  0  0999 V2000
  189.7590  177.3210  145.7850 C   0  0  0  0  0  3  0  0  0  0  0  0
  185.6480  179.0100  138.6210 N   0  0  0  0  0  2  0  0  0  0  0  0
  185.5970  179.3800  141.0600 C   0  0  0  0  0  2  0  0  0  0  0  0
  188.6730  178.0350  142.3450 C   0  0  0  0  0  0  0  0  0  0  0  0
  187.8780  178.6180  140.2850 C   0  0  1  0  0  3  0  0  0  0  0  0
  191.6800  177.4020  144.3880 C   0  0  0  0  0  3  0  0  0  0  0  0
  189.5050  177.7570  143.4220 C   0  0  0  0  0  0  0  0  0  0  0  0
  186.2770  177.6950  138.5140 C   0  0  2  0  0  3  0  0  0  0  0  0
  189.0440  178.2740  141.0350 O   0  0  0  0  0  0  0  0  0  0  0  0
  187.5090  177.6690  144.8510 C   0  0  0  0  0  0  0  0  0  0  0  0
  191.1050  177.2370  145.6090 N   0  0  0  0  0  0  0  0  0  0  0  0
  186.6820  177.9140  143.7230 C   0  0  0  0  0  0  0  0  0  0  0  0
  190.8900  177.6670  143.2680 C   0  0  0  0  0  3  0  0  0  0  0  0
  188.9160  177.5850  144.6960 C   0  0  0  0  0  0  0  0  0  0  0  0
  187.7010  177.6780  139.0930 C   0  0  0  0  0  2  0  0  0  0  0  0
  186.7850  177.4190  146.4450 Cl  0  0  0  0  0  0  0  0  0  0  0  0
  186.7530  178.5070  141.2230 N   0  0  0  0  0  0  0  0  0  0  0  0
  187.3180  178.1380  142.4810 C   0  0  0  0  0  0  0  0  0  0  0  0
  184.8040  178.9890  139.8120 C   0  0  0  0  0  2  0  0  0  0  0  0
  185.2150  177.8590  143.8890 C   0  0  0  0  0  3  0  0  0  0  0  0
  184.4920  178.8550  144.3820 C   0  0  0  0  0  2  0  0  0  0  0  0
  186.2600  177.1990  137.0730 C   0  0  0  0  0  2  0  0  0  0  0  0
  187.5890  177.4390  136.3710 C   0  0  0  0  0  2  0  0  0  0  0  0
  188.1890  176.1200  135.9230 C   0  0  0  0  0  2  0  0  0  0  0  0
  188.4340  175.3070  137.0320 O   0  0  0  0  0  0  0  0  0  0  0  0
  190.7700  176.2950  138.1660 O   0  0  0  0  0  1  0  0  0  0  0  0
  190.1200  175.1420  137.1100 P   0  0  0  0  0  0  0  0  0  0  0  0
  190.4820  173.7550  137.5920 O   0  0  0  0  0  1  0  0  0  0  0  0
  190.7710  175.3780  135.5670 O   0  0  0  0  0  0  0  0  0  0  0  0
  2 19  1  0  0  0  0
  3 17  1  0  0  0  0
  4 18  2  0  0  0  0
  4  7  1  0  0  0  0
  5 15  1  6  0  0  0
  5  9  1  0  0  0  0
  5 17  1  0  0  0  0
  6 11  2  0  0  0  0
  7 14  1  0  0  0  0
  8 22  1  6  0  0  0
  8  2  1  0  0  0  0
  8 15  1  0  0  0  0
  9  4  1  0  0  0  0
 10 16  1  0  0  0  0
 11  1  1  0  0  0  0
 12 20  1  0  0  0  0
 12 10  2  0  0  0  0
 13  7  2  0  0  0  0
 13  6  1  0  0  0  0
 14 10  1  0  0  0  0
 14  1  2  0  0  0  0
 17 18  1  0  0  0  0
 18 12  1  0  0  0  0
 19  3  1  0  0  0  0
 20 21  2  0  0  0  0
 23 22  1  0  0  0  0
 24 23  1  0  0  0  0
 24 25  1  0  0  0  0
 25 27  1  0  0  0  0
 27 28  1  0  0  0  0
 27 26  1  0  0  0  0
 29 27  2  0  0  0  0
M  END
>  <MODEL>
9

>  <REMARK>
 VINA RESULT:      -7.4      2.920      3.443
  Name = 
  6 active torsions:
  status: ('A' for Active; 'I' for Inactive)
    1  A    between atoms: O_2  and  P_16
    2  A    between atoms: O_2  and  C_26
    3  A    between atoms: C_9  and  C_25
    4  A    between atoms: C_13  and  C_21
    5  A    between atoms: C_22  and  C_25
    6  A    between atoms: C_22  and  C_26
                            x       y       z     vdW  Elec       q    Type
                         _______ _______ _______ _____ _____    ______ ____

>  <TORSDO>
F 6

$$$$
