=
 OpenBabel10222418263D

 26 29  0  0  0  0  0  0  0  0999 V2000
  185.1270  178.5590  145.6530 C   0  0  0  0  0  3  0  0  0  0  0  0
  189.2010  178.0180  139.7010 C   0  0  0  0  0  0  0  0  0  0  0  0
  191.5300  177.3220  139.8010 O   0  0  0  0  0  1  0  0  0  0  0  0
  186.4620  178.2990  143.6300 C   0  0  0  0  0  0  0  0  0  0  0  0
  188.7820  177.5030  143.8730 O   0  0  0  0  0  0  0  0  0  0  0  0
  187.9750  178.2010  141.7470 C   0  0  0  0  0  0  0  0  0  0  0  0
  190.2380  177.4480  141.8640 C   0  0  0  0  0  0  0  0  0  0  0  0
  189.2490  178.1180  138.2130 C   0  0  0  0  0  1  0  0  0  0  0  0
  186.1260  177.9560  146.4120 C   0  0  0  0  0  3  0  0  0  0  0  0
  189.0190  177.7290  142.5120 C   0  0  0  0  0  0  0  0  0  0  0  0
  185.2770  178.7490  144.2720 C   0  0  0  0  0  0  0  0  0  0  0  0
  187.5190  177.7820  144.4440 C   0  0  0  0  0  0  0  0  0  0  0  0
  190.3320  177.6020  140.4520 C   0  0  0  0  0  0  0  0  0  0  0  0
  191.4060  176.9590  142.6530 C   0  0  0  0  0  1  0  0  0  0  0  0
  186.0270  178.6130  141.0530 C   0  0  0  0  0  0  0  0  0  0  0  0
  186.7440  178.4280  142.2070 N   0  0  0  0  0  0  0  0  0  0  0  0
  187.3260  177.5770  145.8160 C   0  0  0  0  0  0  0  0  0  0  0  0
  186.7950  178.5530  139.9260 N   0  0  0  0  0  0  0  0  0  0  0  0
  184.5460  178.6380  140.9460 C   0  0  0  0  0  1  0  0  0  0  0  0
  188.0260  178.3010  140.4030 C   0  0  0  0  0  0  0  0  0  0  0  0
  188.3980  176.9690  146.6640 C   0  0  0  0  0  2  0  0  0  0  0  0
  188.1700  177.2680  148.1380 C   0  0  0  0  0  2  0  0  0  0  0  0
  189.0850  178.3850  148.6040 C   0  0  0  0  0  1  0  0  0  0  0  0
  184.2430  179.5870  143.5960 C   0  0  0  0  0  2  0  0  0  0  0  0
  181.8220  178.7320  144.1500 N   0  0  0  0  0  0  0  0  0  0  0  0
  182.8890  179.1090  143.9050 C   0  0  0  0  0  0  0  0  0  0  0  0
  1  9  1  0  0  0  0
  2 20  2  0  0  0  0
  2 13  1  0  0  0  0
  3 13  1  0  0  0  0
  4 11  1  0  0  0  0
  4 12  2  0  0  0  0
  5 12  1  0  0  0  0
  6 16  1  0  0  0  0
  6 10  2  0  0  0  0
  7 10  1  0  0  0  0
  7 14  1  0  0  0  0
  8  2  1  0  0  0  0
 10  5  1  0  0  0  0
 11  1  2  0  0  0  0
 12 17  1  0  0  0  0
 13  7  2  0  0  0  0
 15 16  1  0  0  0  0
 16  4  1  0  0  0  0
 17  9  2  0  0  0  0
 17 21  1  0  0  0  0
 18 20  1  0  0  0  0
 18 15  2  0  0  0  0
 19 15  1  0  0  0  0
 20  6  1  0  0  0  0
 21 22  1  0  0  0  0
 22 23  1  0  0  0  0
 24 26  1  0  0  0  0
 24 11  1  0  0  0  0
 26 25  3  0  0  0  0
M  END
>  <MODEL>
1

>  <REMARK>
 VINA RESULT:      -9.4      0.000      0.000
  Name = 
  4 active torsions:
  status: ('A' for Active; 'I' for Inactive)
    1  A    between atoms: C_3  and  C_12
    2  A    between atoms: C_8  and  C_25
    3  A    between atoms: C_12  and  C_22
    4  A    between atoms: C_16  and  C_25
                            x       y       z     vdW  Elec       q    Type
                         _______ _______ _______ _____ _____    ______ ____

>  <TORSDO>
F 4

$$$$
=
 OpenBabel10222418263D

 26 29  0  0  0  0  0  0  0  0999 V2000
  186.7550  177.8220  146.1040 C   0  0  0  0  0  3  0  0  0  0  0  0
  191.0930  177.3640  140.3340 C   0  0  0  0  0  0  0  0  0  0  0  0
  190.2260  177.4880  138.0650 O   0  0  0  0  0  1  0  0  0  0  0  0
  188.2400  177.7510  144.1710 C   0  0  0  0  0  0  0  0  0  0  0  0
  187.2320  177.9750  141.9340 O   0  0  0  0  0  0  0  0  0  0  0  0
  189.5480  177.4830  142.1570 C   0  0  0  0  0  0  0  0  0  0  0  0
  188.6800  177.6780  139.9410 C   0  0  0  0  0  0  0  0  0  0  0  0
  192.4960  177.2520  139.8390 C   0  0  0  0  0  1  0  0  0  0  0  0
  185.6820  178.1720  145.2900 C   0  0  0  0  0  3  0  0  0  0  0  0
  188.4650  177.6960  141.3330 C   0  0  0  0  0  0  0  0  0  0  0  0
  188.0320  177.5970  145.5690 C   0  0  0  0  0  0  0  0  0  0  0  0
  187.1030  178.0060  143.3410 C   0  0  0  0  0  0  0  0  0  0  0  0
  190.0010  177.5020  139.4390 C   0  0  0  0  0  0  0  0  0  0  0  0
  187.5350  177.8780  139.0060 C   0  0  0  0  0  1  0  0  0  0  0  0
  190.8400  177.5430  143.8210 C   0  0  0  0  0  0  0  0  0  0  0  0
  189.5110  177.5560  143.4870 N   0  0  0  0  0  0  0  0  0  0  0  0
  185.8470  178.2540  143.9100 C   0  0  0  0  0  0  0  0  0  0  0  0
  191.6660  177.4160  142.7420 N   0  0  0  0  0  0  0  0  0  0  0  0
  191.4030  177.8690  145.1560 C   0  0  0  0  0  1  0  0  0  0  0  0
  190.8130  177.3700  141.7040 C   0  0  0  0  0  0  0  0  0  0  0  0
  184.6660  178.5920  143.0560 C   0  0  0  0  0  2  0  0  0  0  0  0
  183.4750  179.0110  143.9030 C   0  0  0  0  0  2  0  0  0  0  0  0
  182.2030  179.0030  143.0770 C   0  0  0  0  0  1  0  0  0  0  0  0
  189.0550  177.0270  146.4940 C   0  0  0  0  0  2  0  0  0  0  0  0
  189.0220  178.2530  148.8170 N   0  0  0  0  0  0  0  0  0  0  0  0
  189.0360  177.7130  147.7930 C   0  0  0  0  0  0  0  0  0  0  0  0
  2 20  1  0  0  0  0
  3 13  1  0  0  0  0
  4 11  2  0  0  0  0
  5 12  1  0  0  0  0
  6 16  1  0  0  0  0
  7 10  2  0  0  0  0
  8  2  1  0  0  0  0
  9  1  2  0  0  0  0
 10  5  1  0  0  0  0
 10  6  1  0  0  0  0
 11  1  1  0  0  0  0
 11 24  1  0  0  0  0
 12 17  2  0  0  0  0
 12  4  1  0  0  0  0
 13  7  1  0  0  0  0
 13  2  2  0  0  0  0
 14  7  1  0  0  0  0
 15 19  1  0  0  0  0
 16 15  1  0  0  0  0
 16  4  1  0  0  0  0
 17  9  1  0  0  0  0
 18 15  2  0  0  0  0
 20  6  2  0  0  0  0
 20 18  1  0  0  0  0
 21 22  1  0  0  0  0
 21 17  1  0  0  0  0
 23 22  1  0  0  0  0
 24 26  1  0  0  0  0
 26 25  3  0  0  0  0
M  END
>  <MODEL>
2

>  <REMARK>
 VINA RESULT:      -9.2      2.222      4.666
  Name = 
  4 active torsions:
  status: ('A' for Active; 'I' for Inactive)
    1  A    between atoms: C_3  and  C_12
    2  A    between atoms: C_8  and  C_25
    3  A    between atoms: C_12  and  C_22
    4  A    between atoms: C_16  and  C_25
                            x       y       z     vdW  Elec       q    Type
                         _______ _______ _______ _____ _____    ______ ____

>  <TORSDO>
F 4

$$$$
=
 OpenBabel10222418263D

 26 29  0  0  0  0  0  0  0  0999 V2000
  188.9270  177.1140  147.1720 C   0  0  0  0  0  3  0  0  0  0  0  0
  188.3300  178.1890  140.0440 C   0  0  0  0  0  0  0  0  0  0  0  0
  186.1860  178.6530  138.9920 O   0  0  0  0  0  1  0  0  0  0  0  0
  188.7550  177.5580  144.7810 C   0  0  0  0  0  0  0  0  0  0  0  0
  186.5320  178.1010  143.8650 O   0  0  0  0  0  0  0  0  0  0  0  0
  188.3870  177.8070  142.4050 C   0  0  0  0  0  0  0  0  0  0  0  0
  186.2810  178.3310  141.4070 C   0  0  0  0  0  0  0  0  0  0  0  0
  189.0460  178.3110  138.7400 C   0  0  0  0  0  1  0  0  0  0  0  0
  187.6040  177.5050  147.3580 C   0  0  0  0  0  3  0  0  0  0  0  0
  187.0420  178.0640  142.5620 C   0  0  0  0  0  0  0  0  0  0  0  0
  189.5160  177.1230  145.8990 C   0  0  0  0  0  0  0  0  0  0  0  0
  187.3690  177.8520  144.9770 C   0  0  0  0  0  0  0  0  0  0  0  0
  186.9280  178.3850  140.1400 C   0  0  0  0  0  0  0  0  0  0  0  0
  184.8170  178.5910  141.5220 C   0  0  0  0  0  1  0  0  0  0  0  0
  190.4570  177.6780  142.7770 C   0  0  0  0  0  0  0  0  0  0  0  0
  189.2430  177.6220  143.4100 N   0  0  0  0  0  0  0  0  0  0  0  0
  186.8190  177.8630  146.2660 C   0  0  0  0  0  0  0  0  0  0  0  0
  190.3540  177.8400  141.4260 N   0  0  0  0  0  0  0  0  0  0  0  0
  191.7790  177.8000  143.4430 C   0  0  0  0  0  1  0  0  0  0  0  0
  189.0270  177.9070  141.2220 C   0  0  0  0  0  0  0  0  0  0  0  0
  185.3880  178.2370  146.4910 C   0  0  0  0  0  2  0  0  0  0  0  0
  184.9270  179.2800  145.4840 C   0  0  0  0  0  2  0  0  0  0  0  0
  183.5220  178.9720  145.0030 C   0  0  0  0  0  1  0  0  0  0  0  0
  190.8640  176.4920  145.7810 C   0  0  0  0  0  2  0  0  0  0  0  0
  192.2050  176.6980  148.0290 N   0  0  0  0  0  0  0  0  0  0  0  0
  191.6150  176.6070  147.0380 C   0  0  0  0  0  0  0  0  0  0  0  0
  1  9  1  0  0  0  0
  2 13  2  0  0  0  0
  2 20  1  0  0  0  0
  3 13  1  0  0  0  0
  4 12  2  0  0  0  0
  4 11  1  0  0  0  0
  5 12  1  0  0  0  0
  6 10  1  0  0  0  0
  6 16  1  0  0  0  0
  7 14  1  0  0  0  0
  7 10  2  0  0  0  0
  8  2  1  0  0  0  0
 10  5  1  0  0  0  0
 11  1  2  0  0  0  0
 12 17  1  0  0  0  0
 13  7  1  0  0  0  0
 15 16  1  0  0  0  0
 15 19  1  0  0  0  0
 16  4  1  0  0  0  0
 17 21  1  0  0  0  0
 17  9  2  0  0  0  0
 18 15  2  0  0  0  0
 20 18  1  0  0  0  0
 20  6  2  0  0  0  0
 22 21  1  0  0  0  0
 23 22  1  0  0  0  0
 24 11  1  0  0  0  0
 24 26  1  0  0  0  0
 26 25  3  0  0  0  0
M  END
>  <MODEL>
3

>  <REMARK>
 VINA RESULT:      -9.1      2.483      4.940
  Name = 
  4 active torsions:
  status: ('A' for Active; 'I' for Inactive)
    1  A    between atoms: C_3  and  C_12
    2  A    between atoms: C_8  and  C_25
    3  A    between atoms: C_12  and  C_22
    4  A    between atoms: C_16  and  C_25
                            x       y       z     vdW  Elec       q    Type
                         _______ _______ _______ _____ _____    ______ ____

>  <TORSDO>
F 4

$$$$
=
 OpenBabel10222418263D

 26 29  0  0  0  0  0  0  0  0999 V2000
  191.5440  176.6120  143.1510 C   0  0  0  0  0  3  0  0  0  0  0  0
  184.6480  178.7490  143.6040 C   0  0  0  0  0  0  0  0  0  0  0  0
  183.5040  178.9400  145.7420 O   0  0  0  0  0  1  0  0  0  0  0  0
  189.2470  177.4150  143.2930 C   0  0  0  0  0  0  0  0  0  0  0  0
  188.2410  177.6430  145.5320 O   0  0  0  0  0  0  0  0  0  0  0  0
  186.9170  177.9870  143.5860 C   0  0  0  0  0  0  0  0  0  0  0  0
  185.8370  178.2350  145.7020 C   0  0  0  0  0  0  0  0  0  0  0  0
  183.4460  179.2360  142.8670 C   0  0  0  0  0  1  0  0  0  0  0  0
  191.6750  176.6880  144.5340 C   0  0  0  0  0  3  0  0  0  0  0  0
  186.9960  177.9340  144.9610 C   0  0  0  0  0  0  0  0  0  0  0  0
  190.3440  176.9590  142.5140 C   0  0  0  0  0  0  0  0  0  0  0  0
  189.3670  177.3820  144.7190 C   0  0  0  0  0  0  0  0  0  0  0  0
  184.6540  178.6350  145.0190 C   0  0  0  0  0  0  0  0  0  0  0  0
  185.8660  178.1670  147.1920 C   0  0  0  0  0  1  0  0  0  0  0  0
  187.4390  178.2210  141.5580 C   0  0  0  0  0  0  0  0  0  0  0  0
  187.9490  177.8110  142.7620 N   0  0  0  0  0  0  0  0  0  0  0  0
  190.5900  177.0600  145.3220 C   0  0  0  0  0  0  0  0  0  0  0  0
  186.1270  178.5880  141.6250 N   0  0  0  0  0  0  0  0  0  0  0  0
  188.2270  178.4940  140.3290 C   0  0  0  0  0  1  0  0  0  0  0  0
  185.8230  178.4170  142.9230 C   0  0  0  0  0  0  0  0  0  0  0  0
  190.7480  177.0910  146.8090 C   0  0  0  0  0  2  0  0  0  0  0  0
  191.2240  175.7480  147.3410 C   0  0  0  0  0  2  0  0  0  0  0  0
  192.5650  175.8930  148.0350 C   0  0  0  0  0  1  0  0  0  0  0  0
  190.2430  176.6450  141.0580 C   0  0  0  0  0  2  0  0  0  0  0  0
  192.4250  177.3620  139.7840 N   0  0  0  0  0  0  0  0  0  0  0  0
  191.4630  177.0460  140.3440 C   0  0  0  0  0  0  0  0  0  0  0  0
  1  9  1  0  0  0  0
  2 13  1  0  0  0  0
  4 12  2  0  0  0  0
  6 10  2  0  0  0  0
  7 14  1  0  0  0  0
  8  2  1  0  0  0  0
  9 17  2  0  0  0  0
 10  5  1  0  0  0  0
 10  7  1  0  0  0  0
 11  1  2  0  0  0  0
 11  4  1  0  0  0  0
 12 17  1  0  0  0  0
 12  5  1  0  0  0  0
 13  7  2  0  0  0  0
 13  3  1  0  0  0  0
 15 18  2  0  0  0  0
 15 16  1  0  0  0  0
 16  4  1  0  0  0  0
 16  6  1  0  0  0  0
 17 21  1  0  0  0  0
 18 20  1  0  0  0  0
 19 15  1  0  0  0  0
 20  6  1  0  0  0  0
 20  2  2  0  0  0  0
 21 22  1  0  0  0  0
 22 23  1  0  0  0  0
 24 11  1  0  0  0  0
 25 26  3  0  0  0  0
 26 24  1  0  0  0  0
M  END
>  <MODEL>
4

>  <REMARK>
 VINA RESULT:      -9.0      2.250      5.690
  Name = 
  4 active torsions:
  status: ('A' for Active; 'I' for Inactive)
    1  A    between atoms: C_3  and  C_12
    2  A    between atoms: C_8  and  C_25
    3  A    between atoms: C_12  and  C_22
    4  A    between atoms: C_16  and  C_25
                            x       y       z     vdW  Elec       q    Type
                         _______ _______ _______ _____ _____    ______ ____

>  <TORSDO>
F 4

$$$$
=
 OpenBabel10222418263D

 26 29  0  0  0  0  0  0  0  0999 V2000
  187.5770  177.7200  145.7950 C   0  0  0  0  0  3  0  0  0  0  0  0
  188.0750  178.2610  138.5990 C   0  0  0  0  0  0  0  0  0  0  0  0
  190.1530  177.8040  137.4200 O   0  0  0  0  0  1  0  0  0  0  0  0
  187.7060  177.8250  143.3630 C   0  0  0  0  0  0  0  0  0  0  0  0
  189.8520  177.2510  142.2960 O   0  0  0  0  0  0  0  0  0  0  0  0
  188.0530  178.0900  140.9860 C   0  0  0  0  0  0  0  0  0  0  0  0
  190.0860  177.5680  139.8460 C   0  0  0  0  0  0  0  0  0  0  0  0
  187.3560  178.5290  137.3200 C   0  0  0  0  0  1  0  0  0  0  0  0
  188.8430  177.1450  145.8560 C   0  0  0  0  0  3  0  0  0  0  0  0
  189.3560  177.6490  141.0480 C   0  0  0  0  0  0  0  0  0  0  0  0
  186.9970  178.0760  144.5690 C   0  0  0  0  0  0  0  0  0  0  0  0
  189.0470  177.3330  143.4550 C   0  0  0  0  0  0  0  0  0  0  0  0
  189.4430  177.8860  138.6150 C   0  0  0  0  0  0  0  0  0  0  0  0
  191.5080  177.1190  139.8640 C   0  0  0  0  0  1  0  0  0  0  0  0
  186.0110  178.3720  141.4250 C   0  0  0  0  0  0  0  0  0  0  0  0
  187.2200  178.1370  142.0260 N   0  0  0  0  0  0  0  0  0  0  0  0
  189.5850  176.9600  144.6930 C   0  0  0  0  0  0  0  0  0  0  0  0
  186.1010  178.5160  140.0710 N   0  0  0  0  0  0  0  0  0  0  0  0
  184.6810  178.2550  142.0760 C   0  0  0  0  0  1  0  0  0  0  0  0
  187.4110  178.3430  139.8270 C   0  0  0  0  0  0  0  0  0  0  0  0
  190.9590  176.3780  144.7930 C   0  0  0  0  0  2  0  0  0  0  0  0
  191.6580  176.8310  146.0650 C   0  0  0  0  0  2  0  0  0  0  0  0
  192.0530  175.6350  146.9120 C   0  0  0  0  0  1  0  0  0  0  0  0
  185.7350  178.8710  144.6300 C   0  0  0  0  0  2  0  0  0  0  0  0
  184.5640  178.6130  146.9670 N   0  0  0  0  0  0  0  0  0  0  0  0
  185.0810  178.7260  145.9380 C   0  0  0  0  0  0  0  0  0  0  0  0
  1  9  1  0  0  0  0
  2 13  2  0  0  0  0
  2 20  1  0  0  0  0
  3 13  1  0  0  0  0
  4 12  2  0  0  0  0
  4 11  1  0  0  0  0
  5 12  1  0  0  0  0
  6 10  1  0  0  0  0
  6 16  1  0  0  0  0
  7 14  1  0  0  0  0
  7 10  2  0  0  0  0
  8  2  1  0  0  0  0
 10  5  1  0  0  0  0
 11 24  1  0  0  0  0
 11  1  2  0  0  0  0
 12 17  1  0  0  0  0
 13  7  1  0  0  0  0
 15 16  1  0  0  0  0
 15 19  1  0  0  0  0
 16  4  1  0  0  0  0
 17 21  1  0  0  0  0
 17  9  2  0  0  0  0
 18 15  2  0  0  0  0
 20 18  1  0  0  0  0
 20  6  2  0  0  0  0
 21 22  1  0  0  0  0
 22 23  1  0  0  0  0
 24 26  1  0  0  0  0
 26 25  3  0  0  0  0
M  END
>  <MODEL>
5

>  <REMARK>
 VINA RESULT:      -8.8      1.765      2.371
  Name = 
  4 active torsions:
  status: ('A' for Active; 'I' for Inactive)
    1  A    between atoms: C_3  and  C_12
    2  A    between atoms: C_8  and  C_25
    3  A    between atoms: C_12  and  C_22
    4  A    between atoms: C_16  and  C_25
                            x       y       z     vdW  Elec       q    Type
                         _______ _______ _______ _____ _____    ______ ____

>  <TORSDO>
F 4

$$$$
=
 OpenBabel10222418263D

 26 29  0  0  0  0  0  0  0  0999 V2000
  191.6370  176.6510  144.5030 C   0  0  0  0  0  3  0  0  0  0  0  0
  184.6800  178.6280  144.6290 C   0  0  0  0  0  0  0  0  0  0  0  0
  183.4540  179.1320  142.5900 O   0  0  0  0  0  1  0  0  0  0  0  0
  189.2710  177.2330  144.5560 C   0  0  0  0  0  0  0  0  0  0  0  0
  188.1320  177.6330  142.4070 O   0  0  0  0  0  0  0  0  0  0  0  0
  186.9900  178.0290  144.4560 C   0  0  0  0  0  0  0  0  0  0  0  0
  185.7900  178.4510  142.4350 C   0  0  0  0  0  0  0  0  0  0  0  0
  183.4690  178.8610  145.4680 C   0  0  0  0  0  1  0  0  0  0  0  0
  191.5980  176.5420  143.1160 C   0  0  0  0  0  3  0  0  0  0  0  0
  186.9790  178.0570  143.0780 C   0  0  0  0  0  0  0  0  0  0  0  0
  190.4960  177.0030  145.2380 C   0  0  0  0  0  0  0  0  0  0  0  0
  189.2780  177.2220  143.1250 C   0  0  0  0  0  0  0  0  0  0  0  0
  184.6370  178.7470  143.2160 C   0  0  0  0  0  0  0  0  0  0  0  0
  185.7350  178.5200  140.9460 C   0  0  0  0  0  1  0  0  0  0  0  0
  187.4580  177.5100  146.4440 C   0  0  0  0  0  0  0  0  0  0  0  0
  188.0130  177.5980  145.1940 N   0  0  0  0  0  0  0  0  0  0  0  0
  190.4280  176.8370  142.4230 C   0  0  0  0  0  0  0  0  0  0  0  0
  186.1570  177.9200  146.4860 N   0  0  0  0  0  0  0  0  0  0  0  0
  188.0630  176.8290  147.6170 C   0  0  0  0  0  1  0  0  0  0  0  0
  185.8950  178.2530  145.2110 C   0  0  0  0  0  0  0  0  0  0  0  0
  190.4260  176.7530  140.9290 C   0  0  0  0  0  2  0  0  0  0  0  0
  191.6670  177.4050  140.3400 C   0  0  0  0  0  2  0  0  0  0  0  0
  192.0390  176.7530  139.0220 C   0  0  0  0  0  1  0  0  0  0  0  0
  190.6970  177.2930  146.6890 C   0  0  0  0  0  2  0  0  0  0  0  0
  192.4560  175.6560  147.7490 N   0  0  0  0  0  0  0  0  0  0  0  0
  191.6810  176.3770  147.2810 C   0  0  0  0  0  0  0  0  0  0  0  0
  1 11  1  0  0  0  0
  2 20  1  0  0  0  0
  2  8  1  0  0  0  0
  3 13  1  0  0  0  0
  4 16  1  0  0  0  0
  4 11  2  0  0  0  0
  5 10  1  0  0  0  0
  5 12  1  0  0  0  0
  6 16  1  0  0  0  0
  6 20  2  0  0  0  0
  7 10  2  0  0  0  0
  7 13  1  0  0  0  0
  9  1  2  0  0  0  0
 10  6  1  0  0  0  0
 11 24  1  0  0  0  0
 12  4  1  0  0  0  0
 13  2  2  0  0  0  0
 14  7  1  0  0  0  0
 15 18  2  0  0  0  0
 15 19  1  0  0  0  0
 16 15  1  0  0  0  0
 17  9  1  0  0  0  0
 17 12  2  0  0  0  0
 20 18  1  0  0  0  0
 21 17  1  0  0  0  0
 22 21  1  0  0  0  0
 23 22  1  0  0  0  0
 24 26  1  0  0  0  0
 26 25  3  0  0  0  0
M  END
>  <MODEL>
6

>  <REMARK>
 VINA RESULT:      -8.8      2.676      6.674
  Name = 
  4 active torsions:
  status: ('A' for Active; 'I' for Inactive)
    1  A    between atoms: C_3  and  C_12
    2  A    between atoms: C_8  and  C_25
    3  A    between atoms: C_12  and  C_22
    4  A    between atoms: C_16  and  C_25
                            x       y       z     vdW  Elec       q    Type
                         _______ _______ _______ _____ _____    ______ ____

>  <TORSDO>
F 4

$$$$
=
 OpenBabel10222418263D

 26 29  0  0  0  0  0  0  0  0999 V2000
  186.5820  178.4670  140.1750 C   0  0  0  0  0  3  0  0  0  0  0  0
  189.2720  177.1470  146.7580 C   0  0  0  0  0  0  0  0  0  0  0  0
  187.9600  177.5050  148.7750 O   0  0  0  0  0  1  0  0  0  0  0  0
  187.4740  177.9370  142.3810 C   0  0  0  0  0  0  0  0  0  0  0  0
  186.0020  178.2660  144.3300 O   0  0  0  0  0  0  0  0  0  0  0  0
  188.2820  177.6650  144.6430 C   0  0  0  0  0  0  0  0  0  0  0  0
  186.9490  177.9570  146.6030 C   0  0  0  0  0  0  0  0  0  0  0  0
  190.4310  176.6410  147.5500 C   0  0  0  0  0  1  0  0  0  0  0  0
  185.3130  178.6610  140.7140 C   0  0  0  0  0  3  0  0  0  0  0  0
  187.0630  177.9870  145.1990 C   0  0  0  0  0  0  0  0  0  0  0  0
  187.6710  178.1170  140.9860 C   0  0  0  0  0  0  0  0  0  0  0  0
  186.1880  178.2460  142.9290 C   0  0  0  0  0  0  0  0  0  0  0  0
  188.0630  177.5440  147.3870 C   0  0  0  0  0  0  0  0  0  0  0  0
  185.6570  178.3220  147.2540 C   0  0  0  0  0  1  0  0  0  0  0  0
  189.7480  176.9760  143.2940 C   0  0  0  0  0  0  0  0  0  0  0  0
  188.5130  177.5690  143.3340 N   0  0  0  0  0  0  0  0  0  0  0  0
  185.1130  178.5630  142.0890 C   0  0  0  0  0  0  0  0  0  0  0  0
  190.2820  176.7600  144.5310 N   0  0  0  0  0  0  0  0  0  0  0  0
  190.3890  176.3850  142.0920 C   0  0  0  0  0  1  0  0  0  0  0  0
  189.3310  177.2190  145.3640 C   0  0  0  0  0  0  0  0  0  0  0  0
  183.7490  178.8180  142.6450 C   0  0  0  0  0  2  0  0  0  0  0  0
  182.6770  178.6270  141.5830 C   0  0  0  0  0  2  0  0  0  0  0  0
  181.3090  178.9790  142.1360 C   0  0  0  0  0  1  0  0  0  0  0  0
  189.0180  178.1380  140.3420 C   0  0  0  0  0  2  0  0  0  0  0  0
  188.8730  179.0160  137.8710 N   0  0  0  0  0  0  0  0  0  0  0  0
  188.9370  178.6280  138.9600 C   0  0  0  0  0  0  0  0  0  0  0  0
  1  9  2  0  0  0  0
  1 11  1  0  0  0  0
  2 13  1  0  0  0  0
  2  8  1  0  0  0  0
  4 12  1  0  0  0  0
  4 16  1  0  0  0  0
  5 10  1  0  0  0  0
  6 10  2  0  0  0  0
  6 20  1  0  0  0  0
  7 14  1  0  0  0  0
  7 13  2  0  0  0  0
  9 17  1  0  0  0  0
 10  7  1  0  0  0  0
 11  4  2  0  0  0  0
 12  5  1  0  0  0  0
 13  3  1  0  0  0  0
 15 16  1  0  0  0  0
 15 18  2  0  0  0  0
 16  6  1  0  0  0  0
 17 21  1  0  0  0  0
 17 12  2  0  0  0  0
 18 20  1  0  0  0  0
 19 15  1  0  0  0  0
 20  2  2  0  0  0  0
 22 23  1  0  0  0  0
 22 21  1  0  0  0  0
 24 11  1  0  0  0  0
 25 26  3  0  0  0  0
 26 24  1  0  0  0  0
M  END
>  <MODEL>
7

>  <REMARK>
 VINA RESULT:      -8.8      2.392      6.359
  Name = 
  4 active torsions:
  status: ('A' for Active; 'I' for Inactive)
    1  A    between atoms: C_3  and  C_12
    2  A    between atoms: C_8  and  C_25
    3  A    between atoms: C_12  and  C_22
    4  A    between atoms: C_16  and  C_25
                            x       y       z     vdW  Elec       q    Type
                         _______ _______ _______ _____ _____    ______ ____

>  <TORSDO>
F 4

$$$$
=
 OpenBabel10222418263D

 26 29  0  0  0  0  0  0  0  0999 V2000
  185.0160  178.7110  140.5460 C   0  0  0  0  0  3  0  0  0  0  0  0
  188.0980  177.5030  146.9770 C   0  0  0  0  0  0  0  0  0  0  0  0
  190.4330  176.8490  147.1770 O   0  0  0  0  0  1  0  0  0  0  0  0
  186.0620  178.3900  142.7240 C   0  0  0  0  0  0  0  0  0  0  0  0
  188.4580  177.8140  142.7800 O   0  0  0  0  0  0  0  0  0  0  0  0
  187.1860  177.8290  144.7900 C   0  0  0  0  0  0  0  0  0  0  0  0
  189.4980  177.2560  144.9630 C   0  0  0  0  0  0  0  0  0  0  0  0
  187.9290  177.5170  148.4600 C   0  0  0  0  0  1  0  0  0  0  0  0
  186.2550  178.6280  139.9180 C   0  0  0  0  0  3  0  0  0  0  0  0
  188.3930  177.6110  144.1640 C   0  0  0  0  0  0  0  0  0  0  0  0
  184.8950  178.5850  141.9370 C   0  0  0  0  0  0  0  0  0  0  0  0
  187.3100  178.2000  142.0510 C   0  0  0  0  0  0  0  0  0  0  0  0
  189.3460  177.1930  146.3770 C   0  0  0  0  0  0  0  0  0  0  0  0
  190.8210  176.9850  144.3290 C   0  0  0  0  0  1  0  0  0  0  0  0
  185.2610  178.5700  145.2250 C   0  0  0  0  0  0  0  0  0  0  0  0
  186.0810  178.2510  144.1740 N   0  0  0  0  0  0  0  0  0  0  0  0
  187.4020  178.3620  140.6620 C   0  0  0  0  0  0  0  0  0  0  0  0
  185.8190  178.3070  146.4430 N   0  0  0  0  0  0  0  0  0  0  0  0
  183.9960  179.3420  145.1350 C   0  0  0  0  0  1  0  0  0  0  0  0
  187.0350  177.8280  146.1300 C   0  0  0  0  0  0  0  0  0  0  0  0
  188.7140  178.2360  139.9550 C   0  0  0  0  0  2  0  0  0  0  0  0
  188.5220  177.8010  138.5110 C   0  0  0  0  0  2  0  0  0  0  0  0
  189.0550  178.8560  137.5600 C   0  0  0  0  0  1  0  0  0  0  0  0
  183.5090  178.4820  142.4830 C   0  0  0  0  0  2  0  0  0  0  0  0
  181.7200  178.7440  140.5780 N   0  0  0  0  0  0  0  0  0  0  0  0
  182.5090  178.6270  141.4170 C   0  0  0  0  0  0  0  0  0  0  0  0
  1 11  1  0  0  0  0
  2  8  1  0  0  0  0
  4 16  1  0  0  0  0
  5 10  1  0  0  0  0
  6 20  1  0  0  0  0
  7 13  2  0  0  0  0
  9  1  2  0  0  0  0
  9 17  1  0  0  0  0
 10  6  2  0  0  0  0
 10  7  1  0  0  0  0
 11 24  1  0  0  0  0
 11  4  2  0  0  0  0
 12  4  1  0  0  0  0
 12  5  1  0  0  0  0
 13  2  1  0  0  0  0
 13  3  1  0  0  0  0
 14  7  1  0  0  0  0
 15 18  2  0  0  0  0
 16  6  1  0  0  0  0
 16 15  1  0  0  0  0
 17 12  2  0  0  0  0
 19 15  1  0  0  0  0
 20 18  1  0  0  0  0
 20  2  2  0  0  0  0
 21 17  1  0  0  0  0
 22 21  1  0  0  0  0
 23 22  1  0  0  0  0
 25 26  3  0  0  0  0
 26 24  1  0  0  0  0
M  END
>  <MODEL>
8

>  <REMARK>
 VINA RESULT:      -8.7      1.831      5.521
  Name = 
  4 active torsions:
  status: ('A' for Active; 'I' for Inactive)
    1  A    between atoms: C_3  and  C_12
    2  A    between atoms: C_8  and  C_25
    3  A    between atoms: C_12  and  C_22
    4  A    between atoms: C_16  and  C_25
                            x       y       z     vdW  Elec       q    Type
                         _______ _______ _______ _____ _____    ______ ____

>  <TORSDO>
F 4

$$$$
=
 OpenBabel10222418263D

 26 29  0  0  0  0  0  0  0  0999 V2000
  185.5610  178.1340  146.7040 C   0  0  0  0  0  3  0  0  0  0  0  0
  188.5520  178.0400  140.1190 C   0  0  0  0  0  0  0  0  0  0  0  0
  187.2550  178.5060  138.1140 O   0  0  0  0  0  1  0  0  0  0  0  0
  186.6020  178.1820  144.5000 C   0  0  0  0  0  0  0  0  0  0  0  0
  185.1850  178.7550  142.5670 O   0  0  0  0  0  0  0  0  0  0  0  0
  187.4350  178.0580  142.2340 C   0  0  0  0  0  0  0  0  0  0  0  0
  186.1550  178.5880  140.2890 C   0  0  0  0  0  0  0  0  0  0  0  0
  189.8050  177.8780  139.3240 C   0  0  0  0  0  1  0  0  0  0  0  0
  184.3860  178.6640  146.1800 C   0  0  0  0  0  3  0  0  0  0  0  0
  186.2330  178.4540  141.6890 C   0  0  0  0  0  0  0  0  0  0  0  0
  186.6710  177.8760  145.8860 C   0  0  0  0  0  0  0  0  0  0  0  0
  185.3510  178.6240  143.9640 C   0  0  0  0  0  0  0  0  0  0  0  0
  187.3200  178.3700  139.4990 C   0  0  0  0  0  0  0  0  0  0  0  0
  184.8690  178.9900  139.6480 C   0  0  0  0  0  1  0  0  0  0  0  0
  189.0400  177.8130  143.5780 C   0  0  0  0  0  0  0  0  0  0  0  0
  187.6790  177.9710  143.5420 N   0  0  0  0  0  0  0  0  0  0  0  0
  184.2710  178.9000  144.8130 C   0  0  0  0  0  0  0  0  0  0  0  0
  189.6090  177.7530  142.3390 N   0  0  0  0  0  0  0  0  0  0  0  0
  189.8950  177.9300  144.7860 C   0  0  0  0  0  1  0  0  0  0  0  0
  188.5620  177.9010  141.5090 C   0  0  0  0  0  0  0  0  0  0  0  0
  182.9820  179.4310  144.2720 C   0  0  0  0  0  2  0  0  0  0  0  0
  182.0090  178.3040  143.9630 C   0  0  0  0  0  2  0  0  0  0  0  0
  180.5800  178.8150  143.9710 C   0  0  0  0  0  1  0  0  0  0  0  0
  187.7980  177.1190  146.5060 C   0  0  0  0  0  2  0  0  0  0  0  0
  188.4250  178.1110  148.8560 N   0  0  0  0  0  0  0  0  0  0  0  0
  188.1500  177.6730  147.8200 C   0  0  0  0  0  0  0  0  0  0  0  0
  2 20  1  0  0  0  0
  3 13  1  0  0  0  0
  4 11  1  0  0  0  0
  5 12  1  0  0  0  0
  6 16  1  0  0  0  0
  7 10  2  0  0  0  0
  8  2  1  0  0  0  0
  9  1  1  0  0  0  0
 10  6  1  0  0  0  0
 10  5  1  0  0  0  0
 11 24  1  0  0  0  0
 11  1  2  0  0  0  0
 12  4  2  0  0  0  0
 12 17  1  0  0  0  0
 13  2  2  0  0  0  0
 13  7  1  0  0  0  0
 14  7  1  0  0  0  0
 15 19  1  0  0  0  0
 16 15  1  0  0  0  0
 16  4  1  0  0  0  0
 17  9  2  0  0  0  0
 18 15  2  0  0  0  0
 20  6  2  0  0  0  0
 20 18  1  0  0  0  0
 21 17  1  0  0  0  0
 22 23  1  0  0  0  0
 22 21  1  0  0  0  0
 24 26  1  0  0  0  0
 26 25  3  0  0  0  0
M  END
>  <MODEL>
9

>  <REMARK>
 VINA RESULT:      -8.7      2.170      4.703
  Name = 
  4 active torsions:
  status: ('A' for Active; 'I' for Inactive)
    1  A    between atoms: C_3  and  C_12
    2  A    between atoms: C_8  and  C_25
    3  A    between atoms: C_12  and  C_22
    4  A    between atoms: C_16  and  C_25
                            x       y       z     vdW  Elec       q    Type
                         _______ _______ _______ _____ _____    ______ ____

>  <TORSDO>
F 4

$$$$
