=
 OpenBabel10222418073D

 25 26  0  0  1  0  0  0  0  0999 V2000
  188.2060  177.4970  143.3590 C   0  0  0  0  0  0  0  0  0  0  0  0
  187.9800  177.1820  142.0730 C   0  0  0  0  0  3  0  0  0  0  0  0
  189.5550  177.7330  143.9130 C   0  0  0  0  0  0  0  0  0  0  0  0
  190.1540  176.7980  144.7670 C   0  0  0  0  0  3  0  0  0  0  0  0
  191.9600  176.2290  146.0710 O   0  0  0  0  0  0  0  0  0  0  0  0
  191.4660  179.1770  144.2230 C   0  0  0  0  0  3  0  0  0  0  0  0
  190.2120  178.9420  143.6550 C   0  0  0  0  0  2  0  0  0  0  0  0
  192.0360  178.2430  145.0310 N   0  0  0  0  0  0  0  0  0  0  0  0
  191.4090  177.0700  145.3140 C   0  0  0  0  0  0  0  0  0  0  0  0
  190.7680  176.8070  139.8750 C   0  0  0  0  0  3  0  0  0  0  0  0
  188.9690  177.1700  140.9810 C   0  0  0  0  0  0  0  0  0  0  0  0
  189.9720  177.5790  139.0370 C   0  0  0  0  0  3  0  0  0  0  0  0
  190.1430  176.5890  141.0140 O   0  0  0  0  0  0  0  0  0  0  0  0
  187.7000  178.5540  139.3430 N   0  0  0  0  0  1  0  0  0  0  0  0
  188.8290  177.7990  139.7720 C   0  0  0  0  0  0  0  0  0  0  0  0
  187.0460  177.5340  144.3200 C   0  0  1  0  0  3  0  0  0  0  0  0
  187.5250  177.7340  146.8040 C   0  0  0  0  0  0  0  0  0  0  0  0
  187.3550  178.3210  145.5120 N   0  0  0  0  0  2  0  0  0  0  0  0
  187.3740  176.4940  146.9710 O   0  0  0  0  0  0  0  0  0  0  0  0
  187.8490  178.6000  147.9690 C   0  0  0  0  0  2  0  0  0  0  0  0
  189.2360  178.2740  148.4850 C   0  0  0  0  0  1  0  0  0  0  0  0
  184.7940  178.5530  144.6800 C   0  0  0  0  0  1  0  0  0  0  0  0
  185.7710  178.0320  143.6390 C   0  0  1  0  0  3  0  0  0  0  0  0
  186.0550  179.0380  142.7100 O   0  0  0  0  0  0  0  0  0  0  0  0
  184.9160  179.1210  141.9090 C   0  0  0  0  0  1  0  0  0  0  0  0
  1  3  1  0  0  0  0
  2  1  2  0  0  0  0
  3  4  2  0  0  0  0
  4  9  1  0  0  0  0
  6  8  2  0  0  0  0
  7  3  1  0  0  0  0
  7  6  1  0  0  0  0
  8  9  1  0  0  0  0
  9  5  2  0  0  0  0
 10 13  1  0  0  0  0
 11 13  1  0  0  0  0
 11  2  1  0  0  0  0
 12 15  1  0  0  0  0
 12 10  2  0  0  0  0
 14 15  1  0  0  0  0
 15 11  2  0  0  0  0
 16  1  1  6  0  0  0
 16 18  1  0  0  0  0
 17 19  2  0  0  0  0
 17 20  1  0  0  0  0
 18 17  1  0  0  0  0
 20 21  1  0  0  0  0
 23 16  1  0  0  0  0
 23 22  1  1  0  0  0
 24 23  1  0  0  0  0
 25 24  1  0  0  0  0
M  END
>  <MODEL>
1

>  <REMARK>
 VINA RESULT:      -6.8      0.000      0.000
  Name = 
  7 active torsions:
  status: ('A' for Active; 'I' for Inactive)
    1  A    between atoms: C_1  and  C_2
    2  A    between atoms: C_2  and  C_6
    3  A    between atoms: C_3  and  C_4
    4  A    between atoms: N_5  and  C_6
    5  A    between atoms: C_6  and  C_19
    6  A    between atoms: O_7  and  C_19
    7  A    between atoms: C_9  and  C_20
                            x       y       z     vdW  Elec       q    Type
                         _______ _______ _______ _____ _____    ______ ____

>  <TORSDO>
F 7

$$$$
=
 OpenBabel10222418073D

 25 26  0  0  1  0  0  0  0  0999 V2000
  187.7210  177.7720  141.8310 C   0  0  0  0  0  0  0  0  0  0  0  0
  186.5890  178.0960  142.4800 C   0  0  0  0  0  3  0  0  0  0  0  0
  188.9920  177.4650  142.5180 C   0  0  0  0  0  0  0  0  0  0  0  0
  189.8180  178.4930  142.9920 C   0  0  0  0  0  3  0  0  0  0  0  0
  191.7770  179.0920  144.0330 O   0  0  0  0  0  0  0  0  0  0  0  0
  190.6500  175.8610  143.2320 C   0  0  0  0  0  3  0  0  0  0  0  0
  189.4240  176.1380  142.6250 C   0  0  0  0  0  2  0  0  0  0  0  0
  191.4230  176.8770  143.7030 N   0  0  0  0  0  0  0  0  0  0  0  0
  191.0360  178.1750  143.5940 C   0  0  0  0  0  0  0  0  0  0  0  0
  186.5190  177.4940  145.9980 C   0  0  0  0  0  3  0  0  0  0  0  0
  186.3640  178.0530  143.9350 C   0  0  0  0  0  0  0  0  0  0  0  0
  185.5080  178.4470  145.9510 C   0  0  0  0  0  3  0  0  0  0  0  0
  186.9970  177.2860  144.7880 O   0  0  0  0  0  0  0  0  0  0  0  0
  184.5260  179.7300  144.0560 N   0  0  0  0  0  1  0  0  0  0  0  0
  185.4290  178.7850  144.6190 C   0  0  0  0  0  0  0  0  0  0  0  0
  187.7360  177.7990  140.3250 C   0  0  1  0  0  3  0  0  0  0  0  0
  185.8690  178.1320  138.6390 C   0  0  0  0  0  0  0  0  0  0  0  0
  186.6090  178.5580  139.7850 N   0  0  0  0  0  2  0  0  0  0  0  0
  186.1930  177.0840  138.0180 O   0  0  0  0  0  0  0  0  0  0  0  0
  184.7270  178.9530  138.1540 C   0  0  0  0  0  2  0  0  0  0  0  0
  183.9370  179.4850  139.3330 C   0  0  0  0  0  1  0  0  0  0  0  0
  189.8640  177.1870  139.1690 C   0  0  0  0  0  1  0  0  0  0  0  0
  189.0680  178.3230  139.7880 C   0  0  1  0  0  3  0  0  0  0  0  0
  188.8680  179.3330  138.8400 O   0  0  0  0  0  0  0  0  0  0  0  0
  189.3010  178.7840  137.6330 C   0  0  0  0  0  1  0  0  0  0  0  0
  1  2  2  0  0  0  0
  1  3  1  0  0  0  0
  2 11  1  0  0  0  0
  3  7  1  0  0  0  0
  3  4  2  0  0  0  0
  4  9  1  0  0  0  0
  6  8  2  0  0  0  0
  7  6  1  0  0  0  0
  9  8  1  0  0  0  0
  9  5  2  0  0  0  0
 11 15  2  0  0  0  0
 11 13  1  0  0  0  0
 12 10  2  0  0  0  0
 13 10  1  0  0  0  0
 14 15  1  0  0  0  0
 15 12  1  0  0  0  0
 16 18  1  1  0  0  0
 16  1  1  0  0  0  0
 17 18  1  0  0  0  0
 19 17  2  0  0  0  0
 20 17  1  0  0  0  0
 20 21  1  0  0  0  0
 23 22  1  6  0  0  0
 23 16  1  0  0  0  0
 24 23  1  0  0  0  0
 25 24  1  0  0  0  0
M  END
>  <MODEL>
2

>  <REMARK>
 VINA RESULT:      -6.7      2.277      5.856
  Name = 
  7 active torsions:
  status: ('A' for Active; 'I' for Inactive)
    1  A    between atoms: C_1  and  C_2
    2  A    between atoms: C_2  and  C_6
    3  A    between atoms: C_3  and  C_4
    4  A    between atoms: N_5  and  C_6
    5  A    between atoms: C_6  and  C_19
    6  A    between atoms: O_7  and  C_19
    7  A    between atoms: C_9  and  C_20
                            x       y       z     vdW  Elec       q    Type
                         _______ _______ _______ _____ _____    ______ ____

>  <TORSDO>
F 7

$$$$
=
 OpenBabel10222418073D

 25 26  0  0  1  0  0  0  0  0999 V2000
  187.0650  177.7710  143.7370 C   0  0  0  0  0  0  0  0  0  0  0  0
  186.5460  178.0330  144.9490 C   0  0  0  0  0  3  0  0  0  0  0  0
  188.4720  177.3760  143.5240 C   0  0  0  0  0  0  0  0  0  0  0  0
  189.5030  178.3210  143.6080 C   0  0  0  0  0  3  0  0  0  0  0  0
  191.7510  178.7690  143.4410 O   0  0  0  0  0  0  0  0  0  0  0  0
  190.1070  175.7100  142.9020 C   0  0  0  0  0  3  0  0  0  0  0  0
  188.7790  176.0630  143.1490 C   0  0  0  0  0  2  0  0  0  0  0  0
  191.0920  176.6420  143.0120 N   0  0  0  0  0  0  0  0  0  0  0  0
  190.8180  177.9290  143.3540 C   0  0  0  0  0  0  0  0  0  0  0  0
  188.4940  177.0570  147.7760 C   0  0  0  0  0  3  0  0  0  0  0  0
  187.2030  177.8320  146.2520 C   0  0  0  0  0  0  0  0  0  0  0  0
  187.6950  177.9970  148.4160 C   0  0  0  0  0  3  0  0  0  0  0  0
  188.1720  176.9860  146.5010 O   0  0  0  0  0  0  0  0  0  0  0  0
  185.8640  179.4630  147.5760 N   0  0  0  0  0  1  0  0  0  0  0  0
  186.8760  178.4740  147.4170 C   0  0  0  0  0  0  0  0  0  0  0  0
  186.2060  177.9640  142.5140 C   0  0  1  0  0  3  0  0  0  0  0  0
  183.7030  178.2140  142.1810 C   0  0  0  0  0  0  0  0  0  0  0  0
  184.9180  178.5690  142.8460 N   0  0  0  0  0  2  0  0  0  0  0  0
  183.7080  177.3780  141.2390 O   0  0  0  0  0  0  0  0  0  0  0  0
  182.4280  178.8660  142.5820 C   0  0  0  0  0  2  0  0  0  0  0  0
  182.3140  178.8900  144.0930 C   0  0  0  0  0  1  0  0  0  0  0  0
  187.7490  177.8380  140.5540 C   0  0  0  0  0  1  0  0  0  0  0  0
  186.9380  178.7680  141.4380 C   0  0  1  0  0  3  0  0  0  0  0  0
  186.0370  179.5000  140.6570 O   0  0  0  0  0  0  0  0  0  0  0  0
  185.9650  178.8070  139.4480 C   0  0  0  0  0  1  0  0  0  0  0  0
  1  2  2  0  0  0  0
  2 11  1  0  0  0  0
  3  4  2  0  0  0  0
  3  1  1  0  0  0  0
  6  8  2  0  0  0  0
  6  7  1  0  0  0  0
  7  3  1  0  0  0  0
  8  9  1  0  0  0  0
  9  5  2  0  0  0  0
  9  4  1  0  0  0  0
 10 12  2  0  0  0  0
 11 13  1  0  0  0  0
 11 15  2  0  0  0  0
 13 10  1  0  0  0  0
 15 14  1  0  0  0  0
 15 12  1  0  0  0  0
 16 18  1  1  0  0  0
 16  1  1  0  0  0  0
 17 20  1  0  0  0  0
 17 18  1  0  0  0  0
 19 17  2  0  0  0  0
 20 21  1  0  0  0  0
 23 22  1  6  0  0  0
 23 16  1  0  0  0  0
 24 23  1  0  0  0  0
 25 24  1  0  0  0  0
M  END
>  <MODEL>
3

>  <REMARK>
 VINA RESULT:      -6.6      2.151      5.302
  Name = 
  7 active torsions:
  status: ('A' for Active; 'I' for Inactive)
    1  A    between atoms: C_1  and  C_2
    2  A    between atoms: C_2  and  C_6
    3  A    between atoms: C_3  and  C_4
    4  A    between atoms: N_5  and  C_6
    5  A    between atoms: C_6  and  C_19
    6  A    between atoms: O_7  and  C_19
    7  A    between atoms: C_9  and  C_20
                            x       y       z     vdW  Elec       q    Type
                         _______ _______ _______ _____ _____    ______ ____

>  <TORSDO>
F 7

$$$$
=
 OpenBabel10222418073D

 25 26  0  0  1  0  0  0  0  0999 V2000
  187.5140  177.9270  142.4330 C   0  0  0  0  0  0  0  0  0  0  0  0
  187.2330  178.1380  141.1360 C   0  0  0  0  0  3  0  0  0  0  0  0
  188.8320  177.4640  142.9140 C   0  0  0  0  0  0  0  0  0  0  0  0
  189.8030  178.3820  143.3390 C   0  0  0  0  0  3  0  0  0  0  0  0
  191.9290  178.7350  144.1370 O   0  0  0  0  0  0  0  0  0  0  0  0
  190.4190  175.6800  143.2760 C   0  0  0  0  0  3  0  0  0  0  0  0
  189.1530  176.1030  142.8660 C   0  0  0  0  0  2  0  0  0  0  0  0
  191.3360  176.5890  143.7050 N   0  0  0  0  0  0  0  0  0  0  0  0
  191.0560  177.9190  143.7420 C   0  0  0  0  0  0  0  0  0  0  0  0
  190.0140  178.0050  138.9030 C   0  0  0  0  0  3  0  0  0  0  0  0
  188.1840  178.1070  140.0110 C   0  0  0  0  0  0  0  0  0  0  0  0
  189.0200  178.2020  137.9520 C   0  0  0  0  0  3  0  0  0  0  0  0
  189.4820  177.9570  140.1060 O   0  0  0  0  0  0  0  0  0  0  0  0
  186.5530  178.4680  138.1620 N   0  0  0  0  0  1  0  0  0  0  0  0
  187.8600  178.2660  138.6890 C   0  0  0  0  0  0  0  0  0  0  0  0
  186.4190  178.0840  143.4560 C   0  0  1  0  0  3  0  0  0  0  0  0
  186.6330  177.8370  145.9720 C   0  0  0  0  0  0  0  0  0  0  0  0
  186.9450  178.5110  144.7510 N   0  0  0  0  0  2  0  0  0  0  0  0
  185.8450  176.8530  145.9800 O   0  0  0  0  0  0  0  0  0  0  0  0
  187.2150  178.3250  147.2510 C   0  0  0  0  0  2  0  0  0  0  0  0
  188.2640  177.3490  147.7460 C   0  0  0  0  0  1  0  0  0  0  0  0
  184.1670  178.2300  142.3840 C   0  0  0  0  0  1  0  0  0  0  0  0
  185.3220  179.0290  142.9620 C   0  0  1  0  0  3  0  0  0  0  0  0
  184.8610  179.8510  143.9960 O   0  0  0  0  0  0  0  0  0  0  0  0
  183.5700  179.3950  144.2680 C   0  0  0  0  0  1  0  0  0  0  0  0
  1  3  1  0  0  0  0
  2  1  2  0  0  0  0
  3  4  2  0  0  0  0
  4  9  1  0  0  0  0
  6  8  2  0  0  0  0
  7  3  1  0  0  0  0
  7  6  1  0  0  0  0
  8  9  1  0  0  0  0
  9  5  2  0  0  0  0
 10 13  1  0  0  0  0
 11 13  1  0  0  0  0
 11  2  1  0  0  0  0
 12 15  1  0  0  0  0
 12 10  2  0  0  0  0
 14 15  1  0  0  0  0
 15 11  2  0  0  0  0
 16  1  1  6  0  0  0
 16 18  1  0  0  0  0
 17 19  2  0  0  0  0
 17 20  1  0  0  0  0
 18 17  1  0  0  0  0
 20 21  1  0  0  0  0
 23 22  1  1  0  0  0
 23 16  1  0  0  0  0
 23 24  1  0  0  0  0
 24 25  1  0  0  0  0
M  END
>  <MODEL>
4

>  <REMARK>
 VINA RESULT:      -6.6      1.505      1.976
  Name = 
  7 active torsions:
  status: ('A' for Active; 'I' for Inactive)
    1  A    between atoms: C_1  and  C_2
    2  A    between atoms: C_2  and  C_6
    3  A    between atoms: C_3  and  C_4
    4  A    between atoms: N_5  and  C_6
    5  A    between atoms: C_6  and  C_19
    6  A    between atoms: O_7  and  C_19
    7  A    between atoms: C_9  and  C_20
                            x       y       z     vdW  Elec       q    Type
                         _______ _______ _______ _____ _____    ______ ____

>  <TORSDO>
F 7

$$$$
=
 OpenBabel10222418073D

 25 26  0  0  1  0  0  0  0  0999 V2000
  188.2460  177.8930  143.0730 C   0  0  0  0  0  0  0  0  0  0  0  0
  187.9860  177.5530  141.7990 C   0  0  0  0  0  3  0  0  0  0  0  0
  189.6070  177.9100  143.6480 C   0  0  0  0  0  0  0  0  0  0  0  0
  190.1480  176.7620  144.2430 C   0  0  0  0  0  2  0  0  0  0  0  0
  191.9150  175.7920  145.3470 O   0  0  0  0  0  0  0  0  0  0  0  0
  191.6010  179.1220  144.2690 C   0  0  0  0  0  3  0  0  0  0  0  0
  190.3360  179.1040  143.6790 C   0  0  0  0  0  3  0  0  0  0  0  0
  192.1130  177.9890  144.8210 N   0  0  0  0  0  0  0  0  0  0  0  0
  191.4170  176.8210  144.8220 C   0  0  0  0  0  0  0  0  0  0  0  0
  190.7280  176.6130  139.7150 C   0  0  0  0  0  3  0  0  0  0  0  0
  188.9740  177.3000  140.7350 C   0  0  0  0  0  0  0  0  0  0  0  0
  190.0230  177.3530  138.7740 C   0  0  0  0  0  3  0  0  0  0  0  0
  190.0780  176.6080  140.8610 O   0  0  0  0  0  0  0  0  0  0  0  0
  187.8680  178.5930  138.9150 N   0  0  0  0  0  1  0  0  0  0  0  0
  188.9070  177.7830  139.4540 C   0  0  0  0  0  0  0  0  0  0  0  0
  187.0980  178.1950  144.0000 C   0  0  1  0  0  3  0  0  0  0  0  0
  184.7930  178.9850  143.2930 C   0  0  0  0  0  0  0  0  0  0  0  0
  185.8060  177.9780  143.3510 N   0  0  0  0  0  2  0  0  0  0  0  0
  184.9660  180.1050  143.8430 O   0  0  0  0  0  0  0  0  0  0  0  0
  183.5060  178.6930  142.6050 C   0  0  0  0  0  2  0  0  0  0  0  0
  182.3460  178.9900  143.5350 C   0  0  0  0  0  1  0  0  0  0  0  0
  187.9860  178.1970  146.3350 C   0  0  0  0  0  1  0  0  0  0  0  0
  187.2070  177.4000  145.3030 C   0  0  1  0  0  3  0  0  0  0  0  0
  185.9410  177.0830  145.8060 O   0  0  0  0  0  0  0  0  0  0  0  0
  185.6680  178.0770  146.7470 C   0  0  0  0  0  1  0  0  0  0  0  0
  1  3  1  0  0  0  0
  2  1  2  0  0  0  0
  3  7  2  0  0  0  0
  3  4  1  0  0  0  0
  4  9  1  0  0  0  0
  6  8  2  0  0  0  0
  7  6  1  0  0  0  0
  8  9  1  0  0  0  0
  9  5  2  0  0  0  0
 10 13  1  0  0  0  0
 11 13  1  0  0  0  0
 11  2  1  0  0  0  0
 12 15  1  0  0  0  0
 12 10  2  0  0  0  0
 14 15  1  0  0  0  0
 15 11  2  0  0  0  0
 16  1  1  6  0  0  0
 16 23  1  0  0  0  0
 17 18  1  0  0  0  0
 17 19  2  0  0  0  0
 18 16  1  0  0  0  0
 20 17  1  0  0  0  0
 20 21  1  0  0  0  0
 23 24  1  0  0  0  0
 23 22  1  1  0  0  0
 24 25  1  0  0  0  0
M  END
>  <MODEL>
5

>  <REMARK>
 VINA RESULT:      -6.4      1.184      3.081
  Name = 
  7 active torsions:
  status: ('A' for Active; 'I' for Inactive)
    1  A    between atoms: C_1  and  C_2
    2  A    between atoms: C_2  and  C_6
    3  A    between atoms: C_3  and  C_4
    4  A    between atoms: N_5  and  C_6
    5  A    between atoms: C_6  and  C_19
    6  A    between atoms: O_7  and  C_19
    7  A    between atoms: C_9  and  C_20
                            x       y       z     vdW  Elec       q    Type
                         _______ _______ _______ _____ _____    ______ ____

>  <TORSDO>
F 7

$$$$
=
 OpenBabel10222418073D

 25 26  0  0  1  0  0  0  0  0999 V2000
  189.7600  177.1720  140.7180 C   0  0  0  0  0  0  0  0  0  0  0  0
  190.9610  177.2160  141.3190 C   0  0  0  0  0  3  0  0  0  0  0  0
  188.4930  177.4830  141.4110 C   0  0  0  0  0  0  0  0  0  0  0  0
  187.6270  178.4660  140.9150 C   0  0  0  0  0  3  0  0  0  0  0  0
  185.6710  179.6460  141.1710 O   0  0  0  0  0  0  0  0  0  0  0  0
  187.0120  177.1890  143.2960 C   0  0  0  0  0  3  0  0  0  0  0  0
  188.1880  176.8530  142.6230 C   0  0  0  0  0  2  0  0  0  0  0  0
  186.1770  178.1320  142.7810 N   0  0  0  0  0  0  0  0  0  0  0  0
  186.4600  178.7730  141.6160 C   0  0  0  0  0  0  0  0  0  0  0  0
  191.6020  179.0470  144.3160 C   0  0  0  0  0  3  0  0  0  0  0  0
  191.2510  177.7150  142.6750 C   0  0  0  0  0  0  0  0  0  0  0  0
  191.7940  177.7710  144.8320 C   0  0  0  0  0  3  0  0  0  0  0  0
  191.2860  178.9730  143.0390 O   0  0  0  0  0  0  0  0  0  0  0  0
  191.6470  175.5180  143.7800 N   0  0  0  0  0  1  0  0  0  0  0  0
  191.5650  176.9390  143.7590 C   0  0  0  0  0  0  0  0  0  0  0  0
  189.6720  176.7030  139.2890 C   0  0  1  0  0  3  0  0  0  0  0  0
  188.1150  177.5760  137.4860 C   0  0  0  0  0  0  0  0  0  0  0  0
  189.1980  177.7620  138.4000 N   0  0  0  0  0  2  0  0  0  0  0  0
  187.5440  176.4580  137.3850 O   0  0  0  0  0  0  0  0  0  0  0  0
  187.6820  178.7050  136.6190 C   0  0  0  0  0  2  0  0  0  0  0  0
  187.0220  178.1690  135.3650 C   0  0  0  0  0  1  0  0  0  0  0  0
  190.7540  174.9570  137.8670 C   0  0  0  0  0  1  0  0  0  0  0  0
  191.0030  176.1250  138.8060 C   0  0  1  0  0  3  0  0  0  0  0  0
  191.7700  177.0990  138.1580 O   0  0  0  0  0  0  0  0  0  0  0  0
  192.9300  176.4350  137.7560 C   0  0  0  0  0  1  0  0  0  0  0  0
  1  2  2  0  0  0  0
  1  3  1  0  0  0  0
  2 11  1  0  0  0  0
  3  7  1  0  0  0  0
  4  3  2  0  0  0  0
  4  9  1  0  0  0  0
  5  9  2  0  0  0  0
  7  6  1  0  0  0  0
  8  6  2  0  0  0  0
  9  8  1  0  0  0  0
 10 12  2  0  0  0  0
 11 13  1  0  0  0  0
 11 15  2  0  0  0  0
 13 10  1  0  0  0  0
 15 14  1  0  0  0  0
 15 12  1  0  0  0  0
 16 18  1  6  0  0  0
 16  1  1  0  0  0  0
 17 18  1  0  0  0  0
 19 17  2  0  0  0  0
 20 17  1  0  0  0  0
 21 20  1  0  0  0  0
 23 22  1  6  0  0  0
 23 16  1  0  0  0  0
 24 23  1  0  0  0  0
 25 24  1  0  0  0  0
M  END
>  <MODEL>
6

>  <REMARK>
 VINA RESULT:      -6.3      2.678      7.094
  Name = 
  7 active torsions:
  status: ('A' for Active; 'I' for Inactive)
    1  A    between atoms: C_1  and  C_2
    2  A    between atoms: C_2  and  C_6
    3  A    between atoms: C_3  and  C_4
    4  A    between atoms: N_5  and  C_6
    5  A    between atoms: C_6  and  C_19
    6  A    between atoms: O_7  and  C_19
    7  A    between atoms: C_9  and  C_20
                            x       y       z     vdW  Elec       q    Type
                         _______ _______ _______ _____ _____    ______ ____

>  <TORSDO>
F 7

$$$$
=
 OpenBabel10222418073D

 25 26  0  0  1  0  0  0  0  0999 V2000
  189.0000  177.7070  141.0160 C   0  0  0  0  0  0  0  0  0  0  0  0
  187.6900  177.8860  141.2580 C   0  0  0  0  0  3  0  0  0  0  0  0
  190.0160  177.6030  142.0840 C   0  0  0  0  0  0  0  0  0  0  0  0
  190.5010  176.3540  142.4940 C   0  0  0  0  0  3  0  0  0  0  0  0
  191.8750  175.1670  143.9030 O   0  0  0  0  0  0  0  0  0  0  0  0
  191.3650  178.6420  143.7970 C   0  0  0  0  0  3  0  0  0  0  0  0
  190.4410  178.7550  142.7560 C   0  0  0  0  0  2  0  0  0  0  0  0
  191.8370  177.4190  144.1610 N   0  0  0  0  0  0  0  0  0  0  0  0
  191.4250  176.2830  143.5370 C   0  0  0  0  0  0  0  0  0  0  0  0
  186.5330  177.3160  144.5870 C   0  0  0  0  0  3  0  0  0  0  0  0
  187.0240  177.8540  142.5710 C   0  0  0  0  0  0  0  0  0  0  0  0
  185.5780  178.2550  144.2150 C   0  0  0  0  0  3  0  0  0  0  0  0
  187.3670  177.1040  143.5890 O   0  0  0  0  0  0  0  0  0  0  0  0
  185.2220  179.5060  142.0910 N   0  0  0  0  0  1  0  0  0  0  0  0
  185.9150  178.5790  142.9200 C   0  0  0  0  0  0  0  0  0  0  0  0
  189.4880  177.6920  139.5910 C   0  0  1  0  0  3  0  0  0  0  0  0
  191.0410  176.1000  138.3700 C   0  0  0  0  0  0  0  0  0  0  0  0
  189.8820  176.3500  139.1670 N   0  0  0  0  0  2  0  0  0  0  0  0
  191.7590  177.0530  137.9630 O   0  0  0  0  0  0  0  0  0  0  0  0
  191.3830  174.7040  137.9860 C   0  0  0  0  0  2  0  0  0  0  0  0
  190.2970  174.1330  137.0960 C   0  0  0  0  0  1  0  0  0  0  0  0
  189.1450  179.1680  137.6060 C   0  0  0  0  0  1  0  0  0  0  0  0
  188.4540  178.2950  138.6390 C   0  0  1  0  0  3  0  0  0  0  0  0
  187.7150  177.2950  137.9980 O   0  0  0  0  0  0  0  0  0  0  0  0
  186.5000  177.8990  137.6730 C   0  0  0  0  0  1  0  0  0  0  0  0
  1  2  2  0  0  0  0
  1  3  1  0  0  0  0
  2 11  1  0  0  0  0
  3  4  2  0  0  0  0
  3  7  1  0  0  0  0
  4  9  1  0  0  0  0
  6  8  2  0  0  0  0
  7  6  1  0  0  0  0
  9  5  2  0  0  0  0
  9  8  1  0  0  0  0
 11 15  2  0  0  0  0
 11 13  1  0  0  0  0
 12 10  2  0  0  0  0
 13 10  1  0  0  0  0
 14 15  1  0  0  0  0
 15 12  1  0  0  0  0
 16 18  1  6  0  0  0
 16  1  1  0  0  0  0
 17 18  1  0  0  0  0
 19 17  2  0  0  0  0
 20 17  1  0  0  0  0
 21 20  1  0  0  0  0
 23 22  1  6  0  0  0
 23 16  1  0  0  0  0
 24 23  1  0  0  0  0
 25 24  1  0  0  0  0
M  END
>  <MODEL>
7

>  <REMARK>
 VINA RESULT:      -6.3      2.298      5.877
  Name = 
  7 active torsions:
  status: ('A' for Active; 'I' for Inactive)
    1  A    between atoms: C_1  and  C_2
    2  A    between atoms: C_2  and  C_6
    3  A    between atoms: C_3  and  C_4
    4  A    between atoms: N_5  and  C_6
    5  A    between atoms: C_6  and  C_19
    6  A    between atoms: O_7  and  C_19
    7  A    between atoms: C_9  and  C_20
                            x       y       z     vdW  Elec       q    Type
                         _______ _______ _______ _____ _____    ______ ____

>  <TORSDO>
F 7

$$$$
=
 OpenBabel10222418073D

 25 26  0  0  1  0  0  0  0  0999 V2000
  190.1420  177.2170  141.1840 C   0  0  0  0  0  0  0  0  0  0  0  0
  191.2610  176.9720  141.8860 C   0  0  0  0  0  3  0  0  0  0  0  0
  188.8140  177.3900  141.8060 C   0  0  0  0  0  0  0  0  0  0  0  0
  187.9850  178.4610  141.4430 C   0  0  0  0  0  3  0  0  0  0  0  0
  186.0010  179.5780  141.7540 O   0  0  0  0  0  0  0  0  0  0  0  0
  187.1700  176.7300  143.4480 C   0  0  0  0  0  3  0  0  0  0  0  0
  188.4070  176.5300  142.8320 C   0  0  0  0  0  2  0  0  0  0  0  0
  186.3760  177.7650  143.0620 N   0  0  0  0  0  0  0  0  0  0  0  0
  186.7560  178.6270  142.0830 C   0  0  0  0  0  0  0  0  0  0  0  0
  191.6470  176.3230  145.3750 C   0  0  0  0  0  3  0  0  0  0  0  0
  191.4020  176.9860  143.3520 C   0  0  0  0  0  0  0  0  0  0  0  0
  191.4720  177.6990  145.4590 C   0  0  0  0  0  3  0  0  0  0  0  0
  191.5970  175.9390  144.1160 O   0  0  0  0  0  0  0  0  0  0  0  0
  191.0950  179.4320  143.7110 N   0  0  0  0  0  1  0  0  0  0  0  0
  191.3140  178.0960  144.1510 C   0  0  0  0  0  0  0  0  0  0  0  0
  190.2110  177.2390  139.6790 C   0  0  1  0  0  3  0  0  0  0  0  0
  191.6070  175.8210  138.1050 C   0  0  0  0  0  0  0  0  0  0  0  0
  190.6250  175.9470  139.1360 N   0  0  0  0  0  2  0  0  0  0  0  0
  192.1330  176.8440  137.5900 O   0  0  0  0  0  0  0  0  0  0  0  0
  191.9860  174.4700  137.6110 C   0  0  0  0  0  2  0  0  0  0  0  0
  190.8030  173.8260  136.9140 C   0  0  0  0  0  1  0  0  0  0  0  0
  189.1410  178.8150  138.0630 C   0  0  0  0  0  1  0  0  0  0  0  0
  188.8880  177.7020  139.0650 C   0  0  1  0  0  3  0  0  0  0  0  0
  188.2250  176.6410  138.4390 O   0  0  0  0  0  0  0  0  0  0  0  0
  187.6770  177.1940  137.2800 C   0  0  0  0  0  1  0  0  0  0  0  0
  1  3  1  0  0  0  0
  1  2  2  0  0  0  0
  2 11  1  0  0  0  0
  3  7  1  0  0  0  0
  4  3  2  0  0  0  0
  4  9  1  0  0  0  0
  5  9  2  0  0  0  0
  7  6  1  0  0  0  0
  8  6  2  0  0  0  0
  9  8  1  0  0  0  0
 10 12  2  0  0  0  0
 11 13  1  0  0  0  0
 11 15  2  0  0  0  0
 13 10  1  0  0  0  0
 14 15  1  0  0  0  0
 15 12  1  0  0  0  0
 16 18  1  6  0  0  0
 16  1  1  0  0  0  0
 17 18  1  0  0  0  0
 19 17  2  0  0  0  0
 20 17  1  0  0  0  0
 21 20  1  0  0  0  0
 23 22  1  6  0  0  0
 23 16  1  0  0  0  0
 24 23  1  0  0  0  0
 25 24  1  0  0  0  0
M  END
>  <MODEL>
8

>  <REMARK>
 VINA RESULT:      -6.2      2.444      6.685
  Name = 
  7 active torsions:
  status: ('A' for Active; 'I' for Inactive)
    1  A    between atoms: C_1  and  C_2
    2  A    between atoms: C_2  and  C_6
    3  A    between atoms: C_3  and  C_4
    4  A    between atoms: N_5  and  C_6
    5  A    between atoms: C_6  and  C_19
    6  A    between atoms: O_7  and  C_19
    7  A    between atoms: C_9  and  C_20
                            x       y       z     vdW  Elec       q    Type
                         _______ _______ _______ _____ _____    ______ ____

>  <TORSDO>
F 7

$$$$
=
 OpenBabel10222418073D

 25 26  0  0  1  0  0  0  0  0999 V2000
  188.1100  178.0870  141.2130 C   0  0  0  0  0  0  0  0  0  0  0  0
  186.8560  178.3360  141.6290 C   0  0  0  0  0  3  0  0  0  0  0  0
  188.4770  177.9290  139.7910 C   0  0  0  0  0  0  0  0  0  0  0  0
  188.3480  176.6890  139.1500 C   0  0  0  0  0  3  0  0  0  0  0  0
  188.6250  175.4500  137.2340 O   0  0  0  0  0  0  0  0  0  0  0  0
  189.4300  178.8300  137.7630 C   0  0  0  0  0  3  0  0  0  0  0  0
  189.0400  179.0030  139.0920 C   0  0  0  0  0  2  0  0  0  0  0  0
  189.2750  177.6220  137.1580 N   0  0  0  0  0  0  0  0  0  0  0  0
  188.7490  176.5570  137.8200 C   0  0  0  0  0  0  0  0  0  0  0  0
  184.5030  179.2250  139.0970 C   0  0  0  0  0  3  0  0  0  0  0  0
  185.6910  178.6440  140.7830 C   0  0  0  0  0  0  0  0  0  0  0  0
  183.5950  179.0020  140.1260 C   0  0  0  0  0  3  0  0  0  0  0  0
  185.7290  179.0060  139.5240 O   0  0  0  0  0  0  0  0  0  0  0  0
  183.9140  178.3070  142.4960 N   0  0  0  0  0  1  0  0  0  0  0  0
  184.3830  178.6350  141.1930 C   0  0  0  0  0  0  0  0  0  0  0  0
  189.1940  177.8740  142.2370 C   0  0  1  0  0  3  0  0  0  0  0  0
  189.1840  177.9370  144.7730 C   0  0  0  0  0  0  0  0  0  0  0  0
  188.6460  177.4760  143.5320 N   0  0  0  0  0  2  0  0  0  0  0  0
  190.1950  178.6880  144.7960 O   0  0  0  0  0  0  0  0  0  0  0  0
  188.5650  177.4960  146.0520 C   0  0  0  0  0  2  0  0  0  0  0  0
  187.0540  177.5230  145.9300 C   0  0  0  0  0  1  0  0  0  0  0  0
  191.6300  177.4710  141.8600 C   0  0  0  0  0  1  0  0  0  0  0  0
  190.2400  176.8720  141.7440 C   0  0  1  0  0  3  0  0  0  0  0  0
  190.1750  175.6780  142.4700 O   0  0  0  0  0  0  0  0  0  0  0  0
  191.3520  175.6490  143.2190 C   0  0  0  0  0  1  0  0  0  0  0  0
  1  2  2  0  0  0  0
  3  1  1  0  0  0  0
  4  3  2  0  0  0  0
  5  9  2  0  0  0  0
  6  7  1  0  0  0  0
  7  3  1  0  0  0  0
  8  6  2  0  0  0  0
  8  9  1  0  0  0  0
  9  4  1  0  0  0  0
 10 13  1  0  0  0  0
 10 12  2  0  0  0  0
 11 15  2  0  0  0  0
 11  2  1  0  0  0  0
 12 15  1  0  0  0  0
 13 11  1  0  0  0  0
 15 14  1  0  0  0  0
 16  1  1  6  0  0  0
 16 18  1  0  0  0  0
 17 19  2  0  0  0  0
 17 20  1  0  0  0  0
 18 17  1  0  0  0  0
 21 20  1  0  0  0  0
 23 22  1  1  0  0  0
 23 16  1  0  0  0  0
 23 24  1  0  0  0  0
 24 25  1  0  0  0  0
M  END
>  <MODEL>
9

>  <REMARK>
 VINA RESULT:      -6.2      2.300      5.479
  Name = 
  7 active torsions:
  status: ('A' for Active; 'I' for Inactive)
    1  A    between atoms: C_1  and  C_2
    2  A    between atoms: C_2  and  C_6
    3  A    between atoms: C_3  and  C_4
    4  A    between atoms: N_5  and  C_6
    5  A    between atoms: C_6  and  C_19
    6  A    between atoms: O_7  and  C_19
    7  A    between atoms: C_9  and  C_20
                            x       y       z     vdW  Elec       q    Type
                         _______ _______ _______ _____ _____    ______ ____

>  <TORSDO>
F 7

$$$$
