=
 OpenBabel10222418333D

 65 71  0  0  1  0  0  0  0  0999 V2000
  189.9830  177.2020  137.9450 C   0  0  0  0  0  0  0  0  0  0  0  0
  191.4580  177.8280  141.4050 C   0  0  0  0  0  2  0  0  0  0  0  0
  192.4370  176.8770  139.2940 C   0  0  0  0  0  0  0  0  0  0  0  0
  190.7870  175.7740  142.6780 C   0  0  0  0  0  1  0  0  0  0  0  0
  190.0390  177.3150  139.3510 C   0  0  0  0  0  0  0  0  0  0  0  0
  189.2110  177.6450  142.3340 O   0  0  0  0  0  0  0  0  0  0  0  0
  190.5680  177.2920  142.5430 C   0  0  2  0  0  0  0  0  0  0  0  0
  192.3640  176.6560  137.9110 C   0  0  0  0  0  0  0  0  0  0  0  0
  188.8450  177.4810  140.0560 O   0  0  0  0  0  0  0  0  0  0  0  0
  191.1470  176.8470  137.2500 C   0  0  0  0  0  3  0  0  0  0  0  0
  188.6310  176.8740  141.3180 C   0  0  0  0  0  2  0  0  0  0  0  0
  191.2830  177.2440  140.0190 C   0  0  0  0  0  0  0  0  0  0  0  0
  185.9930  176.5960  136.5130 N   0  0  0  0  0  0  0  0  0  0  0  0
  188.6750  177.4030  137.1960 C   0  0  1  0  0  3  0  0  0  0  0  0
  186.1990  177.8290  137.2890 C   0  0  0  0  0  2  0  0  0  0  0  0
  188.3690  176.2170  136.3100 C   0  0  0  0  0  3  0  0  0  0  0  0
  187.1210  175.8800  135.9820 C   0  0  0  0  0  3  0  0  0  0  0  0
  187.4790  177.7210  138.1160 C   0  0  0  0  0  2  0  0  0  0  0  0
  184.0590  175.2350  137.1590 C   0  0  0  0  0  0  0  0  0  0  0  0
  182.7450  175.7370  137.6120 C   0  0  2  0  0  3  0  0  0  0  0  0
  184.5330  174.1590  137.4900 O   0  0  0  0  0  0  0  0  0  0  0  0
  182.6190  177.0930  137.0750 N   0  0  0  0  0  2  0  0  0  0  0  0
  183.6650  177.2740  136.0620 C   0  0  0  0  0  2  0  0  0  0  0  0
  184.6560  176.1160  136.1440 C   0  0  1  0  0  3  0  0  0  0  0  0
  182.0440  176.7840  139.7580 C   0  0  0  0  0  3  0  0  0  0  0  0
  182.6360  175.7690  139.1100 C   0  0  0  0  0  3  0  0  0  0  0  0
  180.1450  178.5910  139.6380 C   0  0  1  0  0  0  0  0  0  0  0  0
  178.9420  179.6350  137.5370 C   0  0  0  0  0  2  0  0  0  0  0  0
  181.1760  180.9220  137.6450 C   0  0  0  0  0  2  0  0  0  0  0  0
  181.6680  180.3780  139.0020 C   0  0  2  0  0  3  0  0  0  0  0  0
  182.4420  179.0810  138.8490 C   0  0  0  0  0  2  0  0  0  0  0  0
  179.4910  180.9440  139.9600 O   0  0  0  0  0  1  0  0  0  0  0  0
  180.2360  180.0220  136.8210 C   0  0  1  0  0  3  0  0  0  0  0  0
  181.4300  177.9610  139.0410 C   0  0  1  0  0  3  0  0  0  0  0  0
  180.5510  180.0300  139.9690 C   0  0  1  0  0  3  0  0  0  0  0  0
  179.0530  178.4830  138.5520 C   0  0  0  0  0  2  0  0  0  0  0  0
  180.9460  178.8720  136.1140 C   0  0  0  0  0  2  0  0  0  0  0  0
  180.9140  179.0670  134.6100 C   0  0  0  0  0  1  0  0  0  0  0  0
  179.3640  178.8200  142.0770 C   0  0  0  0  0  1  0  0  0  0  0  0
  179.5980  177.8880  140.8970 C   0  0  0  0  0  2  0  0  0  0  0  0
  191.2430  179.3050  143.8250 C   0  0  0  0  0  2  0  0  0  0  0  0
  190.9890  177.9930  143.8360 C   0  0  0  0  0  0  0  0  0  0  0  0
  190.8780  177.3550  145.2010 C   0  0  1  0  0  3  0  0  0  0  0  0
  192.1400  177.0840  145.7340 O   0  0  0  0  0  0  0  0  0  0  0  0
  192.0320  175.8020  146.2760 C   0  0  0  0  0  2  0  0  0  0  0  0
  191.9900  174.8390  148.4560 O   0  0  0  0  0  1  0  0  0  0  0  0
  192.3680  177.1070  148.3750 O   0  0  0  0  0  0  0  0  0  0  0  0
  192.1190  175.8830  147.7600 C   0  0  0  0  0  0  0  0  0  0  0  0
  190.0890  178.2440  146.1630 C   0  0  0  0  0  2  0  0  0  0  0  0
  188.7280  177.8170  146.1960 O   0  0  0  0  0  0  0  0  0  0  0  0
  187.9610  177.8680  147.3600 C   0  0  0  0  0  0  0  0  0  0  0  0
  188.5320  177.8620  148.4850 O   0  0  0  0  0  0  0  0  0  0  0  0
  186.4730  178.0610  147.3030 C   0  0  0  0  0  2  0  0  0  0  0  0
  186.0190  177.9890  145.9200 N   0  0  0  0  0  2  0  0  0  0  0  0
  184.8810  178.8820  145.8020 C   0  0  0  0  0  2  0  0  0  0  0  0
  182.8110  178.8170  142.6890 C   0  0  0  0  0  3  0  0  0  0  0  0
  184.2250  178.5890  142.1450 C   0  0  0  0  0  3  0  0  0  0  0  0
  183.0110  178.9250  144.1670 C   0  0  0  0  0  3  0  0  0  0  0  0
  184.2980  178.8260  144.4300 C   0  0  0  0  0  0  0  0  0  0  0  0
  185.0590  178.6800  143.2900 O   0  0  0  0  0  0  0  0  0  0  0  0
  194.7450  176.6660  140.4810 N   0  0  0  0  0  0  0  0  0  0  0  0
  193.7180  176.7590  139.9570 C   0  0  0  0  0  0  0  0  0  0  0  0
  193.5090  176.2630  137.2050 O   0  0  0  0  0  0  0  0  0  0  0  0
  194.0130  174.9370  137.2360 C   0  0  0  0  0  2  0  0  0  0  0  0
  194.1330  174.4150  135.8220 C   0  0  0  0  0  1  0  0  0  0  0  0
  1  5  1  0  0  0  0
  2  7  1  0  0  0  0
  3 62  1  0  0  0  0
  3 12  1  0  0  0  0
  5 12  2  0  0  0  0
  5  9  1  0  0  0  0
  6  7  1  0  0  0  0
  7  4  1  1  0  0  0
  7 42  1  0  0  0  0
  8  3  2  0  0  0  0
  9 11  1  0  0  0  0
 10  8  1  0  0  0  0
 10  1  2  0  0  0  0
 11  6  1  0  0  0  0
 12  2  1  0  0  0  0
 13 15  1  0  0  0  0
 14  1  1  1  0  0  0
 14 18  1  0  0  0  0
 15 18  1  0  0  0  0
 16 14  1  0  0  0  0
 17 16  2  0  0  0  0
 17 13  1  0  0  0  0
 19 21  2  0  0  0  0
 19 20  1  0  0  0  0
 20 26  1  1  0  0  0
 22 20  1  0  0  0  0
 23 22  1  0  0  0  0
 24 23  1  1  0  0  0
 24 13  1  0  0  0  0
 24 19  1  0  0  0  0
 26 25  2  0  0  0  0
 27 35  1  0  0  0  0
 27 40  1  1  0  0  0
 28 36  1  0  0  0  0
 30 29  1  6  0  0  0
 30 35  1  0  0  0  0
 31 30  1  0  0  0  0
 31 34  1  0  0  0  0
 33 37  1  1  0  0  0
 33 28  1  0  0  0  0
 33 29  1  0  0  0  0
 34 27  1  0  0  0  0
 34 25  1  1  0  0  0
 35 32  1  6  0  0  0
 36 27  1  0  0  0  0
 38 37  1  0  0  0  0
 40 39  1  0  0  0  0
 41 42  2  0  0  0  0
 42 43  1  0  0  0  0
 43 44  1  0  0  0  0
 43 49  1  1  0  0  0
 44 45  1  0  0  0  0
 45 48  1  0  0  0  0
 48 47  2  0  0  0  0
 48 46  1  0  0  0  0
 49 50  1  0  0  0  0
 50 51  1  0  0  0  0
 51 52  2  0  0  0  0
 53 51  1  0  0  0  0
 54 53  1  0  0  0  0
 55 54  1  0  0  0  0
 56 58  1  0  0  0  0
 57 56  2  0  0  0  0
 57 60  1  0  0  0  0
 58 59  2  0  0  0  0
 59 55  1  0  0  0  0
 60 59  1  0  0  0  0
 62 61  3  0  0  0  0
 63 64  1  0  0  0  0
 63  8  1  0  0  0  0
 65 64  1  0  0  0  0
M  END
>  <MODEL>
1

>  <REMARK>
 VINA RESULT:      -7.6      0.000      0.000
  Name = 
  21 active torsions:
  status: ('A' for Active; 'I' for Inactive)
    1  A    between atoms: C_1  and  C_53
    2  A    between atoms: C_3  and  C_7
    3  A    between atoms: C_4  and  C_61
    4  A    between atoms: N_5  and  C_38
    5  A    between atoms: C_6  and  C_51
    6  A    between atoms: C_9  and  C_26
    7  A    between atoms: C_19  and  C_41
    8  A    between atoms: C_19  and  O_50
    9  A    between atoms: C_21  and  O_55
   10  A    between atoms: C_21  and  C_60
   11  A    between atoms: C_25  and  C_35
   12  A    between atoms: C_27  and  C_47
   13  A    between atoms: C_27  and  O_55
   14  A    between atoms: N_28  and  C_48
   15  A    between atoms: N_28  and  C_60
   16  A    between atoms: C_33  and  O_58
   17  A    between atoms: C_35  and  C_47
   18  A    between atoms: C_44  and  C_52
   19  A    between atoms: C_46  and  O_58
   20  A    between atoms: C_47  and  O_50
   21  A    between atoms: C_48  and  C_57
                            x       y       z     vdW  Elec       q    Type
                         _______ _______ _______ _____ _____    ______ ____

>  <TORSDO>
F 21

$$$$
=
 OpenBabel10222418333D

 65 71  0  0  1  0  0  0  0  0999 V2000
  189.8990  177.5030  138.2410 C   0  0  0  0  0  0  0  0  0  0  0  0
  191.5170  177.8500  141.6750 C   0  0  0  0  0  2  0  0  0  0  0  0
  192.3840  177.0010  139.4740 C   0  0  0  0  0  0  0  0  0  0  0  0
  190.8110  175.7450  142.8420 C   0  0  0  0  0  1  0  0  0  0  0  0
  190.0080  177.5230  139.6480 C   0  0  0  0  0  0  0  0  0  0  0  0
  189.2990  177.6920  142.6750 O   0  0  0  0  0  0  0  0  0  0  0  0
  190.6480  177.2760  142.8110 C   0  0  2  0  0  0  0  0  0  0  0  0
  192.2540  176.8730  138.0840 C   0  0  0  0  0  0  0  0  0  0  0  0
  188.8470  177.6880  140.4070 O   0  0  0  0  0  0  0  0  0  0  0  0
  191.0220  177.1510  137.4820 C   0  0  0  0  0  3  0  0  0  0  0  0
  188.6530  177.0090  141.6360 C   0  0  0  0  0  2  0  0  0  0  0  0
  191.2710  177.3640  140.2640 C   0  0  0  0  0  0  0  0  0  0  0  0
  186.3030  177.0000  135.9700 N   0  0  0  0  0  0  0  0  0  0  0  0
  188.5740  177.8000  137.5560 C   0  0  1  0  0  3  0  0  0  0  0  0
  186.1060  177.3530  137.3850 C   0  0  0  0  0  2  0  0  0  0  0  0
  188.6570  177.5260  136.0710 C   0  0  0  0  0  3  0  0  0  0  0  0
  187.5870  177.1870  135.3510 C   0  0  0  0  0  3  0  0  0  0  0  0
  187.3750  177.0580  138.1810 C   0  0  0  0  0  2  0  0  0  0  0  0
  185.0530  175.1060  135.0410 C   0  0  0  0  0  0  0  0  0  0  0  0
  183.6970  174.6730  135.4350 C   0  0  2  0  0  3  0  0  0  0  0  0
  185.9100  174.3590  134.5940 O   0  0  0  0  0  0  0  0  0  0  0  0
  183.0450  175.8480  136.0140 N   0  0  0  0  0  2  0  0  0  0  0  0
  183.8540  177.0230  135.6760 C   0  0  0  0  0  2  0  0  0  0  0  0
  185.1960  176.5690  135.1080 C   0  0  1  0  0  3  0  0  0  0  0  0
  182.9750  173.5810  137.5520 C   0  0  0  0  0  3  0  0  0  0  0  0
  183.7280  173.5580  136.4420 C   0  0  0  0  0  3  0  0  0  0  0  0
  180.5330  174.3730  138.0970 C   0  0  1  0  0  0  0  0  0  0  0  0
  179.2910  176.5960  137.4170 C   0  0  0  0  0  2  0  0  0  0  0  0
  180.7620  177.3210  139.4100 C   0  0  0  0  0  2  0  0  0  0  0  0
  181.2530  175.9220  139.8300 C   0  0  2  0  0  3  0  0  0  0  0  0
  182.5060  175.5080  139.0790 C   0  0  0  0  0  2  0  0  0  0  0  0
  178.9330  175.1530  139.7990 O   0  0  0  0  0  1  0  0  0  0  0  0
  180.3910  177.5260  137.9290 C   0  0  1  0  0  3  0  0  0  0  0  0
  182.0290  174.7130  137.8710 C   0  0  1  0  0  3  0  0  0  0  0  0
  180.2640  174.8070  139.5410 C   0  0  1  0  0  3  0  0  0  0  0  0
  179.7340  175.1700  137.0440 C   0  0  0  0  0  2  0  0  0  0  0  0
  181.5970  177.6610  137.0050 C   0  0  0  0  0  2  0  0  0  0  0  0
  182.4180  178.8830  137.3720 C   0  0  0  0  0  1  0  0  0  0  0  0
  180.1400  172.4320  136.4590 C   0  0  0  0  0  1  0  0  0  0  0  0
  180.1660  172.8870  137.9100 C   0  0  0  0  0  2  0  0  0  0  0  0
  191.6510  179.1120  144.1430 C   0  0  0  0  0  2  0  0  0  0  0  0
  191.1410  177.8770  144.1290 C   0  0  0  0  0  0  0  0  0  0  0  0
  190.8440  177.2710  145.4800 C   0  0  1  0  0  3  0  0  0  0  0  0
  192.0100  177.1250  146.2340 O   0  0  0  0  0  0  0  0  0  0  0  0
  191.5700  176.9540  147.5470 C   0  0  0  0  0  2  0  0  0  0  0  0
  193.3200  176.6620  149.1370 O   0  0  0  0  0  1  0  0  0  0  0  0
  192.6040  174.7480  148.0810 O   0  0  0  0  0  0  0  0  0  0  0  0
  192.5520  176.1230  148.2950 C   0  0  0  0  0  0  0  0  0  0  0  0
  189.8300  178.1150  146.2520 C   0  0  0  0  0  2  0  0  0  0  0  0
  188.5110  177.6560  145.9640 O   0  0  0  0  0  0  0  0  0  0  0  0
  187.4400  177.8770  146.8300 C   0  0  0  0  0  0  0  0  0  0  0  0
  187.6040  177.7400  148.0730 O   0  0  0  0  0  0  0  0  0  0  0  0
  186.1270  178.4020  146.3240 C   0  0  0  0  0  2  0  0  0  0  0  0
  186.0740  178.2840  144.8730 N   0  0  0  0  0  2  0  0  0  0  0  0
  184.7800  178.7940  144.4550 C   0  0  0  0  0  2  0  0  0  0  0  0
  183.8350  178.6120  140.8420 C   0  0  0  0  0  3  0  0  0  0  0  0
  185.3200  178.9810  140.7720 C   0  0  0  0  0  3  0  0  0  0  0  0
  183.5640  178.5050  142.3090 C   0  0  0  0  0  3  0  0  0  0  0  0
  184.6660  178.8000  142.9680 C   0  0  0  0  0  0  0  0  0  0  0  0
  185.7070  179.1340  142.1290 O   0  0  0  0  0  0  0  0  0  0  0  0
  194.7160  176.6310  140.5710 N   0  0  0  0  0  0  0  0  0  0  0  0
  193.6810  176.7940  140.0800 C   0  0  0  0  0  0  0  0  0  0  0  0
  193.3570  176.4830  137.3120 O   0  0  0  0  0  0  0  0  0  0  0  0
  193.2770  175.4910  136.3020 C   0  0  0  0  0  2  0  0  0  0  0  0
  193.4310  176.1430  134.9470 C   0  0  0  0  0  1  0  0  0  0  0  0
  1  5  1  0  0  0  0
  2  7  1  0  0  0  0
  3 62  1  0  0  0  0
  3 12  1  0  0  0  0
  5 12  2  0  0  0  0
  5  9  1  0  0  0  0
  6  7  1  0  0  0  0
  7  4  1  1  0  0  0
  7 42  1  0  0  0  0
  8  3  2  0  0  0  0
  9 11  1  0  0  0  0
 10  8  1  0  0  0  0
 10  1  2  0  0  0  0
 11  6  1  0  0  0  0
 12  2  1  0  0  0  0
 13 15  1  0  0  0  0
 14 18  1  0  0  0  0
 14  1  1  1  0  0  0
 15 18  1  0  0  0  0
 16 14  1  0  0  0  0
 17 13  1  0  0  0  0
 17 16  2  0  0  0  0
 19 24  1  0  0  0  0
 19 20  1  0  0  0  0
 20 22  1  0  0  0  0
 20 26  1  1  0  0  0
 21 19  2  0  0  0  0
 23 22  1  0  0  0  0
 24 23  1  1  0  0  0
 24 13  1  0  0  0  0
 26 25  2  0  0  0  0
 27 40  1  6  0  0  0
 27 35  1  0  0  0  0
 28 33  1  0  0  0  0
 29 30  1  0  0  0  0
 30 31  1  6  0  0  0
 33 37  1  6  0  0  0
 33 29  1  0  0  0  0
 34 25  1  1  0  0  0
 34 27  1  0  0  0  0
 34 31  1  0  0  0  0
 35 32  1  6  0  0  0
 35 30  1  0  0  0  0
 36 28  1  0  0  0  0
 36 27  1  0  0  0  0
 37 38  1  0  0  0  0
 39 40  1  0  0  0  0
 42 41  2  0  0  0  0
 42 43  1  0  0  0  0
 43 44  1  0  0  0  0
 43 49  1  1  0  0  0
 44 45  1  0  0  0  0
 45 48  1  0  0  0  0
 47 48  2  0  0  0  0
 48 46  1  0  0  0  0
 50 49  1  0  0  0  0
 50 51  1  0  0  0  0
 51 52  2  0  0  0  0
 53 51  1  0  0  0  0
 54 53  1  0  0  0  0
 55 54  1  0  0  0  0
 56 58  1  0  0  0  0
 57 56  2  0  0  0  0
 57 60  1  0  0  0  0
 58 59  2  0  0  0  0
 59 55  1  0  0  0  0
 60 59  1  0  0  0  0
 62 61  3  0  0  0  0
 63  8  1  0  0  0  0
 64 63  1  0  0  0  0
 65 64  1  0  0  0  0
M  END
>  <MODEL>
2

>  <REMARK>
 VINA RESULT:      -7.1      1.600      2.485
  Name = 
  21 active torsions:
  status: ('A' for Active; 'I' for Inactive)
    1  A    between atoms: C_1  and  C_53
    2  A    between atoms: C_3  and  C_7
    3  A    between atoms: C_4  and  C_61
    4  A    between atoms: N_5  and  C_38
    5  A    between atoms: C_6  and  C_51
    6  A    between atoms: C_9  and  C_26
    7  A    between atoms: C_19  and  C_41
    8  A    between atoms: C_19  and  O_50
    9  A    between atoms: C_21  and  O_55
   10  A    between atoms: C_21  and  C_60
   11  A    between atoms: C_25  and  C_35
   12  A    between atoms: C_27  and  C_47
   13  A    between atoms: C_27  and  O_55
   14  A    between atoms: N_28  and  C_48
   15  A    between atoms: N_28  and  C_60
   16  A    between atoms: C_33  and  O_58
   17  A    between atoms: C_35  and  C_47
   18  A    between atoms: C_44  and  C_52
   19  A    between atoms: C_46  and  O_58
   20  A    between atoms: C_47  and  O_50
   21  A    between atoms: C_48  and  C_57
                            x       y       z     vdW  Elec       q    Type
                         _______ _______ _______ _____ _____    ______ ____

>  <TORSDO>
F 21

$$$$
=
 OpenBabel10222418333D

 65 71  0  0  1  0  0  0  0  0999 V2000
  185.6050  178.5380  145.3280 C   0  0  0  0  0  0  0  0  0  0  0  0
  188.6820  177.0700  143.6210 C   0  0  0  0  0  2  0  0  0  0  0  0
  188.2390  177.7810  145.9910 C   0  0  0  0  0  0  0  0  0  0  0  0
  189.7920  179.0910  142.6350 C   0  0  0  0  0  1  0  0  0  0  0  0
  186.5450  178.2770  144.3080 C   0  0  0  0  0  0  0  0  0  0  0  0
  187.8840  177.9950  141.5110 O   0  0  0  0  0  0  0  0  0  0  0  0
  189.0400  177.7880  142.3060 C   0  0  2  0  0  0  0  0  0  0  0  0
  187.3390  178.1460  147.0040 C   0  0  0  0  0  0  0  0  0  0  0  0
  186.1720  178.5060  142.9810 O   0  0  0  0  0  0  0  0  0  0  0  0
  186.0280  178.4940  146.6630 C   0  0  0  0  0  3  0  0  0  0  0  0
  187.0840  179.0230  142.0270 C   0  0  0  0  0  2  0  0  0  0  0  0
  187.8380  177.8080  144.6380 C   0  0  0  0  0  0  0  0  0  0  0  0
  181.9870  179.1820  143.1300 N   0  0  0  0  0  0  0  0  0  0  0  0
  184.1720  178.9190  144.9920 C   0  0  1  0  0  3  0  0  0  0  0  0
  181.8910  178.1980  144.2200 C   0  0  0  0  0  2  0  0  0  0  0  0
  184.1300  179.9740  143.9100 C   0  0  0  0  0  3  0  0  0  0  0  0
  183.0940  180.0960  143.0780 C   0  0  0  0  0  3  0  0  0  0  0  0
  183.2840  177.7150  144.6160 C   0  0  0  0  0  2  0  0  0  0  0  0
  180.9980  178.3930  141.0300 C   0  0  0  0  0  0  0  0  0  0  0  0
  179.7420  177.6280  140.8850 C   0  0  2  0  0  3  0  0  0  0  0  0
  181.9370  178.3240  140.2510 O   0  0  0  0  0  0  0  0  0  0  0  0
  178.9460  177.9200  142.0770 N   0  0  0  0  0  2  0  0  0  0  0  0
  179.5520  179.0740  142.7510 C   0  0  0  0  0  2  0  0  0  0  0  0
  180.9200  179.3580  142.1370 C   0  0  1  0  0  3  0  0  0  0  0  0
  180.2360  175.5480  139.6100 C   0  0  0  0  0  3  0  0  0  0  0  0
  179.9870  176.1490  140.7840 C   0  0  0  0  0  3  0  0  0  0  0  0
  181.2840  175.7940  137.2170 C   0  0  1  0  0  0  0  0  0  0  0  0
  181.8620  177.9700  135.8460 C   0  0  0  0  0  2  0  0  0  0  0  0
  179.3160  177.7140  135.5110 C   0  0  0  0  0  2  0  0  0  0  0  0
  179.1550  176.3280  136.1670 C   0  0  2  0  0  3  0  0  0  0  0  0
  178.9310  176.4280  137.6640 C   0  0  0  0  0  2  0  0  0  0  0  0
  181.0020  175.5170  134.7860 O   0  0  0  0  0  1  0  0  0  0  0  0
  180.4770  178.5980  136.0020 C   0  0  1  0  0  3  0  0  0  0  0  0
  180.3060  176.3040  138.3060 C   0  0  1  0  0  3  0  0  0  0  0  0
  180.3770  175.4370  136.0350 C   0  0  1  0  0  3  0  0  0  0  0  0
  182.2650  176.9500  136.9260 C   0  0  0  0  0  2  0  0  0  0  0  0
  180.2210  179.2570  137.3540 C   0  0  0  0  0  2  0  0  0  0  0  0
  179.0220  180.1830  137.2800 C   0  0  0  0  0  1  0  0  0  0  0  0
  181.6360  173.2520  137.0600 C   0  0  0  0  0  1  0  0  0  0  0  0
  182.1350  174.5740  137.6240 C   0  0  0  0  0  2  0  0  0  0  0  0
  190.4310  175.7500  142.0610 C   0  0  0  0  0  2  0  0  0  0  0  0
  189.9450  176.8590  141.4950 C   0  0  0  0  0  0  0  0  0  0  0  0
  190.1150  176.9640  139.9980 C   0  0  1  0  0  3  0  0  0  0  0  0
  191.0250  176.0150  139.5270 O   0  0  0  0  0  0  0  0  0  0  0  0
  191.8910  176.7290  138.6960 C   0  0  0  0  0  2  0  0  0  0  0  0
  190.9570  175.4520  136.9150 O   0  0  0  0  0  1  0  0  0  0  0  0
  193.1320  176.1380  136.6140 O   0  0  0  0  0  0  0  0  0  0  0  0
  191.9630  176.0630  137.3670 C   0  0  0  0  0  0  0  0  0  0  0  0
  188.7770  176.8010  139.2770 C   0  0  0  0  0  2  0  0  0  0  0  0
  188.3560  178.0640  138.7660 O   0  0  0  0  0  0  0  0  0  0  0  0
  187.1910  178.2110  138.0130 C   0  0  0  0  0  0  0  0  0  0  0  0
  186.1090  178.5090  138.5880 O   0  0  0  0  0  0  0  0  0  0  0  0
  187.2230  178.1480  136.5120 C   0  0  0  0  0  2  0  0  0  0  0  0
  187.2310  176.7580  136.0770 N   0  0  0  0  0  2  0  0  0  0  0  0
  185.8440  176.3300  136.0070 C   0  0  0  0  0  2  0  0  0  0  0  0
  185.1380  172.6590  136.0400 C   0  0  0  0  0  3  0  0  0  0  0  0
  186.0110  172.8340  137.2870 C   0  0  0  0  0  3  0  0  0  0  0  0
  185.0210  174.0440  135.4900 C   0  0  0  0  0  3  0  0  0  0  0  0
  185.7270  174.8620  136.2430 C   0  0  0  0  0  0  0  0  0  0  0  0
  186.3670  174.2080  137.2750 O   0  0  0  0  0  0  0  0  0  0  0  0
  190.6300  176.9870  146.6440 N   0  0  0  0  0  0  0  0  0  0  0  0
  189.5680  177.3420  146.3570 C   0  0  0  0  0  0  0  0  0  0  0  0
  187.7560  178.1450  148.3410 O   0  0  0  0  0  0  0  0  0  0  0  0
  187.2100  177.2730  149.3170 C   0  0  0  0  0  2  0  0  0  0  0  0
  187.7320  175.8730  149.0860 C   0  0  0  0  0  1  0  0  0  0  0  0
  1 10  1  0  0  0  0
  2 12  1  0  0  0  0
  3 62  1  0  0  0  0
  3  8  1  0  0  0  0
  5 12  1  0  0  0  0
  5  1  2  0  0  0  0
  6 11  1  0  0  0  0
  6  7  1  0  0  0  0
  7  4  1  1  0  0  0
  7  2  1  0  0  0  0
  8 63  1  0  0  0  0
  9  5  1  0  0  0  0
 10  8  2  0  0  0  0
 11  9  1  0  0  0  0
 12  3  2  0  0  0  0
 13 15  1  0  0  0  0
 14  1  1  6  0  0  0
 15 18  1  0  0  0  0
 16 14  1  0  0  0  0
 17 13  1  0  0  0  0
 17 16  2  0  0  0  0
 18 14  1  0  0  0  0
 19 24  1  0  0  0  0
 20 26  1  1  0  0  0
 20 19  1  0  0  0  0
 20 22  1  0  0  0  0
 21 19  2  0  0  0  0
 22 23  1  0  0  0  0
 24 23  1  1  0  0  0
 24 13  1  0  0  0  0
 25 26  2  0  0  0  0
 27 40  1  1  0  0  0
 27 34  1  0  0  0  0
 28 33  1  0  0  0  0
 28 36  1  0  0  0  0
 29 33  1  0  0  0  0
 30 29  1  1  0  0  0
 30 31  1  0  0  0  0
 31 34  1  0  0  0  0
 33 37  1  1  0  0  0
 34 25  1  1  0  0  0
 35 32  1  6  0  0  0
 35 30  1  0  0  0  0
 35 27  1  0  0  0  0
 36 27  1  0  0  0  0
 38 37  1  0  0  0  0
 39 40  1  0  0  0  0
 42 41  2  0  0  0  0
 42  7  1  0  0  0  0
 43 49  1  6  0  0  0
 43 42  1  0  0  0  0
 44 43  1  0  0  0  0
 45 44  1  0  0  0  0
 46 48  1  0  0  0  0
 47 48  2  0  0  0  0
 48 45  1  0  0  0  0
 50 49  1  0  0  0  0
 51 52  2  0  0  0  0
 51 50  1  0  0  0  0
 53 51  1  0  0  0  0
 54 53  1  0  0  0  0
 55 54  1  0  0  0  0
 55 59  1  0  0  0  0
 56 57  2  0  0  0  0
 58 56  1  0  0  0  0
 58 59  2  0  0  0  0
 59 60  1  0  0  0  0
 60 57  1  0  0  0  0
 62 61  3  0  0  0  0
 63 64  1  0  0  0  0
 65 64  1  0  0  0  0
M  END
>  <MODEL>
3

>  <REMARK>
 VINA RESULT:      -5.6      2.331      7.615
  Name = 
  21 active torsions:
  status: ('A' for Active; 'I' for Inactive)
    1  A    between atoms: C_1  and  C_53
    2  A    between atoms: C_3  and  C_7
    3  A    between atoms: C_4  and  C_61
    4  A    between atoms: N_5  and  C_38
    5  A    between atoms: C_6  and  C_51
    6  A    between atoms: C_9  and  C_26
    7  A    between atoms: C_19  and  C_41
    8  A    between atoms: C_19  and  O_50
    9  A    between atoms: C_21  and  O_55
   10  A    between atoms: C_21  and  C_60
   11  A    between atoms: C_25  and  C_35
   12  A    between atoms: C_27  and  C_47
   13  A    between atoms: C_27  and  O_55
   14  A    between atoms: N_28  and  C_48
   15  A    between atoms: N_28  and  C_60
   16  A    between atoms: C_33  and  O_58
   17  A    between atoms: C_35  and  C_47
   18  A    between atoms: C_44  and  C_52
   19  A    between atoms: C_46  and  O_58
   20  A    between atoms: C_47  and  O_50
   21  A    between atoms: C_48  and  C_57
                            x       y       z     vdW  Elec       q    Type
                         _______ _______ _______ _____ _____    ______ ____

>  <TORSDO>
F 21

$$$$
=
 OpenBabel10222418333D

 65 71  0  0  1  0  0  0  0  0999 V2000
  185.9090  178.0520  145.1540 C   0  0  0  0  0  0  0  0  0  0  0  0
  188.7770  176.9550  142.8940 C   0  0  0  0  0  2  0  0  0  0  0  0
  188.5870  177.2030  145.3880 C   0  0  0  0  0  0  0  0  0  0  0  0
  189.8050  179.1340  142.1970 C   0  0  0  0  0  1  0  0  0  0  0  0
  186.7360  177.9950  144.0110 C   0  0  0  0  0  0  0  0  0  0  0  0
  187.7790  178.2550  141.0890 O   0  0  0  0  0  0  0  0  0  0  0  0
  189.0070  177.9110  141.7070 C   0  0  2  0  0  0  0  0  0  0  0  0
  187.8010  177.3640  146.5380 C   0  0  0  0  0  0  0  0  0  0  0  0
  186.2330  178.4670  142.7970 O   0  0  0  0  0  0  0  0  0  0  0  0
  186.4660  177.7600  146.4060 C   0  0  0  0  0  3  0  0  0  0  0  0
  187.0480  179.1620  141.8690 C   0  0  0  0  0  2  0  0  0  0  0  0
  188.0500  177.4820  144.1120 C   0  0  0  0  0  0  0  0  0  0  0  0
  182.1580  179.2940  143.5030 N   0  0  0  0  0  0  0  0  0  0  0  0
  184.4540  178.4800  145.0440 C   0  0  1  0  0  3  0  0  0  0  0  0
  182.1390  177.9940  144.1930 C   0  0  0  0  0  2  0  0  0  0  0  0
  184.3340  179.8390  144.3940 C   0  0  0  0  0  3  0  0  0  0  0  0
  183.2490  180.2060  143.7110 C   0  0  0  0  0  3  0  0  0  0  0  0
  183.5600  177.4500  144.3250 C   0  0  0  0  0  2  0  0  0  0  0  0
  181.0850  179.2870  141.2980 C   0  0  0  0  0  0  0  0  0  0  0  0
  179.8540  178.5610  140.9240 C   0  0  2  0  0  3  0  0  0  0  0  0
  181.9810  179.5670  140.5170 O   0  0  0  0  0  0  0  0  0  0  0  0
  179.1140  178.3430  142.1680 N   0  0  0  0  0  2  0  0  0  0  0  0
  179.7110  179.1960  143.2010 C   0  0  0  0  0  2  0  0  0  0  0  0
  181.0310  179.7660  142.6880 C   0  0  1  0  0  3  0  0  0  0  0  0
  180.2860  177.1240  138.9380 C   0  0  0  0  0  3  0  0  0  0  0  0
  180.1510  177.2420  140.2690 C   0  0  0  0  0  3  0  0  0  0  0  0
  181.3780  178.6300  137.0870 C   0  0  1  0  0  0  0  0  0  0  0  0
  181.1340  181.2200  136.6610 C   0  0  0  0  0  2  0  0  0  0  0  0
  178.9770  180.2410  135.6360 C   0  0  0  0  0  2  0  0  0  0  0  0
  179.3420  178.7480  135.7600 C   0  0  2  0  0  3  0  0  0  0  0  0
  178.9420  178.1740  137.1070 C   0  0  0  0  0  2  0  0  0  0  0  0
  181.4910  179.2380  134.7040 O   0  0  0  0  0  1  0  0  0  0  0  0
  179.6050  181.2100  136.6550 C   0  0  1  0  0  3  0  0  0  0  0  0
  180.1690  178.3000  138.0000 C   0  0  1  0  0  3  0  0  0  0  0  0
  180.8310  178.4670  135.6660 C   0  0  1  0  0  3  0  0  0  0  0  0
  181.8110  180.0710  137.4300 C   0  0  0  0  0  2  0  0  0  0  0  0
  178.9590  181.1570  138.0360 C   0  0  0  0  0  2  0  0  0  0  0  0
  179.8700  181.7800  139.0770 C   0  0  0  0  0  1  0  0  0  0  0  0
  182.8670  176.7570  136.1470 C   0  0  0  0  0  1  0  0  0  0  0  0
  182.6130  177.7290  137.2900 C   0  0  0  0  0  2  0  0  0  0  0  0
  190.7750  176.3100  141.0250 C   0  0  0  0  0  2  0  0  0  0  0  0
  189.8120  177.1570  140.6470 C   0  0  0  0  0  0  0  0  0  0  0  0
  189.4170  177.0960  139.1910 C   0  0  1  0  0  3  0  0  0  0  0  0
  189.6060  178.3310  138.5650 O   0  0  0  0  0  0  0  0  0  0  0  0
  189.1320  178.1500  137.2650 C   0  0  0  0  0  2  0  0  0  0  0  0
  187.6710  179.8260  136.4080 O   0  0  0  0  0  0  0  0  0  0  0  0
  186.6930  178.2580  137.7780 O   0  0  0  0  0  1  0  0  0  0  0  0
  187.7990  178.8000  137.1290 C   0  0  0  0  0  0  0  0  0  0  0  0
  190.2020  176.0140  138.4500 C   0  0  0  0  0  2  0  0  0  0  0  0
  189.3000  175.0220  137.9620 O   0  0  0  0  0  0  0  0  0  0  0  0
  189.1650  174.7450  136.6020 C   0  0  0  0  0  0  0  0  0  0  0  0
  190.0750  174.1110  136.0010 O   0  0  0  0  0  0  0  0  0  0  0  0
  187.8990  175.0710  135.8640 C   0  0  0  0  0  2  0  0  0  0  0  0
  187.2480  173.8410  135.4320 N   0  0  0  0  0  2  0  0  0  0  0  0
  186.7470  173.1870  136.6280 C   0  0  0  0  0  2  0  0  0  0  0  0
  183.2280  171.9330  136.7820 C   0  0  0  0  0  3  0  0  0  0  0  0
  183.5410  171.8440  135.2840 C   0  0  0  0  0  3  0  0  0  0  0  0
  184.4960  172.4530  137.3790 C   0  0  0  0  0  3  0  0  0  0  0  0
  185.3640  172.6700  136.4130 C   0  0  0  0  0  0  0  0  0  0  0  0
  184.8490  172.3820  135.1670 O   0  0  0  0  0  0  0  0  0  0  0  0
  191.0250  176.3260  145.6410 N   0  0  0  0  0  0  0  0  0  0  0  0
  189.9410  176.7130  145.5260 C   0  0  0  0  0  0  0  0  0  0  0  0
  188.3530  177.1140  147.8010 O   0  0  0  0  0  0  0  0  0  0  0  0
  188.5410  178.1300  148.7730 C   0  0  0  0  0  2  0  0  0  0  0  0
  189.7090  179.0000  148.3670 C   0  0  0  0  0  1  0  0  0  0  0  0
  1 10  1  0  0  0  0
  2 12  1  0  0  0  0
  3 62  1  0  0  0  0
  3  8  1  0  0  0  0
  5 12  1  0  0  0  0
  5  1  2  0  0  0  0
  6  7  1  0  0  0  0
  6 11  1  0  0  0  0
  7  4  1  1  0  0  0
  7  2  1  0  0  0  0
  8 63  1  0  0  0  0
  9  5  1  0  0  0  0
 10  8  2  0  0  0  0
 11  9  1  0  0  0  0
 12  3  2  0  0  0  0
 13 17  1  0  0  0  0
 13 15  1  0  0  0  0
 14  1  1  6  0  0  0
 15 18  1  0  0  0  0
 16 14  1  0  0  0  0
 17 16  2  0  0  0  0
 18 14  1  0  0  0  0
 19 24  1  0  0  0  0
 20 26  1  1  0  0  0
 20 19  1  0  0  0  0
 20 22  1  0  0  0  0
 21 19  2  0  0  0  0
 22 23  1  0  0  0  0
 24 23  1  1  0  0  0
 24 13  1  0  0  0  0
 25 26  2  0  0  0  0
 27 40  1  1  0  0  0
 27 36  1  0  0  0  0
 27 34  1  0  0  0  0
 28 36  1  0  0  0  0
 29 33  1  0  0  0  0
 30 29  1  1  0  0  0
 30 31  1  0  0  0  0
 31 34  1  0  0  0  0
 33 28  1  0  0  0  0
 33 37  1  1  0  0  0
 34 25  1  6  0  0  0
 35 32  1  6  0  0  0
 35 30  1  0  0  0  0
 35 27  1  0  0  0  0
 37 38  1  0  0  0  0
 39 40  1  0  0  0  0
 42 41  2  0  0  0  0
 42  7  1  0  0  0  0
 43 49  1  6  0  0  0
 43 42  1  0  0  0  0
 44 43  1  0  0  0  0
 45 44  1  0  0  0  0
 46 48  2  0  0  0  0
 48 45  1  0  0  0  0
 48 47  1  0  0  0  0
 50 49  1  0  0  0  0
 51 50  1  0  0  0  0
 52 51  2  0  0  0  0
 53 51  1  0  0  0  0
 54 53  1  0  0  0  0
 54 55  1  0  0  0  0
 56 58  1  0  0  0  0
 57 56  2  0  0  0  0
 59 55  1  0  0  0  0
 59 58  2  0  0  0  0
 60 57  1  0  0  0  0
 60 59  1  0  0  0  0
 62 61  3  0  0  0  0
 63 64  1  0  0  0  0
 65 64  1  0  0  0  0
M  END
>  <MODEL>
4

>  <REMARK>
 VINA RESULT:      -5.5      2.455      7.892
  Name = 
  21 active torsions:
  status: ('A' for Active; 'I' for Inactive)
    1  A    between atoms: C_1  and  C_53
    2  A    between atoms: C_3  and  C_7
    3  A    between atoms: C_4  and  C_61
    4  A    between atoms: N_5  and  C_38
    5  A    between atoms: C_6  and  C_51
    6  A    between atoms: C_9  and  C_26
    7  A    between atoms: C_19  and  C_41
    8  A    between atoms: C_19  and  O_50
    9  A    between atoms: C_21  and  O_55
   10  A    between atoms: C_21  and  C_60
   11  A    between atoms: C_25  and  C_35
   12  A    between atoms: C_27  and  C_47
   13  A    between atoms: C_27  and  O_55
   14  A    between atoms: N_28  and  C_48
   15  A    between atoms: N_28  and  C_60
   16  A    between atoms: C_33  and  O_58
   17  A    between atoms: C_35  and  C_47
   18  A    between atoms: C_44  and  C_52
   19  A    between atoms: C_46  and  O_58
   20  A    between atoms: C_47  and  O_50
   21  A    between atoms: C_48  and  C_57
                            x       y       z     vdW  Elec       q    Type
                         _______ _______ _______ _____ _____    ______ ____

>  <TORSDO>
F 21

$$$$
=
 OpenBabel10222418333D

 65 71  0  0  1  0  0  0  0  0999 V2000
  185.8480  178.6580  145.3450 C   0  0  0  0  0  0  0  0  0  0  0  0
  188.6760  177.2880  143.1860 C   0  0  0  0  0  2  0  0  0  0  0  0
  188.5750  177.9880  145.5980 C   0  0  0  0  0  0  0  0  0  0  0  0
  189.5570  179.3430  142.0500 C   0  0  0  0  0  1  0  0  0  0  0  0
  186.6300  178.4260  144.1930 C   0  0  0  0  0  0  0  0  0  0  0  0
  187.5370  178.1840  141.2250 O   0  0  0  0  0  0  0  0  0  0  0  0
  188.8070  178.0160  141.8340 C   0  0  2  0  0  0  0  0  0  0  0  0
  187.8290  178.3250  146.7360 C   0  0  0  0  0  0  0  0  0  0  0  0
  186.0530  178.6410  142.9390 O   0  0  0  0  0  0  0  0  0  0  0  0
  186.4700  178.6300  146.6000 C   0  0  0  0  0  3  0  0  0  0  0  0
  186.7920  179.1870  141.8600 C   0  0  0  0  0  2  0  0  0  0  0  0
  187.9730  178.0000  144.3220 C   0  0  0  0  0  0  0  0  0  0  0  0
  181.9650  179.3710  143.6870 N   0  0  0  0  0  0  0  0  0  0  0  0
  184.3690  178.9920  145.2320 C   0  0  1  0  0  3  0  0  0  0  0  0
  182.0460  178.2440  144.6290 C   0  0  0  0  0  2  0  0  0  0  0  0
  184.1490  180.1800  144.3230 C   0  0  0  0  0  3  0  0  0  0  0  0
  183.0160  180.3510  143.6410 C   0  0  0  0  0  3  0  0  0  0  0  0
  183.4980  177.7980  144.7920 C   0  0  0  0  0  2  0  0  0  0  0  0
  180.8550  178.9680  141.5380 C   0  0  0  0  0  0  0  0  0  0  0  0
  179.7010  178.0770  141.3010 C   0  0  2  0  0  3  0  0  0  0  0  0
  181.7010  179.2340  140.6980 O   0  0  0  0  0  0  0  0  0  0  0  0
  179.0130  177.9480  142.5860 N   0  0  0  0  0  2  0  0  0  0  0  0
  179.5370  178.9840  143.4820 C   0  0  0  0  0  2  0  0  0  0  0  0
  180.7790  179.6150  142.8570 C   0  0  1  0  0  3  0  0  0  0  0  0
  180.3640  176.4800  139.5110 C   0  0  0  0  0  3  0  0  0  0  0  0
  180.1220  176.7210  140.8090 C   0  0  0  0  0  3  0  0  0  0  0  0
  181.4020  177.6770  137.4190 C   0  0  1  0  0  0  0  0  0  0  0  0
  181.2960  180.2120  136.7030 C   0  0  0  0  0  2  0  0  0  0  0  0
  179.0040  179.2860  135.9600 C   0  0  0  0  0  2  0  0  0  0  0  0
  179.2790  177.7940  136.2360 C   0  0  2  0  0  3  0  0  0  0  0  0
  178.9510  177.4100  137.6670 C   0  0  0  0  0  2  0  0  0  0  0  0
  181.3650  177.9980  134.9780 O   0  0  0  0  0  1  0  0  0  0  0  0
  179.7740  180.3160  136.8070 C   0  0  1  0  0  3  0  0  0  0  0  0
  180.2500  177.5450  138.4490 C   0  0  1  0  0  3  0  0  0  0  0  0
  180.7340  177.3940  136.0700 C   0  0  1  0  0  3  0  0  0  0  0  0
  181.9550  179.1120  137.5550 C   0  0  0  0  0  2  0  0  0  0  0  0
  179.2380  180.4700  138.2270 C   0  0  0  0  0  2  0  0  0  0  0  0
  180.0390  181.5070  138.9920 C   0  0  0  0  0  1  0  0  0  0  0  0
  183.8870  177.4090  138.0210 C   0  0  0  0  0  1  0  0  0  0  0  0
  182.5870  176.7160  137.6400 C   0  0  0  0  0  2  0  0  0  0  0  0
  190.2200  176.0300  141.3750 C   0  0  0  0  0  2  0  0  0  0  0  0
  189.6070  177.1150  140.8920 C   0  0  0  0  0  0  0  0  0  0  0  0
  189.5340  177.2140  139.3860 C   0  0  1  0  0  3  0  0  0  0  0  0
  189.1380  178.4910  138.9840 O   0  0  0  0  0  0  0  0  0  0  0  0
  188.9100  178.3800  137.6110 C   0  0  0  0  0  2  0  0  0  0  0  0
  187.2520  176.9210  136.7170 O   0  0  0  0  0  0  0  0  0  0  0  0
  186.4560  178.7220  137.9070 O   0  0  0  0  0  1  0  0  0  0  0  0
  187.4990  177.9670  137.3760 C   0  0  0  0  0  0  0  0  0  0  0  0
  190.8760  176.8610  138.7440 C   0  0  0  0  0  2  0  0  0  0  0  0
  190.7940  175.5670  138.1510 O   0  0  0  0  0  0  0  0  0  0  0  0
  190.9110  175.3710  136.7750 C   0  0  0  0  0  0  0  0  0  0  0  0
  190.0070  174.7490  136.1540 O   0  0  0  0  0  0  0  0  0  0  0  0
  192.0300  175.9970  135.9930 C   0  0  0  0  0  2  0  0  0  0  0  0
  193.2980  175.7600  136.6710 N   0  0  0  0  0  2  0  0  0  0  0  0
  194.0020  174.7450  135.9070 C   0  0  0  0  0  2  0  0  0  0  0  0
  195.6320  171.8740  137.6610 C   0  0  0  0  0  3  0  0  0  0  0  0
  195.7290  172.9920  138.7050 C   0  0  0  0  0  3  0  0  0  0  0  0
  194.9250  172.5200  136.5130 C   0  0  0  0  0  3  0  0  0  0  0  0
  194.6960  173.7830  136.8110 C   0  0  0  0  0  0  0  0  0  0  0  0
  195.1850  174.1290  138.0520 O   0  0  0  0  0  0  0  0  0  0  0  0
  191.0630  177.2790  145.8900 N   0  0  0  0  0  0  0  0  0  0  0  0
  189.9580  177.5930  145.7560 C   0  0  0  0  0  0  0  0  0  0  0  0
  188.4440  178.3400  147.9950 O   0  0  0  0  0  0  0  0  0  0  0  0
  187.8580  177.7510  149.1450 C   0  0  0  0  0  2  0  0  0  0  0  0
  187.5170  176.3080  148.8500 C   0  0  0  0  0  1  0  0  0  0  0  0
  1 10  1  0  0  0  0
  2 12  1  0  0  0  0
  3 62  1  0  0  0  0
  3  8  1  0  0  0  0
  5 12  1  0  0  0  0
  5  1  2  0  0  0  0
  6  7  1  0  0  0  0
  6 11  1  0  0  0  0
  7  4  1  1  0  0  0
  7  2  1  0  0  0  0
  8 63  1  0  0  0  0
  9  5  1  0  0  0  0
 10  8  2  0  0  0  0
 11  9  1  0  0  0  0
 12  3  2  0  0  0  0
 13 15  1  0  0  0  0
 14  1  1  6  0  0  0
 15 18  1  0  0  0  0
 16 14  1  0  0  0  0
 17 13  1  0  0  0  0
 17 16  2  0  0  0  0
 18 14  1  0  0  0  0
 19 24  1  0  0  0  0
 20 26  1  1  0  0  0
 20 19  1  0  0  0  0
 20 22  1  0  0  0  0
 21 19  2  0  0  0  0
 22 23  1  0  0  0  0
 24 23  1  1  0  0  0
 24 13  1  0  0  0  0
 25 26  2  0  0  0  0
 27 36  1  0  0  0  0
 27 40  1  1  0  0  0
 27 34  1  0  0  0  0
 28 33  1  0  0  0  0
 28 36  1  0  0  0  0
 29 33  1  0  0  0  0
 30 29  1  1  0  0  0
 30 31  1  0  0  0  0
 31 34  1  0  0  0  0
 33 37  1  1  0  0  0
 34 25  1  6  0  0  0
 35 32  1  6  0  0  0
 35 30  1  0  0  0  0
 35 27  1  0  0  0  0
 37 38  1  0  0  0  0
 40 39  1  0  0  0  0
 42 41  2  0  0  0  0
 42  7  1  0  0  0  0
 43 49  1  6  0  0  0
 43 42  1  0  0  0  0
 44 43  1  0  0  0  0
 45 44  1  0  0  0  0
 46 48  2  0  0  0  0
 48 45  1  0  0  0  0
 48 47  1  0  0  0  0
 50 49  1  0  0  0  0
 51 50  1  0  0  0  0
 52 51  2  0  0  0  0
 53 54  1  0  0  0  0
 53 51  1  0  0  0  0
 55 54  1  0  0  0  0
 55 59  1  0  0  0  0
 56 57  2  0  0  0  0
 58 59  2  0  0  0  0
 58 56  1  0  0  0  0
 59 60  1  0  0  0  0
 60 57  1  0  0  0  0
 62 61  3  0  0  0  0
 63 64  1  0  0  0  0
 65 64  1  0  0  0  0
M  END
>  <MODEL>
5

>  <REMARK>
 VINA RESULT:      -5.3      2.446      8.530
  Name = 
  21 active torsions:
  status: ('A' for Active; 'I' for Inactive)
    1  A    between atoms: C_1  and  C_53
    2  A    between atoms: C_3  and  C_7
    3  A    between atoms: C_4  and  C_61
    4  A    between atoms: N_5  and  C_38
    5  A    between atoms: C_6  and  C_51
    6  A    between atoms: C_9  and  C_26
    7  A    between atoms: C_19  and  C_41
    8  A    between atoms: C_19  and  O_50
    9  A    between atoms: C_21  and  O_55
   10  A    between atoms: C_21  and  C_60
   11  A    between atoms: C_25  and  C_35
   12  A    between atoms: C_27  and  C_47
   13  A    between atoms: C_27  and  O_55
   14  A    between atoms: N_28  and  C_48
   15  A    between atoms: N_28  and  C_60
   16  A    between atoms: C_33  and  O_58
   17  A    between atoms: C_35  and  C_47
   18  A    between atoms: C_44  and  C_52
   19  A    between atoms: C_46  and  O_58
   20  A    between atoms: C_47  and  O_50
   21  A    between atoms: C_48  and  C_57
                            x       y       z     vdW  Elec       q    Type
                         _______ _______ _______ _____ _____    ______ ____

>  <TORSDO>
F 21

$$$$
=
 OpenBabel10222418333D

 65 71  0  0  1  0  0  0  0  0999 V2000
  188.3430  177.4330  142.1340 C   0  0  0  0  0  0  0  0  0  0  0  0
  185.1290  179.2760  141.2380 C   0  0  0  0  0  2  0  0  0  0  0  0
  185.9260  178.2010  143.3650 C   0  0  0  0  0  0  0  0  0  0  0  0
  183.7230  177.4770  140.2010 C   0  0  0  0  0  1  0  0  0  0  0  0
  187.2610  177.8850  141.3480 C   0  0  0  0  0  0  0  0  0  0  0  0
  185.4790  178.6410  138.9100 O   0  0  0  0  0  0  0  0  0  0  0  0
  184.4970  178.7790  139.9240 C   0  0  2  0  0  0  0  0  0  0  0  0
  186.9600  177.6490  144.1360 C   0  0  0  0  0  0  0  0  0  0  0  0
  187.3790  177.8400  139.9580 O   0  0  0  0  0  0  0  0  0  0  0  0
  188.1630  177.2970  143.5160 C   0  0  0  0  0  3  0  0  0  0  0  0
  186.2810  177.5120  139.1240 C   0  0  0  0  0  2  0  0  0  0  0  0
  186.0820  178.3580  141.9710 C   0  0  0  0  0  0  0  0  0  0  0  0
  191.5020  177.0320  139.2700 N   0  0  0  0  0  0  0  0  0  0  0  0
  189.6650  177.0410  141.4920 C   0  0  1  0  0  3  0  0  0  0  0  0
  191.8570  177.7640  140.4960 C   0  0  0  0  0  2  0  0  0  0  0  0
  189.4400  176.2300  140.2360 C   0  0  0  0  0  3  0  0  0  0  0  0
  190.3190  176.2170  139.2330 C   0  0  0  0  0  3  0  0  0  0  0  0
  190.5930  178.2400  141.2090 C   0  0  0  0  0  2  0  0  0  0  0  0
  193.1470  175.7480  137.9830 C   0  0  0  0  0  0  0  0  0  0  0  0
  192.9180  175.0830  136.6840 C   0  0  2  0  0  3  0  0  0  0  0  0
  193.9640  175.3740  138.8110 O   0  0  0  0  0  0  0  0  0  0  0  0
  191.7920  175.7790  136.0610 N   0  0  0  0  0  2  0  0  0  0  0  0
  191.5670  177.0240  136.8040 C   0  0  0  0  0  2  0  0  0  0  0  0
  192.3810  176.9980  138.0950 C   0  0  1  0  0  3  0  0  0  0  0  0
  193.5260  172.6690  136.6990 C   0  0  0  0  0  3  0  0  0  0  0  0
  192.5940  173.6240  136.8420 C   0  0  0  0  0  3  0  0  0  0  0  0
  196.0630  172.0850  137.0240 C   0  0  1  0  0  0  0  0  0  0  0  0
  198.1570  173.6830  137.1570 C   0  0  0  0  0  2  0  0  0  0  0  0
  197.6840  173.5290  134.6240 C   0  0  0  0  0  2  0  0  0  0  0  0
  196.6050  172.4280  134.6770 C   0  0  2  0  0  3  0  0  0  0  0  0
  195.2150  173.0030  134.8830 C   0  0  0  0  0  2  0  0  0  0  0  0
  198.1060  171.0940  136.0700 O   0  0  0  0  0  1  0  0  0  0  0  0
  197.8350  174.4310  135.8630 C   0  0  1  0  0  3  0  0  0  0  0  0
  194.9690  172.9790  136.3850 C   0  0  1  0  0  3  0  0  0  0  0  0
  196.7760  171.4510  135.8250 C   0  0  1  0  0  3  0  0  0  0  0  0
  196.9620  173.0180  137.8640 C   0  0  0  0  0  2  0  0  0  0  0  0
  196.7470  175.4910  135.9890 C   0  0  0  0  0  2  0  0  0  0  0  0
  196.6530  176.3170  134.7200 C   0  0  0  0  0  1  0  0  0  0  0  0
  196.3040  169.6770  137.8910 C   0  0  0  0  0  1  0  0  0  0  0  0
  195.5390  170.9900  137.9740 C   0  0  0  0  0  2  0  0  0  0  0  0
  184.0180  181.0110  138.9530 C   0  0  0  0  0  2  0  0  0  0  0  0
  183.5330  179.8600  139.4280 C   0  0  0  0  0  0  0  0  0  0  0  0
  182.0630  179.6130  139.1850 C   0  0  1  0  0  3  0  0  0  0  0  0
  181.2970  180.0070  140.2840 O   0  0  0  0  0  0  0  0  0  0  0  0
  181.1340  178.8450  141.0420 C   0  0  0  0  0  2  0  0  0  0  0  0
  179.1380  177.8660  140.1870 O   0  0  0  0  0  0  0  0  0  0  0  0
  178.9490  178.8750  142.2450 O   0  0  0  0  0  1  0  0  0  0  0  0
  179.6870  178.5070  141.1230 C   0  0  0  0  0  0  0  0  0  0  0  0
  181.5820  180.3420  137.9300 C   0  0  0  0  0  2  0  0  0  0  0  0
  181.4630  179.4120  136.8550 O   0  0  0  0  0  0  0  0  0  0  0  0
  181.0790  178.0870  137.0580 C   0  0  0  0  0  0  0  0  0  0  0  0
  179.8590  177.7740  136.9940 O   0  0  0  0  0  0  0  0  0  0  0  0
  182.1000  176.9970  137.2250 C   0  0  0  0  0  2  0  0  0  0  0  0
  182.1930  176.2170  135.9980 N   0  0  0  0  0  2  0  0  0  0  0  0
  182.4760  174.8480  136.3890 C   0  0  0  0  0  2  0  0  0  0  0  0
  185.5540  173.1960  135.0560 C   0  0  0  0  0  3  0  0  0  0  0  0
  186.0900  174.5510  135.5280 C   0  0  0  0  0  3  0  0  0  0  0  0
  184.0990  173.2510  135.3950 C   0  0  0  0  0  3  0  0  0  0  0  0
  183.8290  174.4290  135.9210 C   0  0  0  0  0  0  0  0  0  0  0  0
  184.9370  175.2460  135.9780 O   0  0  0  0  0  0  0  0  0  0  0  0
  183.7520  178.9970  144.5540 N   0  0  0  0  0  0  0  0  0  0  0  0
  184.7160  178.6400  144.0250 C   0  0  0  0  0  0  0  0  0  0  0  0
  186.7830  177.4690  145.5140 O   0  0  0  0  0  0  0  0  0  0  0  0
  187.3220  178.3560  146.4810 C   0  0  0  0  0  2  0  0  0  0  0  0
  188.1080  177.5650  147.5020 C   0  0  0  0  0  1  0  0  0  0  0  0
  1 10  1  0  0  0  0
  2 12  1  0  0  0  0
  3 62  1  0  0  0  0
  3  8  1  0  0  0  0
  5 12  1  0  0  0  0
  5  1  2  0  0  0  0
  6 11  1  0  0  0  0
  6  7  1  0  0  0  0
  7  4  1  1  0  0  0
  7  2  1  0  0  0  0
  8 63  1  0  0  0  0
  9  5  1  0  0  0  0
 10  8  2  0  0  0  0
 11  9  1  0  0  0  0
 12  3  2  0  0  0  0
 13 15  1  0  0  0  0
 14  1  1  6  0  0  0
 15 18  1  0  0  0  0
 16 14  1  0  0  0  0
 17 13  1  0  0  0  0
 17 16  2  0  0  0  0
 18 14  1  0  0  0  0
 19 24  1  0  0  0  0
 19 21  2  0  0  0  0
 20 26  1  1  0  0  0
 20 19  1  0  0  0  0
 22 20  1  0  0  0  0
 22 23  1  0  0  0  0
 24 23  1  6  0  0  0
 24 13  1  0  0  0  0
 25 26  2  0  0  0  0
 27 36  1  0  0  0  0
 27 40  1  1  0  0  0
 28 36  1  0  0  0  0
 29 33  1  0  0  0  0
 30 29  1  1  0  0  0
 30 31  1  0  0  0  0
 30 35  1  0  0  0  0
 31 34  1  0  0  0  0
 33 37  1  1  0  0  0
 33 28  1  0  0  0  0
 34 25  1  6  0  0  0
 34 27  1  0  0  0  0
 35 32  1  1  0  0  0
 35 27  1  0  0  0  0
 38 37  1  0  0  0  0
 39 40  1  0  0  0  0
 41 42  2  0  0  0  0
 42  7  1  0  0  0  0
 43 49  1  6  0  0  0
 43 42  1  0  0  0  0
 43 44  1  0  0  0  0
 44 45  1  0  0  0  0
 45 48  1  0  0  0  0
 46 48  2  0  0  0  0
 48 47  1  0  0  0  0
 50 51  1  0  0  0  0
 50 49  1  0  0  0  0
 51 53  1  0  0  0  0
 52 51  2  0  0  0  0
 54 55  1  0  0  0  0
 54 53  1  0  0  0  0
 56 58  1  0  0  0  0
 56 57  2  0  0  0  0
 57 60  1  0  0  0  0
 58 59  2  0  0  0  0
 59 60  1  0  0  0  0
 59 55  1  0  0  0  0
 62 61  3  0  0  0  0
 63 64  1  0  0  0  0
 64 65  1  0  0  0  0
M  END
>  <MODEL>
6

>  <REMARK>
 VINA RESULT:      -5.0      2.662     11.906
  Name = 
  21 active torsions:
  status: ('A' for Active; 'I' for Inactive)
    1  A    between atoms: C_1  and  C_53
    2  A    between atoms: C_3  and  C_7
    3  A    between atoms: C_4  and  C_61
    4  A    between atoms: N_5  and  C_38
    5  A    between atoms: C_6  and  C_51
    6  A    between atoms: C_9  and  C_26
    7  A    between atoms: C_19  and  C_41
    8  A    between atoms: C_19  and  O_50
    9  A    between atoms: C_21  and  O_55
   10  A    between atoms: C_21  and  C_60
   11  A    between atoms: C_25  and  C_35
   12  A    between atoms: C_27  and  C_47
   13  A    between atoms: C_27  and  O_55
   14  A    between atoms: N_28  and  C_48
   15  A    between atoms: N_28  and  C_60
   16  A    between atoms: C_33  and  O_58
   17  A    between atoms: C_35  and  C_47
   18  A    between atoms: C_44  and  C_52
   19  A    between atoms: C_46  and  O_58
   20  A    between atoms: C_47  and  O_50
   21  A    between atoms: C_48  and  C_57
                            x       y       z     vdW  Elec       q    Type
                         _______ _______ _______ _____ _____    ______ ____

>  <TORSDO>
F 21

$$$$
