=
 OpenBabel10222419593D

 36 41  0  0  1  0  0  0  0  0999 V2000
  185.0820  178.0810  143.1520 C   0  0  1  0  0  3  0  0  0  0  0  0
  189.3230  176.9340  136.5670 C   0  0  0  0  0  0  0  0  0  0  0  0
  190.5770  177.3360  142.3470 C   0  0  0  0  0  2  0  0  0  0  0  0
  184.2340  178.0930  141.9000 C   0  0  0  0  0  0  0  0  0  0  0  0
  187.3030  177.0020  143.8700 C   0  0  0  0  0  0  0  0  0  0  0  0
  188.8010  177.8110  138.5320 C   0  0  0  0  0  0  0  0  0  0  0  0
  190.6760  177.0780  139.8260 C   0  0  0  0  0  3  0  0  0  0  0  0
  189.2140  176.4840  135.2220 N   0  0  0  0  0  1  0  0  0  0  0  0
  185.9920  178.8640  140.5860 O   0  0  0  0  0  0  0  0  0  0  0  0
  183.8240  180.2320  143.8650 C   0  0  0  0  0  2  0  0  0  0  0  0
  190.0110  177.5710  140.9810 C   0  0  0  0  0  0  0  0  0  0  0  0
  186.4270  177.5730  142.8900 N   0  0  0  0  0  2  0  0  0  0  0  0
  190.0370  177.2520  138.5880 C   0  0  0  0  0  0  0  0  0  0  0  0
  185.1480  179.4600  143.8230 C   0  0  0  0  0  2  0  0  0  0  0  0
  188.5190  176.6760  143.5180 C   0  0  0  0  0  0  0  0  0  0  0  0
  184.6870  178.4510  140.7360 N   0  0  0  0  0  0  0  0  0  0  0  0
  188.7310  178.1660  140.8720 C   0  0  0  0  0  3  0  0  0  0  0  0
  182.0310  178.9490  142.6850 C   0  0  0  0  0  2  0  0  0  0  0  0
  186.1490  178.3940  138.1680 C   0  0  0  0  0  3  0  0  0  0  0  0
  190.3700  176.6910  137.3160 N   0  0  0  0  0  0  0  0  0  0  0  0
  188.0980  178.2540  139.6270 C   0  0  0  0  0  0  0  0  0  0  0  0
  188.2670  177.6370  137.3060 C   0  0  0  0  0  0  0  0  0  0  0  0
  182.7850  177.7770  142.0580 C   0  0  0  0  0  2  0  0  0  0  0  0
  182.5930  179.3480  144.0500 C   0  0  0  0  0  2  0  0  0  0  0  0
  189.7360  176.3720  143.1370 C   0  0  0  0  0  3  0  0  0  0  0  0
  186.9160  177.9160  137.0740 C   0  0  0  0  0  3  0  0  0  0  0  0
  186.7390  178.5500  139.4550 C   0  0  0  0  0  0  0  0  0  0  0  0
  186.8140  176.6470  145.2360 C   0  0  0  0  0  2  0  0  0  0  0  0
  187.2530  177.6830  146.2590 C   0  0  0  0  0  2  0  0  0  0  0  0
  189.4820  177.5580  146.8900 C   0  0  1  0  0  3  0  0  0  0  0  0
  188.1640  177.0810  147.2190 N   0  0  0  0  0  0  0  0  0  0  0  0
  188.7710  178.1230  147.8990 O   0  0  0  0  0  0  0  0  0  0  0  0
  190.5190  176.6140  147.4700 C   0  0  0  0  0  2  0  0  0  0  0  0
  192.4720  175.3490  146.5860 O   0  0  0  0  0  1  0  0  0  0  0  0
  191.6660  176.4770  146.5310 C   0  0  0  0  0  0  0  0  0  0  0  0
  191.8820  177.3660  145.6660 O   0  0  0  0  0  0  0  0  0  0  0  0
  1 14  1  6  0  0  0
  2 22  1  0  0  0  0
  2 20  2  0  0  0  0
  3 25  1  0  0  0  0
  4 23  1  0  0  0  0
  4  1  1  0  0  0  0
  5 28  1  0  0  0  0
  6 13  1  0  0  0  0
  6 21  1  0  0  0  0
  7 11  1  0  0  0  0
  8  2  1  0  0  0  0
  9 16  1  0  0  0  0
 10 24  1  0  0  0  0
 11  3  1  0  0  0  0
 12  1  1  0  0  0  0
 12  5  1  0  0  0  0
 13  7  2  0  0  0  0
 14 10  1  0  0  0  0
 15  5  2  0  0  0  0
 16  4  2  0  0  0  0
 17 11  2  0  0  0  0
 18 24  1  0  0  0  0
 19 27  1  0  0  0  0
 20 13  1  0  0  0  0
 21 17  1  0  0  0  0
 22  6  2  0  0  0  0
 23 18  1  0  0  0  0
 25 15  2  0  0  0  0
 26 22  1  0  0  0  0
 26 19  2  0  0  0  0
 27 21  2  0  0  0  0
 27  9  1  0  0  0  0
 28 29  1  0  0  0  0
 29 31  1  0  0  0  0
 30 31  1  0  0  0  0
 30 33  1  1  0  0  0
 30 32  1  0  0  0  0
 31 32  1  0  0  0  0
 35 34  1  0  0  0  0
 35 33  1  0  0  0  0
 36 35  2  0  0  0  0
M  END
>  <MODEL>
1

>  <REMARK>
 VINA RESULT:      -9.0      0.000      0.000
  Name = 
  5 active torsions:
  status: ('A' for Active; 'I' for Inactive)
    1  A    between atoms: C_2  and  N_15
    2  A    between atoms: C_2  and  C_29
    3  A    between atoms: C_7  and  C_29
    4  A    between atoms: C_8  and  C_22
    5  A    between atoms: C_18  and  C_22
                            x       y       z     vdW  Elec       q    Type
                         _______ _______ _______ _____ _____    ______ ____

>  <TORSDO>
F 5

$$$$
=
 OpenBabel10222419593D

 36 41  0  0  1  0  0  0  0  0999 V2000
  185.0320  178.5190  138.9090 C   0  0  1  0  0  3  0  0  0  0  0  0
  186.2300  178.9300  146.7230 C   0  0  0  0  0  0  0  0  0  0  0  0
  189.2660  176.7470  142.1230 C   0  0  0  0  0  2  0  0  0  0  0  0
  183.8850  179.1780  139.6430 C   0  0  0  0  0  0  0  0  0  0  0  0
  187.5580  178.2420  139.2950 C   0  0  0  0  0  0  0  0  0  0  0  0
  186.1600  177.9990  144.7150 C   0  0  0  0  0  0  0  0  0  0  0  0
  188.4740  177.4650  144.4230 C   0  0  0  0  0  3  0  0  0  0  0  0
  185.8470  179.6570  147.8840 N   0  0  0  0  0  1  0  0  0  0  0  0
  184.2990  177.9750  141.5910 O   0  0  0  0  0  0  0  0  0  0  0  0
  183.2480  177.1150  137.6580 C   0  0  0  0  0  2  0  0  0  0  0  0
  188.1730  177.1070  143.0810 C   0  0  0  0  0  0  0  0  0  0  0  0
  186.2100  178.3780  139.7610 N   0  0  0  0  0  2  0  0  0  0  0  0
  187.4090  177.8850  145.2350 C   0  0  0  0  0  0  0  0  0  0  0  0
  184.6350  177.1620  138.3090 C   0  0  0  0  0  2  0  0  0  0  0  0
  188.5110  178.0250  140.1640 C   0  0  0  0  0  0  0  0  0  0  0  0
  183.5820  178.9100  140.8780 N   0  0  0  0  0  0  0  0  0  0  0  0
  186.8520  177.2230  142.5870 C   0  0  0  0  0  3  0  0  0  0  0  0
  182.0830  179.3120  137.9300 C   0  0  0  0  0  2  0  0  0  0  0  0
  183.7030  178.8260  143.8300 C   0  0  0  0  0  3  0  0  0  0  0  0
  187.4470  178.4840  146.5330 N   0  0  0  0  0  0  0  0  0  0  0  0
  185.8320  177.7150  143.4110 C   0  0  0  0  0  0  0  0  0  0  0  0
  185.3590  178.6650  145.5720 C   0  0  0  0  0  0  0  0  0  0  0  0
  183.0120  180.0950  138.8560 C   0  0  0  0  0  2  0  0  0  0  0  0
  182.8440  178.4110  136.9570 C   0  0  0  0  0  2  0  0  0  0  0  0
  189.4400  177.7960  141.0610 C   0  0  0  0  0  3  0  0  0  0  0  0
  184.0980  179.1120  145.1630 C   0  0  0  0  0  3  0  0  0  0  0  0
  184.5800  178.1370  142.9450 C   0  0  0  0  0  0  0  0  0  0  0  0
  187.9130  178.4810  137.8630 C   0  0  0  0  0  2  0  0  0  0  0  0
  188.6310  177.2770  137.2720 C   0  0  0  0  0  2  0  0  0  0  0  0
  190.6350  176.2450  137.8230 C   0  0  1  0  0  3  0  0  0  0  0  0
  190.0700  177.4760  137.3340 N   0  0  0  0  0  0  0  0  0  0  0  0
  190.6380  176.5320  136.4960 O   0  0  0  0  0  0  0  0  0  0  0  0
  192.0110  176.5170  138.4030 C   0  0  0  0  0  2  0  0  0  0  0  0
  194.0990  176.2760  137.0710 O   0  0  0  0  0  0  0  0  0  0  0  0
  193.0290  175.6750  137.7180 C   0  0  0  0  0  0  0  0  0  0  0  0
  192.9380  174.4200  137.7550 O   0  0  0  0  0  1  0  0  0  0  0  0
  1 14  1  1  0  0  0
  1  4  1  0  0  0  0
  1 12  1  0  0  0  0
  2  8  1  0  0  0  0
  3 11  1  0  0  0  0
  4 16  2  0  0  0  0
  5 12  1  0  0  0  0
  5 15  2  0  0  0  0
  6 13  1  0  0  0  0
  6 22  1  0  0  0  0
  7 13  2  0  0  0  0
  9 27  1  0  0  0  0
 10 14  1  0  0  0  0
 11  7  1  0  0  0  0
 13 20  1  0  0  0  0
 15 25  2  0  0  0  0
 16  9  1  0  0  0  0
 17 11  2  0  0  0  0
 17 21  1  0  0  0  0
 18 23  1  0  0  0  0
 19 26  1  0  0  0  0
 20  2  2  0  0  0  0
 21  6  2  0  0  0  0
 22  2  1  0  0  0  0
 23  4  1  0  0  0  0
 24 10  1  0  0  0  0
 24 18  1  0  0  0  0
 25  3  1  0  0  0  0
 26 22  2  0  0  0  0
 27 21  1  0  0  0  0
 27 19  2  0  0  0  0
 28  5  1  0  0  0  0
 29 31  1  0  0  0  0
 29 28  1  0  0  0  0
 30 33  1  1  0  0  0
 31 30  1  0  0  0  0
 32 31  1  0  0  0  0
 32 30  1  0  0  0  0
 34 35  2  0  0  0  0
 35 36  1  0  0  0  0
 35 33  1  0  0  0  0
M  END
>  <MODEL>
2

>  <REMARK>
 VINA RESULT:      -8.9      3.022      7.103
  Name = 
  5 active torsions:
  status: ('A' for Active; 'I' for Inactive)
    1  A    between atoms: C_2  and  N_15
    2  A    between atoms: C_2  and  C_29
    3  A    between atoms: C_7  and  C_29
    4  A    between atoms: C_8  and  C_22
    5  A    between atoms: C_18  and  C_22
                            x       y       z     vdW  Elec       q    Type
                         _______ _______ _______ _____ _____    ______ ____

>  <TORSDO>
F 5

$$$$
=
 OpenBabel10222419593D

 36 41  0  0  1  0  0  0  0  0999 V2000
  185.2480  178.4810  139.0400 C   0  0  1  0  0  3  0  0  0  0  0  0
  186.2490  178.9680  146.8770 C   0  0  0  0  0  0  0  0  0  0  0  0
  189.3950  176.7320  142.3780 C   0  0  0  0  0  2  0  0  0  0  0  0
  184.0850  179.1500  139.7380 C   0  0  0  0  0  0  0  0  0  0  0  0
  187.7630  178.2020  139.4920 C   0  0  0  0  0  0  0  0  0  0  0  0
  186.2280  178.0180  144.8770 C   0  0  0  0  0  0  0  0  0  0  0  0
  188.5470  177.4760  144.6490 C   0  0  0  0  0  3  0  0  0  0  0  0
  185.8390  179.7080  148.0200 N   0  0  0  0  0  1  0  0  0  0  0  0
  184.4460  177.9660  141.7080 O   0  0  0  0  0  0  0  0  0  0  0  0
  183.4920  177.0680  137.7580 C   0  0  0  0  0  2  0  0  0  0  0  0
  188.2790  177.1040  143.3030 C   0  0  0  0  0  0  0  0  0  0  0  0
  186.4040  178.3460  139.9230 N   0  0  0  0  0  2  0  0  0  0  0  0
  187.4630  177.9060  145.4290 C   0  0  0  0  0  0  0  0  0  0  0  0
  184.8630  177.1190  138.4440 C   0  0  0  0  0  2  0  0  0  0  0  0
  188.6930  177.9920  140.3870 C   0  0  0  0  0  0  0  0  0  0  0  0
  183.7500  178.8950  140.9670 N   0  0  0  0  0  0  0  0  0  0  0  0
  186.9710  177.2190  142.7760 C   0  0  0  0  0  3  0  0  0  0  0  0
  182.3270  179.2700  137.9780 C   0  0  0  0  0  2  0  0  0  0  0  0
  183.7950  178.8410  143.9220 C   0  0  0  0  0  3  0  0  0  0  0  0
  187.4690  178.5180  146.7220 N   0  0  0  0  0  0  0  0  0  0  0  0
  185.9320  177.7210  143.5680 C   0  0  0  0  0  0  0  0  0  0  0  0
  185.4070  178.6940  145.7060 C   0  0  0  0  0  0  0  0  0  0  0  0
  183.2340  180.0610  138.9190 C   0  0  0  0  0  2  0  0  0  0  0  0
  183.1100  178.3580  137.0340 C   0  0  0  0  0  2  0  0  0  0  0  0
  189.5980  177.7700  141.3090 C   0  0  0  0  0  3  0  0  0  0  0  0
  184.1580  179.1400  145.2620 C   0  0  0  0  0  3  0  0  0  0  0  0
  184.6930  178.1420  143.0660 C   0  0  0  0  0  0  0  0  0  0  0  0
  188.1550  178.4250  138.0670 C   0  0  0  0  0  2  0  0  0  0  0  0
  189.5270  177.8350  137.7800 C   0  0  0  0  0  2  0  0  0  0  0  0
  190.7370  175.9220  137.2690 C   0  0  1  0  0  3  0  0  0  0  0  0
  189.3990  176.4350  137.4110 N   0  0  0  0  0  0  0  0  0  0  0  0
  190.0260  175.7030  138.4040 O   0  0  0  0  0  0  0  0  0  0  0  0
  190.7110  174.6750  136.4060 C   0  0  0  0  0  2  0  0  0  0  0  0
  192.0720  172.6260  136.0240 O   0  0  0  0  0  0  0  0  0  0  0  0
  191.9040  173.8320  136.6900 C   0  0  0  0  0  0  0  0  0  0  0  0
  192.7750  174.2290  137.5080 O   0  0  0  0  0  1  0  0  0  0  0  0
  1 14  1  1  0  0  0
  1  4  1  0  0  0  0
  1 12  1  0  0  0  0
  2  8  1  0  0  0  0
  3 11  1  0  0  0  0
  4 16  2  0  0  0  0
  5 12  1  0  0  0  0
  5 15  2  0  0  0  0
  6 13  1  0  0  0  0
  6 22  1  0  0  0  0
  7 13  2  0  0  0  0
  9 27  1  0  0  0  0
 10 14  1  0  0  0  0
 11  7  1  0  0  0  0
 13 20  1  0  0  0  0
 15 25  2  0  0  0  0
 16  9  1  0  0  0  0
 17 11  2  0  0  0  0
 17 21  1  0  0  0  0
 18 23  1  0  0  0  0
 19 26  1  0  0  0  0
 20  2  2  0  0  0  0
 21  6  2  0  0  0  0
 22  2  1  0  0  0  0
 23  4  1  0  0  0  0
 24 10  1  0  0  0  0
 24 18  1  0  0  0  0
 25  3  1  0  0  0  0
 26 22  2  0  0  0  0
 27 21  1  0  0  0  0
 27 19  2  0  0  0  0
 28  5  1  0  0  0  0
 29 28  1  0  0  0  0
 30 33  1  6  0  0  0
 30 31  1  0  0  0  0
 30 32  1  0  0  0  0
 31 29  1  0  0  0  0
 31 32  1  0  0  0  0
 33 35  1  0  0  0  0
 34 35  2  0  0  0  0
 35 36  1  0  0  0  0
M  END
>  <MODEL>
3

>  <REMARK>
 VINA RESULT:      -8.4      3.067      7.233
  Name = 
  5 active torsions:
  status: ('A' for Active; 'I' for Inactive)
    1  A    between atoms: C_2  and  N_15
    2  A    between atoms: C_2  and  C_29
    3  A    between atoms: C_7  and  C_29
    4  A    between atoms: C_8  and  C_22
    5  A    between atoms: C_18  and  C_22
                            x       y       z     vdW  Elec       q    Type
                         _______ _______ _______ _____ _____    ______ ____

>  <TORSDO>
F 5

$$$$
=
 OpenBabel10222419593D

 36 41  0  0  1  0  0  0  0  0999 V2000
  185.2230  178.5400  139.0870 C   0  0  1  0  0  3  0  0  0  0  0  0
  186.4730  178.8030  146.9000 C   0  0  0  0  0  0  0  0  0  0  0  0
  189.4690  176.6900  142.2410 C   0  0  0  0  0  2  0  0  0  0  0  0
  184.0840  179.1910  139.8410 C   0  0  0  0  0  0  0  0  0  0  0  0
  187.7510  178.2450  139.4510 C   0  0  0  0  0  0  0  0  0  0  0  0
  186.3860  177.9100  144.8750 C   0  0  0  0  0  0  0  0  0  0  0  0
  188.6960  177.3700  144.5580 C   0  0  0  0  0  3  0  0  0  0  0  0
  186.1010  179.5110  148.0760 N   0  0  0  0  0  1  0  0  0  0  0  0
  184.5050  177.9510  141.7640 O   0  0  0  0  0  0  0  0  0  0  0  0
  183.4240  177.1680  137.8220 C   0  0  0  0  0  2  0  0  0  0  0  0
  188.3850  177.0380  143.2120 C   0  0  0  0  0  0  0  0  0  0  0  0
  186.4060  178.3780  139.9290 N   0  0  0  0  0  2  0  0  0  0  0  0
  187.6380  177.7800  145.3850 C   0  0  0  0  0  0  0  0  0  0  0  0
  184.8160  177.1970  138.4650 C   0  0  0  0  0  2  0  0  0  0  0  0
  188.7080  178.0080  140.3110 C   0  0  0  0  0  0  0  0  0  0  0  0
  183.7880  178.9020  141.0720 N   0  0  0  0  0  0  0  0  0  0  0  0
  187.0600  177.1690  142.7300 C   0  0  0  0  0  3  0  0  0  0  0  0
  182.2720  179.3650  138.1420 C   0  0  0  0  0  2  0  0  0  0  0  0
  183.9270  178.7640  144.0210 C   0  0  0  0  0  3  0  0  0  0  0  0
  187.6870  178.3550  146.6930 N   0  0  0  0  0  0  0  0  0  0  0  0
  186.0480  177.6510  143.5690 C   0  0  0  0  0  0  0  0  0  0  0  0
  185.5930  178.5640  145.7490 C   0  0  0  0  0  0  0  0  0  0  0  0
  183.2110  180.1270  139.0760 C   0  0  0  0  0  2  0  0  0  0  0  0
  183.0220  178.4780  137.1480 C   0  0  0  0  0  2  0  0  0  0  0  0
  189.6410  177.7580  141.1970 C   0  0  0  0  0  3  0  0  0  0  0  0
  184.3320  179.0240  145.3570 C   0  0  0  0  0  3  0  0  0  0  0  0
  184.7950  178.0880  143.1180 C   0  0  0  0  0  0  0  0  0  0  0  0
  188.0970  178.5080  138.0220 C   0  0  0  0  0  2  0  0  0  0  0  0
  188.8760  177.3440  137.4270 C   0  0  0  0  0  2  0  0  0  0  0  0
  187.8510  175.9400  135.8900 C   0  0  1  0  0  3  0  0  0  0  0  0
  188.0130  176.1810  137.3000 N   0  0  0  0  0  0  0  0  0  0  0  0
  188.7390  175.2190  136.6200 O   0  0  0  0  0  0  0  0  0  0  0  0
  186.5990  175.1160  135.6580 C   0  0  0  0  0  2  0  0  0  0  0  0
  184.3280  175.3880  134.6760 O   0  0  0  0  0  0  0  0  0  0  0  0
  185.5460  175.9540  135.0240 C   0  0  0  0  0  0  0  0  0  0  0  0
  185.7470  177.1830  134.8350 O   0  0  0  0  0  1  0  0  0  0  0  0
  1 14  1  1  0  0  0
  1  4  1  0  0  0  0
  1 12  1  0  0  0  0
  2  8  1  0  0  0  0
  3 11  1  0  0  0  0
  4 16  2  0  0  0  0
  5 12  1  0  0  0  0
  5 15  2  0  0  0  0
  6 13  1  0  0  0  0
  6 22  1  0  0  0  0
  7 13  2  0  0  0  0
  9 27  1  0  0  0  0
 10 14  1  0  0  0  0
 11  7  1  0  0  0  0
 13 20  1  0  0  0  0
 15 25  2  0  0  0  0
 16  9  1  0  0  0  0
 17 11  2  0  0  0  0
 17 21  1  0  0  0  0
 18 23  1  0  0  0  0
 19 26  1  0  0  0  0
 20  2  2  0  0  0  0
 21  6  2  0  0  0  0
 22  2  1  0  0  0  0
 23  4  1  0  0  0  0
 24 10  1  0  0  0  0
 24 18  1  0  0  0  0
 25  3  1  0  0  0  0
 26 22  2  0  0  0  0
 27 21  1  0  0  0  0
 27 19  2  0  0  0  0
 28  5  1  0  0  0  0
 29 28  1  0  0  0  0
 30 33  1  1  0  0  0
 30 32  1  0  0  0  0
 30 31  1  0  0  0  0
 31 29  1  0  0  0  0
 32 31  1  0  0  0  0
 34 35  2  0  0  0  0
 35 33  1  0  0  0  0
 36 35  1  0  0  0  0
M  END
>  <MODEL>
4

>  <REMARK>
 VINA RESULT:      -8.3      2.985      7.825
  Name = 
  5 active torsions:
  status: ('A' for Active; 'I' for Inactive)
    1  A    between atoms: C_2  and  N_15
    2  A    between atoms: C_2  and  C_29
    3  A    between atoms: C_7  and  C_29
    4  A    between atoms: C_8  and  C_22
    5  A    between atoms: C_18  and  C_22
                            x       y       z     vdW  Elec       q    Type
                         _______ _______ _______ _____ _____    ______ ____

>  <TORSDO>
F 5

$$$$
=
 OpenBabel10222419593D

 36 41  0  0  1  0  0  0  0  0999 V2000
  188.5990  177.9790  142.1050 C   0  0  1  0  0  3  0  0  0  0  0  0
  192.3150  176.3660  135.3040 C   0  0  0  0  0  0  0  0  0  0  0  0
  186.6510  176.5720  137.0430 C   0  0  0  0  0  2  0  0  0  0  0  0
  190.1050  178.0480  142.2300 C   0  0  0  0  0  0  0  0  0  0  0  0
  186.8840  178.3080  140.2180 C   0  0  0  0  0  0  0  0  0  0  0  0
  190.8580  176.0920  136.9490 C   0  0  0  0  0  0  0  0  0  0  0  0
  188.8100  176.3280  135.7340 C   0  0  0  0  0  3  0  0  0  0  0  0
  193.5380  176.5810  134.6110 N   0  0  0  0  0  1  0  0  0  0  0  0
  190.4250  176.4840  140.5380 O   0  0  0  0  0  0  0  0  0  0  0  0
  188.6160  176.5760  144.2840 C   0  0  0  0  0  2  0  0  0  0  0  0
  188.1250  176.3160  136.9790 C   0  0  0  0  0  0  0  0  0  0  0  0
  188.1740  177.9220  140.7090 N   0  0  0  0  0  2  0  0  0  0  0  0
  190.2050  176.1770  135.7620 C   0  0  0  0  0  0  0  0  0  0  0  0
  188.0030  176.8080  142.8980 C   0  0  0  0  0  2  0  0  0  0  0  0
  186.6010  178.1140  138.9560 C   0  0  0  0  0  0  0  0  0  0  0  0
  190.9140  177.3540  141.4880 N   0  0  0  0  0  0  0  0  0  0  0  0
  188.8460  176.2050  138.1920 C   0  0  0  0  0  3  0  0  0  0  0  0
  190.4900  178.1830  144.6870 C   0  0  0  0  0  2  0  0  0  0  0  0
  192.4610  176.4340  139.1440 C   0  0  0  0  0  3  0  0  0  0  0  0
  191.1510  176.3500  134.7030 N   0  0  0  0  0  0  0  0  0  0  0  0
  190.2440  176.1290  138.1780 C   0  0  0  0  0  0  0  0  0  0  0  0
  192.1860  176.2260  136.7600 C   0  0  0  0  0  0  0  0  0  0  0  0
  190.6570  178.8800  143.3380 C   0  0  0  0  0  2  0  0  0  0  0  0
  189.0300  177.8570  145.0050 C   0  0  0  0  0  2  0  0  0  0  0  0
  186.3460  177.8940  137.6890 C   0  0  0  0  0  3  0  0  0  0  0  0
  193.0440  176.4080  137.8500 C   0  0  0  0  0  3  0  0  0  0  0  0
  191.0520  176.3090  139.3080 C   0  0  0  0  0  0  0  0  0  0  0  0
  185.9150  179.0490  141.0810 C   0  0  0  0  0  2  0  0  0  0  0  0
  184.9940  178.0870  141.8170 C   0  0  0  0  0  2  0  0  0  0  0  0
  185.2960  178.5400  144.0720 C   0  0  1  0  0  3  0  0  0  0  0  0
  184.3980  178.7480  142.9660 N   0  0  0  0  0  0  0  0  0  0  0  0
  185.3020  179.7100  143.3840 O   0  0  0  0  0  0  0  0  0  0  0  0
  184.5430  178.7230  145.3760 C   0  0  0  0  0  2  0  0  0  0  0  0
  186.2080  177.4920  146.7560 O   0  0  0  0  0  0  0  0  0  0  0  0
  185.4850  178.6540  146.5250 C   0  0  0  0  0  0  0  0  0  0  0  0
  185.6520  179.6590  147.2650 O   0  0  0  0  0  1  0  0  0  0  0  0
  1  4  1  0  0  0  0
  1 14  1  1  0  0  0
  2 22  1  0  0  0  0
  3 25  1  0  0  0  0
  4 23  1  0  0  0  0
  5 12  1  0  0  0  0
  5 28  1  0  0  0  0
  6 21  1  0  0  0  0
  7 13  2  0  0  0  0
  7 11  1  0  0  0  0
  8  2  1  0  0  0  0
  9 16  1  0  0  0  0
 10 24  1  0  0  0  0
 11  3  1  0  0  0  0
 11 17  2  0  0  0  0
 12  1  1  0  0  0  0
 13  6  1  0  0  0  0
 14 10  1  0  0  0  0
 15  5  2  0  0  0  0
 16  4  2  0  0  0  0
 18 24  1  0  0  0  0
 19 27  1  0  0  0  0
 20  2  2  0  0  0  0
 20 13  1  0  0  0  0
 21 17  1  0  0  0  0
 21 27  2  0  0  0  0
 22  6  2  0  0  0  0
 22 26  1  0  0  0  0
 23 18  1  0  0  0  0
 25 15  2  0  0  0  0
 26 19  2  0  0  0  0
 27  9  1  0  0  0  0
 28 29  1  0  0  0  0
 29 31  1  0  0  0  0
 30 33  1  1  0  0  0
 31 32  1  0  0  0  0
 31 30  1  0  0  0  0
 32 30  1  0  0  0  0
 33 35  1  0  0  0  0
 35 34  2  0  0  0  0
 35 36  1  0  0  0  0
M  END
>  <MODEL>
5

>  <REMARK>
 VINA RESULT:      -8.3      2.501      5.425
  Name = 
  5 active torsions:
  status: ('A' for Active; 'I' for Inactive)
    1  A    between atoms: C_2  and  N_15
    2  A    between atoms: C_2  and  C_29
    3  A    between atoms: C_7  and  C_29
    4  A    between atoms: C_8  and  C_22
    5  A    between atoms: C_18  and  C_22
                            x       y       z     vdW  Elec       q    Type
                         _______ _______ _______ _____ _____    ______ ____

>  <TORSDO>
F 5

$$$$
=
 OpenBabel10222419593D

 36 41  0  0  1  0  0  0  0  0999 V2000
  189.6070  177.4500  142.4580 C   0  0  1  0  0  3  0  0  0  0  0  0
  182.0560  177.9770  140.1400 C   0  0  0  0  0  0  0  0  0  0  0  0
  187.3110  178.2370  137.4080 C   0  0  0  0  0  2  0  0  0  0  0  0
  188.6310  177.3370  143.6100 C   0  0  0  0  0  0  0  0  0  0  0  0
  189.5590  176.9380  139.9390 C   0  0  0  0  0  0  0  0  0  0  0  0
  184.1970  178.5290  140.2630 C   0  0  0  0  0  0  0  0  0  0  0  0
  184.8400  178.2140  137.9800 C   0  0  0  0  0  3  0  0  0  0  0  0
  180.7330  177.6210  140.5230 N   0  0  0  0  0  1  0  0  0  0  0  0
  187.0380  178.6440  142.5290 O   0  0  0  0  0  0  0  0  0  0  0  0
  190.9300  179.1330  143.9190 C   0  0  0  0  0  2  0  0  0  0  0  0
  186.1880  178.4220  138.3800 C   0  0  0  0  0  0  0  0  0  0  0  0
  188.9340  177.3350  141.1670 N   0  0  0  0  0  2  0  0  0  0  0  0
  183.8490  178.3110  138.9690 C   0  0  0  0  0  0  0  0  0  0  0  0
  190.4350  178.7410  142.5220 C   0  0  0  0  0  2  0  0  0  0  0  0
  188.8620  176.9710  138.8340 C   0  0  0  0  0  0  0  0  0  0  0  0
  187.4570  177.8920  143.6040 N   0  0  0  0  0  0  0  0  0  0  0  0
  186.5020  178.6670  139.7390 C   0  0  0  0  0  3  0  0  0  0  0  0
  190.0760  177.5210  145.6290 C   0  0  0  0  0  2  0  0  0  0  0  0
  184.6200  178.4230  142.9680 C   0  0  0  0  0  3  0  0  0  0  0  0
  182.4650  177.9580  138.8960 N   0  0  0  0  0  0  0  0  0  0  0  0
  185.4890  178.6840  140.7050 C   0  0  0  0  0  0  0  0  0  0  0  0
  183.1380  178.3180  141.0720 C   0  0  0  0  0  0  0  0  0  0  0  0
  189.1090  176.6410  144.8390 C   0  0  0  0  0  2  0  0  0  0  0  0
  191.2930  177.9450  144.8080 C   0  0  0  0  0  2  0  0  0  0  0  0
  188.1390  177.0270  137.7410 C   0  0  0  0  0  3  0  0  0  0  0  0
  183.3060  178.2500  142.4590 C   0  0  0  0  0  3  0  0  0  0  0  0
  185.7190  178.6260  142.0860 C   0  0  0  0  0  0  0  0  0  0  0  0
  190.9370  176.3610  139.9200 C   0  0  0  0  0  2  0  0  0  0  0  0
  191.5890  176.5520  138.5590 C   0  0  0  0  0  2  0  0  0  0  0  0
  193.4280  175.4380  137.6850 C   0  0  1  0  0  3  0  0  0  0  0  0
  193.0310  176.4060  138.6740 N   0  0  0  0  0  0  0  0  0  0  0  0
  193.5650  176.7670  137.4490 O   0  0  0  0  0  0  0  0  0  0  0  0
  194.7730  174.8490  138.0650 C   0  0  0  0  0  2  0  0  0  0  0  0
  194.0330  172.7940  136.8710 O   0  0  0  0  0  0  0  0  0  0  0  0
  194.7430  173.3690  137.9160 C   0  0  0  0  0  0  0  0  0  0  0  0
  195.3890  172.6410  138.7160 O   0  0  0  0  0  1  0  0  0  0  0  0
  1 14  1  6  0  0  0
  1  4  1  0  0  0  0
  2  8  1  0  0  0  0
  2 22  1  0  0  0  0
  3 25  1  0  0  0  0
  3 11  1  0  0  0  0
  4 23  1  0  0  0  0
  5 12  1  0  0  0  0
  6 21  1  0  0  0  0
  6 22  1  0  0  0  0
  7 11  2  0  0  0  0
  7 13  1  0  0  0  0
  9 16  1  0  0  0  0
 10 24  1  0  0  0  0
 11 17  1  0  0  0  0
 12  1  1  0  0  0  0
 13  6  2  0  0  0  0
 14 10  1  0  0  0  0
 15  5  2  0  0  0  0
 16  4  2  0  0  0  0
 17 21  2  0  0  0  0
 20 13  1  0  0  0  0
 20  2  2  0  0  0  0
 21 27  1  0  0  0  0
 22 26  2  0  0  0  0
 23 18  1  0  0  0  0
 24 18  1  0  0  0  0
 25 15  2  0  0  0  0
 26 19  1  0  0  0  0
 27  9  1  0  0  0  0
 27 19  2  0  0  0  0
 28  5  1  0  0  0  0
 29 31  1  0  0  0  0
 29 28  1  0  0  0  0
 30 33  1  1  0  0  0
 30 31  1  0  0  0  0
 32 30  1  0  0  0  0
 32 31  1  0  0  0  0
 34 35  2  0  0  0  0
 35 33  1  0  0  0  0
 35 36  1  0  0  0  0
M  END
>  <MODEL>
6

>  <REMARK>
 VINA RESULT:      -7.9      3.425      7.092
  Name = 
  5 active torsions:
  status: ('A' for Active; 'I' for Inactive)
    1  A    between atoms: C_2  and  N_15
    2  A    between atoms: C_2  and  C_29
    3  A    between atoms: C_7  and  C_29
    4  A    between atoms: C_8  and  C_22
    5  A    between atoms: C_18  and  C_22
                            x       y       z     vdW  Elec       q    Type
                         _______ _______ _______ _____ _____    ______ ____

>  <TORSDO>
F 5

$$$$
=
 OpenBabel10222419593D

 36 41  0  0  1  0  0  0  0  0999 V2000
  188.6440  178.0650  142.2080 C   0  0  1  0  0  3  0  0  0  0  0  0
  192.1420  176.3390  135.3200 C   0  0  0  0  0  0  0  0  0  0  0  0
  186.5330  176.6710  137.2080 C   0  0  0  0  0  2  0  0  0  0  0  0
  190.1540  178.1040  142.2920 C   0  0  0  0  0  0  0  0  0  0  0  0
  186.8860  178.4190  140.3660 C   0  0  0  0  0  0  0  0  0  0  0  0
  190.7240  176.1050  137.0050 C   0  0  0  0  0  0  0  0  0  0  0  0
  188.6500  176.3760  135.8440 C   0  0  0  0  0  3  0  0  0  0  0  0
  193.3510  176.5250  134.5940 N   0  0  0  0  0  1  0  0  0  0  0  0
  190.3970  176.5250  140.6020 O   0  0  0  0  0  0  0  0  0  0  0  0
  188.6910  176.6740  144.3940 C   0  0  0  0  0  2  0  0  0  0  0  0
  187.9980  176.3850  137.1070 C   0  0  0  0  0  0  0  0  0  0  0  0
  188.1810  178.0100  140.8240 N   0  0  0  0  0  2  0  0  0  0  0  0
  190.0420  176.1970  135.8350 C   0  0  0  0  0  0  0  0  0  0  0  0
  188.0450  176.9110  143.0240 C   0  0  0  0  0  2  0  0  0  0  0  0
  186.5660  178.2240  139.1130 C   0  0  0  0  0  0  0  0  0  0  0  0
  190.9280  177.3890  141.5330 N   0  0  0  0  0  0  0  0  0  0  0  0
  188.7490  176.2650  138.3010 C   0  0  0  0  0  3  0  0  0  0  0  0
  190.6070  178.2440  144.7370 C   0  0  0  0  0  2  0  0  0  0  0  0
  192.3930  176.4250  139.1540 C   0  0  0  0  0  3  0  0  0  0  0  0
  190.9630  176.3450  134.7500 N   0  0  0  0  0  0  0  0  0  0  0  0
  190.1440  176.1600  138.2490 C   0  0  0  0  0  0  0  0  0  0  0  0
  192.0500  176.2100  136.7790 C   0  0  0  0  0  0  0  0  0  0  0  0
  190.7520  178.9310  143.3800 C   0  0  0  0  0  2  0  0  0  0  0  0
  189.1500  177.9500  145.0960 C   0  0  0  0  0  2  0  0  0  0  0  0
  186.2720  178.0030  137.8540 C   0  0  0  0  0  3  0  0  0  0  0  0
  192.9400  176.3810  137.8450 C   0  0  0  0  0  3  0  0  0  0  0  0
  190.9870  176.3300  139.3560 C   0  0  0  0  0  0  0  0  0  0  0  0
  185.9550  179.1840  141.2500 C   0  0  0  0  0  2  0  0  0  0  0  0
  184.5160  179.0460  140.7760 C   0  0  0  0  0  2  0  0  0  0  0  0
  182.4710  178.9850  141.8700 C   0  0  1  0  0  3  0  0  0  0  0  0
  183.7380  178.3100  141.7590 N   0  0  0  0  0  0  0  0  0  0  0  0
  182.5980  177.8660  141.1120 O   0  0  0  0  0  0  0  0  0  0  0  0
  181.8230  178.6280  143.1950 C   0  0  0  0  0  2  0  0  0  0  0  0
  180.1230  180.4170  142.8670 O   0  0  0  0  0  0  0  0  0  0  0  0
  180.4140  179.1060  143.2190 C   0  0  0  0  0  0  0  0  0  0  0  0
  179.4840  178.3130  143.5250 O   0  0  0  0  0  1  0  0  0  0  0  0
  1  4  1  0  0  0  0
  1 14  1  1  0  0  0
  2 22  1  0  0  0  0
  3 25  1  0  0  0  0
  4 23  1  0  0  0  0
  5 12  1  0  0  0  0
  5 28  1  0  0  0  0
  6 21  1  0  0  0  0
  7 11  1  0  0  0  0
  8  2  1  0  0  0  0
  9 16  1  0  0  0  0
 10 24  1  0  0  0  0
 11  3  1  0  0  0  0
 11 17  2  0  0  0  0
 12  1  1  0  0  0  0
 13  7  2  0  0  0  0
 13  6  1  0  0  0  0
 14 10  1  0  0  0  0
 15  5  2  0  0  0  0
 16  4  2  0  0  0  0
 18 24  1  0  0  0  0
 19 27  1  0  0  0  0
 20  2  2  0  0  0  0
 20 13  1  0  0  0  0
 21 17  1  0  0  0  0
 21 27  2  0  0  0  0
 22  6  2  0  0  0  0
 22 26  1  0  0  0  0
 23 18  1  0  0  0  0
 25 15  2  0  0  0  0
 26 19  2  0  0  0  0
 27  9  1  0  0  0  0
 29 28  1  0  0  0  0
 29 31  1  0  0  0  0
 30 33  1  1  0  0  0
 31 30  1  0  0  0  0
 32 31  1  0  0  0  0
 32 30  1  0  0  0  0
 33 35  1  0  0  0  0
 34 35  2  0  0  0  0
 35 36  1  0  0  0  0
M  END
>  <MODEL>
7

>  <REMARK>
 VINA RESULT:      -7.7      2.775      6.656
  Name = 
  5 active torsions:
  status: ('A' for Active; 'I' for Inactive)
    1  A    between atoms: C_2  and  N_15
    2  A    between atoms: C_2  and  C_29
    3  A    between atoms: C_7  and  C_29
    4  A    between atoms: C_8  and  C_22
    5  A    between atoms: C_18  and  C_22
                            x       y       z     vdW  Elec       q    Type
                         _______ _______ _______ _____ _____    ______ ____

>  <TORSDO>
F 5

$$$$
=
 OpenBabel10222419593D

 36 41  0  0  1  0  0  0  0  0999 V2000
  187.3900  177.2540  137.4980 C   0  0  1  0  0  3  0  0  0  0  0  0
  186.5450  177.7110  145.3560 C   0  0  0  0  0  0  0  0  0  0  0  0
  183.2090  179.1950  140.6850 C   0  0  0  0  0  2  0  0  0  0  0  0
  188.5990  176.7400  138.2480 C   0  0  0  0  0  0  0  0  0  0  0  0
  184.8710  177.4570  137.9700 C   0  0  0  0  0  0  0  0  0  0  0  0
  186.4820  178.4000  143.2520 C   0  0  0  0  0  0  0  0  0  0  0  0
  184.1340  178.7890  143.0120 C   0  0  0  0  0  3  0  0  0  0  0  0
  187.0140  177.1440  146.5730 N   0  0  0  0  0  1  0  0  0  0  0  0
  188.2060  178.1430  140.0610 O   0  0  0  0  0  0  0  0  0  0  0  0
  189.0450  178.5820  136.0090 C   0  0  0  0  0  2  0  0  0  0  0  0
  184.3590  179.0010  141.6250 C   0  0  0  0  0  0  0  0  0  0  0  0
  186.2430  177.4400  138.3840 N   0  0  0  0  0  2  0  0  0  0  0  0
  185.2520  178.5180  143.8150 C   0  0  0  0  0  0  0  0  0  0  0  0
  187.6900  178.5480  136.7270 C   0  0  0  0  0  2  0  0  0  0  0  0
  183.9460  177.7310  138.8530 C   0  0  0  0  0  0  0  0  0  0  0  0
  188.9390  177.1650  139.4270 N   0  0  0  0  0  0  0  0  0  0  0  0
  185.6630  178.8880  141.0850 C   0  0  0  0  0  3  0  0  0  0  0  0
  190.3310  176.4890  136.4770 C   0  0  0  0  0  2  0  0  0  0  0  0
  188.9400  177.5900  142.3520 C   0  0  0  0  0  3  0  0  0  0  0  0
  185.3000  178.0740  145.1740 N   0  0  0  0  0  0  0  0  0  0  0  0
  186.7400  178.5450  141.9100 C   0  0  0  0  0  0  0  0  0  0  0  0
  187.3520  177.8780  144.1410 C   0  0  0  0  0  0  0  0  0  0  0  0
  189.4830  175.7770  137.5300 C   0  0  0  0  0  2  0  0  0  0  0  0
  189.4850  177.2330  135.4440 C   0  0  0  0  0  2  0  0  0  0  0  0
  183.0450  178.0210  139.7610 C   0  0  0  0  0  3  0  0  0  0  0  0
  188.6160  177.4450  143.7270 C   0  0  0  0  0  3  0  0  0  0  0  0
  187.9920  178.1280  141.4360 C   0  0  0  0  0  0  0  0  0  0  0  0
  184.4690  177.0360  136.5940 C   0  0  0  0  0  2  0  0  0  0  0  0
  183.6130  175.7790  136.6370 C   0  0  0  0  0  2  0  0  0  0  0  0
  184.2040  173.5540  136.3430 C   0  0  1  0  0  3  0  0  0  0  0  0
  184.3680  174.6830  137.2220 N   0  0  0  0  0  0  0  0  0  0  0  0
  185.3250  174.3180  136.2910 O   0  0  0  0  0  0  0  0  0  0  0  0
  184.4970  172.2750  137.1030 C   0  0  0  0  0  2  0  0  0  0  0  0
  182.1220  171.5400  137.2180 O   0  0  0  0  0  1  0  0  0  0  0  0
  183.4310  171.2700  136.8430 C   0  0  0  0  0  0  0  0  0  0  0  0
  183.7090  170.1930  136.2530 O   0  0  0  0  0  0  0  0  0  0  0  0
  1 14  1  1  0  0  0
  1  4  1  0  0  0  0
  1 12  1  0  0  0  0
  2  8  1  0  0  0  0
  3 11  1  0  0  0  0
  4 16  2  0  0  0  0
  5 12  1  0  0  0  0
  5 15  2  0  0  0  0
  6 13  1  0  0  0  0
  6 22  1  0  0  0  0
  7 13  2  0  0  0  0
  9 27  1  0  0  0  0
 10 14  1  0  0  0  0
 11  7  1  0  0  0  0
 13 20  1  0  0  0  0
 15 25  2  0  0  0  0
 16  9  1  0  0  0  0
 17 11  2  0  0  0  0
 17 21  1  0  0  0  0
 18 23  1  0  0  0  0
 19 26  1  0  0  0  0
 20  2  2  0  0  0  0
 21  6  2  0  0  0  0
 22  2  1  0  0  0  0
 23  4  1  0  0  0  0
 24 10  1  0  0  0  0
 24 18  1  0  0  0  0
 25  3  1  0  0  0  0
 26 22  2  0  0  0  0
 27 21  1  0  0  0  0
 27 19  2  0  0  0  0
 28 29  1  0  0  0  0
 28  5  1  0  0  0  0
 29 31  1  0  0  0  0
 30 33  1  1  0  0  0
 30 31  1  0  0  0  0
 32 30  1  0  0  0  0
 32 31  1  0  0  0  0
 35 33  1  0  0  0  0
 35 34  1  0  0  0  0
 36 35  2  0  0  0  0
M  END
>  <MODEL>
8

>  <REMARK>
 VINA RESULT:      -7.7      3.599      8.817
  Name = 
  5 active torsions:
  status: ('A' for Active; 'I' for Inactive)
    1  A    between atoms: C_2  and  N_15
    2  A    between atoms: C_2  and  C_29
    3  A    between atoms: C_7  and  C_29
    4  A    between atoms: C_8  and  C_22
    5  A    between atoms: C_18  and  C_22
                            x       y       z     vdW  Elec       q    Type
                         _______ _______ _______ _____ _____    ______ ____

>  <TORSDO>
F 5

$$$$
=
 OpenBabel10222419593D

 36 41  0  0  1  0  0  0  0  0999 V2000
  183.3570  178.8170  141.7750 C   0  0  1  0  0  3  0  0  0  0  0  0
  188.8140  178.1310  147.4690 C   0  0  0  0  0  0  0  0  0  0  0  0
  188.7030  177.1430  141.6240 C   0  0  0  0  0  2  0  0  0  0  0  0
  182.8270  179.1890  143.1420 C   0  0  0  0  0  0  0  0  0  0  0  0
  185.6530  178.8270  140.6170 C   0  0  0  0  0  0  0  0  0  0  0  0
  187.6230  177.5330  145.7000 C   0  0  0  0  0  0  0  0  0  0  0  0
  189.3600  177.3710  144.0630 C   0  0  0  0  0  3  0  0  0  0  0  0
  189.1530  178.6050  148.7660 N   0  0  0  0  0  1  0  0  0  0  0  0
  184.3070  177.7580  144.2250 O   0  0  0  0  0  0  0  0  0  0  0  0
  181.2060  177.4040  141.4730 C   0  0  0  0  0  2  0  0  0  0  0  0
  188.3510  177.1940  143.0780 C   0  0  0  0  0  0  0  0  0  0  0  0
  184.8140  178.7020  141.7730 N   0  0  0  0  0  2  0  0  0  0  0  0
  188.9460  177.5070  145.3970 C   0  0  0  0  0  0  0  0  0  0  0  0
  182.7140  177.5330  141.2320 C   0  0  0  0  0  2  0  0  0  0  0  0
  186.9360  178.6040  140.7390 C   0  0  0  0  0  0  0  0  0  0  0  0
  183.2930  178.6890  144.2470 N   0  0  0  0  0  0  0  0  0  0  0  0
  186.9830  177.2080  143.4440 C   0  0  0  0  0  3  0  0  0  0  0  0
  180.3660  179.3510  142.7990 C   0  0  0  0  0  2  0  0  0  0  0  0
  185.0870  178.1510  146.5330 C   0  0  0  0  0  3  0  0  0  0  0  0
  189.7100  177.8910  146.5440 N   0  0  0  0  0  0  0  0  0  0  0  0
  186.6120  177.4190  144.7770 C   0  0  0  0  0  0  0  0  0  0  0  0
  187.4450  177.9390  146.9750 C   0  0  0  0  0  0  0  0  0  0  0  0
  181.6430  180.0940  143.1880 C   0  0  0  0  0  2  0  0  0  0  0  0
  180.4480  178.7280  141.4060 C   0  0  0  0  0  2  0  0  0  0  0  0
  188.2150  178.3620  140.8930 C   0  0  0  0  0  3  0  0  0  0  0  0
  186.1700  178.2710  147.4430 C   0  0  0  0  0  3  0  0  0  0  0  0
  185.3100  177.7380  145.1890 C   0  0  0  0  0  0  0  0  0  0  0  0
  185.1170  179.3370  139.3190 C   0  0  0  0  0  2  0  0  0  0  0  0
  185.3280  178.3220  138.2060 C   0  0  0  0  0  2  0  0  0  0  0  0
  187.2780  177.4410  137.3070 C   0  0  1  0  0  3  0  0  0  0  0  0
  186.5200  178.6580  137.4450 N   0  0  0  0  0  0  0  0  0  0  0  0
  186.4890  177.8870  136.2960 O   0  0  0  0  0  0  0  0  0  0  0  0
  188.7260  177.7790  137.0060 C   0  0  0  0  0  2  0  0  0  0  0  0
  189.4630  175.4670  137.5560 O   0  0  0  0  0  0  0  0  0  0  0  0
  189.6290  176.8350  137.7170 C   0  0  0  0  0  0  0  0  0  0  0  0
  190.5640  177.2770  138.4360 O   0  0  0  0  0  1  0  0  0  0  0  0
  1 14  1  1  0  0  0
  1  4  1  0  0  0  0
  2  8  1  0  0  0  0
  3 11  1  0  0  0  0
  4 23  1  0  0  0  0
  4 16  2  0  0  0  0
  5 15  2  0  0  0  0
  5 12  1  0  0  0  0
  6 22  1  0  0  0  0
  7 13  1  0  0  0  0
  9 16  1  0  0  0  0
  9 27  1  0  0  0  0
 11 17  1  0  0  0  0
 11  7  2  0  0  0  0
 12  1  1  0  0  0  0
 13  6  2  0  0  0  0
 13 20  1  0  0  0  0
 14 10  1  0  0  0  0
 15 25  2  0  0  0  0
 17 21  2  0  0  0  0
 18 23  1  0  0  0  0
 19 26  1  0  0  0  0
 20  2  2  0  0  0  0
 21 27  1  0  0  0  0
 21  6  1  0  0  0  0
 22 26  2  0  0  0  0
 22  2  1  0  0  0  0
 24 10  1  0  0  0  0
 24 18  1  0  0  0  0
 25  3  1  0  0  0  0
 27 19  2  0  0  0  0
 28  5  1  0  0  0  0
 29 28  1  0  0  0  0
 30 33  1  6  0  0  0
 30 31  1  0  0  0  0
 31 29  1  0  0  0  0
 32 30  1  0  0  0  0
 32 31  1  0  0  0  0
 33 35  1  0  0  0  0
 34 35  2  0  0  0  0
 35 36  1  0  0  0  0
M  END
>  <MODEL>
9

>  <REMARK>
 VINA RESULT:      -7.7      2.797      7.104
  Name = 
  5 active torsions:
  status: ('A' for Active; 'I' for Inactive)
    1  A    between atoms: C_2  and  N_15
    2  A    between atoms: C_2  and  C_29
    3  A    between atoms: C_7  and  C_29
    4  A    between atoms: C_8  and  C_22
    5  A    between atoms: C_18  and  C_22
                            x       y       z     vdW  Elec       q    Type
                         _______ _______ _______ _____ _____    ______ ____

>  <TORSDO>
F 5

$$$$
