=
 OpenBabel10222419483D

 33 38  0  0  1  0  0  0  0  0999 V2000
  189.4550  176.5770  135.9560 C   0  0  0  0  0  0  0  0  0  0  0  0
  186.5810  178.5860  139.4540 C   0  0  0  0  0  2  0  0  0  0  0  0
  188.6150  177.2430  139.7240 N   0  0  0  0  0  0  0  0  0  0  0  0
  188.8870  174.9830  137.6950 C   0  0  0  0  0  3  0  0  0  0  0  0
  187.0420  178.2080  136.6720 C   0  0  2  0  0  3  0  0  0  0  0  0
  189.8720  174.1130  137.2230 C   0  0  0  0  0  3  0  0  0  0  0  0
  187.6260  177.5980  138.9720 C   0  0  0  0  0  0  0  0  0  0  0  0
  184.5860  179.7650  138.9030 O   0  0  0  0  0  1  0  0  0  0  0  0
  190.6400  174.4660  136.1140 C   0  0  0  0  0  3  0  0  0  0  0  0
  188.6690  176.2250  137.0820 C   0  0  0  0  0  0  0  0  0  0  0  0
  190.4270  175.6910  135.4800 C   0  0  0  0  0  3  0  0  0  0  0  0
  189.2420  178.1320  135.0920 S   0  0  0  0  0  0  0  0  0  0  0  0
  184.4790  177.4090  138.8270 C   0  0  0  0  0  1  0  0  0  0  0  0
  187.4880  177.0500  137.5710 C   0  0  2  0  0  3  0  0  0  0  0  0
  185.6430  178.7010  137.0500 C   0  0  0  0  0  2  0  0  0  0  0  0
  187.1540  177.8150  134.9070 S   0  0  0  0  0  0  0  0  0  0  0  0
  185.3290  178.6380  138.5590 C   0  0  2  0  0  0  0  0  0  0  0  0
  187.8400  177.3980  143.2830 C   0  0  0  0  0  3  0  0  0  0  0  0
  187.7060  177.3040  141.9560 C   0  0  0  0  0  3  0  0  0  0  0  0
  191.0320  176.2490  140.9620 C   0  0  0  0  0  1  0  0  0  0  0  0
  188.8240  177.7520  141.0610 C   0  0  1  0  0  3  0  0  0  0  0  0
  190.1900  177.3170  141.6390 C   0  0  2  0  0  0  0  0  0  0  0  0
  190.9870  178.4350  142.2710 C   0  0  0  0  0  2  0  0  0  0  0  0
  190.3560  177.3680  143.1610 C   0  0  1  0  0  3  0  0  0  0  0  0
  189.1180  177.9460  143.8660 C   0  0  2  0  0  3  0  0  0  0  0  0
  189.3400  177.2840  148.1040 C   0  0  0  0  0  3  0  0  0  0  0  0
  189.1790  177.7200  145.3430 C   0  0  0  0  0  0  0  0  0  0  0  0
  190.4870  177.1550  147.3150 C   0  0  0  0  0  0  0  0  0  0  0  0
  190.3990  177.3750  145.9300 C   0  0  0  0  0  3  0  0  0  0  0  0
  188.1170  177.6290  147.5230 C   0  0  0  0  0  3  0  0  0  0  0  0
  188.0340  177.8470  146.1450 C   0  0  0  0  0  3  0  0  0  0  0  0
  191.6940  176.8080  147.9260 O   0  0  0  0  0  0  0  0  0  0  0  0
  192.4690  175.6890  147.5170 C   0  0  0  0  0  1  0  0  0  0  0  0
  1 10  1  0  0  0  0
  5 15  1  1  0  0  0
  5 14  1  0  0  0  0
  6  4  1  0  0  0  0
  7  2  1  0  0  0  0
  7  3  2  0  0  0  0
  9  6  2  0  0  0  0
 10  4  2  0  0  0  0
 11  1  2  0  0  0  0
 11  9  1  0  0  0  0
 12  1  1  0  0  0  0
 14 10  1  6  0  0  0
 14  7  1  0  0  0  0
 15 17  1  0  0  0  0
 16 12  1  0  0  0  0
 16  5  1  0  0  0  0
 17 13  1  1  0  0  0
 17  8  1  0  0  0  0
 17  2  1  0  0  0  0
 18 25  1  0  0  0  0
 19 18  2  0  0  0  0
 21  3  1  6  0  0  0
 21 22  1  0  0  0  0
 21 19  1  0  0  0  0
 22 20  1  6  0  0  0
 22 23  1  0  0  0  0
 22 24  1  0  0  0  0
 24 23  1  6  0  0  0
 24 25  1  0  0  0  0
 25 27  1  1  0  0  0
 27 29  2  0  0  0  0
 27 31  1  0  0  0  0
 28 32  1  0  0  0  0
 28 26  2  0  0  0  0
 29 28  1  0  0  0  0
 30 26  1  0  0  0  0
 31 30  2  0  0  0  0
 33 32  1  0  0  0  0
M  END
>  <MODEL>
1

>  <REMARK>
 VINA RESULT:      -6.8      0.000      0.000
  Name = 
  3 active torsions:
  status: ('A' for Active; 'I' for Inactive)
    1  A    between atoms: N_6  and  C_12
    2  A    between atoms: C_8  and  C_23
    3  A    between atoms: C_10  and  O_22
                            x       y       z     vdW  Elec       q    Type
                         _______ _______ _______ _____ _____    ______ ____

>  <TORSDO>
F 3

$$$$
=
 OpenBabel10222419483D

 33 38  0  0  1  0  0  0  0  0999 V2000
  179.7660  179.9460  137.4890 C   0  0  0  0  0  0  0  0  0  0  0  0
  183.4820  176.9060  138.7080 C   0  0  0  0  0  2  0  0  0  0  0  0
  182.5670  178.7960  139.9750 N   0  0  0  0  0  0  0  0  0  0  0  0
  181.7270  181.1600  138.2420 C   0  0  0  0  0  3  0  0  0  0  0  0
  181.4970  177.5980  136.7900 C   0  0  2  0  0  3  0  0  0  0  0  0
  180.9650  182.3240  138.3590 C   0  0  0  0  0  3  0  0  0  0  0  0
  182.7030  178.2010  138.8360 C   0  0  0  0  0  0  0  0  0  0  0  0
  184.2380  175.2030  137.2240 O   0  0  0  0  0  1  0  0  0  0  0  0
  179.6100  182.3050  138.0310 C   0  0  0  0  0  3  0  0  0  0  0  0
  181.1450  179.9560  137.8190 C   0  0  0  0  0  0  0  0  0  0  0  0
  179.0160  181.1210  137.5910 C   0  0  0  0  0  3  0  0  0  0  0  0
  178.9330  178.4640  136.9210 S   0  0  0  0  0  0  0  0  0  0  0  0
  184.9340  177.4080  136.7490 C   0  0  0  0  0  1  0  0  0  0  0  0
  182.0720  178.7730  137.5880 C   0  0  2  0  0  3  0  0  0  0  0  0
  182.6060  176.6680  136.2890 C   0  0  0  0  0  2  0  0  0  0  0  0
  180.4110  178.1260  135.4400 S   0  0  0  0  0  0  0  0  0  0  0  0
  183.8040  176.5270  137.2510 C   0  0  2  0  0  0  0  0  0  0  0  0
  185.2520  178.4440  142.4150 C   0  0  0  0  0  3  0  0  0  0  0  0
  184.5950  178.5510  141.2560 C   0  0  0  0  0  3  0  0  0  0  0  0
  181.4860  180.0870  142.3260 C   0  0  0  0  0  1  0  0  0  0  0  0
  183.1170  178.2870  141.2110 C   0  0  1  0  0  3  0  0  0  0  0  0
  182.4190  178.8950  142.4490 C   0  0  2  0  0  0  0  0  0  0  0  0
  182.0090  177.8850  143.4950 C   0  0  0  0  0  2  0  0  0  0  0  0
  183.1720  178.8290  143.7820 C   0  0  1  0  0  3  0  0  0  0  0  0
  184.5020  178.0650  143.6670 C   0  0  2  0  0  3  0  0  0  0  0  0
  186.9650  178.5960  147.1450 C   0  0  0  0  0  3  0  0  0  0  0  0
  185.3470  178.2600  144.8840 C   0  0  0  0  0  0  0  0  0  0  0  0
  187.4430  177.8630  146.0540 C   0  0  0  0  0  0  0  0  0  0  0  0
  186.6260  177.6980  144.9240 C   0  0  0  0  0  3  0  0  0  0  0  0
  185.6880  179.1610  147.1120 C   0  0  0  0  0  3  0  0  0  0  0  0
  184.8790  178.9950  145.9850 C   0  0  0  0  0  3  0  0  0  0  0  0
  188.7250  177.3100  146.1190 O   0  0  0  0  0  0  0  0  0  0  0  0
  189.3570  176.9800  147.3490 C   0  0  0  0  0  1  0  0  0  0  0  0
  1 11  2  0  0  0  0
  1 10  1  0  0  0  0
  2  7  1  0  0  0  0
  4  6  1  0  0  0  0
  5 15  1  6  0  0  0
  5 14  1  0  0  0  0
  7  3  2  0  0  0  0
  8 17  1  0  0  0  0
  9  6  2  0  0  0  0
 10  4  2  0  0  0  0
 11  9  1  0  0  0  0
 12  1  1  0  0  0  0
 14 10  1  1  0  0  0
 14  7  1  0  0  0  0
 15 17  1  0  0  0  0
 16  5  1  0  0  0  0
 16 12  1  0  0  0  0
 17 13  1  6  0  0  0
 17  2  1  0  0  0  0
 18 25  1  0  0  0  0
 19 18  2  0  0  0  0
 21  3  1  6  0  0  0
 21 19  1  0  0  0  0
 21 22  1  0  0  0  0
 22 20  1  6  0  0  0
 22 23  1  0  0  0  0
 22 24  1  0  0  0  0
 24 23  1  1  0  0  0
 25 24  1  0  0  0  0
 25 27  1  1  0  0  0
 27 29  2  0  0  0  0
 27 31  1  0  0  0  0
 28 32  1  0  0  0  0
 28 26  2  0  0  0  0
 29 28  1  0  0  0  0
 30 26  1  0  0  0  0
 31 30  2  0  0  0  0
 32 33  1  0  0  0  0
M  END
>  <MODEL>
2

>  <REMARK>
 VINA RESULT:      -6.8      4.264      6.940
  Name = 
  3 active torsions:
  status: ('A' for Active; 'I' for Inactive)
    1  A    between atoms: N_6  and  C_12
    2  A    between atoms: C_8  and  C_23
    3  A    between atoms: C_10  and  O_22
                            x       y       z     vdW  Elec       q    Type
                         _______ _______ _______ _____ _____    ______ ____

>  <TORSDO>
F 3

$$$$
=
 OpenBabel10222419483D

 33 38  0  0  1  0  0  0  0  0999 V2000
  183.6870  177.9730  137.7820 C   0  0  0  0  0  0  0  0  0  0  0  0
  187.8930  177.3660  140.3270 C   0  0  0  0  0  2  0  0  0  0  0  0
  185.6800  178.0220  141.1540 N   0  0  0  0  0  0  0  0  0  0  0  0
  184.1370  179.8450  139.2590 C   0  0  0  0  0  3  0  0  0  0  0  0
  186.6040  177.2740  137.7910 C   0  0  2  0  0  3  0  0  0  0  0  0
  182.8300  180.3030  139.0800 C   0  0  0  0  0  3  0  0  0  0  0  0
  186.4900  177.9160  140.1540 C   0  0  0  0  0  0  0  0  0  0  0  0
  189.9410  176.8240  139.2390 O   0  0  0  0  0  1  0  0  0  0  0  0
  181.9550  179.6080  138.2460 C   0  0  0  0  0  3  0  0  0  0  0  0
  184.5830  178.6760  138.6270 C   0  0  0  0  0  0  0  0  0  0  0  0
  182.3860  178.4500  137.5950 C   0  0  0  0  0  3  0  0  0  0  0  0
  184.1660  176.4800  136.9150 S   0  0  0  0  0  0  0  0  0  0  0  0
  189.2320  179.0700  139.1010 C   0  0  0  0  0  1  0  0  0  0  0  0
  186.0560  178.3230  138.7650 C   0  0  2  0  0  3  0  0  0  0  0  0
  188.1350  177.2910  137.7560 C   0  0  0  0  0  2  0  0  0  0  0  0
  185.8980  177.4170  136.1290 S   0  0  0  0  0  0  0  0  0  0  0  0
  188.8020  177.6150  139.1090 C   0  0  2  0  0  0  0  0  0  0  0  0
  188.0640  177.4320  143.8480 C   0  0  0  0  0  3  0  0  0  0  0  0
  187.5090  177.4940  142.6340 C   0  0  0  0  0  3  0  0  0  0  0  0
  184.8970  179.9580  143.1550 C   0  0  0  0  0  1  0  0  0  0  0  0
  186.0190  177.6220  142.5010 C   0  0  1  0  0  3  0  0  0  0  0  0
  185.4630  178.6060  143.5550 C   0  0  2  0  0  0  0  0  0  0  0  0
  184.7490  177.9470  144.7130 C   0  0  0  0  0  2  0  0  0  0  0  0
  186.1130  178.5910  144.9420 C   0  0  1  0  0  3  0  0  0  0  0  0
  187.1870  177.4980  145.0730 C   0  0  2  0  0  3  0  0  0  0  0  0
  189.5680  178.0100  148.6110 C   0  0  0  0  0  3  0  0  0  0  0  0
  188.0030  177.6840  146.3120 C   0  0  0  0  0  0  0  0  0  0  0  0
  190.1420  177.4770  147.4520 C   0  0  0  0  0  0  0  0  0  0  0  0
  189.3510  177.3150  146.3030 C   0  0  0  0  0  3  0  0  0  0  0  0
  188.2220  178.3800  148.6270 C   0  0  0  0  0  3  0  0  0  0  0  0
  187.4380  178.2180  147.4810 C   0  0  0  0  0  3  0  0  0  0  0  0
  191.4920  177.1160  147.4700 O   0  0  0  0  0  0  0  0  0  0  0  0
  191.9260  175.7640  147.4230 C   0  0  0  0  0  1  0  0  0  0  0  0
  1 10  1  0  0  0  0
  5 15  1  6  0  0  0
  5 14  1  0  0  0  0
  6  4  1  0  0  0  0
  7  2  1  0  0  0  0
  7  3  2  0  0  0  0
  9  6  2  0  0  0  0
 10  4  2  0  0  0  0
 11  1  2  0  0  0  0
 11  9  1  0  0  0  0
 12  1  1  0  0  0  0
 14 10  1  1  0  0  0
 14  7  1  0  0  0  0
 15 17  1  0  0  0  0
 16 12  1  0  0  0  0
 16  5  1  0  0  0  0
 17 13  1  6  0  0  0
 17  8  1  0  0  0  0
 17  2  1  0  0  0  0
 18 25  1  0  0  0  0
 19 18  2  0  0  0  0
 21  3  1  6  0  0  0
 21 19  1  0  0  0  0
 21 22  1  0  0  0  0
 22 20  1  6  0  0  0
 22 23  1  0  0  0  0
 22 24  1  0  0  0  0
 24 23  1  1  0  0  0
 24 25  1  0  0  0  0
 25 27  1  1  0  0  0
 26 30  1  0  0  0  0
 27 31  1  0  0  0  0
 28 32  1  0  0  0  0
 28 26  2  0  0  0  0
 29 27  2  0  0  0  0
 29 28  1  0  0  0  0
 31 30  2  0  0  0  0
 33 32  1  0  0  0  0
M  END
>  <MODEL>
3

>  <REMARK>
 VINA RESULT:      -6.6      2.307      4.637
  Name = 
  3 active torsions:
  status: ('A' for Active; 'I' for Inactive)
    1  A    between atoms: N_6  and  C_12
    2  A    between atoms: C_8  and  C_23
    3  A    between atoms: C_10  and  O_22
                            x       y       z     vdW  Elec       q    Type
                         _______ _______ _______ _____ _____    ______ ____

>  <TORSDO>
F 3

$$$$
=
 OpenBabel10222419483D

 33 38  0  0  1  0  0  0  0  0999 V2000
  189.0350  176.6440  136.1680 C   0  0  0  0  0  0  0  0  0  0  0  0
  191.9560  176.4850  140.1660 C   0  0  0  0  0  2  0  0  0  0  0  0
  189.5630  177.0040  140.0330 N   0  0  0  0  0  0  0  0  0  0  0  0
  188.7770  178.6120  137.5640 C   0  0  0  0  0  3  0  0  0  0  0  0
  191.7540  176.1750  137.3440 C   0  0  2  0  0  3  0  0  0  0  0  0
  187.6180  178.9580  136.8660 C   0  0  0  0  0  3  0  0  0  0  0  0
  190.7010  176.9150  139.4290 C   0  0  0  0  0  0  0  0  0  0  0  0
  194.2910  176.0530  139.9870 O   0  0  0  0  0  1  0  0  0  0  0  0
  187.1730  178.1590  135.8140 C   0  0  0  0  0  3  0  0  0  0  0  0
  189.4960  177.4520  137.2380 C   0  0  0  0  0  0  0  0  0  0  0  0
  187.8840  177.0090  135.4630 C   0  0  0  0  0  3  0  0  0  0  0  0
  189.8920  175.1540  135.6620 S   0  0  0  0  0  0  0  0  0  0  0  0
  193.5710  178.2290  139.4250 C   0  0  0  0  0  1  0  0  0  0  0  0
  190.8170  177.2220  137.9550 C   0  0  2  0  0  3  0  0  0  0  0  0
  193.1760  176.3090  137.8950 C   0  0  0  0  0  2  0  0  0  0  0  0
  191.7390  176.1840  135.5320 S   0  0  0  0  0  0  0  0  0  0  0  0
  193.2500  176.7460  139.3730 C   0  0  2  0  0  0  0  0  0  0  0  0
  190.6650  176.9480  143.5070 C   0  0  0  0  0  3  0  0  0  0  0  0
  190.6690  176.8830  142.1720 C   0  0  0  0  0  3  0  0  0  0  0  0
  187.6690  178.7500  141.3480 C   0  0  0  0  0  1  0  0  0  0  0  0
  189.3750  176.6950  141.4330 C   0  0  1  0  0  3  0  0  0  0  0  0
  188.2570  177.5500  142.0700 C   0  0  2  0  0  0  0  0  0  0  0  0
  187.2610  176.7660  142.8930 C   0  0  0  0  0  2  0  0  0  0  0  0
  188.2580  177.6820  143.5960 C   0  0  1  0  0  3  0  0  0  0  0  0
  189.3620  176.8390  144.2570 C   0  0  2  0  0  3  0  0  0  0  0  0
  189.9000  177.8580  148.3940 C   0  0  0  0  0  3  0  0  0  0  0  0
  189.5340  177.2020  145.6970 C   0  0  0  0  0  0  0  0  0  0  0  0
  190.9280  177.2230  147.6900 C   0  0  0  0  0  0  0  0  0  0  0  0
  190.7380  176.8960  146.3380 C   0  0  0  0  0  3  0  0  0  0  0  0
  188.6950  178.1660  147.7590 C   0  0  0  0  0  3  0  0  0  0  0  0
  188.5090  177.8400  146.4130 C   0  0  0  0  0  3  0  0  0  0  0  0
  192.1210  176.9280  148.3550 O   0  0  0  0  0  0  0  0  0  0  0  0
  192.8890  175.7660  148.0740 C   0  0  0  0  0  1  0  0  0  0  0  0
  1 10  1  0  0  0  0
  5 15  1  6  0  0  0
  5 14  1  0  0  0  0
  6  4  1  0  0  0  0
  7  3  2  0  0  0  0
  7  2  1  0  0  0  0
  9  6  2  0  0  0  0
 10  4  2  0  0  0  0
 11  9  1  0  0  0  0
 11  1  2  0  0  0  0
 12  1  1  0  0  0  0
 14 10  1  6  0  0  0
 14  7  1  0  0  0  0
 15 17  1  0  0  0  0
 16 12  1  0  0  0  0
 16  5  1  0  0  0  0
 17 13  1  1  0  0  0
 17  8  1  0  0  0  0
 17  2  1  0  0  0  0
 18 25  1  0  0  0  0
 19 18  2  0  0  0  0
 21  3  1  6  0  0  0
 21 22  1  0  0  0  0
 21 19  1  0  0  0  0
 22 20  1  6  0  0  0
 22 23  1  0  0  0  0
 22 24  1  0  0  0  0
 24 23  1  1  0  0  0
 24 25  1  0  0  0  0
 25 27  1  1  0  0  0
 27 29  2  0  0  0  0
 27 31  1  0  0  0  0
 28 32  1  0  0  0  0
 28 26  2  0  0  0  0
 29 28  1  0  0  0  0
 30 26  1  0  0  0  0
 31 30  2  0  0  0  0
 33 32  1  0  0  0  0
M  END
>  <MODEL>
4

>  <REMARK>
 VINA RESULT:      -6.5      2.538      4.213
  Name = 
  3 active torsions:
  status: ('A' for Active; 'I' for Inactive)
    1  A    between atoms: N_6  and  C_12
    2  A    between atoms: C_8  and  C_23
    3  A    between atoms: C_10  and  O_22
                            x       y       z     vdW  Elec       q    Type
                         _______ _______ _______ _____ _____    ______ ____

>  <TORSDO>
F 3

$$$$
=
 OpenBabel10222419483D

 33 38  0  0  1  0  0  0  0  0999 V2000
  188.7910  176.8340  141.9240 C   0  0  0  0  0  0  0  0  0  0  0  0
  184.2200  178.5220  142.8170 C   0  0  0  0  0  2  0  0  0  0  0  0
  185.3320  178.1710  140.6600 N   0  0  0  0  0  0  0  0  0  0  0  0
  188.3040  178.8540  140.6710 C   0  0  0  0  0  3  0  0  0  0  0  0
  186.6660  177.5640  143.9120 C   0  0  2  0  0  3  0  0  0  0  0  0
  189.4300  178.6340  139.8750 C   0  0  0  0  0  3  0  0  0  0  0  0
  185.4420  178.3400  141.9360 C   0  0  0  0  0  0  0  0  0  0  0  0
  183.4300  178.8670  145.0380 O   0  0  0  0  0  1  0  0  0  0  0  0
  190.2440  177.5260  140.1090 C   0  0  0  0  0  3  0  0  0  0  0  0
  187.9590  177.9590  141.6950 C   0  0  0  0  0  0  0  0  0  0  0  0
  189.9270  176.6330  141.1340 C   0  0  0  0  0  3  0  0  0  0  0  0
  188.4470  175.6430  143.2180 S   0  0  0  0  0  0  0  0  0  0  0  0
  184.8920  180.5030  144.1680 C   0  0  0  0  0  1  0  0  0  0  0  0
  186.7990  178.3430  142.5990 C   0  0  2  0  0  3  0  0  0  0  0  0
  185.7360  178.2800  144.8950 C   0  0  0  0  0  2  0  0  0  0  0  0
  188.2660  177.1780  144.6690 S   0  0  0  0  0  0  0  0  0  0  0  0
  184.5570  179.0240  144.2340 C   0  0  2  0  0  0  0  0  0  0  0  0
  182.4440  179.7530  139.0950 C   0  0  0  0  0  3  0  0  0  0  0  0
  183.4540  179.4970  139.9330 C   0  0  0  0  0  3  0  0  0  0  0  0
  185.5690  177.3710  137.8910 C   0  0  0  0  0  1  0  0  0  0  0  0
  184.0650  178.1260  139.9660 C   0  0  1  0  0  3  0  0  0  0  0  0
  184.2070  177.5600  138.5350 C   0  0  2  0  0  0  0  0  0  0  0  0
  183.1930  176.4980  138.1780 C   0  0  0  0  0  2  0  0  0  0  0  0
  183.0870  177.8790  137.5400 C   0  0  1  0  0  3  0  0  0  0  0  0
  181.9330  178.6630  138.1880 C   0  0  2  0  0  3  0  0  0  0  0  0
  179.2670  180.2850  135.2370 C   0  0  0  0  0  3  0  0  0  0  0  0
  181.0020  179.2120  137.1550 C   0  0  0  0  0  0  0  0  0  0  0  0
  179.9820  181.1410  136.0800 C   0  0  0  0  0  0  0  0  0  0  0  0
  180.8500  180.5970  137.0400 C   0  0  0  0  0  3  0  0  0  0  0  0
  179.4140  178.9000  135.3460 C   0  0  0  0  0  3  0  0  0  0  0  0
  180.2800  178.3620  136.3020 C   0  0  0  0  0  3  0  0  0  0  0  0
  179.8110  182.5220  135.9460 O   0  0  0  0  0  0  0  0  0  0  0  0
  180.7870  183.3610  135.3430 C   0  0  0  0  0  1  0  0  0  0  0  0
  1 12  1  0  0  0  0
  2 17  1  0  0  0  0
  3  7  2  0  0  0  0
  4 10  2  0  0  0  0
  5 16  1  0  0  0  0
  5 15  1  1  0  0  0
  6  9  2  0  0  0  0
  6  4  1  0  0  0  0
  7 14  1  0  0  0  0
  7  2  1  0  0  0  0
  9 11  1  0  0  0  0
 10  1  1  0  0  0  0
 11  1  2  0  0  0  0
 12 16  1  0  0  0  0
 14 10  1  6  0  0  0
 14  5  1  0  0  0  0
 17 13  1  6  0  0  0
 17 15  1  0  0  0  0
 17  8  1  0  0  0  0
 18 19  2  0  0  0  0
 19 21  1  0  0  0  0
 21  3  1  6  0  0  0
 22 20  1  6  0  0  0
 22 21  1  0  0  0  0
 23 22  1  0  0  0  0
 24 23  1  1  0  0  0
 24 25  1  0  0  0  0
 24 22  1  0  0  0  0
 25 27  1  6  0  0  0
 25 18  1  0  0  0  0
 26 30  2  0  0  0  0
 26 28  1  0  0  0  0
 28 29  2  0  0  0  0
 29 27  1  0  0  0  0
 30 31  1  0  0  0  0
 31 27  2  0  0  0  0
 32 28  1  0  0  0  0
 33 32  1  0  0  0  0
M  END
>  <MODEL>
5

>  <REMARK>
 VINA RESULT:      -6.1      4.301      9.481
  Name = 
  3 active torsions:
  status: ('A' for Active; 'I' for Inactive)
    1  A    between atoms: N_6  and  C_12
    2  A    between atoms: C_8  and  C_23
    3  A    between atoms: C_10  and  O_22
                            x       y       z     vdW  Elec       q    Type
                         _______ _______ _______ _____ _____    ______ ____

>  <TORSDO>
F 3

$$$$
=
 OpenBabel10222419483D

 33 38  0  0  1  0  0  0  0  0999 V2000
  182.0170  178.2080  137.9530 C   0  0  0  0  0  0  0  0  0  0  0  0
  181.6640  179.4210  142.7430 C   0  0  0  0  0  2  0  0  0  0  0  0
  183.5190  178.3280  141.5690 N   0  0  0  0  0  0  0  0  0  0  0  0
  182.6360  176.3670  139.4080 C   0  0  0  0  0  3  0  0  0  0  0  0
  180.4210  179.4230  140.1830 C   0  0  2  0  0  3  0  0  0  0  0  0
  183.1910  175.6900  138.3200 C   0  0  0  0  0  3  0  0  0  0  0  0
  182.2650  178.6370  141.5920 C   0  0  0  0  0  0  0  0  0  0  0  0
  179.6820  180.3890  143.6410 O   0  0  0  0  0  1  0  0  0  0  0  0
  183.1490  176.2620  137.0480 C   0  0  0  0  0  3  0  0  0  0  0  0
  182.0530  177.6330  139.2490 C   0  0  0  0  0  0  0  0  0  0  0  0
  182.5580  177.5140  136.8670 C   0  0  0  0  0  3  0  0  0  0  0  0
  181.2790  179.8110  137.6420 S   0  0  0  0  0  0  0  0  0  0  0  0
  179.6400  178.0620  143.2470 C   0  0  0  0  0  1  0  0  0  0  0  0
  181.3530  178.2380  140.4560 C   0  0  2  0  0  3  0  0  0  0  0  0
  179.4910  179.6870  141.3710 C   0  0  0  0  0  2  0  0  0  0  0  0
  179.4920  179.2510  138.6370 S   0  0  0  0  0  0  0  0  0  0  0  0
  180.1240  179.4130  142.7510 C   0  0  2  0  0  0  0  0  0  0  0  0
  185.0830  177.8770  144.8310 C   0  0  0  0  0  3  0  0  0  0  0  0
  184.1720  177.9170  143.8540 C   0  0  0  0  0  3  0  0  0  0  0  0
  186.2720  177.7480  140.8990 C   0  0  0  0  0  1  0  0  0  0  0  0
  184.4530  178.7050  142.6070 C   0  0  1  0  0  3  0  0  0  0  0  0
  185.9210  178.5150  142.1630 C   0  0  2  0  0  0  0  0  0  0  0  0
  186.8200  179.6950  142.4490 C   0  0  0  0  0  2  0  0  0  0  0  0
  186.9800  178.4160  143.2650 C   0  0  1  0  0  3  0  0  0  0  0  0
  186.3860  178.6180  144.6690 C   0  0  2  0  0  3  0  0  0  0  0  0
  189.2260  177.5030  147.6910 C   0  0  0  0  0  3  0  0  0  0  0  0
  187.3630  178.2340  145.7330 C   0  0  0  0  0  0  0  0  0  0  0  0
  189.6030  177.5080  146.3440 C   0  0  0  0  0  0  0  0  0  0  0  0
  188.6640  177.8750  145.3670 C   0  0  0  0  0  3  0  0  0  0  0  0
  187.9280  177.8600  148.0630 C   0  0  0  0  0  3  0  0  0  0  0  0
  186.9970  178.2250  147.0880 C   0  0  0  0  0  3  0  0  0  0  0  0
  190.9090  177.1450  146.0060 O   0  0  0  0  0  0  0  0  0  0  0  0
  191.6810  176.2400  146.7830 C   0  0  0  0  0  1  0  0  0  0  0  0
  1 10  1  0  0  0  0
  2 17  1  0  0  0  0
  3  7  2  0  0  0  0
  5 14  1  0  0  0  0
  5 15  1  1  0  0  0
  6  4  1  0  0  0  0
  7  2  1  0  0  0  0
  9  6  2  0  0  0  0
 10  4  2  0  0  0  0
 11  9  1  0  0  0  0
 11  1  2  0  0  0  0
 12  1  1  0  0  0  0
 12 16  1  0  0  0  0
 14 10  1  6  0  0  0
 14  7  1  0  0  0  0
 15 17  1  0  0  0  0
 16  5  1  0  0  0  0
 17 13  1  1  0  0  0
 17  8  1  0  0  0  0
 19 18  2  0  0  0  0
 21  3  1  6  0  0  0
 21 19  1  0  0  0  0
 22 20  1  6  0  0  0
 22 23  1  0  0  0  0
 22 21  1  0  0  0  0
 22 24  1  0  0  0  0
 24 23  1  6  0  0  0
 24 25  1  0  0  0  0
 25 18  1  0  0  0  0
 25 27  1  1  0  0  0
 26 30  1  0  0  0  0
 27 31  1  0  0  0  0
 28 26  2  0  0  0  0
 29 27  2  0  0  0  0
 29 28  1  0  0  0  0
 31 30  2  0  0  0  0
 32 28  1  0  0  0  0
 32 33  1  0  0  0  0
M  END
>  <MODEL>
6

>  <REMARK>
 VINA RESULT:      -6.1      4.166      5.593
  Name = 
  3 active torsions:
  status: ('A' for Active; 'I' for Inactive)
    1  A    between atoms: N_6  and  C_12
    2  A    between atoms: C_8  and  C_23
    3  A    between atoms: C_10  and  O_22
                            x       y       z     vdW  Elec       q    Type
                         _______ _______ _______ _____ _____    ______ ____

>  <TORSDO>
F 3

$$$$
=
 OpenBabel10222419483D

 33 38  0  0  1  0  0  0  0  0999 V2000
  181.9310  175.0490  135.9320 C   0  0  0  0  0  0  0  0  0  0  0  0
  185.0070  178.3330  138.0040 C   0  0  0  0  0  2  0  0  0  0  0  0
  185.5400  176.1850  136.9490 N   0  0  0  0  0  0  0  0  0  0  0  0
  183.4800  173.9990  137.4760 C   0  0  0  0  0  3  0  0  0  0  0  0
  182.3210  177.6710  137.3360 C   0  0  2  0  0  3  0  0  0  0  0  0
  183.1350  172.7430  136.9710 C   0  0  0  0  0  3  0  0  0  0  0  0
  184.6550  176.9450  137.5040 C   0  0  0  0  0  0  0  0  0  0  0  0
  184.1950  180.3070  139.0600 O   0  0  0  0  0  1  0  0  0  0  0  0
  182.1820  172.6370  135.9590 C   0  0  0  0  0  3  0  0  0  0  0  0
  182.8970  175.1670  136.9620 C   0  0  0  0  0  0  0  0  0  0  0  0
  181.5780  173.7870  135.4470 C   0  0  0  0  0  3  0  0  0  0  0  0
  181.1160  176.4790  135.2220 S   0  0  0  0  0  0  0  0  0  0  0  0
  183.9940  178.2960  140.2790 C   0  0  0  0  0  1  0  0  0  0  0  0
  183.2270  176.4780  137.6590 C   0  0  2  0  0  3  0  0  0  0  0  0
  182.4900  178.7940  138.3630 C   0  0  0  0  0  2  0  0  0  0  0  0
  180.5810  177.2040  137.1410 S   0  0  0  0  0  0  0  0  0  0  0  0
  183.9240  178.9490  138.9100 C   0  0  2  0  0  0  0  0  0  0  0  0
  189.0310  176.4040  137.9740 C   0  0  0  0  0  3  0  0  0  0  0  0
  187.6950  176.3920  138.0100 C   0  0  0  0  0  3  0  0  0  0  0  0
  186.9050  174.5840  134.9650 C   0  0  0  0  0  1  0  0  0  0  0  0
  186.9150  176.5800  136.7410 C   0  0  1  0  0  3  0  0  0  0  0  0
  187.5720  175.8030  135.5790 C   0  0  2  0  0  0  0  0  0  0  0  0
  188.3250  176.6670  134.5940 C   0  0  0  0  0  2  0  0  0  0  0  0
  189.1030  175.7590  135.5410 C   0  0  1  0  0  3  0  0  0  0  0  0
  189.7410  176.6010  136.6590 C   0  0  2  0  0  3  0  0  0  0  0  0
  193.9430  175.7730  136.9760 C   0  0  0  0  0  3  0  0  0  0  0  0
  191.2030  176.3160  136.7860 C   0  0  0  0  0  0  0  0  0  0  0  0
  193.3120  175.7210  135.7290 C   0  0  0  0  0  0  0  0  0  0  0  0
  191.9370  175.9940  135.6410 C   0  0  0  0  0  3  0  0  0  0  0  0
  193.2160  176.0940  138.1240 C   0  0  0  0  0  3  0  0  0  0  0  0
  191.8480  176.3660  138.0310 C   0  0  0  0  0  3  0  0  0  0  0  0
  194.0680  175.3960  134.6000 O   0  0  0  0  0  0  0  0  0  0  0  0
  195.4320  175.0000  134.6770 C   0  0  0  0  0  1  0  0  0  0  0  0
  1 10  1  0  0  0  0
  2 17  1  0  0  0  0
  3  7  2  0  0  0  0
  5 14  1  0  0  0  0
  5 15  1  1  0  0  0
  6  4  1  0  0  0  0
  7 14  1  0  0  0  0
  7  2  1  0  0  0  0
  9  6  2  0  0  0  0
 10  4  2  0  0  0  0
 11  1  2  0  0  0  0
 11  9  1  0  0  0  0
 12  1  1  0  0  0  0
 12 16  1  0  0  0  0
 14 10  1  6  0  0  0
 15 17  1  0  0  0  0
 16  5  1  0  0  0  0
 17  8  1  0  0  0  0
 17 13  1  1  0  0  0
 18 19  2  0  0  0  0
 21  3  1  1  0  0  0
 21 19  1  0  0  0  0
 22 20  1  6  0  0  0
 22 21  1  0  0  0  0
 23 22  1  0  0  0  0
 24 23  1  6  0  0  0
 24 22  1  0  0  0  0
 24 25  1  0  0  0  0
 25 27  1  1  0  0  0
 25 18  1  0  0  0  0
 26 30  1  0  0  0  0
 27 31  1  0  0  0  0
 28 26  2  0  0  0  0
 29 28  1  0  0  0  0
 29 27  2  0  0  0  0
 31 30  2  0  0  0  0
 32 33  1  0  0  0  0
 32 28  1  0  0  0  0
M  END
>  <MODEL>
7

>  <REMARK>
 VINA RESULT:      -5.8      5.442      7.659
  Name = 
  3 active torsions:
  status: ('A' for Active; 'I' for Inactive)
    1  A    between atoms: N_6  and  C_12
    2  A    between atoms: C_8  and  C_23
    3  A    between atoms: C_10  and  O_22
                            x       y       z     vdW  Elec       q    Type
                         _______ _______ _______ _____ _____    ______ ____

>  <TORSDO>
F 3

$$$$
=
 OpenBabel10222419483D

 33 38  0  0  1  0  0  0  0  0999 V2000
  180.9100  175.7460  135.9950 C   0  0  0  0  0  0  0  0  0  0  0  0
  184.6250  178.3640  137.9670 C   0  0  0  0  0  2  0  0  0  0  0  0
  184.7060  176.1760  136.8620 N   0  0  0  0  0  0  0  0  0  0  0  0
  182.3010  174.3970  137.4540 C   0  0  0  0  0  3  0  0  0  0  0  0
  181.8370  178.2220  137.4130 C   0  0  2  0  0  3  0  0  0  0  0  0
  181.7090  173.2370  136.9510 C   0  0  0  0  0  3  0  0  0  0  0  0
  184.0010  177.0740  137.4660 C   0  0  0  0  0  0  0  0  0  0  0  0
  184.2380  180.4320  139.0820 O   0  0  0  0  0  1  0  0  0  0  0  0
  180.7110  173.3290  135.9820 C   0  0  0  0  0  3  0  0  0  0  0  0
  181.9240  175.6620  136.9820 C   0  0  0  0  0  0  0  0  0  0  0  0
  180.3100  174.5800  135.5110 C   0  0  0  0  0  3  0  0  0  0  0  0
  180.3440  177.3160  135.3410 S   0  0  0  0  0  0  0  0  0  0  0  0
  183.7200  178.4680  140.2840 C   0  0  0  0  0  1  0  0  0  0  0  0
  182.5190  176.8760  137.6790 C   0  0  2  0  0  3  0  0  0  0  0  0
  182.2540  179.2730  138.4440 C   0  0  0  0  0  2  0  0  0  0  0  0
  180.0350  178.0880  137.2900 S   0  0  0  0  0  0  0  0  0  0  0  0
  183.7140  179.1500  138.9280 C   0  0  2  0  0  0  0  0  0  0  0  0
  188.0550  177.3400  137.7110 C   0  0  0  0  0  3  0  0  0  0  0  0
  186.7270  177.2840  137.5710 C   0  0  0  0  0  3  0  0  0  0  0  0
  186.1850  173.7150  137.2100 C   0  0  0  0  0  1  0  0  0  0  0  0
  186.1200  176.3150  136.5970 C   0  0  1  0  0  3  0  0  0  0  0  0
  186.8570  174.9580  136.6530 C   0  0  2  0  0  0  0  0  0  0  0  0
  187.7820  174.6990  135.4870 C   0  0  0  0  0  2  0  0  0  0  0  0
  188.3740  174.9900  136.8620 C   0  0  1  0  0  3  0  0  0  0  0  0
  188.9300  176.4240  136.8940 C   0  0  2  0  0  3  0  0  0  0  0  0
  192.9740  176.5200  138.3380 C   0  0  0  0  0  3  0  0  0  0  0  0
  190.3430  176.4480  137.3840 C   0  0  0  0  0  0  0  0  0  0  0  0
  191.9480  177.0980  139.0920 C   0  0  0  0  0  0  0  0  0  0  0  0
  190.6300  177.0590  138.6070 C   0  0  0  0  0  3  0  0  0  0  0  0
  192.6930  175.9070  137.1150 C   0  0  0  0  0  3  0  0  0  0  0  0
  191.3810  175.8700  136.6360 C   0  0  0  0  0  3  0  0  0  0  0  0
  192.2620  177.7030  140.3120 O   0  0  0  0  0  0  0  0  0  0  0  0
  191.5700  177.4070  141.5170 C   0  0  0  0  0  1  0  0  0  0  0  0
  1 10  1  0  0  0  0
  2 17  1  0  0  0  0
  3  7  2  0  0  0  0
  5 14  1  0  0  0  0
  5 15  1  1  0  0  0
  6  4  1  0  0  0  0
  7 14  1  0  0  0  0
  7  2  1  0  0  0  0
  9  6  2  0  0  0  0
 10  4  2  0  0  0  0
 11  9  1  0  0  0  0
 11  1  2  0  0  0  0
 12  1  1  0  0  0  0
 12 16  1  0  0  0  0
 14 10  1  6  0  0  0
 15 17  1  0  0  0  0
 16  5  1  0  0  0  0
 17  8  1  0  0  0  0
 17 13  1  1  0  0  0
 19 18  2  0  0  0  0
 21 22  1  0  0  0  0
 21  3  1  1  0  0  0
 21 19  1  0  0  0  0
 22 24  1  0  0  0  0
 22 20  1  1  0  0  0
 23 22  1  0  0  0  0
 24 23  1  6  0  0  0
 24 25  1  0  0  0  0
 25 27  1  1  0  0  0
 25 18  1  0  0  0  0
 26 28  1  0  0  0  0
 27 29  1  0  0  0  0
 28 32  1  0  0  0  0
 29 28  2  0  0  0  0
 30 26  2  0  0  0  0
 31 30  1  0  0  0  0
 31 27  2  0  0  0  0
 32 33  1  0  0  0  0
M  END
>  <MODEL>
8

>  <REMARK>
 VINA RESULT:      -5.2      4.059      7.098
  Name = 
  3 active torsions:
  status: ('A' for Active; 'I' for Inactive)
    1  A    between atoms: N_6  and  C_12
    2  A    between atoms: C_8  and  C_23
    3  A    between atoms: C_10  and  O_22
                            x       y       z     vdW  Elec       q    Type
                         _______ _______ _______ _____ _____    ______ ____

>  <TORSDO>
F 3

$$$$
=
 OpenBabel10222419483D

 33 38  0  0  1  0  0  0  0  0999 V2000
  190.4640  176.8110  136.2440 C   0  0  0  0  0  0  0  0  0  0  0  0
  186.3560  177.9110  138.7860 C   0  0  0  0  0  2  0  0  0  0  0  0
  188.5890  177.3620  139.6400 N   0  0  0  0  0  0  0  0  0  0  0  0
  190.0420  175.2200  138.0270 C   0  0  0  0  0  3  0  0  0  0  0  0
  187.5580  177.5550  136.2300 C   0  0  2  0  0  3  0  0  0  0  0  0
  191.3350  174.7150  137.8860 C   0  0  0  0  0  3  0  0  0  0  0  0
  187.7460  177.3150  138.6620 C   0  0  0  0  0  0  0  0  0  0  0  0
  184.2790  178.3030  137.6880 O   0  0  0  0  0  1  0  0  0  0  0  0
  192.1890  175.2450  136.9190 C   0  0  0  0  0  3  0  0  0  0  0  0
  189.5880  176.2760  137.2230 C   0  0  0  0  0  0  0  0  0  0  0  0
  191.7510  176.2850  136.0980 C   0  0  0  0  0  3  0  0  0  0  0  0
  189.9740  178.1470  135.1560 S   0  0  0  0  0  0  0  0  0  0  0  0
  184.9540  176.0520  137.9060 C   0  0  0  0  0  1  0  0  0  0  0  0
  188.1260  176.6740  137.3480 C   0  0  2  0  0  3  0  0  0  0  0  0
  186.0270  177.5610  136.2470 C   0  0  0  0  0  2  0  0  0  0  0  0
  188.2040  177.1250  134.5940 S   0  0  0  0  0  0  0  0  0  0  0  0
  185.4030  177.4800  137.6560 C   0  0  2  0  0  0  0  0  0  0  0  0
  186.3920  178.1150  142.4500 C   0  0  0  0  0  3  0  0  0  0  0  0
  186.8340  177.8810  141.2100 C   0  0  0  0  0  3  0  0  0  0  0  0
  189.9200  176.0880  141.8690 C   0  0  0  0  0  1  0  0  0  0  0  0
  188.3020  177.9880  140.9110 C   0  0  1  0  0  3  0  0  0  0  0  0
  189.1360  177.3760  142.0590 C   0  0  2  0  0  0  0  0  0  0  0  0
  189.8080  178.3900  142.9550 C   0  0  0  0  0  2  0  0  0  0  0  0
  188.6250  177.5870  143.4880 C   0  0  1  0  0  3  0  0  0  0  0  0
  187.3730  178.4780  143.5360 C   0  0  2  0  0  3  0  0  0  0  0  0
  185.5600  178.3410  147.4280 C   0  0  0  0  0  3  0  0  0  0  0  0
  186.7270  178.4340  144.8830 C   0  0  0  0  0  0  0  0  0  0  0  0
  186.9420  178.1670  147.2920 C   0  0  0  0  0  0  0  0  0  0  0  0
  187.5200  178.2150  146.0130 C   0  0  0  0  0  3  0  0  0  0  0  0
  184.7620  178.5600  146.3030 C   0  0  0  0  0  3  0  0  0  0  0  0
  185.3420  178.6070  145.0320 C   0  0  0  0  0  3  0  0  0  0  0  0
  187.7120  177.9500  148.4380 O   0  0  0  0  0  0  0  0  0  0  0  0
  189.1020  178.2400  148.4950 C   0  0  0  0  0  1  0  0  0  0  0  0
  1 10  1  0  0  0  0
  5 15  1  6  0  0  0
  5 14  1  0  0  0  0
  6  4  1  0  0  0  0
  7  2  1  0  0  0  0
  7  3  2  0  0  0  0
  9  6  2  0  0  0  0
 10  4  2  0  0  0  0
 11  1  2  0  0  0  0
 11  9  1  0  0  0  0
 12  1  1  0  0  0  0
 14 10  1  6  0  0  0
 14  7  1  0  0  0  0
 15 17  1  0  0  0  0
 16 12  1  0  0  0  0
 16  5  1  0  0  0  0
 17  8  1  0  0  0  0
 17 13  1  1  0  0  0
 17  2  1  0  0  0  0
 18 25  1  0  0  0  0
 19 18  2  0  0  0  0
 21  3  1  6  0  0  0
 21 19  1  0  0  0  0
 21 22  1  0  0  0  0
 22 20  1  6  0  0  0
 22 23  1  0  0  0  0
 22 24  1  0  0  0  0
 24 23  1  1  0  0  0
 24 25  1  0  0  0  0
 25 27  1  1  0  0  0
 27 31  2  0  0  0  0
 27 29  1  0  0  0  0
 28 26  1  0  0  0  0
 28 32  1  0  0  0  0
 29 28  2  0  0  0  0
 30 26  2  0  0  0  0
 31 30  1  0  0  0  0
 32 33  1  0  0  0  0
M  END
>  <MODEL>
9

>  <REMARK>
 VINA RESULT:      -5.0      1.663      2.129
  Name = 
  3 active torsions:
  status: ('A' for Active; 'I' for Inactive)
    1  A    between atoms: N_6  and  C_12
    2  A    between atoms: C_8  and  C_23
    3  A    between atoms: C_10  and  O_22
                            x       y       z     vdW  Elec       q    Type
                         _______ _______ _______ _____ _____    ______ ____

>  <TORSDO>
F 3

$$$$
