=
 OpenBabel10222420513D

 48 50  0  0  1  0  0  0  0  0999 V2000
  182.6020  180.0630  138.7760 N   0  0  0  0  0  2  0  0  0  0  0  0
  183.9200  179.4960  138.8260 C   0  0  0  0  0  2  0  0  0  0  0  0
  183.6120  178.7280  141.1850 C   0  0  2  0  0  3  0  0  0  0  0  0
  182.3450  178.0170  140.9710 C   0  0  0  0  0  3  0  0  0  0  0  0
  185.9130  178.9720  140.1440 C   0  0  0  0  0  3  0  0  0  0  0  0
  184.4390  178.9370  139.9410 C   0  0  0  0  0  0  0  0  0  0  0  0
  181.3790  178.5680  140.2670 C   0  0  0  0  0  3  0  0  0  0  0  0
  184.3570  178.1870  142.3520 C   0  0  0  0  0  2  0  0  0  0  0  0
  185.6430  178.3810  142.5420 C   0  0  0  0  0  0  0  0  0  0  0  0
  186.5210  178.6910  141.3360 C   0  0  0  0  0  0  0  0  0  0  0  0
  181.5350  179.8280  139.5330 C   0  0  2  0  0  3  0  0  0  0  0  0
  180.4260  180.7880  139.5930 C   0  0  0  0  0  0  0  0  0  0  0  0
  179.9470  181.1400  140.7080 O   0  0  0  0  0  0  0  0  0  0  0  0
  179.8840  181.3600  138.4210 O   0  0  0  0  0  0  0  0  0  0  0  0
  180.7310  182.7990  136.6800 C   0  0  0  0  0  1  0  0  0  0  0  0
  180.1400  182.7180  138.0700 C   0  0  0  0  0  2  0  0  0  0  0  0
  186.0930  177.9550  143.8800 N   0  0  0  0  0  2  0  0  0  0  0  0
  185.9940  178.4990  145.2550 C   0  0  1  0  0  3  0  0  0  0  0  0
  184.5840  179.0090  145.6250 C   0  0  0  0  0  1  0  0  0  0  0  0
  186.7900  176.2380  145.6360 O   0  0  0  0  0  1  0  0  0  0  0  0
  186.4550  177.4340  146.2820 C   0  0  1  0  0  3  0  0  0  0  0  0
  187.5240  178.8140  147.9410 O   0  0  0  0  0  0  0  0  0  0  0  0
  187.6350  177.9620  147.0540 C   0  0  0  0  0  0  0  0  0  0  0  0
  189.0120  177.4760  146.7020 C   0  0  0  0  0  2  0  0  0  0  0  0
  189.6020  178.3490  145.7730 O   0  0  0  0  0  0  0  0  0  0  0  0
  191.9650  176.8620  146.2950 O   0  0  0  0  0  1  0  0  0  0  0  0
  190.8980  177.4600  145.0960 P   0  0  0  0  0  0  0  0  0  0  0  0
  191.6810  178.4010  144.1920 O   0  0  0  0  0  1  0  0  0  0  0  0
  190.3150  176.1590  144.1580 O   0  0  0  0  0  0  0  0  0  0  0  0
  188.0000  178.9040  141.4990 C   0  0  0  0  0  2  0  0  0  0  0  0
  188.9030  177.3520  141.1830 S   0  0  0  0  0  0  0  0  0  0  0  0
  189.6820  177.6960  139.5490 C   0  0  2  0  0  3  0  0  0  0  0  0
  188.7690  177.2920  138.4930 N   0  0  0  0  0  2  0  0  0  0  0  0
  188.6480  179.4520  137.6290 O   0  0  0  0  0  0  0  0  0  0  0  0
  188.5620  178.2010  137.4010 C   0  0  0  0  0  0  0  0  0  0  0  0
  187.9100  177.7180  136.1470 C   0  0  0  0  0  2  0  0  0  0  0  0
  186.3840  177.8060  136.3020 C   0  0  0  0  0  2  0  0  0  0  0  0
  182.3080  177.0680  136.6740 C   0  0  0  0  0  2  0  0  0  0  0  0
  181.8750  175.2590  138.5240 C   0  0  0  0  0  1  0  0  0  0  0  0
  182.8970  174.2320  135.7060 C   0  0  0  0  0  1  0  0  0  0  0  0
  186.4310  175.4950  136.8850 O   0  0  0  0  0  0  0  0  0  0  0  0
  182.8650  175.9860  137.5920 C   0  0  1  0  0  3  0  0  0  0  0  0
  184.4250  176.1960  135.9140 N   0  0  0  0  0  0  0  0  0  0  0  0
  185.7730  176.4390  136.3450 C   0  0  0  0  0  0  0  0  0  0  0  0
  183.4830  177.3310  135.7270 C   0  0  0  0  0  2  0  0  0  0  0  0
  183.7100  175.1570  136.6450 C   0  0  2  0  0  3  0  0  0  0  0  0
  191.9540  177.4230  140.4160 N   0  0  0  0  0  1  0  0  0  0  0  0
  191.0190  176.9540  139.3880 C   0  0  0  0  0  2  0  0  0  0  0  0
  1  2  1  0  0  0  0
  1 11  1  0  0  0  0
  2  6  1  0  0  0  0
  3  4  1  6  0  0  0
  3  8  1  0  0  0  0
  5 10  1  0  0  0  0
  6  5  2  0  0  0  0
  6  3  1  0  0  0  0
  7  4  2  0  0  0  0
  8  9  1  0  0  0  0
  9 17  1  0  0  0  0
 10 30  1  0  0  0  0
 10  9  2  0  0  0  0
 11 12  1  6  0  0  0
 11  7  1  0  0  0  0
 12 13  2  0  0  0  0
 14 12  1  0  0  0  0
 15 16  1  0  0  0  0
 16 14  1  0  0  0  0
 17 18  1  0  0  0  0
 18 19  1  1  0  0  0
 18 21  1  0  0  0  0
 21 20  1  6  0  0  0
 21 23  1  0  0  0  0
 23 22  2  0  0  0  0
 24 23  1  0  0  0  0
 25 24  1  0  0  0  0
 27 25  1  0  0  0  0
 27 26  1  0  0  0  0
 28 27  1  0  0  0  0
 29 27  2  0  0  0  0
 31 30  1  0  0  0  0
 32 48  1  1  0  0  0
 32 31  1  0  0  0  0
 33 32  1  0  0  0  0
 35 34  2  0  0  0  0
 35 33  1  0  0  0  0
 36 37  1  0  0  0  0
 36 35  1  0  0  0  0
 37 44  1  0  0  0  0
 38 42  1  0  0  0  0
 42 39  1  6  0  0  0
 43 44  1  0  0  0  0
 43 46  1  0  0  0  0
 44 41  2  0  0  0  0
 45 43  1  0  0  0  0
 45 38  1  0  0  0  0
 46 40  1  6  0  0  0
 46 42  1  0  0  0  0
 48 47  1  0  0  0  0
M  END
>  <MODEL>
1

>  <REMARK>
 VINA RESULT:      -6.5      0.000      0.000
  Name = 
  18 active torsions:
  status: ('A' for Active; 'I' for Inactive)
    1  A    between atoms: C_4  and  C_27
    2  A    between atoms: C_4  and  C_45
    3  A    between atoms: S_9  and  C_44
    4  A    between atoms: S_9  and  C_47
    5  A    between atoms: N_10  and  C_47
    6  A    between atoms: C_11  and  O_23
    7  A    between atoms: C_11  and  C_46
    8  A    between atoms: C_12  and  N_22
    9  A    between atoms: C_12  and  C_27
   10  A    between atoms: C_17  and  O_23
   11  A    between atoms: N_22  and  C_39
   12  A    between atoms: C_28  and  C_29
   13  A    between atoms: C_28  and  C_41
   14  A    between atoms: O_30  and  P_34
   15  A    between atoms: O_30  and  C_45
   16  A    between atoms: C_33  and  C_41
   17  A    between atoms: C_43  and  C_44
   18  A    between atoms: C_47  and  C_48
                            x       y       z     vdW  Elec       q    Type
                         _______ _______ _______ _____ _____    ______ ____

>  <TORSDO>
F 18

$$$$
=
 OpenBabel10222420513D

 48 50  0  0  1  0  0  0  0  0999 V2000
  191.9720  176.6070  143.3400 N   0  0  0  0  0  2  0  0  0  0  0  0
  191.6940  176.9270  141.9680 C   0  0  0  0  0  2  0  0  0  0  0  0
  189.5640  178.0920  142.5640 C   0  0  2  0  0  3  0  0  0  0  0  0
  190.1320  178.9780  143.5870 C   0  0  0  0  0  3  0  0  0  0  0  0
  190.0340  177.2790  140.2060 C   0  0  0  0  0  3  0  0  0  0  0  0
  190.5620  177.5480  141.5710 C   0  0  0  0  0  0  0  0  0  0  0  0
  190.9670  178.5090  144.4900 C   0  0  0  0  0  3  0  0  0  0  0  0
  188.3290  178.6620  141.9650 C   0  0  0  0  0  2  0  0  0  0  0  0
  187.8370  178.2700  140.8100 C   0  0  0  0  0  0  0  0  0  0  0  0
  188.7760  177.6250  139.7980 C   0  0  0  0  0  0  0  0  0  0  0  0
  191.5020  177.1440  144.4610 C   0  0  2  0  0  3  0  0  0  0  0  0
  191.5830  176.4210  145.7360 C   0  0  0  0  0  0  0  0  0  0  0  0
  192.1770  175.3080  145.8000 O   0  0  0  0  0  0  0  0  0  0  0  0
  191.0300  176.9540  146.9200 O   0  0  0  0  0  0  0  0  0  0  0  0
  188.8550  177.8340  147.4840 C   0  0  0  0  0  1  0  0  0  0  0  0
  189.7190  176.5990  147.3530 C   0  0  0  0  0  2  0  0  0  0  0  0
  186.4890  178.8080  140.5520 N   0  0  0  0  0  2  0  0  0  0  0  0
  185.1400  178.6150  141.1350 C   0  0  1  0  0  3  0  0  0  0  0  0
  185.0100  179.1240  142.5880 C   0  0  0  0  0  1  0  0  0  0  0  0
  184.6700  179.8830  139.1200 O   0  0  0  0  0  1  0  0  0  0  0  0
  184.0720  179.2940  140.2420 C   0  0  1  0  0  3  0  0  0  0  0  0
  183.3070  177.3740  139.0060 O   0  0  0  0  0  0  0  0  0  0  0  0
  183.0530  178.2710  139.8160 C   0  0  0  0  0  0  0  0  0  0  0  0
  181.6520  178.3710  140.3520 C   0  0  0  0  0  2  0  0  0  0  0  0
  181.6710  178.9670  141.6240 O   0  0  0  0  0  0  0  0  0  0  0  0
  179.3710  178.1380  143.0710 O   0  0  0  0  0  1  0  0  0  0  0  0
  180.0280  179.2860  141.9830 P   0  0  0  0  0  0  0  0  0  0  0  0
  179.2470  179.2060  140.6800 O   0  0  0  0  0  0  0  0  0  0  0  0
  179.8450  180.8520  142.6360 O   0  0  0  0  0  1  0  0  0  0  0  0
  188.2650  177.1760  138.4570 C   0  0  0  0  0  2  0  0  0  0  0  0
  189.4230  177.6720  137.1390 S   0  0  0  0  0  0  0  0  0  0  0  0
  189.6800  176.0800  136.2470 C   0  0  2  0  0  3  0  0  0  0  0  0
  191.0970  175.7560  136.2540 N   0  0  0  0  0  2  0  0  0  0  0  0
  190.7900  173.9820  137.7310 O   0  0  0  0  0  0  0  0  0  0  0  0
  191.4920  174.4860  136.7950 C   0  0  0  0  0  0  0  0  0  0  0  0
  192.8660  173.9630  136.5330 C   0  0  0  0  0  2  0  0  0  0  0  0
  193.8320  175.1440  136.3510 C   0  0  0  0  0  2  0  0  0  0  0  0
  196.8870  172.5390  135.2640 C   0  0  0  0  0  2  0  0  0  0  0  0
  197.5920  171.0570  137.3110 C   0  0  0  0  0  1  0  0  0  0  0  0
  198.6560  174.0420  137.2490 C   0  0  0  0  0  1  0  0  0  0  0  0
  195.0270  175.0220  138.4100 O   0  0  0  0  0  0  0  0  0  0  0  0
  196.8350  172.2850  136.7660 C   0  0  1  0  0  3  0  0  0  0  0  0
  196.3120  174.5130  136.5270 N   0  0  0  0  0  0  0  0  0  0  0  0
  195.0860  174.9340  137.1430 C   0  0  0  0  0  0  0  0  0  0  0  0
  196.3040  173.9510  135.1500 C   0  0  0  0  0  2  0  0  0  0  0  0
  197.1600  173.6500  137.3400 C   0  0  2  0  0  3  0  0  0  0  0  0
  188.2890  177.3130  134.6550 N   0  0  0  0  0  1  0  0  0  0  0  0
  189.1740  176.1520  134.7970 C   0  0  0  0  0  2  0  0  0  0  0  0
  1 11  1  0  0  0  0
  2  1  1  0  0  0  0
  3  8  1  6  0  0  0
  3  4  1  0  0  0  0
  4  7  2  0  0  0  0
  5  6  2  0  0  0  0
  6  2  1  0  0  0  0
  6  3  1  0  0  0  0
  9  8  1  0  0  0  0
 10  5  1  0  0  0  0
 10  9  2  0  0  0  0
 11  7  1  0  0  0  0
 11 12  1  1  0  0  0
 12 13  2  0  0  0  0
 12 14  1  0  0  0  0
 14 16  1  0  0  0  0
 16 15  1  0  0  0  0
 17  9  1  0  0  0  0
 17 18  1  0  0  0  0
 18 19  1  1  0  0  0
 21 20  1  6  0  0  0
 21 18  1  0  0  0  0
 22 23  2  0  0  0  0
 23 21  1  0  0  0  0
 23 24  1  0  0  0  0
 24 25  1  0  0  0  0
 25 27  1  0  0  0  0
 27 29  1  0  0  0  0
 27 26  1  0  0  0  0
 28 27  2  0  0  0  0
 30 10  1  0  0  0  0
 31 30  1  0  0  0  0
 32 48  1  6  0  0  0
 32 33  1  0  0  0  0
 32 31  1  0  0  0  0
 33 35  1  0  0  0  0
 35 34  2  0  0  0  0
 36 35  1  0  0  0  0
 37 36  1  0  0  0  0
 37 44  1  0  0  0  0
 38 42  1  0  0  0  0
 42 39  1  6  0  0  0
 42 46  1  0  0  0  0
 43 44  1  0  0  0  0
 43 46  1  0  0  0  0
 44 41  2  0  0  0  0
 45 38  1  0  0  0  0
 45 43  1  0  0  0  0
 46 40  1  6  0  0  0
 47 48  1  0  0  0  0
M  END
>  <MODEL>
2

>  <REMARK>
 VINA RESULT:      -6.4      4.431      9.877
  Name = 
  18 active torsions:
  status: ('A' for Active; 'I' for Inactive)
    1  A    between atoms: C_4  and  C_27
    2  A    between atoms: C_4  and  C_45
    3  A    between atoms: S_9  and  C_44
    4  A    between atoms: S_9  and  C_47
    5  A    between atoms: N_10  and  C_47
    6  A    between atoms: C_11  and  O_23
    7  A    between atoms: C_11  and  C_46
    8  A    between atoms: C_12  and  N_22
    9  A    between atoms: C_12  and  C_27
   10  A    between atoms: C_17  and  O_23
   11  A    between atoms: N_22  and  C_39
   12  A    between atoms: C_28  and  C_29
   13  A    between atoms: C_28  and  C_41
   14  A    between atoms: O_30  and  P_34
   15  A    between atoms: O_30  and  C_45
   16  A    between atoms: C_33  and  C_41
   17  A    between atoms: C_43  and  C_44
   18  A    between atoms: C_47  and  C_48
                            x       y       z     vdW  Elec       q    Type
                         _______ _______ _______ _____ _____    ______ ____

>  <TORSDO>
F 18

$$$$
=
 OpenBabel10222420513D

 48 50  0  0  1  0  0  0  0  0999 V2000
  185.7060  179.1860  143.0620 N   0  0  0  0  0  2  0  0  0  0  0  0
  185.6320  179.3800  141.6420 C   0  0  0  0  0  2  0  0  0  0  0  0
  183.4560  178.1600  141.4840 C   0  0  2  0  0  3  0  0  0  0  0  0
  182.7540  178.9230  142.5230 C   0  0  0  0  0  3  0  0  0  0  0  0
  184.9370  178.5280  139.4560 C   0  0  0  0  0  3  0  0  0  0  0  0
  184.6470  178.8610  140.8770 C   0  0  0  0  0  0  0  0  0  0  0  0
  183.3430  179.1890  143.6700 C   0  0  0  0  0  3  0  0  0  0  0  0
  182.5100  177.5660  140.5030 C   0  0  0  0  0  2  0  0  0  0  0  0
  182.8700  177.1590  139.3060 C   0  0  0  0  0  0  0  0  0  0  0  0
  184.1210  177.7590  138.6760 C   0  0  0  0  0  0  0  0  0  0  0  0
  184.7530  178.8900  143.9410 C   0  0  2  0  0  3  0  0  0  0  0  0
  185.0870  178.3340  145.2570 C   0  0  0  0  0  0  0  0  0  0  0  0
  184.2980  178.4870  146.2330 O   0  0  0  0  0  0  0  0  0  0  0  0
  186.2730  177.5970  145.4650 O   0  0  0  0  0  0  0  0  0  0  0  0
  188.3060  176.9410  146.5870 C   0  0  0  0  0  1  0  0  0  0  0  0
  187.2440  178.0060  146.4260 C   0  0  0  0  0  2  0  0  0  0  0  0
  181.8130  176.3930  138.6210 N   0  0  0  0  0  2  0  0  0  0  0  0
  181.1890  176.4140  137.2770 C   0  0  1  0  0  3  0  0  0  0  0  0
  181.0890  175.0220  136.6130 C   0  0  0  0  0  1  0  0  0  0  0  0
  179.4730  177.4120  138.6730 O   0  0  0  0  0  1  0  0  0  0  0  0
  179.7830  177.0620  137.3530 C   0  0  1  0  0  3  0  0  0  0  0  0
  179.7060  178.2020  135.2330 O   0  0  0  0  0  0  0  0  0  0  0  0
  179.7450  178.2770  136.4650 C   0  0  0  0  0  0  0  0  0  0  0  0
  179.8080  179.6410  137.0930 C   0  0  0  0  0  2  0  0  0  0  0  0
  181.1020  180.1690  136.9550 O   0  0  0  0  0  0  0  0  0  0  0  0
  180.4640  180.4870  139.7050 O   0  0  0  0  0  1  0  0  0  0  0  0
  181.3520  181.0970  138.3720 P   0  0  0  0  0  0  0  0  0  0  0  0
  180.8690  182.5120  138.0880 O   0  0  0  0  0  0  0  0  0  0  0  0
  183.0090  181.1530  138.7750 O   0  0  0  0  0  1  0  0  0  0  0  0
  184.5630  177.3390  137.3020 C   0  0  0  0  0  2  0  0  0  0  0  0
  185.1620  175.6170  137.3270 S   0  0  0  0  0  0  0  0  0  0  0  0
  186.7420  175.7540  136.3890 C   0  0  2  0  0  3  0  0  0  0  0  0
  187.6220  176.6860  137.0750 N   0  0  0  0  0  2  0  0  0  0  0  0
  189.2590  175.0610  137.4000 O   0  0  0  0  0  0  0  0  0  0  0  0
  188.9920  176.3000  137.2640 C   0  0  0  0  0  0  0  0  0  0  0  0
  190.0050  177.3250  137.6540 C   0  0  0  0  0  2  0  0  0  0  0  0
  189.6900  177.8370  139.0680 C   0  0  0  0  0  2  0  0  0  0  0  0
  189.1900  178.1130  143.1880 C   0  0  0  0  0  2  0  0  0  0  0  0
  191.4460  178.8030  144.3350 C   0  0  0  0  0  1  0  0  0  0  0  0
  191.1510  175.7830  143.4190 C   0  0  0  0  0  1  0  0  0  0  0  0
  191.8520  177.1470  139.7970 O   0  0  0  0  0  0  0  0  0  0  0  0
  190.6990  178.2970  143.0840 C   0  0  1  0  0  3  0  0  0  0  0  0
  190.1650  176.8420  141.3840 N   0  0  0  0  0  0  0  0  0  0  0  0
  190.6140  177.2230  140.0750 C   0  0  0  0  0  0  0  0  0  0  0  0
  188.8650  177.3410  141.9050 C   0  0  0  0  0  2  0  0  0  0  0  0
  191.1450  176.9920  142.4530 C   0  0  2  0  0  3  0  0  0  0  0  0
  187.0300  177.5950  134.8030 N   0  0  0  0  0  1  0  0  0  0  0  0
  186.5090  176.2310  134.9470 C   0  0  0  0  0  2  0  0  0  0  0  0
  1 11  1  0  0  0  0
  2  1  1  0  0  0  0
  3  8  1  6  0  0  0
  3  4  1  0  0  0  0
  4  7  2  0  0  0  0
  5  6  2  0  0  0  0
  6  3  1  0  0  0  0
  6  2  1  0  0  0  0
  7 11  1  0  0  0  0
  9  8  1  0  0  0  0
 10  9  2  0  0  0  0
 10  5  1  0  0  0  0
 11 12  1  1  0  0  0
 12 14  1  0  0  0  0
 12 13  2  0  0  0  0
 14 16  1  0  0  0  0
 16 15  1  0  0  0  0
 17  9  1  0  0  0  0
 18 19  1  1  0  0  0
 18 21  1  0  0  0  0
 18 17  1  0  0  0  0
 21 20  1  1  0  0  0
 22 23  2  0  0  0  0
 23 24  1  0  0  0  0
 23 21  1  0  0  0  0
 25 24  1  0  0  0  0
 25 27  1  0  0  0  0
 27 29  1  0  0  0  0
 27 26  1  0  0  0  0
 28 27  2  0  0  0  0
 30 31  1  0  0  0  0
 30 10  1  0  0  0  0
 32 48  1  6  0  0  0
 32 33  1  0  0  0  0
 32 31  1  0  0  0  0
 33 35  1  0  0  0  0
 35 34  2  0  0  0  0
 35 36  1  0  0  0  0
 36 37  1  0  0  0  0
 37 44  1  0  0  0  0
 41 44  2  0  0  0  0
 42 38  1  0  0  0  0
 42 39  1  1  0  0  0
 43 45  1  0  0  0  0
 43 46  1  0  0  0  0
 44 43  1  0  0  0  0
 45 38  1  0  0  0  0
 46 42  1  0  0  0  0
 46 40  1  1  0  0  0
 47 48  1  0  0  0  0
M  END
>  <MODEL>
3

>  <REMARK>
 VINA RESULT:      -6.4      3.025      8.544
  Name = 
  18 active torsions:
  status: ('A' for Active; 'I' for Inactive)
    1  A    between atoms: C_4  and  C_27
    2  A    between atoms: C_4  and  C_45
    3  A    between atoms: S_9  and  C_44
    4  A    between atoms: S_9  and  C_47
    5  A    between atoms: N_10  and  C_47
    6  A    between atoms: C_11  and  O_23
    7  A    between atoms: C_11  and  C_46
    8  A    between atoms: C_12  and  N_22
    9  A    between atoms: C_12  and  C_27
   10  A    between atoms: C_17  and  O_23
   11  A    between atoms: N_22  and  C_39
   12  A    between atoms: C_28  and  C_29
   13  A    between atoms: C_28  and  C_41
   14  A    between atoms: O_30  and  P_34
   15  A    between atoms: O_30  and  C_45
   16  A    between atoms: C_33  and  C_41
   17  A    between atoms: C_43  and  C_44
   18  A    between atoms: C_47  and  C_48
                            x       y       z     vdW  Elec       q    Type
                         _______ _______ _______ _____ _____    ______ ____

>  <TORSDO>
F 18

$$$$
=
 OpenBabel10222420513D

 48 50  0  0  1  0  0  0  0  0999 V2000
  185.9030  179.1860  143.0770 N   0  0  0  0  0  2  0  0  0  0  0  0
  185.6870  179.4040  141.6740 C   0  0  0  0  0  2  0  0  0  0  0  0
  183.4510  178.2870  141.7400 C   0  0  2  0  0  3  0  0  0  0  0  0
  182.9020  179.0660  142.8570 C   0  0  0  0  0  3  0  0  0  0  0  0
  184.7220  178.6180  139.5680 C   0  0  0  0  0  3  0  0  0  0  0  0
  184.6010  178.9420  141.0160 C   0  0  0  0  0  0  0  0  0  0  0  0
  183.6220  179.2880  143.9360 C   0  0  0  0  0  3  0  0  0  0  0  0
  182.3780  177.7520  140.8610 C   0  0  0  0  0  2  0  0  0  0  0  0
  182.5880  177.3470  139.6290 C   0  0  0  0  0  0  0  0  0  0  0  0
  183.7910  177.8980  138.8730 C   0  0  0  0  0  0  0  0  0  0  0  0
  185.0370  178.9210  144.0500 C   0  0  2  0  0  3  0  0  0  0  0  0
  185.4840  178.3300  145.3170 C   0  0  0  0  0  0  0  0  0  0  0  0
  184.6470  178.0650  146.2260 O   0  0  0  0  0  0  0  0  0  0  0  0
  186.8420  178.0210  145.5460 O   0  0  0  0  0  0  0  0  0  0  0  0
  188.7410  177.1790  146.7740 C   0  0  0  0  0  1  0  0  0  0  0  0
  187.3190  177.6900  146.8490 C   0  0  0  0  0  2  0  0  0  0  0  0
  181.4280  176.6400  139.0550 N   0  0  0  0  0  2  0  0  0  0  0  0
  180.9380  175.2420  139.0420 C   0  0  1  0  0  3  0  0  0  0  0  0
  179.9230  174.9260  140.1640 C   0  0  0  0  0  1  0  0  0  0  0  0
  179.6920  176.0360  137.1170 O   0  0  0  0  0  1  0  0  0  0  0  0
  180.3170  174.9070  137.6620 C   0  0  1  0  0  3  0  0  0  0  0  0
  181.8740  175.1000  135.8360 O   0  0  0  0  0  0  0  0  0  0  0  0
  181.3950  174.4070  136.7380 C   0  0  0  0  0  0  0  0  0  0  0  0
  181.8750  172.9890  136.8780 C   0  0  0  0  0  2  0  0  0  0  0  0
  182.5300  172.5900  135.7010 O   0  0  0  0  0  0  0  0  0  0  0  0
  185.1570  171.7240  135.0560 O   0  0  0  0  0  0  0  0  0  0  0  0
  183.9150  171.7400  136.2360 P   0  0  0  0  0  0  0  0  0  0  0  0
  183.4990  170.3010  136.5060 O   0  0  0  0  0  1  0  0  0  0  0  0
  184.5190  172.4160  137.6820 O   0  0  0  0  0  1  0  0  0  0  0  0
  184.0630  177.4780  137.4550 C   0  0  0  0  0  2  0  0  0  0  0  0
  184.9630  175.8930  137.4250 S   0  0  0  0  0  0  0  0  0  0  0  0
  186.3990  176.2960  136.3420 C   0  0  2  0  0  3  0  0  0  0  0  0
  187.4080  176.9840  137.1290 N   0  0  0  0  0  2  0  0  0  0  0  0
  188.7620  175.0920  137.2360 O   0  0  0  0  0  0  0  0  0  0  0  0
  188.6970  176.3640  137.2560 C   0  0  0  0  0  0  0  0  0  0  0  0
  189.8570  177.1590  137.7600 C   0  0  0  0  0  2  0  0  0  0  0  0
  189.5590  177.6410  139.1880 C   0  0  0  0  0  2  0  0  0  0  0  0
  189.3600  178.1080  143.3160 C   0  0  0  0  0  2  0  0  0  0  0  0
  191.6450  179.0020  144.2420 C   0  0  0  0  0  1  0  0  0  0  0  0
  191.4870  175.9250  143.5030 C   0  0  0  0  0  1  0  0  0  0  0  0
  191.8120  177.1320  139.7730 O   0  0  0  0  0  0  0  0  0  0  0  0
  190.8400  178.3820  143.0830 C   0  0  1  0  0  3  0  0  0  0  0  0
  190.2770  176.8060  141.5040 N   0  0  0  0  0  0  0  0  0  0  0  0
  190.5970  177.1440  140.1460 C   0  0  0  0  0  0  0  0  0  0  0  0
  188.9900  177.2490  142.1030 C   0  0  0  0  0  2  0  0  0  0  0  0
  191.3240  177.0770  142.4820 C   0  0  2  0  0  3  0  0  0  0  0  0
  187.0860  178.0890  134.8240 N   0  0  0  0  0  1  0  0  0  0  0  0
  185.9850  177.1750  135.1510 C   0  0  0  0  0  2  0  0  0  0  0  0
  1 11  1  0  0  0  0
  2  1  1  0  0  0  0
  3  8  1  6  0  0  0
  3  4  1  0  0  0  0
  4  7  2  0  0  0  0
  5  6  2  0  0  0  0
  6  2  1  0  0  0  0
  6  3  1  0  0  0  0
  7 11  1  0  0  0  0
  9  8  1  0  0  0  0
 10  5  1  0  0  0  0
 10  9  2  0  0  0  0
 11 12  1  1  0  0  0
 12 14  1  0  0  0  0
 12 13  2  0  0  0  0
 14 16  1  0  0  0  0
 15 16  1  0  0  0  0
 17  9  1  0  0  0  0
 18 17  1  0  0  0  0
 18 19  1  1  0  0  0
 21 20  1  6  0  0  0
 21 18  1  0  0  0  0
 22 23  2  0  0  0  0
 23 24  1  0  0  0  0
 23 21  1  0  0  0  0
 25 27  1  0  0  0  0
 25 24  1  0  0  0  0
 26 27  2  0  0  0  0
 27 28  1  0  0  0  0
 27 29  1  0  0  0  0
 30 10  1  0  0  0  0
 31 30  1  0  0  0  0
 32 48  1  6  0  0  0
 32 33  1  0  0  0  0
 32 31  1  0  0  0  0
 33 35  1  0  0  0  0
 34 35  2  0  0  0  0
 35 36  1  0  0  0  0
 36 37  1  0  0  0  0
 37 44  1  0  0  0  0
 41 44  2  0  0  0  0
 42 38  1  0  0  0  0
 42 39  1  1  0  0  0
 43 45  1  0  0  0  0
 43 46  1  0  0  0  0
 44 43  1  0  0  0  0
 45 38  1  0  0  0  0
 46 42  1  0  0  0  0
 46 40  1  1  0  0  0
 47 48  1  0  0  0  0
M  END
>  <MODEL>
4

>  <REMARK>
 VINA RESULT:      -6.3      3.389      8.573
  Name = 
  18 active torsions:
  status: ('A' for Active; 'I' for Inactive)
    1  A    between atoms: C_4  and  C_27
    2  A    between atoms: C_4  and  C_45
    3  A    between atoms: S_9  and  C_44
    4  A    between atoms: S_9  and  C_47
    5  A    between atoms: N_10  and  C_47
    6  A    between atoms: C_11  and  O_23
    7  A    between atoms: C_11  and  C_46
    8  A    between atoms: C_12  and  N_22
    9  A    between atoms: C_12  and  C_27
   10  A    between atoms: C_17  and  O_23
   11  A    between atoms: N_22  and  C_39
   12  A    between atoms: C_28  and  C_29
   13  A    between atoms: C_28  and  C_41
   14  A    between atoms: O_30  and  P_34
   15  A    between atoms: O_30  and  C_45
   16  A    between atoms: C_33  and  C_41
   17  A    between atoms: C_43  and  C_44
   18  A    between atoms: C_47  and  C_48
                            x       y       z     vdW  Elec       q    Type
                         _______ _______ _______ _____ _____    ______ ____

>  <TORSDO>
F 18

$$$$
=
 OpenBabel10222420513D

 48 50  0  0  1  0  0  0  0  0999 V2000
  188.3360  178.1570  143.1160 N   0  0  0  0  0  2  0  0  0  0  0  0
  187.9220  177.9510  141.7570 C   0  0  0  0  0  2  0  0  0  0  0  0
  190.1220  176.9440  141.1300 C   0  0  2  0  0  3  0  0  0  0  0  0
  190.1690  175.9470  142.2070 C   0  0  0  0  0  3  0  0  0  0  0  0
  188.5230  177.8610  139.3870 C   0  0  0  0  0  3  0  0  0  0  0  0
  188.7430  177.4600  140.8030 C   0  0  0  0  0  0  0  0  0  0  0  0
  189.8610  176.2810  143.4420 C   0  0  0  0  0  3  0  0  0  0  0  0
  190.9310  176.5250  139.9560 C   0  0  0  0  0  2  0  0  0  0  0  0
  190.7770  177.0320  138.7530 C   0  0  0  0  0  0  0  0  0  0  0  0
  189.4350  177.6560  138.3900 C   0  0  0  0  0  0  0  0  0  0  0  0
  189.3180  177.5920  143.8110 C   0  0  2  0  0  3  0  0  0  0  0  0
  189.8380  178.2220  145.0310 C   0  0  0  0  0  0  0  0  0  0  0  0
  190.5860  179.2370  144.9550 O   0  0  0  0  0  0  0  0  0  0  0  0
  189.5000  177.7330  146.3120 O   0  0  0  0  0  0  0  0  0  0  0  0
  188.1690  177.8300  148.3220 C   0  0  0  0  0  1  0  0  0  0  0  0
  188.1660  177.8110  146.8100 C   0  0  0  0  0  2  0  0  0  0  0  0
  191.8490  176.6330  137.8230 N   0  0  0  0  0  2  0  0  0  0  0  0
  192.2550  175.3790  137.1460 C   0  0  1  0  0  3  0  0  0  0  0  0
  191.1400  174.7460  136.2840 C   0  0  0  0  0  1  0  0  0  0  0  0
  194.2360  176.7270  136.7580 O   0  0  0  0  0  1  0  0  0  0  0  0
  193.5150  175.6260  136.2780 C   0  0  1  0  0  3  0  0  0  0  0  0
  194.0880  173.3810  136.9340 O   0  0  0  0  0  0  0  0  0  0  0  0
  194.3760  174.3910  136.2850 C   0  0  0  0  0  0  0  0  0  0  0  0
  195.6680  174.4000  135.5170 C   0  0  0  0  0  2  0  0  0  0  0  0
  196.6080  173.5750  136.1570 O   0  0  0  0  0  0  0  0  0  0  0  0
  196.9230  174.9280  138.6350 O   0  0  0  0  0  1  0  0  0  0  0  0
  197.5770  174.6450  137.0770 P   0  0  0  0  0  0  0  0  0  0  0  0
  197.6300  175.9730  136.3360 O   0  0  0  0  0  0  0  0  0  0  0  0
  199.1650  174.0400  137.2320 O   0  0  0  0  0  1  0  0  0  0  0  0
  189.2030  178.2330  137.0210 C   0  0  0  0  0  2  0  0  0  0  0  0
  187.4520  178.6970  136.8160 S   0  0  0  0  0  0  0  0  0  0  0  0
  186.7330  177.1490  136.1200 C   0  0  2  0  0  3  0  0  0  0  0  0
  185.7880  176.5940  137.0750 N   0  0  0  0  0  2  0  0  0  0  0  0
  183.9540  177.2210  135.7830 O   0  0  0  0  0  0  0  0  0  0  0  0
  184.4290  176.4140  136.6480 C   0  0  0  0  0  0  0  0  0  0  0  0
  183.5060  175.5580  137.4500 C   0  0  0  0  0  2  0  0  0  0  0  0
  182.1000  176.1800  137.4400 C   0  0  0  0  0  2  0  0  0  0  0  0
  183.6910  179.2680  139.7270 C   0  0  0  0  0  2  0  0  0  0  0  0
  184.2580  178.4150  142.1410 C   0  0  0  0  0  1  0  0  0  0  0  0
  181.2140  179.0160  141.4960 C   0  0  0  0  0  1  0  0  0  0  0  0
  181.2690  175.5760  139.5900 O   0  0  0  0  0  0  0  0  0  0  0  0
  183.5490  178.1870  140.7910 C   0  0  1  0  0  3  0  0  0  0  0  0
  181.7770  177.8450  139.3640 N   0  0  0  0  0  0  0  0  0  0  0  0
  181.6560  176.5180  138.8300 C   0  0  0  0  0  0  0  0  0  0  0  0
  182.6440  178.8470  138.6900 C   0  0  0  0  0  2  0  0  0  0  0  0
  182.0560  177.9240  140.7930 C   0  0  2  0  0  3  0  0  0  0  0  0
  187.6330  174.9420  136.6740 N   0  0  0  0  0  1  0  0  0  0  0  0
  187.8180  176.1090  135.8040 C   0  0  0  0  0  2  0  0  0  0  0  0
  1 11  1  0  0  0  0
  2  1  1  0  0  0  0
  3  8  1  6  0  0  0
  3  4  1  0  0  0  0
  4  7  2  0  0  0  0
  5  6  2  0  0  0  0
  6  3  1  0  0  0  0
  6  2  1  0  0  0  0
  7 11  1  0  0  0  0
  9  8  1  0  0  0  0
 10  9  2  0  0  0  0
 10  5  1  0  0  0  0
 11 12  1  1  0  0  0
 12 14  1  0  0  0  0
 13 12  2  0  0  0  0
 14 16  1  0  0  0  0
 16 15  1  0  0  0  0
 17  9  1  0  0  0  0
 18 19  1  6  0  0  0
 18 17  1  0  0  0  0
 21 23  1  0  0  0  0
 21 20  1  1  0  0  0
 21 18  1  0  0  0  0
 23 22  2  0  0  0  0
 24 25  1  0  0  0  0
 24 23  1  0  0  0  0
 25 27  1  0  0  0  0
 27 29  1  0  0  0  0
 27 26  1  0  0  0  0
 28 27  2  0  0  0  0
 30 10  1  0  0  0  0
 31 30  1  0  0  0  0
 32 48  1  1  0  0  0
 32 31  1  0  0  0  0
 32 33  1  0  0  0  0
 34 35  2  0  0  0  0
 35 33  1  0  0  0  0
 35 36  1  0  0  0  0
 37 36  1  0  0  0  0
 37 44  1  0  0  0  0
 38 42  1  0  0  0  0
 42 46  1  0  0  0  0
 42 39  1  1  0  0  0
 43 46  1  0  0  0  0
 44 43  1  0  0  0  0
 44 41  2  0  0  0  0
 45 43  1  0  0  0  0
 45 38  1  0  0  0  0
 46 40  1  6  0  0  0
 48 47  1  0  0  0  0
M  END
>  <MODEL>
5

>  <REMARK>
 VINA RESULT:      -6.1      4.292      8.617
  Name = 
  18 active torsions:
  status: ('A' for Active; 'I' for Inactive)
    1  A    between atoms: C_4  and  C_27
    2  A    between atoms: C_4  and  C_45
    3  A    between atoms: S_9  and  C_44
    4  A    between atoms: S_9  and  C_47
    5  A    between atoms: N_10  and  C_47
    6  A    between atoms: C_11  and  O_23
    7  A    between atoms: C_11  and  C_46
    8  A    between atoms: C_12  and  N_22
    9  A    between atoms: C_12  and  C_27
   10  A    between atoms: C_17  and  O_23
   11  A    between atoms: N_22  and  C_39
   12  A    between atoms: C_28  and  C_29
   13  A    between atoms: C_28  and  C_41
   14  A    between atoms: O_30  and  P_34
   15  A    between atoms: O_30  and  C_45
   16  A    between atoms: C_33  and  C_41
   17  A    between atoms: C_43  and  C_44
   18  A    between atoms: C_47  and  C_48
                            x       y       z     vdW  Elec       q    Type
                         _______ _______ _______ _____ _____    ______ ____

>  <TORSDO>
F 18

$$$$
=
 OpenBabel10222420513D

 48 50  0  0  1  0  0  0  0  0999 V2000
  181.2550  179.3260  140.2600 N   0  0  0  0  0  2  0  0  0  0  0  0
  182.4210  178.5190  140.4780 C   0  0  0  0  0  2  0  0  0  0  0  0
  182.3180  178.8570  142.9530 C   0  0  2  0  0  3  0  0  0  0  0  0
  180.9160  178.4590  143.1240 C   0  0  0  0  0  3  0  0  0  0  0  0
  184.4390  178.0870  141.7930 C   0  0  0  0  0  3  0  0  0  0  0  0
  182.9760  178.3400  141.6980 C   0  0  0  0  0  0  0  0  0  0  0  0
  179.9890  178.9050  142.3020 C   0  0  0  0  0  3  0  0  0  0  0  0
  183.1030  178.6600  144.2000 C   0  0  0  0  0  2  0  0  0  0  0  0
  184.4140  178.5880  144.2260 C   0  0  0  0  0  0  0  0  0  0  0  0
  185.1470  178.1630  142.9590 C   0  0  0  0  0  0  0  0  0  0  0  0
  180.2870  179.6850  141.0980 C   0  0  2  0  0  3  0  0  0  0  0  0
  179.4200  180.8320  140.8010 C   0  0  0  0  0  0  0  0  0  0  0  0
  179.0260  181.5910  141.7320 O   0  0  0  0  0  0  0  0  0  0  0  0
  179.0240  181.1330  139.4800 O   0  0  0  0  0  0  0  0  0  0  0  0
  179.9690  181.4770  137.2870 C   0  0  0  0  0  1  0  0  0  0  0  0
  179.7620  182.0470  138.6730 C   0  0  0  0  0  2  0  0  0  0  0  0
  184.9630  178.6340  145.5940 N   0  0  0  0  0  2  0  0  0  0  0  0
  186.2990  178.8600  146.1940 C   0  0  1  0  0  3  0  0  0  0  0  0
  186.3060  179.9150  147.3230 C   0  0  0  0  0  1  0  0  0  0  0  0
  186.5560  176.4710  145.8540 O   0  0  0  0  0  1  0  0  0  0  0  0
  186.8790  177.5240  146.7200 C   0  0  1  0  0  3  0  0  0  0  0  0
  188.9570  177.4970  147.9370 O   0  0  0  0  0  0  0  0  0  0  0  0
  188.3730  177.6470  146.8590 C   0  0  0  0  0  0  0  0  0  0  0  0
  189.1890  178.0210  145.6540 C   0  0  0  0  0  2  0  0  0  0  0  0
  189.5570  176.8620  144.9500 O   0  0  0  0  0  0  0  0  0  0  0  0
  191.8940  176.8020  146.5650 O   0  0  0  0  0  1  0  0  0  0  0  0
  191.2690  176.8610  144.9710 P   0  0  0  0  0  0  0  0  0  0  0  0
  191.7390  178.1560  144.3250 O   0  0  0  0  0  1  0  0  0  0  0  0
  191.8840  175.5460  144.0740 O   0  0  0  0  0  0  0  0  0  0  0  0
  186.6470  178.0490  142.9430 C   0  0  0  0  0  2  0  0  0  0  0  0
  187.3720  179.3570  141.9010 S   0  0  0  0  0  0  0  0  0  0  0  0
  188.4470  178.3820  140.7660 C   0  0  2  0  0  3  0  0  0  0  0  0
  187.6720  177.9840  139.6030 N   0  0  0  0  0  2  0  0  0  0  0  0
  189.0520  179.1710  138.1490 O   0  0  0  0  0  0  0  0  0  0  0  0
  188.2550  178.1890  138.3070 C   0  0  0  0  0  0  0  0  0  0  0  0
  187.6680  177.5110  137.1130 C   0  0  0  0  0  2  0  0  0  0  0  0
  186.2170  177.1090  137.4210 C   0  0  0  0  0  2  0  0  0  0  0  0
  184.4120  173.3640  137.5360 C   0  0  0  0  0  2  0  0  0  0  0  0
  185.2590  171.8840  135.5430 C   0  0  0  0  0  1  0  0  0  0  0  0
  183.0900  174.0980  134.8820 C   0  0  0  0  0  1  0  0  0  0  0  0
  186.0870  176.6380  135.0880 O   0  0  0  0  0  0  0  0  0  0  0  0
  185.1430  173.2720  136.2020 C   0  0  1  0  0  3  0  0  0  0  0  0
  184.5260  175.4810  136.3860 N   0  0  0  0  0  0  0  0  0  0  0  0
  185.5870  176.4370  136.2400 C   0  0  0  0  0  0  0  0  0  0  0  0
  184.2420  174.8760  137.7140 C   0  0  0  0  0  2  0  0  0  0  0  0
  184.5150  174.4010  135.4070 C   0  0  2  0  0  3  0  0  0  0  0  0
  190.4760  177.1140  141.2830 N   0  0  0  0  0  1  0  0  0  0  0  0
  189.0190  177.1340  141.4570 C   0  0  0  0  0  2  0  0  0  0  0  0
  1  2  1  0  0  0  0
  1 11  1  0  0  0  0
  2  6  1  0  0  0  0
  3  4  1  1  0  0  0
  3  8  1  0  0  0  0
  5 10  1  0  0  0  0
  6  5  2  0  0  0  0
  6  3  1  0  0  0  0
  7  4  2  0  0  0  0
  8  9  1  0  0  0  0
  9 17  1  0  0  0  0
 10  9  2  0  0  0  0
 11 12  1  6  0  0  0
 11  7  1  0  0  0  0
 12 13  2  0  0  0  0
 14 12  1  0  0  0  0
 15 16  1  0  0  0  0
 16 14  1  0  0  0  0
 17 18  1  0  0  0  0
 18 21  1  0  0  0  0
 18 19  1  1  0  0  0
 21 20  1  6  0  0  0
 21 23  1  0  0  0  0
 23 22  2  0  0  0  0
 24 23  1  0  0  0  0
 25 27  1  0  0  0  0
 25 24  1  0  0  0  0
 27 26  1  0  0  0  0
 28 27  1  0  0  0  0
 29 27  2  0  0  0  0
 30 10  1  0  0  0  0
 31 30  1  0  0  0  0
 32 48  1  1  0  0  0
 32 31  1  0  0  0  0
 33 32  1  0  0  0  0
 34 35  2  0  0  0  0
 35 33  1  0  0  0  0
 36 37  1  0  0  0  0
 36 35  1  0  0  0  0
 38 45  1  0  0  0  0
 41 44  2  0  0  0  0
 42 39  1  6  0  0  0
 42 38  1  0  0  0  0
 43 45  1  0  0  0  0
 44 43  1  0  0  0  0
 44 37  1  0  0  0  0
 46 40  1  1  0  0  0
 46 42  1  0  0  0  0
 46 43  1  0  0  0  0
 47 48  1  0  0  0  0
M  END
>  <MODEL>
6

>  <REMARK>
 VINA RESULT:      -5.9      1.593      2.099
  Name = 
  18 active torsions:
  status: ('A' for Active; 'I' for Inactive)
    1  A    between atoms: C_4  and  C_27
    2  A    between atoms: C_4  and  C_45
    3  A    between atoms: S_9  and  C_44
    4  A    between atoms: S_9  and  C_47
    5  A    between atoms: N_10  and  C_47
    6  A    between atoms: C_11  and  O_23
    7  A    between atoms: C_11  and  C_46
    8  A    between atoms: C_12  and  N_22
    9  A    between atoms: C_12  and  C_27
   10  A    between atoms: C_17  and  O_23
   11  A    between atoms: N_22  and  C_39
   12  A    between atoms: C_28  and  C_29
   13  A    between atoms: C_28  and  C_41
   14  A    between atoms: O_30  and  P_34
   15  A    between atoms: O_30  and  C_45
   16  A    between atoms: C_33  and  C_41
   17  A    between atoms: C_43  and  C_44
   18  A    between atoms: C_47  and  C_48
                            x       y       z     vdW  Elec       q    Type
                         _______ _______ _______ _____ _____    ______ ____

>  <TORSDO>
F 18

$$$$
=
 OpenBabel10222420513D

 48 50  0  0  1  0  0  0  0  0999 V2000
  188.1980  178.2590  143.4660 N   0  0  0  0  0  2  0  0  0  0  0  0
  187.6340  178.1900  142.1480 C   0  0  0  0  0  2  0  0  0  0  0  0
  189.6390  177.0060  141.2390 C   0  0  2  0  0  3  0  0  0  0  0  0
  189.6800  175.9380  142.2460 C   0  0  0  0  0  3  0  0  0  0  0  0
  187.9880  178.2000  139.7270 C   0  0  0  0  0  3  0  0  0  0  0  0
  188.2990  177.6820  141.0870 C   0  0  0  0  0  0  0  0  0  0  0  0
  189.5330  176.2170  143.5240 C   0  0  0  0  0  3  0  0  0  0  0  0
  190.2790  176.5860  139.9640 C   0  0  0  0  0  2  0  0  0  0  0  0
  190.0650  177.1870  138.8160 C   0  0  0  0  0  0  0  0  0  0  0  0
  188.7710  177.9700  138.6310 C   0  0  0  0  0  0  0  0  0  0  0  0
  189.1750  177.5490  144.0210 C   0  0  2  0  0  3  0  0  0  0  0  0
  189.8770  178.0370  145.2150 C   0  0  0  0  0  0  0  0  0  0  0  0
  191.1130  178.2960  145.1670 O   0  0  0  0  0  0  0  0  0  0  0  0
  189.1950  178.2530  146.4320 O   0  0  0  0  0  0  0  0  0  0  0  0
  188.1200  177.6750  148.5140 C   0  0  0  0  0  1  0  0  0  0  0  0
  188.7250  177.1640  147.2250 C   0  0  0  0  0  2  0  0  0  0  0  0
  190.9920  176.7440  137.7580 N   0  0  0  0  0  2  0  0  0  0  0  0
  192.4190  176.3510  137.6950 C   0  0  1  0  0  3  0  0  0  0  0  0
  193.2680  176.8880  138.8690 C   0  0  0  0  0  1  0  0  0  0  0  0
  191.2760  174.2130  137.5760 O   0  0  0  0  0  1  0  0  0  0  0  0
  192.5440  174.8090  137.6180 C   0  0  1  0  0  3  0  0  0  0  0  0
  192.8870  174.5120  135.2540 O   0  0  0  0  0  0  0  0  0  0  0  0
  193.3420  174.4310  136.3990 C   0  0  0  0  0  0  0  0  0  0  0  0
  194.7300  173.8820  136.5770 C   0  0  0  0  0  2  0  0  0  0  0  0
  195.5690  174.8750  137.1090 O   0  0  0  0  0  0  0  0  0  0  0  0
  197.9650  173.7840  138.1770 O   0  0  0  0  0  0  0  0  0  0  0  0
  196.3140  174.1400  138.4640 P   0  0  0  0  0  0  0  0  0  0  0  0
  195.5870  172.8310  138.7370 O   0  0  0  0  0  1  0  0  0  0  0  0
  196.1820  175.1380  139.8420 O   0  0  0  0  0  1  0  0  0  0  0  0
  188.4720  178.6600  137.3290 C   0  0  0  0  0  2  0  0  0  0  0  0
  188.3410  177.4410  135.9790 S   0  0  0  0  0  0  0  0  0  0  0  0
  186.6610  176.7400  136.2680 C   0  0  2  0  0  3  0  0  0  0  0  0
  185.8900  177.6720  137.0740 N   0  0  0  0  0  2  0  0  0  0  0  0
  183.9100  177.1560  135.9610 O   0  0  0  0  0  0  0  0  0  0  0  0
  184.4590  177.5660  137.0360 C   0  0  0  0  0  0  0  0  0  0  0  0
  183.6360  178.2570  138.0730 C   0  0  0  0  0  2  0  0  0  0  0  0
  183.4720  177.3310  139.2890 C   0  0  0  0  0  2  0  0  0  0  0  0
  179.6100  178.3490  140.4500 C   0  0  0  0  0  2  0  0  0  0  0  0
  179.4880  180.8930  141.0750 C   0  0  0  0  0  1  0  0  0  0  0  0
  180.7690  178.9360  143.2140 C   0  0  0  0  0  1  0  0  0  0  0  0
  183.9540  179.0150  140.9060 O   0  0  0  0  0  0  0  0  0  0  0  0
  180.3420  179.6450  140.7750 C   0  0  1  0  0  3  0  0  0  0  0  0
  181.8770  177.9830  141.1890 N   0  0  0  0  0  0  0  0  0  0  0  0
  183.1390  178.1200  140.5190 C   0  0  0  0  0  0  0  0  0  0  0  0
  180.7370  177.3120  140.5100 C   0  0  0  0  0  2  0  0  0  0  0  0
  181.3590  179.1980  141.8060 C   0  0  2  0  0  3  0  0  0  0  0  0
  188.0820  174.8300  136.8370 N   0  0  0  0  0  1  0  0  0  0  0  0
  186.7270  175.3770  136.9740 C   0  0  0  0  0  2  0  0  0  0  0  0
  1 11  1  0  0  0  0
  2  1  1  0  0  0  0
  3  8  1  6  0  0  0
  3  4  1  0  0  0  0
  4  7  2  0  0  0  0
  5  6  2  0  0  0  0
  6  3  1  0  0  0  0
  6  2  1  0  0  0  0
  7 11  1  0  0  0  0
  9  8  1  0  0  0  0
 10  9  2  0  0  0  0
 10  5  1  0  0  0  0
 11 12  1  1  0  0  0
 12 14  1  0  0  0  0
 13 12  2  0  0  0  0
 14 16  1  0  0  0  0
 16 15  1  0  0  0  0
 17  9  1  0  0  0  0
 18 17  1  0  0  0  0
 18 19  1  1  0  0  0
 21 20  1  6  0  0  0
 21 18  1  0  0  0  0
 22 23  2  0  0  0  0
 23 24  1  0  0  0  0
 23 21  1  0  0  0  0
 24 25  1  0  0  0  0
 25 27  1  0  0  0  0
 26 27  2  0  0  0  0
 27 28  1  0  0  0  0
 27 29  1  0  0  0  0
 30 10  1  0  0  0  0
 31 32  1  0  0  0  0
 31 30  1  0  0  0  0
 32 48  1  1  0  0  0
 32 33  1  0  0  0  0
 34 35  2  0  0  0  0
 35 33  1  0  0  0  0
 35 36  1  0  0  0  0
 36 37  1  0  0  0  0
 37 44  1  0  0  0  0
 38 45  1  0  0  0  0
 38 42  1  0  0  0  0
 42 39  1  1  0  0  0
 42 46  1  0  0  0  0
 43 46  1  0  0  0  0
 44 41  2  0  0  0  0
 44 43  1  0  0  0  0
 45 43  1  0  0  0  0
 46 40  1  1  0  0  0
 47 48  1  0  0  0  0
M  END
>  <MODEL>
7

>  <REMARK>
 VINA RESULT:      -5.9      3.796      8.367
  Name = 
  18 active torsions:
  status: ('A' for Active; 'I' for Inactive)
    1  A    between atoms: C_4  and  C_27
    2  A    between atoms: C_4  and  C_45
    3  A    between atoms: S_9  and  C_44
    4  A    between atoms: S_9  and  C_47
    5  A    between atoms: N_10  and  C_47
    6  A    between atoms: C_11  and  O_23
    7  A    between atoms: C_11  and  C_46
    8  A    between atoms: C_12  and  N_22
    9  A    between atoms: C_12  and  C_27
   10  A    between atoms: C_17  and  O_23
   11  A    between atoms: N_22  and  C_39
   12  A    between atoms: C_28  and  C_29
   13  A    between atoms: C_28  and  C_41
   14  A    between atoms: O_30  and  P_34
   15  A    between atoms: O_30  and  C_45
   16  A    between atoms: C_33  and  C_41
   17  A    between atoms: C_43  and  C_44
   18  A    between atoms: C_47  and  C_48
                            x       y       z     vdW  Elec       q    Type
                         _______ _______ _______ _____ _____    ______ ____

>  <TORSDO>
F 18

$$$$
=
 OpenBabel10222420513D

 48 50  0  0  1  0  0  0  0  0999 V2000
  181.2380  179.2800  140.1310 N   0  0  0  0  0  2  0  0  0  0  0  0
  182.3980  178.4950  140.4460 C   0  0  0  0  0  2  0  0  0  0  0  0
  182.2160  179.0170  142.8840 C   0  0  2  0  0  3  0  0  0  0  0  0
  180.8090  178.6280  143.0390 C   0  0  0  0  0  3  0  0  0  0  0  0
  184.3730  178.1690  141.8520 C   0  0  0  0  0  3  0  0  0  0  0  0
  182.9140  178.4100  141.6920 C   0  0  0  0  0  0  0  0  0  0  0  0
  179.9080  179.0080  142.1580 C   0  0  0  0  0  3  0  0  0  0  0  0
  182.9610  178.9160  144.1670 C   0  0  0  0  0  2  0  0  0  0  0  0
  184.2710  178.8510  144.2390 C   0  0  0  0  0  0  0  0  0  0  0  0
  185.0440  178.3350  143.0310 C   0  0  0  0  0  0  0  0  0  0  0  0
  180.2450  179.6970  140.9080 C   0  0  2  0  0  3  0  0  0  0  0  0
  179.3860  180.8160  140.5000 C   0  0  0  0  0  0  0  0  0  0  0  0
  178.9730  181.6480  141.3560 O   0  0  0  0  0  0  0  0  0  0  0  0
  179.0200  181.0070  139.1500 O   0  0  0  0  0  0  0  0  0  0  0  0
  178.9530  183.4000  138.8420 C   0  0  0  0  0  1  0  0  0  0  0  0
  179.5480  182.0870  138.3820 C   0  0  0  0  0  2  0  0  0  0  0  0
  184.7760  179.0010  145.6160 N   0  0  0  0  0  2  0  0  0  0  0  0
  186.1110  179.0620  146.2560 C   0  0  1  0  0  3  0  0  0  0  0  0
  186.2380  180.1630  147.3320 C   0  0  0  0  0  1  0  0  0  0  0  0
  186.3630  176.6740  145.9040 O   0  0  0  0  0  1  0  0  0  0  0  0
  186.4710  177.6850  146.8680 C   0  0  1  0  0  3  0  0  0  0  0  0
  188.1090  177.7440  148.6320 O   0  0  0  0  0  0  0  0  0  0  0  0
  187.8710  177.7340  147.4200 C   0  0  0  0  0  0  0  0  0  0  0  0
  189.0280  177.8290  146.4670 C   0  0  0  0  0  2  0  0  0  0  0  0
  189.5600  176.5490  146.2340 O   0  0  0  0  0  0  0  0  0  0  0  0
  191.7590  177.0380  147.9640 O   0  0  0  0  0  1  0  0  0  0  0  0
  191.2550  176.7500  146.3520 P   0  0  0  0  0  0  0  0  0  0  0  0
  191.6370  177.9600  145.5120 O   0  0  0  0  0  0  0  0  0  0  0  0
  192.0710  175.3800  145.7420 O   0  0  0  0  0  1  0  0  0  0  0  0
  186.5430  178.2250  143.0710 C   0  0  0  0  0  2  0  0  0  0  0  0
  187.2760  178.9960  141.5910 S   0  0  0  0  0  0  0  0  0  0  0  0
  188.6740  177.8530  141.2240 C   0  0  2  0  0  3  0  0  0  0  0  0
  188.3960  177.1460  139.9860 N   0  0  0  0  0  2  0  0  0  0  0  0
  190.1110  178.2420  138.8530 O   0  0  0  0  0  0  0  0  0  0  0  0
  189.3860  177.1990  138.9460 C   0  0  0  0  0  0  0  0  0  0  0  0
  189.3130  176.2410  137.8030 C   0  0  0  0  0  2  0  0  0  0  0  0
  190.6440  176.2670  137.0350 C   0  0  0  0  0  2  0  0  0  0  0  0
  194.6220  175.8910  135.8800 C   0  0  0  0  0  2  0  0  0  0  0  0
  195.1650  173.3960  135.2820 C   0  0  0  0  0  1  0  0  0  0  0  0
  195.0080  174.1470  138.3570 C   0  0  0  0  0  1  0  0  0  0  0  0
  191.1080  174.0750  137.8470 O   0  0  0  0  0  0  0  0  0  0  0  0
  194.2120  174.4240  135.9230 C   0  0  1  0  0  3  0  0  0  0  0  0
  192.9990  175.4240  137.6030 N   0  0  0  0  0  0  0  0  0  0  0  0
  191.5790  175.2180  137.5530 C   0  0  0  0  0  0  0  0  0  0  0  0
  193.6200  176.5400  136.8410 C   0  0  0  0  0  2  0  0  0  0  0  0
  193.8150  174.2380  137.3740 C   0  0  2  0  0  3  0  0  0  0  0  0
  190.3360  176.6640  142.5700 N   0  0  0  0  0  1  0  0  0  0  0  0
  188.8950  176.8410  142.3590 C   0  0  0  0  0  2  0  0  0  0  0  0
  1  2  1  0  0  0  0
  1 11  1  0  0  0  0
  2  6  1  0  0  0  0
  3  4  1  1  0  0  0
  3  8  1  0  0  0  0
  5 10  1  0  0  0  0
  6  5  2  0  0  0  0
  6  3  1  0  0  0  0
  7  4  2  0  0  0  0
  8  9  1  0  0  0  0
  9 17  1  0  0  0  0
 10 30  1  0  0  0  0
 10  9  2  0  0  0  0
 11 12  1  6  0  0  0
 11  7  1  0  0  0  0
 12 13  2  0  0  0  0
 14 12  1  0  0  0  0
 16 15  1  0  0  0  0
 16 14  1  0  0  0  0
 17 18  1  0  0  0  0
 18 21  1  0  0  0  0
 18 19  1  1  0  0  0
 21 20  1  6  0  0  0
 21 23  1  0  0  0  0
 23 22  2  0  0  0  0
 24 23  1  0  0  0  0
 25 27  1  0  0  0  0
 25 24  1  0  0  0  0
 27 26  1  0  0  0  0
 28 27  2  0  0  0  0
 29 27  1  0  0  0  0
 31 30  1  0  0  0  0
 32 31  1  0  0  0  0
 32 48  1  1  0  0  0
 33 32  1  0  0  0  0
 34 35  2  0  0  0  0
 35 33  1  0  0  0  0
 36 35  1  0  0  0  0
 37 44  1  0  0  0  0
 37 36  1  0  0  0  0
 38 42  1  0  0  0  0
 38 45  1  0  0  0  0
 42 39  1  1  0  0  0
 42 46  1  0  0  0  0
 44 43  1  0  0  0  0
 44 41  2  0  0  0  0
 45 43  1  0  0  0  0
 46 43  1  0  0  0  0
 46 40  1  1  0  0  0
 48 47  1  0  0  0  0
M  END
>  <MODEL>
8

>  <REMARK>
 VINA RESULT:      -5.8      2.620      4.918
  Name = 
  18 active torsions:
  status: ('A' for Active; 'I' for Inactive)
    1  A    between atoms: C_4  and  C_27
    2  A    between atoms: C_4  and  C_45
    3  A    between atoms: S_9  and  C_44
    4  A    between atoms: S_9  and  C_47
    5  A    between atoms: N_10  and  C_47
    6  A    between atoms: C_11  and  O_23
    7  A    between atoms: C_11  and  C_46
    8  A    between atoms: C_12  and  N_22
    9  A    between atoms: C_12  and  C_27
   10  A    between atoms: C_17  and  O_23
   11  A    between atoms: N_22  and  C_39
   12  A    between atoms: C_28  and  C_29
   13  A    between atoms: C_28  and  C_41
   14  A    between atoms: O_30  and  P_34
   15  A    between atoms: O_30  and  C_45
   16  A    between atoms: C_33  and  C_41
   17  A    between atoms: C_43  and  C_44
   18  A    between atoms: C_47  and  C_48
                            x       y       z     vdW  Elec       q    Type
                         _______ _______ _______ _____ _____    ______ ____

>  <TORSDO>
F 18

$$$$
=
 OpenBabel10222420513D

 48 50  0  0  1  0  0  0  0  0999 V2000
  188.0060  177.5110  145.0560 N   0  0  0  0  0  2  0  0  0  0  0  0
  187.4530  177.9840  143.8180 C   0  0  0  0  0  2  0  0  0  0  0  0
  185.2900  178.6100  144.9050 C   0  0  2  0  0  3  0  0  0  0  0  0
  185.8680  179.4170  145.9870 C   0  0  0  0  0  3  0  0  0  0  0  0
  185.4840  178.2830  142.3970 C   0  0  0  0  0  3  0  0  0  0  0  0
  186.1830  178.4300  143.7020 C   0  0  0  0  0  0  0  0  0  0  0  0
  186.9090  178.9810  146.6650 C   0  0  0  0  0  3  0  0  0  0  0  0
  183.8950  179.0190  144.5970 C   0  0  0  0  0  2  0  0  0  0  0  0
  183.2880  178.7270  143.4690 C   0  0  0  0  0  0  0  0  0  0  0  0
  184.1360  178.4400  142.2360 C   0  0  0  0  0  0  0  0  0  0  0  0
  187.6490  177.7660  146.3110 C   0  0  2  0  0  3  0  0  0  0  0  0
  188.0620  176.8810  147.4070 C   0  0  0  0  0  0  0  0  0  0  0  0
  187.2880  176.6730  148.3840 O   0  0  0  0  0  0  0  0  0  0  0  0
  189.3110  176.2240  147.3910 O   0  0  0  0  0  0  0  0  0  0  0  0
  191.7120  176.0030  147.2860 C   0  0  0  0  0  1  0  0  0  0  0  0
  190.5320  176.9500  147.2710 C   0  0  0  0  0  2  0  0  0  0  0  0
  181.8450  179.0300  143.5010 N   0  0  0  0  0  2  0  0  0  0  0  0
  180.6010  178.3020  143.1580 C   0  0  1  0  0  3  0  0  0  0  0  0
  179.9120  177.6360  144.3700 C   0  0  0  0  0  1  0  0  0  0  0  0
  180.0780  180.5720  142.4770 O   0  0  0  0  0  1  0  0  0  0  0  0
  179.6070  179.2530  142.4450 C   0  0  1  0  0  3  0  0  0  0  0  0
  179.6760  177.6530  140.6470 O   0  0  0  0  0  0  0  0  0  0  0  0
  179.4130  178.7990  141.0230 C   0  0  0  0  0  0  0  0  0  0  0  0
  178.9310  179.7900  140.0010 C   0  0  0  0  0  2  0  0  0  0  0  0
  179.7790  179.7710  138.8810 O   0  0  0  0  0  0  0  0  0  0  0  0
  179.0620  182.4580  139.4580 O   0  0  0  0  0  1  0  0  0  0  0  0
  179.9480  181.4130  138.4300 P   0  0  0  0  0  0  0  0  0  0  0  0
  179.4020  181.5630  137.0180 O   0  0  0  0  0  0  0  0  0  0  0  0
  181.5910  181.8760  138.4340 O   0  0  0  0  0  1  0  0  0  0  0  0
  183.4880  178.1180  140.9180 C   0  0  0  0  0  2  0  0  0  0  0  0
  184.1820  179.1650  139.5970 S   0  0  0  0  0  0  0  0  0  0  0  0
  185.3030  177.9860  138.7320 C   0  0  2  0  0  3  0  0  0  0  0  0
  186.5440  178.6660  138.4020 N   0  0  0  0  0  2  0  0  0  0  0  0
  187.7060  177.6010  140.1170 O   0  0  0  0  0  0  0  0  0  0  0  0
  187.7600  178.1590  138.9730 C   0  0  0  0  0  0  0  0  0  0  0  0
  189.0780  178.5960  138.4210 C   0  0  0  0  0  2  0  0  0  0  0  0
  189.0900  178.3740  136.9010 C   0  0  0  0  0  2  0  0  0  0  0  0
  186.9340  174.9900  135.8050 C   0  0  0  0  0  2  0  0  0  0  0  0
  187.7690  172.9020  137.1530 C   0  0  0  0  0  1  0  0  0  0  0  0
  189.5590  173.8660  134.7220 C   0  0  0  0  0  1  0  0  0  0  0  0
  190.7730  176.7070  137.1580 O   0  0  0  0  0  0  0  0  0  0  0  0
  187.9890  174.3600  136.7040 C   0  0  1  0  0  3  0  0  0  0  0  0
  189.0620  176.1180  135.6800 N   0  0  0  0  0  0  0  0  0  0  0  0
  189.7060  177.0520  136.5590 C   0  0  0  0  0  0  0  0  0  0  0  0
  187.6230  176.2780  135.3420 C   0  0  0  0  0  2  0  0  0  0  0  0
  189.2800  174.7110  135.9900 C   0  0  2  0  0  3  0  0  0  0  0  0
  183.4120  176.7460  137.7980 N   0  0  0  0  0  1  0  0  0  0  0  0
  184.6640  177.4270  137.4510 C   0  0  0  0  0  2  0  0  0  0  0  0
  1 11  1  0  0  0  0
  2  1  1  0  0  0  0
  3  8  1  6  0  0  0
  3  4  1  0  0  0  0
  4  7  2  0  0  0  0
  5  6  2  0  0  0  0
  6  2  1  0  0  0  0
  6  3  1  0  0  0  0
  9 17  1  0  0  0  0
  9  8  1  0  0  0  0
 10  5  1  0  0  0  0
 10  9  2  0  0  0  0
 11  7  1  0  0  0  0
 11 12  1  1  0  0  0
 12 13  2  0  0  0  0
 14 12  1  0  0  0  0
 16 15  1  0  0  0  0
 16 14  1  0  0  0  0
 18 17  1  0  0  0  0
 18 19  1  1  0  0  0
 21 20  1  6  0  0  0
 21 18  1  0  0  0  0
 22 23  2  0  0  0  0
 23 21  1  0  0  0  0
 24 23  1  0  0  0  0
 25 24  1  0  0  0  0
 27 29  1  0  0  0  0
 27 25  1  0  0  0  0
 27 26  1  0  0  0  0
 28 27  2  0  0  0  0
 30 10  1  0  0  0  0
 31 30  1  0  0  0  0
 32 48  1  6  0  0  0
 32 31  1  0  0  0  0
 33 32  1  0  0  0  0
 33 35  1  0  0  0  0
 35 34  2  0  0  0  0
 36 35  1  0  0  0  0
 37 36  1  0  0  0  0
 38 42  1  0  0  0  0
 42 39  1  6  0  0  0
 43 46  1  0  0  0  0
 43 44  1  0  0  0  0
 44 37  1  0  0  0  0
 44 41  2  0  0  0  0
 45 43  1  0  0  0  0
 45 38  1  0  0  0  0
 46 40  1  6  0  0  0
 46 42  1  0  0  0  0
 48 47  1  0  0  0  0
M  END
>  <MODEL>
9

>  <REMARK>
 VINA RESULT:      -5.8      3.277      8.337
  Name = 
  18 active torsions:
  status: ('A' for Active; 'I' for Inactive)
    1  A    between atoms: C_4  and  C_27
    2  A    between atoms: C_4  and  C_45
    3  A    between atoms: S_9  and  C_44
    4  A    between atoms: S_9  and  C_47
    5  A    between atoms: N_10  and  C_47
    6  A    between atoms: C_11  and  O_23
    7  A    between atoms: C_11  and  C_46
    8  A    between atoms: C_12  and  N_22
    9  A    between atoms: C_12  and  C_27
   10  A    between atoms: C_17  and  O_23
   11  A    between atoms: N_22  and  C_39
   12  A    between atoms: C_28  and  C_29
   13  A    between atoms: C_28  and  C_41
   14  A    between atoms: O_30  and  P_34
   15  A    between atoms: O_30  and  C_45
   16  A    between atoms: C_33  and  C_41
   17  A    between atoms: C_43  and  C_44
   18  A    between atoms: C_47  and  C_48
                            x       y       z     vdW  Elec       q    Type
                         _______ _______ _______ _____ _____    ______ ____

>  <TORSDO>
F 18

$$$$
