=
 OpenBabel10222419333D

 26 29  0  0  1  0  0  0  0  0999 V2000
  190.1970  176.1320  138.4420 C   0  0  0  0  0  3  0  0  0  0  0  0
  190.0050  177.3360  145.3150 C   0  0  0  0  0  0  0  0  0  0  0  0
  190.2090  177.0180  142.1690 C   0  0  2  0  0  3  0  0  0  0  0  0
  190.9270  179.7020  144.1500 O   0  0  0  0  0  1  0  0  0  0  0  0
  190.5250  176.2170  139.8780 C   0  0  0  0  0  3  0  0  0  0  0  0
  189.7920  176.9500  140.7260 C   0  0  0  0  0  0  0  0  0  0  0  0
  188.2060  178.5030  142.5700 C   0  0  1  0  0  3  0  0  0  0  0  0
  187.0410  178.4980  143.5360 C   0  0  0  0  0  2  0  0  0  0  0  0
  188.6010  177.7270  140.2300 C   0  0  0  0  0  0  0  0  0  0  0  0
  188.7930  177.0340  144.4590 C   0  0  1  0  0  3  0  0  0  0  0  0
  187.6120  177.9300  144.8380 C   0  0  2  0  0  3  0  0  0  0  0  0
  187.3390  178.2480  138.2490 O   0  0  0  0  0  0  0  0  0  0  0  0
  191.5920  178.5380  143.7580 C   0  0  2  0  0  3  0  0  0  0  0  0
  188.9290  177.2430  142.9580 C   0  0  2  0  0  3  0  0  0  0  0  0
  191.2220  178.1620  142.3240 C   0  0  0  0  0  2  0  0  0  0  0  0
  188.3060  177.6340  138.7740 C   0  0  0  0  0  0  0  0  0  0  0  0
  187.8430  178.4620  141.0910 C   0  0  0  0  0  0  0  0  0  0  0  0
  189.1620  176.7940  137.9240 C   0  0  0  0  0  3  0  0  0  0  0  0
  191.4020  177.4090  144.7680 C   0  0  0  0  0  2  0  0  0  0  0  0
  189.8600  177.4580  146.5210 O   0  0  0  0  0  0  0  0  0  0  0  0
  185.4150  178.9150  140.7830 C   0  0  0  0  0  1  0  0  0  0  0  0
  186.7840  179.2340  140.5890 O   0  0  0  0  0  0  0  0  0  0  0  0
  186.5590  177.1210  145.5780 C   0  0  0  0  0  2  0  0  0  0  0  0
  186.0040  177.8980  146.7210 C   0  0  0  0  0  0  0  0  0  0  0  0
  186.7480  178.2170  147.6860 O   0  0  0  0  0  1  0  0  0  0  0  0
  184.6760  178.3020  146.7090 O   0  0  0  0  0  0  0  0  0  0  0  0
  1  5  1  0  0  0  0
  2 20  2  0  0  0  0
  3 15  1  6  0  0  0
  3 14  1  0  0  0  0
  5  6  2  0  0  0  0
  6  3  1  0  0  0  0
  7 14  1  0  0  0  0
  7  8  1  1  0  0  0
  8 11  1  0  0  0  0
  9  6  1  0  0  0  0
  9 17  2  0  0  0  0
 10 11  1  0  0  0  0
 10  2  1  1  0  0  0
 11 23  1  6  0  0  0
 12 16  2  0  0  0  0
 13  4  1  1  0  0  0
 13 19  1  0  0  0  0
 14 10  1  0  0  0  0
 15 13  1  0  0  0  0
 16  9  1  0  0  0  0
 17  7  1  0  0  0  0
 18  1  2  0  0  0  0
 18 16  1  0  0  0  0
 19  2  1  0  0  0  0
 22 21  1  0  0  0  0
 22 17  1  0  0  0  0
 23 24  1  0  0  0  0
 24 25  1  0  0  0  0
 26 24  2  0  0  0  0
M  END
>  <MODEL>
1

>  <REMARK>
 VINA RESULT:      -8.0      0.000      0.000
  Name = 
  3 active torsions:
  status: ('A' for Active; 'I' for Inactive)
    1  A    between atoms: C_3  and  C_22
    2  A    between atoms: O_9  and  C_23
    3  A    between atoms: C_14  and  C_22
                            x       y       z     vdW  Elec       q    Type
                         _______ _______ _______ _____ _____    ______ ____

>  <TORSDO>
F 3

$$$$
=
 OpenBabel10222419333D

 26 29  0  0  1  0  0  0  0  0999 V2000
  189.0080  178.5110  148.4820 C   0  0  0  0  0  3  0  0  0  0  0  0
  191.1650  177.2560  141.9630 C   0  0  0  0  0  0  0  0  0  0  0  0
  190.1670  177.5710  144.9540 C   0  0  2  0  0  3  0  0  0  0  0  0
  190.3710  174.7850  142.9940 O   0  0  0  0  0  1  0  0  0  0  0  0
  189.8250  178.2230  147.2870 C   0  0  0  0  0  3  0  0  0  0  0  0
  189.2680  177.8850  146.1180 C   0  0  0  0  0  0  0  0  0  0  0  0
  188.0820  177.1830  143.5820 C   0  0  1  0  0  3  0  0  0  0  0  0
  187.5560  177.6940  142.2580 C   0  0  0  0  0  2  0  0  0  0  0  0
  187.7720  177.7790  145.9870 C   0  0  0  0  0  0  0  0  0  0  0  0
  189.9810  178.1270  142.3260 C   0  0  1  0  0  3  0  0  0  0  0  0
  188.8000  177.8740  141.3840 C   0  0  2  0  0  3  0  0  0  0  0  0
  185.7180  177.9920  147.2220 O   0  0  0  0  0  0  0  0  0  0  0  0
  191.2530  175.5160  143.7930 C   0  0  2  0  0  3  0  0  0  0  0  0
  189.3750  177.9400  143.7100 C   0  0  2  0  0  3  0  0  0  0  0  0
  190.5310  176.0810  145.0160 C   0  0  0  0  0  2  0  0  0  0  0  0
  186.9750  178.0590  147.2140 C   0  0  0  0  0  0  0  0  0  0  0  0
  187.2000  177.4500  144.7950 C   0  0  0  0  0  0  0  0  0  0  0  0
  187.6770  178.4330  148.4500 C   0  0  0  0  0  3  0  0  0  0  0  0
  192.0190  176.5600  142.9840 C   0  0  0  0  0  2  0  0  0  0  0  0
  191.4940  177.1670  140.7910 O   0  0  0  0  0  0  0  0  0  0  0  0
  184.9310  178.2410  144.1440 C   0  0  0  0  0  1  0  0  0  0  0  0
  185.8080  177.2860  144.7220 O   0  0  0  0  0  0  0  0  0  0  0  0
  188.6260  179.0520  140.4390 C   0  0  0  0  0  2  0  0  0  0  0  0
  188.7840  178.6170  139.0220 C   0  0  0  0  0  0  0  0  0  0  0  0
  189.0040  179.4700  138.1230 O   0  0  0  0  0  0  0  0  0  0  0  0
  188.7230  177.2690  138.6980 O   0  0  0  0  0  1  0  0  0  0  0  0
  2 19  1  0  0  0  0
  3 15  1  6  0  0  0
  3  6  1  0  0  0  0
  5  1  1  0  0  0  0
  6  5  2  0  0  0  0
  7  8  1  6  0  0  0
  7 14  1  0  0  0  0
  7 17  1  0  0  0  0
  9  6  1  0  0  0  0
  9 16  1  0  0  0  0
 10  2  1  6  0  0  0
 10 14  1  0  0  0  0
 11 23  1  6  0  0  0
 11  8  1  0  0  0  0
 11 10  1  0  0  0  0
 13  4  1  6  0  0  0
 13 15  1  0  0  0  0
 14  3  1  0  0  0  0
 16 12  2  0  0  0  0
 16 18  1  0  0  0  0
 17  9  2  0  0  0  0
 18  1  2  0  0  0  0
 19 13  1  0  0  0  0
 20  2  2  0  0  0  0
 21 22  1  0  0  0  0
 22 17  1  0  0  0  0
 24 23  1  0  0  0  0
 25 24  2  0  0  0  0
 26 24  1  0  0  0  0
M  END
>  <MODEL>
2

>  <REMARK>
 VINA RESULT:      -7.8      2.014      6.104
  Name = 
  3 active torsions:
  status: ('A' for Active; 'I' for Inactive)
    1  A    between atoms: C_3  and  C_22
    2  A    between atoms: O_9  and  C_23
    3  A    between atoms: C_14  and  C_22
                            x       y       z     vdW  Elec       q    Type
                         _______ _______ _______ _____ _____    ______ ____

>  <TORSDO>
F 3

$$$$
=
 OpenBabel10222419333D

 26 29  0  0  1  0  0  0  0  0999 V2000
  189.6540  175.9300  143.5950 C   0  0  0  0  0  3  0  0  0  0  0  0
  183.2170  178.6280  143.6620 C   0  0  0  0  0  0  0  0  0  0  0  0
  186.2250  177.6320  143.7130 C   0  0  2  0  0  3  0  0  0  0  0  0
  184.9450  180.7620  144.1740 O   0  0  0  0  0  1  0  0  0  0  0  0
  188.3070  176.3780  143.9950 C   0  0  0  0  0  3  0  0  0  0  0  0
  187.5750  177.1900  143.2220 C   0  0  0  0  0  0  0  0  0  0  0  0
  185.9750  178.9170  141.5530 C   0  0  1  0  0  3  0  0  0  0  0  0
  184.9290  178.9900  140.4610 C   0  0  0  0  0  2  0  0  0  0  0  0
  188.1170  177.6840  141.9070 C   0  0  0  0  0  0  0  0  0  0  0  0
  183.8740  177.9960  142.4530 C   0  0  1  0  0  3  0  0  0  0  0  0
  183.5920  178.8050  141.1840 C   0  0  2  0  0  3  0  0  0  0  0  0
  190.0420  177.5860  140.4660 O   0  0  0  0  0  0  0  0  0  0  0  0
  185.1340  179.6290  144.9680 C   0  0  2  0  0  3  0  0  0  0  0  0
  185.3910  177.8740  142.4650 C   0  0  2  0  0  3  0  0  0  0  0  0
  186.4140  178.8950  144.5660 C   0  0  0  0  0  2  0  0  0  0  0  0
  189.4860  177.2290  141.5380 C   0  0  0  0  0  0  0  0  0  0  0  0
  187.3710  178.4980  141.1090 C   0  0  0  0  0  0  0  0  0  0  0  0
  190.2080  176.3280  142.4490 C   0  0  0  0  0  3  0  0  0  0  0  0
  183.8910  178.7430  144.9990 C   0  0  0  0  0  2  0  0  0  0  0  0
  182.0590  179.0020  143.5750 O   0  0  0  0  0  0  0  0  0  0  0  0
  187.7450  178.4080  138.6490 C   0  0  0  0  0  1  0  0  0  0  0  0
  187.9300  179.0030  139.9250 O   0  0  0  0  0  0  0  0  0  0  0  0
  182.6020  178.0630  140.3000 C   0  0  0  0  0  2  0  0  0  0  0  0
  181.3340  178.8340  140.1680 C   0  0  0  0  0  0  0  0  0  0  0  0
  180.2900  178.4320  140.7450 O   0  0  0  0  0  1  0  0  0  0  0  0
  181.3110  180.0140  139.4380 O   0  0  0  0  0  0  0  0  0  0  0  0
  1  5  1  0  0  0  0
  2 19  1  0  0  0  0
  3 15  1  6  0  0  0
  6  3  1  0  0  0  0
  6  5  2  0  0  0  0
  7  8  1  6  0  0  0
  7 14  1  0  0  0  0
  8 11  1  0  0  0  0
  9  6  1  0  0  0  0
 10 14  1  0  0  0  0
 10  2  1  1  0  0  0
 11 23  1  6  0  0  0
 11 10  1  0  0  0  0
 12 16  2  0  0  0  0
 13  4  1  6  0  0  0
 13 19  1  0  0  0  0
 14  3  1  0  0  0  0
 15 13  1  0  0  0  0
 16  9  1  0  0  0  0
 16 18  1  0  0  0  0
 17  7  1  0  0  0  0
 17  9  2  0  0  0  0
 18  1  2  0  0  0  0
 20  2  2  0  0  0  0
 21 22  1  0  0  0  0
 22 17  1  0  0  0  0
 24 23  1  0  0  0  0
 24 25  1  0  0  0  0
 26 24  2  0  0  0  0
M  END
>  <MODEL>
3

>  <REMARK>
 VINA RESULT:      -6.6      2.772      5.506
  Name = 
  3 active torsions:
  status: ('A' for Active; 'I' for Inactive)
    1  A    between atoms: C_3  and  C_22
    2  A    between atoms: O_9  and  C_23
    3  A    between atoms: C_14  and  C_22
                            x       y       z     vdW  Elec       q    Type
                         _______ _______ _______ _____ _____    ______ ____

>  <TORSDO>
F 3

$$$$
=
 OpenBabel10222419333D

 26 29  0  0  1  0  0  0  0  0999 V2000
  186.0400  178.1400  143.5570 C   0  0  0  0  0  3  0  0  0  0  0  0
  182.1900  178.8380  137.7770 C   0  0  0  0  0  0  0  0  0  0  0  0
  183.8330  178.2870  140.4300 C   0  0  2  0  0  3  0  0  0  0  0  0
  181.3330  176.4690  138.9840 O   0  0  0  0  0  1  0  0  0  0  0  0
  185.5460  178.1040  142.1670 C   0  0  0  0  0  3  0  0  0  0  0  0
  184.2710  178.3800  141.8650 C   0  0  0  0  0  0  0  0  0  0  0  0
  181.5340  179.0010  141.1940 C   0  0  1  0  0  3  0  0  0  0  0  0
  180.5540  180.0820  140.7910 C   0  0  0  0  0  2  0  0  0  0  0  0
  183.2880  178.7320  142.9500 C   0  0  0  0  0  0  0  0  0  0  0  0
  182.1650  179.7960  138.9490 C   0  0  1  0  0  3  0  0  0  0  0  0
  180.7350  180.2310  139.2770 C   0  0  2  0  0  3  0  0  0  0  0  0
  183.0780  179.0170  145.3300 O   0  0  0  0  0  0  0  0  0  0  0  0
  182.7130  176.5920  138.8100 C   0  0  2  0  0  3  0  0  0  0  0  0
  182.6940  179.2840  140.2810 C   0  0  2  0  0  3  0  0  0  0  0  0
  183.4070  176.8390  140.1490 C   0  0  0  0  0  2  0  0  0  0  0  0
  183.8120  178.7450  144.3440 C   0  0  0  0  0  0  0  0  0  0  0  0
  181.9940  179.0290  142.6460 C   0  0  0  0  0  0  0  0  0  0  0  0
  185.2320  178.4370  144.5760 C   0  0  0  0  0  3  0  0  0  0  0  0
  183.0610  177.6150  137.7310 C   0  0  0  0  0  2  0  0  0  0  0  0
  181.5260  179.1010  136.7870 O   0  0  0  0  0  0  0  0  0  0  0  0
  179.9800  178.4400  143.9850 C   0  0  0  0  0  1  0  0  0  0  0  0
  181.0830  179.2810  143.6840 O   0  0  0  0  0  0  0  0  0  0  0  0
  180.5170  181.6740  138.8510 C   0  0  0  0  0  2  0  0  0  0  0  0
  179.4560  181.7600  137.8080 C   0  0  0  0  0  0  0  0  0  0  0  0
  178.9310  180.7100  137.3560 O   0  0  0  0  0  0  0  0  0  0  0  0
  179.0220  183.0000  137.3590 O   0  0  0  0  0  1  0  0  0  0  0  0
  1 18  2  0  0  0  0
  3 15  1  1  0  0  0
  3  6  1  0  0  0  0
  5  1  1  0  0  0  0
  6  5  2  0  0  0  0
  6  9  1  0  0  0  0
  7  8  1  1  0  0  0
  7 17  1  0  0  0  0
  9 16  1  0  0  0  0
 10  2  1  6  0  0  0
 10 11  1  0  0  0  0
 10 14  1  0  0  0  0
 11 23  1  1  0  0  0
 11  8  1  0  0  0  0
 13  4  1  1  0  0  0
 13 15  1  0  0  0  0
 14  3  1  0  0  0  0
 14  7  1  0  0  0  0
 16 18  1  0  0  0  0
 16 12  2  0  0  0  0
 17  9  2  0  0  0  0
 17 22  1  0  0  0  0
 19  2  1  0  0  0  0
 19 13  1  0  0  0  0
 20  2  2  0  0  0  0
 22 21  1  0  0  0  0
 24 23  1  0  0  0  0
 25 24  2  0  0  0  0
 26 24  1  0  0  0  0
M  END
>  <MODEL>
4

>  <REMARK>
 VINA RESULT:      -6.3      4.767      8.943
  Name = 
  3 active torsions:
  status: ('A' for Active; 'I' for Inactive)
    1  A    between atoms: C_3  and  C_22
    2  A    between atoms: O_9  and  C_23
    3  A    between atoms: C_14  and  C_22
                            x       y       z     vdW  Elec       q    Type
                         _______ _______ _______ _____ _____    ______ ____

>  <TORSDO>
F 3

$$$$
=
 OpenBabel10222419333D

 26 29  0  0  1  0  0  0  0  0999 V2000
  190.4840  178.3190  148.2930 C   0  0  0  0  0  3  0  0  0  0  0  0
  189.2770  177.5240  141.4640 C   0  0  0  0  0  0  0  0  0  0  0  0
  189.8190  177.6280  144.5850 C   0  0  2  0  0  3  0  0  0  0  0  0
  189.0290  174.9780  142.5850 O   0  0  0  0  0  1  0  0  0  0  0  0
  190.6330  178.1230  146.8380 C   0  0  0  0  0  3  0  0  0  0  0  0
  189.5840  177.8510  146.0520 C   0  0  0  0  0  0  0  0  0  0  0  0
  187.3280  177.2930  144.3410 C   0  0  1  0  0  3  0  0  0  0  0  0
  186.2450  177.8780  143.4610 C   0  0  0  0  0  2  0  0  0  0  0  0
  188.2030  177.7260  146.6390 C   0  0  0  0  0  0  0  0  0  0  0  0
  188.4180  178.3480  142.4000 C   0  0  1  0  0  3  0  0  0  0  0  0
  186.9290  178.1360  142.1150 C   0  0  2  0  0  3  0  0  0  0  0  0
  186.9820  177.8240  148.7110 O   0  0  0  0  0  0  0  0  0  0  0  0
  190.1940  175.6710  142.9160 C   0  0  2  0  0  3  0  0  0  0  0  0
  188.5380  178.0620  143.8910 C   0  0  2  0  0  3  0  0  0  0  0  0
  190.1470  176.1430  144.3690 C   0  0  0  0  0  2  0  0  0  0  0  0
  188.0860  177.9130  148.1120 C   0  0  0  0  0  0  0  0  0  0  0  0
  187.1290  177.4650  145.8420 C   0  0  0  0  0  0  0  0  0  0  0  0
  189.2960  178.2200  148.8900 C   0  0  0  0  0  3  0  0  0  0  0  0
  190.5020  176.7790  141.9110 C   0  0  0  0  0  2  0  0  0  0  0  0
  189.0100  177.5170  140.2730 O   0  0  0  0  0  0  0  0  0  0  0  0
  184.8660  178.2880  146.4730 C   0  0  0  0  0  1  0  0  0  0  0  0
  185.8660  177.2820  146.4260 O   0  0  0  0  0  0  0  0  0  0  0  0
  186.3460  179.3690  141.4440 C   0  0  0  0  0  2  0  0  0  0  0  0
  185.3040  178.9840  140.4510 C   0  0  0  0  0  0  0  0  0  0  0  0
  184.0960  178.9160  140.8000 O   0  0  0  0  0  1  0  0  0  0  0  0
  185.6580  178.7340  139.1330 O   0  0  0  0  0  0  0  0  0  0  0  0
  1 18  2  0  0  0  0
  2 19  1  0  0  0  0
  3 15  1  1  0  0  0
  3  6  1  0  0  0  0
  5  1  1  0  0  0  0
  6  9  1  0  0  0  0
  6  5  2  0  0  0  0
  7  8  1  6  0  0  0
  7 17  1  0  0  0  0
  9 16  1  0  0  0  0
 10  2  1  6  0  0  0
 10 14  1  0  0  0  0
 11 23  1  1  0  0  0
 11 10  1  0  0  0  0
 11  8  1  0  0  0  0
 13  4  1  6  0  0  0
 13 15  1  0  0  0  0
 14  7  1  0  0  0  0
 14  3  1  0  0  0  0
 16 12  2  0  0  0  0
 16 18  1  0  0  0  0
 17 22  1  0  0  0  0
 17  9  2  0  0  0  0
 19 13  1  0  0  0  0
 20  2  2  0  0  0  0
 22 21  1  0  0  0  0
 24 25  1  0  0  0  0
 24 23  1  0  0  0  0
 26 24  2  0  0  0  0
M  END
>  <MODEL>
5

>  <REMARK>
 VINA RESULT:      -6.2      2.044      6.070
  Name = 
  3 active torsions:
  status: ('A' for Active; 'I' for Inactive)
    1  A    between atoms: C_3  and  C_22
    2  A    between atoms: O_9  and  C_23
    3  A    between atoms: C_14  and  C_22
                            x       y       z     vdW  Elec       q    Type
                         _______ _______ _______ _____ _____    ______ ____

>  <TORSDO>
F 3

$$$$
=
 OpenBabel10222419333D

 26 29  0  0  1  0  0  0  0  0999 V2000
  191.4550  175.3990  137.8220 C   0  0  0  0  0  3  0  0  0  0  0  0
  189.4810  177.3900  144.2140 C   0  0  0  0  0  0  0  0  0  0  0  0
  190.5190  176.7010  141.3000 C   0  0  2  0  0  3  0  0  0  0  0  0
  190.9260  179.5350  143.1580 O   0  0  0  0  0  1  0  0  0  0  0  0
  191.3760  175.6240  139.2780 C   0  0  0  0  0  3  0  0  0  0  0  0
  190.5160  176.5000  139.8110 C   0  0  0  0  0  0  0  0  0  0  0  0
  188.6450  178.3630  140.9760 C   0  0  1  0  0  3  0  0  0  0  0  0
  187.2630  178.5530  141.5620 C   0  0  0  0  0  2  0  0  0  0  0  0
  189.5950  177.2990  138.9270 C   0  0  0  0  0  0  0  0  0  0  0  0
  188.5310  177.0800  143.0770 C   0  0  1  0  0  3  0  0  0  0  0  0
  187.3880  178.0970  143.0190 C   0  0  2  0  0  3  0  0  0  0  0  0
  188.9930  177.6800  136.6280 O   0  0  0  0  0  0  0  0  0  0  0  0
  191.5520  178.2890  143.0780 C   0  0  2  0  0  3  0  0  0  0  0  0
  189.0990  177.1070  141.6650 C   0  0  2  0  0  3  0  0  0  0  0  0
  191.5590  177.7790  141.6380 C   0  0  0  0  0  2  0  0  0  0  0  0
  189.7080  177.0620  137.4610 C   0  0  0  0  0  0  0  0  0  0  0  0
  188.7060  178.1800  139.4650 C   0  0  0  0  0  0  0  0  0  0  0  0
  190.6780  176.0710  136.9710 C   0  0  0  0  0  3  0  0  0  0  0  0
  190.9750  177.2990  144.0870 C   0  0  0  0  0  2  0  0  0  0  0  0
  189.0190  177.6590  145.3110 O   0  0  0  0  0  0  0  0  0  0  0  0
  186.5660  178.6570  138.2850 C   0  0  0  0  0  1  0  0  0  0  0  0
  187.9130  178.9640  138.6130 O   0  0  0  0  0  0  0  0  0  0  0  0
  186.0940  177.4550  143.4940 C   0  0  0  0  0  2  0  0  0  0  0  0
  185.1170  178.4950  143.9230 C   0  0  0  0  0  0  0  0  0  0  0  0
  184.1450  178.7900  143.1800 O   0  0  0  0  0  0  0  0  0  0  0  0
  185.2580  179.1150  145.1570 O   0  0  0  0  0  1  0  0  0  0  0  0
  1  5  1  0  0  0  0
  2 20  2  0  0  0  0
  3 15  1  6  0  0  0
  3 14  1  0  0  0  0
  5  6  2  0  0  0  0
  6  3  1  0  0  0  0
  7  8  1  1  0  0  0
  7 14  1  0  0  0  0
  8 11  1  0  0  0  0
  9 17  2  0  0  0  0
  9  6  1  0  0  0  0
 10  2  1  1  0  0  0
 11 10  1  0  0  0  0
 11 23  1  6  0  0  0
 12 16  2  0  0  0  0
 13  4  1  6  0  0  0
 13 19  1  0  0  0  0
 14 10  1  0  0  0  0
 15 13  1  0  0  0  0
 16  9  1  0  0  0  0
 17  7  1  0  0  0  0
 18 16  1  0  0  0  0
 18  1  2  0  0  0  0
 19  2  1  0  0  0  0
 21 22  1  0  0  0  0
 22 17  1  0  0  0  0
 23 24  1  0  0  0  0
 24 26  1  0  0  0  0
 25 24  2  0  0  0  0
M  END
>  <MODEL>
6

>  <REMARK>
 VINA RESULT:      -6.1      1.469      2.000
  Name = 
  3 active torsions:
  status: ('A' for Active; 'I' for Inactive)
    1  A    between atoms: C_3  and  C_22
    2  A    between atoms: O_9  and  C_23
    3  A    between atoms: C_14  and  C_22
                            x       y       z     vdW  Elec       q    Type
                         _______ _______ _______ _____ _____    ______ ____

>  <TORSDO>
F 3

$$$$
=
 OpenBabel10222419333D

 26 29  0  0  1  0  0  0  0  0999 V2000
  184.1090  177.8780  142.6410 C   0  0  0  0  0  3  0  0  0  0  0  0
  190.9080  176.6670  143.6610 C   0  0  0  0  0  0  0  0  0  0  0  0
  187.8840  177.4600  143.1420 C   0  0  2  0  0  3  0  0  0  0  0  0
  190.6710  179.4240  143.2820 O   0  0  0  0  0  1  0  0  0  0  0  0
  185.5370  177.5510  142.4580 C   0  0  0  0  0  3  0  0  0  0  0  0
  186.4420  177.7860  143.4150 C   0  0  0  0  0  0  0  0  0  0  0  0
  188.4010  178.2610  145.4800 C   0  0  1  0  0  3  0  0  0  0  0  0
  189.1280  177.6870  146.6770 C   0  0  0  0  0  2  0  0  0  0  0  0
  186.0270  178.4080  144.7220 C   0  0  0  0  0  0  0  0  0  0  0  0
  189.8240  176.4120  144.6870 C   0  0  1  0  0  3  0  0  0  0  0  0
  190.2690  176.8560  146.0830 C   0  0  2  0  0  3  0  0  0  0  0  0
  184.1260  179.2720  145.9180 O   0  0  0  0  0  0  0  0  0  0  0  0
  190.0530  178.6280  142.3160 C   0  0  2  0  0  3  0  0  0  0  0  0
  188.4960  177.1310  144.4940 C   0  0  2  0  0  3  0  0  0  0  0  0
  188.5330  178.6770  142.4670 C   0  0  0  0  0  2  0  0  0  0  0  0
  184.5830  178.7420  144.8710 C   0  0  0  0  0  0  0  0  0  0  0  0
  186.9420  178.6360  145.7060 C   0  0  0  0  0  0  0  0  0  0  0  0
  183.6620  178.4360  143.7670 C   0  0  0  0  0  3  0  0  0  0  0  0
  190.6310  177.2150  142.2900 C   0  0  0  0  0  2  0  0  0  0  0  0
  192.0560  176.3480  143.9250 O   0  0  0  0  0  0  0  0  0  0  0  0
  186.6420  178.7050  148.1760 C   0  0  0  0  0  1  0  0  0  0  0  0
  186.5400  179.2840  146.8840 O   0  0  0  0  0  0  0  0  0  0  0  0
  190.5560  175.6410  146.9500 C   0  0  0  0  0  2  0  0  0  0  0  0
  191.9880  175.6160  147.3630 C   0  0  0  0  0  0  0  0  0  0  0  0
  192.8060  174.8770  146.7540 O   0  0  0  0  0  0  0  0  0  0  0  0
  192.4280  176.4310  148.3960 O   0  0  0  0  0  1  0  0  0  0  0  0
  1 18  2  0  0  0  0
  2 20  2  0  0  0  0
  3 15  1  1  0  0  0
  3  6  1  0  0  0  0
  3 14  1  0  0  0  0
  5  1  1  0  0  0  0
  5  6  2  0  0  0  0
  6  9  1  0  0  0  0
  7 17  1  0  0  0  0
  7  8  1  1  0  0  0
  9 16  1  0  0  0  0
  9 17  2  0  0  0  0
 10  2  1  6  0  0  0
 10 11  1  0  0  0  0
 11  8  1  0  0  0  0
 11 23  1  1  0  0  0
 13 15  1  0  0  0  0
 13  4  1  1  0  0  0
 14 10  1  0  0  0  0
 14  7  1  0  0  0  0
 16 12  2  0  0  0  0
 17 22  1  0  0  0  0
 18 16  1  0  0  0  0
 19 13  1  0  0  0  0
 19  2  1  0  0  0  0
 22 21  1  0  0  0  0
 23 24  1  0  0  0  0
 24 26  1  0  0  0  0
 25 24  2  0  0  0  0
M  END
>  <MODEL>
7

>  <REMARK>
 VINA RESULT:      -6.0      2.543      5.196
  Name = 
  3 active torsions:
  status: ('A' for Active; 'I' for Inactive)
    1  A    between atoms: C_3  and  C_22
    2  A    between atoms: O_9  and  C_23
    3  A    between atoms: C_14  and  C_22
                            x       y       z     vdW  Elec       q    Type
                         _______ _______ _______ _____ _____    ______ ____

>  <TORSDO>
F 3

$$$$
=
 OpenBabel10222419333D

 26 29  0  0  1  0  0  0  0  0999 V2000
  183.2600  176.6330  136.5350 C   0  0  0  0  0  3  0  0  0  0  0  0
  189.9460  177.3030  138.4230 C   0  0  0  0  0  0  0  0  0  0  0  0
  186.9280  177.2340  137.4600 C   0  0  2  0  0  3  0  0  0  0  0  0
  189.1910  179.7870  137.3910 O   0  0  0  0  0  1  0  0  0  0  0  0
  184.7350  176.6230  136.5640 C   0  0  0  0  0  3  0  0  0  0  0  0
  185.4260  177.2590  137.5180 C   0  0  0  0  0  0  0  0  0  0  0  0
  186.9290  178.6000  139.5840 C   0  0  1  0  0  3  0  0  0  0  0  0
  187.5830  178.4740  140.9430 C   0  0  0  0  0  2  0  0  0  0  0  0
  184.7090  178.0210  138.6000 C   0  0  0  0  0  0  0  0  0  0  0  0
  188.8060  177.0170  139.3770 C   0  0  1  0  0  3  0  0  0  0  0  0
  188.9460  177.8320  140.6660 C   0  0  2  0  0  3  0  0  0  0  0  0
  182.5190  178.6380  139.3840 O   0  0  0  0  0  0  0  0  0  0  0  0
  188.8970  178.6850  136.5850 C   0  0  2  0  0  3  0  0  0  0  0  0
  187.3980  177.3450  138.9020 C   0  0  2  0  0  3  0  0  0  0  0  0
  187.3950  178.4030  136.5820 C   0  0  0  0  0  2  0  0  0  0  0  0
  183.2210  178.0260  138.5360 C   0  0  0  0  0  0  0  0  0  0  0  0
  185.4070  178.6560  139.5830 C   0  0  0  0  0  0  0  0  0  0  0  0
  182.5500  177.2900  137.4540 C   0  0  0  0  0  3  0  0  0  0  0  0
  189.7570  177.4750  136.9430 C   0  0  0  0  0  2  0  0  0  0  0  0
  191.0860  177.3270  138.8570 O   0  0  0  0  0  0  0  0  0  0  0  0
  184.5550  179.0320  141.8920 C   0  0  0  0  0  1  0  0  0  0  0  0
  184.7140  179.4200  140.5350 O   0  0  0  0  0  0  0  0  0  0  0  0
  189.3570  176.9260  141.8150 C   0  0  0  0  0  2  0  0  0  0  0  0
  190.4950  177.5190  142.5720 C   0  0  0  0  0  0  0  0  0  0  0  0
  190.2750  178.2090  143.6010 O   0  0  0  0  0  1  0  0  0  0  0  0
  191.8000  177.2830  142.1630 O   0  0  0  0  0  0  0  0  0  0  0  0
  1  5  1  0  0  0  0
  1 18  2  0  0  0  0
  2 20  2  0  0  0  0
  3 15  1  6  0  0  0
  3  6  1  0  0  0  0
  3 14  1  0  0  0  0
  5  6  2  0  0  0  0
  6  9  1  0  0  0  0
  7  8  1  1  0  0  0
  9 17  2  0  0  0  0
 10  2  1  6  0  0  0
 10 11  1  0  0  0  0
 11  8  1  0  0  0  0
 11 23  1  1  0  0  0
 13 19  1  0  0  0  0
 13  4  1  1  0  0  0
 14 10  1  0  0  0  0
 14  7  1  0  0  0  0
 15 13  1  0  0  0  0
 16  9  1  0  0  0  0
 16 12  2  0  0  0  0
 17  7  1  0  0  0  0
 17 22  1  0  0  0  0
 18 16  1  0  0  0  0
 19  2  1  0  0  0  0
 22 21  1  0  0  0  0
 23 24  1  0  0  0  0
 24 25  1  0  0  0  0
 26 24  2  0  0  0  0
M  END
>  <MODEL>
8

>  <REMARK>
 VINA RESULT:      -5.9      2.774      5.737
  Name = 
  3 active torsions:
  status: ('A' for Active; 'I' for Inactive)
    1  A    between atoms: C_3  and  C_22
    2  A    between atoms: O_9  and  C_23
    3  A    between atoms: C_14  and  C_22
                            x       y       z     vdW  Elec       q    Type
                         _______ _______ _______ _____ _____    ______ ____

>  <TORSDO>
F 3

$$$$
=
 OpenBabel10222419333D

 26 29  0  0  1  0  0  0  0  0999 V2000
  187.1730  178.6560  136.0230 C   0  0  0  0  0  3  0  0  0  0  0  0
  192.9280  177.0280  139.6210 C   0  0  0  0  0  0  0  0  0  0  0  0
  190.1780  177.6620  138.1790 C   0  0  2  0  0  3  0  0  0  0  0  0
  190.8070  175.8400  140.9960 O   0  0  0  0  0  1  0  0  0  0  0  0
  188.3170  178.6720  136.9540 C   0  0  0  0  0  3  0  0  0  0  0  0
  189.0500  177.5770  137.1900 C   0  0  0  0  0  0  0  0  0  0  0  0
  190.6560  175.2310  137.6870 C   0  0  1  0  0  3  0  0  0  0  0  0
  191.8780  174.4370  137.2790 C   0  0  0  0  0  2  0  0  0  0  0  0
  188.7170  176.2750  136.5100 C   0  0  0  0  0  0  0  0  0  0  0  0
  192.6480  176.5890  138.2000 C   0  0  1  0  0  3  0  0  0  0  0  0
  193.0490  175.1270  137.9850 C   0  0  2  0  0  3  0  0  0  0  0  0
  187.1740  175.2530  134.9730 O   0  0  0  0  0  0  0  0  0  0  0  0
  190.6450  177.1930  140.6920 C   0  0  2  0  0  3  0  0  0  0  0  0
  191.2010  176.6320  137.7280 C   0  0  2  0  0  3  0  0  0  0  0  0
  189.6140  177.3780  139.5790 C   0  0  0  0  0  2  0  0  0  0  0  0
  187.5470  176.2860  135.5890 C   0  0  0  0  0  0  0  0  0  0  0  0
  189.4690  175.1610  136.7350 C   0  0  0  0  0  0  0  0  0  0  0  0
  186.8100  177.5420  135.3860 C   0  0  0  0  0  3  0  0  0  0  0  0
  191.9830  177.8780  140.4220 C   0  0  0  0  0  2  0  0  0  0  0  0
  194.0030  176.7440  140.1250 O   0  0  0  0  0  0  0  0  0  0  0  0
  188.5330  172.8590  136.8680 C   0  0  0  0  0  1  0  0  0  0  0  0
  189.0910  173.9450  136.1450 O   0  0  0  0  0  0  0  0  0  0  0  0
  194.3070  175.0510  137.1350 C   0  0  0  0  0  2  0  0  0  0  0  0
  195.4160  174.4070  137.8940 C   0  0  0  0  0  0  0  0  0  0  0  0
  196.5820  174.8780  137.8260 O   0  0  0  0  0  0  0  0  0  0  0  0
  195.1590  173.3100  138.7040 O   0  0  0  0  0  1  0  0  0  0  0  0
  1  5  1  0  0  0  0
  2 20  2  0  0  0  0
  2 19  1  0  0  0  0
  3 15  1  1  0  0  0
  5  6  2  0  0  0  0
  6  3  1  0  0  0  0
  7  8  1  6  0  0  0
  7 14  1  0  0  0  0
  8 11  1  0  0  0  0
  9 17  2  0  0  0  0
  9  6  1  0  0  0  0
 10  2  1  1  0  0  0
 11 23  1  6  0  0  0
 11 10  1  0  0  0  0
 12 16  2  0  0  0  0
 13  4  1  6  0  0  0
 14  3  1  0  0  0  0
 14 10  1  0  0  0  0
 15 13  1  0  0  0  0
 16  9  1  0  0  0  0
 17  7  1  0  0  0  0
 18 16  1  0  0  0  0
 18  1  2  0  0  0  0
 19 13  1  0  0  0  0
 22 17  1  0  0  0  0
 22 21  1  0  0  0  0
 23 24  1  0  0  0  0
 24 26  1  0  0  0  0
 25 24  2  0  0  0  0
M  END
>  <MODEL>
9

>  <REMARK>
 VINA RESULT:      -5.7      4.513      7.480
  Name = 
  3 active torsions:
  status: ('A' for Active; 'I' for Inactive)
    1  A    between atoms: C_3  and  C_22
    2  A    between atoms: O_9  and  C_23
    3  A    between atoms: C_14  and  C_22
                            x       y       z     vdW  Elec       q    Type
                         _______ _______ _______ _____ _____    ______ ____

>  <TORSDO>
F 3

$$$$
