=
 OpenBabel10222418433D

 41 43  0  0  1  0  0  0  0  0999 V2000
  181.5160  179.1890  142.8600 N   0  0  0  0  0  0  0  0  0  0  0  0
  180.7550  176.5560  137.5270 C   0  0  0  0  0  1  0  0  0  0  0  0
  181.1350  177.1780  138.8210 C   0  0  0  0  0  0  0  0  0  0  0  0
  182.3600  177.4800  139.0920 C   0  0  0  0  0  0  0  0  0  0  0  0
  183.3790  177.8960  139.7680 C   0  0  0  0  0  0  0  0  0  0  0  0
  179.7230  177.8220  142.1650 N   0  0  0  0  0  0  0  0  0  0  0  0
  180.1900  177.3150  139.8900 N   0  0  0  0  0  2  0  0  0  0  0  0
  183.0860  178.1620  141.2320 C   0  0  2  0  0  3  0  0  0  0  0  0
  180.2520  178.5770  143.2850 C   0  0  0  0  0  3  0  0  0  0  0  0
  181.6880  178.8180  141.4540 C   0  0  1  0  0  3  0  0  0  0  0  0
  180.5140  177.9210  141.1650 C   0  0  0  0  0  0  0  0  0  0  0  0
  184.6320  178.3370  139.0830 C   0  0  0  0  0  2  0  0  0  0  0  0
  184.7740  177.6380  137.7400 C   0  0  0  0  0  2  0  0  0  0  0  0
  186.1950  177.1350  137.5510 C   0  0  0  0  0  2  0  0  0  0  0  0
  188.9600  179.5940  137.5830 N   0  0  0  0  0  1  0  0  0  0  0  0
  188.4720  177.3290  138.4950 C   0  0  2  0  0  3  0  0  0  0  0  0
  188.3720  178.2920  137.3070 C   0  0  1  0  0  3  0  0  0  0  0  0
  187.1830  178.0730  138.2210 C   0  0  1  0  0  3  0  0  0  0  0  0
  189.1360  177.9140  139.7380 C   0  0  0  0  0  2  0  0  0  0  0  0
  190.0750  176.8960  140.3720 C   0  0  1  0  0  3  0  0  0  0  0  0
  191.4920  177.2550  139.9550 C   0  0  0  0  0  1  0  0  0  0  0  0
  189.9410  176.8860  141.9040 C   0  0  1  0  0  3  0  0  0  0  0  0
  191.3880  178.0210  143.6630 C   0  0  0  0  0  0  0  0  0  0  0  0
  191.9180  179.0820  144.0860 O   0  0  0  0  0  0  0  0  0  0  0  0
  190.5880  178.0620  142.4780 N   0  0  0  0  0  2  0  0  0  0  0  0
  191.6410  176.7320  144.3810 C   0  0  0  0  0  2  0  0  0  0  0  0
  190.1380  177.0910  146.2680 N   0  0  0  0  0  1  0  0  0  0  0  0
  191.5280  176.9100  145.8880 C   0  0  1  0  0  3  0  0  0  0  0  0
  192.0790  175.6800  146.5780 C   0  0  0  0  0  1  0  0  0  0  0  0
  188.4990  176.8780  142.3210 C   0  0  0  0  0  3  0  0  0  0  0  0
  188.0910  176.1460  143.3560 C   0  0  0  0  0  2  0  0  0  0  0  0
  184.1330  178.9860  141.8220 N   0  0  0  0  0  2  0  0  0  0  0  0
  184.9200  178.1160  142.6800 C   0  0  0  0  0  2  0  0  0  0  0  0
  184.6920  179.9170  144.2120 O   0  0  0  0  0  0  0  0  0  0  0  0
  185.0250  178.7140  144.0350 C   0  0  0  0  0  0  0  0  0  0  0  0
  185.5220  177.9430  145.0890 O   0  0  0  0  0  0  0  0  0  0  0  0
  186.7080  178.2930  145.7930 C   0  0  0  0  0  2  0  0  0  0  0  0
  185.8270  179.7810  147.4460 F   0  0  0  0  0  0  0  0  0  0  0  0
  186.4030  178.5340  147.2650 C   0  0  2  0  0  3  0  0  0  0  0  0
  187.6780  178.4340  148.0870 C   0  0  0  0  0  2  0  0  0  0  0  0
  187.5900  177.3900  148.9920 F   0  0  0  0  0  0  0  0  0  0  0  0
  1  9  2  0  0  0  0
  2  3  1  0  0  0  0
  3  4  2  0  0  0  0
  3  7  1  0  0  0  0
  4  5  2  0  0  0  0
  5  8  1  0  0  0  0
  6  9  1  0  0  0  0
  7 11  1  0  0  0  0
  8 10  1  0  0  0  0
  8 32  1  6  0  0  0
 10 11  1  1  0  0  0
 10  1  1  0  0  0  0
 11  6  2  0  0  0  0
 12  5  1  0  0  0  0
 13 12  1  0  0  0  0
 14 13  1  0  0  0  0
 16 19  1  1  0  0  0
 17 15  1  1  0  0  0
 17 18  1  0  0  0  0
 17 16  1  0  0  0  0
 18 14  1  6  0  0  0
 18 16  1  0  0  0  0
 19 20  1  0  0  0  0
 20 21  1  1  0  0  0
 20 22  1  0  0  0  0
 22 30  1  6  0  0  0
 22 25  1  0  0  0  0
 23 24  2  0  0  0  0
 23 26  1  0  0  0  0
 25 23  1  0  0  0  0
 26 28  1  0  0  0  0
 28 27  1  0  0  0  0
 28 29  1  1  0  0  0
 30 31  2  0  0  0  0
 32 33  1  0  0  0  0
 33 35  1  0  0  0  0
 35 34  2  0  0  0  0
 35 36  1  0  0  0  0
 36 37  1  0  0  0  0
 37 39  1  0  0  0  0
 39 38  1  6  0  0  0
 39 40  1  0  0  0  0
 40 41  1  0  0  0  0
M  END
>  <MODEL>
1

>  <REMARK>
 VINA RESULT:      -7.3      0.000      0.000
  Name = 
  18 active torsions:
  status: ('A' for Active; 'I' for Inactive)
    1  A    between atoms: C_4  and  C_28
    2  A    between atoms: C_4  and  C_34
    3  A    between atoms: C_5  and  C_7
    4  A    between atoms: C_7  and  N_16
    5  A    between atoms: C_7  and  C_31
    6  A    between atoms: C_8  and  C_18
    7  A    between atoms: C_8  and  C_28
    8  A    between atoms: C_9  and  C_14
    9  A    between atoms: C_10  and  C_25
   10  A    between atoms: C_14  and  C_30
   11  A    between atoms: C_20  and  C_39
   12  A    between atoms: C_22  and  N_32
   13  A    between atoms: C_22  and  C_38
   14  A    between atoms: C_25  and  C_31
   15  A    between atoms: C_26  and  N_32
   16  A    between atoms: O_27  and  C_33
   17  A    between atoms: O_27  and  C_38
   18  A    between atoms: C_33  and  C_39
                            x       y       z     vdW  Elec       q    Type
                         _______ _______ _______ _____ _____    ______ ____

>  <TORSDO>
F 18

$$$$
=
 OpenBabel10222418433D

 41 43  0  0  1  0  0  0  0  0999 V2000
  181.0950  175.4690  138.5530 N   0  0  0  0  0  0  0  0  0  0  0  0
  180.1130  179.3330  143.0320 C   0  0  0  0  0  1  0  0  0  0  0  0
  180.5240  178.4710  141.8940 C   0  0  0  0  0  0  0  0  0  0  0  0
  181.7260  178.4980  141.4250 C   0  0  0  0  0  0  0  0  0  0  0  0
  182.7290  178.2260  140.6580 C   0  0  0  0  0  0  0  0  0  0  0  0
  179.0290  176.3500  139.2750 N   0  0  0  0  0  0  0  0  0  0  0  0
  179.5670  177.6990  141.1570 N   0  0  0  0  0  2  0  0  0  0  0  0
  182.3670  177.4130  139.4290 C   0  0  2  0  0  3  0  0  0  0  0  0
  179.6500  175.4750  138.2990 C   0  0  0  0  0  3  0  0  0  0  0  0
  181.2990  176.3170  139.7290 C   0  0  1  0  0  3  0  0  0  0  0  0
  179.9240  176.8410  140.0460 C   0  0  0  0  0  0  0  0  0  0  0  0
  184.1340  178.4530  141.1140 C   0  0  0  0  0  2  0  0  0  0  0  0
  184.1720  178.6750  142.6170 C   0  0  0  0  0  2  0  0  0  0  0  0
  185.5740  178.4440  143.1530 C   0  0  0  0  0  2  0  0  0  0  0  0
  184.5430  178.5380  146.7060 N   0  0  0  0  0  1  0  0  0  0  0  0
  186.6490  178.5200  145.3790 C   0  0  2  0  0  3  0  0  0  0  0  0
  185.2220  179.0560  145.5280 C   0  0  1  0  0  3  0  0  0  0  0  0
  185.5180  177.9150  144.5760 C   0  0  1  0  0  3  0  0  0  0  0  0
  187.0790  177.5360  146.4620 C   0  0  0  0  0  2  0  0  0  0  0  0
  188.4360  177.9270  147.0340 C   0  0  1  0  0  3  0  0  0  0  0  0
  188.4230  177.5970  148.5170 C   0  0  0  0  0  1  0  0  0  0  0  0
  189.5810  177.1910  146.3170 C   0  0  1  0  0  3  0  0  0  0  0  0
  190.3790  178.4560  144.2580 C   0  0  0  0  0  0  0  0  0  0  0  0
  191.1730  179.3000  143.7660 O   0  0  0  0  0  0  0  0  0  0  0  0
  190.4610  178.1470  145.6530 N   0  0  0  0  0  2  0  0  0  0  0  0
  189.3370  177.8260  143.3860 C   0  0  0  0  0  2  0  0  0  0  0  0
  190.7510  176.6260  141.8020 N   0  0  0  0  0  1  0  0  0  0  0  0
  189.8120  177.7260  141.9450 C   0  0  1  0  0  3  0  0  0  0  0  0
  188.6210  177.4880  141.0420 C   0  0  0  0  0  1  0  0  0  0  0  0
  190.3920  176.3800  147.2840 C   0  0  0  0  0  3  0  0  0  0  0  0
  191.6810  176.1320  147.0560 C   0  0  0  0  0  2  0  0  0  0  0  0
  183.5580  176.8150  138.8420 N   0  0  0  0  0  2  0  0  0  0  0  0
  183.8220  177.5300  137.6050 C   0  0  0  0  0  2  0  0  0  0  0  0
  185.7020  178.7770  138.3500 O   0  0  0  0  0  0  0  0  0  0  0  0
  185.2560  177.9140  137.5470 C   0  0  0  0  0  0  0  0  0  0  0  0
  186.0830  177.3380  136.5790 O   0  0  0  0  0  0  0  0  0  0  0  0
  187.3620  177.8690  136.2580 C   0  0  0  0  0  2  0  0  0  0  0  0
  187.9220  176.4080  138.0670 F   0  0  0  0  0  0  0  0  0  0  0  0
  188.4550  177.1140  137.0010 C   0  0  2  0  0  3  0  0  0  0  0  0
  189.5110  178.0840  137.5060 C   0  0  0  0  0  2  0  0  0  0  0  0
  188.9600  179.3390  137.7050 F   0  0  0  0  0  0  0  0  0  0  0  0
  3  2  1  0  0  0  0
  4  3  2  0  0  0  0
  5 12  1  0  0  0  0
  5  4  2  0  0  0  0
  6 11  2  0  0  0  0
  7  3  1  0  0  0  0
  8 32  1  1  0  0  0
  8 10  1  0  0  0  0
  8  5  1  0  0  0  0
  9  1  2  0  0  0  0
  9  6  1  0  0  0  0
 10  1  1  6  0  0  0
 10 11  1  0  0  0  0
 11  7  1  0  0  0  0
 12 13  1  0  0  0  0
 13 14  1  0  0  0  0
 16 17  1  0  0  0  0
 16 19  1  1  0  0  0
 17 15  1  1  0  0  0
 18 14  1  6  0  0  0
 18 16  1  0  0  0  0
 18 17  1  0  0  0  0
 19 20  1  0  0  0  0
 20 21  1  1  0  0  0
 22 20  1  0  0  0  0
 22 30  1  1  0  0  0
 23 25  1  0  0  0  0
 24 23  2  0  0  0  0
 25 22  1  0  0  0  0
 26 23  1  0  0  0  0
 27 28  1  0  0  0  0
 28 29  1  6  0  0  0
 28 26  1  0  0  0  0
 31 30  2  0  0  0  0
 33 32  1  0  0  0  0
 35 33  1  0  0  0  0
 35 34  2  0  0  0  0
 36 35  1  0  0  0  0
 37 36  1  0  0  0  0
 37 39  1  0  0  0  0
 39 40  1  0  0  0  0
 39 38  1  1  0  0  0
 40 41  1  0  0  0  0
M  END
>  <MODEL>
2

>  <REMARK>
 VINA RESULT:      -7.1      3.166      6.257
  Name = 
  18 active torsions:
  status: ('A' for Active; 'I' for Inactive)
    1  A    between atoms: C_4  and  C_28
    2  A    between atoms: C_4  and  C_34
    3  A    between atoms: C_5  and  C_7
    4  A    between atoms: C_7  and  N_16
    5  A    between atoms: C_7  and  C_31
    6  A    between atoms: C_8  and  C_18
    7  A    between atoms: C_8  and  C_28
    8  A    between atoms: C_9  and  C_14
    9  A    between atoms: C_10  and  C_25
   10  A    between atoms: C_14  and  C_30
   11  A    between atoms: C_20  and  C_39
   12  A    between atoms: C_22  and  N_32
   13  A    between atoms: C_22  and  C_38
   14  A    between atoms: C_25  and  C_31
   15  A    between atoms: C_26  and  N_32
   16  A    between atoms: O_27  and  C_33
   17  A    between atoms: O_27  and  C_38
   18  A    between atoms: C_33  and  C_39
                            x       y       z     vdW  Elec       q    Type
                         _______ _______ _______ _____ _____    ______ ____

>  <TORSDO>
F 18

$$$$
=
 OpenBabel10222418433D

 41 43  0  0  1  0  0  0  0  0999 V2000
  190.7040  176.7630  143.2090 N   0  0  0  0  0  0  0  0  0  0  0  0
  187.8500  178.1750  148.2900 C   0  0  0  0  0  1  0  0  0  0  0  0
  188.3790  177.7980  146.9550 C   0  0  0  0  0  0  0  0  0  0  0  0
  187.6120  177.7210  145.9210 C   0  0  0  0  0  0  0  0  0  0  0  0
  187.2490  177.5010  144.7010 C   0  0  0  0  0  0  0  0  0  0  0  0
  191.4050  176.3510  145.4240 N   0  0  0  0  0  0  0  0  0  0  0  0
  189.7270  177.3380  146.7880 N   0  0  0  0  0  2  0  0  0  0  0  0
  188.3060  176.8190  143.8520 C   0  0  2  0  0  3  0  0  0  0  0  0
  191.7650  176.1690  144.0310 C   0  0  0  0  0  3  0  0  0  0  0  0
  189.7440  177.3420  144.1510 C   0  0  1  0  0  3  0  0  0  0  0  0
  190.2870  176.9670  145.5050 C   0  0  0  0  0  0  0  0  0  0  0  0
  186.0160  178.1300  144.1360 C   0  0  0  0  0  2  0  0  0  0  0  0
  185.2830  178.9140  145.2130 C   0  0  0  0  0  2  0  0  0  0  0  0
  183.7880  178.6570  145.1330 C   0  0  0  0  0  2  0  0  0  0  0  0
  181.0120  179.9500  143.0560 N   0  0  0  0  0  1  0  0  0  0  0  0
  182.8760  178.3120  142.8610 C   0  0  2  0  0  3  0  0  0  0  0  0
  181.7610  178.9000  143.7300 C   0  0  1  0  0  3  0  0  0  0  0  0
  183.1960  179.3470  143.9170 C   0  0  1  0  0  3  0  0  0  0  0  0
  183.0110  178.9440  141.4790 C   0  0  0  0  0  2  0  0  0  0  0  0
  182.8630  177.8890  140.3900 C   0  0  1  0  0  3  0  0  0  0  0  0
  181.4280  177.3900  140.4250 C   0  0  0  0  0  1  0  0  0  0  0  0
  183.2130  178.4580  139.0050 C   0  0  1  0  0  3  0  0  0  0  0  0
  182.6180  177.2410  136.8500 C   0  0  0  0  0  0  0  0  0  0  0  0
  181.7230  176.8730  136.0440 O   0  0  0  0  0  0  0  0  0  0  0  0
  182.2510  177.9950  138.0090 N   0  0  0  0  0  2  0  0  0  0  0  0
  184.0410  176.8450  136.6040 C   0  0  0  0  0  2  0  0  0  0  0  0
  185.6170  174.9840  136.5760 N   0  0  0  0  0  1  0  0  0  0  0  0
  184.2100  175.3340  136.6590 C   0  0  1  0  0  3  0  0  0  0  0  0
  183.6410  174.8150  137.9630 C   0  0  0  0  0  1  0  0  0  0  0  0
  183.2070  179.9590  139.0190 C   0  0  0  0  0  3  0  0  0  0  0  0
  182.2320  180.6440  138.4240 C   0  0  0  0  0  2  0  0  0  0  0  0
  187.9970  176.9630  142.4360 N   0  0  0  0  0  2  0  0  0  0  0  0
  188.3770  178.3130  142.0580 C   0  0  0  0  0  2  0  0  0  0  0  0
  186.4820  178.7610  140.6970 O   0  0  0  0  0  0  0  0  0  0  0  0
  187.7370  178.6670  140.7650 C   0  0  0  0  0  0  0  0  0  0  0  0
  188.5350  178.8590  139.6340 O   0  0  0  0  0  0  0  0  0  0  0  0
  189.0420  177.7730  138.8680 C   0  0  0  0  0  2  0  0  0  0  0  0
  189.4500  179.4740  137.2370 F   0  0  0  0  0  0  0  0  0  0  0  0
  189.1020  178.1420  137.3930 C   0  0  2  0  0  3  0  0  0  0  0  0
  187.7570  177.8830  136.7340 C   0  0  0  0  0  2  0  0  0  0  0  0
  187.0660  179.0710  136.5600 F   0  0  0  0  0  0  0  0  0  0  0  0
  1  9  2  0  0  0  0
  3  2  1  0  0  0  0
  4  3  2  0  0  0  0
  5  4  2  0  0  0  0
  6 11  2  0  0  0  0
  7  3  1  0  0  0  0
  8 32  1  6  0  0  0
  8 10  1  0  0  0  0
  8  5  1  0  0  0  0
  9  6  1  0  0  0  0
 10  1  1  6  0  0  0
 10 11  1  0  0  0  0
 11  7  1  0  0  0  0
 12  5  1  0  0  0  0
 12 13  1  0  0  0  0
 14 13  1  0  0  0  0
 16 19  1  6  0  0  0
 16 17  1  0  0  0  0
 16 18  1  0  0  0  0
 17 15  1  6  0  0  0
 17 18  1  0  0  0  0
 18 14  1  1  0  0  0
 20 21  1  6  0  0  0
 20 19  1  0  0  0  0
 22 30  1  1  0  0  0
 22 20  1  0  0  0  0
 23 25  1  0  0  0  0
 24 23  2  0  0  0  0
 25 22  1  0  0  0  0
 26 28  1  0  0  0  0
 26 23  1  0  0  0  0
 27 28  1  0  0  0  0
 28 29  1  1  0  0  0
 31 30  2  0  0  0  0
 33 32  1  0  0  0  0
 34 35  2  0  0  0  0
 35 33  1  0  0  0  0
 36 35  1  0  0  0  0
 37 36  1  0  0  0  0
 39 38  1  1  0  0  0
 39 37  1  0  0  0  0
 40 39  1  0  0  0  0
 41 40  1  0  0  0  0
M  END
>  <MODEL>
3

>  <REMARK>
 VINA RESULT:      -7.0      3.504      9.286
  Name = 
  18 active torsions:
  status: ('A' for Active; 'I' for Inactive)
    1  A    between atoms: C_4  and  C_28
    2  A    between atoms: C_4  and  C_34
    3  A    between atoms: C_5  and  C_7
    4  A    between atoms: C_7  and  N_16
    5  A    between atoms: C_7  and  C_31
    6  A    between atoms: C_8  and  C_18
    7  A    between atoms: C_8  and  C_28
    8  A    between atoms: C_9  and  C_14
    9  A    between atoms: C_10  and  C_25
   10  A    between atoms: C_14  and  C_30
   11  A    between atoms: C_20  and  C_39
   12  A    between atoms: C_22  and  N_32
   13  A    between atoms: C_22  and  C_38
   14  A    between atoms: C_25  and  C_31
   15  A    between atoms: C_26  and  N_32
   16  A    between atoms: O_27  and  C_33
   17  A    between atoms: O_27  and  C_38
   18  A    between atoms: C_33  and  C_39
                            x       y       z     vdW  Elec       q    Type
                         _______ _______ _______ _____ _____    ______ ____

>  <TORSDO>
F 18

$$$$
=
 OpenBabel10222418433D

 41 43  0  0  1  0  0  0  0  0999 V2000
  187.1070  178.4150  146.1330 N   0  0  0  0  0  0  0  0  0  0  0  0
  181.7380  179.3190  143.6210 C   0  0  0  0  0  1  0  0  0  0  0  0
  183.1210  179.0170  144.0720 C   0  0  0  0  0  0  0  0  0  0  0  0
  184.0460  178.6820  143.2380 C   0  0  0  0  0  0  0  0  0  0  0  0
  185.2030  178.3040  142.8060 C   0  0  0  0  0  0  0  0  0  0  0  0
  184.9910  178.3300  147.1740 N   0  0  0  0  0  0  0  0  0  0  0  0
  183.4480  178.9190  145.4640 N   0  0  0  0  0  2  0  0  0  0  0  0
  186.1630  177.8760  143.9000 C   0  0  2  0  0  3  0  0  0  0  0  0
  186.4140  178.1680  147.4030 C   0  0  0  0  0  3  0  0  0  0  0  0
  186.0640  178.7740  145.1710 C   0  0  1  0  0  3  0  0  0  0  0  0
  184.7830  178.6340  145.9490 C   0  0  0  0  0  0  0  0  0  0  0  0
  185.6200  178.5540  141.3930 C   0  0  0  0  0  2  0  0  0  0  0  0
  184.4730  178.2480  140.4420 C   0  0  0  0  0  2  0  0  0  0  0  0
  184.2860  179.3850  139.4520 C   0  0  0  0  0  2  0  0  0  0  0  0
  184.4520  177.1630  136.4980 N   0  0  0  0  0  1  0  0  0  0  0  0
  185.9930  178.0860  138.2220 C   0  0  2  0  0  3  0  0  0  0  0  0
  184.6230  177.4770  137.9080 C   0  0  1  0  0  3  0  0  0  0  0  0
  184.7770  178.9750  138.0750 C   0  0  1  0  0  3  0  0  0  0  0  0
  186.9020  178.2730  137.0110 C   0  0  0  0  0  2  0  0  0  0  0  0
  188.3530  178.4250  137.4490 C   0  0  1  0  0  3  0  0  0  0  0  0
  188.4230  178.0940  138.9310 C   0  0  0  0  0  1  0  0  0  0  0  0
  189.2840  177.5080  136.6370 C   0  0  1  0  0  3  0  0  0  0  0  0
  190.6280  175.4590  137.3240 C   0  0  0  0  0  0  0  0  0  0  0  0
  190.6520  174.3480  137.9160 O   0  0  0  0  0  0  0  0  0  0  0  0
  189.4090  176.2080  137.2890 N   0  0  0  0  0  2  0  0  0  0  0  0
  191.8830  175.9950  136.7080 C   0  0  0  0  0  2  0  0  0  0  0  0
  194.2860  176.2740  137.0140 N   0  0  0  0  0  1  0  0  0  0  0  0
  193.0440  175.9430  137.6900 C   0  0  1  0  0  3  0  0  0  0  0  0
  192.8000  176.9400  138.8030 C   0  0  0  0  0  1  0  0  0  0  0  0
  188.7620  177.3010  135.2460 C   0  0  0  0  0  3  0  0  0  0  0  0
  188.1890  176.1510  134.8950 C   0  0  0  0  0  2  0  0  0  0  0  0
  187.5310  177.8520  143.4000 N   0  0  0  0  0  2  0  0  0  0  0  0
  188.0070  176.4860  143.5410 C   0  0  0  0  0  2  0  0  0  0  0  0
  190.1430  175.9310  142.6610 O   0  0  0  0  0  0  0  0  0  0  0  0
  189.4920  176.4780  143.5910 C   0  0  0  0  0  0  0  0  0  0  0  0
  190.1440  177.0480  144.6880 O   0  0  0  0  0  0  0  0  0  0  0  0
  191.4410  176.6360  145.0990 C   0  0  0  0  0  2  0  0  0  0  0  0
  192.4120  175.7420  147.0940 F   0  0  0  0  0  0  0  0  0  0  0  0
  191.5790  176.7380  146.6120 C   0  0  2  0  0  3  0  0  0  0  0  0
  190.2130  176.6270  147.2700 C   0  0  0  0  0  2  0  0  0  0  0  0
  189.7800  177.8690  147.7000 F   0  0  0  0  0  0  0  0  0  0  0  0
  1  9  2  0  0  0  0
  2  3  1  0  0  0  0
  3  7  1  0  0  0  0
  4  3  2  0  0  0  0
  5  4  2  0  0  0  0
  5  8  1  0  0  0  0
  6  9  1  0  0  0  0
  7 11  1  0  0  0  0
  8 32  1  6  0  0  0
  8 10  1  0  0  0  0
 10 11  1  1  0  0  0
 10  1  1  0  0  0  0
 11  6  2  0  0  0  0
 12  5  1  0  0  0  0
 13 12  1  0  0  0  0
 14 13  1  0  0  0  0
 16 19  1  6  0  0  0
 17 15  1  6  0  0  0
 17 18  1  0  0  0  0
 17 16  1  0  0  0  0
 18 16  1  0  0  0  0
 18 14  1  1  0  0  0
 19 20  1  0  0  0  0
 20 21  1  1  0  0  0
 22 30  1  6  0  0  0
 22 25  1  0  0  0  0
 22 20  1  0  0  0  0
 23 24  2  0  0  0  0
 25 23  1  0  0  0  0
 26 23  1  0  0  0  0
 26 28  1  0  0  0  0
 27 28  1  0  0  0  0
 28 29  1  1  0  0  0
 31 30  2  0  0  0  0
 32 33  1  0  0  0  0
 33 35  1  0  0  0  0
 34 35  2  0  0  0  0
 35 36  1  0  0  0  0
 36 37  1  0  0  0  0
 37 39  1  0  0  0  0
 39 38  1  1  0  0  0
 39 40  1  0  0  0  0
 40 41  1  0  0  0  0
M  END
>  <MODEL>
4

>  <REMARK>
 VINA RESULT:      -6.9      2.903      5.771
  Name = 
  18 active torsions:
  status: ('A' for Active; 'I' for Inactive)
    1  A    between atoms: C_4  and  C_28
    2  A    between atoms: C_4  and  C_34
    3  A    between atoms: C_5  and  C_7
    4  A    between atoms: C_7  and  N_16
    5  A    between atoms: C_7  and  C_31
    6  A    between atoms: C_8  and  C_18
    7  A    between atoms: C_8  and  C_28
    8  A    between atoms: C_9  and  C_14
    9  A    between atoms: C_10  and  C_25
   10  A    between atoms: C_14  and  C_30
   11  A    between atoms: C_20  and  C_39
   12  A    between atoms: C_22  and  N_32
   13  A    between atoms: C_22  and  C_38
   14  A    between atoms: C_25  and  C_31
   15  A    between atoms: C_26  and  N_32
   16  A    between atoms: O_27  and  C_33
   17  A    between atoms: O_27  and  C_38
   18  A    between atoms: C_33  and  C_39
                            x       y       z     vdW  Elec       q    Type
                         _______ _______ _______ _____ _____    ______ ____

>  <TORSDO>
F 18

$$$$
=
 OpenBabel10222418433D

 41 43  0  0  1  0  0  0  0  0999 V2000
  185.5020  177.9930  145.6520 N   0  0  0  0  0  0  0  0  0  0  0  0
  191.3210  176.7100  146.3280 C   0  0  0  0  0  1  0  0  0  0  0  0
  189.9190  177.0460  145.9700 C   0  0  0  0  0  0  0  0  0  0  0  0
  189.5170  177.0500  144.7440 C   0  0  0  0  0  0  0  0  0  0  0  0
  188.7280  177.2030  143.7330 C   0  0  0  0  0  0  0  0  0  0  0  0
  186.8980  178.5270  147.4780 N   0  0  0  0  0  0  0  0  0  0  0  0
  188.9970  177.5440  146.9480 N   0  0  0  0  0  2  0  0  0  0  0  0
  187.4140  177.8830  144.0690 C   0  0  2  0  0  3  0  0  0  0  0  0
  185.5500  178.6590  146.9580 C   0  0  0  0  0  3  0  0  0  0  0  0
  186.8350  177.4240  145.4430 C   0  0  1  0  0  3  0  0  0  0  0  0
  187.6200  177.8770  146.6450 C   0  0  0  0  0  0  0  0  0  0  0  0
  188.9890  176.5070  142.4370 C   0  0  0  0  0  2  0  0  0  0  0  0
  190.0120  177.2800  141.6200 C   0  0  0  0  0  2  0  0  0  0  0  0
  189.3530  177.9130  140.4060 C   0  0  0  0  0  2  0  0  0  0  0  0
  190.6850  175.2210  138.2440 N   0  0  0  0  0  1  0  0  0  0  0  0
  189.8480  177.5540  138.0100 C   0  0  2  0  0  3  0  0  0  0  0  0
  190.6870  176.5590  138.8170 C   0  0  1  0  0  3  0  0  0  0  0  0
  189.2840  176.9180  139.2610 C   0  0  1  0  0  3  0  0  0  0  0  0
  189.1540  176.9620  136.7880 C   0  0  0  0  0  2  0  0  0  0  0  0
  187.6440  177.1380  136.8910 C   0  0  1  0  0  3  0  0  0  0  0  0
  187.2400  178.2300  135.9140 C   0  0  0  0  0  1  0  0  0  0  0  0
  186.9020  175.8260  136.5850 C   0  0  1  0  0  3  0  0  0  0  0  0
  184.4390  175.6850  135.9600 C   0  0  0  0  0  0  0  0  0  0  0  0
  183.5340  175.9450  135.1240 O   0  0  0  0  0  0  0  0  0  0  0  0
  185.7870  176.0740  135.6770 N   0  0  0  0  0  2  0  0  0  0  0  0
  184.0830  175.0150  137.2500 C   0  0  0  0  0  2  0  0  0  0  0  0
  181.7850  174.2660  137.5790 N   0  0  0  0  0  1  0  0  0  0  0  0
  182.6830  175.4010  137.7030 C   0  0  1  0  0  3  0  0  0  0  0  0
  182.7310  175.8440  139.1500 C   0  0  0  0  0  1  0  0  0  0  0  0
  187.8200  174.8190  135.9570 C   0  0  0  0  0  3  0  0  0  0  0  0
  187.6880  174.4790  134.6760 C   0  0  0  0  0  2  0  0  0  0  0  0
  186.4390  177.6650  143.0100 N   0  0  0  0  0  2  0  0  0  0  0  0
  186.2750  178.9330  142.3200 C   0  0  0  0  0  2  0  0  0  0  0  0
  185.1160  179.5300  140.3340 O   0  0  0  0  0  0  0  0  0  0  0  0
  185.1130  178.8530  141.3980 C   0  0  0  0  0  0  0  0  0  0  0  0
  184.0190  178.0550  141.7400 O   0  0  0  0  0  0  0  0  0  0  0  0
  182.6860  178.5510  141.7340 C   0  0  0  0  0  2  0  0  0  0  0  0
  182.8460  178.3160  144.1090 F   0  0  0  0  0  0  0  0  0  0  0  0
  182.3180  179.1080  143.1020 C   0  0  2  0  0  3  0  0  0  0  0  0
  180.8070  179.1820  143.2480 C   0  0  0  0  0  2  0  0  0  0  0  0
  180.3930  178.4850  144.3700 F   0  0  0  0  0  0  0  0  0  0  0  0
  1  9  2  0  0  0  0
  3  2  1  0  0  0  0
  3  7  1  0  0  0  0
  4  3  2  0  0  0  0
  5  8  1  0  0  0  0
  5  4  2  0  0  0  0
  8 32  1  6  0  0  0
  8 10  1  0  0  0  0
  9  6  1  0  0  0  0
 10  1  1  1  0  0  0
 10 11  1  0  0  0  0
 11  7  1  0  0  0  0
 11  6  2  0  0  0  0
 12  5  1  0  0  0  0
 13 12  1  0  0  0  0
 14 13  1  0  0  0  0
 16 19  1  6  0  0  0
 16 17  1  0  0  0  0
 16 18  1  0  0  0  0
 17 15  1  6  0  0  0
 17 18  1  0  0  0  0
 18 14  1  1  0  0  0
 19 20  1  0  0  0  0
 20 21  1  6  0  0  0
 22 30  1  6  0  0  0
 22 20  1  0  0  0  0
 23 26  1  0  0  0  0
 24 23  2  0  0  0  0
 25 23  1  0  0  0  0
 25 22  1  0  0  0  0
 26 28  1  0  0  0  0
 27 28  1  0  0  0  0
 28 29  1  1  0  0  0
 31 30  2  0  0  0  0
 33 32  1  0  0  0  0
 34 35  2  0  0  0  0
 35 36  1  0  0  0  0
 35 33  1  0  0  0  0
 37 36  1  0  0  0  0
 37 39  1  0  0  0  0
 39 40  1  0  0  0  0
 39 38  1  1  0  0  0
 40 41  1  0  0  0  0
M  END
>  <MODEL>
5

>  <REMARK>
 VINA RESULT:      -6.8      3.085      7.678
  Name = 
  18 active torsions:
  status: ('A' for Active; 'I' for Inactive)
    1  A    between atoms: C_4  and  C_28
    2  A    between atoms: C_4  and  C_34
    3  A    between atoms: C_5  and  C_7
    4  A    between atoms: C_7  and  N_16
    5  A    between atoms: C_7  and  C_31
    6  A    between atoms: C_8  and  C_18
    7  A    between atoms: C_8  and  C_28
    8  A    between atoms: C_9  and  C_14
    9  A    between atoms: C_10  and  C_25
   10  A    between atoms: C_14  and  C_30
   11  A    between atoms: C_20  and  C_39
   12  A    between atoms: C_22  and  N_32
   13  A    between atoms: C_22  and  C_38
   14  A    between atoms: C_25  and  C_31
   15  A    between atoms: C_26  and  N_32
   16  A    between atoms: O_27  and  C_33
   17  A    between atoms: O_27  and  C_38
   18  A    between atoms: C_33  and  C_39
                            x       y       z     vdW  Elec       q    Type
                         _______ _______ _______ _____ _____    ______ ____

>  <TORSDO>
F 18

$$$$
=
 OpenBabel10222418433D

 41 43  0  0  1  0  0  0  0  0999 V2000
  187.0570  178.4530  145.9840 N   0  0  0  0  0  0  0  0  0  0  0  0
  181.7370  179.2900  143.3480 C   0  0  0  0  0  1  0  0  0  0  0  0
  183.1110  179.0030  143.8320 C   0  0  0  0  0  0  0  0  0  0  0  0
  184.0550  178.6590  143.0230 C   0  0  0  0  0  0  0  0  0  0  0  0
  185.2230  178.2800  142.6210 C   0  0  0  0  0  0  0  0  0  0  0  0
  184.9210  178.3740  146.9830 N   0  0  0  0  0  0  0  0  0  0  0  0
  183.4110  178.9290  145.2320 N   0  0  0  0  0  2  0  0  0  0  0  0
  186.1620  177.8740  143.7410 C   0  0  2  0  0  3  0  0  0  0  0  0
  186.3390  178.2240  147.2440 C   0  0  0  0  0  3  0  0  0  0  0  0
  186.0320  178.7920  144.9950 C   0  0  1  0  0  3  0  0  0  0  0  0
  184.7360  178.6580  145.7490 C   0  0  0  0  0  0  0  0  0  0  0  0
  185.6670  178.5090  141.2130 C   0  0  0  0  0  2  0  0  0  0  0  0
  184.5470  179.1400  140.4020 C   0  0  0  0  0  2  0  0  0  0  0  0
  184.3560  178.3950  139.0910 C   0  0  0  0  0  2  0  0  0  0  0  0
  180.9130  179.7260  138.8340 N   0  0  0  0  0  1  0  0  0  0  0  0
  182.1020  177.8420  139.9450 C   0  0  2  0  0  3  0  0  0  0  0  0
  182.1080  179.3250  139.5610 C   0  0  1  0  0  3  0  0  0  0  0  0
  182.8810  178.3150  138.7370 C   0  0  1  0  0  3  0  0  0  0  0  0
  180.8750  177.0660  139.4790 C   0  0  0  0  0  2  0  0  0  0  0  0
  181.1670  175.5700  139.4470 C   0  0  1  0  0  3  0  0  0  0  0  0
  180.0870  174.8730  140.2570 C   0  0  0  0  0  1  0  0  0  0  0  0
  181.2030  175.0360  138.0050 C   0  0  1  0  0  3  0  0  0  0  0  0
  181.1620  172.6250  137.1900 C   0  0  0  0  0  0  0  0  0  0  0  0
  180.5840  171.5070  137.1960 O   0  0  0  0  0  0  0  0  0  0  0  0
  180.6030  173.7070  137.9420 N   0  0  0  0  0  2  0  0  0  0  0  0
  182.4430  172.7900  136.4330 C   0  0  0  0  0  2  0  0  0  0  0  0
  184.1790  171.1060  136.1200 N   0  0  0  0  0  1  0  0  0  0  0  0
  183.5730  172.0070  137.0850 C   0  0  1  0  0  3  0  0  0  0  0  0
  184.6210  172.9740  137.5930 C   0  0  0  0  0  1  0  0  0  0  0  0
  180.4590  175.9450  137.0720 C   0  0  0  0  0  3  0  0  0  0  0  0
  180.7320  175.9580  135.7680 C   0  0  0  0  0  2  0  0  0  0  0  0
  187.5400  177.8490  143.2700 N   0  0  0  0  0  2  0  0  0  0  0  0
  187.9580  176.4570  143.2640 C   0  0  0  0  0  2  0  0  0  0  0  0
  189.4350  176.8360  141.4420 O   0  0  0  0  0  0  0  0  0  0  0  0
  189.2750  176.3350  142.5880 C   0  0  0  0  0  0  0  0  0  0  0  0
  190.3080  175.6370  143.2190 O   0  0  0  0  0  0  0  0  0  0  0  0
  191.5950  176.2060  143.4240 C   0  0  0  0  0  2  0  0  0  0  0  0
  190.4810  176.7970  145.4570 F   0  0  0  0  0  0  0  0  0  0  0  0
  191.6100  177.0460  144.6940 C   0  0  2  0  0  3  0  0  0  0  0  0
  191.6750  178.5240  144.3430 C   0  0  0  0  0  2  0  0  0  0  0  0
  190.4040  179.0260  144.1220 F   0  0  0  0  0  0  0  0  0  0  0  0
  1  9  2  0  0  0  0
  2  3  1  0  0  0  0
  3  7  1  0  0  0  0
  4  3  2  0  0  0  0
  5  4  2  0  0  0  0
  5  8  1  0  0  0  0
  6  9  1  0  0  0  0
  7 11  1  0  0  0  0
  8 32  1  6  0  0  0
  8 10  1  0  0  0  0
 10 11  1  1  0  0  0
 10  1  1  0  0  0  0
 11  6  2  0  0  0  0
 12  5  1  0  0  0  0
 13 12  1  0  0  0  0
 14 13  1  0  0  0  0
 16 19  1  6  0  0  0
 17 15  1  6  0  0  0
 17 16  1  0  0  0  0
 18 14  1  1  0  0  0
 18 17  1  0  0  0  0
 18 16  1  0  0  0  0
 20 19  1  0  0  0  0
 20 21  1  1  0  0  0
 22 30  1  6  0  0  0
 22 20  1  0  0  0  0
 23 24  2  0  0  0  0
 23 25  1  0  0  0  0
 25 22  1  0  0  0  0
 26 28  1  0  0  0  0
 26 23  1  0  0  0  0
 27 28  1  0  0  0  0
 28 29  1  6  0  0  0
 31 30  2  0  0  0  0
 33 32  1  0  0  0  0
 34 35  2  0  0  0  0
 35 36  1  0  0  0  0
 35 33  1  0  0  0  0
 36 37  1  0  0  0  0
 37 39  1  0  0  0  0
 39 38  1  6  0  0  0
 40 39  1  0  0  0  0
 41 40  1  0  0  0  0
M  END
>  <MODEL>
6

>  <REMARK>
 VINA RESULT:      -6.7      3.481      8.037
  Name = 
  18 active torsions:
  status: ('A' for Active; 'I' for Inactive)
    1  A    between atoms: C_4  and  C_28
    2  A    between atoms: C_4  and  C_34
    3  A    between atoms: C_5  and  C_7
    4  A    between atoms: C_7  and  N_16
    5  A    between atoms: C_7  and  C_31
    6  A    between atoms: C_8  and  C_18
    7  A    between atoms: C_8  and  C_28
    8  A    between atoms: C_9  and  C_14
    9  A    between atoms: C_10  and  C_25
   10  A    between atoms: C_14  and  C_30
   11  A    between atoms: C_20  and  C_39
   12  A    between atoms: C_22  and  N_32
   13  A    between atoms: C_22  and  C_38
   14  A    between atoms: C_25  and  C_31
   15  A    between atoms: C_26  and  N_32
   16  A    between atoms: O_27  and  C_33
   17  A    between atoms: O_27  and  C_38
   18  A    between atoms: C_33  and  C_39
                            x       y       z     vdW  Elec       q    Type
                         _______ _______ _______ _____ _____    ______ ____

>  <TORSDO>
F 18

$$$$
=
 OpenBabel10222418433D

 41 43  0  0  1  0  0  0  0  0999 V2000
  187.1330  178.4830  145.9790 N   0  0  0  0  0  0  0  0  0  0  0  0
  181.7430  179.2840  143.4770 C   0  0  0  0  0  1  0  0  0  0  0  0
  183.1300  179.0020  143.9280 C   0  0  0  0  0  0  0  0  0  0  0  0
  184.0500  178.6430  143.0990 C   0  0  0  0  0  0  0  0  0  0  0  0
  185.2060  178.2550  142.6720 C   0  0  0  0  0  0  0  0  0  0  0  0
  185.0250  178.4250  147.0370 N   0  0  0  0  0  0  0  0  0  0  0  0
  183.4680  178.9520  145.3200 N   0  0  0  0  0  2  0  0  0  0  0  0
  186.1760  177.8670  143.7720 C   0  0  2  0  0  3  0  0  0  0  0  0
  186.4500  178.2770  147.2620 C   0  0  0  0  0  3  0  0  0  0  0  0
  186.0820  178.8070  145.0130 C   0  0  1  0  0  3  0  0  0  0  0  0
  184.8070  178.6880  145.8050 C   0  0  0  0  0  0  0  0  0  0  0  0
  185.6120  178.4590  141.2480 C   0  0  0  0  0  2  0  0  0  0  0  0
  184.3930  178.7510  140.3880 C   0  0  0  0  0  2  0  0  0  0  0  0
  184.8060  179.0050  138.9490 C   0  0  0  0  0  2  0  0  0  0  0  0
  181.6210  177.9540  137.3850 N   0  0  0  0  0  1  0  0  0  0  0  0
  183.4660  176.9400  138.7150 C   0  0  2  0  0  3  0  0  0  0  0  0
  182.5280  178.1350  138.5080 C   0  0  1  0  0  3  0  0  0  0  0  0
  183.9550  178.1810  137.9990 C   0  0  1  0  0  3  0  0  0  0  0  0
  183.2940  175.8110  137.7030 C   0  0  0  0  0  2  0  0  0  0  0  0
  184.5600  174.9660  137.6250 C   0  0  1  0  0  3  0  0  0  0  0  0
  184.1710  173.6070  137.0670 C   0  0  0  0  0  1  0  0  0  0  0  0
  185.6290  175.6350  136.7450 C   0  0  1  0  0  3  0  0  0  0  0  0
  188.1020  175.2380  137.1960 C   0  0  0  0  0  0  0  0  0  0  0  0
  189.0890  174.4600  137.1190 O   0  0  0  0  0  0  0  0  0  0  0  0
  186.8320  174.8110  136.6930 N   0  0  0  0  0  2  0  0  0  0  0  0
  188.2650  176.5750  137.8500 C   0  0  0  0  0  2  0  0  0  0  0  0
  188.9250  177.2290  135.5960 N   0  0  0  0  0  1  0  0  0  0  0  0
  189.1320  177.4980  137.0080 C   0  0  1  0  0  3  0  0  0  0  0  0
  188.7620  178.9360  137.3030 C   0  0  0  0  0  1  0  0  0  0  0  0
  185.1270  175.8430  135.3460 C   0  0  0  0  0  3  0  0  0  0  0  0
  185.1460  177.0500  134.7840 C   0  0  0  0  0  2  0  0  0  0  0  0
  187.5400  177.8310  143.2640 N   0  0  0  0  0  2  0  0  0  0  0  0
  187.9370  176.4350  143.2200 C   0  0  0  0  0  2  0  0  0  0  0  0
  190.1180  175.6190  142.7460 O   0  0  0  0  0  0  0  0  0  0  0  0
  189.3920  176.3210  143.5010 C   0  0  0  0  0  0  0  0  0  0  0  0
  189.9280  176.9660  144.6180 O   0  0  0  0  0  0  0  0  0  0  0  0
  191.3050  176.8750  144.9600 C   0  0  0  0  0  2  0  0  0  0  0  0
  191.9690  175.5380  146.8290 F   0  0  0  0  0  0  0  0  0  0  0  0
  191.4740  176.7810  146.4700 C   0  0  2  0  0  3  0  0  0  0  0  0
  190.1420  177.0210  147.1620 C   0  0  0  0  0  2  0  0  0  0  0  0
  190.3150  177.8110  148.2860 F   0  0  0  0  0  0  0  0  0  0  0  0
  1  9  2  0  0  0  0
  2  3  1  0  0  0  0
  3  7  1  0  0  0  0
  4  3  2  0  0  0  0
  5  4  2  0  0  0  0
  5  8  1  0  0  0  0
  6  9  1  0  0  0  0
  7 11  1  0  0  0  0
  8 32  1  6  0  0  0
  8 10  1  0  0  0  0
 10 11  1  1  0  0  0
 10  1  1  0  0  0  0
 11  6  2  0  0  0  0
 12  5  1  0  0  0  0
 13 12  1  0  0  0  0
 14 13  1  0  0  0  0
 16 19  1  6  0  0  0
 17 15  1  6  0  0  0
 17 16  1  0  0  0  0
 18 17  1  0  0  0  0
 18 16  1  0  0  0  0
 18 14  1  1  0  0  0
 20 21  1  6  0  0  0
 20 19  1  0  0  0  0
 22 30  1  6  0  0  0
 22 20  1  0  0  0  0
 23 26  1  0  0  0  0
 24 23  2  0  0  0  0
 25 22  1  0  0  0  0
 25 23  1  0  0  0  0
 27 28  1  0  0  0  0
 28 29  1  6  0  0  0
 28 26  1  0  0  0  0
 31 30  2  0  0  0  0
 33 32  1  0  0  0  0
 33 35  1  0  0  0  0
 34 35  2  0  0  0  0
 35 36  1  0  0  0  0
 36 37  1  0  0  0  0
 37 39  1  0  0  0  0
 39 38  1  6  0  0  0
 39 40  1  0  0  0  0
 40 41  1  0  0  0  0
M  END
>  <MODEL>
7

>  <REMARK>
 VINA RESULT:      -6.7      2.847      6.433
  Name = 
  18 active torsions:
  status: ('A' for Active; 'I' for Inactive)
    1  A    between atoms: C_4  and  C_28
    2  A    between atoms: C_4  and  C_34
    3  A    between atoms: C_5  and  C_7
    4  A    between atoms: C_7  and  N_16
    5  A    between atoms: C_7  and  C_31
    6  A    between atoms: C_8  and  C_18
    7  A    between atoms: C_8  and  C_28
    8  A    between atoms: C_9  and  C_14
    9  A    between atoms: C_10  and  C_25
   10  A    between atoms: C_14  and  C_30
   11  A    between atoms: C_20  and  C_39
   12  A    between atoms: C_22  and  N_32
   13  A    between atoms: C_22  and  C_38
   14  A    between atoms: C_25  and  C_31
   15  A    between atoms: C_26  and  N_32
   16  A    between atoms: O_27  and  C_33
   17  A    between atoms: O_27  and  C_38
   18  A    between atoms: C_33  and  C_39
                            x       y       z     vdW  Elec       q    Type
                         _______ _______ _______ _____ _____    ______ ____

>  <TORSDO>
F 18

$$$$
=
 OpenBabel10222418433D

 41 43  0  0  1  0  0  0  0  0999 V2000
  189.0300  176.7640  142.6250 N   0  0  0  0  0  0  0  0  0  0  0  0
  184.5270  179.6010  139.8620 C   0  0  0  0  0  1  0  0  0  0  0  0
  185.5590  178.9550  140.7140 C   0  0  0  0  0  0  0  0  0  0  0  0
  185.3870  178.8000  141.9830 C   0  0  0  0  0  0  0  0  0  0  0  0
  185.6510  178.4810  143.2060 C   0  0  0  0  0  0  0  0  0  0  0  0
  189.0960  177.9240  140.5710 N   0  0  0  0  0  0  0  0  0  0  0  0
  186.8560  178.6280  140.1980 N   0  0  0  0  0  2  0  0  0  0  0  0
  187.0960  178.0880  143.4470 C   0  0  2  0  0  3  0  0  0  0  0  0
  189.9010  177.1770  141.5180 C   0  0  0  0  0  3  0  0  0  0  0  0
  187.6900  177.2410  142.2790 C   0  0  1  0  0  3  0  0  0  0  0  0
  187.8890  177.9920  140.9890 C   0  0  0  0  0  0  0  0  0  0  0  0
  184.5560  178.2510  144.1970 C   0  0  0  0  0  2  0  0  0  0  0  0
  183.5200  179.3590  144.1050 C   0  0  0  0  0  2  0  0  0  0  0  0
  182.1220  178.7730  144.0120 C   0  0  0  0  0  2  0  0  0  0  0  0
  179.6790  180.8680  142.1860 N   0  0  0  0  0  1  0  0  0  0  0  0
  180.1730  178.4510  142.5240 C   0  0  2  0  0  3  0  0  0  0  0  0
  180.0630  179.8460  143.1480 C   0  0  1  0  0  3  0  0  0  0  0  0
  181.4160  179.2800  142.7670 C   0  0  1  0  0  3  0  0  0  0  0  0
  179.8900  178.3970  141.0260 C   0  0  0  0  0  2  0  0  0  0  0  0
  180.9790  177.6130  140.3040 C   0  0  1  0  0  3  0  0  0  0  0  0
  180.4900  176.1830  140.1470 C   0  0  0  0  0  1  0  0  0  0  0  0
  181.3040  178.2350  138.9350 C   0  0  1  0  0  3  0  0  0  0  0  0
  181.7070  176.9900  136.7520 C   0  0  0  0  0  0  0  0  0  0  0  0
  181.2600  176.2100  135.8700 O   0  0  0  0  0  0  0  0  0  0  0  0
  180.8740  177.3470  137.8590 N   0  0  0  0  0  2  0  0  0  0  0  0
  183.1130  177.4940  136.6480 C   0  0  0  0  0  2  0  0  0  0  0  0
  183.8580  175.2750  137.3320 N   0  0  0  0  0  1  0  0  0  0  0  0
  184.0500  176.6990  137.5440 C   0  0  1  0  0  3  0  0  0  0  0  0
  185.4820  177.0650  137.2170 C   0  0  0  0  0  1  0  0  0  0  0  0
  180.6210  179.5610  138.7660 C   0  0  0  0  0  3  0  0  0  0  0  0
  181.2910  180.6230  138.3220 C   0  0  0  0  0  2  0  0  0  0  0  0
  187.2290  177.3740  144.7100 N   0  0  0  0  0  2  0  0  0  0  0  0
  188.1920  178.1110  145.5110 C   0  0  0  0  0  2  0  0  0  0  0  0
  187.2460  177.9920  147.6870 O   0  0  0  0  0  0  0  0  0  0  0  0
  188.1620  177.6110  146.9100 C   0  0  0  0  0  0  0  0  0  0  0  0
  189.1710  176.7530  147.3530 O   0  0  0  0  0  0  0  0  0  0  0  0
  190.5350  177.1500  147.4150 C   0  0  0  0  0  2  0  0  0  0  0  0
  192.6300  175.9950  147.4160 F   0  0  0  0  0  0  0  0  0  0  0  0
  191.4240  176.1120  146.7440 C   0  0  2  0  0  3  0  0  0  0  0  0
  191.6800  176.4990  145.2960 C   0  0  0  0  0  2  0  0  0  0  0  0
  191.4900  177.8590  145.1180 F   0  0  0  0  0  0  0  0  0  0  0  0
  2  3  1  0  0  0  0
  3  4  2  0  0  0  0
  4  5  2  0  0  0  0
  5  8  1  0  0  0  0
  5 12  1  0  0  0  0
  6 11  2  0  0  0  0
  6  9  1  0  0  0  0
  7  3  1  0  0  0  0
  7 11  1  0  0  0  0
  8 32  1  1  0  0  0
  9  1  2  0  0  0  0
 10 11  1  6  0  0  0
 10  1  1  0  0  0  0
 10  8  1  0  0  0  0
 13 12  1  0  0  0  0
 14 13  1  0  0  0  0
 16 19  1  6  0  0  0
 16 18  1  0  0  0  0
 16 17  1  0  0  0  0
 17 15  1  6  0  0  0
 18 17  1  0  0  0  0
 18 14  1  1  0  0  0
 20 21  1  6  0  0  0
 20 19  1  0  0  0  0
 22 30  1  6  0  0  0
 22 20  1  0  0  0  0
 23 25  1  0  0  0  0
 24 23  2  0  0  0  0
 25 22  1  0  0  0  0
 26 23  1  0  0  0  0
 26 28  1  0  0  0  0
 27 28  1  0  0  0  0
 28 29  1  6  0  0  0
 31 30  2  0  0  0  0
 32 33  1  0  0  0  0
 33 35  1  0  0  0  0
 35 36  1  0  0  0  0
 35 34  2  0  0  0  0
 36 37  1  0  0  0  0
 39 37  1  0  0  0  0
 39 38  1  1  0  0  0
 40 39  1  0  0  0  0
 41 40  1  0  0  0  0
M  END
>  <MODEL>
8

>  <REMARK>
 VINA RESULT:      -6.7      2.796      8.228
  Name = 
  18 active torsions:
  status: ('A' for Active; 'I' for Inactive)
    1  A    between atoms: C_4  and  C_28
    2  A    between atoms: C_4  and  C_34
    3  A    between atoms: C_5  and  C_7
    4  A    between atoms: C_7  and  N_16
    5  A    between atoms: C_7  and  C_31
    6  A    between atoms: C_8  and  C_18
    7  A    between atoms: C_8  and  C_28
    8  A    between atoms: C_9  and  C_14
    9  A    between atoms: C_10  and  C_25
   10  A    between atoms: C_14  and  C_30
   11  A    between atoms: C_20  and  C_39
   12  A    between atoms: C_22  and  N_32
   13  A    between atoms: C_22  and  C_38
   14  A    between atoms: C_25  and  C_31
   15  A    between atoms: C_26  and  N_32
   16  A    between atoms: O_27  and  C_33
   17  A    between atoms: O_27  and  C_38
   18  A    between atoms: C_33  and  C_39
                            x       y       z     vdW  Elec       q    Type
                         _______ _______ _______ _____ _____    ______ ____

>  <TORSDO>
F 18

$$$$
=
 OpenBabel10222418433D

 41 43  0  0  1  0  0  0  0  0999 V2000
  190.9300  176.7660  145.2040 N   0  0  0  0  0  0  0  0  0  0  0  0
  185.6040  178.7980  147.0650 C   0  0  0  0  0  1  0  0  0  0  0  0
  186.8290  178.2290  146.4460 C   0  0  0  0  0  0  0  0  0  0  0  0
  186.8480  177.8450  145.2150 C   0  0  0  0  0  0  0  0  0  0  0  0
  187.2970  177.3370  144.1160 C   0  0  0  0  0  0  0  0  0  0  0  0
  190.1300  176.9070  147.4200 N   0  0  0  0  0  0  0  0  0  0  0  0
  187.9900  177.9250  147.2300 N   0  0  0  0  0  2  0  0  0  0  0  0
  188.6370  176.6390  144.2580 C   0  0  2  0  0  3  0  0  0  0  0  0
  191.2590  176.4940  146.6090 C   0  0  0  0  0  3  0  0  0  0  0  0
  189.6080  177.3940  145.2180 C   0  0  1  0  0  3  0  0  0  0  0  0
  189.2070  177.3760  146.6680 C   0  0  0  0  0  0  0  0  0  0  0  0
  186.6760  177.6720  142.7990 C   0  0  0  0  0  2  0  0  0  0  0  0
  185.4630  178.5660  143.0000 C   0  0  0  0  0  2  0  0  0  0  0  0
  184.2280  177.9320  142.3830 C   0  0  0  0  0  2  0  0  0  0  0  0
  184.6810  179.6300  139.1270 N   0  0  0  0  0  1  0  0  0  0  0  0
  182.9350  178.3060  140.3090 C   0  0  2  0  0  3  0  0  0  0  0  0
  184.0080  179.3950  140.3960 C   0  0  1  0  0  3  0  0  0  0  0  0
  184.3040  177.9850  140.8680 C   0  0  1  0  0  3  0  0  0  0  0  0
  182.7890  177.6600  138.9350 C   0  0  0  0  0  2  0  0  0  0  0  0
  183.0830  176.1670  139.0100 C   0  0  1  0  0  3  0  0  0  0  0  0
  181.7560  175.4440  139.1670 C   0  0  0  0  0  1  0  0  0  0  0  0
  183.8300  175.6780  137.7580 C   0  0  1  0  0  3  0  0  0  0  0  0
  183.8270  173.2030  137.1630 C   0  0  0  0  0  0  0  0  0  0  0  0
  183.1980  172.2210  136.6890 O   0  0  0  0  0  0  0  0  0  0  0  0
  183.1880  174.4820  137.2190 N   0  0  0  0  0  2  0  0  0  0  0  0
  185.2120  173.0060  137.6960 C   0  0  0  0  0  2  0  0  0  0  0  0
  186.1970  173.6900  135.5720 N   0  0  0  0  0  1  0  0  0  0  0  0
  186.1850  172.6470  136.5830 C   0  0  1  0  0  3  0  0  0  0  0  0
  187.5750  172.4980  137.1640 C   0  0  0  0  0  1  0  0  0  0  0  0
  183.8520  176.7340  136.6930 C   0  0  0  0  0  3  0  0  0  0  0  0
  184.9920  177.3210  136.3340 C   0  0  0  0  0  2  0  0  0  0  0  0
  189.2570  176.4510  142.9530 N   0  0  0  0  0  2  0  0  0  0  0  0
  189.8730  177.7170  142.5930 C   0  0  0  0  0  2  0  0  0  0  0  0
  192.1090  177.1300  142.0470 O   0  0  0  0  0  0  0  0  0  0  0  0
  190.9740  177.4790  141.6250 C   0  0  0  0  0  0  0  0  0  0  0  0
  190.7440  177.6790  140.2610 O   0  0  0  0  0  0  0  0  0  0  0  0
  189.9940  176.7610  139.4750 C   0  0  0  0  0  2  0  0  0  0  0  0
  187.9510  176.5010  138.2590 F   0  0  0  0  0  0  0  0  0  0  0  0
  188.7140  177.4120  138.9700 C   0  0  2  0  0  3  0  0  0  0  0  0
  189.0470  178.6030  138.0850 C   0  0  0  0  0  2  0  0  0  0  0  0
  187.9120  179.0520  137.4310 F   0  0  0  0  0  0  0  0  0  0  0  0
  1  9  2  0  0  0  0
  3  2  1  0  0  0  0
  3  7  1  0  0  0  0
  4  3  2  0  0  0  0
  5  8  1  0  0  0  0
  5  4  2  0  0  0  0
  8 32  1  6  0  0  0
  8 10  1  0  0  0  0
  9  6  1  0  0  0  0
 10  1  1  1  0  0  0
 10 11  1  0  0  0  0
 11  7  1  0  0  0  0
 11  6  2  0  0  0  0
 12 13  1  0  0  0  0
 12  5  1  0  0  0  0
 14 13  1  0  0  0  0
 16 19  1  6  0  0  0
 16 17  1  0  0  0  0
 16 18  1  0  0  0  0
 17 15  1  6  0  0  0
 17 18  1  0  0  0  0
 18 14  1  1  0  0  0
 19 20  1  0  0  0  0
 20 21  1  6  0  0  0
 22 30  1  6  0  0  0
 22 20  1  0  0  0  0
 23 25  1  0  0  0  0
 23 26  1  0  0  0  0
 24 23  2  0  0  0  0
 25 22  1  0  0  0  0
 27 28  1  0  0  0  0
 28 29  1  1  0  0  0
 28 26  1  0  0  0  0
 31 30  2  0  0  0  0
 33 32  1  0  0  0  0
 35 34  2  0  0  0  0
 35 33  1  0  0  0  0
 36 35  1  0  0  0  0
 37 36  1  0  0  0  0
 39 38  1  6  0  0  0
 39 37  1  0  0  0  0
 40 39  1  0  0  0  0
 41 40  1  0  0  0  0
M  END
>  <MODEL>
9

>  <REMARK>
 VINA RESULT:      -6.6      3.704      8.739
  Name = 
  18 active torsions:
  status: ('A' for Active; 'I' for Inactive)
    1  A    between atoms: C_4  and  C_28
    2  A    between atoms: C_4  and  C_34
    3  A    between atoms: C_5  and  C_7
    4  A    between atoms: C_7  and  N_16
    5  A    between atoms: C_7  and  C_31
    6  A    between atoms: C_8  and  C_18
    7  A    between atoms: C_8  and  C_28
    8  A    between atoms: C_9  and  C_14
    9  A    between atoms: C_10  and  C_25
   10  A    between atoms: C_14  and  C_30
   11  A    between atoms: C_20  and  C_39
   12  A    between atoms: C_22  and  N_32
   13  A    between atoms: C_22  and  C_38
   14  A    between atoms: C_25  and  C_31
   15  A    between atoms: C_26  and  N_32
   16  A    between atoms: O_27  and  C_33
   17  A    between atoms: O_27  and  C_38
   18  A    between atoms: C_33  and  C_39
                            x       y       z     vdW  Elec       q    Type
                         _______ _______ _______ _____ _____    ______ ____

>  <TORSDO>
F 18

$$$$
