=
 OpenBabel10222417263D

 28 31  0  0  0  0  0  0  0  0999 V2000
  183.0590  178.4620  141.1050 N   0  0  0  0  0  0  0  0  0  0  0  0
  185.3990  178.0520  141.7080 N   0  0  0  0  0  0  0  0  0  0  0  0
  187.0950  177.6870  146.8350 C   0  0  0  0  0  2  0  0  0  0  0  0
  185.1430  178.2200  143.8970 C   0  0  0  0  0  0  0  0  0  0  0  0
  186.0270  177.9910  142.8940 C   0  0  0  0  0  0  0  0  0  0  0  0
  189.9050  178.2380  145.9480 C   0  0  0  0  0  3  0  0  0  0  0  0
  185.5150  178.1900  145.2290 C   0  0  0  0  0  3  0  0  0  0  0  0
  187.3940  177.8010  143.1300 C   0  0  0  0  0  0  0  0  0  0  0  0
  186.8630  177.9460  145.5450 C   0  0  0  0  0  0  0  0  0  0  0  0
  184.1140  178.3110  142.0660 C   0  0  0  0  0  0  0  0  0  0  0  0
  183.9120  178.4200  143.4050 N   0  0  0  0  0  2  0  0  0  0  0  0
  188.3390  177.0750  147.3800 C   0  0  0  0  0  2  0  0  0  0  0  0
  187.8450  177.8500  144.4900 C   0  0  0  0  0  0  0  0  0  0  0  0
  189.5030  177.9010  147.1300 N   0  0  0  0  0  0  0  0  0  0  0  0
  189.1740  177.9580  144.6980 C   0  0  0  0  0  2  0  0  0  0  0  0
  188.9210  179.0710  138.6220 O   0  0  0  0  0  1  0  0  0  0  0  0
  190.0070  177.2490  139.7700 C   0  0  0  0  0  3  0  0  0  0  0  0
  188.1910  178.4440  140.8340 C   0  0  0  0  0  3  0  0  0  0  0  0
  188.3070  177.6290  141.9700 C   0  0  0  0  0  0  0  0  0  0  0  0
  189.0400  178.2570  139.7400 C   0  0  0  0  0  0  0  0  0  0  0  0
  190.1230  176.4260  140.8930 C   0  0  0  0  0  3  0  0  0  0  0  0
  189.2750  176.6130  141.9880 C   0  0  0  0  0  3  0  0  0  0  0  0
  181.6970  178.7590  141.5290 C   0  0  0  0  0  2  0  0  0  0  0  0
  180.7150  177.8420  140.8230 C   0  0  0  0  0  1  0  0  0  0  0  0
  183.3560  178.4610  139.6790 C   0  0  0  0  0  2  0  0  0  0  0  0
  184.4690  180.4800  139.0710 O   0  0  0  0  0  1  0  0  0  0  0  0
  182.2030  180.4540  138.7230 O   0  0  0  0  0  0  0  0  0  0  0  0
  183.3790  179.8550  139.1540 C   0  0  0  0  0  0  0  0  0  0  0  0
  1 23  1  0  0  0  0
  1 10  1  0  0  0  0
  2 10  2  0  0  0  0
  2  5  1  0  0  0  0
  3 12  1  0  0  0  0
  4  7  1  0  0  0  0
  5  8  1  0  0  0  0
  5  4  2  0  0  0  0
  6 14  2  0  0  0  0
  7  9  2  0  0  0  0
  8 13  2  0  0  0  0
  9  3  1  0  0  0  0
 10 11  1  0  0  0  0
 11  4  1  0  0  0  0
 13 15  1  0  0  0  0
 13  9  1  0  0  0  0
 14 12  1  0  0  0  0
 15  6  1  0  0  0  0
 16 20  1  0  0  0  0
 17 21  1  0  0  0  0
 18 19  2  0  0  0  0
 19 22  1  0  0  0  0
 19  8  1  0  0  0  0
 20 17  2  0  0  0  0
 20 18  1  0  0  0  0
 21 22  2  0  0  0  0
 24 23  1  0  0  0  0
 25  1  1  0  0  0  0
 26 28  1  0  0  0  0
 27 28  2  0  0  0  0
 28 25  1  0  0  0  0
M  END
>  <MODEL>
1

>  <REMARK>
 VINA RESULT:      -9.0      0.000      0.000
  Name = 
  4 active torsions:
  status: ('A' for Active; 'I' for Inactive)
    1  A    between atoms: C_1  and  N_6
    2  A    between atoms: N_6  and  C_28
    3  A    between atoms: C_15  and  C_20
    4  A    between atoms: C_17  and  C_28
                            x       y       z     vdW  Elec       q    Type
                         _______ _______ _______ _____ _____    ______ ____

>  <TORSDO>
F 4

$$$$
=
 OpenBabel10222417263D

 28 31  0  0  0  0  0  0  0  0999 V2000
  189.4420  177.4110  139.7060 N   0  0  0  0  0  0  0  0  0  0  0  0
  188.0260  177.7970  141.6690 N   0  0  0  0  0  0  0  0  0  0  0  0
  189.8950  177.5400  146.7420 C   0  0  0  0  0  2  0  0  0  0  0  0
  189.5570  177.3420  143.1960 C   0  0  0  0  0  0  0  0  0  0  0  0
  188.2710  177.7200  142.9880 C   0  0  0  0  0  0  0  0  0  0  0  0
  187.0970  177.1780  147.7570 C   0  0  0  0  0  3  0  0  0  0  0  0
  190.0890  177.2090  144.4660 C   0  0  0  0  0  3  0  0  0  0  0  0
  187.3680  177.9130  144.0400 C   0  0  0  0  0  0  0  0  0  0  0  0
  189.2550  177.4440  145.5720 C   0  0  0  0  0  0  0  0  0  0  0  0
  189.2240  177.4630  141.1240 C   0  0  0  0  0  0  0  0  0  0  0  0
  190.1960  177.1770  142.0290 N   0  0  0  0  0  2  0  0  0  0  0  0
  189.3190  178.1070  147.9930 C   0  0  0  0  0  2  0  0  0  0  0  0
  187.8480  177.6990  145.3730 C   0  0  0  0  0  0  0  0  0  0  0  0
  188.1740  177.3490  148.4540 N   0  0  0  0  0  0  0  0  0  0  0  0
  186.9270  177.5990  146.3540 C   0  0  0  0  0  2  0  0  0  0  0  0
  183.5000  177.8570  140.9880 O   0  0  0  0  0  1  0  0  0  0  0  0
  183.3070  178.9620  143.1230 C   0  0  0  0  0  3  0  0  0  0  0  0
  185.3820  177.8840  142.4970 C   0  0  0  0  0  3  0  0  0  0  0  0
  185.9560  178.2550  143.7220 C   0  0  0  0  0  0  0  0  0  0  0  0
  184.0620  178.2330  142.2000 C   0  0  0  0  0  0  0  0  0  0  0  0
  183.8740  179.3440  144.3420 C   0  0  0  0  0  3  0  0  0  0  0  0
  185.1940  178.9950  144.6390 C   0  0  0  0  0  3  0  0  0  0  0  0
  190.7380  177.0280  139.1610 C   0  0  0  0  0  2  0  0  0  0  0  0
  190.6290  175.7000  138.4330 C   0  0  0  0  0  1  0  0  0  0  0  0
  188.3310  177.6030  138.7830 C   0  0  0  0  0  2  0  0  0  0  0  0
  188.9700  179.7350  137.9270 O   0  0  0  0  0  1  0  0  0  0  0  0
  188.8660  178.0400  136.3870 O   0  0  0  0  0  0  0  0  0  0  0  0
  188.7280  178.5240  137.6810 C   0  0  0  0  0  0  0  0  0  0  0  0
  1 10  1  0  0  0  0
  2  5  1  0  0  0  0
  3 12  1  0  0  0  0
  4  7  1  0  0  0  0
  5  4  2  0  0  0  0
  5  8  1  0  0  0  0
  6 14  2  0  0  0  0
  7  9  2  0  0  0  0
  8 13  2  0  0  0  0
  9  3  1  0  0  0  0
 10  2  2  0  0  0  0
 10 11  1  0  0  0  0
 11  4  1  0  0  0  0
 12 14  1  0  0  0  0
 13  9  1  0  0  0  0
 13 15  1  0  0  0  0
 15  6  1  0  0  0  0
 16 20  1  0  0  0  0
 17 21  1  0  0  0  0
 18 19  2  0  0  0  0
 19  8  1  0  0  0  0
 19 22  1  0  0  0  0
 20 18  1  0  0  0  0
 20 17  2  0  0  0  0
 21 22  2  0  0  0  0
 23  1  1  0  0  0  0
 24 23  1  0  0  0  0
 25  1  1  0  0  0  0
 27 28  2  0  0  0  0
 28 26  1  0  0  0  0
 28 25  1  0  0  0  0
M  END
>  <MODEL>
2

>  <REMARK>
 VINA RESULT:      -8.9      2.221      5.286
  Name = 
  4 active torsions:
  status: ('A' for Active; 'I' for Inactive)
    1  A    between atoms: C_1  and  N_6
    2  A    between atoms: N_6  and  C_28
    3  A    between atoms: C_15  and  C_20
    4  A    between atoms: C_17  and  C_28
                            x       y       z     vdW  Elec       q    Type
                         _______ _______ _______ _____ _____    ______ ____

>  <TORSDO>
F 4

$$$$
=
 OpenBabel10222417263D

 28 31  0  0  0  0  0  0  0  0999 V2000
  189.7310  176.9190  139.5210 N   0  0  0  0  0  0  0  0  0  0  0  0
  188.3790  177.4500  141.4950 N   0  0  0  0  0  0  0  0  0  0  0  0
  190.3310  177.2540  146.5390 C   0  0  0  0  0  2  0  0  0  0  0  0
  189.9120  176.9590  143.0090 C   0  0  0  0  0  0  0  0  0  0  0  0
  188.6460  177.4020  142.8110 C   0  0  0  0  0  0  0  0  0  0  0  0
  187.5390  177.0860  147.6170 C   0  0  0  0  0  3  0  0  0  0  0  0
  190.4610  176.8370  144.2730 C   0  0  0  0  0  3  0  0  0  0  0  0
  187.7750  177.6810  143.8720 C   0  0  0  0  0  0  0  0  0  0  0  0
  189.6640  177.1560  145.3850 C   0  0  0  0  0  0  0  0  0  0  0  0
  189.5450  177.0300  140.9410 C   0  0  0  0  0  0  0  0  0  0  0  0
  190.5170  176.7190  141.8370 N   0  0  0  0  0  2  0  0  0  0  0  0
  189.8130  177.8930  147.7810 C   0  0  0  0  0  2  0  0  0  0  0  0
  188.2690  177.4840  145.2030 C   0  0  0  0  0  0  0  0  0  0  0  0
  188.6370  177.2180  148.2880 N   0  0  0  0  0  0  0  0  0  0  0  0
  187.3640  177.4690  146.2040 C   0  0  0  0  0  2  0  0  0  0  0  0
  183.3240  179.2200  145.3180 O   0  0  0  0  0  1  0  0  0  0  0  0
  183.7320  178.8100  142.9760 C   0  0  0  0  0  3  0  0  0  0  0  0
  185.5020  178.4760  144.5930 C   0  0  0  0  0  3  0  0  0  0  0  0
  186.3800  178.0920  143.5690 C   0  0  0  0  0  0  0  0  0  0  0  0
  184.1850  178.8370  144.2980 C   0  0  0  0  0  0  0  0  0  0  0  0
  184.5960  178.4200  141.9500 C   0  0  0  0  0  3  0  0  0  0  0  0
  185.9140  178.0590  142.2450 C   0  0  0  0  0  3  0  0  0  0  0  0
  190.9920  176.4440  138.9660 C   0  0  0  0  0  2  0  0  0  0  0  0
  190.7400  175.3240  137.9740 C   0  0  0  0  0  1  0  0  0  0  0  0
  188.6150  177.1440  138.6130 C   0  0  0  0  0  2  0  0  0  0  0  0
  188.9590  179.4790  138.2770 O   0  0  0  0  0  1  0  0  0  0  0  0
  189.0640  178.1810  136.3900 O   0  0  0  0  0  0  0  0  0  0  0  0
  188.8760  178.3350  137.7570 C   0  0  0  0  0  0  0  0  0  0  0  0
  1 10  1  0  0  0  0
  2  5  1  0  0  0  0
  3 12  1  0  0  0  0
  4  7  1  0  0  0  0
  5  4  2  0  0  0  0
  5  8  1  0  0  0  0
  6 14  2  0  0  0  0
  7  9  2  0  0  0  0
  8 13  2  0  0  0  0
  9  3  1  0  0  0  0
 10  2  2  0  0  0  0
 10 11  1  0  0  0  0
 11  4  1  0  0  0  0
 12 14  1  0  0  0  0
 13  9  1  0  0  0  0
 13 15  1  0  0  0  0
 15  6  1  0  0  0  0
 17 20  1  0  0  0  0
 19  8  1  0  0  0  0
 19 18  1  0  0  0  0
 20 18  2  0  0  0  0
 20 16  1  0  0  0  0
 21 22  1  0  0  0  0
 21 17  2  0  0  0  0
 22 19  2  0  0  0  0
 23  1  1  0  0  0  0
 24 23  1  0  0  0  0
 25  1  1  0  0  0  0
 27 28  2  0  0  0  0
 28 26  1  0  0  0  0
 28 25  1  0  0  0  0
M  END
>  <MODEL>
3

>  <REMARK>
 VINA RESULT:      -8.8      2.620      5.507
  Name = 
  4 active torsions:
  status: ('A' for Active; 'I' for Inactive)
    1  A    between atoms: C_1  and  N_6
    2  A    between atoms: N_6  and  C_28
    3  A    between atoms: C_15  and  C_20
    4  A    between atoms: C_17  and  C_28
                            x       y       z     vdW  Elec       q    Type
                         _______ _______ _______ _____ _____    ______ ____

>  <TORSDO>
F 4

$$$$
=
 OpenBabel10222417263D

 28 31  0  0  0  0  0  0  0  0999 V2000
  188.1460  178.1990  137.9620 N   0  0  0  0  0  0  0  0  0  0  0  0
  188.2860  177.8470  140.3830 N   0  0  0  0  0  0  0  0  0  0  0  0
  184.1350  178.7600  143.7340 C   0  0  0  0  0  2  0  0  0  0  0  0
  186.2670  178.5970  140.8790 C   0  0  0  0  0  0  0  0  0  0  0  0
  187.4120  178.0700  141.3790 C   0  0  0  0  0  0  0  0  0  0  0  0
  186.0340  178.9190  146.0480 C   0  0  0  0  0  3  0  0  0  0  0  0
  185.1830  178.9000  141.6820 C   0  0  0  0  0  3  0  0  0  0  0  0
  187.6120  177.8810  142.7520 C   0  0  0  0  0  0  0  0  0  0  0  0
  185.2900  178.6820  143.0660 C   0  0  0  0  0  0  0  0  0  0  0  0
  187.5960  178.2540  139.2870 C   0  0  0  0  0  0  0  0  0  0  0  0
  186.3470  178.7210  139.5460 N   0  0  0  0  0  2  0  0  0  0  0  0
  183.9040  178.2530  145.1150 C   0  0  0  0  0  2  0  0  0  0  0  0
  186.5500  178.2640  143.6350 C   0  0  0  0  0  0  0  0  0  0  0  0
  184.7410  178.9250  146.0870 N   0  0  0  0  0  0  0  0  0  0  0  0
  186.8410  178.3560  144.9500 C   0  0  0  0  0  2  0  0  0  0  0  0
  192.1100  178.6130  144.6250 O   0  0  0  0  0  1  0  0  0  0  0  0
  191.4150  176.3750  144.0560 C   0  0  0  0  0  3  0  0  0  0  0  0
  189.9070  178.2370  143.7160 C   0  0  0  0  0  3  0  0  0  0  0  0
  188.9240  177.3660  143.2240 C   0  0  0  0  0  0  0  0  0  0  0  0
  191.1460  177.7440  144.1340 C   0  0  0  0  0  0  0  0  0  0  0  0
  190.4460  175.5000  143.5570 C   0  0  0  0  0  3  0  0  0  0  0  0
  189.2070  175.9940  143.1400 C   0  0  0  0  0  3  0  0  0  0  0  0
  187.3800  178.6640  136.8130 C   0  0  0  0  0  2  0  0  0  0  0  0
  186.4820  177.5540  136.2970 C   0  0  0  0  0  1  0  0  0  0  0  0
  189.5350  177.8080  137.7570 C   0  0  0  0  0  2  0  0  0  0  0  0
  189.0330  175.5560  137.1580 O   0  0  0  0  0  0  0  0  0  0  0  0
  190.5700  175.8140  138.8390 O   0  0  0  0  0  1  0  0  0  0  0  0
  189.6840  176.3330  137.9040 C   0  0  0  0  0  0  0  0  0  0  0  0
  1 10  1  0  0  0  0
  2  5  1  0  0  0  0
  3 12  1  0  0  0  0
  4  5  2  0  0  0  0
  4  7  1  0  0  0  0
  5  8  1  0  0  0  0
  6 14  2  0  0  0  0
  7  9  2  0  0  0  0
  8 19  1  0  0  0  0
  8 13  2  0  0  0  0
  9 13  1  0  0  0  0
  9  3  1  0  0  0  0
 10 11  1  0  0  0  0
 10  2  2  0  0  0  0
 11  4  1  0  0  0  0
 12 14  1  0  0  0  0
 13 15  1  0  0  0  0
 15  6  1  0  0  0  0
 17 20  1  0  0  0  0
 18 20  2  0  0  0  0
 19 18  1  0  0  0  0
 20 16  1  0  0  0  0
 21 17  2  0  0  0  0
 22 19  2  0  0  0  0
 22 21  1  0  0  0  0
 23  1  1  0  0  0  0
 24 23  1  0  0  0  0
 25 28  1  0  0  0  0
 25  1  1  0  0  0  0
 26 28  2  0  0  0  0
 28 27  1  0  0  0  0
M  END
>  <MODEL>
4

>  <REMARK>
 VINA RESULT:      -8.8      3.167      4.919
  Name = 
  4 active torsions:
  status: ('A' for Active; 'I' for Inactive)
    1  A    between atoms: C_1  and  N_6
    2  A    between atoms: N_6  and  C_28
    3  A    between atoms: C_15  and  C_20
    4  A    between atoms: C_17  and  C_28
                            x       y       z     vdW  Elec       q    Type
                         _______ _______ _______ _____ _____    ______ ____

>  <TORSDO>
F 4

$$$$
=
 OpenBabel10222417263D

 28 31  0  0  0  0  0  0  0  0999 V2000
  188.8360  178.2990  139.3910 N   0  0  0  0  0  0  0  0  0  0  0  0
  187.2590  178.2370  141.2670 N   0  0  0  0  0  0  0  0  0  0  0  0
  181.9030  178.6800  140.6240 C   0  0  0  0  0  2  0  0  0  0  0  0
  185.4300  178.6320  140.0910 C   0  0  0  0  0  0  0  0  0  0  0  0
  185.9260  178.3900  141.3300 C   0  0  0  0  0  0  0  0  0  0  0  0
  181.6170  179.4430  143.5090 C   0  0  0  0  0  3  0  0  0  0  0  0
  184.0770  178.8030  139.8590 C   0  0  0  0  0  3  0  0  0  0  0  0
  185.1160  178.3880  142.4730 C   0  0  0  0  0  0  0  0  0  0  0  0
  183.1960  178.7560  140.9530 C   0  0  0  0  0  0  0  0  0  0  0  0
  187.5120  178.3860  139.9410 C   0  0  0  0  0  0  0  0  0  0  0  0
  186.4140  178.6290  139.1800 N   0  0  0  0  0  2  0  0  0  0  0  0
  180.8030  178.2860  141.5470 C   0  0  0  0  0  2  0  0  0  0  0  0
  183.7180  178.6500  142.2950 C   0  0  0  0  0  0  0  0  0  0  0  0
  180.6720  179.2050  142.6590 N   0  0  0  0  0  0  0  0  0  0  0  0
  182.9970  178.9350  143.4000 C   0  0  0  0  0  2  0  0  0  0  0  0
  185.6100  179.5580  147.2330 O   0  0  0  0  0  1  0  0  0  0  0  0
  187.0010  177.8280  146.2890 C   0  0  0  0  0  3  0  0  0  0  0  0
  185.3730  178.9670  144.9060 C   0  0  0  0  0  3  0  0  0  0  0  0
  185.7500  178.1870  143.8020 C   0  0  0  0  0  0  0  0  0  0  0  0
  185.9930  178.7860  146.1450 C   0  0  0  0  0  0  0  0  0  0  0  0
  187.3900  177.0540  145.1930 C   0  0  0  0  0  3  0  0  0  0  0  0
  186.7690  177.2350  143.9530 C   0  0  0  0  0  3  0  0  0  0  0  0
  189.0680  178.4850  137.9650 C   0  0  0  0  0  2  0  0  0  0  0  0
  188.6290  177.2520  137.1970 C   0  0  0  0  0  1  0  0  0  0  0  0
  189.9900  178.1630  140.2700 C   0  0  0  0  0  2  0  0  0  0  0  0
  190.7350  176.0280  139.5140 O   0  0  0  0  0  0  0  0  0  0  0  0
  190.1960  176.1590  141.7380 O   0  0  0  0  0  1  0  0  0  0  0  0
  190.3170  176.7240  140.4760 C   0  0  0  0  0  0  0  0  0  0  0  0
  1 10  1  0  0  0  0
  1 25  1  0  0  0  0
  2  5  1  0  0  0  0
  3  9  1  0  0  0  0
  3 12  1  0  0  0  0
  4  5  1  0  0  0  0
  5  8  2  0  0  0  0
  7  4  2  0  0  0  0
  7  9  1  0  0  0  0
  8 19  1  0  0  0  0
  9 13  2  0  0  0  0
 10  2  2  0  0  0  0
 11 10  1  0  0  0  0
 11  4  1  0  0  0  0
 12 14  1  0  0  0  0
 13  8  1  0  0  0  0
 13 15  1  0  0  0  0
 14  6  2  0  0  0  0
 15  6  1  0  0  0  0
 18 20  2  0  0  0  0
 19 22  2  0  0  0  0
 19 18  1  0  0  0  0
 20 17  1  0  0  0  0
 20 16  1  0  0  0  0
 21 17  2  0  0  0  0
 22 21  1  0  0  0  0
 23  1  1  0  0  0  0
 24 23  1  0  0  0  0
 25 28  1  0  0  0  0
 26 28  2  0  0  0  0
 28 27  1  0  0  0  0
M  END
>  <MODEL>
5

>  <REMARK>
 VINA RESULT:      -8.3      3.042      6.616
  Name = 
  4 active torsions:
  status: ('A' for Active; 'I' for Inactive)
    1  A    between atoms: C_1  and  N_6
    2  A    between atoms: N_6  and  C_28
    3  A    between atoms: C_15  and  C_20
    4  A    between atoms: C_17  and  C_28
                            x       y       z     vdW  Elec       q    Type
                         _______ _______ _______ _____ _____    ______ ____

>  <TORSDO>
F 4

$$$$
=
 OpenBabel10222417263D

 28 31  0  0  0  0  0  0  0  0999 V2000
  190.5830  176.9340  146.0010 N   0  0  0  0  0  0  0  0  0  0  0  0
  189.0440  177.4370  144.1610 N   0  0  0  0  0  0  0  0  0  0  0  0
  183.9220  178.9990  144.9510 C   0  0  0  0  0  2  0  0  0  0  0  0
  187.2540  177.8060  145.4030 C   0  0  0  0  0  0  0  0  0  0  0  0
  187.7430  177.7710  144.1390 C   0  0  0  0  0  0  0  0  0  0  0  0
  183.2430  178.2010  142.1430 C   0  0  0  0  0  3  0  0  0  0  0  0
  185.9430  178.1500  145.6770 C   0  0  0  0  0  3  0  0  0  0  0  0
  186.9330  177.9890  143.0170 C   0  0  0  0  0  0  0  0  0  0  0  0
  185.0850  178.4400  144.6020 C   0  0  0  0  0  0  0  0  0  0  0  0
  189.2910  177.2950  145.4880 C   0  0  0  0  0  0  0  0  0  0  0  0
  188.2170  177.5150  146.2900 N   0  0  0  0  0  2  0  0  0  0  0  0
  182.9930  179.7020  144.0250 C   0  0  0  0  0  2  0  0  0  0  0  0
  185.5450  178.2610  143.2450 C   0  0  0  0  0  0  0  0  0  0  0  0
  182.4880  178.8200  142.9920 N   0  0  0  0  0  0  0  0  0  0  0  0
  184.7160  178.1840  142.1820 C   0  0  0  0  0  2  0  0  0  0  0  0
  190.4440  176.3070  139.9980 O   0  0  0  0  0  1  0  0  0  0  0  0
  188.6710  177.6770  139.1050 C   0  0  0  0  0  3  0  0  0  0  0  0
  188.7120  177.1300  141.4620 C   0  0  0  0  0  3  0  0  0  0  0  0
  187.5310  177.8600  141.6620 C   0  0  0  0  0  0  0  0  0  0  0  0
  189.2780  177.0360  140.1880 C   0  0  0  0  0  0  0  0  0  0  0  0
  187.5000  178.4140  139.2960 C   0  0  0  0  0  3  0  0  0  0  0  0
  186.9340  178.5080  140.5710 C   0  0  0  0  0  3  0  0  0  0  0  0
  190.8020  176.7720  147.4320 C   0  0  0  0  0  2  0  0  0  0  0  0
  192.0560  175.9540  147.6820 C   0  0  0  0  0  1  0  0  0  0  0  0
  191.6650  176.5860  145.0900 C   0  0  0  0  0  2  0  0  0  0  0  0
  192.0140  178.8670  144.4900 O   0  0  0  0  0  1  0  0  0  0  0  0
  191.9670  177.3810  142.7460 O   0  0  0  0  0  0  0  0  0  0  0  0
  191.8790  177.6780  144.0990 C   0  0  0  0  0  0  0  0  0  0  0  0
  1 23  1  0  0  0  0
  2 10  2  0  0  0  0
  4  7  1  0  0  0  0
  4 11  1  0  0  0  0
  5  2  1  0  0  0  0
  5  4  2  0  0  0  0
  6 15  1  0  0  0  0
  6 14  2  0  0  0  0
  8 13  2  0  0  0  0
  8  5  1  0  0  0  0
  9  3  1  0  0  0  0
  9  7  2  0  0  0  0
 10  1  1  0  0  0  0
 10 11  1  0  0  0  0
 12  3  1  0  0  0  0
 13  9  1  0  0  0  0
 14 12  1  0  0  0  0
 15 13  1  0  0  0  0
 16 20  1  0  0  0  0
 17 21  2  0  0  0  0
 17 20  1  0  0  0  0
 18 19  1  0  0  0  0
 19  8  1  0  0  0  0
 20 18  2  0  0  0  0
 21 22  1  0  0  0  0
 22 19  2  0  0  0  0
 23 24  1  0  0  0  0
 25  1  1  0  0  0  0
 27 28  2  0  0  0  0
 28 26  1  0  0  0  0
 28 25  1  0  0  0  0
M  END
>  <MODEL>
6

>  <REMARK>
 VINA RESULT:      -8.2      2.797      6.451
  Name = 
  4 active torsions:
  status: ('A' for Active; 'I' for Inactive)
    1  A    between atoms: C_1  and  N_6
    2  A    between atoms: N_6  and  C_28
    3  A    between atoms: C_15  and  C_20
    4  A    between atoms: C_17  and  C_28
                            x       y       z     vdW  Elec       q    Type
                         _______ _______ _______ _____ _____    ______ ____

>  <TORSDO>
F 4

$$$$
=
 OpenBabel10222417263D

 28 31  0  0  0  0  0  0  0  0999 V2000
  190.6270  177.4950  141.5680 N   0  0  0  0  0  0  0  0  0  0  0  0
  188.7720  177.7780  143.1460 N   0  0  0  0  0  0  0  0  0  0  0  0
  183.6670  178.6280  141.5630 C   0  0  0  0  0  2  0  0  0  0  0  0
  187.2080  178.2060  141.6440 C   0  0  0  0  0  0  0  0  0  0  0  0
  187.4700  178.0570  142.9670 C   0  0  0  0  0  0  0  0  0  0  0  0
  183.0050  179.7220  144.2740 C   0  0  0  0  0  3  0  0  0  0  0  0
  185.9360  178.4720  141.1710 C   0  0  0  0  0  3  0  0  0  0  0  0
  186.4930  178.2510  143.9500 C   0  0  0  0  0  0  0  0  0  0  0  0
  184.8910  178.6230  142.0980 C   0  0  0  0  0  0  0  0  0  0  0  0
  189.2490  177.7590  141.8740 C   0  0  0  0  0  0  0  0  0  0  0  0
  188.3190  178.0160  140.9180 N   0  0  0  0  0  2  0  0  0  0  0  0
  182.3970  178.4360  142.3170 C   0  0  0  0  0  2  0  0  0  0  0  0
  185.1770  178.6170  143.5140 C   0  0  0  0  0  0  0  0  0  0  0  0
  182.1880  179.4790  143.3010 N   0  0  0  0  0  0  0  0  0  0  0  0
  184.3220  179.0830  144.4490 C   0  0  0  0  0  2  0  0  0  0  0  0
  189.4670  176.5530  147.4910 O   0  0  0  0  0  1  0  0  0  0  0  0
  187.5570  177.8970  148.0930 C   0  0  0  0  0  3  0  0  0  0  0  0
  188.0070  177.4000  145.7680 C   0  0  0  0  0  3  0  0  0  0  0  0
  186.8800  178.1400  145.3810 C   0  0  0  0  0  0  0  0  0  0  0  0
  188.3470  177.2830  147.1180 C   0  0  0  0  0  0  0  0  0  0  0  0
  186.4270  178.6270  147.7180 C   0  0  0  0  0  3  0  0  0  0  0  0
  186.0870  178.7460  146.3680 C   0  0  0  0  0  3  0  0  0  0  0  0
  191.1030  177.5040  140.1910 C   0  0  0  0  0  2  0  0  0  0  0  0
  192.6200  177.5030  140.1610 C   0  0  0  0  0  1  0  0  0  0  0  0
  191.6040  177.3520  142.6390 C   0  0  0  0  0  2  0  0  0  0  0  0
  191.6300  176.1030  144.6700 O   0  0  0  0  0  1  0  0  0  0  0  0
  190.6370  175.0670  142.8830 O   0  0  0  0  0  0  0  0  0  0  0  0
  191.3060  176.1410  143.4540 C   0  0  0  0  0  0  0  0  0  0  0  0
  1 10  1  0  0  0  0
  1 25  1  0  0  0  0
  3  9  1  0  0  0  0
  3 12  1  0  0  0  0
  4  5  1  0  0  0  0
  5  2  1  0  0  0  0
  5  8  2  0  0  0  0
  6 15  1  0  0  0  0
  7  4  2  0  0  0  0
  7  9  1  0  0  0  0
  8 19  1  0  0  0  0
  9 13  2  0  0  0  0
 10  2  2  0  0  0  0
 11  4  1  0  0  0  0
 11 10  1  0  0  0  0
 12 14  1  0  0  0  0
 13  8  1  0  0  0  0
 13 15  1  0  0  0  0
 14  6  2  0  0  0  0
 18 20  1  0  0  0  0
 19 18  2  0  0  0  0
 19 22  1  0  0  0  0
 20 16  1  0  0  0  0
 20 17  2  0  0  0  0
 21 17  1  0  0  0  0
 22 21  2  0  0  0  0
 23  1  1  0  0  0  0
 24 23  1  0  0  0  0
 25 28  1  0  0  0  0
 27 28  2  0  0  0  0
 28 26  1  0  0  0  0
M  END
>  <MODEL>
7

>  <REMARK>
 VINA RESULT:      -8.1      3.372      7.102
  Name = 
  4 active torsions:
  status: ('A' for Active; 'I' for Inactive)
    1  A    between atoms: C_1  and  N_6
    2  A    between atoms: N_6  and  C_28
    3  A    between atoms: C_15  and  C_20
    4  A    between atoms: C_17  and  C_28
                            x       y       z     vdW  Elec       q    Type
                         _______ _______ _______ _____ _____    ______ ____

>  <TORSDO>
F 4

$$$$
=
 OpenBabel10222417263D

 28 31  0  0  0  0  0  0  0  0999 V2000
  187.2800  177.6770  144.2840 N   0  0  0  0  0  0  0  0  0  0  0  0
  185.5870  177.9070  142.5260 N   0  0  0  0  0  0  0  0  0  0  0  0
  180.6190  179.8410  143.4610 C   0  0  0  0  0  2  0  0  0  0  0  0
  183.9390  178.5890  143.8310 C   0  0  0  0  0  0  0  0  0  0  0  0
  184.3010  178.2950  142.5570 C   0  0  0  0  0  0  0  0  0  0  0  0
  179.6450  178.5730  140.9250 C   0  0  0  0  0  3  0  0  0  0  0  0
  182.6720  179.0420  144.1510 C   0  0  0  0  0  3  0  0  0  0  0  0
  183.3950  178.3430  141.4910 C   0  0  0  0  0  0  0  0  0  0  0  0
  181.7240  179.1700  143.1210 C   0  0  0  0  0  0  0  0  0  0  0  0
  185.9570  178.0010  143.8290 C   0  0  0  0  0  0  0  0  0  0  0  0
  184.9730  178.4190  144.6670 N   0  0  0  0  0  2  0  0  0  0  0  0
  179.6270  180.4060  142.5040 C   0  0  0  0  0  2  0  0  0  0  0  0
  182.0440  178.7210  141.7860 C   0  0  0  0  0  0  0  0  0  0  0  0
  178.9960  179.3750  141.7060 N   0  0  0  0  0  0  0  0  0  0  0  0
  181.1140  178.4900  140.8350 C   0  0  0  0  0  2  0  0  0  0  0  0
  186.3530  178.9050  137.5930 O   0  0  0  0  0  1  0  0  0  0  0  0
  184.6660  177.1830  137.5590 C   0  0  0  0  0  3  0  0  0  0  0  0
  184.9040  178.6110  139.4980 C   0  0  0  0  0  3  0  0  0  0  0  0
  183.8540  177.9350  140.1380 C   0  0  0  0  0  0  0  0  0  0  0  0
  185.3110  178.2340  138.2160 C   0  0  0  0  0  0  0  0  0  0  0  0
  183.6120  176.5100  138.1840 C   0  0  0  0  0  3  0  0  0  0  0  0
  183.2060  176.8860  139.4670 C   0  0  0  0  0  3  0  0  0  0  0  0
  187.6310  177.7720  145.6940 C   0  0  0  0  0  2  0  0  0  0  0  0
  188.9620  177.0890  145.9510 C   0  0  0  0  0  1  0  0  0  0  0  0
  188.2570  177.1130  143.3620 C   0  0  0  0  0  2  0  0  0  0  0  0
  188.5910  178.6640  141.5820 O   0  0  0  0  0  0  0  0  0  0  0  0
  190.1530  178.7300  143.2590 O   0  0  0  0  0  1  0  0  0  0  0  0
  189.0090  178.2010  142.6750 C   0  0  0  0  0  0  0  0  0  0  0  0
  1 23  1  0  0  0  0
  2  5  1  0  0  0  0
  2 10  2  0  0  0  0
  4  7  1  0  0  0  0
  4 11  1  0  0  0  0
  5  4  2  0  0  0  0
  6 14  2  0  0  0  0
  8 13  2  0  0  0  0
  8  5  1  0  0  0  0
  9  3  1  0  0  0  0
  9  7  2  0  0  0  0
 10  1  1  0  0  0  0
 10 11  1  0  0  0  0
 12  3  1  0  0  0  0
 13  9  1  0  0  0  0
 14 12  1  0  0  0  0
 15  6  1  0  0  0  0
 15 13  1  0  0  0  0
 16 20  1  0  0  0  0
 17 21  2  0  0  0  0
 17 20  1  0  0  0  0
 18 19  1  0  0  0  0
 19  8  1  0  0  0  0
 20 18  2  0  0  0  0
 21 22  1  0  0  0  0
 22 19  2  0  0  0  0
 23 24  1  0  0  0  0
 25  1  1  0  0  0  0
 26 28  2  0  0  0  0
 28 27  1  0  0  0  0
 28 25  1  0  0  0  0
M  END
>  <MODEL>
8

>  <REMARK>
 VINA RESULT:      -7.7      2.170      6.556
  Name = 
  4 active torsions:
  status: ('A' for Active; 'I' for Inactive)
    1  A    between atoms: C_1  and  N_6
    2  A    between atoms: N_6  and  C_28
    3  A    between atoms: C_15  and  C_20
    4  A    between atoms: C_17  and  C_28
                            x       y       z     vdW  Elec       q    Type
                         _______ _______ _______ _____ _____    ______ ____

>  <TORSDO>
F 4

$$$$
=
 OpenBabel10222417263D

 28 31  0  0  0  0  0  0  0  0999 V2000
  189.5120  177.3990  146.9280 N   0  0  0  0  0  0  0  0  0  0  0  0
  188.5190  177.6960  144.7070 N   0  0  0  0  0  0  0  0  0  0  0  0
  183.2850  178.8510  143.9550 C   0  0  0  0  0  2  0  0  0  0  0  0
  186.4310  177.9630  145.3820 C   0  0  0  0  0  0  0  0  0  0  0  0
  187.2560  177.9180  144.3060 C   0  0  0  0  0  0  0  0  0  0  0  0
  183.4760  177.8870  141.1240 C   0  0  0  0  0  3  0  0  0  0  0  0
  185.0750  178.2060  145.2620 C   0  0  0  0  0  3  0  0  0  0  0  0
  186.7800  178.0220  142.9930 C   0  0  0  0  0  0  0  0  0  0  0  0
  184.5350  178.3790  143.9760 C   0  0  0  0  0  0  0  0  0  0  0  0
  188.3940  177.6280  146.0570 C   0  0  0  0  0  0  0  0  0  0  0  0
  187.1260  177.7900  146.5160 N   0  0  0  0  0  2  0  0  0  0  0  0
  182.6060  179.4360  142.7660 C   0  0  0  0  0  2  0  0  0  0  0  0
  185.3670  178.1850  142.8120 C   0  0  0  0  0  0  0  0  0  0  0  0
  182.4720  178.4740  141.6910 N   0  0  0  0  0  0  0  0  0  0  0  0
  184.8770  177.9950  141.5690 C   0  0  0  0  0  2  0  0  0  0  0  0
  188.1660  179.0090  138.3700 O   0  0  0  0  0  1  0  0  0  0  0  0
  189.5410  177.5740  139.7370 C   0  0  0  0  0  3  0  0  0  0  0  0
  187.5060  178.5240  140.6390 C   0  0  0  0  0  3  0  0  0  0  0  0
  187.7410  177.8880  141.8670 C   0  0  0  0  0  0  0  0  0  0  0  0
  188.4040  178.3710  139.5800 C   0  0  0  0  0  0  0  0  0  0  0  0
  189.7780  176.9280  140.9530 C   0  0  0  0  0  3  0  0  0  0  0  0
  188.8800  177.0820  142.0130 C   0  0  0  0  0  3  0  0  0  0  0  0
  189.3330  177.3140  148.3710 C   0  0  0  0  0  2  0  0  0  0  0  0
  188.6680  178.5740  148.8930 C   0  0  0  0  0  1  0  0  0  0  0  0
  190.8280  177.1070  146.3740 C   0  0  0  0  0  2  0  0  0  0  0  0
  191.7280  175.1380  147.3740 O   0  0  0  0  0  0  0  0  0  0  0  0
  192.4080  177.1210  148.3030 O   0  0  0  0  0  1  0  0  0  0  0  0
  191.6660  176.3950  147.3800 C   0  0  0  0  0  0  0  0  0  0  0  0
  1 23  1  0  0  0  0
  2 10  2  0  0  0  0
  3  9  1  0  0  0  0
  4 11  1  0  0  0  0
  5  2  1  0  0  0  0
  5  4  2  0  0  0  0
  6 15  1  0  0  0  0
  6 14  2  0  0  0  0
  7  4  1  0  0  0  0
  8  5  1  0  0  0  0
  9  7  2  0  0  0  0
 10 11  1  0  0  0  0
 10  1  1  0  0  0  0
 12  3  1  0  0  0  0
 13  8  2  0  0  0  0
 13  9  1  0  0  0  0
 14 12  1  0  0  0  0
 15 13  1  0  0  0  0
 16 20  1  0  0  0  0
 17 21  1  0  0  0  0
 18 19  2  0  0  0  0
 19 22  1  0  0  0  0
 19  8  1  0  0  0  0
 20 17  2  0  0  0  0
 20 18  1  0  0  0  0
 21 22  2  0  0  0  0
 23 24  1  0  0  0  0
 25  1  1  0  0  0  0
 25 28  1  0  0  0  0
 26 28  2  0  0  0  0
 28 27  1  0  0  0  0
M  END
>  <MODEL>
9

>  <REMARK>
 VINA RESULT:      -7.6      3.032      6.759
  Name = 
  4 active torsions:
  status: ('A' for Active; 'I' for Inactive)
    1  A    between atoms: C_1  and  N_6
    2  A    between atoms: N_6  and  C_28
    3  A    between atoms: C_15  and  C_20
    4  A    between atoms: C_17  and  C_28
                            x       y       z     vdW  Elec       q    Type
                         _______ _______ _______ _____ _____    ______ ____

>  <TORSDO>
F 4

$$$$
