=
 OpenBabel10222419163D

 35 39  0  0  1  0  0  0  0  0999 V2000
  186.5820  177.9310  142.7450 C   0  0  0  0  0  0  0  0  0  0  0  0
  187.4170  178.8800  140.6670 C   0  0  0  0  0  3  0  0  0  0  0  0
  188.8520  177.4550  142.0060 C   0  0  0  0  0  0  0  0  0  0  0  0
  187.8180  177.3040  142.9340 C   0  0  0  0  0  3  0  0  0  0  0  0
  188.6450  178.2490  140.8700 C   0  0  0  0  0  3  0  0  0  0  0  0
  186.3770  178.7300  141.5970 C   0  0  0  0  0  0  0  0  0  0  0  0
  189.5600  178.3240  148.7390 C   0  0  0  0  0  2  0  0  0  0  0  0
  190.0890  177.3730  147.7010 C   0  0  0  0  0  0  0  0  0  0  0  0
  184.8410  179.5720  145.2670 N   0  0  0  0  0  2  0  0  0  0  0  0
  185.4680  178.5580  146.1080 C   0  0  1  0  0  3  0  0  0  0  0  0
  187.1800  176.8830  145.5130 C   0  0  0  0  0  3  0  0  0  0  0  0
  185.5350  177.7330  143.8120 C   0  0  1  0  0  3  0  0  0  0  0  0
  188.4600  179.0760  148.2260 O   0  0  0  0  0  0  0  0  0  0  0  0
  186.0880  177.5860  145.1760 C   0  0  0  0  0  0  0  0  0  0  0  0
  187.5220  178.4820  147.3780 C   0  0  0  0  0  0  0  0  0  0  0  0
  187.7600  177.0640  146.8910 C   0  0  2  0  0  3  0  0  0  0  0  0
  189.2350  176.7870  146.8480 C   0  0  0  0  0  3  0  0  0  0  0  0
  184.6360  178.9600  143.9460 C   0  0  0  0  0  2  0  0  0  0  0  0
  186.4800  179.1580  146.9810 N   0  0  0  0  0  0  0  0  0  0  0  0
  192.1190  175.8060  147.7190 C   0  0  0  0  0  0  0  0  0  0  0  0
  191.4960  177.0970  147.6740 N   0  0  0  0  0  2  0  0  0  0  0  0
  191.4340  174.7500  147.7520 O   0  0  0  0  0  1  0  0  0  0  0  0
  193.5040  175.7190  147.7160 O   0  0  0  0  0  0  0  0  0  0  0  0
  185.1350  179.3430  141.3800 O   0  0  0  0  0  0  0  0  0  0  0  0
  183.9870  179.5690  139.3480 C   0  0  0  0  0  3  0  0  0  0  0  0
  184.1620  178.8840  140.4830 C   0  0  0  0  0  0  0  0  0  0  0  0
  182.4460  177.2140  139.6630 C   0  0  0  0  0  0  0  0  0  0  0  0
  183.3770  177.6180  140.7710 C   0  0  0  0  0  2  0  0  0  0  0  0
  183.0300  179.1450  138.3130 C   0  0  0  0  0  3  0  0  0  0  0  0
  182.3070  178.0370  138.4570 C   0  0  0  0  0  3  0  0  0  0  0  0
  181.7690  176.1590  139.7760 O   0  0  0  0  0  0  0  0  0  0  0  0
  190.0710  176.8090  142.2400 O   0  0  0  0  0  0  0  0  0  0  0  0
  191.2960  177.5040  142.4470 C   0  0  0  0  0  2  0  0  0  0  0  0
  191.1510  179.3750  144.0840 C   0  0  0  0  0  1  0  0  0  0  0  0
  191.4510  177.9000  143.9070 C   0  0  0  0  0  2  0  0  0  0  0  0
  1  4  1  0  0  0  0
  2  5  2  0  0  0  0
  2  6  1  0  0  0  0
  3 32  1  0  0  0  0
  3  4  2  0  0  0  0
  5  3  1  0  0  0  0
  6  1  2  0  0  0  0
  8  7  1  0  0  0  0
  9 10  1  0  0  0  0
 10 14  1  6  0  0  0
 10 19  1  0  0  0  0
 12  1  1  6  0  0  0
 12 18  1  0  0  0  0
 12 14  1  0  0  0  0
 13  7  1  0  0  0  0
 14 11  2  0  0  0  0
 15 13  1  0  0  0  0
 16 11  1  6  0  0  0
 16 15  1  0  0  0  0
 17 16  1  0  0  0  0
 17  8  2  0  0  0  0
 18  9  1  0  0  0  0
 19 15  2  0  0  0  0
 20 22  1  0  0  0  0
 21  8  1  0  0  0  0
 21 20  1  0  0  0  0
 23 20  2  0  0  0  0
 24  6  1  0  0  0  0
 25 26  2  0  0  0  0
 26 28  1  0  0  0  0
 26 24  1  0  0  0  0
 27 31  2  0  0  0  0
 27 28  1  0  0  0  0
 29 30  2  0  0  0  0
 29 25  1  0  0  0  0
 30 27  1  0  0  0  0
 32 33  1  0  0  0  0
 33 35  1  0  0  0  0
 35 34  1  0  0  0  0
M  END
>  <MODEL>
1

>  <REMARK>
 VINA RESULT:      -8.7      0.000      0.000
  Name = 
  7 active torsions:
  status: ('A' for Active; 'I' for Inactive)
    1  A    between atoms: C_2  and  C_14
    2  A    between atoms: C_5  and  C_23
    3  A    between atoms: O_6  and  C_7
    4  A    between atoms: O_6  and  C_29
    5  A    between atoms: C_8  and  N_17
    6  A    between atoms: C_14  and  O_31
    7  A    between atoms: C_15  and  O_31
                            x       y       z     vdW  Elec       q    Type
                         _______ _______ _______ _____ _____    ______ ____

>  <TORSDO>
F 7

$$$$
=
 OpenBabel10222419163D

 35 39  0  0  1  0  0  0  0  0999 V2000
  187.2730  178.3040  142.0610 C   0  0  0  0  0  0  0  0  0  0  0  0
  188.8670  176.6810  142.9190 C   0  0  0  0  0  3  0  0  0  0  0  0
  189.1470  177.5840  140.6850 C   0  0  0  0  0  0  0  0  0  0  0  0
  187.9960  178.3560  140.8650 C   0  0  0  0  0  3  0  0  0  0  0  0
  189.5780  176.7420  141.7200 C   0  0  0  0  0  3  0  0  0  0  0  0
  187.7120  177.4550  143.1030 C   0  0  0  0  0  0  0  0  0  0  0  0
  182.9890  176.3300  137.2950 C   0  0  0  0  0  2  0  0  0  0  0  0
  184.4000  176.7000  136.9280 C   0  0  0  0  0  0  0  0  0  0  0  0
  183.9030  178.2110  142.9090 N   0  0  0  0  0  2  0  0  0  0  0  0
  183.7310  178.6320  141.5230 C   0  0  1  0  0  3  0  0  0  0  0  0
  185.4210  178.8360  139.7360 C   0  0  0  0  0  3  0  0  0  0  0  0
  186.0290  179.1530  142.1550 C   0  0  1  0  0  3  0  0  0  0  0  0
  182.7910  176.4200  138.7070 O   0  0  0  0  0  0  0  0  0  0  0  0
  185.0880  178.9650  141.0300 C   0  0  0  0  0  0  0  0  0  0  0  0
  183.3890  177.4420  139.4480 C   0  0  0  0  0  0  0  0  0  0  0  0
  184.3680  178.3780  138.7610 C   0  0  2  0  0  3  0  0  0  0  0  0
  185.0290  177.6630  137.6180 C   0  0  0  0  0  3  0  0  0  0  0  0
  185.1830  178.7700  143.3670 C   0  0  0  0  0  2  0  0  0  0  0  0
  183.1360  177.5590  140.7220 N   0  0  0  0  0  0  0  0  0  0  0  0
  186.0030  174.9860  135.8950 C   0  0  0  0  0  0  0  0  0  0  0  0
  185.0220  176.0290  135.8240 N   0  0  0  0  0  2  0  0  0  0  0  0
  186.3920  174.5280  137.0020 O   0  0  0  0  0  1  0  0  0  0  0  0
  186.5280  174.4650  134.7200 O   0  0  0  0  0  0  0  0  0  0  0  0
  187.0130  177.4120  144.3170 O   0  0  0  0  0  0  0  0  0  0  0  0
  186.8160  178.0580  146.5620 C   0  0  0  0  0  3  0  0  0  0  0  0
  187.5920  177.5860  145.5800 C   0  0  0  0  0  0  0  0  0  0  0  0
  189.4680  177.3530  147.2630 C   0  0  0  0  0  0  0  0  0  0  0  0
  189.0350  177.1940  145.8330 C   0  0  0  0  0  2  0  0  0  0  0  0
  187.3070  178.2280  147.9390 C   0  0  0  0  0  3  0  0  0  0  0  0
  188.5520  177.8950  148.2720 C   0  0  0  0  0  3  0  0  0  0  0  0
  190.6360  177.0240  147.5980 O   0  0  0  0  0  0  0  0  0  0  0  0
  189.8360  177.6680  139.4700 O   0  0  0  0  0  0  0  0  0  0  0  0
  189.6140  176.7770  138.3820 C   0  0  0  0  0  2  0  0  0  0  0  0
  188.9890  178.9060  137.2500 C   0  0  0  0  0  1  0  0  0  0  0  0
  188.7130  177.4180  137.3370 C   0  0  0  0  0  2  0  0  0  0  0  0
  1  6  1  0  0  0  0
  2  6  2  0  0  0  0
  3  4  1  0  0  0  0
  3  5  2  0  0  0  0
  4  1  2  0  0  0  0
  5  2  1  0  0  0  0
  6 24  1  0  0  0  0
  7 13  1  0  0  0  0
  8  7  1  0  0  0  0
  8 17  2  0  0  0  0
  9 18  1  0  0  0  0
 10 19  1  6  0  0  0
 10  9  1  0  0  0  0
 11 14  2  0  0  0  0
 12  1  1  6  0  0  0
 12 18  1  0  0  0  0
 13 15  1  0  0  0  0
 14 10  1  0  0  0  0
 14 12  1  0  0  0  0
 15 19  2  0  0  0  0
 16 17  1  6  0  0  0
 16 15  1  0  0  0  0
 16 11  1  0  0  0  0
 20 22  1  0  0  0  0
 21 20  1  0  0  0  0
 21  8  1  0  0  0  0
 23 20  2  0  0  0  0
 24 26  1  0  0  0  0
 25 29  1  0  0  0  0
 26 28  1  0  0  0  0
 26 25  2  0  0  0  0
 27 31  2  0  0  0  0
 27 30  1  0  0  0  0
 28 27  1  0  0  0  0
 29 30  2  0  0  0  0
 32  3  1  0  0  0  0
 33 32  1  0  0  0  0
 34 35  1  0  0  0  0
 35 33  1  0  0  0  0
M  END
>  <MODEL>
2

>  <REMARK>
 VINA RESULT:      -8.5      3.189      8.323
  Name = 
  7 active torsions:
  status: ('A' for Active; 'I' for Inactive)
    1  A    between atoms: C_2  and  C_14
    2  A    between atoms: C_5  and  C_23
    3  A    between atoms: O_6  and  C_7
    4  A    between atoms: O_6  and  C_29
    5  A    between atoms: C_8  and  N_17
    6  A    between atoms: C_14  and  O_31
    7  A    between atoms: C_15  and  O_31
                            x       y       z     vdW  Elec       q    Type
                         _______ _______ _______ _____ _____    ______ ____

>  <TORSDO>
F 7

$$$$
=
 OpenBabel10222419163D

 35 39  0  0  1  0  0  0  0  0999 V2000
  187.2140  178.3730  140.7120 C   0  0  0  0  0  0  0  0  0  0  0  0
  184.7990  178.6060  140.5410 C   0  0  0  0  0  3  0  0  0  0  0  0
  185.8150  178.1170  142.6880 C   0  0  0  0  0  0  0  0  0  0  0  0
  187.0740  178.1260  142.0820 C   0  0  0  0  0  3  0  0  0  0  0  0
  184.6750  178.3570  141.9080 C   0  0  0  0  0  3  0  0  0  0  0  0
  186.0620  178.6160  139.9290 C   0  0  0  0  0  0  0  0  0  0  0  0
  191.4220  176.3320  145.5160 C   0  0  0  0  0  2  0  0  0  0  0  0
  190.5010  177.4920  145.7710 C   0  0  0  0  0  0  0  0  0  0  0  0
  189.7700  176.2180  139.7600 N   0  0  0  0  0  2  0  0  0  0  0  0
  190.5200  176.9550  140.7710 C   0  0  1  0  0  3  0  0  0  0  0  0
  189.7190  178.6510  142.3750 C   0  0  0  0  0  3  0  0  0  0  0  0
  188.6090  178.3360  140.1410 C   0  0  1  0  0  3  0  0  0  0  0  0
  191.2010  175.7840  144.2160 O   0  0  0  0  0  0  0  0  0  0  0  0
  189.6650  178.1050  141.1500 C   0  0  0  0  0  0  0  0  0  0  0  0
  190.9180  176.6150  143.1300 C   0  0  0  0  0  0  0  0  0  0  0  0
  190.7050  178.0990  143.3700 C   0  0  2  0  0  3  0  0  0  0  0  0
  190.1800  178.3130  144.7610 C   0  0  0  0  0  3  0  0  0  0  0  0
  188.7920  177.1560  139.1900 C   0  0  0  0  0  2  0  0  0  0  0  0
  190.7970  176.1090  141.9340 N   0  0  0  0  0  0  0  0  0  0  0  0
  188.6720  177.5150  147.5700 C   0  0  0  0  0  0  0  0  0  0  0  0
  190.0150  177.7050  147.1040 N   0  0  0  0  0  2  0  0  0  0  0  0
  187.7690  177.0870  146.8040 O   0  0  0  0  0  0  0  0  0  0  0  0
  188.3650  177.8000  148.8930 O   0  0  0  0  0  1  0  0  0  0  0  0
  186.1870  178.8920  138.5600 O   0  0  0  0  0  0  0  0  0  0  0  0
  186.6310  177.9690  136.4520 C   0  0  0  0  0  3  0  0  0  0  0  0
  185.8430  178.0070  137.5310 C   0  0  0  0  0  0  0  0  0  0  0  0
  184.4770  176.1320  136.5190 C   0  0  0  0  0  0  0  0  0  0  0  0
  184.6470  177.0840  137.6690 C   0  0  0  0  0  2  0  0  0  0  0  0
  186.3930  177.0390  135.3360 C   0  0  0  0  0  3  0  0  0  0  0  0
  185.3830  176.1720  135.3660 C   0  0  0  0  0  3  0  0  0  0  0  0
  183.5390  175.2940  136.5410 O   0  0  0  0  0  0  0  0  0  0  0  0
  185.7260  177.8630  144.0610 O   0  0  0  0  0  0  0  0  0  0  0  0
  185.5760  178.8890  145.0380 C   0  0  0  0  0  2  0  0  0  0  0  0
  183.0880  178.9450  144.9640 C   0  0  0  0  0  1  0  0  0  0  0  0
  184.2990  178.6880  145.8380 C   0  0  0  0  0  2  0  0  0  0  0  0
  1  4  1  0  0  0  0
  2  5  2  0  0  0  0
  3 32  1  0  0  0  0
  4  3  2  0  0  0  0
  5  3  1  0  0  0  0
  6  2  1  0  0  0  0
  6  1  2  0  0  0  0
  7  8  1  0  0  0  0
  8 21  1  0  0  0  0
 10  9  1  6  0  0  0
 10 14  1  0  0  0  0
 10 19  1  0  0  0  0
 12  1  1  1  0  0  0
 12 14  1  0  0  0  0
 13  7  1  0  0  0  0
 14 11  2  0  0  0  0
 15 16  1  0  0  0  0
 15 13  1  0  0  0  0
 16 11  1  6  0  0  0
 16 17  1  0  0  0  0
 17  8  2  0  0  0  0
 18  9  1  0  0  0  0
 18 12  1  0  0  0  0
 19 15  2  0  0  0  0
 20 23  1  0  0  0  0
 21 20  1  0  0  0  0
 22 20  2  0  0  0  0
 24  6  1  0  0  0  0
 25 26  2  0  0  0  0
 26 28  1  0  0  0  0
 26 24  1  0  0  0  0
 27 31  2  0  0  0  0
 27 28  1  0  0  0  0
 29 30  2  0  0  0  0
 29 25  1  0  0  0  0
 30 27  1  0  0  0  0
 32 33  1  0  0  0  0
 33 35  1  0  0  0  0
 34 35  1  0  0  0  0
M  END
>  <MODEL>
3

>  <REMARK>
 VINA RESULT:      -8.3      2.849      4.890
  Name = 
  7 active torsions:
  status: ('A' for Active; 'I' for Inactive)
    1  A    between atoms: C_2  and  C_14
    2  A    between atoms: C_5  and  C_23
    3  A    between atoms: O_6  and  C_7
    4  A    between atoms: O_6  and  C_29
    5  A    between atoms: C_8  and  N_17
    6  A    between atoms: C_14  and  O_31
    7  A    between atoms: C_15  and  O_31
                            x       y       z     vdW  Elec       q    Type
                         _______ _______ _______ _____ _____    ______ ____

>  <TORSDO>
F 7

$$$$
=
 OpenBabel10222419163D

 35 39  0  0  1  0  0  0  0  0999 V2000
  185.5770  176.6040  136.9430 C   0  0  0  0  0  0  0  0  0  0  0  0
  183.6630  175.6270  138.0810 C   0  0  0  0  0  3  0  0  0  0  0  0
  185.2800  174.1880  136.9860 C   0  0  0  0  0  0  0  0  0  0  0  0
  186.0060  175.3180  136.5980 C   0  0  0  0  0  3  0  0  0  0  0  0
  184.1020  174.3500  137.7290 C   0  0  0  0  0  3  0  0  0  0  0  0
  184.3890  176.7630  137.6940 C   0  0  0  0  0  0  0  0  0  0  0  0
  190.8430  177.2930  141.0360 C   0  0  0  0  0  2  0  0  0  0  0  0
  189.4510  177.2600  141.6050 C   0  0  0  0  0  0  0  0  0  0  0  0
  188.6210  177.4160  135.4750 N   0  0  0  0  0  2  0  0  0  0  0  0
  188.8020  178.1810  136.7040 C   0  0  1  0  0  3  0  0  0  0  0  0
  187.3890  178.2330  138.7260 C   0  0  0  0  0  3  0  0  0  0  0  0
  186.4100  177.7640  136.4580 C   0  0  1  0  0  3  0  0  0  0  0  0
  190.8170  177.1120  139.6200 O   0  0  0  0  0  0  0  0  0  0  0  0
  187.4880  178.1590  137.3900 C   0  0  0  0  0  0  0  0  0  0  0  0
  189.8050  177.6830  138.8450 C   0  0  0  0  0  0  0  0  0  0  0  0
  188.6490  178.3820  139.5380 C   0  0  2  0  0  3  0  0  0  0  0  0
  188.4370  177.7780  140.8970 C   0  0  0  0  0  3  0  0  0  0  0  0
  187.1790  177.4070  135.1890 C   0  0  0  0  0  2  0  0  0  0  0  0
  189.8380  177.5760  137.5460 N   0  0  0  0  0  0  0  0  0  0  0  0
  189.5180  177.3350  144.1680 C   0  0  0  0  0  0  0  0  0  0  0  0
  189.2550  176.6990  142.9100 N   0  0  0  0  0  2  0  0  0  0  0  0
  189.9350  178.5220  144.2250 O   0  0  0  0  0  0  0  0  0  0  0  0
  189.3000  176.6330  145.3450 O   0  0  0  0  0  1  0  0  0  0  0  0
  183.9610  178.0440  138.0700 O   0  0  0  0  0  0  0  0  0  0  0  0
  182.0190  178.6250  139.2460 C   0  0  0  0  0  3  0  0  0  0  0  0
  183.3280  178.3520  139.2800 C   0  0  0  0  0  0  0  0  0  0  0  0
  183.2440  178.5790  141.8000 C   0  0  0  0  0  0  0  0  0  0  0  0
  184.0940  178.3200  140.5880 C   0  0  0  0  0  2  0  0  0  0  0  0
  181.2430  178.9090  140.4640 C   0  0  0  0  0  3  0  0  0  0  0  0
  181.8160  178.8850  141.6660 C   0  0  0  0  0  3  0  0  0  0  0  0
  183.7660  178.5410  142.9440 O   0  0  0  0  0  0  0  0  0  0  0  0
  185.7470  172.9230  136.6160 O   0  0  0  0  0  0  0  0  0  0  0  0
  186.9990  172.7100  135.9710 C   0  0  0  0  0  2  0  0  0  0  0  0
  189.1960  173.4260  136.9000 C   0  0  0  0  0  1  0  0  0  0  0  0
  188.0840  172.4000  136.9910 C   0  0  0  0  0  2  0  0  0  0  0  0
  1  6  1  0  0  0  0
  3  5  2  0  0  0  0
  4  1  2  0  0  0  0
  4  3  1  0  0  0  0
  5  2  1  0  0  0  0
  6 24  1  0  0  0  0
  6  2  2  0  0  0  0
  7  8  1  0  0  0  0
  8 21  1  0  0  0  0
 10  9  1  6  0  0  0
 10 14  1  0  0  0  0
 10 19  1  0  0  0  0
 12  1  1  1  0  0  0
 12 14  1  0  0  0  0
 13  7  1  0  0  0  0
 14 11  2  0  0  0  0
 15 16  1  0  0  0  0
 15 13  1  0  0  0  0
 16 11  1  6  0  0  0
 16 17  1  0  0  0  0
 17  8  2  0  0  0  0
 18  9  1  0  0  0  0
 18 12  1  0  0  0  0
 19 15  2  0  0  0  0
 20 22  2  0  0  0  0
 20 23  1  0  0  0  0
 21 20  1  0  0  0  0
 24 26  1  0  0  0  0
 25 26  2  0  0  0  0
 25 29  1  0  0  0  0
 26 28  1  0  0  0  0
 27 31  2  0  0  0  0
 28 27  1  0  0  0  0
 29 30  2  0  0  0  0
 30 27  1  0  0  0  0
 32  3  1  0  0  0  0
 33 32  1  0  0  0  0
 33 35  1  0  0  0  0
 34 35  1  0  0  0  0
M  END
>  <MODEL>
4

>  <REMARK>
 VINA RESULT:      -8.0      4.318      6.879
  Name = 
  7 active torsions:
  status: ('A' for Active; 'I' for Inactive)
    1  A    between atoms: C_2  and  C_14
    2  A    between atoms: C_5  and  C_23
    3  A    between atoms: O_6  and  C_7
    4  A    between atoms: O_6  and  C_29
    5  A    between atoms: C_8  and  N_17
    6  A    between atoms: C_14  and  O_31
    7  A    between atoms: C_15  and  O_31
                            x       y       z     vdW  Elec       q    Type
                         _______ _______ _______ _____ _____    ______ ____

>  <TORSDO>
F 7

$$$$
=
 OpenBabel10222419163D

 35 39  0  0  1  0  0  0  0  0999 V2000
  188.4320  177.4860  139.2160 C   0  0  0  0  0  0  0  0  0  0  0  0
  187.8180  178.4500  141.3630 C   0  0  0  0  0  3  0  0  0  0  0  0
  189.8480  177.1380  141.1650 C   0  0  0  0  0  0  0  0  0  0  0  0
  189.5740  176.9380  139.8090 C   0  0  0  0  0  3  0  0  0  0  0  0
  188.9600  177.8960  141.9410 C   0  0  0  0  0  3  0  0  0  0  0  0
  187.5400  178.2520  140.0020 C   0  0  0  0  0  0  0  0  0  0  0  0
  193.5790  173.8340  136.9510 C   0  0  0  0  0  2  0  0  0  0  0  0
  193.8380  175.1340  137.6600 C   0  0  0  0  0  0  0  0  0  0  0  0
  187.6910  174.9370  136.9720 N   0  0  0  0  0  2  0  0  0  0  0  0
  188.9740  175.3210  136.3940 C   0  0  1  0  0  3  0  0  0  0  0  0
  190.6520  176.9150  137.2510 C   0  0  0  0  0  3  0  0  0  0  0  0
  188.2040  177.1960  137.7530 C   0  0  1  0  0  3  0  0  0  0  0  0
  192.1810  173.5450  136.9140 O   0  0  0  0  0  0  0  0  0  0  0  0
  189.3650  176.5770  137.0770 C   0  0  0  0  0  0  0  0  0  0  0  0
  191.2450  174.5640  136.7240 C   0  0  0  0  0  0  0  0  0  0  0  0
  191.7190  176.0070  136.6980 C   0  0  2  0  0  3  0  0  0  0  0  0
  192.9630  176.1430  137.5280 C   0  0  0  0  0  3  0  0  0  0  0  0
  187.1070  176.1530  137.5550 C   0  0  0  0  0  2  0  0  0  0  0  0
  189.9780  174.2770  136.6140 N   0  0  0  0  0  0  0  0  0  0  0  0
  195.7530  174.2160  139.0980 C   0  0  0  0  0  0  0  0  0  0  0  0
  195.0360  175.2680  138.4370 N   0  0  0  0  0  2  0  0  0  0  0  0
  195.3800  173.0160  139.0120 O   0  0  0  0  0  0  0  0  0  0  0  0
  196.8850  174.5270  139.8390 O   0  0  0  0  0  1  0  0  0  0  0  0
  186.4050  178.8290  139.4160 O   0  0  0  0  0  0  0  0  0  0  0  0
  184.2280  178.0650  138.9970 C   0  0  0  0  0  3  0  0  0  0  0  0
  185.0890  178.6270  139.8520 C   0  0  0  0  0  0  0  0  0  0  0  0
  183.2600  178.6140  141.6020 C   0  0  0  0  0  0  0  0  0  0  0  0
  184.6770  178.9840  141.2670 C   0  0  0  0  0  2  0  0  0  0  0  0
  182.8380  177.7590  139.3690 C   0  0  0  0  0  3  0  0  0  0  0  0
  182.3810  178.0120  140.5930 C   0  0  0  0  0  3  0  0  0  0  0  0
  182.8190  178.8300  142.7600 O   0  0  0  0  0  0  0  0  0  0  0  0
  191.0020  176.5690  141.7130 O   0  0  0  0  0  0  0  0  0  0  0  0
  191.6680  177.0970  142.8560 C   0  0  0  0  0  2  0  0  0  0  0  0
  191.2810  176.7480  145.2910 C   0  0  0  0  0  1  0  0  0  0  0  0
  191.6800  176.0830  143.9890 C   0  0  0  0  0  2  0  0  0  0  0  0
  1  4  2  0  0  0  0
  1  6  1  0  0  0  0
  2  5  1  0  0  0  0
  3 32  1  0  0  0  0
  3  5  2  0  0  0  0
  4  3  1  0  0  0  0
  6  2  2  0  0  0  0
  7  8  1  0  0  0  0
  8 21  1  0  0  0  0
  9 18  1  0  0  0  0
 10 19  1  1  0  0  0
 10  9  1  0  0  0  0
 10 14  1  0  0  0  0
 12  1  1  1  0  0  0
 13  7  1  0  0  0  0
 14 11  2  0  0  0  0
 14 12  1  0  0  0  0
 15 13  1  0  0  0  0
 16 15  1  0  0  0  0
 16 11  1  1  0  0  0
 16 17  1  0  0  0  0
 17  8  2  0  0  0  0
 18 12  1  0  0  0  0
 19 15  2  0  0  0  0
 20 23  1  0  0  0  0
 21 20  1  0  0  0  0
 22 20  2  0  0  0  0
 24 26  1  0  0  0  0
 24  6  1  0  0  0  0
 25 29  1  0  0  0  0
 25 26  2  0  0  0  0
 26 28  1  0  0  0  0
 27 31  2  0  0  0  0
 28 27  1  0  0  0  0
 29 30  2  0  0  0  0
 30 27  1  0  0  0  0
 32 33  1  0  0  0  0
 33 35  1  0  0  0  0
 35 34  1  0  0  0  0
M  END
>  <MODEL>
5

>  <REMARK>
 VINA RESULT:      -7.8      4.901      7.376
  Name = 
  7 active torsions:
  status: ('A' for Active; 'I' for Inactive)
    1  A    between atoms: C_2  and  C_14
    2  A    between atoms: C_5  and  C_23
    3  A    between atoms: O_6  and  C_7
    4  A    between atoms: O_6  and  C_29
    5  A    between atoms: C_8  and  N_17
    6  A    between atoms: C_14  and  O_31
    7  A    between atoms: C_15  and  O_31
                            x       y       z     vdW  Elec       q    Type
                         _______ _______ _______ _____ _____    ______ ____

>  <TORSDO>
F 7

$$$$
=
 OpenBabel10222419163D

 35 39  0  0  1  0  0  0  0  0999 V2000
  187.6870  178.1230  140.6070 C   0  0  0  0  0  0  0  0  0  0  0  0
  187.1870  177.8550  142.9720 C   0  0  0  0  0  3  0  0  0  0  0  0
  189.1190  176.7450  142.0140 C   0  0  0  0  0  0  0  0  0  0  0  0
  188.8020  177.2940  140.7680 C   0  0  0  0  0  3  0  0  0  0  0  0
  188.3010  177.0290  143.1170 C   0  0  0  0  0  3  0  0  0  0  0  0
  186.8670  178.4080  141.7230 C   0  0  0  0  0  0  0  0  0  0  0  0
  191.2950  174.5560  136.2230 C   0  0  0  0  0  2  0  0  0  0  0  0
  191.9730  175.2070  137.3970 C   0  0  0  0  0  0  0  0  0  0  0  0
  186.1610  177.3230  137.5880 N   0  0  0  0  0  2  0  0  0  0  0  0
  187.5110  177.5040  137.0670 C   0  0  1  0  0  3  0  0  0  0  0  0
  189.6170  177.8770  138.2980 C   0  0  0  0  0  3  0  0  0  0  0  0
  187.4090  178.6480  139.2210 C   0  0  1  0  0  3  0  0  0  0  0  0
  189.8850  174.7790  136.2630 O   0  0  0  0  0  0  0  0  0  0  0  0
  188.2980  178.0900  138.1790 C   0  0  0  0  0  0  0  0  0  0  0  0
  189.3680  176.0050  136.6900 C   0  0  0  0  0  0  0  0  0  0  0  0
  190.3150  177.0520  137.2490 C   0  0  2  0  0  3  0  0  0  0  0  0
  191.5080  176.3760  137.8610 C   0  0  0  0  0  3  0  0  0  0  0  0
  186.0220  178.2330  138.7350 C   0  0  0  0  0  2  0  0  0  0  0  0
  188.0830  176.2230  136.6460 N   0  0  0  0  0  0  0  0  0  0  0  0
  194.4970  174.8430  137.6660 C   0  0  0  0  0  0  0  0  0  0  0  0
  193.1230  174.5680  137.9680 N   0  0  0  0  0  2  0  0  0  0  0  0
  194.8190  175.7460  136.8490 O   0  0  0  0  0  0  0  0  0  0  0  0
  195.4920  174.1050  138.2920 O   0  0  0  0  0  1  0  0  0  0  0  0
  185.7610  179.2580  141.5830 O   0  0  0  0  0  0  0  0  0  0  0  0
  184.4890  179.3770  143.5490 C   0  0  0  0  0  3  0  0  0  0  0  0
  184.5360  179.0930  142.2430 C   0  0  0  0  0  0  0  0  0  0  0  0
  182.0500  178.6270  142.3190 C   0  0  0  0  0  0  0  0  0  0  0  0
  183.2970  178.6610  141.4830 C   0  0  0  0  0  2  0  0  0  0  0  0
  183.2430  179.2890  144.3270 C   0  0  0  0  0  3  0  0  0  0  0  0
  182.0950  178.9400  143.7520 C   0  0  0  0  0  3  0  0  0  0  0  0
  180.9530  178.3180  141.7860 O   0  0  0  0  0  0  0  0  0  0  0  0
  190.2430  175.9210  142.1250 O   0  0  0  0  0  0  0  0  0  0  0  0
  191.0080  175.7980  143.3200 C   0  0  0  0  0  2  0  0  0  0  0  0
  191.3680  177.5030  145.0990 C   0  0  0  0  0  1  0  0  0  0  0  0
  191.6800  177.1180  143.6670 C   0  0  0  0  0  2  0  0  0  0  0  0
  1  4  2  0  0  0  0
  1  6  1  0  0  0  0
  2  5  1  0  0  0  0
  3 32  1  0  0  0  0
  3  5  2  0  0  0  0
  4  3  1  0  0  0  0
  6  2  2  0  0  0  0
  7 13  1  0  0  0  0
  7  8  1  0  0  0  0
  8 17  2  0  0  0  0
  8 21  1  0  0  0  0
  9 18  1  0  0  0  0
 10 19  1  1  0  0  0
 10  9  1  0  0  0  0
 10 14  1  0  0  0  0
 12  1  1  1  0  0  0
 13 15  1  0  0  0  0
 14 11  2  0  0  0  0
 14 12  1  0  0  0  0
 15 16  1  0  0  0  0
 16 17  1  1  0  0  0
 16 11  1  0  0  0  0
 18 12  1  0  0  0  0
 19 15  2  0  0  0  0
 20 21  1  0  0  0  0
 20 23  1  0  0  0  0
 22 20  2  0  0  0  0
 24  6  1  0  0  0  0
 24 26  1  0  0  0  0
 25 29  1  0  0  0  0
 26 25  2  0  0  0  0
 27 30  1  0  0  0  0
 28 26  1  0  0  0  0
 28 27  1  0  0  0  0
 30 29  2  0  0  0  0
 31 27  2  0  0  0  0
 32 33  1  0  0  0  0
 33 35  1  0  0  0  0
 35 34  1  0  0  0  0
M  END
>  <MODEL>
6

>  <REMARK>
 VINA RESULT:      -7.8      4.348      7.132
  Name = 
  7 active torsions:
  status: ('A' for Active; 'I' for Inactive)
    1  A    between atoms: C_2  and  C_14
    2  A    between atoms: C_5  and  C_23
    3  A    between atoms: O_6  and  C_7
    4  A    between atoms: O_6  and  C_29
    5  A    between atoms: C_8  and  N_17
    6  A    between atoms: C_14  and  O_31
    7  A    between atoms: C_15  and  O_31
                            x       y       z     vdW  Elec       q    Type
                         _______ _______ _______ _____ _____    ______ ____

>  <TORSDO>
F 7

$$$$
=
 OpenBabel10222419163D

 35 39  0  0  1  0  0  0  0  0999 V2000
  186.6590  178.6090  141.5750 C   0  0  0  0  0  0  0  0  0  0  0  0
  184.3130  178.8150  142.1840 C   0  0  0  0  0  3  0  0  0  0  0  0
  185.9140  177.9910  143.8090 C   0  0  0  0  0  0  0  0  0  0  0  0
  186.9310  178.1300  142.8610 C   0  0  0  0  0  3  0  0  0  0  0  0
  184.5990  178.3350  143.4620 C   0  0  0  0  0  3  0  0  0  0  0  0
  185.3320  178.9560  141.2300 C   0  0  0  0  0  0  0  0  0  0  0  0
  192.0230  175.7640  144.4190 C   0  0  0  0  0  2  0  0  0  0  0  0
  191.2720  176.8430  145.1490 C   0  0  0  0  0  0  0  0  0  0  0  0
  188.7150  176.7080  139.5160 N   0  0  0  0  0  2  0  0  0  0  0  0
  189.7650  177.2530  140.3690 C   0  0  1  0  0  3  0  0  0  0  0  0
  189.5570  178.6060  142.4220 C   0  0  0  0  0  3  0  0  0  0  0  0
  187.8150  178.7000  140.6120 C   0  0  1  0  0  3  0  0  0  0  0  0
  191.3980  175.4660  143.1700 O   0  0  0  0  0  0  0  0  0  0  0  0
  189.1140  178.2990  141.1930 C   0  0  0  0  0  0  0  0  0  0  0  0
  190.8380  176.4820  142.3920 C   0  0  0  0  0  0  0  0  0  0  0  0
  190.7720  177.8920  142.9520 C   0  0  2  0  0  3  0  0  0  0  0  0
  190.6980  177.8340  144.4510 C   0  0  0  0  0  3  0  0  0  0  0  0
  187.6520  177.7220  139.4510 C   0  0  0  0  0  2  0  0  0  0  0  0
  190.3420  176.2070  141.2180 N   0  0  0  0  0  0  0  0  0  0  0  0
  192.0380  175.9970  147.4460 C   0  0  0  0  0  0  0  0  0  0  0  0
  191.2190  176.7950  146.5820 N   0  0  0  0  0  2  0  0  0  0  0  0
  192.9480  175.2580  146.9850 O   0  0  0  0  0  0  0  0  0  0  0  0
  191.8320  176.0490  148.8180 O   0  0  0  0  0  1  0  0  0  0  0  0
  185.0480  179.4620  139.9540 O   0  0  0  0  0  0  0  0  0  0  0  0
  184.1800  178.1070  138.2490 C   0  0  0  0  0  3  0  0  0  0  0  0
  183.9660  179.0650  139.1590 C   0  0  0  0  0  0  0  0  0  0  0  0
  181.5220  179.0560  138.4980 C   0  0  0  0  0  0  0  0  0  0  0  0
  182.5880  179.6630  139.3660 C   0  0  0  0  0  2  0  0  0  0  0  0
  183.1020  177.5770  137.3980 C   0  0  0  0  0  3  0  0  0  0  0  0
  181.8520  178.0180  137.5150 C   0  0  0  0  0  3  0  0  0  0  0  0
  180.3330  179.4500  138.6090 O   0  0  0  0  0  0  0  0  0  0  0  0
  186.2350  177.5060  145.0810 O   0  0  0  0  0  0  0  0  0  0  0  0
  185.6280  177.9860  146.2770 C   0  0  0  0  0  2  0  0  0  0  0  0
  187.9400  177.5290  147.0810 C   0  0  0  0  0  1  0  0  0  0  0  0
  186.6850  178.3470  147.3090 C   0  0  0  0  0  2  0  0  0  0  0  0
  1  4  1  0  0  0  0
  2  5  2  0  0  0  0
  3 32  1  0  0  0  0
  4  3  2  0  0  0  0
  5  3  1  0  0  0  0
  6  1  2  0  0  0  0
  6  2  1  0  0  0  0
  7  8  1  0  0  0  0
  8 21  1  0  0  0  0
 10  9  1  6  0  0  0
 10 14  1  0  0  0  0
 10 19  1  0  0  0  0
 12 14  1  0  0  0  0
 12  1  1  1  0  0  0
 13  7  1  0  0  0  0
 14 11  2  0  0  0  0
 15 16  1  0  0  0  0
 15 13  1  0  0  0  0
 16 11  1  6  0  0  0
 16 17  1  0  0  0  0
 17  8  2  0  0  0  0
 18  9  1  0  0  0  0
 18 12  1  0  0  0  0
 19 15  2  0  0  0  0
 20 23  1  0  0  0  0
 21 20  1  0  0  0  0
 22 20  2  0  0  0  0
 24  6  1  0  0  0  0
 25 26  2  0  0  0  0
 26 28  1  0  0  0  0
 26 24  1  0  0  0  0
 27 31  2  0  0  0  0
 27 28  1  0  0  0  0
 29 30  2  0  0  0  0
 29 25  1  0  0  0  0
 30 27  1  0  0  0  0
 32 33  1  0  0  0  0
 33 35  1  0  0  0  0
 34 35  1  0  0  0  0
M  END
>  <MODEL>
7

>  <REMARK>
 VINA RESULT:      -7.7      2.254      4.290
  Name = 
  7 active torsions:
  status: ('A' for Active; 'I' for Inactive)
    1  A    between atoms: C_2  and  C_14
    2  A    between atoms: C_5  and  C_23
    3  A    between atoms: O_6  and  C_7
    4  A    between atoms: O_6  and  C_29
    5  A    between atoms: C_8  and  N_17
    6  A    between atoms: C_14  and  O_31
    7  A    between atoms: C_15  and  O_31
                            x       y       z     vdW  Elec       q    Type
                         _______ _______ _______ _____ _____    ______ ____

>  <TORSDO>
F 7

$$$$
=
 OpenBabel10222419163D

 35 39  0  0  1  0  0  0  0  0999 V2000
  189.5970  177.0970  138.5520 C   0  0  0  0  0  0  0  0  0  0  0  0
  188.3420  178.2440  140.2920 C   0  0  0  0  0  3  0  0  0  0  0  0
  190.1600  176.7560  140.8960 C   0  0  0  0  0  0  0  0  0  0  0  0
  190.3820  176.4950  139.5410 C   0  0  0  0  0  3  0  0  0  0  0  0
  189.1320  177.6350  141.2670 C   0  0  0  0  0  3  0  0  0  0  0  0
  188.5620  177.9840  138.9310 C   0  0  0  0  0  0  0  0  0  0  0  0
  195.2260  173.4570  138.3950 C   0  0  0  0  0  2  0  0  0  0  0  0
  195.2170  174.7940  139.0840 C   0  0  0  0  0  0  0  0  0  0  0  0
  189.6900  174.4310  136.3230 N   0  0  0  0  0  2  0  0  0  0  0  0
  191.0930  174.8160  136.2060 C   0  0  1  0  0  3  0  0  0  0  0  0
  192.3630  176.4840  137.5070 C   0  0  0  0  0  3  0  0  0  0  0  0
  189.8920  176.7350  137.1180 C   0  0  1  0  0  3  0  0  0  0  0  0
  193.9280  173.1360  137.8930 O   0  0  0  0  0  0  0  0  0  0  0  0
  191.2170  176.1110  136.9170 C   0  0  0  0  0  0  0  0  0  0  0  0
  193.1120  174.1250  137.3390 C   0  0  0  0  0  0  0  0  0  0  0  0
  193.5590  175.5750  137.4050 C   0  0  2  0  0  3  0  0  0  0  0  0
  194.4380  175.7760  138.6060 C   0  0  0  0  0  3  0  0  0  0  0  0
  188.9350  175.6610  136.6060 C   0  0  0  0  0  2  0  0  0  0  0  0
  191.9630  173.8050  136.8130 N   0  0  0  0  0  0  0  0  0  0  0  0
  197.4810  175.2530  140.1990 C   0  0  0  0  0  0  0  0  0  0  0  0
  196.0710  174.9890  140.2190 N   0  0  0  0  0  2  0  0  0  0  0  0
  198.1070  175.3750  139.1130 O   0  0  0  0  0  0  0  0  0  0  0  0
  198.1650  175.3850  141.3990 O   0  0  0  0  0  1  0  0  0  0  0  0
  187.7840  178.6160  137.9500 O   0  0  0  0  0  0  0  0  0  0  0  0
  186.3660  177.6550  136.3500 C   0  0  0  0  0  3  0  0  0  0  0  0
  186.5020  178.2080  137.5610 C   0  0  0  0  0  0  0  0  0  0  0  0
  184.0440  177.7650  137.9690 C   0  0  0  0  0  0  0  0  0  0  0  0
  185.3250  178.3390  138.5070 C   0  0  0  0  0  2  0  0  0  0  0  0
  185.0760  177.1430  135.8610 C   0  0  0  0  0  3  0  0  0  0  0  0
  183.9840  177.1900  136.6210 C   0  0  0  0  0  3  0  0  0  0  0  0
  183.0080  177.7850  138.6820 O   0  0  0  0  0  0  0  0  0  0  0  0
  190.9700  176.1280  141.8480 O   0  0  0  0  0  0  0  0  0  0  0  0
  190.6050  175.9930  143.2180 C   0  0  0  0  0  2  0  0  0  0  0  0
  191.5180  178.1250  144.1270 C   0  0  0  0  0  1  0  0  0  0  0  0
  191.6600  176.6160  144.1200 C   0  0  0  0  0  2  0  0  0  0  0  0
  1  6  2  0  0  0  0
  1  4  1  0  0  0  0
  2  5  2  0  0  0  0
  3  5  1  0  0  0  0
  3 32  1  0  0  0  0
  4  3  2  0  0  0  0
  6  2  1  0  0  0  0
  7  8  1  0  0  0  0
  8 21  1  0  0  0  0
  9 18  1  0  0  0  0
 10  9  1  1  0  0  0
 10 19  1  0  0  0  0
 10 14  1  0  0  0  0
 12  1  1  1  0  0  0
 13  7  1  0  0  0  0
 14 12  1  0  0  0  0
 14 11  2  0  0  0  0
 15 16  1  0  0  0  0
 15 13  1  0  0  0  0
 16 11  1  1  0  0  0
 16 17  1  0  0  0  0
 17  8  2  0  0  0  0
 18 12  1  0  0  0  0
 19 15  2  0  0  0  0
 20 21  1  0  0  0  0
 20 23  1  0  0  0  0
 22 20  2  0  0  0  0
 24  6  1  0  0  0  0
 25 26  2  0  0  0  0
 26 24  1  0  0  0  0
 26 28  1  0  0  0  0
 27 28  1  0  0  0  0
 27 31  2  0  0  0  0
 29 25  1  0  0  0  0
 29 30  2  0  0  0  0
 30 27  1  0  0  0  0
 32 33  1  0  0  0  0
 33 35  1  0  0  0  0
 35 34  1  0  0  0  0
M  END
>  <MODEL>
8

>  <REMARK>
 VINA RESULT:      -7.5      5.361      7.747
  Name = 
  7 active torsions:
  status: ('A' for Active; 'I' for Inactive)
    1  A    between atoms: C_2  and  C_14
    2  A    between atoms: C_5  and  C_23
    3  A    between atoms: O_6  and  C_7
    4  A    between atoms: O_6  and  C_29
    5  A    between atoms: C_8  and  N_17
    6  A    between atoms: C_14  and  O_31
    7  A    between atoms: C_15  and  O_31
                            x       y       z     vdW  Elec       q    Type
                         _______ _______ _______ _____ _____    ______ ____

>  <TORSDO>
F 7

$$$$
=
 OpenBabel10222419163D

 35 39  0  0  1  0  0  0  0  0999 V2000
  184.2880  178.4600  139.7870 C   0  0  0  0  0  0  0  0  0  0  0  0
  183.0010  178.5760  141.8470 C   0  0  0  0  0  3  0  0  0  0  0  0
  185.4210  178.4560  141.9420 C   0  0  0  0  0  0  0  0  0  0  0  0
  185.4630  178.4190  140.5450 C   0  0  0  0  0  3  0  0  0  0  0  0
  184.1810  178.5330  142.5900 C   0  0  0  0  0  3  0  0  0  0  0  0
  183.0390  178.5390  140.4450 C   0  0  0  0  0  0  0  0  0  0  0  0
  190.3820  176.0650  138.3410 C   0  0  0  0  0  2  0  0  0  0  0  0
  190.2410  177.2520  139.2540 C   0  0  0  0  0  0  0  0  0  0  0  0
  184.5200  176.2390  137.1230 N   0  0  0  0  0  2  0  0  0  0  0  0
  185.8010  176.9060  136.9170 C   0  0  1  0  0  3  0  0  0  0  0  0
  186.9360  178.5700  138.3410 C   0  0  0  0  0  3  0  0  0  0  0  0
  184.4300  178.3870  138.2870 C   0  0  1  0  0  3  0  0  0  0  0  0
  189.1010  175.5770  137.9410 O   0  0  0  0  0  0  0  0  0  0  0  0
  185.8000  178.0750  137.8280 C   0  0  0  0  0  0  0  0  0  0  0  0
  188.0530  176.4590  137.6700 C   0  0  0  0  0  0  0  0  0  0  0  0
  188.2450  177.9410  137.9420 C   0  0  2  0  0  3  0  0  0  0  0  0
  189.2410  178.1240  139.0510 C   0  0  0  0  0  3  0  0  0  0  0  0
  183.6110  177.2380  137.7050 C   0  0  0  0  0  2  0  0  0  0  0  0
  186.9130  176.0050  137.2290 N   0  0  0  0  0  0  0  0  0  0  0  0
  191.0710  177.0330  141.6700 C   0  0  0  0  0  0  0  0  0  0  0  0
  191.2040  177.4340  140.3000 N   0  0  0  0  0  2  0  0  0  0  0  0
  190.0480  176.4210  142.0750 O   0  0  0  0  0  0  0  0  0  0  0  0
  192.0940  177.3160  142.5650 O   0  0  0  0  0  1  0  0  0  0  0  0
  181.8540  178.6070  139.6990 O   0  0  0  0  0  0  0  0  0  0  0  0
  180.0720  180.0480  140.1890 C   0  0  0  0  0  3  0  0  0  0  0  0
  181.1430  179.7850  139.4340 C   0  0  0  0  0  0  0  0  0  0  0  0
  180.7940  182.0070  138.2750 C   0  0  0  0  0  0  0  0  0  0  0  0
  181.6120  180.7500  138.3630 C   0  0  0  0  0  2  0  0  0  0  0  0
  179.2840  181.2820  140.0320 C   0  0  0  0  0  3  0  0  0  0  0  0
  179.6230  182.2060  139.1360 C   0  0  0  0  0  3  0  0  0  0  0  0
  181.1120  182.8990  137.4460 O   0  0  0  0  0  0  0  0  0  0  0  0
  186.6230  178.4110  142.6570 O   0  0  0  0  0  0  0  0  0  0  0  0
  186.9750  177.3410  143.5280 C   0  0  0  0  0  2  0  0  0  0  0  0
  186.2330  177.8090  145.8590 C   0  0  0  0  0  1  0  0  0  0  0  0
  187.3970  177.8720  144.8890 C   0  0  0  0  0  2  0  0  0  0  0  0
  1  6  2  0  0  0  0
  1  4  1  0  0  0  0
  2  5  2  0  0  0  0
  3  5  1  0  0  0  0
  3 32  1  0  0  0  0
  4  3  2  0  0  0  0
  6  2  1  0  0  0  0
  7  8  1  0  0  0  0
  8 21  1  0  0  0  0
  9 18  1  0  0  0  0
 10  9  1  1  0  0  0
 10 19  1  0  0  0  0
 10 14  1  0  0  0  0
 12  1  1  1  0  0  0
 13  7  1  0  0  0  0
 14 12  1  0  0  0  0
 14 11  2  0  0  0  0
 15 13  1  0  0  0  0
 15 16  1  0  0  0  0
 16 11  1  1  0  0  0
 16 17  1  0  0  0  0
 17  8  2  0  0  0  0
 18 12  1  0  0  0  0
 19 15  2  0  0  0  0
 20 22  2  0  0  0  0
 20 23  1  0  0  0  0
 21 20  1  0  0  0  0
 24  6  1  0  0  0  0
 26 24  1  0  0  0  0
 26 25  2  0  0  0  0
 27 28  1  0  0  0  0
 27 30  1  0  0  0  0
 28 26  1  0  0  0  0
 29 25  1  0  0  0  0
 30 29  2  0  0  0  0
 31 27  2  0  0  0  0
 32 33  1  0  0  0  0
 33 35  1  0  0  0  0
 35 34  1  0  0  0  0
M  END
>  <MODEL>
9

>  <REMARK>
 VINA RESULT:      -7.5      3.649      6.601
  Name = 
  7 active torsions:
  status: ('A' for Active; 'I' for Inactive)
    1  A    between atoms: C_2  and  C_14
    2  A    between atoms: C_5  and  C_23
    3  A    between atoms: O_6  and  C_7
    4  A    between atoms: O_6  and  C_29
    5  A    between atoms: C_8  and  N_17
    6  A    between atoms: C_14  and  O_31
    7  A    between atoms: C_15  and  O_31
                            x       y       z     vdW  Elec       q    Type
                         _______ _______ _______ _____ _____    ______ ____

>  <TORSDO>
F 7

$$$$
