=
 OpenBabel10222418273D

 26 30  0  0  1  0  0  0  0  0999 V2000
  187.6750  177.6430  141.3580 C   0  0  2  0  0  3  0  0  0  0  0  0
  189.8380  178.2140  144.3410 N   0  0  0  0  0  2  0  0  0  0  0  0
  188.9590  176.4740  137.3930 C   0  0  0  0  0  0  0  0  0  0  0  0
  188.5320  176.8960  138.6870 N   0  0  0  0  0  2  0  0  0  0  0  0
  186.0640  179.3990  141.8430 C   0  0  2  0  0  3  0  0  0  0  0  0
  190.3580  175.9550  137.1880 C   0  0  1  0  0  3  0  0  0  0  0  0
  187.4930  179.0730  141.7180 N   0  0  1  0  0  0  0  0  0  0  0  0
  185.3380  178.6080  142.9290 C   0  0  1  0  0  3  0  0  0  0  0  0
  190.9030  176.7980  139.4320 C   0  0  0  0  0  3  0  0  0  0  0  0
  187.8320  178.0790  142.7450 C   0  0  2  0  0  0  0  0  0  0  0  0
  184.0150  178.4960  140.9180 C   0  0  0  0  0  2  0  0  0  0  0  0
  189.4840  177.0190  139.7430 C   0  0  0  0  0  0  0  0  0  0  0  0
  189.9910  177.5410  142.0570 N   0  0  0  0  0  0  0  0  0  0  0  0
  189.0940  177.3800  140.9690 C   0  0  0  0  0  0  0  0  0  0  0  0
  191.2720  176.3510  138.2680 N   0  0  0  0  0  0  0  0  0  0  0  0
  188.1500  176.4990  136.4290 O   0  0  0  0  0  0  0  0  0  0  0  0
  189.2790  177.9200  143.0610 C   0  0  0  0  0  0  0  0  0  0  0  0
  184.3030  177.7670  142.2140 C   0  0  0  0  0  2  0  0  0  0  0  0
  185.3120  179.1800  140.5380 C   0  0  0  0  0  2  0  0  0  0  0  0
  186.4920  177.5470  143.8320 S   0  0  0  0  0  0  0  0  0  0  0  0
  190.3350  174.4930  137.0810 C   0  0  0  0  0  0  0  0  0  0  0  0
  190.3170  173.3390  136.9970 N   0  0  0  0  0  0  0  0  0  0  0  0
  191.2580  178.0720  144.6120 C   0  0  0  0  0  2  0  0  0  0  0  0
  191.5420  176.6640  145.0940 C   0  0  0  0  0  2  0  0  0  0  0  0
  191.8570  176.6730  147.6950 N   0  0  0  0  0  0  0  0  0  0  0  0
  191.7180  176.6700  146.5460 C   0  0  0  0  0  0  0  0  0  0  0  0
  1 14  1  6  0  0  0
  1  7  1  0  0  0  0
  1 10  1  0  0  0  0
  2 23  1  0  0  0  0
  3  4  1  0  0  0  0
  4 12  1  0  0  0  0
  5 19  1  6  0  0  0
  5  8  1  0  0  0  0
  6 21  1  1  0  0  0
  6  3  1  0  0  0  0
  6 15  1  0  0  0  0
  7  5  1  0  0  0  0
  7 10  1  0  0  0  0
  8 20  1  0  0  0  0
  9 12  1  0  0  0  0
 10 17  1  0  0  0  0
 10 20  1  0  0  0  0
 11 18  1  0  0  0  0
 12 14  2  0  0  0  0
 13 17  2  0  0  0  0
 14 13  1  0  0  0  0
 15  9  2  0  0  0  0
 16  3  2  0  0  0  0
 17  2  1  0  0  0  0
 18  8  1  0  0  0  0
 19 11  1  0  0  0  0
 22 21  3  0  0  0  0
 23 24  1  0  0  0  0
 24 26  1  0  0  0  0
 26 25  3  0  0  0  0
M  END
>  <MODEL>
1

>  <REMARK>
 VINA RESULT:      -6.5      0.000      0.000
  Name = 
  4 active torsions:
  status: ('A' for Active; 'I' for Inactive)
    1  A    between atoms: N_2  and  C_4
    2  A    between atoms: C_4  and  C_15
    3  A    between atoms: C_7  and  C_9
    4  A    between atoms: C_15  and  C_26
                            x       y       z     vdW  Elec       q    Type
                         _______ _______ _______ _____ _____    ______ ____

>  <TORSDO>
F 4

$$$$
=
 OpenBabel10222418273D

 26 30  0  0  1  0  0  0  0  0999 V2000
  189.1660  177.4720  142.5330 C   0  0  2  0  0  3  0  0  0  0  0  0
  191.6970  176.7670  139.8880 N   0  0  0  0  0  2  0  0  0  0  0  0
  185.1540  178.9950  141.9630 C   0  0  0  0  0  0  0  0  0  0  0  0
  186.4880  178.5290  142.1630 N   0  0  0  0  0  2  0  0  0  0  0  0
  190.7350  178.2650  144.2140 C   0  0  2  0  0  3  0  0  0  0  0  0
  184.5500  178.9980  140.5840 C   0  0  1  0  0  3  0  0  0  0  0  0
  190.3040  178.3860  142.8130 N   0  0  1  0  0  0  0  0  0  0  0  0
  191.2260  176.8710  144.5960 C   0  0  1  0  0  3  0  0  0  0  0  0
  186.8000  178.5620  139.6950 C   0  0  0  0  0  3  0  0  0  0  0  0
  190.5250  177.0950  142.1490 C   0  0  2  0  0  0  0  0  0  0  0  0
  189.6650  177.5950  146.2820 C   0  0  0  0  0  2  0  0  0  0  0  0
  187.3200  178.2570  141.0350 C   0  0  0  0  0  0  0  0  0  0  0  0
  189.4440  177.5150  140.1290 N   0  0  0  0  0  0  0  0  0  0  0  0
  188.5590  177.7870  141.2050 C   0  0  0  0  0  0  0  0  0  0  0  0
  185.5630  178.9240  139.5220 N   0  0  0  0  0  0  0  0  0  0  0  0
  184.4690  179.3680  142.9510 O   0  0  0  0  0  0  0  0  0  0  0  0
  190.5470  177.1110  140.6590 C   0  0  0  0  0  0  0  0  0  0  0  0
  190.2620  176.3580  145.6450 C   0  0  0  0  0  2  0  0  0  0  0  0
  189.6260  178.6410  145.1870 C   0  0  0  0  0  2  0  0  0  0  0  0
  191.2280  175.7730  143.1580 S   0  0  0  0  0  0  0  0  0  0  0  0
  183.6180  177.8750  140.4470 C   0  0  0  0  0  0  0  0  0  0  0  0
  182.8830  176.9880  140.3390 N   0  0  0  0  0  0  0  0  0  0  0  0
  191.6940  176.8150  138.4360 C   0  0  0  0  0  2  0  0  0  0  0  0
  192.2870  175.5350  137.8870 C   0  0  0  0  0  2  0  0  0  0  0  0
  190.3660  173.8280  137.3750 N   0  0  0  0  0  0  0  0  0  0  0  0
  191.2150  174.5820  137.6010 C   0  0  0  0  0  0  0  0  0  0  0  0
  1 14  1  6  0  0  0
  1  7  1  0  0  0  0
  2 17  1  0  0  0  0
  3  4  1  0  0  0  0
  3 16  2  0  0  0  0
  5  8  1  0  0  0  0
  5 19  1  1  0  0  0
  6 21  1  1  0  0  0
  6  3  1  0  0  0  0
  7  5  1  0  0  0  0
  8 18  1  0  0  0  0
  9 12  1  0  0  0  0
 10  1  1  0  0  0  0
 10  7  1  0  0  0  0
 10 20  1  0  0  0  0
 12 14  2  0  0  0  0
 12  4  1  0  0  0  0
 13 17  2  0  0  0  0
 13 14  1  0  0  0  0
 15  9  2  0  0  0  0
 15  6  1  0  0  0  0
 17 10  1  0  0  0  0
 18 11  1  0  0  0  0
 19 11  1  0  0  0  0
 20  8  1  0  0  0  0
 22 21  3  0  0  0  0
 23  2  1  0  0  0  0
 24 23  1  0  0  0  0
 25 26  3  0  0  0  0
 26 24  1  0  0  0  0
M  END
>  <MODEL>
2

>  <REMARK>
 VINA RESULT:      -6.4      2.530      6.193
  Name = 
  4 active torsions:
  status: ('A' for Active; 'I' for Inactive)
    1  A    between atoms: N_2  and  C_4
    2  A    between atoms: C_4  and  C_15
    3  A    between atoms: C_7  and  C_9
    4  A    between atoms: C_15  and  C_26
                            x       y       z     vdW  Elec       q    Type
                         _______ _______ _______ _____ _____    ______ ____

>  <TORSDO>
F 4

$$$$
=
 OpenBabel10222418273D

 26 30  0  0  1  0  0  0  0  0999 V2000
  187.9770  177.5110  138.3160 C   0  0  2  0  0  3  0  0  0  0  0  0
  184.5510  178.7550  139.0990 N   0  0  0  0  0  2  0  0  0  0  0  0
  191.4120  177.5010  140.9510 C   0  0  0  0  0  0  0  0  0  0  0  0
  190.2950  177.5350  140.0640 N   0  0  0  0  0  2  0  0  0  0  0  0
  188.0040  178.2180  135.9890 C   0  0  2  0  0  3  0  0  0  0  0  0
  191.2180  177.7420  142.4250 C   0  0  1  0  0  3  0  0  0  0  0  0
  187.7330  178.6340  137.3740 N   0  0  1  0  0  0  0  0  0  0  0  0
  187.1220  177.0730  135.4990 C   0  0  1  0  0  3  0  0  0  0  0  0
  188.9430  178.5170  141.9070 C   0  0  0  0  0  3  0  0  0  0  0  0
  186.6160  177.8300  137.8870 C   0  0  2  0  0  0  0  0  0  0  0  0
  189.4050  176.5360  134.9510 C   0  0  0  0  0  2  0  0  0  0  0  0
  189.0290  177.9970  140.5360 C   0  0  0  0  0  0  0  0  0  0  0  0
  186.6850  178.4680  140.1270 N   0  0  0  0  0  0  0  0  0  0  0  0
  187.9650  178.0030  139.7270 C   0  0  0  0  0  0  0  0  0  0  0  0
  189.9500  178.4210  142.7250 N   0  0  0  0  0  0  0  0  0  0  0  0
  192.5560  177.2280  140.5040 O   0  0  0  0  0  0  0  0  0  0  0  0
  185.9210  178.3560  139.0950 C   0  0  0  0  0  0  0  0  0  0  0  0
  188.0540  175.9120  135.2250 C   0  0  0  0  0  2  0  0  0  0  0  0
  189.4530  177.7940  135.7940 C   0  0  0  0  0  2  0  0  0  0  0  0
  185.9050  176.6150  136.7570 S   0  0  0  0  0  0  0  0  0  0  0  0
  191.2720  176.4680  143.1480 C   0  0  0  0  0  0  0  0  0  0  0  0
  191.3150  175.4620  143.7190 N   0  0  0  0  0  0  0  0  0  0  0  0
  183.9070  179.2870  140.2880 C   0  0  0  0  0  2  0  0  0  0  0  0
  183.4620  178.1450  141.1760 C   0  0  0  0  0  2  0  0  0  0  0  0
  184.5440  178.4050  143.5480 N   0  0  0  0  0  0  0  0  0  0  0  0
  184.0660  178.2900  142.5000 C   0  0  0  0  0  0  0  0  0  0  0  0
  1 14  1  1  0  0  0
  2 23  1  0  0  0  0
  3  6  1  0  0  0  0
  4 12  1  0  0  0  0
  4  3  1  0  0  0  0
  5 19  1  1  0  0  0
  5  7  1  0  0  0  0
  6 15  1  0  0  0  0
  6 21  1  1  0  0  0
  7 10  1  0  0  0  0
  7  1  1  0  0  0  0
  8  5  1  0  0  0  0
  8 20  1  0  0  0  0
  9 15  2  0  0  0  0
 10  1  1  0  0  0  0
 10 17  1  0  0  0  0
 11 18  1  0  0  0  0
 11 19  1  0  0  0  0
 12  9  1  0  0  0  0
 14 13  1  0  0  0  0
 14 12  2  0  0  0  0
 16  3  2  0  0  0  0
 17  2  1  0  0  0  0
 17 13  2  0  0  0  0
 18  8  1  0  0  0  0
 20 10  1  0  0  0  0
 21 22  3  0  0  0  0
 23 24  1  0  0  0  0
 24 26  1  0  0  0  0
 26 25  3  0  0  0  0
M  END
>  <MODEL>
3

>  <REMARK>
 VINA RESULT:      -6.2      2.857      6.255
  Name = 
  4 active torsions:
  status: ('A' for Active; 'I' for Inactive)
    1  A    between atoms: N_2  and  C_4
    2  A    between atoms: C_4  and  C_15
    3  A    between atoms: C_7  and  C_9
    4  A    between atoms: C_15  and  C_26
                            x       y       z     vdW  Elec       q    Type
                         _______ _______ _______ _____ _____    ______ ____

>  <TORSDO>
F 4

$$$$
=
 OpenBabel10222418273D

 26 30  0  0  1  0  0  0  0  0999 V2000
  190.4430  177.2710  140.2330 C   0  0  2  0  0  3  0  0  0  0  0  0
  187.0160  178.0460  138.9860 N   0  0  0  0  0  2  0  0  0  0  0  0
  193.7530  175.6810  137.9410 C   0  0  0  0  0  0  0  0  0  0  0  0
  192.6560  176.1690  138.7110 N   0  0  0  0  0  2  0  0  0  0  0  0
  189.7670  176.4920  142.4350 C   0  0  2  0  0  3  0  0  0  0  0  0
  193.6820  175.6790  136.4370 C   0  0  1  0  0  3  0  0  0  0  0  0
  189.5290  176.3760  140.9890 N   0  0  1  0  0  0  0  0  0  0  0  0
  189.5250  177.8910  142.9960 C   0  0  1  0  0  3  0  0  0  0  0  0
  191.2800  176.1640  136.6390 C   0  0  0  0  0  3  0  0  0  0  0  0
  189.0620  177.6760  140.4920 C   0  0  2  0  0  0  0  0  0  0  0  0
  191.6570  177.1230  143.8130 C   0  0  0  0  0  2  0  0  0  0  0  0
  191.4160  176.4670  138.0710 C   0  0  0  0  0  0  0  0  0  0  0  0
  189.1250  177.2540  138.2020 N   0  0  0  0  0  0  0  0  0  0  0  0
  190.3910  176.9570  138.7730 C   0  0  0  0  0  0  0  0  0  0  0  0
  192.3040  175.7810  135.9350 N   0  0  0  0  0  0  0  0  0  0  0  0
  194.7980  175.2870  138.5210 O   0  0  0  0  0  0  0  0  0  0  0  0
  188.3810  177.6740  139.1660 C   0  0  0  0  0  0  0  0  0  0  0  0
  190.8650  178.3760  143.5070 C   0  0  0  0  0  2  0  0  0  0  0  0
  191.1850  176.0870  142.8150 C   0  0  0  0  0  2  0  0  0  0  0  0
  188.9070  179.0010  141.7080 S   0  0  0  0  0  0  0  0  0  0  0  0
  194.4790  176.7870  135.9010 C   0  0  0  0  0  0  0  0  0  0  0  0
  195.1080  177.6610  135.4770 N   0  0  0  0  0  0  0  0  0  0  0  0
  186.3730  178.0100  137.6840 C   0  0  0  0  0  2  0  0  0  0  0  0
  184.8700  177.9970  137.8630 C   0  0  0  0  0  2  0  0  0  0  0  0
  184.1430  180.0370  139.3370 N   0  0  0  0  0  0  0  0  0  0  0  0
  184.4640  179.1350  138.6860 C   0  0  0  0  0  0  0  0  0  0  0  0
  1 14  1  6  0  0  0
  1 10  1  0  0  0  0
  1  7  1  0  0  0  0
  2 17  1  0  0  0  0
  3 16  2  0  0  0  0
  3  4  1  0  0  0  0
  5 19  1  6  0  0  0
  5  8  1  0  0  0  0
  6 21  1  6  0  0  0
  6  3  1  0  0  0  0
  7  5  1  0  0  0  0
  8 18  1  0  0  0  0
  9 12  1  0  0  0  0
 10  7  1  0  0  0  0
 10 20  1  0  0  0  0
 12  4  1  0  0  0  0
 12 14  2  0  0  0  0
 13 14  1  0  0  0  0
 13 17  2  0  0  0  0
 15  6  1  0  0  0  0
 15  9  2  0  0  0  0
 17 10  1  0  0  0  0
 18 11  1  0  0  0  0
 19 11  1  0  0  0  0
 20  8  1  0  0  0  0
 22 21  3  0  0  0  0
 23 24  1  0  0  0  0
 23  2  1  0  0  0  0
 24 26  1  0  0  0  0
 26 25  3  0  0  0  0
M  END
>  <MODEL>
4

>  <REMARK>
 VINA RESULT:      -6.2      3.013      6.024
  Name = 
  4 active torsions:
  status: ('A' for Active; 'I' for Inactive)
    1  A    between atoms: N_2  and  C_4
    2  A    between atoms: C_4  and  C_15
    3  A    between atoms: C_7  and  C_9
    4  A    between atoms: C_15  and  C_26
                            x       y       z     vdW  Elec       q    Type
                         _______ _______ _______ _____ _____    ______ ____

>  <TORSDO>
F 4

$$$$
=
 OpenBabel10222418273D

 26 30  0  0  1  0  0  0  0  0999 V2000
  184.7850  178.4230  141.7850 C   0  0  2  0  0  3  0  0  0  0  0  0
  188.2300  178.6750  140.3830 N   0  0  0  0  0  2  0  0  0  0  0  0
  181.0730  178.2530  139.5650 C   0  0  0  0  0  0  0  0  0  0  0  0
  182.2890  178.3470  140.3050 N   0  0  0  0  0  2  0  0  0  0  0  0
  185.1800  179.8130  143.7420 C   0  0  2  0  0  3  0  0  0  0  0  0
  181.1050  177.9800  138.0850 C   0  0  1  0  0  3  0  0  0  0  0  0
  185.3270  179.7150  142.2820 N   0  0  1  0  0  0  0  0  0  0  0  0
  185.9270  178.7310  144.5170 C   0  0  1  0  0  3  0  0  0  0  0  0
  183.5220  178.4240  138.1460 C   0  0  0  0  0  3  0  0  0  0  0  0
  186.2240  178.5910  141.9820 C   0  0  2  0  0  0  0  0  0  0  0  0
  183.6810  178.8440  145.3800 C   0  0  0  0  0  2  0  0  0  0  0  0
  183.5380  178.3850  139.6150 C   0  0  0  0  0  0  0  0  0  0  0  0
  185.9610  178.4980  139.6700 N   0  0  0  0  0  0  0  0  0  0  0  0
  184.6870  178.4380  140.2940 C   0  0  0  0  0  0  0  0  0  0  0  0
  182.4130  178.2720  137.4830 N   0  0  0  0  0  0  0  0  0  0  0  0
  179.9700  178.3600  140.1610 O   0  0  0  0  0  0  0  0  0  0  0  0
  186.8270  178.5690  140.6200 C   0  0  0  0  0  0  0  0  0  0  0  0
  184.8680  177.9170  145.2290 C   0  0  0  0  0  2  0  0  0  0  0  0
  183.7210  179.7590  144.1740 C   0  0  0  0  0  2  0  0  0  0  0  0
  186.8780  177.6770  143.3950 S   0  0  0  0  0  0  0  0  0  0  0  0
  180.7540  176.5790  137.8300 C   0  0  0  0  0  0  0  0  0  0  0  0
  180.4770  175.4730  137.6300 N   0  0  0  0  0  0  0  0  0  0  0  0
  188.7870  178.6740  139.0410 C   0  0  0  0  0  2  0  0  0  0  0  0
  189.6330  177.4340  138.8450 C   0  0  0  0  0  2  0  0  0  0  0  0
  191.4800  177.3310  140.7000 N   0  0  0  0  0  0  0  0  0  0  0  0
  190.6640  177.3760  139.8810 C   0  0  0  0  0  0  0  0  0  0  0  0
  1 14  1  6  0  0  0
  1 10  1  0  0  0  0
  1  7  1  0  0  0  0
  2 17  1  0  0  0  0
  3 16  2  0  0  0  0
  3  4  1  0  0  0  0
  5 19  1  6  0  0  0
  5  8  1  0  0  0  0
  6 21  1  1  0  0  0
  6  3  1  0  0  0  0
  7  5  1  0  0  0  0
  8 18  1  0  0  0  0
  9 12  1  0  0  0  0
 10  7  1  0  0  0  0
 10 20  1  0  0  0  0
 12 14  2  0  0  0  0
 12  4  1  0  0  0  0
 13 14  1  0  0  0  0
 13 17  2  0  0  0  0
 15  6  1  0  0  0  0
 15  9  2  0  0  0  0
 17 10  1  0  0  0  0
 18 11  1  0  0  0  0
 19 11  1  0  0  0  0
 20  8  1  0  0  0  0
 22 21  3  0  0  0  0
 23  2  1  0  0  0  0
 24 23  1  0  0  0  0
 24 26  1  0  0  0  0
 26 25  3  0  0  0  0
M  END
>  <MODEL>
5

>  <REMARK>
 VINA RESULT:      -5.9      3.633      6.165
  Name = 
  4 active torsions:
  status: ('A' for Active; 'I' for Inactive)
    1  A    between atoms: N_2  and  C_4
    2  A    between atoms: C_4  and  C_15
    3  A    between atoms: C_7  and  C_9
    4  A    between atoms: C_15  and  C_26
                            x       y       z     vdW  Elec       q    Type
                         _______ _______ _______ _____ _____    ______ ____

>  <TORSDO>
F 4

$$$$
=
 OpenBabel10222418273D

 26 30  0  0  1  0  0  0  0  0999 V2000
  190.5830  176.0430  137.8960 C   0  0  2  0  0  3  0  0  0  0  0  0
  188.2440  177.0540  135.1740 N   0  0  0  0  0  2  0  0  0  0  0  0
  190.5010  177.3480  142.0230 C   0  0  0  0  0  0  0  0  0  0  0  0
  190.5580  176.9420  140.6560 N   0  0  0  0  0  2  0  0  0  0  0  0
  192.5790  175.9130  136.5120 C   0  0  2  0  0  3  0  0  0  0  0  0
  189.2800  178.0510  142.5550 C   0  0  1  0  0  3  0  0  0  0  0  0
  191.4210  176.7390  136.8850 N   0  0  1  0  0  0  0  0  0  0  0  0
  192.2100  174.5710  135.8840 C   0  0  1  0  0  3  0  0  0  0  0  0
  188.5320  178.3220  140.2290 C   0  0  0  0  0  3  0  0  0  0  0  0
  190.1990  176.0290  136.4850 C   0  0  2  0  0  0  0  0  0  0  0  0
  193.8520  174.1610  137.5980 C   0  0  0  0  0  2  0  0  0  0  0  0
  189.5510  177.3800  139.7440 C   0  0  0  0  0  0  0  0  0  0  0  0
  188.6130  177.3950  137.5070 N   0  0  0  0  0  0  0  0  0  0  0  0
  189.5710  176.9810  138.4690 C   0  0  0  0  0  0  0  0  0  0  0  0
  188.4520  178.6320  141.4890 N   0  0  0  0  0  0  0  0  0  0  0  0
  191.4580  177.0800  142.7940 O   0  0  0  0  0  0  0  0  0  0  0  0
  188.9580  176.8470  136.3930 C   0  0  0  0  0  0  0  0  0  0  0  0
  192.7210  173.5080  136.8340 C   0  0  0  0  0  2  0  0  0  0  0  0
  193.4830  175.6260  137.7030 C   0  0  0  0  0  2  0  0  0  0  0  0
  190.4180  174.4250  135.6860 S   0  0  0  0  0  0  0  0  0  0  0  0
  188.4730  177.1160  143.3440 C   0  0  0  0  0  0  0  0  0  0  0  0
  187.8350  176.3780  143.9670 N   0  0  0  0  0  0  0  0  0  0  0  0
  187.0490  177.8780  135.1120 C   0  0  0  0  0  2  0  0  0  0  0  0
  185.8220  176.9930  135.1870 C   0  0  0  0  0  2  0  0  0  0  0  0
  184.7100  177.2340  137.5470 N   0  0  0  0  0  0  0  0  0  0  0  0
  185.2010  177.1280  136.5040 C   0  0  0  0  0  0  0  0  0  0  0  0
  1 14  1  1  0  0  0
  2 17  1  0  0  0  0
  3  6  1  0  0  0  0
  3 16  2  0  0  0  0
  4  3  1  0  0  0  0
  5  7  1  0  0  0  0
  5 19  1  1  0  0  0
  6 21  1  6  0  0  0
  7  1  1  0  0  0  0
  8  5  1  0  0  0  0
  8 18  1  0  0  0  0
  9 15  2  0  0  0  0
 10  7  1  0  0  0  0
 10  1  1  0  0  0  0
 11 19  1  0  0  0  0
 12  9  1  0  0  0  0
 12  4  1  0  0  0  0
 13 14  1  0  0  0  0
 14 12  2  0  0  0  0
 15  6  1  0  0  0  0
 17 10  1  0  0  0  0
 17 13  2  0  0  0  0
 18 11  1  0  0  0  0
 20  8  1  0  0  0  0
 20 10  1  0  0  0  0
 21 22  3  0  0  0  0
 23  2  1  0  0  0  0
 23 24  1  0  0  0  0
 24 26  1  0  0  0  0
 26 25  3  0  0  0  0
M  END
>  <MODEL>
6

>  <REMARK>
 VINA RESULT:      -5.7      3.548      8.086
  Name = 
  4 active torsions:
  status: ('A' for Active; 'I' for Inactive)
    1  A    between atoms: N_2  and  C_4
    2  A    between atoms: C_4  and  C_15
    3  A    between atoms: C_7  and  C_9
    4  A    between atoms: C_15  and  C_26
                            x       y       z     vdW  Elec       q    Type
                         _______ _______ _______ _____ _____    ______ ____

>  <TORSDO>
F 4

$$$$
=
 OpenBabel10222418273D

 26 30  0  0  1  0  0  0  0  0999 V2000
  185.1350  178.3040  142.4690 C   0  0  2  0  0  3  0  0  0  0  0  0
  188.3410  178.4840  140.5730 N   0  0  0  0  0  2  0  0  0  0  0  0
  181.1350  178.7320  140.8710 C   0  0  0  0  0  0  0  0  0  0  0  0
  182.4510  178.6280  141.4110 N   0  0  0  0  0  2  0  0  0  0  0  0
  185.9510  179.3730  144.4950 C   0  0  2  0  0  3  0  0  0  0  0  0
  180.9190  178.6670  139.3820 C   0  0  1  0  0  3  0  0  0  0  0  0
  185.8690  179.4680  143.0300 N   0  0  1  0  0  0  0  0  0  0  0  0
  186.6960  178.1380  144.9980 C   0  0  1  0  0  3  0  0  0  0  0  0
  183.3500  178.9110  139.1090 C   0  0  0  0  0  3  0  0  0  0  0  0
  186.5970  178.3320  142.4510 C   0  0  2  0  0  0  0  0  0  0  0  0
  184.6260  178.3020  146.2180 C   0  0  0  0  0  2  0  0  0  0  0  0
  183.5810  178.6660  140.5400 C   0  0  0  0  0  0  0  0  0  0  0  0
  185.9840  178.5840  140.2180 N   0  0  0  0  0  0  0  0  0  0  0  0
  184.8180  178.5350  141.0270 C   0  0  0  0  0  0  0  0  0  0  0  0
  182.1450  178.9390  138.6200 N   0  0  0  0  0  0  0  0  0  0  0  0
  180.1490  178.8390  141.6450 O   0  0  0  0  0  0  0  0  0  0  0  0
  186.9850  178.4550  141.0180 C   0  0  0  0  0  0  0  0  0  0  0  0
  185.6810  177.3170  145.7620 C   0  0  0  0  0  2  0  0  0  0  0  0
  184.5750  179.3710  145.1460 C   0  0  0  0  0  2  0  0  0  0  0  0
  187.3620  177.1820  143.6140 S   0  0  0  0  0  0  0  0  0  0  0  0
  180.3990  177.3470  139.0130 C   0  0  0  0  0  0  0  0  0  0  0  0
  179.9890  176.3040  138.7210 N   0  0  0  0  0  0  0  0  0  0  0  0
  188.6880  178.6280  139.1700 C   0  0  0  0  0  2  0  0  0  0  0  0
  189.1300  177.2890  138.6180 C   0  0  0  0  0  2  0  0  0  0  0  0
  187.1840  176.2320  137.2190 N   0  0  0  0  0  0  0  0  0  0  0  0
  188.0430  176.6990  137.8370 C   0  0  0  0  0  0  0  0  0  0  0  0
  1 14  1  6  0  0  0
  1  7  1  0  0  0  0
  2 17  1  0  0  0  0
  3  4  1  0  0  0  0
  3 16  2  0  0  0  0
  5  8  1  0  0  0  0
  5 19  1  1  0  0  0
  6 21  1  1  0  0  0
  6  3  1  0  0  0  0
  7  5  1  0  0  0  0
  8 18  1  0  0  0  0
  9 12  1  0  0  0  0
 10  1  1  0  0  0  0
 10  7  1  0  0  0  0
 10 20  1  0  0  0  0
 12 14  2  0  0  0  0
 12  4  1  0  0  0  0
 13 17  2  0  0  0  0
 13 14  1  0  0  0  0
 15  9  2  0  0  0  0
 15  6  1  0  0  0  0
 17 10  1  0  0  0  0
 18 11  1  0  0  0  0
 19 11  1  0  0  0  0
 20  8  1  0  0  0  0
 22 21  3  0  0  0  0
 23  2  1  0  0  0  0
 24 23  1  0  0  0  0
 25 26  3  0  0  0  0
 26 24  1  0  0  0  0
M  END
>  <MODEL>
7

>  <REMARK>
 VINA RESULT:      -5.6      3.655      6.818
  Name = 
  4 active torsions:
  status: ('A' for Active; 'I' for Inactive)
    1  A    between atoms: N_2  and  C_4
    2  A    between atoms: C_4  and  C_15
    3  A    between atoms: C_7  and  C_9
    4  A    between atoms: C_15  and  C_26
                            x       y       z     vdW  Elec       q    Type
                         _______ _______ _______ _____ _____    ______ ____

>  <TORSDO>
F 4

$$$$
=
 OpenBabel10222418273D

 26 30  0  0  1  0  0  0  0  0999 V2000
  189.5790  177.2380  138.4540 C   0  0  2  0  0  3  0  0  0  0  0  0
  192.5140  175.9370  136.5600 N   0  0  0  0  0  2  0  0  0  0  0  0
  189.2500  177.7200  142.7440 C   0  0  0  0  0  0  0  0  0  0  0  0
  189.3360  177.5290  141.3330 N   0  0  0  0  0  2  0  0  0  0  0  0
  187.8710  176.2630  137.0230 C   0  0  2  0  0  3  0  0  0  0  0  0
  190.4880  177.6450  143.5970 C   0  0  1  0  0  3  0  0  0  0  0  0
  189.1050  176.0020  137.7790 N   0  0  1  0  0  0  0  0  0  0  0  0
  188.0290  177.3000  135.9140 C   0  0  1  0  0  3  0  0  0  0  0  0
  191.6630  176.7090  141.6510 C   0  0  0  0  0  3  0  0  0  0  0  0
  190.1850  176.8080  137.1950 C   0  0  2  0  0  0  0  0  0  0  0  0
  186.0690  177.8740  137.1920 C   0  0  0  0  0  2  0  0  0  0  0  0
  190.5560  177.0670  140.7530 C   0  0  0  0  0  0  0  0  0  0  0  0
  191.8410  176.4430  138.7920 N   0  0  0  0  0  0  0  0  0  0  0  0
  190.6640  176.9160  139.4300 C   0  0  0  0  0  0  0  0  0  0  0  0
  191.5960  176.9490  142.9270 N   0  0  0  0  0  0  0  0  0  0  0  0
  188.1390  177.9910  143.2700 O   0  0  0  0  0  0  0  0  0  0  0  0
  191.5760  176.3960  137.5320 C   0  0  0  0  0  0  0  0  0  0  0  0
  187.1370  178.4620  136.2960 C   0  0  0  0  0  2  0  0  0  0  0  0
  186.7360  176.7290  137.9250 C   0  0  0  0  0  2  0  0  0  0  0  0
  189.7480  177.8460  135.7840 S   0  0  0  0  0  0  0  0  0  0  0  0
  190.9170  178.9970  143.9690 C   0  0  0  0  0  0  0  0  0  0  0  0
  191.2560  180.0640  144.2620 N   0  0  0  0  0  0  0  0  0  0  0  0
  193.8580  175.5190  136.9230 C   0  0  0  0  0  2  0  0  0  0  0  0
  193.8890  174.0160  137.0990 C   0  0  0  0  0  2  0  0  0  0  0  0
  195.4720  173.3980  139.0940 N   0  0  0  0  0  0  0  0  0  0  0  0
  194.7730  173.6710  138.2120 C   0  0  0  0  0  0  0  0  0  0  0  0
  1 14  1  1  0  0  0
  2 23  1  0  0  0  0
  2 17  1  0  0  0  0
  3 16  2  0  0  0  0
  3  6  1  0  0  0  0
  4  3  1  0  0  0  0
  5  7  1  0  0  0  0
  5 19  1  1  0  0  0
  6 21  1  6  0  0  0
  7  1  1  0  0  0  0
  8 18  1  0  0  0  0
  8  5  1  0  0  0  0
  9 15  2  0  0  0  0
 10 17  1  0  0  0  0
 10  7  1  0  0  0  0
 10  1  1  0  0  0  0
 11 19  1  0  0  0  0
 12  4  1  0  0  0  0
 12  9  1  0  0  0  0
 13 14  1  0  0  0  0
 14 12  2  0  0  0  0
 15  6  1  0  0  0  0
 17 13  2  0  0  0  0
 18 11  1  0  0  0  0
 20  8  1  0  0  0  0
 20 10  1  0  0  0  0
 21 22  3  0  0  0  0
 23 24  1  0  0  0  0
 24 26  1  0  0  0  0
 26 25  3  0  0  0  0
M  END
>  <MODEL>
8

>  <REMARK>
 VINA RESULT:      -5.5      3.357      6.559
  Name = 
  4 active torsions:
  status: ('A' for Active; 'I' for Inactive)
    1  A    between atoms: N_2  and  C_4
    2  A    between atoms: C_4  and  C_15
    3  A    between atoms: C_7  and  C_9
    4  A    between atoms: C_15  and  C_26
                            x       y       z     vdW  Elec       q    Type
                         _______ _______ _______ _____ _____    ______ ____

>  <TORSDO>
F 4

$$$$
=
 OpenBabel10222418273D

 26 30  0  0  1  0  0  0  0  0999 V2000
  184.4590  178.4530  139.8350 C   0  0  2  0  0  3  0  0  0  0  0  0
  184.1500  179.2860  143.4560 N   0  0  0  0  0  2  0  0  0  0  0  0
  188.1180  178.0040  137.5660 C   0  0  0  0  0  0  0  0  0  0  0  0
  186.9070  178.1870  138.2980 N   0  0  0  0  0  2  0  0  0  0  0  0
  182.5010  179.6940  139.0970 C   0  0  2  0  0  3  0  0  0  0  0  0
  189.4310  177.8770  138.2920 C   0  0  1  0  0  3  0  0  0  0  0  0
  183.7400  179.7530  139.8880 N   0  0  1  0  0  0  0  0  0  0  0  0
  181.4990  178.6510  139.5870 C   0  0  1  0  0  3  0  0  0  0  0  0
  188.2760  178.6280  140.3280 C   0  0  0  0  0  3  0  0  0  0  0  0
  183.6300  178.7900  140.9920 C   0  0  2  0  0  0  0  0  0  0  0  0
  181.7400  178.3870  137.2050 C   0  0  0  0  0  2  0  0  0  0  0  0
  186.9590  178.4540  139.6990 C   0  0  0  0  0  0  0  0  0  0  0  0
  185.8140  178.8800  141.7950 N   0  0  0  0  0  0  0  0  0  0  0  0
  185.8330  178.5940  140.4050 C   0  0  0  0  0  0  0  0  0  0  0  0
  189.3710  178.3940  139.6660 N   0  0  0  0  0  0  0  0  0  0  0  0
  188.0810  177.9090  136.3120 O   0  0  0  0  0  0  0  0  0  0  0  0
  184.5740  178.9750  142.1290 C   0  0  0  0  0  0  0  0  0  0  0  0
  181.3610  177.6420  138.4670 C   0  0  0  0  0  2  0  0  0  0  0  0
  182.7750  179.4080  137.6270 C   0  0  0  0  0  2  0  0  0  0  0  0
  182.0970  177.8420  141.0900 S   0  0  0  0  0  0  0  0  0  0  0  0
  189.8500  176.4720  138.3180 C   0  0  0  0  0  0  0  0  0  0  0  0
  190.1810  175.3640  138.3390 N   0  0  0  0  0  0  0  0  0  0  0  0
  185.0970  179.4840  144.5400 C   0  0  0  0  0  2  0  0  0  0  0  0
  184.6970  178.6280  145.7230 C   0  0  0  0  0  2  0  0  0  0  0  0
  186.7740  178.2530  147.2760 N   0  0  0  0  0  0  0  0  0  0  0  0
  185.8560  178.4180  146.5900 C   0  0  0  0  0  0  0  0  0  0  0  0
  1  7  1  0  0  0  0
  1 14  1  1  0  0  0
  1 10  1  0  0  0  0
  2 23  1  0  0  0  0
  3  6  1  0  0  0  0
  3  4  1  0  0  0  0
  4 12  1  0  0  0  0
  5 19  1  6  0  0  0
  5  8  1  0  0  0  0
  5  7  1  0  0  0  0
  6 21  1  1  0  0  0
  6 15  1  0  0  0  0
  7 10  1  0  0  0  0
  8 20  1  0  0  0  0
 10 20  1  0  0  0  0
 10 17  1  0  0  0  0
 11 19  1  0  0  0  0
 11 18  1  0  0  0  0
 12  9  1  0  0  0  0
 12 14  2  0  0  0  0
 13 17  2  0  0  0  0
 14 13  1  0  0  0  0
 15  9  2  0  0  0  0
 16  3  2  0  0  0  0
 17  2  1  0  0  0  0
 18  8  1  0  0  0  0
 21 22  3  0  0  0  0
 23 24  1  0  0  0  0
 24 26  1  0  0  0  0
 26 25  3  0  0  0  0
M  END
>  <MODEL>
9

>  <REMARK>
 VINA RESULT:      -5.5      3.038      4.321
  Name = 
  4 active torsions:
  status: ('A' for Active; 'I' for Inactive)
    1  A    between atoms: N_2  and  C_4
    2  A    between atoms: C_4  and  C_15
    3  A    between atoms: C_7  and  C_9
    4  A    between atoms: C_15  and  C_26
                            x       y       z     vdW  Elec       q    Type
                         _______ _______ _______ _____ _____    ______ ____

>  <TORSDO>
F 4

$$$$
