=
 OpenBabel10222416133D

 44 48  0  0  1  0  0  0  0  0999 V2000
  184.8510  179.3260  145.9690 N   0  0  0  0  0  0  0  0  0  0  0  0
  187.6270  178.5830  148.1640 C   0  0  0  0  0  3  0  0  0  0  0  0
  189.0760  177.0090  147.0520 C   0  0  0  0  0  3  0  0  0  0  0  0
  187.1130  177.7710  145.9430 C   0  0  0  0  0  0  0  0  0  0  0  0
  186.2650  177.7690  144.8280 C   0  0  0  0  0  0  0  0  0  0  0  0
  188.2460  177.0130  145.9720 N   0  0  0  0  0  0  0  0  0  0  0  0
  186.7880  178.5730  147.0490 C   0  0  0  0  0  0  0  0  0  0  0  0
  185.0900  178.5630  144.8630 C   0  0  0  0  0  0  0  0  0  0  0  0
  188.7790  177.7960  148.1690 C   0  0  0  0  0  3  0  0  0  0  0  0
  185.6660  179.3320  147.0230 N   0  0  0  0  0  0  0  0  0  0  0  0
  182.4810  178.5440  141.0120 C   0  0  0  0  0  0  0  0  0  0  0  0
  183.7750  178.3570  141.2550 C   0  0  0  0  0  3  0  0  0  0  0  0
  182.7120  178.8780  144.1250 C   0  0  0  0  0  3  0  0  0  0  0  0
  184.5250  178.3860  142.5090 C   0  0  0  0  0  3  0  0  0  0  0  0
  181.5120  178.8260  141.9830 O   0  0  0  0  0  0  0  0  0  0  0  0
  184.1080  178.6260  143.7500 C   0  0  0  0  0  0  0  0  0  0  0  0
  181.6240  178.9620  143.3680 C   0  0  0  0  0  3  0  0  0  0  0  0
  181.3250  179.2370  137.5590 N   0  0  0  0  0  0  0  0  0  0  0  0
  180.8470  180.2120  136.6650 N   0  0  0  0  0  2  0  0  0  0  0  0
  181.4120  180.9060  139.3330 C   0  0  0  0  0  2  0  0  0  0  0  0
  181.5010  181.9490  138.2250 C   0  0  0  0  0  2  0  0  0  0  0  0
  181.6260  179.5130  138.7940 C   0  0  0  0  0  0  0  0  0  0  0  0
  180.5430  181.5670  137.1100 C   0  0  0  0  0  2  0  0  0  0  0  0
  182.0800  178.4480  139.6400 N   0  0  0  0  0  2  0  0  0  0  0  0
  186.6280  176.9440  143.6290 C   0  0  0  0  0  2  0  0  0  0  0  0
  188.0290  177.1550  143.3010 N   0  0  0  0  0  2  0  0  0  0  0  0
  188.5430  174.8800  143.2460 O   0  0  0  0  0  0  0  0  0  0  0  0
  188.9450  176.0700  143.1430 C   0  0  0  0  0  0  0  0  0  0  0  0
  190.3310  176.3220  142.8870 N   0  0  0  0  0  2  0  0  0  0  0  0
  191.7660  177.9930  143.9590 C   0  0  0  0  0  1  0  0  0  0  0  0
  190.9210  177.6510  142.7460 C   0  0  1  0  0  3  0  0  0  0  0  0
  191.7550  177.7650  141.4740 C   0  0  0  0  0  2  0  0  0  0  0  0
  191.9440  177.2280  139.0670 C   0  0  0  0  0  1  0  0  0  0  0  0
  191.0320  177.1720  140.2750 C   0  0  2  0  0  3  0  0  0  0  0  0
  189.8230  177.9290  139.9960 N   0  0  0  0  0  2  0  0  0  0  0  0
  189.7590  178.0940  138.6060 N   0  0  0  0  0  2  0  0  0  0  0  0
  188.5200  178.6810  138.3260 N   0  0  0  0  0  2  0  0  0  0  0  0
  185.5890  175.5720  137.0860 O   0  0  0  0  0  0  0  0  0  0  0  0
  187.3890  177.8760  137.9990 C   0  0  0  0  0  0  0  0  0  0  0  0
  185.0470  176.7210  136.5060 C   0  0  0  0  0  2  0  0  0  0  0  0
  186.2510  178.4650  137.7710 N   0  0  0  0  0  0  0  0  0  0  0  0
  187.5410  176.4840  137.9390 O   0  0  0  0  0  0  0  0  0  0  0  0
  184.9610  177.8100  137.5610 C   0  0  0  0  0  2  0  0  0  0  0  0
  186.9690  175.6900  136.9060 C   0  0  0  0  0  2  0  0  0  0  0  0
  1 10  1  0  0  0  0
  2  9  2  0  0  0  0
  3  9  1  0  0  0  0
  4  6  1  0  0  0  0
  4  7  1  0  0  0  0
  5  8  1  0  0  0  0
  5  4  2  0  0  0  0
  6  3  2  0  0  0  0
  7  2  1  0  0  0  0
  8  1  2  0  0  0  0
 10  7  2  0  0  0  0
 11 12  2  0  0  0  0
 11 15  1  0  0  0  0
 12 14  1  0  0  0  0
 14 16  2  0  0  0  0
 15 17  1  0  0  0  0
 16 13  1  0  0  0  0
 16  8  1  0  0  0  0
 17 13  2  0  0  0  0
 18 22  2  0  0  0  0
 19 23  1  0  0  0  0
 19 18  1  0  0  0  0
 21 20  1  0  0  0  0
 22 20  1  0  0  0  0
 22 24  1  0  0  0  0
 23 21  1  0  0  0  0
 24 11  1  0  0  0  0
 25  5  1  0  0  0  0
 26 25  1  0  0  0  0
 28 27  2  0  0  0  0
 28 26  1  0  0  0  0
 29 28  1  0  0  0  0
 31 29  1  0  0  0  0
 31 30  1  1  0  0  0
 32 31  1  0  0  0  0
 34 33  1  6  0  0  0
 34 32  1  0  0  0  0
 35 34  1  0  0  0  0
 36 35  1  0  0  0  0
 37 36  1  0  0  0  0
 39 37  1  0  0  0  0
 40 38  1  0  0  0  0
 40 43  1  0  0  0  0
 41 39  2  0  0  0  0
 42 39  1  0  0  0  0
 43 41  1  0  0  0  0
 44 38  1  0  0  0  0
 44 42  1  0  0  0  0
M  END
>  <MODEL>
1

>  <REMARK>
 VINA RESULT:      -9.4      0.000      0.000
  Name = 
  10 active torsions:
  status: ('A' for Active; 'I' for Inactive)
    1  A    between atoms: C_2  and  N_40
    2  A    between atoms: N_7  and  N_25
    3  A    between atoms: N_8  and  C_39
    4  A    between atoms: C_9  and  N_28
    5  A    between atoms: C_9  and  C_42
    6  A    between atoms: C_23  and  C_39
    7  A    between atoms: N_25  and  N_38
    8  A    between atoms: C_33  and  C_35
    9  A    between atoms: N_38  and  C_41
   10  A    between atoms: C_41  and  C_42
                            x       y       z     vdW  Elec       q    Type
                         _______ _______ _______ _____ _____    ______ ____

>  <TORSDO>
F 10

$$$$
=
 OpenBabel10222416133D

 44 48  0  0  1  0  0  0  0  0999 V2000
  185.2130  179.4790  146.1460 N   0  0  0  0  0  0  0  0  0  0  0  0
  187.9700  178.6140  148.3200 C   0  0  0  0  0  3  0  0  0  0  0  0
  189.2160  176.8240  147.2910 C   0  0  0  0  0  3  0  0  0  0  0  0
  187.3050  177.7030  146.1790 C   0  0  0  0  0  0  0  0  0  0  0  0
  186.4240  177.7090  145.0880 C   0  0  0  0  0  0  0  0  0  0  0  0
  188.3560  176.8370  146.2360 N   0  0  0  0  0  0  0  0  0  0  0  0
  187.0980  178.6100  147.2310 C   0  0  0  0  0  0  0  0  0  0  0  0
  185.3380  178.6190  145.0950 C   0  0  0  0  0  0  0  0  0  0  0  0
  189.0370  177.7140  148.3530 C   0  0  0  0  0  3  0  0  0  0  0  0
  186.0590  179.4770  147.1770 N   0  0  0  0  0  0  0  0  0  0  0  0
  182.6640  178.7590  141.2910 C   0  0  0  0  0  0  0  0  0  0  0  0
  183.9740  178.6800  141.4990 C   0  0  0  0  0  3  0  0  0  0  0  0
  182.9250  178.7670  144.4190 C   0  0  0  0  0  3  0  0  0  0  0  0
  184.7440  178.6470  142.7410 C   0  0  0  0  0  3  0  0  0  0  0  0
  181.6920  178.8290  142.2970 O   0  0  0  0  0  0  0  0  0  0  0  0
  184.3310  178.7030  144.0050 C   0  0  0  0  0  0  0  0  0  0  0  0
  181.8180  178.8220  143.6870 C   0  0  0  0  0  3  0  0  0  0  0  0
  181.5260  177.8550  137.8810 N   0  0  0  0  0  0  0  0  0  0  0  0
  181.2040  176.8060  137.0000 N   0  0  0  0  0  2  0  0  0  0  0  0
  182.0820  176.2320  139.6120 C   0  0  0  0  0  2  0  0  0  0  0  0
  181.1700  175.2610  138.8700 C   0  0  0  0  0  2  0  0  0  0  0  0
  181.9110  177.6430  139.1050 C   0  0  0  0  0  0  0  0  0  0  0  0
  181.4030  175.4110  137.3760 C   0  0  0  0  0  2  0  0  0  0  0  0
  182.2450  178.7740  139.9210 N   0  0  0  0  0  2  0  0  0  0  0  0
  186.6640  176.7670  143.9450 C   0  0  0  0  0  2  0  0  0  0  0  0
  187.9520  177.0600  143.3370 N   0  0  0  0  0  2  0  0  0  0  0  0
  188.5950  174.8220  143.1980 O   0  0  0  0  0  0  0  0  0  0  0  0
  188.8870  176.0320  143.0060 C   0  0  0  0  0  0  0  0  0  0  0  0
  190.1720  176.3650  142.4700 N   0  0  0  0  0  2  0  0  0  0  0  0
  191.6290  178.1740  143.2540 C   0  0  0  0  0  1  0  0  0  0  0  0
  190.6320  177.7260  142.2010 C   0  0  1  0  0  3  0  0  0  0  0  0
  191.2450  177.8480  140.8090 C   0  0  0  0  0  2  0  0  0  0  0  0
  191.0740  176.7220  138.6140 C   0  0  0  0  0  1  0  0  0  0  0  0
  190.2850  177.3740  139.7300 C   0  0  2  0  0  3  0  0  0  0  0  0
  189.5410  178.5030  139.1930 N   0  0  0  0  0  2  0  0  0  0  0  0
  188.1990  178.3050  139.5400 N   0  0  0  0  0  2  0  0  0  0  0  0
  187.4430  178.5680  138.3910 N   0  0  0  0  0  2  0  0  0  0  0  0
  187.0760  174.8900  135.9160 O   0  0  0  0  0  0  0  0  0  0  0  0
  187.1050  177.5200  137.4850 C   0  0  0  0  0  0  0  0  0  0  0  0
  186.8730  175.8930  134.9660 C   0  0  0  0  0  2  0  0  0  0  0  0
  186.3800  177.8070  136.4430 N   0  0  0  0  0  0  0  0  0  0  0  0
  187.5610  176.2210  137.7490 O   0  0  0  0  0  0  0  0  0  0  0  0
  185.8200  176.8550  135.4860 C   0  0  0  0  0  2  0  0  0  0  0  0
  188.0950  175.3710  136.7400 C   0  0  0  0  0  2  0  0  0  0  0  0
  1 10  1  0  0  0  0
  2  9  2  0  0  0  0
  3  9  1  0  0  0  0
  4  6  1  0  0  0  0
  4  7  1  0  0  0  0
  5  8  1  0  0  0  0
  5  4  2  0  0  0  0
  6  3  2  0  0  0  0
  7  2  1  0  0  0  0
  8  1  2  0  0  0  0
 10  7  2  0  0  0  0
 11 12  2  0  0  0  0
 11 15  1  0  0  0  0
 12 14  1  0  0  0  0
 14 16  2  0  0  0  0
 15 17  1  0  0  0  0
 16 13  1  0  0  0  0
 16  8  1  0  0  0  0
 17 13  2  0  0  0  0
 18 22  2  0  0  0  0
 19 23  1  0  0  0  0
 19 18  1  0  0  0  0
 21 20  1  0  0  0  0
 22 20  1  0  0  0  0
 22 24  1  0  0  0  0
 23 21  1  0  0  0  0
 24 11  1  0  0  0  0
 25  5  1  0  0  0  0
 26 25  1  0  0  0  0
 28 27  2  0  0  0  0
 28 26  1  0  0  0  0
 29 28  1  0  0  0  0
 31 29  1  0  0  0  0
 31 30  1  1  0  0  0
 32 31  1  0  0  0  0
 34 33  1  6  0  0  0
 34 32  1  0  0  0  0
 35 36  1  0  0  0  0
 35 34  1  0  0  0  0
 37 36  1  0  0  0  0
 38 44  1  0  0  0  0
 39 42  1  0  0  0  0
 39 37  1  0  0  0  0
 40 43  1  0  0  0  0
 40 38  1  0  0  0  0
 41 39  2  0  0  0  0
 43 41  1  0  0  0  0
 44 42  1  0  0  0  0
M  END
>  <MODEL>
2

>  <REMARK>
 VINA RESULT:      -9.3      1.411      1.888
  Name = 
  10 active torsions:
  status: ('A' for Active; 'I' for Inactive)
    1  A    between atoms: C_2  and  N_40
    2  A    between atoms: N_7  and  N_25
    3  A    between atoms: N_8  and  C_39
    4  A    between atoms: C_9  and  N_28
    5  A    between atoms: C_9  and  C_42
    6  A    between atoms: C_23  and  C_39
    7  A    between atoms: N_25  and  N_38
    8  A    between atoms: C_33  and  C_35
    9  A    between atoms: N_38  and  C_41
   10  A    between atoms: C_41  and  C_42
                            x       y       z     vdW  Elec       q    Type
                         _______ _______ _______ _____ _____    ______ ____

>  <TORSDO>
F 10

$$$$
=
 OpenBabel10222416133D

 44 48  0  0  1  0  0  0  0  0999 V2000
  189.2680  173.8020  136.6310 N   0  0  0  0  0  0  0  0  0  0  0  0
  192.8720  173.8190  136.9320 C   0  0  0  0  0  3  0  0  0  0  0  0
  193.5410  175.9050  137.9390 C   0  0  0  0  0  3  0  0  0  0  0  0
  191.2310  175.4820  137.5610 C   0  0  0  0  0  0  0  0  0  0  0  0
  189.8890  175.8820  137.6380 C   0  0  0  0  0  0  0  0  0  0  0  0
  192.2350  176.2860  138.0100 N   0  0  0  0  0  0  0  0  0  0  0  0
  191.5400  174.2270  137.0110 C   0  0  0  0  0  0  0  0  0  0  0  0
  188.8890  175.0110  137.1360 C   0  0  0  0  0  0  0  0  0  0  0  0
  193.8820  174.6630  137.3970 C   0  0  0  0  0  3  0  0  0  0  0  0
  190.5440  173.4220  136.5680 N   0  0  0  0  0  0  0  0  0  0  0  0
  184.5240  176.6180  137.0460 C   0  0  0  0  0  0  0  0  0  0  0  0
  185.7220  177.1920  137.0180 C   0  0  0  0  0  3  0  0  0  0  0  0
  186.5150  174.1950  137.1800 C   0  0  0  0  0  3  0  0  0  0  0  0
  187.0620  176.6090  137.0570 C   0  0  0  0  0  3  0  0  0  0  0  0
  184.2930  175.2390  137.1220 O   0  0  0  0  0  0  0  0  0  0  0  0
  187.4390  175.3350  137.1470 C   0  0  0  0  0  0  0  0  0  0  0  0
  185.1880  174.1680  137.1710 C   0  0  0  0  0  3  0  0  0  0  0  0
  181.6320  178.7880  137.8640 N   0  0  0  0  0  0  0  0  0  0  0  0
  180.7830  179.2630  138.8800 N   0  0  0  0  0  2  0  0  0  0  0  0
  182.8190  177.4200  139.4940 C   0  0  0  0  0  2  0  0  0  0  0  0
  182.3140  178.3970  140.5500 C   0  0  0  0  0  2  0  0  0  0  0  0
  182.6040  177.9570  138.1010 C   0  0  0  0  0  0  0  0  0  0  0  0
  180.8690  178.7490  140.2430 C   0  0  0  0  0  2  0  0  0  0  0  0
  183.4010  177.5060  136.9970 N   0  0  0  0  0  2  0  0  0  0  0  0
  189.5500  177.2050  138.2580 C   0  0  0  0  0  2  0  0  0  0  0  0
  189.7020  177.1170  139.7020 N   0  0  0  0  0  2  0  0  0  0  0  0
  187.8880  178.5100  140.1570 O   0  0  0  0  0  0  0  0  0  0  0  0
  188.8430  177.8190  140.6020 C   0  0  0  0  0  0  0  0  0  0  0  0
  189.0660  177.7590  142.0140 N   0  0  0  0  0  2  0  0  0  0  0  0
  191.4300  177.7860  142.6600 C   0  0  0  0  0  1  0  0  0  0  0  0
  190.1350  176.9950  142.6540 C   0  0  1  0  0  3  0  0  0  0  0  0
  189.7610  176.5850  144.0760 C   0  0  0  0  0  2  0  0  0  0  0  0
  191.0800  176.7510  146.1600 C   0  0  0  0  0  1  0  0  0  0  0  0
  190.3380  177.5440  145.1050 C   0  0  2  0  0  3  0  0  0  0  0  0
  189.2690  178.2990  145.7380 N   0  0  0  0  0  2  0  0  0  0  0  0
  188.3550  177.3630  146.2410 N   0  0  0  0  0  2  0  0  0  0  0  0
  187.2050  178.0760  146.6000 N   0  0  0  0  0  2  0  0  0  0  0  0
  184.3580  178.2270  143.1860 O   0  0  0  0  0  0  0  0  0  0  0  0
  186.1030  178.1810  145.7030 C   0  0  0  0  0  0  0  0  0  0  0  0
  183.9710  179.3450  143.9280 C   0  0  0  0  0  2  0  0  0  0  0  0
  185.0450  178.8340  146.0910 N   0  0  0  0  0  0  0  0  0  0  0  0
  186.1930  177.5770  144.4420 O   0  0  0  0  0  0  0  0  0  0  0  0
  183.7740  178.9300  145.3750 C   0  0  0  0  0  2  0  0  0  0  0  0
  185.7530  178.2150  143.2470 C   0  0  0  0  0  2  0  0  0  0  0  0
  1  8  1  0  0  0  0
  2  7  2  0  0  0  0
  2  9  1  0  0  0  0
  3  6  1  0  0  0  0
  4  5  1  0  0  0  0
  4  6  2  0  0  0  0
  5 25  1  0  0  0  0
  7  4  1  0  0  0  0
  8 16  1  0  0  0  0
  8  5  2  0  0  0  0
  9  3  2  0  0  0  0
 10  1  2  0  0  0  0
 10  7  1  0  0  0  0
 11 15  1  0  0  0  0
 12 11  2  0  0  0  0
 12 14  1  0  0  0  0
 14 16  2  0  0  0  0
 15 17  1  0  0  0  0
 16 13  1  0  0  0  0
 17 13  2  0  0  0  0
 18 22  2  0  0  0  0
 18 19  1  0  0  0  0
 19 23  1  0  0  0  0
 20 21  1  0  0  0  0
 22 20  1  0  0  0  0
 23 21  1  0  0  0  0
 24 11  1  0  0  0  0
 24 22  1  0  0  0  0
 25 26  1  0  0  0  0
 26 28  1  0  0  0  0
 27 28  2  0  0  0  0
 28 29  1  0  0  0  0
 29 31  1  0  0  0  0
 31 30  1  1  0  0  0
 31 32  1  0  0  0  0
 32 34  1  0  0  0  0
 34 35  1  0  0  0  0
 34 33  1  1  0  0  0
 35 36  1  0  0  0  0
 36 37  1  0  0  0  0
 38 44  1  0  0  0  0
 38 40  1  0  0  0  0
 39 41  2  0  0  0  0
 39 37  1  0  0  0  0
 40 43  1  0  0  0  0
 42 39  1  0  0  0  0
 43 41  1  0  0  0  0
 44 42  1  0  0  0  0
M  END
>  <MODEL>
3

>  <REMARK>
 VINA RESULT:      -9.0      2.290      7.348
  Name = 
  10 active torsions:
  status: ('A' for Active; 'I' for Inactive)
    1  A    between atoms: C_2  and  N_40
    2  A    between atoms: N_7  and  N_25
    3  A    between atoms: N_8  and  C_39
    4  A    between atoms: C_9  and  N_28
    5  A    between atoms: C_9  and  C_42
    6  A    between atoms: C_23  and  C_39
    7  A    between atoms: N_25  and  N_38
    8  A    between atoms: C_33  and  C_35
    9  A    between atoms: N_38  and  C_41
   10  A    between atoms: C_41  and  C_42
                            x       y       z     vdW  Elec       q    Type
                         _______ _______ _______ _____ _____    ______ ____

>  <TORSDO>
F 10

$$$$
=
 OpenBabel10222416133D

 44 48  0  0  1  0  0  0  0  0999 V2000
  185.5850  174.3430  136.5990 N   0  0  0  0  0  0  0  0  0  0  0  0
  182.0070  174.3510  137.1190 C   0  0  0  0  0  3  0  0  0  0  0  0
  181.3380  176.5740  137.7690 C   0  0  0  0  0  3  0  0  0  0  0  0
  183.6320  176.1310  137.3240 C   0  0  0  0  0  0  0  0  0  0  0  0
  184.9630  176.5640  137.2350 C   0  0  0  0  0  0  0  0  0  0  0  0
  182.6320  176.9860  137.6810 N   0  0  0  0  0  0  0  0  0  0  0  0
  183.3280  174.7910  137.0360 C   0  0  0  0  0  0  0  0  0  0  0  0
  185.9620  175.6240  136.8780 C   0  0  0  0  0  0  0  0  0  0  0  0
  181.0020  175.2470  137.4900 C   0  0  0  0  0  3  0  0  0  0  0  0
  184.3170  173.9390  136.6750 N   0  0  0  0  0  0  0  0  0  0  0  0
  190.5220  176.5040  137.1480 C   0  0  0  0  0  0  0  0  0  0  0  0
  189.5880  176.1830  138.0370 C   0  0  0  0  0  3  0  0  0  0  0  0
  187.9130  176.2400  135.4230 C   0  0  0  0  0  3  0  0  0  0  0  0
  188.1580  175.9260  137.8690 C   0  0  0  0  0  3  0  0  0  0  0  0
  190.3050  176.6700  135.7750 O   0  0  0  0  0  0  0  0  0  0  0  0
  187.4050  175.9610  136.7720 C   0  0  0  0  0  0  0  0  0  0  0  0
  189.1400  176.5400  135.0150 C   0  0  0  0  0  3  0  0  0  0  0  0
  194.0310  176.0680  138.2620 N   0  0  0  0  0  0  0  0  0  0  0  0
  195.0930  175.1620  138.4360 N   0  0  0  0  0  2  0  0  0  0  0  0
  192.6190  174.2560  137.4480 C   0  0  0  0  0  2  0  0  0  0  0  0
  193.9110  173.5310  137.0860 C   0  0  0  0  0  2  0  0  0  0  0  0
  192.8770  175.7040  137.7840 C   0  0  0  0  0  0  0  0  0  0  0  0
  194.9180  173.7330  138.2050 C   0  0  0  0  0  2  0  0  0  0  0  0
  191.8440  176.6920  137.6680 N   0  0  0  0  0  2  0  0  0  0  0  0
  185.2880  178.0030  137.5050 C   0  0  0  0  0  2  0  0  0  0  0  0
  185.5040  178.1940  138.9310 N   0  0  0  0  0  2  0  0  0  0  0  0
  184.1870  180.1150  139.0550 O   0  0  0  0  0  0  0  0  0  0  0  0
  184.9370  179.2930  139.6450 C   0  0  0  0  0  0  0  0  0  0  0  0
  185.2280  179.4820  141.0340 N   0  0  0  0  0  2  0  0  0  0  0  0
  187.4750  178.5270  141.2410 C   0  0  0  0  0  1  0  0  0  0  0  0
  186.0790  178.6020  141.8320 C   0  0  1  0  0  3  0  0  0  0  0  0
  186.1470  179.0530  143.2880 C   0  0  0  0  0  2  0  0  0  0  0  0
  184.4960  178.8660  145.1190 C   0  0  0  0  0  1  0  0  0  0  0  0
  185.4200  178.0850  144.2090 C   0  0  2  0  0  3  0  0  0  0  0  0
  186.3790  177.3500  145.0160 N   0  0  0  0  0  2  0  0  0  0  0  0
  186.6590  178.1440  146.1360 N   0  0  0  0  0  2  0  0  0  0  0  0
  187.5690  177.4270  146.9210 N   0  0  0  0  0  2  0  0  0  0  0  0
  191.6350  177.6170  145.1260 O   0  0  0  0  0  0  0  0  0  0  0  0
  188.9590  177.4190  146.6030 C   0  0  0  0  0  0  0  0  0  0  0  0
  191.7150  176.4490  145.8880 C   0  0  0  0  0  2  0  0  0  0  0  0
  189.7710  176.7580  147.3770 N   0  0  0  0  0  0  0  0  0  0  0  0
  189.4010  178.1240  145.4750 O   0  0  0  0  0  0  0  0  0  0  0  0
  191.2300  176.7470  147.2960 C   0  0  0  0  0  2  0  0  0  0  0  0
  190.3580  177.5960  144.5620 C   0  0  0  0  0  2  0  0  0  0  0  0
  1 10  2  0  0  0  0
  1  8  1  0  0  0  0
  2  9  1  0  0  0  0
  4  6  2  0  0  0  0
  5  4  1  0  0  0  0
  5 25  1  0  0  0  0
  6  3  1  0  0  0  0
  7  2  2  0  0  0  0
  7  4  1  0  0  0  0
  8  5  2  0  0  0  0
  9  3  2  0  0  0  0
 10  7  1  0  0  0  0
 11 24  1  0  0  0  0
 11 12  2  0  0  0  0
 13 16  1  0  0  0  0
 14 12  1  0  0  0  0
 15 11  1  0  0  0  0
 16  8  1  0  0  0  0
 16 14  2  0  0  0  0
 17 13  2  0  0  0  0
 17 15  1  0  0  0  0
 18 19  1  0  0  0  0
 20 22  1  0  0  0  0
 21 20  1  0  0  0  0
 21 23  1  0  0  0  0
 22 18  2  0  0  0  0
 23 19  1  0  0  0  0
 24 22  1  0  0  0  0
 25 26  1  0  0  0  0
 26 28  1  0  0  0  0
 27 28  2  0  0  0  0
 28 29  1  0  0  0  0
 29 31  1  0  0  0  0
 31 30  1  6  0  0  0
 31 32  1  0  0  0  0
 32 34  1  0  0  0  0
 34 35  1  0  0  0  0
 34 33  1  1  0  0  0
 35 36  1  0  0  0  0
 36 37  1  0  0  0  0
 38 40  1  0  0  0  0
 39 37  1  0  0  0  0
 39 41  2  0  0  0  0
 40 43  1  0  0  0  0
 42 39  1  0  0  0  0
 43 41  1  0  0  0  0
 44 38  1  0  0  0  0
 44 42  1  0  0  0  0
M  END
>  <MODEL>
4

>  <REMARK>
 VINA RESULT:      -8.9      2.988     10.037
  Name = 
  10 active torsions:
  status: ('A' for Active; 'I' for Inactive)
    1  A    between atoms: C_2  and  N_40
    2  A    between atoms: N_7  and  N_25
    3  A    between atoms: N_8  and  C_39
    4  A    between atoms: C_9  and  N_28
    5  A    between atoms: C_9  and  C_42
    6  A    between atoms: C_23  and  C_39
    7  A    between atoms: N_25  and  N_38
    8  A    between atoms: C_33  and  C_35
    9  A    between atoms: N_38  and  C_41
   10  A    between atoms: C_41  and  C_42
                            x       y       z     vdW  Elec       q    Type
                         _______ _______ _______ _____ _____    ______ ____

>  <TORSDO>
F 10

$$$$
=
 OpenBabel10222416133D

 44 48  0  0  1  0  0  0  0  0999 V2000
  185.2130  179.4180  146.1260 N   0  0  0  0  0  0  0  0  0  0  0  0
  187.9470  178.4940  148.3050 C   0  0  0  0  0  3  0  0  0  0  0  0
  189.2230  176.7550  147.2280 C   0  0  0  0  0  3  0  0  0  0  0  0
  187.3200  177.6580  146.1230 C   0  0  0  0  0  0  0  0  0  0  0  0
  186.4550  177.6980  145.0200 C   0  0  0  0  0  0  0  0  0  0  0  0
  188.3780  176.7990  146.1620 N   0  0  0  0  0  0  0  0  0  0  0  0
  187.0910  178.5240  147.2040 C   0  0  0  0  0  0  0  0  0  0  0  0
  185.3610  178.5990  145.0450 C   0  0  0  0  0  0  0  0  0  0  0  0
  189.0220  177.6030  148.3200 C   0  0  0  0  0  3  0  0  0  0  0  0
  186.0450  179.3840  147.1680 N   0  0  0  0  0  0  0  0  0  0  0  0
  182.7240  178.7930  141.2180 C   0  0  0  0  0  0  0  0  0  0  0  0
  184.0240  178.6280  141.4390 C   0  0  0  0  0  3  0  0  0  0  0  0
  182.9680  178.8940  144.3460 C   0  0  0  0  0  3  0  0  0  0  0  0
  184.7830  178.5850  142.6870 C   0  0  0  0  0  3  0  0  0  0  0  0
  181.7540  178.9680  142.2120 O   0  0  0  0  0  0  0  0  0  0  0  0
  184.3690  178.7160  143.9460 C   0  0  0  0  0  0  0  0  0  0  0  0
  181.8720  179.0020  143.6040 C   0  0  0  0  0  3  0  0  0  0  0  0
  181.6510  177.8380  137.8010 N   0  0  0  0  0  0  0  0  0  0  0  0
  181.3800  176.7750  136.9190 N   0  0  0  0  0  2  0  0  0  0  0  0
  182.2630  176.2420  139.5380 C   0  0  0  0  0  2  0  0  0  0  0  0
  181.3990  175.2320  138.7900 C   0  0  0  0  0  2  0  0  0  0  0  0
  182.0350  177.6440  139.0280 C   0  0  0  0  0  0  0  0  0  0  0  0
  181.6370  175.3900  137.2980 C   0  0  0  0  0  2  0  0  0  0  0  0
  182.3150  178.7890  139.8450 N   0  0  0  0  0  2  0  0  0  0  0  0
  186.7180  176.8020  143.8460 C   0  0  0  0  0  2  0  0  0  0  0  0
  188.0360  177.0900  143.3010 N   0  0  0  0  0  2  0  0  0  0  0  0
  188.6890  174.8520  143.2230 O   0  0  0  0  0  0  0  0  0  0  0  0
  188.9880  176.0610  143.0310 C   0  0  0  0  0  0  0  0  0  0  0  0
  190.2980  176.3910  142.5580 N   0  0  0  0  0  2  0  0  0  0  0  0
  191.5020  178.3050  143.5030 C   0  0  0  0  0  1  0  0  0  0  0  0
  190.7680  177.7500  142.2960 C   0  0  1  0  0  3  0  0  0  0  0  0
  191.6650  177.8070  141.0630 C   0  0  0  0  0  2  0  0  0  0  0  0
  189.5010  178.0720  139.8950 C   0  0  0  0  0  1  0  0  0  0  0  0
  190.8930  177.4840  139.7930 C   0  0  2  0  0  3  0  0  0  0  0  0
  190.7920  176.0440  139.6240 N   0  0  0  0  0  2  0  0  0  0  0  0
  190.6370  175.8080  138.2510 N   0  0  0  0  0  2  0  0  0  0  0  0
  191.4180  174.6870  137.9450 N   0  0  0  0  0  2  0  0  0  0  0  0
  195.3890  175.9550  136.3920 O   0  0  0  0  0  0  0  0  0  0  0  0
  192.7700  174.8350  137.5180 C   0  0  0  0  0  0  0  0  0  0  0  0
  195.2680  174.6740  135.8510 C   0  0  0  0  0  2  0  0  0  0  0  0
  193.4650  173.7620  137.2680 N   0  0  0  0  0  0  0  0  0  0  0  0
  193.3040  176.1240  137.3880 O   0  0  0  0  0  0  0  0  0  0  0  0
  194.8920  173.7060  136.9590 C   0  0  0  0  0  2  0  0  0  0  0  0
  194.1140  176.5160  136.2850 C   0  0  0  0  0  2  0  0  0  0  0  0
  1 10  1  0  0  0  0
  2  9  2  0  0  0  0
  3  9  1  0  0  0  0
  4  6  1  0  0  0  0
  4  7  1  0  0  0  0
  5  8  1  0  0  0  0
  5  4  2  0  0  0  0
  6  3  2  0  0  0  0
  7  2  1  0  0  0  0
  8  1  2  0  0  0  0
 10  7  2  0  0  0  0
 11 12  2  0  0  0  0
 11 15  1  0  0  0  0
 12 14  1  0  0  0  0
 14 16  2  0  0  0  0
 15 17  1  0  0  0  0
 16 13  1  0  0  0  0
 16  8  1  0  0  0  0
 17 13  2  0  0  0  0
 18 22  2  0  0  0  0
 19 23  1  0  0  0  0
 19 18  1  0  0  0  0
 21 20  1  0  0  0  0
 22 20  1  0  0  0  0
 22 24  1  0  0  0  0
 23 21  1  0  0  0  0
 24 11  1  0  0  0  0
 25  5  1  0  0  0  0
 26 25  1  0  0  0  0
 28 27  2  0  0  0  0
 28 26  1  0  0  0  0
 29 28  1  0  0  0  0
 31 29  1  0  0  0  0
 31 30  1  1  0  0  0
 32 31  1  0  0  0  0
 34 33  1  1  0  0  0
 34 32  1  0  0  0  0
 35 34  1  0  0  0  0
 36 35  1  0  0  0  0
 37 36  1  0  0  0  0
 39 37  1  0  0  0  0
 40 38  1  0  0  0  0
 40 43  1  0  0  0  0
 41 39  2  0  0  0  0
 42 39  1  0  0  0  0
 43 41  1  0  0  0  0
 44 38  1  0  0  0  0
 44 42  1  0  0  0  0
M  END
>  <MODEL>
5

>  <REMARK>
 VINA RESULT:      -8.9      2.571      3.965
  Name = 
  10 active torsions:
  status: ('A' for Active; 'I' for Inactive)
    1  A    between atoms: C_2  and  N_40
    2  A    between atoms: N_7  and  N_25
    3  A    between atoms: N_8  and  C_39
    4  A    between atoms: C_9  and  N_28
    5  A    between atoms: C_9  and  C_42
    6  A    between atoms: C_23  and  C_39
    7  A    between atoms: N_25  and  N_38
    8  A    between atoms: C_33  and  C_35
    9  A    between atoms: N_38  and  C_41
   10  A    between atoms: C_41  and  C_42
                            x       y       z     vdW  Elec       q    Type
                         _______ _______ _______ _____ _____    ______ ____

>  <TORSDO>
F 10

$$$$
=
 OpenBabel10222416133D

 44 48  0  0  1  0  0  0  0  0999 V2000
  183.6390  178.5560  143.9050 N   0  0  0  0  0  0  0  0  0  0  0  0
  180.1640  179.2400  143.1770 C   0  0  0  0  0  3  0  0  0  0  0  0
  179.9150  179.4520  140.7880 C   0  0  0  0  0  3  0  0  0  0  0  0
  182.0640  178.9940  141.6990 C   0  0  0  0  0  0  0  0  0  0  0  0
  183.4350  178.7530  141.5290 C   0  0  0  0  0  0  0  0  0  0  0  0
  181.2470  179.2170  140.6320 N   0  0  0  0  0  0  0  0  0  0  0  0
  181.5270  179.0030  142.9970 C   0  0  0  0  0  0  0  0  0  0  0  0
  184.2380  178.5470  142.6790 C   0  0  0  0  0  0  0  0  0  0  0  0
  179.3490  179.4680  142.0660 C   0  0  0  0  0  3  0  0  0  0  0  0
  182.3340  178.7760  144.0610 N   0  0  0  0  0  0  0  0  0  0  0  0
  188.7420  177.4360  143.0270 C   0  0  0  0  0  0  0  0  0  0  0  0
  187.6840  177.2690  143.8140 C   0  0  0  0  0  3  0  0  0  0  0  0
  186.3900  178.7330  141.4020 C   0  0  0  0  0  3  0  0  0  0  0  0
  186.2870  177.6580  143.6310 C   0  0  0  0  0  3  0  0  0  0  0  0
  188.7230  178.0620  141.7750 O   0  0  0  0  0  0  0  0  0  0  0  0
  185.7020  178.3020  142.6240 C   0  0  0  0  0  0  0  0  0  0  0  0
  187.6680  178.6280  141.0550 C   0  0  0  0  0  3  0  0  0  0  0  0
  191.5580  176.3300  145.1690 N   0  0  0  0  0  0  0  0  0  0  0  0
  192.0550  176.2340  146.4810 N   0  0  0  0  0  2  0  0  0  0  0  0
  189.5500  177.4250  146.0090 C   0  0  0  0  0  2  0  0  0  0  0  0
  189.8490  176.7530  147.3440 C   0  0  0  0  0  2  0  0  0  0  0  0
  190.3950  176.8470  144.9000 C   0  0  0  0  0  0  0  0  0  0  0  0
  191.3430  176.8260  147.6080 C   0  0  0  0  0  2  0  0  0  0  0  0
  189.9840  176.9280  143.5290 N   0  0  0  0  0  2  0  0  0  0  0  0
  184.0070  178.7050  140.1430 C   0  0  0  0  0  2  0  0  0  0  0  0
  183.5310  177.5110  139.4630 N   0  0  0  0  0  2  0  0  0  0  0  0
  183.0260  178.6260  137.4780 O   0  0  0  0  0  0  0  0  0  0  0  0
  183.0300  177.5460  138.1260 C   0  0  0  0  0  0  0  0  0  0  0  0
  182.5090  176.3610  137.5150 N   0  0  0  0  0  2  0  0  0  0  0  0
  181.0880  174.4190  137.9800 C   0  0  0  0  0  1  0  0  0  0  0  0
  182.4570  175.0490  138.1580 C   0  0  1  0  0  3  0  0  0  0  0  0
  183.5400  174.1170  137.6240 C   0  0  0  0  0  2  0  0  0  0  0  0
  183.4060  173.1640  135.3470 C   0  0  0  0  0  1  0  0  0  0  0  0
  183.8260  174.3740  136.1530 C   0  0  2  0  0  3  0  0  0  0  0  0
  185.2470  174.6110  135.9550 N   0  0  0  0  0  2  0  0  0  0  0  0
  185.8740  174.3610  137.1830 N   0  0  0  0  0  2  0  0  0  0  0  0
  187.2300  174.6600  137.0110 N   0  0  0  0  0  2  0  0  0  0  0  0
  187.9420  179.0030  137.6610 O   0  0  0  0  0  0  0  0  0  0  0  0
  187.7240  175.9740  137.2600 C   0  0  0  0  0  0  0  0  0  0  0  0
  189.0290  178.6540  136.8570 C   0  0  0  0  0  2  0  0  0  0  0  0
  188.9980  176.1990  137.1110 N   0  0  0  0  0  0  0  0  0  0  0  0
  186.8260  176.9720  137.6600 O   0  0  0  0  0  0  0  0  0  0  0  0
  189.7070  177.4310  137.4500 C   0  0  0  0  0  2  0  0  0  0  0  0
  186.8590  178.2960  137.1360 C   0  0  0  0  0  2  0  0  0  0  0  0
  1 10  1  0  0  0  0
  3  9  1  0  0  0  0
  4  7  1  0  0  0  0
  5  4  2  0  0  0  0
  5  8  1  0  0  0  0
  6  3  2  0  0  0  0
  6  4  1  0  0  0  0
  7  2  1  0  0  0  0
  7 10  2  0  0  0  0
  8  1  2  0  0  0  0
  9  2  2  0  0  0  0
 11 24  1  0  0  0  0
 11 12  2  0  0  0  0
 13 16  1  0  0  0  0
 14 12  1  0  0  0  0
 15 11  1  0  0  0  0
 16  8  1  0  0  0  0
 16 14  2  0  0  0  0
 17 13  2  0  0  0  0
 17 15  1  0  0  0  0
 18 19  1  0  0  0  0
 19 23  1  0  0  0  0
 20 21  1  0  0  0  0
 21 23  1  0  0  0  0
 22 18  2  0  0  0  0
 22 20  1  0  0  0  0
 24 22  1  0  0  0  0
 25  5  1  0  0  0  0
 26 25  1  0  0  0  0
 27 28  2  0  0  0  0
 28 26  1  0  0  0  0
 29 28  1  0  0  0  0
 29 31  1  0  0  0  0
 31 30  1  6  0  0  0
 32 31  1  0  0  0  0
 34 33  1  6  0  0  0
 34 32  1  0  0  0  0
 35 34  1  0  0  0  0
 35 36  1  0  0  0  0
 37 36  1  0  0  0  0
 37 39  1  0  0  0  0
 39 42  1  0  0  0  0
 40 43  1  0  0  0  0
 40 38  1  0  0  0  0
 41 39  2  0  0  0  0
 41 43  1  0  0  0  0
 44 42  1  0  0  0  0
 44 38  1  0  0  0  0
M  END
>  <MODEL>
6

>  <REMARK>
 VINA RESULT:      -8.8      2.546      8.154
  Name = 
  10 active torsions:
  status: ('A' for Active; 'I' for Inactive)
    1  A    between atoms: C_2  and  N_40
    2  A    between atoms: N_7  and  N_25
    3  A    between atoms: N_8  and  C_39
    4  A    between atoms: C_9  and  N_28
    5  A    between atoms: C_9  and  C_42
    6  A    between atoms: C_23  and  C_39
    7  A    between atoms: N_25  and  N_38
    8  A    between atoms: C_33  and  C_35
    9  A    between atoms: N_38  and  C_41
   10  A    between atoms: C_41  and  C_42
                            x       y       z     vdW  Elec       q    Type
                         _______ _______ _______ _____ _____    ______ ____

>  <TORSDO>
F 10

$$$$
=
 OpenBabel10222416133D

 44 48  0  0  1  0  0  0  0  0999 V2000
  190.9120  173.4460  136.3150 N   0  0  0  0  0  0  0  0  0  0  0  0
  194.3650  172.6200  136.9960 C   0  0  0  0  0  3  0  0  0  0  0  0
  195.4350  174.5560  137.9560 C   0  0  0  0  0  3  0  0  0  0  0  0
  193.1360  174.6720  137.3570 C   0  0  0  0  0  0  0  0  0  0  0  0
  191.9330  175.3870  137.2700 C   0  0  0  0  0  0  0  0  0  0  0  0
  194.2630  175.2430  137.8670 N   0  0  0  0  0  0  0  0  0  0  0  0
  193.1740  173.3410  136.9120 C   0  0  0  0  0  0  0  0  0  0  0  0
  190.7980  174.7460  136.7120 C   0  0  0  0  0  0  0  0  0  0  0  0
  195.5070  173.2300  137.5200 C   0  0  0  0  0  3  0  0  0  0  0  0
  192.0550  172.7670  136.4090 N   0  0  0  0  0  0  0  0  0  0  0  0
  186.4470  176.3880  136.6110 C   0  0  0  0  0  0  0  0  0  0  0  0
  187.0150  175.3040  137.1300 C   0  0  0  0  0  3  0  0  0  0  0  0
  189.4740  176.6900  135.8360 C   0  0  0  0  0  3  0  0  0  0  0  0
  188.4060  174.8540  137.1120 C   0  0  0  0  0  3  0  0  0  0  0  0
  187.1190  177.3850  135.8940 O   0  0  0  0  0  0  0  0  0  0  0  0
  189.4780  175.4090  136.5510 C   0  0  0  0  0  0  0  0  0  0  0  0
  188.4690  177.5150  135.5630 C   0  0  0  0  0  3  0  0  0  0  0  0
  183.0680  177.3890  137.7610 N   0  0  0  0  0  0  0  0  0  0  0  0
  182.3310  178.2010  138.6430 N   0  0  0  0  0  2  0  0  0  0  0  0
  185.1440  178.2540  138.7000 C   0  0  0  0  0  2  0  0  0  0  0  0
  184.3360  179.4730  139.1330 C   0  0  0  0  0  2  0  0  0  0  0  0
  184.3680  177.3970  137.7300 C   0  0  0  0  0  0  0  0  0  0  0  0
  182.9900  179.0090  139.6610 C   0  0  0  0  0  2  0  0  0  0  0  0
  185.0350  176.5150  136.8170 N   0  0  0  0  0  2  0  0  0  0  0  0
  191.8770  176.7970  137.7800 C   0  0  0  0  0  2  0  0  0  0  0  0
  191.5110  176.7900  139.1880 N   0  0  0  0  0  2  0  0  0  0  0  0
  193.5530  177.6560  139.9070 O   0  0  0  0  0  0  0  0  0  0  0  0
  192.4120  177.2160  140.2100 C   0  0  0  0  0  0  0  0  0  0  0  0
  192.0380  177.1310  141.5890 N   0  0  0  0  0  2  0  0  0  0  0  0
  190.9280  175.7890  143.3130 C   0  0  0  0  0  1  0  0  0  0  0  0
  190.7480  176.6410  142.0700 C   0  0  1  0  0  3  0  0  0  0  0  0
  189.7800  177.7860  142.3530 C   0  0  0  0  0  2  0  0  0  0  0  0
  188.3800  178.5230  140.4520 C   0  0  0  0  0  1  0  0  0  0  0  0
  188.4520  177.5870  141.6400 C   0  0  2  0  0  3  0  0  0  0  0  0
  187.3520  177.8780  142.5450 N   0  0  0  0  0  2  0  0  0  0  0  0
  187.2550  176.7920  143.4260 N   0  0  0  0  0  2  0  0  0  0  0  0
  186.5930  177.2590  144.5680 N   0  0  0  0  0  2  0  0  0  0  0  0
  189.4970  177.8820  147.8810 O   0  0  0  0  0  0  0  0  0  0  0  0
  187.3250  177.6240  145.7360 C   0  0  0  0  0  0  0  0  0  0  0  0
  188.3010  177.7070  148.5800 C   0  0  0  0  0  2  0  0  0  0  0  0
  186.6690  178.0760  146.7660 N   0  0  0  0  0  0  0  0  0  0  0  0
  188.7200  177.4890  145.7330 O   0  0  0  0  0  0  0  0  0  0  0  0
  187.2470  178.6280  147.9900 C   0  0  0  0  0  2  0  0  0  0  0  0
  189.4460  176.9560  146.8360 C   0  0  0  0  0  2  0  0  0  0  0  0
  1 10  2  0  0  0  0
  1  8  1  0  0  0  0
  2  9  1  0  0  0  0
  4  6  2  0  0  0  0
  5  4  1  0  0  0  0
  5 25  1  0  0  0  0
  6  3  1  0  0  0  0
  7  2  2  0  0  0  0
  7  4  1  0  0  0  0
  8  5  2  0  0  0  0
  9  3  2  0  0  0  0
 10  7  1  0  0  0  0
 11 24  1  0  0  0  0
 11 12  2  0  0  0  0
 13 16  1  0  0  0  0
 14 12  1  0  0  0  0
 15 11  1  0  0  0  0
 16  8  1  0  0  0  0
 16 14  2  0  0  0  0
 17 13  2  0  0  0  0
 17 15  1  0  0  0  0
 18 19  1  0  0  0  0
 19 23  1  0  0  0  0
 20 21  1  0  0  0  0
 21 23  1  0  0  0  0
 22 18  2  0  0  0  0
 22 20  1  0  0  0  0
 24 22  1  0  0  0  0
 25 26  1  0  0  0  0
 26 28  1  0  0  0  0
 27 28  2  0  0  0  0
 28 29  1  0  0  0  0
 29 31  1  0  0  0  0
 31 32  1  0  0  0  0
 31 30  1  1  0  0  0
 34 33  1  6  0  0  0
 34 32  1  0  0  0  0
 34 35  1  0  0  0  0
 35 36  1  0  0  0  0
 36 37  1  0  0  0  0
 37 39  1  0  0  0  0
 38 40  1  0  0  0  0
 39 41  2  0  0  0  0
 41 43  1  0  0  0  0
 42 39  1  0  0  0  0
 42 44  1  0  0  0  0
 43 40  1  0  0  0  0
 44 38  1  0  0  0  0
M  END
>  <MODEL>
7

>  <REMARK>
 VINA RESULT:      -8.7      3.061      8.416
  Name = 
  10 active torsions:
  status: ('A' for Active; 'I' for Inactive)
    1  A    between atoms: C_2  and  N_40
    2  A    between atoms: N_7  and  N_25
    3  A    between atoms: N_8  and  C_39
    4  A    between atoms: C_9  and  N_28
    5  A    between atoms: C_9  and  C_42
    6  A    between atoms: C_23  and  C_39
    7  A    between atoms: N_25  and  N_38
    8  A    between atoms: C_33  and  C_35
    9  A    between atoms: N_38  and  C_41
   10  A    between atoms: C_41  and  C_42
                            x       y       z     vdW  Elec       q    Type
                         _______ _______ _______ _____ _____    ______ ____

>  <TORSDO>
F 10

$$$$
=
 OpenBabel10222416133D

 44 48  0  0  1  0  0  0  0  0999 V2000
  187.1060  177.1960  144.4450 N   0  0  0  0  0  0  0  0  0  0  0  0
  190.6400  176.5010  144.1300 C   0  0  0  0  0  3  0  0  0  0  0  0
  191.3960  177.3510  142.0040 C   0  0  0  0  0  3  0  0  0  0  0  0
  189.1110  177.6060  142.6150 C   0  0  0  0  0  0  0  0  0  0  0  0
  187.8150  178.0590  142.3290 C   0  0  0  0  0  0  0  0  0  0  0  0
  190.1350  177.7880  141.7340 N   0  0  0  0  0  0  0  0  0  0  0  0
  189.3540  176.9540  143.8350 C   0  0  0  0  0  0  0  0  0  0  0  0
  186.7870  177.8230  143.2760 C   0  0  0  0  0  0  0  0  0  0  0  0
  191.6710  176.6980  143.2090 C   0  0  0  0  0  3  0  0  0  0  0  0
  188.3410  176.7760  144.7170 N   0  0  0  0  0  0  0  0  0  0  0  0
  182.3920  178.8020  142.1060 C   0  0  0  0  0  0  0  0  0  0  0  0
  183.4100  178.2210  141.4780 C   0  0  0  0  0  3  0  0  0  0  0  0
  184.7140  178.8800  144.2180 C   0  0  0  0  0  3  0  0  0  0  0  0
  184.7770  177.9540  141.9200 C   0  0  0  0  0  3  0  0  0  0  0  0
  182.4350  179.3090  143.4110 O   0  0  0  0  0  0  0  0  0  0  0  0
  185.3750  178.2400  143.0750 C   0  0  0  0  0  0  0  0  0  0  0  0
  183.4710  179.3300  144.3460 C   0  0  0  0  0  3  0  0  0  0  0  0
  179.8380  179.2170  139.4520 N   0  0  0  0  0  0  0  0  0  0  0  0
  179.6040  179.5090  138.0960 N   0  0  0  0  0  2  0  0  0  0  0  0
  182.2300  179.5230  139.1070 C   0  0  0  0  0  2  0  0  0  0  0  0
  181.9670  179.2150  137.6370 C   0  0  0  0  0  2  0  0  0  0  0  0
  181.0340  179.1850  139.9620 C   0  0  0  0  0  0  0  0  0  0  0  0
  180.6880  179.9140  137.2090 C   0  0  0  0  0  2  0  0  0  0  0  0
  181.1730  178.9060  141.3620 N   0  0  0  0  0  2  0  0  0  0  0  0
  187.5590  178.7890  141.0440 C   0  0  0  0  0  2  0  0  0  0  0  0
  187.7170  177.8730  139.9250 N   0  0  0  0  0  2  0  0  0  0  0  0
  189.0420  179.3370  138.6840 O   0  0  0  0  0  0  0  0  0  0  0  0
  188.4600  178.2220  138.7570 C   0  0  0  0  0  0  0  0  0  0  0  0
  188.5360  177.3190  137.6490 N   0  0  0  0  0  2  0  0  0  0  0  0
  186.6350  176.0380  136.7840 C   0  0  0  0  0  1  0  0  0  0  0  0
  187.9090  176.0000  137.6090 C   0  0  1  0  0  3  0  0  0  0  0  0
  188.8590  174.9400  137.0600 C   0  0  0  0  0  2  0  0  0  0  0  0
  190.6680  175.2520  135.4030 C   0  0  0  0  0  1  0  0  0  0  0  0
  190.2560  175.5000  136.8390 C   0  0  2  0  0  3  0  0  0  0  0  0
  191.2020  174.8470  137.7280 N   0  0  0  0  0  2  0  0  0  0  0  0
  192.4360  174.8310  137.0650 N   0  0  0  0  0  2  0  0  0  0  0  0
  193.3670  174.2890  137.9590 N   0  0  0  0  0  2  0  0  0  0  0  0
  197.4850  175.5530  136.8480 O   0  0  0  0  0  0  0  0  0  0  0  0
  194.7490  174.6280  137.8680 C   0  0  0  0  0  0  0  0  0  0  0  0
  197.7320  174.3830  137.5690 C   0  0  0  0  0  2  0  0  0  0  0  0
  195.5740  174.1190  138.7370 N   0  0  0  0  0  0  0  0  0  0  0  0
  195.1680  175.4990  136.8530 O   0  0  0  0  0  0  0  0  0  0  0  0
  196.9880  174.4540  138.8910 C   0  0  0  0  0  2  0  0  0  0  0  0
  196.3480  175.2780  136.0860 C   0  0  0  0  0  2  0  0  0  0  0  0
  1 10  1  0  0  0  0
  3  9  1  0  0  0  0
  4  7  1  0  0  0  0
  5  4  2  0  0  0  0
  5  8  1  0  0  0  0
  6  3  2  0  0  0  0
  6  4  1  0  0  0  0
  7  2  1  0  0  0  0
  7 10  2  0  0  0  0
  8  1  2  0  0  0  0
  9  2  2  0  0  0  0
 11 15  1  0  0  0  0
 12 14  1  0  0  0  0
 12 11  2  0  0  0  0
 13 17  2  0  0  0  0
 14 16  2  0  0  0  0
 15 17  1  0  0  0  0
 16  8  1  0  0  0  0
 16 13  1  0  0  0  0
 18 22  2  0  0  0  0
 19 18  1  0  0  0  0
 20 22  1  0  0  0  0
 21 20  1  0  0  0  0
 22 24  1  0  0  0  0
 23 21  1  0  0  0  0
 23 19  1  0  0  0  0
 24 11  1  0  0  0  0
 25  5  1  0  0  0  0
 26 25  1  0  0  0  0
 27 28  2  0  0  0  0
 28 26  1  0  0  0  0
 29 28  1  0  0  0  0
 31 30  1  6  0  0  0
 31 29  1  0  0  0  0
 32 31  1  0  0  0  0
 34 33  1  6  0  0  0
 34 32  1  0  0  0  0
 34 35  1  0  0  0  0
 36 35  1  0  0  0  0
 36 37  1  0  0  0  0
 38 40  1  0  0  0  0
 39 37  1  0  0  0  0
 39 41  2  0  0  0  0
 40 43  1  0  0  0  0
 41 43  1  0  0  0  0
 42 39  1  0  0  0  0
 44 38  1  0  0  0  0
 44 42  1  0  0  0  0
M  END
>  <MODEL>
8

>  <REMARK>
 VINA RESULT:      -8.7      3.398      5.678
  Name = 
  10 active torsions:
  status: ('A' for Active; 'I' for Inactive)
    1  A    between atoms: C_2  and  N_40
    2  A    between atoms: N_7  and  N_25
    3  A    between atoms: N_8  and  C_39
    4  A    between atoms: C_9  and  N_28
    5  A    between atoms: C_9  and  C_42
    6  A    between atoms: C_23  and  C_39
    7  A    between atoms: N_25  and  N_38
    8  A    between atoms: C_33  and  C_35
    9  A    between atoms: N_38  and  C_41
   10  A    between atoms: C_41  and  C_42
                            x       y       z     vdW  Elec       q    Type
                         _______ _______ _______ _____ _____    ______ ____

>  <TORSDO>
F 10

$$$$
=
 OpenBabel10222416133D

 44 48  0  0  1  0  0  0  0  0999 V2000
  187.1050  177.0330  144.3120 N   0  0  0  0  0  0  0  0  0  0  0  0
  190.6430  176.3780  143.9500 C   0  0  0  0  0  3  0  0  0  0  0  0
  191.4150  177.4650  141.9410 C   0  0  0  0  0  3  0  0  0  0  0  0
  189.1250  177.6480  142.5580 C   0  0  0  0  0  0  0  0  0  0  0  0
  187.8310  178.1310  142.3150 C   0  0  0  0  0  0  0  0  0  0  0  0
  190.1560  177.9300  141.7120 N   0  0  0  0  0  0  0  0  0  0  0  0
  189.3590  176.8620  143.6970 C   0  0  0  0  0  0  0  0  0  0  0  0
  186.7950  177.7890  143.2200 C   0  0  0  0  0  0  0  0  0  0  0  0
  191.6810  176.6790  143.0660 C   0  0  0  0  0  3  0  0  0  0  0  0
  188.3380  176.5840  144.5440 N   0  0  0  0  0  0  0  0  0  0  0  0
  182.3750  178.8020  142.1830 C   0  0  0  0  0  0  0  0  0  0  0  0
  183.3520  178.1650  141.5460 C   0  0  0  0  0  3  0  0  0  0  0  0
  184.7870  178.9420  144.1870 C   0  0  0  0  0  3  0  0  0  0  0  0
  184.7320  177.8910  141.9440 C   0  0  0  0  0  3  0  0  0  0  0  0
  182.4840  179.3780  143.4540 O   0  0  0  0  0  0  0  0  0  0  0  0
  185.3850  178.2260  143.0550 C   0  0  0  0  0  0  0  0  0  0  0  0
  183.5600  179.4260  144.3430 C   0  0  0  0  0  3  0  0  0  0  0  0
  179.7110  179.2770  139.6490 N   0  0  0  0  0  0  0  0  0  0  0  0
  179.4160  179.6630  138.3290 N   0  0  0  0  0  2  0  0  0  0  0  0
  182.0700  179.7530  139.2600 C   0  0  0  0  0  2  0  0  0  0  0  0
  181.7740  179.5500  137.7780 C   0  0  0  0  0  2  0  0  0  0  0  0
  180.9240  179.2760  140.1190 C   0  0  0  0  0  0  0  0  0  0  0  0
  180.4440  180.2040  137.4470 C   0  0  0  0  0  2  0  0  0  0  0  0
  181.1270  178.8930  141.4860 N   0  0  0  0  0  2  0  0  0  0  0  0
  187.5850  179.0030  141.1190 C   0  0  0  0  0  2  0  0  0  0  0  0
  187.3010  178.1710  139.9610 N   0  0  0  0  0  2  0  0  0  0  0  0
  189.0550  179.0340  138.6880 O   0  0  0  0  0  0  0  0  0  0  0  0
  188.0690  178.2530  138.7590 C   0  0  0  0  0  0  0  0  0  0  0  0
  187.7160  177.4640  137.6180 N   0  0  0  0  0  2  0  0  0  0  0  0
  185.2760  177.2650  137.5050 C   0  0  0  0  0  1  0  0  0  0  0  0
  186.5990  176.5230  137.5720 C   0  0  1  0  0  3  0  0  0  0  0  0
  186.7230  175.5590  136.3960 C   0  0  0  0  0  2  0  0  0  0  0  0
  188.5410  175.7980  134.7370 C   0  0  0  0  0  1  0  0  0  0  0  0
  188.1750  175.2300  136.0920 C   0  0  2  0  0  3  0  0  0  0  0  0
  188.3660  173.7880  136.0720 N   0  0  0  0  0  2  0  0  0  0  0  0
  189.1020  173.4620  137.2180 N   0  0  0  0  0  2  0  0  0  0  0  0
  190.4450  173.3920  136.8290 N   0  0  0  0  0  2  0  0  0  0  0  0
  192.7710  176.6700  138.7360 O   0  0  0  0  0  0  0  0  0  0  0  0
  191.4120  174.2810  137.3840 C   0  0  0  0  0  0  0  0  0  0  0  0
  193.5550  176.3780  137.6180 C   0  0  0  0  0  2  0  0  0  0  0  0
  192.6530  174.1630  137.0100 N   0  0  0  0  0  0  0  0  0  0  0  0
  190.9940  175.2440  138.3130 O   0  0  0  0  0  0  0  0  0  0  0  0
  193.7990  174.8800  137.5660 C   0  0  0  0  0  2  0  0  0  0  0  0
  191.4520  176.5920  138.2850 C   0  0  0  0  0  2  0  0  0  0  0  0
  1 10  1  0  0  0  0
  3  9  1  0  0  0  0
  4  7  1  0  0  0  0
  5  4  2  0  0  0  0
  5  8  1  0  0  0  0
  6  3  2  0  0  0  0
  6  4  1  0  0  0  0
  7  2  1  0  0  0  0
  7 10  2  0  0  0  0
  8  1  2  0  0  0  0
  9  2  2  0  0  0  0
 11 15  1  0  0  0  0
 12 14  1  0  0  0  0
 12 11  2  0  0  0  0
 13 17  2  0  0  0  0
 14 16  2  0  0  0  0
 15 17  1  0  0  0  0
 16  8  1  0  0  0  0
 16 13  1  0  0  0  0
 18 22  2  0  0  0  0
 19 18  1  0  0  0  0
 20 22  1  0  0  0  0
 21 20  1  0  0  0  0
 22 24  1  0  0  0  0
 23 21  1  0  0  0  0
 23 19  1  0  0  0  0
 24 11  1  0  0  0  0
 25  5  1  0  0  0  0
 26 25  1  0  0  0  0
 27 28  2  0  0  0  0
 28 26  1  0  0  0  0
 29 28  1  0  0  0  0
 31 30  1  6  0  0  0
 31 29  1  0  0  0  0
 32 31  1  0  0  0  0
 34 33  1  6  0  0  0
 34 32  1  0  0  0  0
 35 34  1  0  0  0  0
 35 36  1  0  0  0  0
 37 36  1  0  0  0  0
 37 39  1  0  0  0  0
 39 42  1  0  0  0  0
 40 38  1  0  0  0  0
 41 39  2  0  0  0  0
 41 43  1  0  0  0  0
 43 40  1  0  0  0  0
 44 42  1  0  0  0  0
 44 38  1  0  0  0  0
M  END
>  <MODEL>
9

>  <REMARK>
 VINA RESULT:      -8.6      2.456      4.907
  Name = 
  10 active torsions:
  status: ('A' for Active; 'I' for Inactive)
    1  A    between atoms: C_2  and  N_40
    2  A    between atoms: N_7  and  N_25
    3  A    between atoms: N_8  and  C_39
    4  A    between atoms: C_9  and  N_28
    5  A    between atoms: C_9  and  C_42
    6  A    between atoms: C_23  and  C_39
    7  A    between atoms: N_25  and  N_38
    8  A    between atoms: C_33  and  C_35
    9  A    between atoms: N_38  and  C_41
   10  A    between atoms: C_41  and  C_42
                            x       y       z     vdW  Elec       q    Type
                         _______ _______ _______ _____ _____    ______ ____

>  <TORSDO>
F 10

$$$$
