=
 OpenBabel10222415373D

 40 45  0  0  1  0  0  0  0  0999 V2000
  190.2070  177.6840  140.0910 C   0  0  0  0  0  0  0  0  0  0  0  0
  189.0930  177.8620  140.8650 C   0  0  0  0  0  0  0  0  0  0  0  0
  189.9340  177.9130  138.7580 O   0  0  0  0  0  0  0  0  0  0  0  0
  190.3740  177.3310  142.8550 C   0  0  0  0  0  0  0  0  0  0  0  0
  191.5060  177.1440  142.0310 C   0  0  0  0  0  3  0  0  0  0  0  0
  188.5700  178.2790  138.5840 C   0  0  0  0  0  3  0  0  0  0  0  0
  189.1370  177.6990  142.2640 C   0  0  0  0  0  0  0  0  0  0  0  0
  187.9550  178.2740  139.9960 C   0  0  0  0  0  3  0  0  0  0  0  0
  191.4410  177.3180  140.6390 C   0  0  0  0  0  0  0  0  0  0  0  0
  189.3750  177.7790  146.5150 C   0  0  0  0  0  3  0  0  0  0  0  0
  191.9520  176.0310  146.1070 C   0  0  0  0  0  3  0  0  0  0  0  0
  191.4060  176.3600  147.2700 C   0  0  0  0  0  3  0  0  0  0  0  0
  190.2470  177.1680  147.4650 N   0  0  0  0  0  2  0  0  0  0  0  0
  191.5410  176.3970  144.7490 C   0  0  0  0  0  3  0  0  0  0  0  0
  189.4940  177.7580  145.1900 C   0  0  0  0  0  3  0  0  0  0  0  0
  190.5130  177.1390  144.3220 C   0  0  0  0  0  0  0  0  0  0  0  0
  192.6520  177.1200  139.8150 C   0  0  0  0  0  0  0  0  0  0  0  0
  193.7800  177.4580  140.2700 O   0  0  0  0  0  0  0  0  0  0  0  0
  192.5580  176.5730  138.4980 N   0  0  0  0  0  2  0  0  0  0  0  0
  196.6200  173.2570  135.2390 N   0  0  0  0  0  1  0  0  0  0  0  0
  195.2050  174.9700  136.2500 C   0  0  0  0  0  2  0  0  0  0  0  0
  193.7060  176.3750  137.7200 N   0  0  0  0  0  2  0  0  0  0  0  0
  194.8180  172.4410  136.6820 C   0  0  0  0  0  2  0  0  0  0  0  0
  193.9720  175.1240  137.0890 C   0  0  0  0  0  0  0  0  0  0  0  0
  193.1310  174.1400  137.1910 N   0  0  0  0  0  0  0  0  0  0  0  0
  195.8270  173.5740  136.4130 C   0  0  1  0  0  3  0  0  0  0  0  0
  193.3670  172.8810  136.4890 C   0  0  0  0  0  2  0  0  0  0  0  0
  188.0230  177.9090  143.0900 O   0  0  0  0  0  0  0  0  0  0  0  0
  186.7370  177.3340  142.8880 C   0  0  0  0  0  2  0  0  0  0  0  0
  182.9070  179.4990  144.3120 C   0  0  0  0  0  2  0  0  0  0  0  0
  184.6300  178.1970  141.8210 C   0  0  0  0  0  2  0  0  0  0  0  0
  184.9200  178.3330  144.2730 C   0  0  1  0  0  3  0  0  0  0  0  0
  180.9460  178.0770  141.5530 O   0  0  0  0  0  0  0  0  0  0  0  0
  185.6600  178.4100  142.9540 C   0  0  1  0  0  3  0  0  0  0  0  0
  180.3490  178.1320  143.8460 C   0  0  0  0  0  1  0  0  0  0  0  0
  183.4820  179.2310  141.8110 C   0  0  0  0  0  2  0  0  0  0  0  0
  185.2820  179.1730  145.4750 C   0  0  0  0  0  2  0  0  0  0  0  0
  182.5510  179.0550  142.9460 N   0  0  0  0  0  0  0  0  0  0  0  0
  181.2850  178.4160  142.7180 C   0  0  0  0  0  0  0  0  0  0  0  0
  184.3980  179.7540  144.3930 C   0  0  2  0  0  3  0  0  0  0  0  0
  1  9  2  0  0  0  0
  1  2  1  0  0  0  0
  2  7  2  0  0  0  0
  3  1  1  0  0  0  0
  4 16  1  0  0  0  0
  5  4  2  0  0  0  0
  6  3  1  0  0  0  0
  6  8  2  0  0  0  0
  7  4  1  0  0  0  0
  7 28  1  0  0  0  0
  8  2  1  0  0  0  0
  9  5  1  0  0  0  0
 10 13  1  0  0  0  0
 11 12  2  0  0  0  0
 12 13  1  0  0  0  0
 14 11  1  0  0  0  0
 15 10  2  0  0  0  0
 16 14  2  0  0  0  0
 16 15  1  0  0  0  0
 17 18  2  0  0  0  0
 17  9  1  0  0  0  0
 19 17  1  0  0  0  0
 21 26  1  0  0  0  0
 21 24  1  0  0  0  0
 22 19  1  0  0  0  0
 24 25  2  0  0  0  0
 24 22  1  0  0  0  0
 26 20  1  6  0  0  0
 26 23  1  0  0  0  0
 27 23  1  0  0  0  0
 27 25  1  0  0  0  0
 29 28  1  0  0  0  0
 31 34  1  0  0  0  0
 32 40  1  0  0  0  0
 32 37  1  1  0  0  0
 33 39  2  0  0  0  0
 34 29  1  1  0  0  0
 34 32  1  0  0  0  0
 36 31  1  0  0  0  0
 36 38  1  0  0  0  0
 38 30  1  0  0  0  0
 39 38  1  0  0  0  0
 39 35  1  0  0  0  0
 40 30  1  1  0  0  0
 40 37  1  0  0  0  0
M  END
>  <MODEL>
1

>  <REMARK>
 VINA RESULT:     -10.2      0.000      0.000
  Name = 
  6 active torsions:
  status: ('A' for Active; 'I' for Inactive)
    1  A    between atoms: C_8  and  C_34
    2  A    between atoms: C_9  and  O_18
    3  A    between atoms: C_9  and  C_21
    4  A    between atoms: N_10  and  N_39
    5  A    between atoms: C_16  and  C_37
    6  A    between atoms: O_18  and  C_29
                            x       y       z     vdW  Elec       q    Type
                         _______ _______ _______ _____ _____    ______ ____

>  <TORSDO>
F 6

$$$$
=
 OpenBabel10222415373D

 40 45  0  0  1  0  0  0  0  0999 V2000
  189.3580  177.0420  138.4940 C   0  0  0  0  0  0  0  0  0  0  0  0
  188.5540  177.7090  139.3770 C   0  0  0  0  0  0  0  0  0  0  0  0
  188.8090  177.0270  137.2280 O   0  0  0  0  0  0  0  0  0  0  0  0
  190.1500  177.3040  141.1570 C   0  0  0  0  0  0  0  0  0  0  0  0
  190.9570  176.6120  140.2260 C   0  0  0  0  0  3  0  0  0  0  0  0
  187.5670  177.7210  137.2150 C   0  0  0  0  0  3  0  0  0  0  0  0
  188.9190  177.8670  140.7290 C   0  0  0  0  0  0  0  0  0  0  0  0
  187.3540  178.2200  138.6560 C   0  0  0  0  0  3  0  0  0  0  0  0
  190.5750  176.4730  138.8830 C   0  0  0  0  0  0  0  0  0  0  0  0
  191.2290  179.1930  144.2980 C   0  0  0  0  0  3  0  0  0  0  0  0
  191.2630  176.0690  144.6200 C   0  0  0  0  0  3  0  0  0  0  0  0
  191.6140  176.9550  145.5430 C   0  0  0  0  0  3  0  0  0  0  0  0
  191.6190  178.3740  145.3990 N   0  0  0  0  0  2  0  0  0  0  0  0
  190.8100  176.2890  143.2440 C   0  0  0  0  0  3  0  0  0  0  0  0
  190.8040  178.7820  143.1060 C   0  0  0  0  0  3  0  0  0  0  0  0
  190.6170  177.4240  142.5640 C   0  0  0  0  0  0  0  0  0  0  0  0
  191.4530  175.7490  137.9400 C   0  0  0  0  0  0  0  0  0  0  0  0
  191.1410  174.5850  137.5620 O   0  0  0  0  0  0  0  0  0  0  0  0
  192.6660  176.3410  137.4690 N   0  0  0  0  0  2  0  0  0  0  0  0
  197.7300  173.2700  135.7240 N   0  0  0  0  0  1  0  0  0  0  0  0
  195.5120  174.2500  135.9980 C   0  0  0  0  0  2  0  0  0  0  0  0
  193.4940  175.6600  136.5670 N   0  0  0  0  0  2  0  0  0  0  0  0
  197.3490  174.4890  137.8140 C   0  0  0  0  0  2  0  0  0  0  0  0
  194.6700  174.9810  137.0000 C   0  0  0  0  0  0  0  0  0  0  0  0
  194.9860  174.9440  138.2590 N   0  0  0  0  0  0  0  0  0  0  0  0
  197.0100  174.3840  136.3150 C   0  0  1  0  0  3  0  0  0  0  0  0
  196.1510  174.1910  138.7160 C   0  0  0  0  0  2  0  0  0  0  0  0
  188.1360  178.5750  141.6510 O   0  0  0  0  0  0  0  0  0  0  0  0
  186.7120  178.6180  141.6500 C   0  0  0  0  0  2  0  0  0  0  0  0
  185.4270  178.4800  146.0890 C   0  0  0  0  0  2  0  0  0  0  0  0
  187.2590  177.2110  143.6600 C   0  0  0  0  0  2  0  0  0  0  0  0
  185.7420  179.1510  143.8840 C   0  0  1  0  0  3  0  0  0  0  0  0
  188.6330  176.9910  147.0840 O   0  0  0  0  0  0  0  0  0  0  0  0
  186.1650  178.0390  142.9480 C   0  0  1  0  0  3  0  0  0  0  0  0
  187.5370  178.8300  148.1020 C   0  0  0  0  0  1  0  0  0  0  0  0
  186.8070  176.5910  145.0010 C   0  0  0  0  0  2  0  0  0  0  0  0
  184.3250  179.6650  143.9720 C   0  0  0  0  0  2  0  0  0  0  0  0
  186.6200  177.6060  146.0600 N   0  0  0  0  0  0  0  0  0  0  0  0
  187.6340  177.7600  147.0660 C   0  0  0  0  0  0  0  0  0  0  0  0
  184.7240  178.4290  144.7480 C   0  0  2  0  0  3  0  0  0  0  0  0
  1  9  2  0  0  0  0
  1  2  1  0  0  0  0
  2  7  2  0  0  0  0
  3  1  1  0  0  0  0
  4 16  1  0  0  0  0
  5  4  2  0  0  0  0
  6  3  1  0  0  0  0
  6  8  2  0  0  0  0
  7  4  1  0  0  0  0
  7 28  1  0  0  0  0
  8  2  1  0  0  0  0
  9  5  1  0  0  0  0
 10 13  1  0  0  0  0
 11 12  2  0  0  0  0
 13 12  1  0  0  0  0
 14 11  1  0  0  0  0
 15 10  2  0  0  0  0
 16 15  1  0  0  0  0
 16 14  2  0  0  0  0
 17  9  1  0  0  0  0
 18 17  2  0  0  0  0
 19 17  1  0  0  0  0
 21 26  1  0  0  0  0
 21 24  1  0  0  0  0
 22 24  1  0  0  0  0
 22 19  1  0  0  0  0
 23 27  1  0  0  0  0
 24 25  2  0  0  0  0
 25 27  1  0  0  0  0
 26 20  1  1  0  0  0
 26 23  1  0  0  0  0
 29 28  1  0  0  0  0
 31 36  1  0  0  0  0
 32 37  1  6  0  0  0
 32 40  1  0  0  0  0
 34 29  1  6  0  0  0
 34 31  1  0  0  0  0
 34 32  1  0  0  0  0
 36 38  1  0  0  0  0
 38 30  1  0  0  0  0
 38 39  1  0  0  0  0
 39 33  2  0  0  0  0
 39 35  1  0  0  0  0
 40 37  1  1  0  0  0
 40 30  1  0  0  0  0
M  END
>  <MODEL>
2

>  <REMARK>
 VINA RESULT:     -10.2      2.277      3.345
  Name = 
  6 active torsions:
  status: ('A' for Active; 'I' for Inactive)
    1  A    between atoms: C_8  and  C_34
    2  A    between atoms: C_9  and  O_18
    3  A    between atoms: C_9  and  C_21
    4  A    between atoms: N_10  and  N_39
    5  A    between atoms: C_16  and  C_37
    6  A    between atoms: O_18  and  C_29
                            x       y       z     vdW  Elec       q    Type
                         _______ _______ _______ _____ _____    ______ ____

>  <TORSDO>
F 6

$$$$
=
 OpenBabel10222415373D

 40 45  0  0  1  0  0  0  0  0999 V2000
  189.7440  177.2650  138.2970 C   0  0  0  0  0  0  0  0  0  0  0  0
  188.8560  177.7480  139.2190 C   0  0  0  0  0  0  0  0  0  0  0  0
  189.2430  177.3680  137.0160 O   0  0  0  0  0  0  0  0  0  0  0  0
  190.4180  177.2460  141.0060 C   0  0  0  0  0  0  0  0  0  0  0  0
  191.3110  176.7450  140.0340 C   0  0  0  0  0  3  0  0  0  0  0  0
  187.9480  177.9580  137.0330 C   0  0  0  0  0  3  0  0  0  0  0  0
  189.1600  177.7620  140.5960 C   0  0  0  0  0  0  0  0  0  0  0  0
  187.6440  178.2520  138.5130 C   0  0  0  0  0  3  0  0  0  0  0  0
  190.9900  176.7470  138.6670 C   0  0  0  0  0  0  0  0  0  0  0  0
  191.3830  178.8060  144.3580 C   0  0  0  0  0  3  0  0  0  0  0  0
  191.3580  175.6650  144.3780 C   0  0  0  0  0  3  0  0  0  0  0  0
  191.6800  176.4520  145.3960 C   0  0  0  0  0  3  0  0  0  0  0  0
  191.7110  177.8780  145.3910 N   0  0  0  0  0  2  0  0  0  0  0  0
  190.9690  176.0240  143.0120 C   0  0  0  0  0  3  0  0  0  0  0  0
  191.0050  178.5190  143.1150 C   0  0  0  0  0  3  0  0  0  0  0  0
  190.8230  177.2220  142.4360 C   0  0  0  0  0  0  0  0  0  0  0  0
  191.9580  176.2210  137.6830 C   0  0  0  0  0  0  0  0  0  0  0  0
  191.6020  175.3150  136.8790 O   0  0  0  0  0  0  0  0  0  0  0  0
  193.3020  176.7070  137.6460 N   0  0  0  0  0  2  0  0  0  0  0  0
  198.3490  173.6760  135.7870 N   0  0  0  0  0  1  0  0  0  0  0  0
  196.1940  174.7950  136.0290 C   0  0  0  0  0  2  0  0  0  0  0  0
  194.2180  176.2160  136.7070 N   0  0  0  0  0  2  0  0  0  0  0  0
  197.7120  174.2890  138.0710 C   0  0  0  0  0  2  0  0  0  0  0  0
  195.2510  175.3060  137.0770 C   0  0  0  0  0  0  0  0  0  0  0  0
  195.3470  174.8780  138.2990 N   0  0  0  0  0  0  0  0  0  0  0  0
  197.6220  174.6540  136.5770 C   0  0  1  0  0  3  0  0  0  0  0  0
  196.3610  173.8930  138.6670 C   0  0  0  0  0  2  0  0  0  0  0  0
  188.2880  178.2820  141.5620 O   0  0  0  0  0  0  0  0  0  0  0  0
  187.5200  177.5030  142.4740 C   0  0  0  0  0  2  0  0  0  0  0  0
  184.0530  178.6730  145.3010 C   0  0  0  0  0  2  0  0  0  0  0  0
  185.5440  179.0550  142.3860 C   0  0  0  0  0  2  0  0  0  0  0  0
  185.8810  177.5910  144.3510 C   0  0  1  0  0  3  0  0  0  0  0  0
  181.8760  179.5070  142.4650 O   0  0  0  0  0  0  0  0  0  0  0  0
  186.6070  178.4020  143.2980 C   0  0  1  0  0  3  0  0  0  0  0  0
  181.3220  178.1720  144.3440 C   0  0  0  0  0  1  0  0  0  0  0  0
  184.5530  179.9760  143.1320 C   0  0  0  0  0  2  0  0  0  0  0  0
  186.3730  177.4480  145.7710 C   0  0  0  0  0  2  0  0  0  0  0  0
  183.6210  179.2230  143.9980 N   0  0  0  0  0  0  0  0  0  0  0  0
  182.2750  179.0030  143.5490 C   0  0  0  0  0  0  0  0  0  0  0  0
  185.5660  178.6650  145.3760 C   0  0  2  0  0  3  0  0  0  0  0  0
  1  9  2  0  0  0  0
  1  2  1  0  0  0  0
  2  7  2  0  0  0  0
  3  6  1  0  0  0  0
  3  1  1  0  0  0  0
  4 16  1  0  0  0  0
  5  4  2  0  0  0  0
  6  8  2  0  0  0  0
  7  4  1  0  0  0  0
  7 28  1  0  0  0  0
  8  2  1  0  0  0  0
  9  5  1  0  0  0  0
 10 13  1  0  0  0  0
 11 12  2  0  0  0  0
 13 12  1  0  0  0  0
 14 11  1  0  0  0  0
 15 10  2  0  0  0  0
 16 14  2  0  0  0  0
 16 15  1  0  0  0  0
 17  9  1  0  0  0  0
 18 17  2  0  0  0  0
 19 17  1  0  0  0  0
 21 26  1  0  0  0  0
 21 24  1  0  0  0  0
 22 24  1  0  0  0  0
 22 19  1  0  0  0  0
 23 27  1  0  0  0  0
 24 25  2  0  0  0  0
 25 27  1  0  0  0  0
 26 20  1  6  0  0  0
 26 23  1  0  0  0  0
 28 29  1  0  0  0  0
 31 36  1  0  0  0  0
 31 34  1  0  0  0  0
 32 40  1  0  0  0  0
 32 37  1  1  0  0  0
 33 39  2  0  0  0  0
 34 29  1  6  0  0  0
 34 32  1  0  0  0  0
 36 38  1  0  0  0  0
 38 30  1  0  0  0  0
 39 38  1  0  0  0  0
 39 35  1  0  0  0  0
 40 30  1  1  0  0  0
 40 37  1  0  0  0  0
M  END
>  <MODEL>
3

>  <REMARK>
 VINA RESULT:      -9.7      1.725      2.088
  Name = 
  6 active torsions:
  status: ('A' for Active; 'I' for Inactive)
    1  A    between atoms: C_8  and  C_34
    2  A    between atoms: C_9  and  O_18
    3  A    between atoms: C_9  and  C_21
    4  A    between atoms: N_10  and  N_39
    5  A    between atoms: C_16  and  C_37
    6  A    between atoms: O_18  and  C_29
                            x       y       z     vdW  Elec       q    Type
                         _______ _______ _______ _____ _____    ______ ____

>  <TORSDO>
F 6

$$$$
=
 OpenBabel10222415373D

 40 45  0  0  1  0  0  0  0  0999 V2000
  189.5580  177.1570  137.9510 C   0  0  0  0  0  0  0  0  0  0  0  0
  188.6300  177.9360  138.5860 C   0  0  0  0  0  0  0  0  0  0  0  0
  189.3570  177.1490  136.5860 O   0  0  0  0  0  0  0  0  0  0  0  0
  189.6580  177.4400  140.7260 C   0  0  0  0  0  0  0  0  0  0  0  0
  190.5980  176.6350  140.0460 C   0  0  0  0  0  3  0  0  0  0  0  0
  188.2430  177.9640  136.2410 C   0  0  0  0  0  3  0  0  0  0  0  0
  188.6480  178.1090  139.9850 C   0  0  0  0  0  0  0  0  0  0  0  0
  187.7200  178.5380  137.5710 C   0  0  0  0  0  3  0  0  0  0  0  0
  190.5640  176.4830  138.6510 C   0  0  0  0  0  0  0  0  0  0  0  0
  191.1030  178.7810  143.9990 C   0  0  0  0  0  3  0  0  0  0  0  0
  188.7360  176.7520  144.3910 C   0  0  0  0  0  3  0  0  0  0  0  0
  189.4280  177.3440  145.3560 C   0  0  0  0  0  3  0  0  0  0  0  0
  190.5150  178.2520  145.1870 N   0  0  0  0  0  2  0  0  0  0  0  0
  188.8940  176.8530  142.9380 C   0  0  0  0  0  3  0  0  0  0  0  0
  190.7720  178.4880  142.7440 C   0  0  0  0  0  3  0  0  0  0  0  0
  189.7540  177.5670  142.2040 C   0  0  0  0  0  0  0  0  0  0  0  0
  191.5730  175.6380  137.9780 C   0  0  0  0  0  0  0  0  0  0  0  0
  191.4000  174.3890  137.9150 O   0  0  0  0  0  0  0  0  0  0  0  0
  192.7550  176.2150  137.4190 N   0  0  0  0  0  2  0  0  0  0  0  0
  198.0690  173.1120  136.9240 N   0  0  0  0  0  1  0  0  0  0  0  0
  195.8120  174.0210  136.7330 C   0  0  0  0  0  2  0  0  0  0  0  0
  193.7070  175.4160  136.7720 N   0  0  0  0  0  2  0  0  0  0  0  0
  197.3960  174.6820  138.6790 C   0  0  0  0  0  2  0  0  0  0  0  0
  194.8330  174.8860  137.4670 C   0  0  0  0  0  0  0  0  0  0  0  0
  194.9860  175.1020  138.7390 N   0  0  0  0  0  0  0  0  0  0  0  0
  197.2540  174.2820  137.1980 C   0  0  1  0  0  3  0  0  0  0  0  0
  196.1000  174.5030  139.4690 C   0  0  0  0  0  2  0  0  0  0  0  0
  187.7330  178.9270  140.6620 O   0  0  0  0  0  0  0  0  0  0  0  0
  186.8570  178.4920  141.6960 C   0  0  0  0  0  2  0  0  0  0  0  0
  182.2340  178.5530  141.6210 C   0  0  0  0  0  2  0  0  0  0  0  0
  185.0700  178.8760  139.9710 C   0  0  0  0  0  2  0  0  0  0  0  0
  184.4450  178.2520  142.2810 C   0  0  1  0  0  3  0  0  0  0  0  0
  182.1700  177.5770  138.0820 O   0  0  0  0  0  0  0  0  0  0  0  0
  185.4520  179.0310  141.4610 C   0  0  1  0  0  3  0  0  0  0  0  0
  180.9020  176.6280  139.8460 C   0  0  0  0  0  1  0  0  0  0  0  0
  183.6500  179.3790  139.6290 C   0  0  0  0  0  2  0  0  0  0  0  0
  183.9650  178.6980  143.6420 C   0  0  0  0  0  2  0  0  0  0  0  0
  182.5910  178.5110  140.1860 N   0  0  0  0  0  0  0  0  0  0  0  0
  181.9140  177.5900  139.3160 C   0  0  0  0  0  0  0  0  0  0  0  0
  183.3220  179.2670  142.3970 C   0  0  2  0  0  3  0  0  0  0  0  0
  1  2  2  0  0  0  0
  1  9  1  0  0  0  0
  2  7  1  0  0  0  0
  3  1  1  0  0  0  0
  4 16  1  0  0  0  0
  5  4  1  0  0  0  0
  6  3  1  0  0  0  0
  6  8  2  0  0  0  0
  7 28  1  0  0  0  0
  7  4  2  0  0  0  0
  8  2  1  0  0  0  0
  9  5  2  0  0  0  0
 10 13  1  0  0  0  0
 11 12  2  0  0  0  0
 13 12  1  0  0  0  0
 14 11  1  0  0  0  0
 15 10  2  0  0  0  0
 16 15  1  0  0  0  0
 16 14  2  0  0  0  0
 17  9  1  0  0  0  0
 18 17  2  0  0  0  0
 19 17  1  0  0  0  0
 21 26  1  0  0  0  0
 21 24  1  0  0  0  0
 22 19  1  0  0  0  0
 22 24  1  0  0  0  0
 23 27  1  0  0  0  0
 24 25  2  0  0  0  0
 25 27  1  0  0  0  0
 26 20  1  1  0  0  0
 26 23  1  0  0  0  0
 28 29  1  0  0  0  0
 31 34  1  0  0  0  0
 32 40  1  0  0  0  0
 32 37  1  1  0  0  0
 33 39  2  0  0  0  0
 34 29  1  6  0  0  0
 34 32  1  0  0  0  0
 36 31  1  0  0  0  0
 36 38  1  0  0  0  0
 38 30  1  0  0  0  0
 39 35  1  0  0  0  0
 39 38  1  0  0  0  0
 40 30  1  1  0  0  0
 40 37  1  0  0  0  0
M  END
>  <MODEL>
4

>  <REMARK>
 VINA RESULT:      -9.6      2.022      2.703
  Name = 
  6 active torsions:
  status: ('A' for Active; 'I' for Inactive)
    1  A    between atoms: C_8  and  C_34
    2  A    between atoms: C_9  and  O_18
    3  A    between atoms: C_9  and  C_21
    4  A    between atoms: N_10  and  N_39
    5  A    between atoms: C_16  and  C_37
    6  A    between atoms: O_18  and  C_29
                            x       y       z     vdW  Elec       q    Type
                         _______ _______ _______ _____ _____    ______ ____

>  <TORSDO>
F 6

$$$$
=
 OpenBabel10222415373D

 40 45  0  0  1  0  0  0  0  0999 V2000
  186.3190  178.4700  142.0540 C   0  0  0  0  0  0  0  0  0  0  0  0
  185.6490  178.5310  140.8630 C   0  0  0  0  0  0  0  0  0  0  0  0
  187.6850  178.4660  141.8620 O   0  0  0  0  0  0  0  0  0  0  0  0
  183.5280  178.5220  142.0390 C   0  0  0  0  0  0  0  0  0  0  0  0
  184.2450  178.4490  143.2540 C   0  0  0  0  0  3  0  0  0  0  0  0
  187.9940  178.5360  140.4750 C   0  0  0  0  0  3  0  0  0  0  0  0
  184.2410  178.5640  140.8120 C   0  0  0  0  0  0  0  0  0  0  0  0
  186.6370  178.5980  139.7490 C   0  0  0  0  0  3  0  0  0  0  0  0
  185.6480  178.4240  143.2810 C   0  0  0  0  0  0  0  0  0  0  0  0
  180.0110  177.4430  141.0080 C   0  0  0  0  0  3  0  0  0  0  0  0
  180.0580  179.6870  143.2040 C   0  0  0  0  0  3  0  0  0  0  0  0
  178.9760  179.1530  142.6540 C   0  0  0  0  0  3  0  0  0  0  0  0
  178.9450  178.1460  141.6440 N   0  0  0  0  0  2  0  0  0  0  0  0
  181.4720  179.4130  142.9330 C   0  0  0  0  0  3  0  0  0  0  0  0
  181.3150  177.6190  141.2020 C   0  0  0  0  0  3  0  0  0  0  0  0
  182.0420  178.5540  142.0810 C   0  0  0  0  0  0  0  0  0  0  0  0
  186.3580  178.3570  144.5750 C   0  0  0  0  0  0  0  0  0  0  0  0
  186.0180  179.1260  145.5160 O   0  0  0  0  0  0  0  0  0  0  0  0
  187.4430  177.4460  144.7670 N   0  0  0  0  0  2  0  0  0  0  0  0
  192.2850  176.4670  148.4700 N   0  0  0  0  0  1  0  0  0  0  0  0
  190.1920  177.1370  147.4100 C   0  0  0  0  0  2  0  0  0  0  0  0
  188.1110  177.3740  145.9960 N   0  0  0  0  0  2  0  0  0  0  0  0
  192.0760  175.9390  146.0880 C   0  0  0  0  0  2  0  0  0  0  0  0
  189.5230  177.1890  146.0690 C   0  0  0  0  0  0  0  0  0  0  0  0
  190.2360  177.1190  144.9860 N   0  0  0  0  0  0  0  0  0  0  0  0
  191.3370  176.1130  147.4290 C   0  0  1  0  0  3  0  0  0  0  0  0
  191.6900  177.0000  145.0570 C   0  0  0  0  0  2  0  0  0  0  0  0
  183.5250  178.6620  139.6110 O   0  0  0  0  0  0  0  0  0  0  0  0
  183.3720  179.8530  138.8460 C   0  0  0  0  0  2  0  0  0  0  0  0
  179.4590  180.6960  136.5300 C   0  0  0  0  0  2  0  0  0  0  0  0
  181.6270  181.6620  138.8180 C   0  0  0  0  0  2  0  0  0  0  0  0
  181.4910  179.7890  137.2100 C   0  0  1  0  0  3  0  0  0  0  0  0
  179.8610  184.3210  136.9540 O   0  0  0  0  0  0  0  0  0  0  0  0
  181.8950  180.1520  138.6230 C   0  0  1  0  0  3  0  0  0  0  0  0
  179.3510  183.1680  134.9470 C   0  0  0  0  0  1  0  0  0  0  0  0
  180.1550  182.0740  138.5970 C   0  0  0  0  0  2  0  0  0  0  0  0
  180.8750  178.4600  136.8410 C   0  0  0  0  0  2  0  0  0  0  0  0
  179.7510  181.9940  137.1770 N   0  0  0  0  0  0  0  0  0  0  0  0
  179.6650  183.2030  136.4060 C   0  0  0  0  0  0  0  0  0  0  0  0
  179.9990  179.5680  137.3840 C   0  0  2  0  0  3  0  0  0  0  0  0
  1  9  1  0  0  0  0
  2  1  2  0  0  0  0
  3  1  1  0  0  0  0
  4 16  1  0  0  0  0
  4  5  1  0  0  0  0
  5  9  2  0  0  0  0
  6  3  1  0  0  0  0
  7  2  1  0  0  0  0
  7  4  2  0  0  0  0
  8  6  2  0  0  0  0
  8  2  1  0  0  0  0
  9 17  1  0  0  0  0
 10 15  2  0  0  0  0
 10 13  1  0  0  0  0
 12 11  2  0  0  0  0
 13 12  1  0  0  0  0
 14 11  1  0  0  0  0
 15 16  1  0  0  0  0
 16 14  2  0  0  0  0
 17 19  1  0  0  0  0
 17 18  2  0  0  0  0
 19 22  1  0  0  0  0
 21 26  1  0  0  0  0
 22 24  1  0  0  0  0
 23 26  1  0  0  0  0
 24 21  1  0  0  0  0
 25 27  1  0  0  0  0
 25 24  2  0  0  0  0
 26 20  1  1  0  0  0
 27 23  1  0  0  0  0
 28  7  1  0  0  0  0
 29 28  1  0  0  0  0
 30 38  1  0  0  0  0
 32 37  1  1  0  0  0
 32 40  1  0  0  0  0
 32 34  1  0  0  0  0
 34 31  1  0  0  0  0
 34 29  1  6  0  0  0
 35 39  1  0  0  0  0
 36 31  1  0  0  0  0
 37 40  1  0  0  0  0
 38 36  1  0  0  0  0
 39 33  2  0  0  0  0
 39 38  1  0  0  0  0
 40 30  1  6  0  0  0
M  END
>  <MODEL>
5

>  <REMARK>
 VINA RESULT:      -9.5      4.858      8.784
  Name = 
  6 active torsions:
  status: ('A' for Active; 'I' for Inactive)
    1  A    between atoms: C_8  and  C_34
    2  A    between atoms: C_9  and  O_18
    3  A    between atoms: C_9  and  C_21
    4  A    between atoms: N_10  and  N_39
    5  A    between atoms: C_16  and  C_37
    6  A    between atoms: O_18  and  C_29
                            x       y       z     vdW  Elec       q    Type
                         _______ _______ _______ _____ _____    ______ ____

>  <TORSDO>
F 6

$$$$
=
 OpenBabel10222415373D

 40 45  0  0  1  0  0  0  0  0999 V2000
  183.8030  178.6650  143.5500 C   0  0  0  0  0  0  0  0  0  0  0  0
  183.0890  178.7250  142.3850 C   0  0  0  0  0  0  0  0  0  0  0  0
  182.9770  178.7570  144.6500 O   0  0  0  0  0  0  0  0  0  0  0  0
  185.1350  178.4850  141.1030 C   0  0  0  0  0  0  0  0  0  0  0  0
  185.8480  178.4360  142.3210 C   0  0  0  0  0  3  0  0  0  0  0  0
  181.6180  178.8780  144.2450 C   0  0  0  0  0  3  0  0  0  0  0  0
  183.7230  178.6330  141.1280 C   0  0  0  0  0  0  0  0  0  0  0  0
  181.6390  178.8450  142.7050 C   0  0  0  0  0  3  0  0  0  0  0  0
  185.1950  178.5230  143.5610 C   0  0  0  0  0  0  0  0  0  0  0  0
  188.2780  178.2490  138.9440 C   0  0  0  0  0  3  0  0  0  0  0  0
  185.6010  178.2230  137.2990 C   0  0  0  0  0  3  0  0  0  0  0  0
  186.8290  178.1780  136.7980 C   0  0  0  0  0  3  0  0  0  0  0  0
  188.0490  178.2070  137.5360 N   0  0  0  0  0  0  0  0  0  0  0  0
  185.1710  178.3220  138.6960 C   0  0  0  0  0  3  0  0  0  0  0  0
  187.3570  178.3180  139.9020 C   0  0  0  0  0  2  0  0  0  0  0  0
  185.8860  178.3790  139.8240 C   0  0  0  0  0  0  0  0  0  0  0  0
  185.9790  178.4580  144.8120 C   0  0  0  0  0  0  0  0  0  0  0  0
  185.7050  179.2410  145.7630 O   0  0  0  0  0  0  0  0  0  0  0  0
  187.0620  177.5350  144.9490 N   0  0  0  0  0  2  0  0  0  0  0  0
  192.1610  176.7950  148.3510 N   0  0  0  0  0  1  0  0  0  0  0  0
  189.9670  177.3380  147.4300 C   0  0  0  0  0  2  0  0  0  0  0  0
  187.7990  177.4650  146.1380 N   0  0  0  0  0  2  0  0  0  0  0  0
  191.8630  176.3520  145.9600 C   0  0  0  0  0  2  0  0  0  0  0  0
  189.2230  177.3910  146.1290 C   0  0  0  0  0  0  0  0  0  0  0  0
  189.8800  177.4250  145.0100 N   0  0  0  0  0  0  0  0  0  0  0  0
  191.1880  176.4090  147.3440 C   0  0  1  0  0  3  0  0  0  0  0  0
  191.3400  177.4200  145.0000 C   0  0  0  0  0  2  0  0  0  0  0  0
  183.0170  178.6550  139.9170 O   0  0  0  0  0  0  0  0  0  0  0  0
  181.9710  177.7570  139.5650 C   0  0  0  0  0  2  0  0  0  0  0  0
  180.5660  180.4840  136.1050 C   0  0  0  0  0  2  0  0  0  0  0  0
  180.2940  179.6070  139.2710 C   0  0  0  0  0  2  0  0  0  0  0  0
  181.7690  178.9650  137.3930 C   0  0  1  0  0  3  0  0  0  0  0  0
  179.6030  183.1430  138.4470 O   0  0  0  0  0  0  0  0  0  0  0  0
  181.0110  178.4210  138.5860 C   0  0  1  0  0  3  0  0  0  0  0  0
  180.8920  183.3800  136.4710 C   0  0  0  0  0  1  0  0  0  0  0  0
  179.3070  180.3620  138.3530 C   0  0  0  0  0  2  0  0  0  0  0  0
  181.9380  178.2000  136.1020 C   0  0  0  0  0  2  0  0  0  0  0  0
  179.9940  181.1410  137.3000 N   0  0  0  0  0  0  0  0  0  0  0  0
  180.1280  182.5620  137.4590 C   0  0  0  0  0  0  0  0  0  0  0  0
  180.6720  178.9920  136.3430 C   0  0  2  0  0  3  0  0  0  0  0  0
  1  9  1  0  0  0  0
  1  3  1  0  0  0  0
  2  8  1  0  0  0  0
  2  1  2  0  0  0  0
  4  7  2  0  0  0  0
  4  5  1  0  0  0  0
  5  9  2  0  0  0  0
  6  3  1  0  0  0  0
  7  2  1  0  0  0  0
  8  6  2  0  0  0  0
  9 17  1  0  0  0  0
 10 15  1  0  0  0  0
 11 14  1  0  0  0  0
 12 11  2  0  0  0  0
 12 13  1  0  0  0  0
 13 10  2  0  0  0  0
 14 16  2  0  0  0  0
 16 15  1  0  0  0  0
 16  4  1  0  0  0  0
 17 19  1  0  0  0  0
 17 18  2  0  0  0  0
 19 22  1  0  0  0  0
 23 26  1  0  0  0  0
 24 22  1  0  0  0  0
 24 21  1  0  0  0  0
 25 24  2  0  0  0  0
 26 21  1  0  0  0  0
 26 20  1  1  0  0  0
 27 25  1  0  0  0  0
 27 23  1  0  0  0  0
 28  7  1  0  0  0  0
 29 28  1  0  0  0  0
 30 40  1  0  0  0  0
 30 38  1  0  0  0  0
 32 37  1  6  0  0  0
 32 34  1  0  0  0  0
 34 31  1  0  0  0  0
 34 29  1  1  0  0  0
 35 39  1  0  0  0  0
 36 31  1  0  0  0  0
 38 39  1  0  0  0  0
 38 36  1  0  0  0  0
 39 33  2  0  0  0  0
 40 37  1  6  0  0  0
 40 32  1  0  0  0  0
M  END
>  <MODEL>
6

>  <REMARK>
 VINA RESULT:      -9.5      4.559      8.625
  Name = 
  6 active torsions:
  status: ('A' for Active; 'I' for Inactive)
    1  A    between atoms: C_8  and  C_34
    2  A    between atoms: C_9  and  O_18
    3  A    between atoms: C_9  and  C_21
    4  A    between atoms: N_10  and  N_39
    5  A    between atoms: C_16  and  C_37
    6  A    between atoms: O_18  and  C_29
                            x       y       z     vdW  Elec       q    Type
                         _______ _______ _______ _____ _____    ______ ____

>  <TORSDO>
F 6

$$$$
=
 OpenBabel10222415373D

 40 45  0  0  1  0  0  0  0  0999 V2000
  189.5290  177.7290  139.7000 C   0  0  0  0  0  0  0  0  0  0  0  0
  188.2850  177.9500  140.2250 C   0  0  0  0  0  0  0  0  0  0  0  0
  189.5220  177.8520  138.3260 O   0  0  0  0  0  0  0  0  0  0  0  0
  189.1520  177.5910  142.4620 C   0  0  0  0  0  0  0  0  0  0  0  0
  190.4230  177.3580  141.8920 C   0  0  0  0  0  3  0  0  0  0  0  0
  188.2180  178.1830  137.8610 C   0  0  0  0  0  3  0  0  0  0  0  0
  188.0540  177.8940  141.6150 C   0  0  0  0  0  0  0  0  0  0  0  0
  187.3390  178.2770  139.1220 C   0  0  0  0  0  3  0  0  0  0  0  0
  190.6320  177.4250  140.5050 C   0  0  0  0  0  0  0  0  0  0  0  0
  190.3970  177.2140  146.0550 C   0  0  0  0  0  3  0  0  0  0  0  0
  187.2870  177.5910  145.8200 C   0  0  0  0  0  3  0  0  0  0  0  0
  187.9720  177.4140  146.9430 C   0  0  0  0  0  3  0  0  0  0  0  0
  189.3810  177.2250  147.0570 N   0  0  0  0  0  2  0  0  0  0  0  0
  187.7650  177.6300  144.4360 C   0  0  0  0  0  3  0  0  0  0  0  0
  190.2270  177.3410  144.7410 C   0  0  0  0  0  3  0  0  0  0  0  0
  189.0010  177.5130  143.9390 C   0  0  0  0  0  0  0  0  0  0  0  0
  191.9800  177.1830  139.9510 C   0  0  0  0  0  0  0  0  0  0  0  0
  192.9990  177.5340  140.6090 O   0  0  0  0  0  0  0  0  0  0  0  0
  192.1450  176.5780  138.6670 N   0  0  0  0  0  2  0  0  0  0  0  0
  196.5580  173.2090  135.9660 N   0  0  0  0  0  1  0  0  0  0  0  0
  195.0990  174.9460  136.8650 C   0  0  0  0  0  2  0  0  0  0  0  0
  193.4220  176.3380  138.1450 N   0  0  0  0  0  2  0  0  0  0  0  0
  194.4000  172.4480  136.8410 C   0  0  0  0  0  2  0  0  0  0  0  0
  193.7200  175.1460  137.4200 C   0  0  0  0  0  0  0  0  0  0  0  0
  192.7970  174.2630  137.1930 N   0  0  0  0  0  0  0  0  0  0  0  0
  195.5390  173.4780  136.9660 C   0  0  1  0  0  3  0  0  0  0  0  0
  193.0800  173.0750  136.3920 C   0  0  0  0  0  2  0  0  0  0  0  0
  186.8000  178.1500  142.1880 O   0  0  0  0  0  0  0  0  0  0  0  0
  185.8480  179.0820  141.6870 C   0  0  0  0  0  2  0  0  0  0  0  0
  181.4650  178.3560  140.4050 C   0  0  0  0  0  2  0  0  0  0  0  0
  183.5950  179.1210  142.8020 C   0  0  0  0  0  2  0  0  0  0  0  0
  183.7640  178.7120  140.3690 C   0  0  1  0  0  3  0  0  0  0  0  0
  180.2110  180.5890  143.0370 O   0  0  0  0  0  0  0  0  0  0  0  0
  184.4530  178.4680  141.6950 C   0  0  1  0  0  3  0  0  0  0  0  0
  179.5860  180.5880  140.7500 C   0  0  0  0  0  1  0  0  0  0  0  0
  182.1510  178.5780  142.8820 C   0  0  0  0  0  2  0  0  0  0  0  0
  183.7710  177.7130  139.2370 C   0  0  0  0  0  2  0  0  0  0  0  0
  181.3230  178.9970  141.7310 N   0  0  0  0  0  0  0  0  0  0  0  0
  180.3800  180.0660  141.9020 C   0  0  0  0  0  0  0  0  0  0  0  0
  182.7600  177.5730  140.3530 C   0  0  2  0  0  3  0  0  0  0  0  0
  1  2  2  0  0  0  0
  1  9  1  0  0  0  0
  2  7  1  0  0  0  0
  3  1  1  0  0  0  0
  4 16  1  0  0  0  0
  5  4  1  0  0  0  0
  6  3  1  0  0  0  0
  6  8  2  0  0  0  0
  7 28  1  0  0  0  0
  7  4  2  0  0  0  0
  8  2  1  0  0  0  0
  9  5  2  0  0  0  0
 10 13  1  0  0  0  0
 11 12  2  0  0  0  0
 12 13  1  0  0  0  0
 14 11  1  0  0  0  0
 15 10  2  0  0  0  0
 16 14  2  0  0  0  0
 16 15  1  0  0  0  0
 17  9  1  0  0  0  0
 17 18  2  0  0  0  0
 19 17  1  0  0  0  0
 21 26  1  0  0  0  0
 21 24  1  0  0  0  0
 22 19  1  0  0  0  0
 23 26  1  0  0  0  0
 24 22  1  0  0  0  0
 25 24  2  0  0  0  0
 26 20  1  6  0  0  0
 27 23  1  0  0  0  0
 27 25  1  0  0  0  0
 29 28  1  0  0  0  0
 30 38  1  0  0  0  0
 31 36  1  0  0  0  0
 32 37  1  6  0  0  0
 32 34  1  0  0  0  0
 34 29  1  6  0  0  0
 34 31  1  0  0  0  0
 35 39  1  0  0  0  0
 38 39  1  0  0  0  0
 38 36  1  0  0  0  0
 39 33  2  0  0  0  0
 40 37  1  6  0  0  0
 40 32  1  0  0  0  0
 40 30  1  0  0  0  0
M  END
>  <MODEL>
7

>  <REMARK>
 VINA RESULT:      -9.4      1.415      2.365
  Name = 
  6 active torsions:
  status: ('A' for Active; 'I' for Inactive)
    1  A    between atoms: C_8  and  C_34
    2  A    between atoms: C_9  and  O_18
    3  A    between atoms: C_9  and  C_21
    4  A    between atoms: N_10  and  N_39
    5  A    between atoms: C_16  and  C_37
    6  A    between atoms: O_18  and  C_29
                            x       y       z     vdW  Elec       q    Type
                         _______ _______ _______ _____ _____    ______ ____

>  <TORSDO>
F 6

$$$$
=
 OpenBabel10222415373D

 40 45  0  0  1  0  0  0  0  0999 V2000
  187.1470  178.2920  138.2250 C   0  0  0  0  0  0  0  0  0  0  0  0
  188.4650  177.9410  138.1280 C   0  0  0  0  0  0  0  0  0  0  0  0
  186.5740  178.4420  136.9790 O   0  0  0  0  0  0  0  0  0  0  0  0
  188.6400  177.8740  140.5460 C   0  0  0  0  0  0  0  0  0  0  0  0
  187.2790  178.2470  140.6170 C   0  0  0  0  0  3  0  0  0  0  0  0
  187.5280  178.1770  135.9570 C   0  0  0  0  0  3  0  0  0  0  0  0
  189.2530  177.7160  139.2750 C   0  0  0  0  0  0  0  0  0  0  0  0
  188.8320  177.8140  136.6890 C   0  0  0  0  0  3  0  0  0  0  0  0
  186.5120  178.4600  139.4610 C   0  0  0  0  0  0  0  0  0  0  0  0
  190.3110  175.7680  143.2600 C   0  0  0  0  0  3  0  0  0  0  0  0
  190.5020  178.8630  143.7570 C   0  0  0  0  0  3  0  0  0  0  0  0
  190.9750  177.9120  144.5520 C   0  0  0  0  0  3  0  0  0  0  0  0
  190.8770  176.5050  144.3430 N   0  0  0  0  0  2  0  0  0  0  0  0
  189.7670  178.7400  142.4950 C   0  0  0  0  0  3  0  0  0  0  0  0
  189.6900  176.2630  142.1930 C   0  0  0  0  0  3  0  0  0  0  0  0
  189.3930  177.6550  141.8090 C   0  0  0  0  0  0  0  0  0  0  0  0
  185.0890  178.8400  139.5810 C   0  0  0  0  0  0  0  0  0  0  0  0
  184.7140  179.9850  139.2040 O   0  0  0  0  0  0  0  0  0  0  0  0
  184.1350  177.9350  140.1420 N   0  0  0  0  0  2  0  0  0  0  0  0
  178.9310  179.3780  143.1340 N   0  0  0  0  0  1  0  0  0  0  0  0
  180.7590  179.0550  141.5500 C   0  0  0  0  0  2  0  0  0  0  0  0
  182.7840  178.2910  140.2460 N   0  0  0  0  0  2  0  0  0  0  0  0
  181.0120  178.4860  144.0680 C   0  0  0  0  0  2  0  0  0  0  0  0
  182.2060  178.6640  141.4950 C   0  0  0  0  0  0  0  0  0  0  0  0
  182.9320  178.7200  142.5690 N   0  0  0  0  0  0  0  0  0  0  0  0
  180.0880  178.5520  142.8370 C   0  0  1  0  0  3  0  0  0  0  0  0
  182.3600  179.1690  143.8360 C   0  0  0  0  0  2  0  0  0  0  0  0
  190.5960  177.3210  139.2110 O   0  0  0  0  0  0  0  0  0  0  0  0
  191.0460  175.9820  139.0290 C   0  0  0  0  0  2  0  0  0  0  0  0
  193.3960  173.9600  135.5980 C   0  0  0  0  0  2  0  0  0  0  0  0
  193.0990  176.5030  137.6750 C   0  0  0  0  0  2  0  0  0  0  0  0
  191.9080  174.3620  137.3410 C   0  0  1  0  0  3  0  0  0  0  0  0
  196.5240  175.5730  136.6450 O   0  0  0  0  0  0  0  0  0  0  0  0
  191.7090  175.8270  137.6660 C   0  0  1  0  0  3  0  0  0  0  0  0
  196.2050  173.2830  136.1220 C   0  0  0  0  0  1  0  0  0  0  0  0
  193.8640  176.3870  136.3380 C   0  0  0  0  0  2  0  0  0  0  0  0
  190.9290  173.5560  136.5210 C   0  0  0  0  0  2  0  0  0  0  0  0
  194.3270  175.0090  136.0680 N   0  0  0  0  0  0  0  0  0  0  0  0
  195.7070  174.6800  136.2920 C   0  0  0  0  0  0  0  0  0  0  0  0
  191.9660  174.4080  135.8250 C   0  0  2  0  0  3  0  0  0  0  0  0
  1  9  1  0  0  0  0
  2  1  2  0  0  0  0
  2  7  1  0  0  0  0
  3  1  1  0  0  0  0
  4  5  1  0  0  0  0
  4 16  1  0  0  0  0
  6  8  2  0  0  0  0
  6  3  1  0  0  0  0
  7  4  2  0  0  0  0
  8  2  1  0  0  0  0
  9 17  1  0  0  0  0
  9  5  2  0  0  0  0
 10 13  1  0  0  0  0
 11 12  2  0  0  0  0
 13 12  1  0  0  0  0
 14 11  1  0  0  0  0
 15 10  2  0  0  0  0
 16 15  1  0  0  0  0
 16 14  2  0  0  0  0
 17 19  1  0  0  0  0
 18 17  2  0  0  0  0
 19 22  1  0  0  0  0
 21 26  1  0  0  0  0
 22 24  1  0  0  0  0
 24 21  1  0  0  0  0
 24 25  2  0  0  0  0
 25 27  1  0  0  0  0
 26 20  1  1  0  0  0
 26 23  1  0  0  0  0
 27 23  1  0  0  0  0
 28  7  1  0  0  0  0
 29 28  1  0  0  0  0
 30 38  1  0  0  0  0
 32 37  1  6  0  0  0
 32 34  1  0  0  0  0
 34 31  1  0  0  0  0
 34 29  1  1  0  0  0
 35 39  1  0  0  0  0
 36 31  1  0  0  0  0
 38 39  1  0  0  0  0
 38 36  1  0  0  0  0
 39 33  2  0  0  0  0
 40 30  1  1  0  0  0
 40 37  1  0  0  0  0
 40 32  1  0  0  0  0
M  END
>  <MODEL>
8

>  <REMARK>
 VINA RESULT:      -9.2      2.245     10.527
  Name = 
  6 active torsions:
  status: ('A' for Active; 'I' for Inactive)
    1  A    between atoms: C_8  and  C_34
    2  A    between atoms: C_9  and  O_18
    3  A    between atoms: C_9  and  C_21
    4  A    between atoms: N_10  and  N_39
    5  A    between atoms: C_16  and  C_37
    6  A    between atoms: O_18  and  C_29
                            x       y       z     vdW  Elec       q    Type
                         _______ _______ _______ _____ _____    ______ ____

>  <TORSDO>
F 6

$$$$
=
 OpenBabel10222415373D

 40 45  0  0  1  0  0  0  0  0999 V2000
  188.4010  177.8950  139.3920 C   0  0  0  0  0  0  0  0  0  0  0  0
  187.7990  177.9210  138.1640 C   0  0  0  0  0  0  0  0  0  0  0  0
  189.7550  177.6580  139.2810 O   0  0  0  0  0  0  0  0  0  0  0  0
  185.6570  178.3740  139.2090 C   0  0  0  0  0  0  0  0  0  0  0  0
  186.3030  178.3320  140.4650 C   0  0  0  0  0  3  0  0  0  0  0  0
  190.1280  177.5200  137.9140 C   0  0  0  0  0  3  0  0  0  0  0  0
  186.4160  178.1650  138.0280 C   0  0  0  0  0  0  0  0  0  0  0  0
  188.8290  177.7070  137.1090 C   0  0  0  0  0  3  0  0  0  0  0  0
  187.6820  178.0940  140.5760 C   0  0  0  0  0  0  0  0  0  0  0  0
  181.9600  177.4510  139.4860 C   0  0  0  0  0  3  0  0  0  0  0  0
  182.4660  180.4570  138.7280 C   0  0  0  0  0  3  0  0  0  0  0  0
  181.2830  179.8720  138.8640 C   0  0  0  0  0  3  0  0  0  0  0  0
  181.0440  178.5050  139.1900 N   0  0  0  0  0  0  0  0  0  0  0  0
  183.8080  179.8830  138.8600 C   0  0  0  0  0  3  0  0  0  0  0  0
  183.2890  177.5190  139.4750 C   0  0  0  0  0  2  0  0  0  0  0  0
  184.1950  178.6390  139.1610 C   0  0  0  0  0  0  0  0  0  0  0  0
  188.3200  178.0670  141.9080 C   0  0  0  0  0  0  0  0  0  0  0  0
  189.0960  179.0020  142.2490 O   0  0  0  0  0  0  0  0  0  0  0  0
  188.0860  176.9810  142.8080 N   0  0  0  0  0  2  0  0  0  0  0  0
  188.3400  177.9420  148.9020 N   0  0  0  0  0  1  0  0  0  0  0  0
  188.6190  177.2130  146.5890 C   0  0  0  0  0  2  0  0  0  0  0  0
  188.6810  176.9590  144.0770 N   0  0  0  0  0  2  0  0  0  0  0  0
  186.6600  178.7520  147.3140 C   0  0  0  0  0  2  0  0  0  0  0  0
  187.9400  177.2710  145.2540 C   0  0  0  0  0  0  0  0  0  0  0  0
  186.6740  177.5500  145.1830 N   0  0  0  0  0  0  0  0  0  0  0  0
  188.1280  178.3340  147.5190 C   0  0  1  0  0  3  0  0  0  0  0  0
  185.8960  177.8010  146.3930 C   0  0  0  0  0  2  0  0  0  0  0  0
  185.7750  178.2330  136.7840 O   0  0  0  0  0  0  0  0  0  0  0  0
  185.4480  177.1110  135.9700 C   0  0  0  0  0  2  0  0  0  0  0  0
  186.0280  172.6110  136.8570 C   0  0  0  0  0  2  0  0  0  0  0  0
  184.0980  175.2770  137.0360 C   0  0  0  0  0  2  0  0  0  0  0  0
  186.3020  174.7700  136.0340 C   0  0  1  0  0  3  0  0  0  0  0  0
  182.4090  172.0050  136.7180 O   0  0  0  0  0  0  0  0  0  0  0  0
  185.5210  175.8270  136.7860 C   0  0  1  0  0  3  0  0  0  0  0  0
  184.1070  170.7510  135.6390 C   0  0  0  0  0  1  0  0  0  0  0  0
  184.0640  173.9610  137.8440 C   0  0  0  0  0  2  0  0  0  0  0  0
  187.7770  174.5250  136.2430 C   0  0  0  0  0  2  0  0  0  0  0  0
  184.5780  172.8090  137.0730 N   0  0  0  0  0  0  0  0  0  0  0  0
  183.6450  171.8790  136.5020 C   0  0  0  0  0  0  0  0  0  0  0  0
  186.7720  173.8900  137.1790 C   0  0  2  0  0  3  0  0  0  0  0  0
  1  9  1  0  0  0  0
  2  1  2  0  0  0  0
  3  1  1  0  0  0  0
  4  5  1  0  0  0  0
  5  9  2  0  0  0  0
  6  3  1  0  0  0  0
  7  2  1  0  0  0  0
  7  4  2  0  0  0  0
  8  6  2  0  0  0  0
  8  2  1  0  0  0  0
  9 17  1  0  0  0  0
 11 14  1  0  0  0  0
 11 12  2  0  0  0  0
 12 13  1  0  0  0  0
 13 10  2  0  0  0  0
 14 16  2  0  0  0  0
 15 10  1  0  0  0  0
 16  4  1  0  0  0  0
 16 15  1  0  0  0  0
 17 18  2  0  0  0  0
 17 19  1  0  0  0  0
 19 22  1  0  0  0  0
 21 26  1  0  0  0  0
 22 24  1  0  0  0  0
 23 26  1  0  0  0  0
 24 21  1  0  0  0  0
 25 24  2  0  0  0  0
 25 27  1  0  0  0  0
 26 20  1  1  0  0  0
 27 23  1  0  0  0  0
 28  7  1  0  0  0  0
 29 28  1  0  0  0  0
 30 38  1  0  0  0  0
 30 40  1  0  0  0  0
 31 36  1  0  0  0  0
 32 37  1  1  0  0  0
 32 34  1  0  0  0  0
 32 40  1  0  0  0  0
 34 29  1  6  0  0  0
 34 31  1  0  0  0  0
 35 39  1  0  0  0  0
 38 36  1  0  0  0  0
 39 33  2  0  0  0  0
 39 38  1  0  0  0  0
 40 37  1  6  0  0  0
M  END
>  <MODEL>
9

>  <REMARK>
 VINA RESULT:      -9.1      4.377      9.199
  Name = 
  6 active torsions:
  status: ('A' for Active; 'I' for Inactive)
    1  A    between atoms: C_8  and  C_34
    2  A    between atoms: C_9  and  O_18
    3  A    between atoms: C_9  and  C_21
    4  A    between atoms: N_10  and  N_39
    5  A    between atoms: C_16  and  C_37
    6  A    between atoms: O_18  and  C_29
                            x       y       z     vdW  Elec       q    Type
                         _______ _______ _______ _____ _____    ______ ____

>  <TORSDO>
F 6

$$$$
