=
 OpenBabel10222415123D

 34 37  0  0  1  0  0  0  0  0999 V2000
  189.6100  177.2230  140.9910 C   0  0  0  0  0  0  0  0  0  0  0  0
  188.1570  177.1270  142.9770 C   0  0  1  0  0  3  0  0  0  0  0  0
  187.4370  178.3730  142.4060 C   0  0  1  0  0  3  0  0  0  0  0  0
  188.1740  179.1000  141.4430 O   0  0  0  0  0  0  0  0  0  0  0  0
  189.4040  176.7150  142.2210 C   0  0  0  0  0  0  0  0  0  0  0  0
  188.6760  178.2070  140.5450 N   0  0  0  0  0  2  0  0  0  0  0  0
  190.2350  175.6090  142.7910 C   0  0  0  0  0  1  0  0  0  0  0  0
  187.3990  178.1550  147.7020 C   0  0  0  0  0  0  0  0  0  0  0  0
  186.0620  178.5560  147.5240 C   0  0  0  0  0  3  0  0  0  0  0  0
  187.5350  177.7140  145.3310 C   0  0  0  0  0  0  0  0  0  0  0  0
  188.4230  177.3020  144.4040 N   0  0  0  0  0  0  0  0  0  0  0  0
  189.4140  177.3260  146.4000 C   0  0  0  0  0  0  0  0  0  0  0  0
  186.2070  178.0960  145.1250 C   0  0  0  0  0  3  0  0  0  0  0  0
  190.3810  177.2060  147.3900 O   0  0  0  0  0  1  0  0  0  0  0  0
  188.1110  177.7390  146.5740 C   0  0  0  0  0  0  0  0  0  0  0  0
  189.5930  177.0520  145.0460 C   0  0  0  0  0  3  0  0  0  0  0  0
  185.4570  178.5230  146.2400 C   0  0  0  0  0  0  0  0  0  0  0  0
  187.9770  178.1680  148.9640 O   0  0  0  0  0  1  0  0  0  0  0  0
  184.1220  178.8900  146.0590 O   0  0  0  0  0  0  0  0  0  0  0  0
  183.4940  178.9050  144.7820 C   0  0  0  0  0  1  0  0  0  0  0  0
  190.5290  175.8250  139.0740 N   0  0  0  0  0  2  0  0  0  0  0  0
  191.8460  177.3620  140.2210 O   0  0  0  0  0  0  0  0  0  0  0  0
  190.7110  176.8300  140.0780 C   0  0  0  0  0  0  0  0  0  0  0  0
  191.5960  175.3330  138.3070 N   0  0  0  0  0  2  0  0  0  0  0  0
  191.0290  174.7030  137.1250 C   0  0  2  0  0  3  0  0  0  0  0  0
  190.1000  173.7180  137.5030 O   0  0  0  0  0  0  0  0  0  0  0  0
  189.4430  173.3250  136.3210 C   0  0  0  0  0  2  0  0  0  0  0  0
  191.8010  172.7380  135.8280 N   0  0  0  0  0  2  0  0  0  0  0  0
  192.1430  174.0960  136.2540 C   0  0  0  0  0  2  0  0  0  0  0  0
  190.4240  172.6960  135.3160 C   0  0  0  0  0  2  0  0  0  0  0  0
  186.1000  178.0560  141.9190 N   0  0  0  0  0  2  0  0  0  0  0  0
  185.4140  179.3230  141.6690 C   0  0  0  0  0  2  0  0  0  0  0  0
  185.0670  179.4230  140.2610 N   0  0  0  0  0  2  0  0  0  0  0  0
  183.7270  178.8730  140.0890 C   0  0  0  0  0  1  0  0  0  0  0  0
  1  5  2  0  0  0  0
  2 11  1  1  0  0  0
  3 31  1  6  0  0  0
  3  2  1  0  0  0  0
  4  3  1  0  0  0  0
  5  7  1  0  0  0  0
  5  2  1  0  0  0  0
  6  1  1  0  0  0  0
  6  4  1  0  0  0  0
  8 18  1  0  0  0  0
  9  8  1  0  0  0  0
 10 15  1  0  0  0  0
 11 16  1  0  0  0  0
 11 10  1  0  0  0  0
 12 15  1  0  0  0  0
 12 14  1  0  0  0  0
 13 10  2  0  0  0  0
 13 17  1  0  0  0  0
 15  8  2  0  0  0  0
 16 12  2  0  0  0  0
 17  9  2  0  0  0  0
 19 17  1  0  0  0  0
 20 19  1  0  0  0  0
 21 23  1  0  0  0  0
 23 22  2  0  0  0  0
 23  1  1  0  0  0  0
 24 21  1  0  0  0  0
 25 26  1  0  0  0  0
 25 24  1  1  0  0  0
 27 26  1  0  0  0  0
 28 29  1  0  0  0  0
 29 25  1  0  0  0  0
 30 28  1  0  0  0  0
 30 27  1  0  0  0  0
 32 31  1  0  0  0  0
 33 32  1  0  0  0  0
 34 33  1  0  0  0  0
M  END
>  <MODEL>
1

>  <REMARK>
 VINA RESULT:      -9.4      0.000      0.000
  Name = 
  8 active torsions:
  status: ('A' for Active; 'I' for Inactive)
    1  A    between atoms: C_2  and  C_33
    2  A    between atoms: C_3  and  N_20
    3  A    between atoms: N_7  and  N_20
    4  A    between atoms: N_9  and  C_11
    5  A    between atoms: C_10  and  N_13
    6  A    between atoms: C_10  and  N_31
    7  A    between atoms: C_17  and  N_31
    8  A    between atoms: O_19  and  C_29
                            x       y       z     vdW  Elec       q    Type
                         _______ _______ _______ _____ _____    ______ ____

>  <TORSDO>
F 8

$$$$
=
 OpenBabel10222415123D

 34 37  0  0  1  0  0  0  0  0999 V2000
  189.9610  176.7820  140.9520 C   0  0  0  0  0  0  0  0  0  0  0  0
  188.9020  177.8410  142.9060 C   0  0  1  0  0  3  0  0  0  0  0  0
  189.5580  176.7290  143.7590 C   0  0  1  0  0  3  0  0  0  0  0  0
  189.9610  175.5820  143.0380 O   0  0  0  0  0  0  0  0  0  0  0  0
  189.0490  177.6620  141.4100 C   0  0  0  0  0  0  0  0  0  0  0  0
  190.6430  176.0040  141.9370 N   0  0  0  0  0  2  0  0  0  0  0  0
  188.3230  178.6150  140.5150 C   0  0  0  0  0  1  0  0  0  0  0  0
  184.9640  178.4880  145.7410 C   0  0  0  0  0  0  0  0  0  0  0  0
  185.6810  178.4430  146.9520 C   0  0  0  0  0  3  0  0  0  0  0  0
  187.0420  178.1630  144.5530 C   0  0  0  0  0  0  0  0  0  0  0  0
  187.5030  178.0230  143.2940 N   0  0  0  0  0  0  0  0  0  0  0  0
  185.2940  178.3050  143.2310 C   0  0  0  0  0  0  0  0  0  0  0  0
  187.7810  178.1250  145.7380 C   0  0  0  0  0  3  0  0  0  0  0  0
  183.9970  178.4320  142.7500 O   0  0  0  0  0  1  0  0  0  0  0  0
  185.6840  178.3420  144.5530 C   0  0  0  0  0  0  0  0  0  0  0  0
  186.4370  178.1120  142.4600 C   0  0  0  0  0  3  0  0  0  0  0  0
  187.0890  178.2680  146.9590 C   0  0  0  0  0  0  0  0  0  0  0  0
  183.5900  178.6820  145.7420 O   0  0  0  0  0  1  0  0  0  0  0  0
  187.8120  178.2530  148.1540 O   0  0  0  0  0  0  0  0  0  0  0  0
  189.2290  178.1330  148.1950 C   0  0  0  0  0  1  0  0  0  0  0  0
  191.6500  176.7550  139.0490 N   0  0  0  0  0  2  0  0  0  0  0  0
  189.3960  176.2890  138.7060 O   0  0  0  0  0  0  0  0  0  0  0  0
  190.3110  176.5790  139.5250 C   0  0  0  0  0  0  0  0  0  0  0  0
  191.9680  176.7180  137.6830 N   0  0  0  0  0  2  0  0  0  0  0  0
  193.0210  175.7290  137.5080 C   0  0  2  0  0  3  0  0  0  0  0  0
  193.9620  175.8390  138.5460 O   0  0  0  0  0  0  0  0  0  0  0  0
  194.8070  174.7180  138.4290 C   0  0  0  0  0  2  0  0  0  0  0  0
  195.1560  175.8640  136.2590 N   0  0  0  0  0  2  0  0  0  0  0  0
  193.6980  175.9030  136.1370 C   0  0  0  0  0  2  0  0  0  0  0  0
  195.5670  174.7260  137.0920 C   0  0  0  0  0  2  0  0  0  0  0  0
  190.6450  177.2420  144.5850 N   0  0  0  0  0  2  0  0  0  0  0  0
  191.0080  176.1900  145.5330 C   0  0  0  0  0  2  0  0  0  0  0  0
  191.9600  176.7100  146.5010 N   0  0  0  0  0  2  0  0  0  0  0  0
  192.2690  175.6430  147.4450 C   0  0  0  0  0  1  0  0  0  0  0  0
  1  5  2  0  0  0  0
  1  6  1  0  0  0  0
  2 11  1  6  0  0  0
  2  3  1  0  0  0  0
  3 31  1  6  0  0  0
  4  3  1  0  0  0  0
  5  2  1  0  0  0  0
  6  4  1  0  0  0  0
  7  5  1  0  0  0  0
  8 18  1  0  0  0  0
  8  9  1  0  0  0  0
  9 17  2  0  0  0  0
 10 13  2  0  0  0  0
 11 10  1  0  0  0  0
 12 15  1  0  0  0  0
 13 17  1  0  0  0  0
 14 12  1  0  0  0  0
 15 10  1  0  0  0  0
 15  8  2  0  0  0  0
 16 12  2  0  0  0  0
 16 11  1  0  0  0  0
 17 19  1  0  0  0  0
 19 20  1  0  0  0  0
 21 23  1  0  0  0  0
 22 23  2  0  0  0  0
 23  1  1  0  0  0  0
 24 21  1  0  0  0  0
 25 24  1  1  0  0  0
 25 26  1  0  0  0  0
 27 26  1  0  0  0  0
 28 30  1  0  0  0  0
 29 28  1  0  0  0  0
 29 25  1  0  0  0  0
 30 27  1  0  0  0  0
 31 32  1  0  0  0  0
 32 33  1  0  0  0  0
 33 34  1  0  0  0  0
M  END
>  <MODEL>
2

>  <REMARK>
 VINA RESULT:      -8.7      2.346      4.678
  Name = 
  8 active torsions:
  status: ('A' for Active; 'I' for Inactive)
    1  A    between atoms: C_2  and  C_33
    2  A    between atoms: C_3  and  N_20
    3  A    between atoms: N_7  and  N_20
    4  A    between atoms: N_9  and  C_11
    5  A    between atoms: C_10  and  N_13
    6  A    between atoms: C_10  and  N_31
    7  A    between atoms: C_17  and  N_31
    8  A    between atoms: O_19  and  C_29
                            x       y       z     vdW  Elec       q    Type
                         _______ _______ _______ _____ _____    ______ ____

>  <TORSDO>
F 8

$$$$
=
 OpenBabel10222415123D

 34 37  0  0  1  0  0  0  0  0999 V2000
  189.8240  176.8540  141.3130 C   0  0  0  0  0  0  0  0  0  0  0  0
  188.0500  177.7930  142.7380 C   0  0  1  0  0  3  0  0  0  0  0  0
  188.1980  176.5250  143.6130 C   0  0  1  0  0  3  0  0  0  0  0  0
  188.8270  175.4300  142.9770 O   0  0  0  0  0  0  0  0  0  0  0  0
  188.8470  177.7700  141.4500 C   0  0  0  0  0  0  0  0  0  0  0  0
  189.9510  175.8980  142.3660 N   0  0  0  0  0  2  0  0  0  0  0  0
  188.6480  178.8950  140.4830 C   0  0  0  0  0  1  0  0  0  0  0  0
  183.3690  178.9150  143.6240 C   0  0  0  0  0  0  0  0  0  0  0  0
  183.5180  178.9550  145.0230 C   0  0  0  0  0  3  0  0  0  0  0  0
  185.7150  178.3700  143.4340 C   0  0  0  0  0  0  0  0  0  0  0  0
  186.6370  178.0830  142.4940 N   0  0  0  0  0  0  0  0  0  0  0  0
  184.6820  178.4690  141.4980 C   0  0  0  0  0  0  0  0  0  0  0  0
  185.8950  178.4120  144.8190 C   0  0  0  0  0  3  0  0  0  0  0  0
  183.7130  178.6130  140.5130 O   0  0  0  0  0  1  0  0  0  0  0  0
  184.4970  178.6160  142.8560 C   0  0  0  0  0  0  0  0  0  0  0  0
  186.0190  178.1420  141.2880 C   0  0  0  0  0  3  0  0  0  0  0  0
  184.7790  178.7100  145.6270 C   0  0  0  0  0  0  0  0  0  0  0  0
  182.1380  179.1780  143.0390 O   0  0  0  0  0  1  0  0  0  0  0  0
  184.9430  178.7770  147.0120 O   0  0  0  0  0  0  0  0  0  0  0  0
  186.2220  178.7840  147.6360 C   0  0  0  0  0  1  0  0  0  0  0  0
  190.5240  175.9210  139.0510 N   0  0  0  0  0  2  0  0  0  0  0  0
  191.8360  177.4510  140.2130 O   0  0  0  0  0  0  0  0  0  0  0  0
  190.7690  176.7780  140.1710 C   0  0  0  0  0  0  0  0  0  0  0  0
  191.4770  175.7210  138.0400 N   0  0  0  0  0  2  0  0  0  0  0  0
  190.7680  175.7110  136.7700 C   0  0  2  0  0  3  0  0  0  0  0  0
  190.1230  176.9430  136.5680 O   0  0  0  0  0  0  0  0  0  0  0  0
  189.6600  176.9310  135.2380 C   0  0  0  0  0  2  0  0  0  0  0  0
  188.4570  175.0030  136.2280 N   0  0  0  0  0  2  0  0  0  0  0  0
  189.7570  174.5520  136.7290 C   0  0  0  0  0  2  0  0  0  0  0  0
  188.6310  175.8100  135.0130 C   0  0  0  0  0  2  0  0  0  0  0  0
  188.8200  176.8170  144.8990 N   0  0  0  0  0  2  0  0  0  0  0  0
  189.4480  178.1330  144.7920 C   0  0  0  0  0  2  0  0  0  0  0  0
  190.8890  178.0000  144.9280 N   0  0  0  0  0  2  0  0  0  0  0  0
  191.5160  178.8730  143.9420 C   0  0  0  0  0  1  0  0  0  0  0  0
  1  5  2  0  0  0  0
  1  6  1  0  0  0  0
  2 11  1  6  0  0  0
  2  3  1  0  0  0  0
  3 31  1  1  0  0  0
  4  3  1  0  0  0  0
  5  2  1  0  0  0  0
  6  4  1  0  0  0  0
  7  5  1  0  0  0  0
  8  9  1  0  0  0  0
  9 17  2  0  0  0  0
 10 13  2  0  0  0  0
 11 10  1  0  0  0  0
 12 15  1  0  0  0  0
 13 17  1  0  0  0  0
 14 12  1  0  0  0  0
 15 10  1  0  0  0  0
 15  8  2  0  0  0  0
 16 12  2  0  0  0  0
 16 11  1  0  0  0  0
 17 19  1  0  0  0  0
 18  8  1  0  0  0  0
 19 20  1  0  0  0  0
 21 23  1  0  0  0  0
 23 22  2  0  0  0  0
 23  1  1  0  0  0  0
 24 21  1  0  0  0  0
 25 24  1  1  0  0  0
 26 25  1  0  0  0  0
 27 26  1  0  0  0  0
 28 29  1  0  0  0  0
 29 25  1  0  0  0  0
 30 27  1  0  0  0  0
 30 28  1  0  0  0  0
 32 31  1  0  0  0  0
 32 33  1  0  0  0  0
 34 33  1  0  0  0  0
M  END
>  <MODEL>
3

>  <REMARK>
 VINA RESULT:      -8.6      2.051      4.343
  Name = 
  8 active torsions:
  status: ('A' for Active; 'I' for Inactive)
    1  A    between atoms: C_2  and  C_33
    2  A    between atoms: C_3  and  N_20
    3  A    between atoms: N_7  and  N_20
    4  A    between atoms: N_9  and  C_11
    5  A    between atoms: C_10  and  N_13
    6  A    between atoms: C_10  and  N_31
    7  A    between atoms: C_17  and  N_31
    8  A    between atoms: O_19  and  C_29
                            x       y       z     vdW  Elec       q    Type
                         _______ _______ _______ _____ _____    ______ ____

>  <TORSDO>
F 8

$$$$
=
 OpenBabel10222415123D

 34 37  0  0  1  0  0  0  0  0999 V2000
  190.0410  176.7970  141.1200 C   0  0  0  0  0  0  0  0  0  0  0  0
  188.9000  177.8750  143.0170 C   0  0  1  0  0  3  0  0  0  0  0  0
  189.5350  176.7830  143.9110 C   0  0  1  0  0  3  0  0  0  0  0  0
  189.9750  175.6290  143.2230 O   0  0  0  0  0  0  0  0  0  0  0  0
  189.1040  177.6740  141.5300 C   0  0  0  0  0  0  0  0  0  0  0  0
  190.6930  176.0410  142.1420 N   0  0  0  0  0  2  0  0  0  0  0  0
  188.4020  178.6060  140.5940 C   0  0  0  0  0  1  0  0  0  0  0  0
  184.8520  178.4970  145.6980 C   0  0  0  0  0  0  0  0  0  0  0  0
  185.5210  178.4540  146.9360 C   0  0  0  0  0  3  0  0  0  0  0  0
  186.9770  178.1850  144.5910 C   0  0  0  0  0  0  0  0  0  0  0  0
  187.4870  178.0490  143.3500 N   0  0  0  0  0  0  0  0  0  0  0  0
  185.2800  178.3190  143.2020 C   0  0  0  0  0  0  0  0  0  0  0  0
  187.6690  178.1490  145.8040 C   0  0  0  0  0  3  0  0  0  0  0  0
  184.0020  178.4400  142.6710 O   0  0  0  0  0  1  0  0  0  0  0  0
  185.6180  178.3570  144.5380 C   0  0  0  0  0  0  0  0  0  0  0  0
  186.4530  178.1330  142.4750 C   0  0  0  0  0  3  0  0  0  0  0  0
  186.9290  178.2870  146.9970 C   0  0  0  0  0  0  0  0  0  0  0  0
  183.4780  178.6840  145.6460 O   0  0  0  0  0  1  0  0  0  0  0  0
  187.6050  178.2740  148.2190 O   0  0  0  0  0  0  0  0  0  0  0  0
  189.0230  178.1980  148.3130 C   0  0  0  0  0  1  0  0  0  0  0  0
  189.6360  175.8080  138.8110 N   0  0  0  0  0  2  0  0  0  0  0  0
  191.5490  177.0360  139.3100 O   0  0  0  0  0  0  0  0  0  0  0  0
  190.4450  176.5750  139.7100 C   0  0  0  0  0  0  0  0  0  0  0  0
  190.0750  175.4610  137.5240 N   0  0  0  0  0  2  0  0  0  0  0  0
  189.1080  175.9930  136.5760 C   0  0  2  0  0  3  0  0  0  0  0  0
  189.5310  177.2500  136.1120 O   0  0  0  0  0  0  0  0  0  0  0  0
  188.6720  177.5850  135.0480 C   0  0  0  0  0  2  0  0  0  0  0  0
  187.0950  177.3880  136.9500 N   0  0  0  0  0  2  0  0  0  0  0  0
  187.7170  176.0920  137.2260 C   0  0  0  0  0  2  0  0  0  0  0  0
  187.2150  177.7170  135.5240 C   0  0  0  0  0  2  0  0  0  0  0  0
  190.5860  177.3200  144.7680 N   0  0  0  0  0  2  0  0  0  0  0  0
  190.9340  176.2810  145.7370 C   0  0  0  0  0  2  0  0  0  0  0  0
  191.9330  176.7890  146.6620 N   0  0  0  0  0  2  0  0  0  0  0  0
  192.2890  175.7100  147.5750 C   0  0  0  0  0  1  0  0  0  0  0  0
  1  5  2  0  0  0  0
  1  6  1  0  0  0  0
  2 11  1  6  0  0  0
  2  3  1  0  0  0  0
  3 31  1  6  0  0  0
  4  3  1  0  0  0  0
  5  2  1  0  0  0  0
  6  4  1  0  0  0  0
  7  5  1  0  0  0  0
  8  9  1  0  0  0  0
  9 17  2  0  0  0  0
 10 13  2  0  0  0  0
 11 10  1  0  0  0  0
 12 15  1  0  0  0  0
 13 17  1  0  0  0  0
 14 12  1  0  0  0  0
 15 10  1  0  0  0  0
 15  8  2  0  0  0  0
 16 12  2  0  0  0  0
 16 11  1  0  0  0  0
 17 19  1  0  0  0  0
 18  8  1  0  0  0  0
 19 20  1  0  0  0  0
 21 23  1  0  0  0  0
 22 23  2  0  0  0  0
 23  1  1  0  0  0  0
 24 21  1  0  0  0  0
 25 29  1  0  0  0  0
 25 24  1  1  0  0  0
 26 25  1  0  0  0  0
 27 30  1  0  0  0  0
 27 26  1  0  0  0  0
 28 29  1  0  0  0  0
 30 28  1  0  0  0  0
 31 32  1  0  0  0  0
 32 33  1  0  0  0  0
 33 34  1  0  0  0  0
M  END
>  <MODEL>
4

>  <REMARK>
 VINA RESULT:      -8.5      2.380      4.738
  Name = 
  8 active torsions:
  status: ('A' for Active; 'I' for Inactive)
    1  A    between atoms: C_2  and  C_33
    2  A    between atoms: C_3  and  N_20
    3  A    between atoms: N_7  and  N_20
    4  A    between atoms: N_9  and  C_11
    5  A    between atoms: C_10  and  N_13
    6  A    between atoms: C_10  and  N_31
    7  A    between atoms: C_17  and  N_31
    8  A    between atoms: O_19  and  C_29
                            x       y       z     vdW  Elec       q    Type
                         _______ _______ _______ _____ _____    ______ ____

>  <TORSDO>
F 8

$$$$
=
 OpenBabel10222415123D

 34 37  0  0  1  0  0  0  0  0999 V2000
  188.0360  178.2410  140.1190 C   0  0  0  0  0  0  0  0  0  0  0  0
  187.6610  177.4820  142.4320 C   0  0  1  0  0  3  0  0  0  0  0  0
  186.5180  178.5240  142.4990 C   0  0  1  0  0  3  0  0  0  0  0  0
  186.5850  179.5470  141.5250 O   0  0  0  0  0  0  0  0  0  0  0  0
  188.5040  177.5470  141.1750 C   0  0  0  0  0  0  0  0  0  0  0  0
  186.8160  178.9570  140.3200 N   0  0  0  0  0  2  0  0  0  0  0  0
  189.7140  176.6710  141.0960 C   0  0  0  0  0  1  0  0  0  0  0  0
  188.8650  177.9200  147.1560 C   0  0  0  0  0  0  0  0  0  0  0  0
  187.5460  178.1450  147.5940 C   0  0  0  0  0  3  0  0  0  0  0  0
  188.0330  177.7400  144.8950 C   0  0  0  0  0  0  0  0  0  0  0  0
  188.4840  177.5500  143.6380 N   0  0  0  0  0  0  0  0  0  0  0  0
  190.2130  177.5140  145.0440 C   0  0  0  0  0  0  0  0  0  0  0  0
  186.7140  177.9510  145.3020 C   0  0  0  0  0  3  0  0  0  0  0  0
  191.5120  177.4340  145.5300 O   0  0  0  0  0  1  0  0  0  0  0  0
  189.0720  177.7210  145.7890 C   0  0  0  0  0  0  0  0  0  0  0  0
  189.8320  177.4040  143.7090 C   0  0  0  0  0  3  0  0  0  0  0  0
  186.4650  178.1560  146.6750 C   0  0  0  0  0  0  0  0  0  0  0  0
  189.9140  177.8880  148.0640 O   0  0  0  0  0  1  0  0  0  0  0  0
  185.1510  178.3480  147.1050 O   0  0  0  0  0  0  0  0  0  0  0  0
  184.0800  178.6230  146.2090 C   0  0  0  0  0  1  0  0  0  0  0  0
  188.9080  177.1190  138.0090 N   0  0  0  0  0  2  0  0  0  0  0  0
  189.0710  179.4160  138.3420 O   0  0  0  0  0  0  0  0  0  0  0  0
  188.6780  178.3010  138.7830 C   0  0  0  0  0  0  0  0  0  0  0  0
  189.6500  177.1390  136.8180 N   0  0  0  0  0  2  0  0  0  0  0  0
  190.9270  176.4970  137.0890 C   0  0  2  0  0  3  0  0  0  0  0  0
  191.5180  176.0740  135.8860 O   0  0  0  0  0  0  0  0  0  0  0  0
  192.8290  175.6770  136.2120 C   0  0  0  0  0  2  0  0  0  0  0  0
  191.4600  174.1280  137.5790 N   0  0  0  0  0  2  0  0  0  0  0  0
  190.7380  175.3110  138.0510 C   0  0  0  0  0  2  0  0  0  0  0  0
  192.8290  174.4880  137.1890 C   0  0  0  0  0  2  0  0  0  0  0  0
  185.2040  177.8940  142.5140 N   0  0  0  0  0  2  0  0  0  0  0  0
  184.2090  178.9580  142.6430 C   0  0  0  0  0  2  0  0  0  0  0  0
  183.0190  178.6120  141.8830 N   0  0  0  0  0  2  0  0  0  0  0  0
  183.4390  177.8410  140.7190 C   0  0  0  0  0  1  0  0  0  0  0  0
  1  6  1  0  0  0  0
  1  5  2  0  0  0  0
  2  3  1  0  0  0  0
  2 11  1  1  0  0  0
  3 31  1  6  0  0  0
  4  3  1  0  0  0  0
  5  2  1  0  0  0  0
  6  4  1  0  0  0  0
  7  5  1  0  0  0  0
  8  9  1  0  0  0  0
  8 18  1  0  0  0  0
 10 13  2  0  0  0  0
 10 15  1  0  0  0  0
 11 16  1  0  0  0  0
 11 10  1  0  0  0  0
 12 14  1  0  0  0  0
 12 15  1  0  0  0  0
 13 17  1  0  0  0  0
 15  8  2  0  0  0  0
 16 12  2  0  0  0  0
 17 19  1  0  0  0  0
 17  9  2  0  0  0  0
 20 19  1  0  0  0  0
 21 23  1  0  0  0  0
 22 23  2  0  0  0  0
 23  1  1  0  0  0  0
 24 21  1  0  0  0  0
 25 24  1  6  0  0  0
 25 29  1  0  0  0  0
 26 27  1  0  0  0  0
 26 25  1  0  0  0  0
 27 30  1  0  0  0  0
 28 29  1  0  0  0  0
 30 28  1  0  0  0  0
 31 32  1  0  0  0  0
 33 32  1  0  0  0  0
 34 33  1  0  0  0  0
M  END
>  <MODEL>
5

>  <REMARK>
 VINA RESULT:      -8.0      1.746      2.122
  Name = 
  8 active torsions:
  status: ('A' for Active; 'I' for Inactive)
    1  A    between atoms: C_2  and  C_33
    2  A    between atoms: C_3  and  N_20
    3  A    between atoms: N_7  and  N_20
    4  A    between atoms: N_9  and  C_11
    5  A    between atoms: C_10  and  N_13
    6  A    between atoms: C_10  and  N_31
    7  A    between atoms: C_17  and  N_31
    8  A    between atoms: O_19  and  C_29
                            x       y       z     vdW  Elec       q    Type
                         _______ _______ _______ _____ _____    ______ ____

>  <TORSDO>
F 8

$$$$
=
 OpenBabel10222415123D

 34 37  0  0  1  0  0  0  0  0999 V2000
  190.0310  177.0120  141.0300 C   0  0  0  0  0  0  0  0  0  0  0  0
  188.9050  177.7970  143.0740 C   0  0  1  0  0  3  0  0  0  0  0  0
  189.4680  176.5330  143.7680 C   0  0  1  0  0  3  0  0  0  0  0  0
  189.8650  175.4970  142.8920 O   0  0  0  0  0  0  0  0  0  0  0  0
  189.1300  177.8500  141.5770 C   0  0  0  0  0  0  0  0  0  0  0  0
  190.6250  176.0560  141.9090 N   0  0  0  0  0  2  0  0  0  0  0  0
  188.4940  178.9680  140.8120 C   0  0  0  0  0  1  0  0  0  0  0  0
  184.8890  178.5390  145.7710 C   0  0  0  0  0  0  0  0  0  0  0  0
  185.5730  178.5640  147.0000 C   0  0  0  0  0  3  0  0  0  0  0  0
  187.0000  178.1800  144.6540 C   0  0  0  0  0  0  0  0  0  0  0  0
  187.4960  177.9820  143.4160 N   0  0  0  0  0  0  0  0  0  0  0  0
  185.2860  178.2350  143.2820 C   0  0  0  0  0  0  0  0  0  0  0  0
  187.7080  178.2090  145.8580 C   0  0  0  0  0  3  0  0  0  0  0  0
  184.0010  178.3230  142.7620 O   0  0  0  0  0  1  0  0  0  0  0  0
  185.6400  178.3430  144.6100 C   0  0  0  0  0  0  0  0  0  0  0  0
  186.4500  178.0170  142.5510 C   0  0  0  0  0  3  0  0  0  0  0  0
  186.9830  178.4060  147.0520 C   0  0  0  0  0  0  0  0  0  0  0  0
  183.5130  178.7180  145.7260 O   0  0  0  0  0  1  0  0  0  0  0  0
  187.6740  178.4580  148.2640 O   0  0  0  0  0  0  0  0  0  0  0  0
  189.0510  178.1210  148.3800 C   0  0  0  0  0  1  0  0  0  0  0  0
  189.5000  177.1240  138.5440 N   0  0  0  0  0  2  0  0  0  0  0  0
  191.6780  176.8910  139.3310 O   0  0  0  0  0  0  0  0  0  0  0  0
  190.4530  177.0220  139.6080 C   0  0  0  0  0  0  0  0  0  0  0  0
  189.8660  176.9810  137.1970 N   0  0  0  0  0  2  0  0  0  0  0  0
  189.2000  175.7910  136.6890 C   0  0  2  0  0  3  0  0  0  0  0  0
  188.0760  175.4950  137.4790 O   0  0  0  0  0  0  0  0  0  0  0  0
  187.3720  174.4840  136.7960 C   0  0  0  0  0  2  0  0  0  0  0  0
  189.5590  173.3990  137.2240 N   0  0  0  0  0  2  0  0  0  0  0  0
  190.1750  174.6010  136.6580 C   0  0  0  0  0  2  0  0  0  0  0  0
  188.2150  173.2040  136.6640 C   0  0  0  0  0  2  0  0  0  0  0  0
  190.5250  176.8560  144.7180 N   0  0  0  0  0  2  0  0  0  0  0  0
  191.5940  175.8750  144.5340 C   0  0  0  0  0  2  0  0  0  0  0  0
  191.9540  175.2950  145.8170 N   0  0  0  0  0  2  0  0  0  0  0  0
  191.7460  176.3100  146.8430 C   0  0  0  0  0  1  0  0  0  0  0  0
  1  5  2  0  0  0  0
  1  6  1  0  0  0  0
  2 11  1  6  0  0  0
  2  3  1  0  0  0  0
  3 31  1  6  0  0  0
  4  3  1  0  0  0  0
  5  2  1  0  0  0  0
  6  4  1  0  0  0  0
  7  5  1  0  0  0  0
  8  9  1  0  0  0  0
  9 17  2  0  0  0  0
 10 13  2  0  0  0  0
 11 10  1  0  0  0  0
 12 15  1  0  0  0  0
 13 17  1  0  0  0  0
 14 12  1  0  0  0  0
 15 10  1  0  0  0  0
 15  8  2  0  0  0  0
 16 12  2  0  0  0  0
 16 11  1  0  0  0  0
 17 19  1  0  0  0  0
 18  8  1  0  0  0  0
 19 20  1  0  0  0  0
 21 23  1  0  0  0  0
 22 23  2  0  0  0  0
 23  1  1  0  0  0  0
 24 21  1  0  0  0  0
 25 24  1  1  0  0  0
 25 26  1  0  0  0  0
 27 26  1  0  0  0  0
 29 25  1  0  0  0  0
 29 28  1  0  0  0  0
 30 27  1  0  0  0  0
 30 28  1  0  0  0  0
 32 31  1  0  0  0  0
 32 33  1  0  0  0  0
 33 34  1  0  0  0  0
M  END
>  <MODEL>
6

>  <REMARK>
 VINA RESULT:      -7.9      1.980      4.327
  Name = 
  8 active torsions:
  status: ('A' for Active; 'I' for Inactive)
    1  A    between atoms: C_2  and  C_33
    2  A    between atoms: C_3  and  N_20
    3  A    between atoms: N_7  and  N_20
    4  A    between atoms: N_9  and  C_11
    5  A    between atoms: C_10  and  N_13
    6  A    between atoms: C_10  and  N_31
    7  A    between atoms: C_17  and  N_31
    8  A    between atoms: O_19  and  C_29
                            x       y       z     vdW  Elec       q    Type
                         _______ _______ _______ _____ _____    ______ ____

>  <TORSDO>
F 8

$$$$
=
 OpenBabel10222415123D

 34 37  0  0  1  0  0  0  0  0999 V2000
  191.5980  177.3290  141.3210 C   0  0  0  0  0  0  0  0  0  0  0  0
  190.6040  176.5450  139.2100 C   0  0  1  0  0  3  0  0  0  0  0  0
  192.0200  176.6700  138.5950 C   0  0  1  0  0  3  0  0  0  0  0  0
  192.9110  177.5000  139.3120 O   0  0  0  0  0  0  0  0  0  0  0  0
  190.4750  177.0880  140.6180 C   0  0  0  0  0  0  0  0  0  0  0  0
  192.8330  177.1520  140.6270 N   0  0  0  0  0  2  0  0  0  0  0  0
  189.1100  177.1350  141.2290 C   0  0  0  0  0  1  0  0  0  0  0  0
  187.0720  176.8320  135.8330 C   0  0  0  0  0  0  0  0  0  0  0  0
  187.0490  175.4500  135.5670 C   0  0  0  0  0  3  0  0  0  0  0  0
  188.8140  176.4430  137.4600 C   0  0  0  0  0  0  0  0  0  0  0  0
  189.6050  177.1260  138.3130 N   0  0  0  0  0  0  0  0  0  0  0  0
  188.2700  178.5610  137.2550 C   0  0  0  0  0  0  0  0  0  0  0  0
  188.8070  175.0660  137.2250 C   0  0  0  0  0  3  0  0  0  0  0  0
  187.6720  179.7480  136.8480 O   0  0  0  0  0  1  0  0  0  0  0  0
  187.9750  177.2960  136.7920 C   0  0  0  0  0  0  0  0  0  0  0  0
  189.2810  178.4390  138.2040 C   0  0  0  0  0  3  0  0  0  0  0  0
  187.9080  174.5610  136.2630 C   0  0  0  0  0  0  0  0  0  0  0  0
  186.2120  177.6930  135.1650 O   0  0  0  0  0  1  0  0  0  0  0  0
  187.8710  173.1850  136.0270 O   0  0  0  0  0  0  0  0  0  0  0  0
  188.7400  172.5380  135.1050 C   0  0  0  0  0  1  0  0  0  0  0  0
  191.6090  176.7840  143.8070 N   0  0  0  0  0  2  0  0  0  0  0  0
  191.6620  178.9750  143.0240 O   0  0  0  0  0  0  0  0  0  0  0  0
  191.6410  177.7440  142.7450 C   0  0  0  0  0  0  0  0  0  0  0  0
  191.4940  177.1630  145.1530 N   0  0  0  0  0  2  0  0  0  0  0  0
  190.0990  177.0020  145.5340 C   0  0  2  0  0  3  0  0  0  0  0  0
  189.3630  178.1380  145.1560 O   0  0  0  0  0  0  0  0  0  0  0  0
  188.0070  177.8100  145.3510 C   0  0  0  0  0  2  0  0  0  0  0  0
  188.9330  177.5870  147.6400 N   0  0  0  0  0  2  0  0  0  0  0  0
  189.9810  176.7530  147.0470 C   0  0  0  0  0  2  0  0  0  0  0  0
  187.7080  177.5170  146.8310 C   0  0  0  0  0  2  0  0  0  0  0  0
  192.6140  175.3670  138.3230 N   0  0  0  0  0  2  0  0  0  0  0  0
  193.5980  175.5490  137.2560 C   0  0  0  0  0  2  0  0  0  0  0  0
  194.9290  175.2570  137.7620 N   0  0  0  0  0  2  0  0  0  0  0  0
  194.9060  173.9180  138.3380 C   0  0  0  0  0  1  0  0  0  0  0  0
  1 23  1  0  0  0  0
  2 11  1  6  0  0  0
  2  5  1  0  0  0  0
  3 31  1  1  0  0  0
  3  2  1  0  0  0  0
  3  4  1  0  0  0  0
  4  6  1  0  0  0  0
  5  7  1  0  0  0  0
  5  1  2  0  0  0  0
  6  1  1  0  0  0  0
  8 15  1  0  0  0  0
  9  8  2  0  0  0  0
  9 17  1  0  0  0  0
 10 11  1  0  0  0  0
 12 16  2  0  0  0  0
 13 10  1  0  0  0  0
 14 12  1  0  0  0  0
 15 12  1  0  0  0  0
 15 10  2  0  0  0  0
 16 11  1  0  0  0  0
 17 13  2  0  0  0  0
 18  8  1  0  0  0  0
 19 17  1  0  0  0  0
 20 19  1  0  0  0  0
 21 24  1  0  0  0  0
 23 22  2  0  0  0  0
 23 21  1  0  0  0  0
 25 24  1  1  0  0  0
 25 29  1  0  0  0  0
 26 27  1  0  0  0  0
 26 25  1  0  0  0  0
 27 30  1  0  0  0  0
 29 28  1  0  0  0  0
 30 28  1  0  0  0  0
 32 33  1  0  0  0  0
 32 31  1  0  0  0  0
 33 34  1  0  0  0  0
M  END
>  <MODEL>
7

>  <REMARK>
 VINA RESULT:      -7.8      2.907      9.127
  Name = 
  8 active torsions:
  status: ('A' for Active; 'I' for Inactive)
    1  A    between atoms: C_2  and  C_33
    2  A    between atoms: C_3  and  N_20
    3  A    between atoms: N_7  and  N_20
    4  A    between atoms: N_9  and  C_11
    5  A    between atoms: C_10  and  N_13
    6  A    between atoms: C_10  and  N_31
    7  A    between atoms: C_17  and  N_31
    8  A    between atoms: O_19  and  C_29
                            x       y       z     vdW  Elec       q    Type
                         _______ _______ _______ _____ _____    ______ ____

>  <TORSDO>
F 8

$$$$
=
 OpenBabel10222415123D

 34 37  0  0  1  0  0  0  0  0999 V2000
  189.1270  177.1580  141.4560 C   0  0  0  0  0  0  0  0  0  0  0  0
  190.5720  177.5280  139.4970 C   0  0  1  0  0  3  0  0  0  0  0  0
  189.2700  177.6890  138.6740 C   0  0  1  0  0  3  0  0  0  0  0  0
  188.1120  177.1440  139.2750 O   0  0  0  0  0  0  0  0  0  0  0  0
  190.3640  177.0780  140.9290 C   0  0  0  0  0  0  0  0  0  0  0  0
  188.0830  177.5640  140.5700 N   0  0  0  0  0  2  0  0  0  0  0  0
  191.5750  176.7620  141.7470 C   0  0  0  0  0  1  0  0  0  0  0  0
  192.2660  173.9200  136.6560 C   0  0  0  0  0  0  0  0  0  0  0  0
  190.9970  173.3800  136.3790 C   0  0  0  0  0  3  0  0  0  0  0  0
  191.2000  175.6120  138.0110 C   0  0  0  0  0  0  0  0  0  0  0  0
  191.5180  176.6650  138.7920 N   0  0  0  0  0  0  0  0  0  0  0  0
  193.3900  175.7810  137.9670 C   0  0  0  0  0  0  0  0  0  0  0  0
  189.9260  175.1040  137.7460 C   0  0  0  0  0  3  0  0  0  0  0  0
  194.7360  175.5610  137.7040 O   0  0  0  0  0  1  0  0  0  0  0  0
  192.3300  175.0440  137.4830 C   0  0  0  0  0  0  0  0  0  0  0  0
  192.8700  176.7890  138.7740 C   0  0  0  0  0  3  0  0  0  0  0  0
  189.8220  173.9700  136.9150 C   0  0  0  0  0  0  0  0  0  0  0  0
  193.4090  173.3520  136.1090 O   0  0  0  0  0  1  0  0  0  0  0  0
  188.5560  173.4580  136.6210 O   0  0  0  0  0  0  0  0  0  0  0  0
  187.8220  173.8390  135.4630 C   0  0  0  0  0  1  0  0  0  0  0  0
  188.6440  177.9240  143.8340 N   0  0  0  0  0  2  0  0  0  0  0  0
  188.6530  175.6740  143.2410 O   0  0  0  0  0  0  0  0  0  0  0  0
  188.7820  176.8740  142.8710 C   0  0  0  0  0  0  0  0  0  0  0  0
  188.4710  177.6650  145.2030 N   0  0  0  0  0  2  0  0  0  0  0  0
  187.0400  177.6540  145.4660 C   0  0  2  0  0  3  0  0  0  0  0  0
  186.3780  178.5030  144.5630 O   0  0  0  0  0  0  0  0  0  0  0  0
  185.0010  178.2630  144.7360 C   0  0  0  0  0  2  0  0  0  0  0  0
  185.6780  179.0620  146.9830 N   0  0  0  0  0  2  0  0  0  0  0  0
  186.7590  178.0770  146.9190 C   0  0  0  0  0  2  0  0  0  0  0  0
  184.5420  178.6270  146.1580 C   0  0  0  0  0  2  0  0  0  0  0  0
  189.0530  179.0690  138.2600 N   0  0  0  0  0  2  0  0  0  0  0  0
  188.6980  179.0500  136.8420 C   0  0  0  0  0  2  0  0  0  0  0  0
  187.2530  178.9980  136.6980 N   0  0  0  0  0  2  0  0  0  0  0  0
  186.9280  177.8760  135.8250 C   0  0  0  0  0  1  0  0  0  0  0  0
  1 23  1  0  0  0  0
  2 11  1  6  0  0  0
  2  5  1  0  0  0  0
  3 31  1  1  0  0  0
  3  4  1  0  0  0  0
  3  2  1  0  0  0  0
  4  6  1  0  0  0  0
  5  1  2  0  0  0  0
  5  7  1  0  0  0  0
  6  1  1  0  0  0  0
  8 15  1  0  0  0  0
  9  8  2  0  0  0  0
  9 17  1  0  0  0  0
 10 11  1  0  0  0  0
 12 16  2  0  0  0  0
 13 10  1  0  0  0  0
 14 12  1  0  0  0  0
 15 12  1  0  0  0  0
 15 10  2  0  0  0  0
 16 11  1  0  0  0  0
 17 13  2  0  0  0  0
 18  8  1  0  0  0  0
 19 17  1  0  0  0  0
 20 19  1  0  0  0  0
 21 24  1  0  0  0  0
 23 22  2  0  0  0  0
 23 21  1  0  0  0  0
 25 24  1  6  0  0  0
 25 29  1  0  0  0  0
 26 27  1  0  0  0  0
 26 25  1  0  0  0  0
 27 30  1  0  0  0  0
 29 28  1  0  0  0  0
 30 28  1  0  0  0  0
 32 31  1  0  0  0  0
 33 32  1  0  0  0  0
 34 33  1  0  0  0  0
M  END
>  <MODEL>
8

>  <REMARK>
 VINA RESULT:      -7.5      2.410      8.801
  Name = 
  8 active torsions:
  status: ('A' for Active; 'I' for Inactive)
    1  A    between atoms: C_2  and  C_33
    2  A    between atoms: C_3  and  N_20
    3  A    between atoms: N_7  and  N_20
    4  A    between atoms: N_9  and  C_11
    5  A    between atoms: C_10  and  N_13
    6  A    between atoms: C_10  and  N_31
    7  A    between atoms: C_17  and  N_31
    8  A    between atoms: O_19  and  C_29
                            x       y       z     vdW  Elec       q    Type
                         _______ _______ _______ _____ _____    ______ ____

>  <TORSDO>
F 8

$$$$
=
 OpenBabel10222415123D

 34 37  0  0  1  0  0  0  0  0999 V2000
  188.9300  177.3080  141.3300 C   0  0  0  0  0  0  0  0  0  0  0  0
  190.4830  177.5790  139.4390 C   0  0  1  0  0  3  0  0  0  0  0  0
  189.2310  177.7230  138.5400 C   0  0  1  0  0  3  0  0  0  0  0  0
  188.0340  177.2180  139.0990 O   0  0  0  0  0  0  0  0  0  0  0  0
  190.1920  177.1910  140.8740 C   0  0  0  0  0  0  0  0  0  0  0  0
  187.9410  177.6900  140.3730 N   0  0  0  0  0  2  0  0  0  0  0  0
  191.3530  176.8940  141.7690 C   0  0  0  0  0  1  0  0  0  0  0  0
  192.2780  173.8820  136.7820 C   0  0  0  0  0  0  0  0  0  0  0  0
  191.0170  173.3790  136.4100 C   0  0  0  0  0  3  0  0  0  0  0  0
  191.1640  175.6250  138.0290 C   0  0  0  0  0  0  0  0  0  0  0  0
  191.4540  176.6770  138.8220 N   0  0  0  0  0  0  0  0  0  0  0  0
  193.3550  175.7220  138.1600 C   0  0  0  0  0  0  0  0  0  0  0  0
  189.8990  175.1560  137.6670 C   0  0  0  0  0  3  0  0  0  0  0  0
  194.7100  175.4540  138.0080 O   0  0  0  0  0  1  0  0  0  0  0  0
  192.3130  175.0140  137.6000 C   0  0  0  0  0  0  0  0  0  0  0  0
  192.8060  176.7560  138.9120 C   0  0  0  0  0  3  0  0  0  0  0  0
  189.8240  174.0140  136.8430 C   0  0  0  0  0  0  0  0  0  0  0  0
  193.4410  173.2690  136.3360 O   0  0  0  0  0  1  0  0  0  0  0  0
  188.5690  173.5410  136.4530 O   0  0  0  0  0  0  0  0  0  0  0  0
  187.3570  174.2020  136.7960 C   0  0  0  0  0  1  0  0  0  0  0  0
  188.6180  178.1150  143.7230 N   0  0  0  0  0  2  0  0  0  0  0  0
  188.0770  175.9480  143.0720 O   0  0  0  0  0  0  0  0  0  0  0  0
  188.5050  177.0860  142.7340 C   0  0  0  0  0  0  0  0  0  0  0  0
  188.3660  177.8760  145.0830 N   0  0  0  0  0  2  0  0  0  0  0  0
  189.6530  177.7300  145.7450 C   0  0  2  0  0  3  0  0  0  0  0  0
  190.3820  176.6820  145.1560 O   0  0  0  0  0  0  0  0  0  0  0  0
  191.6810  176.7560  145.6940 C   0  0  0  0  0  2  0  0  0  0  0  0
  190.2990  176.3750  147.7160 N   0  0  0  0  0  2  0  0  0  0  0  0
  189.4570  177.4790  147.2500 C   0  0  0  0  0  2  0  0  0  0  0  0
  191.6710  176.5340  147.2160 C   0  0  0  0  0  2  0  0  0  0  0  0
  189.0560  179.0880  138.0610 N   0  0  0  0  0  2  0  0  0  0  0  0
  188.6360  179.0100  136.6620 C   0  0  0  0  0  2  0  0  0  0  0  0
  187.1860  179.0660  136.5820 N   0  0  0  0  0  2  0  0  0  0  0  0
  186.7330  177.9000  135.8330 C   0  0  0  0  0  1  0  0  0  0  0  0
  1 23  1  0  0  0  0
  2 11  1  6  0  0  0
  2  5  1  0  0  0  0
  3 31  1  1  0  0  0
  3  4  1  0  0  0  0
  3  2  1  0  0  0  0
  4  6  1  0  0  0  0
  5  1  2  0  0  0  0
  5  7  1  0  0  0  0
  6  1  1  0  0  0  0
  8 15  1  0  0  0  0
  9  8  2  0  0  0  0
  9 17  1  0  0  0  0
 10 11  1  0  0  0  0
 11 16  1  0  0  0  0
 12 16  2  0  0  0  0
 13 10  1  0  0  0  0
 14 12  1  0  0  0  0
 15 10  2  0  0  0  0
 15 12  1  0  0  0  0
 17 13  2  0  0  0  0
 18  8  1  0  0  0  0
 19 20  1  0  0  0  0
 19 17  1  0  0  0  0
 21 24  1  0  0  0  0
 23 22  2  0  0  0  0
 23 21  1  0  0  0  0
 25 24  1  6  0  0  0
 25 29  1  0  0  0  0
 26 27  1  0  0  0  0
 26 25  1  0  0  0  0
 27 30  1  0  0  0  0
 29 28  1  0  0  0  0
 30 28  1  0  0  0  0
 32 31  1  0  0  0  0
 33 32  1  0  0  0  0
 34 33  1  0  0  0  0
M  END
>  <MODEL>
9

>  <REMARK>
 VINA RESULT:      -7.5      2.889      8.505
  Name = 
  8 active torsions:
  status: ('A' for Active; 'I' for Inactive)
    1  A    between atoms: C_2  and  C_33
    2  A    between atoms: C_3  and  N_20
    3  A    between atoms: N_7  and  N_20
    4  A    between atoms: N_9  and  C_11
    5  A    between atoms: C_10  and  N_13
    6  A    between atoms: C_10  and  N_31
    7  A    between atoms: C_17  and  N_31
    8  A    between atoms: O_19  and  C_29
                            x       y       z     vdW  Elec       q    Type
                         _______ _______ _______ _____ _____    ______ ____

>  <TORSDO>
F 8

$$$$
