=
 OpenBabel10222418543D

 43 47  0  0  1  0  0  0  0  0999 V2000
  189.7260  177.3770  140.9280 C   0  0  0  0  0  0  0  0  0  0  0  0
  190.9570  177.0300  140.2800 N   0  0  0  0  0  0  0  0  0  0  0  0
  189.6000  177.2320  142.3170 C   0  0  0  0  0  0  0  0  0  0  0  0
  187.8510  178.4450  138.0180 O   0  0  0  0  0  0  0  0  0  0  0  0
  191.3890  178.0470  144.8340 O   0  0  0  0  0  1  0  0  0  0  0  0
  189.1030  176.7190  146.4910 N   0  0  0  0  0  2  0  0  0  0  0  0
  190.6750  176.8900  144.5160 C   0  0  1  0  0  3  0  0  0  0  0  0
  187.4490  178.2200  140.8200 C   0  0  0  0  0  3  0  0  0  0  0  0
  189.2840  176.9840  145.1000 C   0  0  0  0  0  0  0  0  0  0  0  0
  190.0710  177.5860  138.0460 C   0  0  0  0  0  2  0  0  0  0  0  0
  190.6510  176.7260  143.0930 O   0  0  0  0  0  0  0  0  0  0  0  0
  188.2720  177.3430  144.3610 N   0  0  0  0  0  0  0  0  0  0  0  0
  188.4020  177.5740  142.9530 C   0  0  0  0  0  0  0  0  0  0  0  0
  188.6460  177.8710  140.1780 C   0  0  0  0  0  0  0  0  0  0  0  0
  187.3250  178.0680  142.2080 C   0  0  0  0  0  3  0  0  0  0  0  0
  188.7960  178.0010  138.7220 C   0  0  0  0  0  0  0  0  0  0  0  0
  191.1470  177.1160  138.9910 C   0  0  0  0  0  0  0  0  0  0  0  0
  192.5540  176.0500  137.2840 C   0  0  0  0  0  3  0  0  0  0  0  0
  192.4460  176.7510  138.4090 C   0  0  0  0  0  3  0  0  0  0  0  0
  195.0450  174.6310  135.1790 C   0  0  0  0  0  2  0  0  0  0  0  0
  194.7310  174.5350  137.8320 S   0  0  0  0  0  0  0  0  0  0  0  0
  195.2200  172.4510  136.2380 N   0  0  0  0  0  1  0  0  0  0  0  0
  193.7760  175.1440  135.4700 O   0  0  0  0  0  0  0  0  0  0  0  0
  193.8980  175.7120  136.7410 C   0  0  1  0  0  3  0  0  0  0  0  0
  195.5540  173.8550  136.3730 C   0  0  1  0  0  0  0  0  0  0  0  0
  197.9790  172.8270  137.5130 O   0  0  0  0  0  1  0  0  0  0  0  0
  197.9830  173.9340  135.1450 O   0  0  0  0  0  0  0  0  0  0  0  0
  197.3540  174.0470  136.5160 P   0  0  0  0  0  0  0  0  0  0  0  0
  197.7100  175.5670  137.1770 O   0  0  0  0  0  1  0  0  0  0  0  0
  187.8210  176.8630  147.1730 C   0  0  0  0  0  2  0  0  0  0  0  0
  187.3640  178.3130  147.1440 C   0  0  2  0  0  3  0  0  0  0  0  0
  187.8510  178.9740  148.2750 O   0  0  0  0  0  1  0  0  0  0  0  0
  185.1750  178.8790  146.0060 C   0  0  0  0  0  0  0  0  0  0  0  0
  184.7130  179.7230  143.9850 C   0  0  0  0  0  2  0  0  0  0  0  0
  185.7440  179.3220  144.9330 N   0  0  0  0  0  0  0  0  0  0  0  0
  183.3920  179.4560  144.7280 C   0  0  2  0  0  3  0  0  0  0  0  0
  183.7990  178.9110  145.9730 O   0  0  0  0  0  0  0  0  0  0  0  0
  185.9070  178.3800  147.1300 N   0  0  0  0  0  2  0  0  0  0  0  0
  182.4910  178.4730  143.9760 C   0  0  0  0  0  2  0  0  0  0  0  0
  181.0190  178.8930  144.0030 C   0  0  0  0  0  2  0  0  0  0  0  0
  180.1150  180.5460  142.5090 O   0  0  0  0  0  1  0  0  0  0  0  0
  181.5200  178.8910  141.5300 C   0  0  0  0  0  1  0  0  0  0  0  0
  180.4910  179.2060  142.6010 C   0  0  1  0  0  3  0  0  0  0  0  0
  1  3  1  0  0  0  0
  2  1  1  0  0  0  0
  3 13  2  0  0  0  0
  3 11  1  0  0  0  0
  4 16  2  0  0  0  0
  6 30  1  0  0  0  0
  7  5  1  6  0  0  0
  7  9  1  0  0  0  0
  8 15  2  0  0  0  0
  9  6  1  0  0  0  0
 10 16  1  0  0  0  0
 10 17  1  0  0  0  0
 11  7  1  0  0  0  0
 12  9  2  0  0  0  0
 13 12  1  0  0  0  0
 14  8  1  0  0  0  0
 14  1  2  0  0  0  0
 15 13  1  0  0  0  0
 16 14  1  0  0  0  0
 17  2  2  0  0  0  0
 18 19  2  0  0  0  0
 19 17  1  0  0  0  0
 20 23  1  0  0  0  0
 20 25  1  0  0  0  0
 23 24  1  0  0  0  0
 24 18  1  1  0  0  0
 24 21  1  0  0  0  0
 25 22  1  6  0  0  0
 25 28  1  0  0  0  0
 25 21  1  0  0  0  0
 27 28  2  0  0  0  0
 28 29  1  0  0  0  0
 28 26  1  0  0  0  0
 31 30  1  0  0  0  0
 31 32  1  1  0  0  0
 33 38  1  0  0  0  0
 34 36  1  0  0  0  0
 34 35  1  0  0  0  0
 35 33  2  0  0  0  0
 36 39  1  6  0  0  0
 36 37  1  0  0  0  0
 37 33  1  0  0  0  0
 38 31  1  0  0  0  0
 39 40  1  0  0  0  0
 41 43  1  0  0  0  0
 43 42  1  6  0  0  0
 43 40  1  0  0  0  0
M  END
>  <MODEL>
1

>  <REMARK>
 VINA RESULT:      -9.0      0.000      0.000
  Name = 
  9 active torsions:
  status: ('A' for Active; 'I' for Inactive)
    1  A    between atoms: C_1  and  C_34
    2  A    between atoms: C_2  and  C_8
    3  A    between atoms: C_2  and  N_36
    4  A    between atoms: C_8  and  N_18
    5  A    between atoms: C_21  and  C_23
    6  A    between atoms: C_23  and  C_24
    7  A    between atoms: C_24  and  C_31
    8  A    between atoms: P_25  and  C_43
    9  A    between atoms: C_41  and  C_42
                            x       y       z     vdW  Elec       q    Type
                         _______ _______ _______ _____ _____    ______ ____

>  <TORSDO>
F 9

$$$$
=
 OpenBabel10222418543D

 43 47  0  0  1  0  0  0  0  0999 V2000
  186.8990  177.9180  142.7500 C   0  0  0  0  0  0  0  0  0  0  0  0
  187.7700  177.7490  141.6240 N   0  0  0  0  0  0  0  0  0  0  0  0
  185.5490  178.2390  142.5510 C   0  0  0  0  0  0  0  0  0  0  0  0
  189.2890  177.2740  145.3960 O   0  0  0  0  0  0  0  0  0  0  0  0
  183.2250  177.1160  140.6690 O   0  0  0  0  0  1  0  0  0  0  0  0
  181.4850  179.3150  142.0370 N   0  0  0  0  0  2  0  0  0  0  0  0
  183.6170  178.4100  141.0190 C   0  0  1  0  0  3  0  0  0  0  0  0
  186.5310  177.9100  145.1530 C   0  0  0  0  0  3  0  0  0  0  0  0
  182.8260  178.8640  142.2240 C   0  0  0  0  0  0  0  0  0  0  0  0
  189.7280  177.3090  143.0570 C   0  0  0  0  0  2  0  0  0  0  0  0
  185.0280  178.4260  141.2640 O   0  0  0  0  0  0  0  0  0  0  0  0
  183.3400  178.8040  143.4210 N   0  0  0  0  0  0  0  0  0  0  0  0
  184.6960  178.4000  143.6480 C   0  0  0  0  0  0  0  0  0  0  0  0
  187.3910  177.7550  144.0550 C   0  0  0  0  0  0  0  0  0  0  0  0
  185.1840  178.2360  144.9490 C   0  0  0  0  0  3  0  0  0  0  0  0
  188.8140  177.4330  144.2410 C   0  0  0  0  0  0  0  0  0  0  0  0
  189.0410  177.4710  141.7240 C   0  0  0  0  0  0  0  0  0  0  0  0
  189.3290  177.1940  139.3010 C   0  0  0  0  0  3  0  0  0  0  0  0
  189.8600  177.3030  140.5160 C   0  0  0  0  0  3  0  0  0  0  0  0
  190.4360  176.1640  136.0820 C   0  0  0  0  0  2  0  0  0  0  0  0
  191.5560  175.8810  138.4940 S   0  0  0  0  0  0  0  0  0  0  0  0
  191.2620  173.9560  136.6700 N   0  0  0  0  0  1  0  0  0  0  0  0
  189.4780  176.5260  137.0350 O   0  0  0  0  0  0  0  0  0  0  0  0
  190.2100  177.0290  138.1140 C   0  0  1  0  0  3  0  0  0  0  0  0
  191.5360  175.3760  136.7580 C   0  0  1  0  0  0  0  0  0  0  0  0
  194.0000  174.3050  135.7490 O   0  0  0  0  0  1  0  0  0  0  0  0
  192.8970  176.3940  134.6300 O   0  0  0  0  0  0  0  0  0  0  0  0
  193.1330  175.7440  135.9760 P   0  0  0  0  0  0  0  0  0  0  0  0
  194.0190  176.7980  136.9630 O   0  0  0  0  0  1  0  0  0  0  0  0
  180.6080  179.6950  143.1390 C   0  0  0  0  0  2  0  0  0  0  0  0
  179.3720  178.8080  143.1640 C   0  0  2  0  0  3  0  0  0  0  0  0
  178.9320  178.6680  144.4830 O   0  0  0  0  0  1  0  0  0  0  0  0
  179.4810  177.1770  141.2310 C   0  0  0  0  0  0  0  0  0  0  0  0
  178.9450  177.3820  139.0680 C   0  0  0  0  0  2  0  0  0  0  0  0
  178.9910  178.0160  140.3790 N   0  0  0  0  0  0  0  0  0  0  0  0
  179.4850  175.9620  139.3170 C   0  0  2  0  0  3  0  0  0  0  0  0
  179.8080  175.9500  140.6980 O   0  0  0  0  0  0  0  0  0  0  0  0
  179.6850  177.4950  142.6130 N   0  0  0  0  0  2  0  0  0  0  0  0
  180.7230  175.6560  138.4690 C   0  0  0  0  0  2  0  0  0  0  0  0
  180.6860  176.3550  137.1080 C   0  0  0  0  0  2  0  0  0  0  0  0
  182.5590  177.8540  137.2730 O   0  0  0  0  0  1  0  0  0  0  0  0
  183.0670  175.5730  136.8160 C   0  0  0  0  0  1  0  0  0  0  0  0
  182.0900  176.7170  136.6160 C   0  0  1  0  0  3  0  0  0  0  0  0
  1 14  1  0  0  0  0
  2 17  2  0  0  0  0
  2  1  1  0  0  0  0
  3  1  2  0  0  0  0
  3 13  1  0  0  0  0
  6  9  1  0  0  0  0
  6 30  1  0  0  0  0
  7  5  1  1  0  0  0
  7 11  1  0  0  0  0
  7  9  1  0  0  0  0
  9 12  2  0  0  0  0
 10 16  1  0  0  0  0
 11  3  1  0  0  0  0
 12 13  1  0  0  0  0
 13 15  2  0  0  0  0
 14 16  1  0  0  0  0
 14  8  2  0  0  0  0
 15  8  1  0  0  0  0
 16  4  2  0  0  0  0
 17 10  1  0  0  0  0
 18 19  2  0  0  0  0
 19 17  1  0  0  0  0
 20 25  1  0  0  0  0
 20 23  1  0  0  0  0
 23 24  1  0  0  0  0
 24 21  1  0  0  0  0
 24 18  1  1  0  0  0
 25 22  1  6  0  0  0
 25 21  1  0  0  0  0
 26 28  1  0  0  0  0
 27 28  2  0  0  0  0
 28 25  1  0  0  0  0
 28 29  1  0  0  0  0
 30 31  1  0  0  0  0
 31 32  1  1  0  0  0
 33 38  1  0  0  0  0
 34 36  1  0  0  0  0
 34 35  1  0  0  0  0
 35 33  2  0  0  0  0
 36 39  1  6  0  0  0
 36 37  1  0  0  0  0
 37 33  1  0  0  0  0
 38 31  1  0  0  0  0
 40 39  1  0  0  0  0
 43 42  1  1  0  0  0
 43 40  1  0  0  0  0
 43 41  1  0  0  0  0
M  END
>  <MODEL>
2

>  <REMARK>
 VINA RESULT:      -8.0      3.480      6.173
  Name = 
  9 active torsions:
  status: ('A' for Active; 'I' for Inactive)
    1  A    between atoms: C_1  and  C_34
    2  A    between atoms: C_2  and  C_8
    3  A    between atoms: C_2  and  N_36
    4  A    between atoms: C_8  and  N_18
    5  A    between atoms: C_21  and  C_23
    6  A    between atoms: C_23  and  C_24
    7  A    between atoms: C_24  and  C_31
    8  A    between atoms: P_25  and  C_43
    9  A    between atoms: C_41  and  C_42
                            x       y       z     vdW  Elec       q    Type
                         _______ _______ _______ _____ _____    ______ ____

>  <TORSDO>
F 9

$$$$
=
 OpenBabel10222418543D

 43 47  0  0  1  0  0  0  0  0999 V2000
  188.2730  177.5120  138.0600 C   0  0  0  0  0  0  0  0  0  0  0  0
  189.5670  176.9630  137.7810 N   0  0  0  0  0  0  0  0  0  0  0  0
  187.8720  177.7220  139.3880 C   0  0  0  0  0  0  0  0  0  0  0  0
  187.0930  177.9060  134.6570 O   0  0  0  0  0  0  0  0  0  0  0  0
  189.2160  179.0580  141.9580 O   0  0  0  0  0  1  0  0  0  0  0  0
  186.5450  178.2820  143.3700 N   0  0  0  0  0  2  0  0  0  0  0  0
  188.4720  177.8900  141.7790 C   0  0  1  0  0  3  0  0  0  0  0  0
  186.1450  178.3990  137.2890 C   0  0  0  0  0  3  0  0  0  0  0  0
  187.0110  178.1850  142.0240 C   0  0  0  0  0  0  0  0  0  0  0  0
  189.1780  176.9860  135.3450 C   0  0  0  0  0  2  0  0  0  0  0  0
  188.7050  177.3800  140.4610 O   0  0  0  0  0  0  0  0  0  0  0  0
  186.1950  178.3930  141.0280 N   0  0  0  0  0  0  0  0  0  0  0  0
  186.6120  178.2620  139.6640 C   0  0  0  0  0  0  0  0  0  0  0  0
  187.4060  177.8510  137.0090 C   0  0  0  0  0  0  0  0  0  0  0  0
  185.7470  178.6010  138.6170 C   0  0  0  0  0  3  0  0  0  0  0  0
  187.8410  177.6090  135.6260 C   0  0  0  0  0  0  0  0  0  0  0  0
  190.0070  176.7190  136.5760 C   0  0  0  0  0  0  0  0  0  0  0  0
  191.7090  174.9670  136.8340 C   0  0  0  0  0  3  0  0  0  0  0  0
  191.3540  176.1650  136.3770 C   0  0  0  0  0  3  0  0  0  0  0  0
  194.4860  172.7460  136.7910 C   0  0  0  0  0  2  0  0  0  0  0  0
  194.2400  175.2240  137.7650 S   0  0  0  0  0  0  0  0  0  0  0  0
  195.3020  173.1380  139.0460 N   0  0  0  0  0  1  0  0  0  0  0  0
  193.1260  173.0710  136.7700 O   0  0  0  0  0  0  0  0  0  0  0  0
  193.0870  174.4580  136.5990 C   0  0  1  0  0  3  0  0  0  0  0  0
  195.2110  173.7010  137.7130 C   0  0  1  0  0  0  0  0  0  0  0  0
  197.7960  172.6110  137.1040 O   0  0  0  0  0  1  0  0  0  0  0  0
  196.7780  174.5270  135.6450 O   0  0  0  0  0  0  0  0  0  0  0  0
  196.8770  174.0350  137.0730 P   0  0  0  0  0  0  0  0  0  0  0  0
  197.6240  175.2200  138.0270 O   0  0  0  0  0  1  0  0  0  0  0  0
  185.1750  178.6450  143.7180 C   0  0  0  0  0  2  0  0  0  0  0  0
  184.9310  178.4340  145.2050 C   0  0  2  0  0  3  0  0  0  0  0  0
  183.6630  178.9200  145.5370 O   0  0  0  0  0  1  0  0  0  0  0  0
  186.7610  178.4730  146.9530 C   0  0  0  0  0  0  0  0  0  0  0  0
  187.6500  176.8600  148.2250 C   0  0  0  0  0  2  0  0  0  0  0  0
  186.6550  177.2130  147.2210 N   0  0  0  0  0  0  0  0  0  0  0  0
  188.3640  178.1890  148.5320 C   0  0  2  0  0  3  0  0  0  0  0  0
  187.7420  179.1250  147.6660 O   0  0  0  0  0  0  0  0  0  0  0  0
  185.9420  179.1380  145.9840 N   0  0  0  0  0  2  0  0  0  0  0  0
  189.8690  178.1160  148.2580 C   0  0  0  0  0  2  0  0  0  0  0  0
  190.2570  176.8700  147.4580 C   0  0  0  0  0  2  0  0  0  0  0  0
  191.7870  176.3980  145.6640 O   0  0  0  0  0  1  0  0  0  0  0  0
  189.6060  177.1190  145.0330 C   0  0  0  0  0  1  0  0  0  0  0  0
  190.7310  177.2260  146.0470 C   0  0  1  0  0  3  0  0  0  0  0  0
  1  3  1  0  0  0  0
  2  1  1  0  0  0  0
  3 13  2  0  0  0  0
  3 11  1  0  0  0  0
  4 16  2  0  0  0  0
  6 30  1  0  0  0  0
  7  5  1  6  0  0  0
  7  9  1  0  0  0  0
  8 15  2  0  0  0  0
  9  6  1  0  0  0  0
 10 16  1  0  0  0  0
 10 17  1  0  0  0  0
 11  7  1  0  0  0  0
 12  9  2  0  0  0  0
 13 12  1  0  0  0  0
 14  8  1  0  0  0  0
 14  1  2  0  0  0  0
 15 13  1  0  0  0  0
 16 14  1  0  0  0  0
 17  2  2  0  0  0  0
 19 17  1  0  0  0  0
 19 18  2  0  0  0  0
 20 25  1  0  0  0  0
 23 20  1  0  0  0  0
 24 23  1  0  0  0  0
 24 18  1  1  0  0  0
 24 21  1  0  0  0  0
 25 21  1  0  0  0  0
 25 22  1  1  0  0  0
 27 28  2  0  0  0  0
 28 26  1  0  0  0  0
 28 25  1  0  0  0  0
 28 29  1  0  0  0  0
 30 31  1  0  0  0  0
 31 32  1  1  0  0  0
 31 38  1  0  0  0  0
 33 35  2  0  0  0  0
 33 37  1  0  0  0  0
 34 36  1  0  0  0  0
 35 34  1  0  0  0  0
 36 39  1  6  0  0  0
 37 36  1  0  0  0  0
 38 33  1  0  0  0  0
 40 39  1  0  0  0  0
 41 43  1  0  0  0  0
 43 42  1  6  0  0  0
 43 40  1  0  0  0  0
M  END
>  <MODEL>
3

>  <REMARK>
 VINA RESULT:      -7.7      2.155      4.721
  Name = 
  9 active torsions:
  status: ('A' for Active; 'I' for Inactive)
    1  A    between atoms: C_1  and  C_34
    2  A    between atoms: C_2  and  C_8
    3  A    between atoms: C_2  and  N_36
    4  A    between atoms: C_8  and  N_18
    5  A    between atoms: C_21  and  C_23
    6  A    between atoms: C_23  and  C_24
    7  A    between atoms: C_24  and  C_31
    8  A    between atoms: P_25  and  C_43
    9  A    between atoms: C_41  and  C_42
                            x       y       z     vdW  Elec       q    Type
                         _______ _______ _______ _____ _____    ______ ____

>  <TORSDO>
F 9

$$$$
=
 OpenBabel10222418543D

 43 47  0  0  1  0  0  0  0  0999 V2000
  188.9240  177.3450  139.2630 C   0  0  0  0  0  0  0  0  0  0  0  0
  187.5830  177.6380  138.8470 N   0  0  0  0  0  0  0  0  0  0  0  0
  189.2360  177.2840  140.6280 C   0  0  0  0  0  0  0  0  0  0  0  0
  190.4490  176.9840  135.9960 O   0  0  0  0  0  0  0  0  0  0  0  0
  187.9240  175.8720  143.1750 O   0  0  0  0  0  1  0  0  0  0  0  0
  190.2860  177.1900  144.7300 N   0  0  0  0  0  2  0  0  0  0  0  0
  188.4670  177.1430  142.9730 C   0  0  1  0  0  3  0  0  0  0  0  0
  191.2320  176.8130  138.7210 C   0  0  0  0  0  3  0  0  0  0  0  0
  189.9300  177.1280  143.3490 C   0  0  0  0  0  0  0  0  0  0  0  0
  188.1830  177.5520  136.4560 C   0  0  0  0  0  2  0  0  0  0  0  0
  188.2660  177.5300  141.6080 O   0  0  0  0  0  0  0  0  0  0  0  0
  190.8540  177.0150  142.4360 N   0  0  0  0  0  0  0  0  0  0  0  0
  190.5430  176.9940  141.0370 C   0  0  0  0  0  0  0  0  0  0  0  0
  189.9260  177.1110  138.3070 C   0  0  0  0  0  0  0  0  0  0  0  0
  191.5420  176.7590  140.0870 C   0  0  0  0  0  3  0  0  0  0  0  0
  189.5780  177.1940  136.8810 C   0  0  0  0  0  0  0  0  0  0  0  0
  187.2160  177.7330  137.5980 C   0  0  0  0  0  0  0  0  0  0  0  0
  184.8490  178.0550  138.1720 C   0  0  0  0  0  3  0  0  0  0  0  0
  185.8160  178.0260  137.2590 C   0  0  0  0  0  3  0  0  0  0  0  0
  181.4220  178.9680  138.4330 C   0  0  0  0  0  2  0  0  0  0  0  0
  182.5870  176.8360  137.3170 S   0  0  0  0  0  0  0  0  0  0  0  0
  180.5040  176.7870  138.9840 N   0  0  0  0  0  1  0  0  0  0  0  0
  182.7660  178.9730  138.8220 O   0  0  0  0  0  0  0  0  0  0  0  0
  183.4500  178.3600  137.7680 C   0  0  1  0  0  3  0  0  0  0  0  0
  181.0590  177.5940  137.9160 C   0  0  1  0  0  0  0  0  0  0  0  0
  178.9310  176.3200  136.4720 O   0  0  0  0  0  1  0  0  0  0  0  0
  178.9330  178.9090  136.8350 O   0  0  0  0  0  1  0  0  0  0  0  0
  179.8540  177.7390  136.5650 P   0  0  0  0  0  0  0  0  0  0  0  0
  180.6710  177.9890  135.1020 O   0  0  0  0  0  0  0  0  0  0  0  0
  191.6610  177.0980  145.2070 C   0  0  0  0  0  2  0  0  0  0  0  0
  191.6980  176.5310  146.6180 C   0  0  2  0  0  3  0  0  0  0  0  0
  192.5460  175.4210  146.6480 O   0  0  0  0  0  1  0  0  0  0  0  0
  189.4200  177.0640  147.5860 C   0  0  0  0  0  0  0  0  0  0  0  0
  188.5150  178.9760  148.3180 C   0  0  0  0  0  2  0  0  0  0  0  0
  189.6930  178.3140  147.7720 N   0  0  0  0  0  0  0  0  0  0  0  0
  187.4770  177.8470  148.4520 C   0  0  2  0  0  3  0  0  0  0  0  0
  188.1420  176.7010  147.9470 O   0  0  0  0  0  0  0  0  0  0  0  0
  190.3580  176.1330  147.0340 N   0  0  0  0  0  2  0  0  0  0  0  0
  186.2040  178.1310  147.6490 C   0  0  0  0  0  2  0  0  0  0  0  0
  186.4720  178.2250  146.1450 C   0  0  0  0  0  2  0  0  0  0  0  0
  184.1660  178.9010  146.0610 O   0  0  0  0  0  1  0  0  0  0  0  0
  185.3610  178.9600  144.0020 C   0  0  0  0  0  1  0  0  0  0  0  0
  185.1720  178.2620  145.3370 C   0  0  1  0  0  3  0  0  0  0  0  0
  1  3  1  0  0  0  0
  2  1  1  0  0  0  0
  3 13  2  0  0  0  0
  3 11  1  0  0  0  0
  4 16  2  0  0  0  0
  6 30  1  0  0  0  0
  7  5  1  6  0  0  0
  7  9  1  0  0  0  0
  8 15  2  0  0  0  0
  9  6  1  0  0  0  0
 10 16  1  0  0  0  0
 10 17  1  0  0  0  0
 11  7  1  0  0  0  0
 12  9  2  0  0  0  0
 13 12  1  0  0  0  0
 14  8  1  0  0  0  0
 14  1  2  0  0  0  0
 15 13  1  0  0  0  0
 16 14  1  0  0  0  0
 17  2  2  0  0  0  0
 19 17  1  0  0  0  0
 19 18  2  0  0  0  0
 20 23  1  0  0  0  0
 21 24  1  0  0  0  0
 21 25  1  0  0  0  0
 24 18  1  1  0  0  0
 24 23  1  0  0  0  0
 25 20  1  0  0  0  0
 25 22  1  1  0  0  0
 26 28  1  0  0  0  0
 28 27  1  0  0  0  0
 28 25  1  0  0  0  0
 29 28  2  0  0  0  0
 30 31  1  0  0  0  0
 31 32  1  6  0  0  0
 31 38  1  0  0  0  0
 33 35  2  0  0  0  0
 33 37  1  0  0  0  0
 34 36  1  0  0  0  0
 35 34  1  0  0  0  0
 36 39  1  6  0  0  0
 37 36  1  0  0  0  0
 38 33  1  0  0  0  0
 40 39  1  0  0  0  0
 43 42  1  6  0  0  0
 43 41  1  0  0  0  0
 43 40  1  0  0  0  0
M  END
>  <MODEL>
4

>  <REMARK>
 VINA RESULT:      -7.5      4.922      8.580
  Name = 
  9 active torsions:
  status: ('A' for Active; 'I' for Inactive)
    1  A    between atoms: C_1  and  C_34
    2  A    between atoms: C_2  and  C_8
    3  A    between atoms: C_2  and  N_36
    4  A    between atoms: C_8  and  N_18
    5  A    between atoms: C_21  and  C_23
    6  A    between atoms: C_23  and  C_24
    7  A    between atoms: C_24  and  C_31
    8  A    between atoms: P_25  and  C_43
    9  A    between atoms: C_41  and  C_42
                            x       y       z     vdW  Elec       q    Type
                         _______ _______ _______ _____ _____    ______ ____

>  <TORSDO>
F 9

$$$$
=
 OpenBabel10222418543D

 43 47  0  0  1  0  0  0  0  0999 V2000
  188.6980  177.4140  143.1390 C   0  0  0  0  0  0  0  0  0  0  0  0
  187.3240  177.8140  143.0470 N   0  0  0  0  0  0  0  0  0  0  0  0
  189.4390  177.1810  141.9730 C   0  0  0  0  0  0  0  0  0  0  0  0
  189.0220  177.3770  146.7480 O   0  0  0  0  0  0  0  0  0  0  0  0
  189.8750  178.7600  139.2310 O   0  0  0  0  0  1  0  0  0  0  0  0
  191.7160  176.3500  138.4990 N   0  0  0  0  0  2  0  0  0  0  0  0
  189.6600  177.4110  139.5220 C   0  0  1  0  0  3  0  0  0  0  0  0
  190.6550  176.8820  144.4780 C   0  0  0  0  0  3  0  0  0  0  0  0
  190.9920  176.7140  139.6740 C   0  0  0  0  0  0  0  0  0  0  0  0
  187.0550  177.8670  145.4990 C   0  0  0  0  0  2  0  0  0  0  0  0
  188.8580  177.3050  140.7040 O   0  0  0  0  0  0  0  0  0  0  0  0
  191.4950  176.4860  140.8560 N   0  0  0  0  0  0  0  0  0  0  0  0
  190.7810  176.7940  142.0590 C   0  0  0  0  0  0  0  0  0  0  0  0
  189.3080  177.2620  144.3950 C   0  0  0  0  0  0  0  0  0  0  0  0
  191.3920  176.6440  143.3090 C   0  0  0  0  0  3  0  0  0  0  0  0
  188.5070  177.4980  145.6050 C   0  0  0  0  0  0  0  0  0  0  0  0
  186.5600  178.0300  144.0840 C   0  0  0  0  0  0  0  0  0  0  0  0
  184.6500  178.7180  142.7030 C   0  0  0  0  0  3  0  0  0  0  0  0
  185.1640  178.4500  143.9000 C   0  0  0  0  0  3  0  0  0  0  0  0
  181.1050  178.6160  142.9700 C   0  0  0  0  0  2  0  0  0  0  0  0
  182.6920  179.0160  140.8550 S   0  0  0  0  0  0  0  0  0  0  0  0
  180.6240  177.3320  140.9640 N   0  0  0  0  0  1  0  0  0  0  0  0
  182.4120  178.3140  143.3640 O   0  0  0  0  0  0  0  0  0  0  0  0
  183.2270  179.1350  142.5790 C   0  0  1  0  0  3  0  0  0  0  0  0
  181.0310  178.6320  141.4600 C   0  0  1  0  0  0  0  0  0  0  0  0
  180.6910  181.2050  140.2330 O   0  0  0  0  0  1  0  0  0  0  0  0
  178.9320  179.3070  139.8610 O   0  0  0  0  0  0  0  0  0  0  0  0
  179.8510  179.8970  140.9090 P   0  0  0  0  0  0  0  0  0  0  0  0
  178.9320  180.4270  142.2310 O   0  0  0  0  0  1  0  0  0  0  0  0
  193.0460  175.7510  138.5330 C   0  0  0  0  0  2  0  0  0  0  0  0
  193.1270  174.5820  137.5630 C   0  0  2  0  0  3  0  0  0  0  0  0
  194.4550  174.4060  137.1630 O   0  0  0  0  0  1  0  0  0  0  0  0
  190.9310  174.4190  136.3160 C   0  0  0  0  0  0  0  0  0  0  0  0
  188.9580  173.5170  136.8700 C   0  0  0  0  0  2  0  0  0  0  0  0
  190.3410  173.7630  137.2610 N   0  0  0  0  0  0  0  0  0  0  0  0
  188.8460  174.1400  135.4670 C   0  0  2  0  0  3  0  0  0  0  0  0
  190.1310  174.6920  135.2290 O   0  0  0  0  0  0  0  0  0  0  0  0
  192.2960  174.8420  136.3930 N   0  0  0  0  0  2  0  0  0  0  0  0
  187.7700  175.2270  135.3980 C   0  0  0  0  0  2  0  0  0  0  0  0
  187.6000  175.9660  136.7290 C   0  0  0  0  0  2  0  0  0  0  0  0
  185.8780  177.3440  137.6870 O   0  0  0  0  0  1  0  0  0  0  0  0
  187.5460  178.4680  136.4110 C   0  0  0  0  0  1  0  0  0  0  0  0
  186.7180  177.2070  136.5810 C   0  0  1  0  0  3  0  0  0  0  0  0
  1 14  1  0  0  0  0
  2  1  1  0  0  0  0
  2 17  2  0  0  0  0
  3 13  1  0  0  0  0
  3  1  2  0  0  0  0
  6 30  1  0  0  0  0
  6  9  1  0  0  0  0
  7  5  1  1  0  0  0
  7  9  1  0  0  0  0
  7 11  1  0  0  0  0
  9 12  2  0  0  0  0
 10 16  1  0  0  0  0
 11  3  1  0  0  0  0
 12 13  1  0  0  0  0
 13 15  2  0  0  0  0
 14  8  2  0  0  0  0
 14 16  1  0  0  0  0
 15  8  1  0  0  0  0
 16  4  2  0  0  0  0
 17 10  1  0  0  0  0
 18 19  2  0  0  0  0
 19 17  1  0  0  0  0
 20 23  1  0  0  0  0
 21 25  1  0  0  0  0
 21 24  1  0  0  0  0
 24 18  1  6  0  0  0
 24 23  1  0  0  0  0
 25 22  1  6  0  0  0
 25 20  1  0  0  0  0
 26 28  1  0  0  0  0
 27 28  2  0  0  0  0
 28 25  1  0  0  0  0
 28 29  1  0  0  0  0
 31 32  1  6  0  0  0
 31 30  1  0  0  0  0
 33 38  1  0  0  0  0
 33 35  2  0  0  0  0
 34 35  1  0  0  0  0
 36 39  1  1  0  0  0
 36 34  1  0  0  0  0
 37 36  1  0  0  0  0
 37 33  1  0  0  0  0
 38 31  1  0  0  0  0
 39 40  1  0  0  0  0
 43 42  1  1  0  0  0
 43 40  1  0  0  0  0
 43 41  1  0  0  0  0
M  END
>  <MODEL>
5

>  <REMARK>
 VINA RESULT:      -7.4      4.340     11.104
  Name = 
  9 active torsions:
  status: ('A' for Active; 'I' for Inactive)
    1  A    between atoms: C_1  and  C_34
    2  A    between atoms: C_2  and  C_8
    3  A    between atoms: C_2  and  N_36
    4  A    between atoms: C_8  and  N_18
    5  A    between atoms: C_21  and  C_23
    6  A    between atoms: C_23  and  C_24
    7  A    between atoms: C_24  and  C_31
    8  A    between atoms: P_25  and  C_43
    9  A    between atoms: C_41  and  C_42
                            x       y       z     vdW  Elec       q    Type
                         _______ _______ _______ _____ _____    ______ ____

>  <TORSDO>
F 9

$$$$
=
 OpenBabel10222418543D

 43 47  0  0  1  0  0  0  0  0999 V2000
  188.3360  177.9250  140.8620 C   0  0  0  0  0  0  0  0  0  0  0  0
  189.4810  177.7570  140.0160 N   0  0  0  0  0  0  0  0  0  0  0  0
  187.1000  178.2810  140.3060 C   0  0  0  0  0  0  0  0  0  0  0  0
  189.8890  177.1700  144.0480 O   0  0  0  0  0  0  0  0  0  0  0  0
  185.3680  177.2530  137.8280 O   0  0  0  0  0  1  0  0  0  0  0  0
  183.3570  179.4660  138.7180 N   0  0  0  0  0  2  0  0  0  0  0  0
  185.6700  178.5300  138.3050 C   0  0  1  0  0  3  0  0  0  0  0  0
  187.3180  177.8780  143.0690 C   0  0  0  0  0  3  0  0  0  0  0  0
  184.5850  178.9790  139.2570 C   0  0  0  0  0  0  0  0  0  0  0  0
  190.9590  177.2410  141.9230 C   0  0  0  0  0  2  0  0  0  0  0  0
  186.9590  178.5070  138.9310 O   0  0  0  0  0  0  0  0  0  0  0  0
  184.7470  178.8820  140.5470 N   0  0  0  0  0  0  0  0  0  0  0  0
  185.9790  178.4410  141.1290 C   0  0  0  0  0  0  0  0  0  0  0  0
  188.4450  177.7240  142.2480 C   0  0  0  0  0  0  0  0  0  0  0  0
  186.0860  178.2400  142.5100 C   0  0  0  0  0  3  0  0  0  0  0  0
  189.7550  177.3640  142.8110 C   0  0  0  0  0  0  0  0  0  0  0  0
  190.6700  177.4460  140.4570 C   0  0  0  0  0  0  0  0  0  0  0  0
  191.7120  176.5010  138.4440 C   0  0  0  0  0  3  0  0  0  0  0  0
  191.7880  177.2820  139.5180 C   0  0  0  0  0  3  0  0  0  0  0  0
  193.6140  175.6790  135.5540 C   0  0  0  0  0  2  0  0  0  0  0  0
  194.0150  175.1100  138.1350 S   0  0  0  0  0  0  0  0  0  0  0  0
  194.1490  173.3750  136.1120 N   0  0  0  0  0  1  0  0  0  0  0  0
  192.4480  176.0230  136.2450 O   0  0  0  0  0  0  0  0  0  0  0  0
  192.8770  176.3780  137.5270 C   0  0  1  0  0  3  0  0  0  0  0  0
  194.4500  174.7600  136.4160 C   0  0  1  0  0  0  0  0  0  0  0  0
  197.0700  174.8780  137.5840 O   0  0  0  0  0  1  0  0  0  0  0  0
  196.7470  174.1040  135.1070 O   0  0  0  0  0  0  0  0  0  0  0  0
  196.2150  175.0810  136.1330 P   0  0  0  0  0  0  0  0  0  0  0  0
  196.4190  176.6640  135.5640 O   0  0  0  0  0  1  0  0  0  0  0  0
  182.2150  179.8450  139.5440 C   0  0  0  0  0  2  0  0  0  0  0  0
  181.0750  178.8550  139.3610 C   0  0  2  0  0  3  0  0  0  0  0  0
  180.1180  179.0640  140.3580 O   0  0  0  0  0  1  0  0  0  0  0  0
  181.2620  176.4970  138.4620 C   0  0  0  0  0  0  0  0  0  0  0  0
  180.4120  175.5190  136.6360 C   0  0  0  0  0  2  0  0  0  0  0  0
  180.5000  176.7290  137.4440 N   0  0  0  0  0  0  0  0  0  0  0  0
  181.2630  174.4910  137.4030 C   0  0  2  0  0  3  0  0  0  0  0  0
  181.7620  175.2150  138.5160 O   0  0  0  0  0  0  0  0  0  0  0  0
  181.5770  177.4890  139.4450 N   0  0  0  0  0  2  0  0  0  0  0  0
  182.4150  173.9420  136.5560 C   0  0  0  0  0  2  0  0  0  0  0  0
  182.6990  172.4660  136.8450 C   0  0  0  0  0  2  0  0  0  0  0  0
  184.8260  171.6980  136.0270 O   0  0  0  0  0  1  0  0  0  0  0  0
  184.8790  173.4910  137.5930 C   0  0  0  0  0  1  0  0  0  0  0  0
  184.1790  172.2200  137.1470 C   0  0  1  0  0  3  0  0  0  0  0  0
  1 14  1  0  0  0  0
  2 17  2  0  0  0  0
  2  1  1  0  0  0  0
  3  1  2  0  0  0  0
  3 13  1  0  0  0  0
  6  9  1  0  0  0  0
  6 30  1  0  0  0  0
  7  5  1  1  0  0  0
  7 11  1  0  0  0  0
  7  9  1  0  0  0  0
  9 12  2  0  0  0  0
 10 16  1  0  0  0  0
 11  3  1  0  0  0  0
 12 13  1  0  0  0  0
 13 15  2  0  0  0  0
 14 16  1  0  0  0  0
 14  8  2  0  0  0  0
 15  8  1  0  0  0  0
 16  4  2  0  0  0  0
 17 10  1  0  0  0  0
 18 19  2  0  0  0  0
 19 17  1  0  0  0  0
 20 23  1  0  0  0  0
 20 25  1  0  0  0  0
 23 24  1  0  0  0  0
 24 21  1  0  0  0  0
 24 18  1  1  0  0  0
 25 22  1  6  0  0  0
 25 21  1  0  0  0  0
 27 28  2  0  0  0  0
 28 25  1  0  0  0  0
 28 26  1  0  0  0  0
 29 28  1  0  0  0  0
 31 38  1  0  0  0  0
 31 30  1  0  0  0  0
 31 32  1  1  0  0  0
 33 37  1  0  0  0  0
 33 38  1  0  0  0  0
 34 36  1  0  0  0  0
 34 35  1  0  0  0  0
 35 33  2  0  0  0  0
 36 39  1  6  0  0  0
 36 37  1  0  0  0  0
 39 40  1  0  0  0  0
 40 43  1  0  0  0  0
 41 43  1  0  0  0  0
 43 42  1  6  0  0  0
M  END
>  <MODEL>
6

>  <REMARK>
 VINA RESULT:      -7.3      4.009      6.473
  Name = 
  9 active torsions:
  status: ('A' for Active; 'I' for Inactive)
    1  A    between atoms: C_1  and  C_34
    2  A    between atoms: C_2  and  C_8
    3  A    between atoms: C_2  and  N_36
    4  A    between atoms: C_8  and  N_18
    5  A    between atoms: C_21  and  C_23
    6  A    between atoms: C_23  and  C_24
    7  A    between atoms: C_24  and  C_31
    8  A    between atoms: P_25  and  C_43
    9  A    between atoms: C_41  and  C_42
                            x       y       z     vdW  Elec       q    Type
                         _______ _______ _______ _____ _____    ______ ____

>  <TORSDO>
F 9

$$$$
=
 OpenBabel10222418543D

 43 47  0  0  1  0  0  0  0  0999 V2000
  187.6900  177.5350  138.2450 C   0  0  0  0  0  0  0  0  0  0  0  0
  188.2300  177.5990  139.5720 N   0  0  0  0  0  0  0  0  0  0  0  0
  186.3240  177.7680  138.0320 C   0  0  0  0  0  0  0  0  0  0  0  0
  190.7350  176.7400  136.4480 O   0  0  0  0  0  0  0  0  0  0  0  0
  184.2480  179.9990  138.9860 O   0  0  0  0  0  1  0  0  0  0  0  0
  182.1900  178.3490  137.3190 N   0  0  0  0  0  2  0  0  0  0  0  0
  184.1620  178.6090  138.8830 C   0  0  1  0  0  3  0  0  0  0  0  0
  187.9950  177.2000  135.8570 C   0  0  0  0  0  3  0  0  0  0  0  0
  183.5980  178.2410  137.5300 C   0  0  0  0  0  0  0  0  0  0  0  0
  190.4990  177.0130  138.8010 C   0  0  0  0  0  2  0  0  0  0  0  0
  185.4580  178.0390  139.0990 O   0  0  0  0  0  0  0  0  0  0  0  0
  184.3840  177.8750  136.5560 N   0  0  0  0  0  0  0  0  0  0  0  0
  185.7950  177.7110  136.7380 C   0  0  0  0  0  0  0  0  0  0  0  0
  188.5270  177.2490  137.1540 C   0  0  0  0  0  0  0  0  0  0  0  0
  186.6270  177.4270  135.6490 C   0  0  0  0  0  3  0  0  0  0  0  0
  189.9530  176.9940  137.4020 C   0  0  0  0  0  0  0  0  0  0  0  0
  189.4850  177.3750  139.8560 C   0  0  0  0  0  0  0  0  0  0  0  0
  189.2410  178.0490  142.2050 C   0  0  0  0  0  3  0  0  0  0  0  0
  189.9580  177.4730  141.2440 C   0  0  0  0  0  3  0  0  0  0  0  0
  191.5760  178.1380  144.8860 C   0  0  0  0  0  2  0  0  0  0  0  0
  189.4690  176.5500  144.4490 S   0  0  0  0  0  0  0  0  0  0  0  0
  191.9140  175.7460  145.1550 N   0  0  0  0  0  1  0  0  0  0  0  0
  191.1480  178.3610  143.5730 O   0  0  0  0  0  0  0  0  0  0  0  0
  189.7720  178.1150  143.5940 C   0  0  1  0  0  3  0  0  0  0  0  0
  190.9880  176.8370  145.3870 C   0  0  1  0  0  0  0  0  0  0  0  0
  189.5330  178.2390  147.4260 O   0  0  0  0  0  0  0  0  0  0  0  0
  189.9940  175.6740  147.6400 O   0  0  0  0  0  1  0  0  0  0  0  0
  190.6200  176.9650  147.1610 P   0  0  0  0  0  0  0  0  0  0  0  0
  192.0550  177.2480  148.0170 O   0  0  0  0  0  1  0  0  0  0  0  0
  181.5530  178.1010  136.0300 C   0  0  0  0  0  2  0  0  0  0  0  0
  180.7130  176.8340  136.0870 C   0  0  2  0  0  3  0  0  0  0  0  0
  179.4150  177.1590  136.4890 O   0  0  0  0  0  1  0  0  0  0  0  0
  182.2310  174.8830  136.6330 C   0  0  0  0  0  0  0  0  0  0  0  0
  183.5880  173.6400  135.3580 C   0  0  0  0  0  2  0  0  0  0  0  0
  182.6170  174.7260  135.4090 N   0  0  0  0  0  0  0  0  0  0  0  0
  183.6840  173.1510  136.8150 C   0  0  2  0  0  3  0  0  0  0  0  0
  182.8100  174.0110  137.5280 O   0  0  0  0  0  0  0  0  0  0  0  0
  181.2940  175.8890  137.0340 N   0  0  0  0  0  2  0  0  0  0  0  0
  185.1090  173.2490  137.3670 C   0  0  0  0  0  2  0  0  0  0  0  0
  186.1340  173.5830  136.2810 C   0  0  0  0  0  2  0  0  0  0  0  0
  187.7840  172.2570  137.4220 O   0  0  0  0  0  1  0  0  0  0  0  0
  188.5860  173.6880  135.6950 C   0  0  0  0  0  1  0  0  0  0  0  0
  187.5690  173.4900  136.8050 C   0  0  1  0  0  3  0  0  0  0  0  0
  1  2  1  0  0  0  0
  2 17  2  0  0  0  0
  3  1  1  0  0  0  0
  3 11  1  0  0  0  0
  4 16  2  0  0  0  0
  6  9  1  0  0  0  0
  7  5  1  6  0  0  0
  7 11  1  0  0  0  0
  8 14  1  0  0  0  0
  9  7  1  0  0  0  0
 10 17  1  0  0  0  0
 12 13  1  0  0  0  0
 12  9  2  0  0  0  0
 13  3  2  0  0  0  0
 14 16  1  0  0  0  0
 14  1  2  0  0  0  0
 15  8  2  0  0  0  0
 15 13  1  0  0  0  0
 16 10  1  0  0  0  0
 17 19  1  0  0  0  0
 19 18  2  0  0  0  0
 20 25  1  0  0  0  0
 21 25  1  0  0  0  0
 23 24  1  0  0  0  0
 23 20  1  0  0  0  0
 24 18  1  6  0  0  0
 24 21  1  0  0  0  0
 25 22  1  6  0  0  0
 25 28  1  0  0  0  0
 28 26  2  0  0  0  0
 28 27  1  0  0  0  0
 28 29  1  0  0  0  0
 30 31  1  0  0  0  0
 30  6  1  0  0  0  0
 31 32  1  1  0  0  0
 31 38  1  0  0  0  0
 33 38  1  0  0  0  0
 33 37  1  0  0  0  0
 34 35  1  0  0  0  0
 34 36  1  0  0  0  0
 35 33  2  0  0  0  0
 36 39  1  1  0  0  0
 36 37  1  0  0  0  0
 40 43  1  0  0  0  0
 40 39  1  0  0  0  0
 43 42  1  6  0  0  0
 43 41  1  0  0  0  0
M  END
>  <MODEL>
7

>  <REMARK>
 VINA RESULT:      -7.0      5.307      9.472
  Name = 
  9 active torsions:
  status: ('A' for Active; 'I' for Inactive)
    1  A    between atoms: C_1  and  C_34
    2  A    between atoms: C_2  and  C_8
    3  A    between atoms: C_2  and  N_36
    4  A    between atoms: C_8  and  N_18
    5  A    between atoms: C_21  and  C_23
    6  A    between atoms: C_23  and  C_24
    7  A    between atoms: C_24  and  C_31
    8  A    between atoms: P_25  and  C_43
    9  A    between atoms: C_41  and  C_42
                            x       y       z     vdW  Elec       q    Type
                         _______ _______ _______ _____ _____    ______ ____

>  <TORSDO>
F 9

$$$$
=
 OpenBabel10222418543D

 43 47  0  0  1  0  0  0  0  0999 V2000
  188.8310  177.4180  141.9710 C   0  0  0  0  0  0  0  0  0  0  0  0
  187.4630  177.8490  141.9730 N   0  0  0  0  0  0  0  0  0  0  0  0
  189.5000  177.2130  140.7570 C   0  0  0  0  0  0  0  0  0  0  0  0
  189.3570  177.2410  145.5520 O   0  0  0  0  0  0  0  0  0  0  0  0
  189.8150  178.8830  138.0530 O   0  0  0  0  0  1  0  0  0  0  0  0
  191.5570  176.4640  137.1310 N   0  0  0  0  0  2  0  0  0  0  0  0
  189.5870  177.5290  138.3070 C   0  0  1  0  0  3  0  0  0  0  0  0
  190.8480  176.7960  143.1760 C   0  0  0  0  0  3  0  0  0  0  0  0
  190.9090  176.7990  138.3580 C   0  0  0  0  0  0  0  0  0  0  0  0
  187.3350  177.8170  144.4360 C   0  0  0  0  0  2  0  0  0  0  0  0
  188.8510  177.3960  139.5290 O   0  0  0  0  0  0  0  0  0  0  0  0
  191.4730  176.5180  139.5000 N   0  0  0  0  0  0  0  0  0  0  0  0
  190.8350  176.7960  140.7520 C   0  0  0  0  0  0  0  0  0  0  0  0
  189.5070  177.2070  143.1840 C   0  0  0  0  0  0  0  0  0  0  0  0
  191.5110  176.5870  141.9590 C   0  0  0  0  0  3  0  0  0  0  0  0
  188.7810  177.4150  144.4450 C   0  0  0  0  0  0  0  0  0  0  0  0
  186.7650  178.0430  143.0580 C   0  0  0  0  0  0  0  0  0  0  0  0
  184.7480  178.6750  141.8070 C   0  0  0  0  0  3  0  0  0  0  0  0
  185.3700  178.4980  142.9690 C   0  0  0  0  0  3  0  0  0  0  0  0
  181.2370  178.7080  142.3730 C   0  0  0  0  0  2  0  0  0  0  0  0
  182.6500  178.9500  140.1160 S   0  0  0  0  0  0  0  0  0  0  0  0
  180.5500  177.3450  140.4820 N   0  0  0  0  0  1  0  0  0  0  0  0
  182.5640  178.3810  142.6720 O   0  0  0  0  0  0  0  0  0  0  0  0
  183.3330  179.1350  141.7810 C   0  0  1  0  0  3  0  0  0  0  0  0
  181.0370  178.6530  140.8750 C   0  0  1  0  0  0  0  0  0  0  0  0
  180.6890  181.2580  139.7200 O   0  0  0  0  0  1  0  0  0  0  0  0
  178.9340  179.3660  139.2980 O   0  0  0  0  0  0  0  0  0  0  0  0
  179.8520  179.9300  140.3610 P   0  0  0  0  0  0  0  0  0  0  0  0
  178.9330  180.4210  141.6970 O   0  0  0  0  0  1  0  0  0  0  0  0
  192.8730  175.8360  137.0670 C   0  0  0  0  0  2  0  0  0  0  0  0
  192.8750  174.7080  136.0470 C   0  0  2  0  0  3  0  0  0  0  0  0
  191.7830  173.8690  136.2840 O   0  0  0  0  0  1  0  0  0  0  0  0
  195.4000  174.5460  136.0030 C   0  0  0  0  0  0  0  0  0  0  0  0
  196.9940  176.0870  135.6960 C   0  0  0  0  0  2  0  0  0  0  0  0
  195.5660  175.8030  135.7530 N   0  0  0  0  0  0  0  0  0  0  0  0
  197.6600  174.7200  135.9340 C   0  0  2  0  0  3  0  0  0  0  0  0
  196.5710  173.8330  136.1340 O   0  0  0  0  0  0  0  0  0  0  0  0
  194.1100  173.9410  136.1490 N   0  0  0  0  0  2  0  0  0  0  0  0
  198.5820  174.7280  137.1570 C   0  0  0  0  0  2  0  0  0  0  0  0
  198.0190  173.9030  138.3180 C   0  0  0  0  0  2  0  0  0  0  0  0
  195.9550  174.0450  139.5430 O   0  0  0  0  0  1  0  0  0  0  0  0
  197.8360  175.1410  140.5080 C   0  0  0  0  0  1  0  0  0  0  0  0
  197.1220  174.7430  139.2300 C   0  0  1  0  0  3  0  0  0  0  0  0
  1  2  1  0  0  0  0
  1 14  1  0  0  0  0
  2 17  2  0  0  0  0
  3  1  2  0  0  0  0
  6  9  1  0  0  0  0
  7  5  1  1  0  0  0
  7  9  1  0  0  0  0
  7 11  1  0  0  0  0
  8 14  2  0  0  0  0
  9 12  2  0  0  0  0
 10 16  1  0  0  0  0
 11  3  1  0  0  0  0
 12 13  1  0  0  0  0
 13  3  1  0  0  0  0
 13 15  2  0  0  0  0
 14 16  1  0  0  0  0
 15  8  1  0  0  0  0
 16  4  2  0  0  0  0
 17 10  1  0  0  0  0
 18 19  2  0  0  0  0
 19 17  1  0  0  0  0
 20 23  1  0  0  0  0
 21 25  1  0  0  0  0
 21 24  1  0  0  0  0
 24 18  1  6  0  0  0
 24 23  1  0  0  0  0
 25 22  1  6  0  0  0
 25 20  1  0  0  0  0
 26 28  1  0  0  0  0
 27 28  2  0  0  0  0
 28 25  1  0  0  0  0
 28 29  1  0  0  0  0
 30  6  1  0  0  0  0
 31 38  1  0  0  0  0
 31 32  1  1  0  0  0
 31 30  1  0  0  0  0
 33 37  1  0  0  0  0
 33 38  1  0  0  0  0
 34 35  1  0  0  0  0
 34 36  1  0  0  0  0
 35 33  2  0  0  0  0
 36 37  1  0  0  0  0
 36 39  1  1  0  0  0
 39 40  1  0  0  0  0
 40 43  1  0  0  0  0
 43 41  1  0  0  0  0
 43 42  1  1  0  0  0
M  END
>  <MODEL>
8

>  <REMARK>
 VINA RESULT:      -6.9      4.252     12.760
  Name = 
  9 active torsions:
  status: ('A' for Active; 'I' for Inactive)
    1  A    between atoms: C_1  and  C_34
    2  A    between atoms: C_2  and  C_8
    3  A    between atoms: C_2  and  N_36
    4  A    between atoms: C_8  and  N_18
    5  A    between atoms: C_21  and  C_23
    6  A    between atoms: C_23  and  C_24
    7  A    between atoms: C_24  and  C_31
    8  A    between atoms: P_25  and  C_43
    9  A    between atoms: C_41  and  C_42
                            x       y       z     vdW  Elec       q    Type
                         _______ _______ _______ _____ _____    ______ ____

>  <TORSDO>
F 9

$$$$
=
 OpenBabel10222418543D

 43 47  0  0  1  0  0  0  0  0999 V2000
  189.5950  177.6710  139.9520 C   0  0  0  0  0  0  0  0  0  0  0  0
  190.6290  177.2660  139.0450 N   0  0  0  0  0  0  0  0  0  0  0  0
  188.3060  177.9370  139.4710 C   0  0  0  0  0  0  0  0  0  0  0  0
  191.5080  177.6190  143.0290 O   0  0  0  0  0  0  0  0  0  0  0  0
  186.2790  176.4300  137.5170 O   0  0  0  0  0  1  0  0  0  0  0  0
  184.4150  178.8670  138.0810 N   0  0  0  0  0  2  0  0  0  0  0  0
  186.6510  177.7700  137.6420 C   0  0  1  0  0  3  0  0  0  0  0  0
  188.8470  178.1800  142.2080 C   0  0  0  0  0  3  0  0  0  0  0  0
  185.6930  178.4700  138.5770 C   0  0  0  0  0  0  0  0  0  0  0  0
  192.3170  177.1500  140.8400 C   0  0  0  0  0  2  0  0  0  0  0  0
  188.0050  177.8420  138.1060 O   0  0  0  0  0  0  0  0  0  0  0  0
  186.0060  178.6710  139.8270 N   0  0  0  0  0  0  0  0  0  0  0  0
  187.2930  178.3290  140.3540 C   0  0  0  0  0  0  0  0  0  0  0  0
  189.8660  177.7950  141.3250 C   0  0  0  0  0  0  0  0  0  0  0  0
  187.5610  178.4510  141.7220 C   0  0  0  0  0  3  0  0  0  0  0  0
  191.2290  177.5240  141.8050 C   0  0  0  0  0  0  0  0  0  0  0  0
  191.8580  177.0190  139.4100 C   0  0  0  0  0  0  0  0  0  0  0  0
  193.7410  175.6340  138.6550 C   0  0  0  0  0  3  0  0  0  0  0  0
  192.8550  176.5970  138.4160 C   0  0  0  0  0  3  0  0  0  0  0  0
  195.0850  174.1020  135.7410 C   0  0  0  0  0  2  0  0  0  0  0  0
  195.9200  174.0700  138.2810 S   0  0  0  0  0  0  0  0  0  0  0  0
  195.6550  171.9400  136.6950 N   0  0  0  0  0  1  0  0  0  0  0  0
  194.0670  174.6560  136.5240 O   0  0  0  0  0  0  0  0  0  0  0  0
  194.7240  175.2480  137.6070 C   0  0  1  0  0  3  0  0  0  0  0  0
  196.0380  173.3370  136.6330 C   0  0  1  0  0  0  0  0  0  0  0  0
  198.7900  172.6040  136.9900 O   0  0  0  0  0  1  0  0  0  0  0  0
  197.7940  172.9190  134.5940 O   0  0  0  0  0  0  0  0  0  0  0  0
  197.7330  173.4810  135.9970 P   0  0  0  0  0  0  0  0  0  0  0  0
  198.1910  175.1130  135.9720 O   0  0  0  0  0  1  0  0  0  0  0  0
  183.3850  179.4730  138.9180 C   0  0  0  0  0  2  0  0  0  0  0  0
  183.1540  178.6360  140.1670 C   0  0  2  0  0  3  0  0  0  0  0  0
  181.8100  178.7210  140.5390 O   0  0  0  0  0  1  0  0  0  0  0  0
  183.5740  179.0670  142.6260 C   0  0  0  0  0  0  0  0  0  0  0  0
  182.3340  178.6740  144.4480 C   0  0  0  0  0  2  0  0  0  0  0  0
  182.4230  178.6080  142.9940 N   0  0  0  0  0  0  0  0  0  0  0  0
  183.6710  179.3030  144.8790 C   0  0  2  0  0  3  0  0  0  0  0  0
  184.3760  179.4890  143.6620 O   0  0  0  0  0  0  0  0  0  0  0  0
  183.9930  179.1190  141.2570 N   0  0  0  0  0  2  0  0  0  0  0  0
  184.4600  178.3970  145.8280 C   0  0  0  0  0  2  0  0  0  0  0  0
  185.9130  178.8510  145.9950 C   0  0  0  0  0  2  0  0  0  0  0  0
  187.7520  177.3570  145.5850 O   0  0  0  0  0  1  0  0  0  0  0  0
  187.4980  178.1330  147.8230 C   0  0  0  0  0  1  0  0  0  0  0  0
  186.8010  177.7280  146.5360 C   0  0  1  0  0  3  0  0  0  0  0  0
  1 14  1  0  0  0  0
  2 17  2  0  0  0  0
  2  1  1  0  0  0  0
  3  1  2  0  0  0  0
  3 13  1  0  0  0  0
  6  9  1  0  0  0  0
  6 30  1  0  0  0  0
  7  5  1  1  0  0  0
  7 11  1  0  0  0  0
  7  9  1  0  0  0  0
  9 12  2  0  0  0  0
 10 16  1  0  0  0  0
 11  3  1  0  0  0  0
 12 13  1  0  0  0  0
 13 15  2  0  0  0  0
 14 16  1  0  0  0  0
 14  8  2  0  0  0  0
 15  8  1  0  0  0  0
 16  4  2  0  0  0  0
 17 10  1  0  0  0  0
 19 18  2  0  0  0  0
 19 17  1  0  0  0  0
 20 23  1  0  0  0  0
 20 25  1  0  0  0  0
 23 24  1  0  0  0  0
 24 21  1  0  0  0  0
 24 18  1  1  0  0  0
 25 22  1  1  0  0  0
 25 21  1  0  0  0  0
 27 28  2  0  0  0  0
 28 25  1  0  0  0  0
 28 26  1  0  0  0  0
 29 28  1  0  0  0  0
 30 31  1  0  0  0  0
 31 32  1  1  0  0  0
 31 38  1  0  0  0  0
 33 35  2  0  0  0  0
 33 37  1  0  0  0  0
 34 36  1  0  0  0  0
 35 34  1  0  0  0  0
 36 39  1  1  0  0  0
 37 36  1  0  0  0  0
 38 33  1  0  0  0  0
 39 40  1  0  0  0  0
 40 43  1  0  0  0  0
 41 43  1  0  0  0  0
 43 42  1  1  0  0  0
M  END
>  <MODEL>
9

>  <REMARK>
 VINA RESULT:      -6.5      2.273      4.965
  Name = 
  9 active torsions:
  status: ('A' for Active; 'I' for Inactive)
    1  A    between atoms: C_1  and  C_34
    2  A    between atoms: C_2  and  C_8
    3  A    between atoms: C_2  and  N_36
    4  A    between atoms: C_8  and  N_18
    5  A    between atoms: C_21  and  C_23
    6  A    between atoms: C_23  and  C_24
    7  A    between atoms: C_24  and  C_31
    8  A    between atoms: P_25  and  C_43
    9  A    between atoms: C_41  and  C_42
                            x       y       z     vdW  Elec       q    Type
                         _______ _______ _______ _____ _____    ______ ____

>  <TORSDO>
F 9

$$$$
