=
 OpenBabel10222418383D

 66 71  0  0  1  0  0  0  0  0999 V2000
  184.0590  177.5080  140.0190 C   0  0  0  0  0  1  0  0  0  0  0  0
  188.5730  177.7140  139.6600 C   0  0  1  0  0  3  0  0  0  0  0  0
  185.3730  178.2350  139.7500 C   0  0  2  0  0  3  0  0  0  0  0  0
  188.3980  178.2040  138.2140 C   0  0  2  0  0  3  0  0  0  0  0  0
  189.9190  177.7950  140.0120 O   0  0  0  0  0  1  0  0  0  0  0  0
  187.7530  178.5240  140.6530 C   0  0  0  0  0  2  0  0  0  0  0  0
  185.8750  177.8760  138.3360 C   0  0  2  0  0  3  0  0  0  0  0  0
  186.3830  177.8790  140.8630 C   0  0  1  0  0  3  0  0  0  0  0  0
  187.0180  178.7900  137.8980 C   0  0  0  0  0  2  0  0  0  0  0  0
  189.5350  176.0070  137.5920 N   0  0  0  0  0  2  0  0  0  0  0  0
  188.4470  177.3320  135.9920 O   0  0  0  0  0  0  0  0  0  0  0  0
  188.7890  177.1670  137.1970 C   0  0  0  0  0  0  0  0  0  0  0  0
  191.6960  174.7030  136.4110 S   0  0  0  0  0  0  0  0  0  0  0  0
  190.0650  174.9960  136.7210 C   0  0  0  0  0  0  0  0  0  0  0  0
  189.2930  174.0580  136.0340 C   0  0  0  0  0  0  0  0  0  0  0  0
  190.0610  173.1510  135.2860 C   0  0  0  0  0  3  0  0  0  0  0  0
  191.4250  173.3920  135.3880 C   0  0  0  0  0  0  0  0  0  0  0  0
  187.7940  173.9320  136.1220 C   0  0  2  0  0  3  0  0  0  0  0  0
  187.3580  174.0150  137.4480 O   0  0  0  0  0  1  0  0  0  0  0  0
  185.7110  172.6300  135.4570 C   0  0  0  0  0  1  0  0  0  0  0  0
  187.2300  172.6760  135.4460 C   0  0  0  0  0  3  0  0  0  0  0  0
  187.8000  171.4100  136.0610 C   0  0  0  0  0  1  0  0  0  0  0  0
  192.4820  172.5570  134.7460 C   0  0  0  0  0  2  0  0  0  0  0  0
  193.0580  170.2520  134.5960 O   0  0  0  0  0  1  0  0  0  0  0  0
  192.6810  171.2520  135.4960 C   0  0  1  0  0  3  0  0  0  0  0  0
  193.7690  171.4400  136.5350 C   0  0  0  0  0  2  0  0  0  0  0  0
  195.0360  170.7270  136.1030 C   0  0  0  0  0  1  0  0  0  0  0  0
  185.8530  178.3440  142.2140 C   0  0  0  0  0  2  0  0  0  0  0  0
  184.6100  179.6500  141.9820 S   0  0  0  0  0  0  0  0  0  0  0  0
  185.3150  178.7440  145.6030 C   0  0  2  0  0  3  0  0  0  0  0  0
  183.4550  179.7360  144.4570 C   0  0  0  0  0  2  0  0  0  0  0  0
  183.8430  178.5480  145.3120 C   0  0  0  0  0  2  0  0  0  0  0  0
  184.7150  180.1590  143.7210 C   0  0  1  0  0  3  0  0  0  0  0  0
  185.8790  179.4440  144.3870 C   0  0  0  0  0  2  0  0  0  0  0  0
  186.0220  177.4150  145.8110 C   0  0  0  0  0  2  0  0  0  0  0  0
  188.5290  176.9020  145.8030 C   0  0  1  0  0  3  0  0  0  0  0  0
  189.9530  177.2650  146.3080 C   0  0  1  0  0  3  0  0  0  0  0  0
  188.0000  177.9880  148.9870 C   0  0  0  0  0  2  0  0  0  0  0  0
  190.1310  177.2850  147.8440 C   0  0  2  0  0  3  0  0  0  0  0  0
  187.1700  177.1870  147.9870 C   0  0  2  0  0  3  0  0  0  0  0  0
  189.3530  178.4420  148.4500 C   0  0  0  0  0  2  0  0  0  0  0  0
  187.3180  175.6880  148.2100 C   0  0  0  0  0  1  0  0  0  0  0  0
  187.3560  177.6210  146.5250 C   0  0  2  0  0  3  0  0  0  0  0  0
  191.5660  177.4320  148.2510 C   0  0  0  0  0  0  0  0  0  0  0  0
  191.8840  178.2990  149.1070 O   0  0  0  0  0  1  0  0  0  0  0  0
  192.5450  176.6210  147.6870 O   0  0  0  0  0  0  0  0  0  0  0  0
  188.4630  177.1310  144.3180 C   0  0  0  0  0  0  0  0  0  0  0  0
  187.9960  176.1320  143.4720 O   0  0  0  0  0  0  0  0  0  0  0  0
  188.8340  178.2340  143.8380 O   0  0  0  0  0  1  0  0  0  0  0  0
  191.0010  176.3710  145.6260 C   0  0  0  0  0  2  0  0  0  0  0  0
  191.6190  177.0420  144.4010 C   0  0  0  0  0  2  0  0  0  0  0  0
  191.8770  176.5860  142.0600 O   0  0  0  0  0  1  0  0  0  0  0  0
  191.9900  176.0220  143.3330 C   0  0  0  0  0  3  0  0  0  0  0  0
  191.1710  174.8960  143.4270 O   0  0  0  0  0  1  0  0  0  0  0  0
  184.8280  177.9110  137.3590 O   0  0  0  0  0  0  0  0  0  0  0  0
  179.9460  173.5610  138.5340 C   0  0  0  0  0  2  0  0  0  0  0  0
  184.1660  175.6560  136.8520 C   0  0  0  0  0  3  0  0  0  0  0  0
  178.9310  174.5770  138.7840 N   0  0  0  0  0  2  0  0  0  0  0  0
  180.2350  176.5970  138.3760 C   0  0  0  0  0  2  0  0  0  0  0  0
  180.7800  173.9320  137.3150 C   0  0  0  0  0  2  0  0  0  0  0  0
  183.0740  174.6490  136.6410 C   0  0  0  0  0  2  0  0  0  0  0  0
  183.8540  176.9170  137.1720 C   0  0  0  0  0  0  0  0  0  0  0  0
  179.5640  175.7240  139.4250 C   0  0  0  0  0  2  0  0  0  0  0  0
  182.4100  177.2770  137.3430 C   0  0  0  0  0  2  0  0  0  0  0  0
  181.9980  174.7520  137.7310 C   0  0  1  0  0  3  0  0  0  0  0  0
  181.7050  176.2190  138.1980 C   0  0  2  0  0  3  0  0  0  0  0  0
  2  5  1  1  0  0  0
  2  6  1  0  0  0  0
  3  1  1  1  0  0  0
  3  8  1  0  0  0  0
  4 12  1  6  0  0  0
  4  2  1  0  0  0  0
  6  8  1  0  0  0  0
  7 55  1  6  0  0  0
  7  3  1  0  0  0  0
  8 28  1  1  0  0  0
  9  4  1  0  0  0  0
  9  7  1  0  0  0  0
 11 12  2  0  0  0  0
 12 10  1  0  0  0  0
 13 14  1  0  0  0  0
 14 10  1  0  0  0  0
 15 18  1  0  0  0  0
 15 14  2  0  0  0  0
 16 17  2  0  0  0  0
 16 15  1  0  0  0  0
 17 13  1  0  0  0  0
 18 19  1  1  0  0  0
 21 20  1  0  0  0  0
 21 22  1  0  0  0  0
 21 18  1  0  0  0  0
 23 17  1  0  0  0  0
 23 25  1  0  0  0  0
 25 24  1  6  0  0  0
 25 26  1  0  0  0  0
 27 26  1  0  0  0  0
 29 28  1  0  0  0  0
 30 35  1  6  0  0  0
 31 32  1  0  0  0  0
 32 30  1  0  0  0  0
 33 29  1  6  0  0  0
 33 34  1  0  0  0  0
 33 31  1  0  0  0  0
 34 30  1  0  0  0  0
 36 47  1  6  0  0  0
 36 37  1  0  0  0  0
 36 43  1  0  0  0  0
 37 50  1  6  0  0  0
 37 39  1  0  0  0  0
 39 44  1  6  0  0  0
 39 41  1  0  0  0  0
 40 42  1  6  0  0  0
 40 38  1  0  0  0  0
 41 38  1  0  0  0  0
 43 35  1  6  0  0  0
 43 40  1  0  0  0  0
 44 45  1  0  0  0  0
 46 44  2  0  0  0  0
 48 47  2  0  0  0  0
 49 47  1  0  0  0  0
 51 50  1  0  0  0  0
 52 53  1  0  0  0  0
 53 54  1  0  0  0  0
 53 51  1  0  0  0  0
 56 58  1  0  0  0  0
 57 62  2  0  0  0  0
 58 63  1  0  0  0  0
 59 63  1  0  0  0  0
 60 65  1  0  0  0  0
 60 56  1  0  0  0  0
 61 57  1  0  0  0  0
 62 64  1  0  0  0  0
 62 55  1  0  0  0  0
 65 61  1  6  0  0  0
 65 66  1  0  0  0  0
 66 64  1  6  0  0  0
 66 59  1  0  0  0  0
M  END
>  <MODEL>
1

>  <REMARK>
 VINA RESULT:      -4.4      0.000      0.000
  Name = 
  19 active torsions:
  status: ('A' for Active; 'I' for Inactive)
    1  A    between atoms: C_1  and  C_32
    2  A    between atoms: C_2  and  C_37
    3  A    between atoms: C_2  and  C_47
    4  A    between atoms: C_3  and  C_13
    5  A    between atoms: C_10  and  C_59
    6  A    between atoms: N_12  and  C_36
    7  A    between atoms: C_13  and  C_60
    8  A    between atoms: C_14  and  C_21
    9  A    between atoms: C_18  and  C_54
   10  A    between atoms: C_19  and  C_47
   11  A    between atoms: C_29  and  C_49
   12  A    between atoms: C_31  and  S_57
   13  A    between atoms: C_33  and  O_46
   14  A    between atoms: C_38  and  C_49
   15  A    between atoms: C_42  and  O_46
   16  A    between atoms: C_53  and  C_55
   17  A    between atoms: C_53  and  S_57
   18  A    between atoms: C_59  and  C_61
   19  A    between atoms: C_61  and  C_66
                            x       y       z     vdW  Elec       q    Type
                         _______ _______ _______ _____ _____    ______ ____

>  <TORSDO>
F 19

$$$$
=
 OpenBabel10222418383D

 66 71  0  0  1  0  0  0  0  0999 V2000
  188.0490  177.5550  140.6070 C   0  0  0  0  0  1  0  0  0  0  0  0
  187.8990  176.0400  136.3370 C   0  0  1  0  0  3  0  0  0  0  0  0
  188.2720  177.6910  139.1040 C   0  0  2  0  0  3  0  0  0  0  0  0
  187.0320  177.2570  135.9750 C   0  0  2  0  0  3  0  0  0  0  0  0
  188.2340  175.3530  135.1720 O   0  0  0  0  0  1  0  0  0  0  0  0
  189.1760  176.4300  137.0660 C   0  0  0  0  0  2  0  0  0  0  0  0
  186.9270  177.9910  138.4120 C   0  0  2  0  0  3  0  0  0  0  0  0
  188.9540  176.4090  138.5780 C   0  0  1  0  0  3  0  0  0  0  0  0
  187.1250  178.4260  136.9620 C   0  0  0  0  0  2  0  0  0  0  0  0
  184.8260  176.2010  136.7000 N   0  0  0  0  0  2  0  0  0  0  0  0
  185.0840  177.2060  134.5960 O   0  0  0  0  0  0  0  0  0  0  0  0
  185.5990  176.8920  135.7070 C   0  0  0  0  0  0  0  0  0  0  0  0
  182.0650  176.5390  136.8640 S   0  0  0  0  0  0  0  0  0  0  0  0
  183.4910  175.6980  136.5450 C   0  0  0  0  0  0  0  0  0  0  0  0
  183.1730  174.4330  136.0480 C   0  0  0  0  0  0  0  0  0  0  0  0
  181.7920  174.2060  135.9540 C   0  0  0  0  0  3  0  0  0  0  0  0
  181.0390  175.2920  136.3860 C   0  0  0  0  0  0  0  0  0  0  0  0
  184.1710  173.4140  135.5630 C   0  0  2  0  0  3  0  0  0  0  0  0
  183.5570  172.1830  135.3150 O   0  0  0  0  0  1  0  0  0  0  0  0
  186.5090  172.4450  135.8390 C   0  0  0  0  0  1  0  0  0  0  0  0
  185.3840  173.2360  136.4860 C   0  0  0  0  0  3  0  0  0  0  0  0
  184.9880  172.6030  137.8090 C   0  0  0  0  0  1  0  0  0  0  0  0
  179.5490  175.3560  136.3510 C   0  0  0  0  0  2  0  0  0  0  0  0
  178.9400  173.2180  135.4990 O   0  0  0  0  0  1  0  0  0  0  0  0
  178.9340  174.0020  136.6560 C   0  0  1  0  0  3  0  0  0  0  0  0
  179.7480  173.3210  137.7380 C   0  0  0  0  0  2  0  0  0  0  0  0
  179.2030  173.6770  139.1080 C   0  0  0  0  0  1  0  0  0  0  0  0
  190.3140  176.2330  139.2430 C   0  0  0  0  0  2  0  0  0  0  0  0
  191.3630  177.6800  138.9150 S   0  0  0  0  0  0  0  0  0  0  0  0
  191.4860  176.6580  142.5710 C   0  0  2  0  0  3  0  0  0  0  0  0
  192.1910  178.6000  141.3510 C   0  0  0  0  0  2  0  0  0  0  0  0
  191.2770  178.1530  142.4720 C   0  0  0  0  0  2  0  0  0  0  0  0
  192.3370  177.4070  140.4220 C   0  0  1  0  0  3  0  0  0  0  0  0
  191.7910  176.1970  141.1630 C   0  0  0  0  0  2  0  0  0  0  0  0
  190.2410  175.9560  143.0880 C   0  0  0  0  0  2  0  0  0  0  0  0
  188.8930  177.1900  144.8800 C   0  0  1  0  0  3  0  0  0  0  0  0
  188.4760  177.3060  146.3720 C   0  0  1  0  0  3  0  0  0  0  0  0
  191.6880  176.2340  146.5750 C   0  0  0  0  0  2  0  0  0  0  0  0
  189.6380  177.4540  147.3810 C   0  0  2  0  0  3  0  0  0  0  0  0
  191.4170  176.6760  145.1390 C   0  0  2  0  0  3  0  0  0  0  0  0
  190.4420  176.1660  147.4510 C   0  0  0  0  0  2  0  0  0  0  0  0
  191.6840  178.1630  144.9500 C   0  0  0  0  0  1  0  0  0  0  0  0
  190.0620  176.2100  144.5840 C   0  0  2  0  0  3  0  0  0  0  0  0
  189.1570  177.7720  148.7640 C   0  0  0  0  0  0  0  0  0  0  0  0
  189.8940  178.4320  149.5430 O   0  0  0  0  0  1  0  0  0  0  0  0
  187.9070  177.3390  149.1920 O   0  0  0  0  0  0  0  0  0  0  0  0
  187.6830  176.8440  144.0580 C   0  0  0  0  0  0  0  0  0  0  0  0
  187.2550  177.6910  143.0430 O   0  0  0  0  0  0  0  0  0  0  0  0
  187.0530  175.7790  144.2910 O   0  0  0  0  0  1  0  0  0  0  0  0
  187.4290  178.4200  146.5440 C   0  0  0  0  0  2  0  0  0  0  0  0
  186.0060  177.9080  146.3330 C   0  0  0  0  0  2  0  0  0  0  0  0
  185.4610  180.2420  146.2200 O   0  0  0  0  0  1  0  0  0  0  0  0
  185.1100  178.9820  145.7310 C   0  0  0  0  0  3  0  0  0  0  0  0
  183.7700  178.7170  146.0200 O   0  0  0  0  0  1  0  0  0  0  0  0
  186.1610  178.9800  139.1120 O   0  0  0  0  0  0  0  0  0  0  0  0
  180.2650  179.1760  142.1670 C   0  0  0  0  0  2  0  0  0  0  0  0
  185.1920  179.0240  141.3120 C   0  0  0  0  0  3  0  0  0  0  0  0
  179.5320  178.5710  141.0620 N   0  0  0  0  0  2  0  0  0  0  0  0
  181.3640  178.1510  139.5090 C   0  0  0  0  0  2  0  0  0  0  0  0
  181.5720  178.4320  142.4080 C   0  0  0  0  0  2  0  0  0  0  0  0
  184.0490  178.6900  142.2240 C   0  0  0  0  0  2  0  0  0  0  0  0
  185.1160  178.7160  140.0130 C   0  0  0  0  0  0  0  0  0  0  0  0
  180.1380  178.9990  139.8070 C   0  0  0  0  0  2  0  0  0  0  0  0
  183.8650  178.0710  139.4990 C   0  0  0  0  0  2  0  0  0  0  0  0
  182.6990  179.0550  141.5890 C   0  0  1  0  0  3  0  0  0  0  0  0
  182.6370  178.8080  140.0430 C   0  0  2  0  0  3  0  0  0  0  0  0
  2  5  1  6  0  0  0
  2  6  1  0  0  0  0
  3  1  1  1  0  0  0
  4 12  1  1  0  0  0
  4  2  1  0  0  0  0
  4  9  1  0  0  0  0
  6  8  1  0  0  0  0
  7  3  1  0  0  0  0
  7 55  1  1  0  0  0
  8  3  1  0  0  0  0
  8 28  1  1  0  0  0
  9  7  1  0  0  0  0
 11 12  2  0  0  0  0
 12 10  1  0  0  0  0
 14 10  1  0  0  0  0
 14 13  1  0  0  0  0
 15 14  2  0  0  0  0
 16 15  1  0  0  0  0
 16 17  2  0  0  0  0
 17 13  1  0  0  0  0
 18 19  1  1  0  0  0
 18 15  1  0  0  0  0
 18 21  1  0  0  0  0
 20 21  1  0  0  0  0
 21 22  1  0  0  0  0
 23 17  1  0  0  0  0
 23 25  1  0  0  0  0
 25 24  1  6  0  0  0
 25 26  1  0  0  0  0
 26 27  1  0  0  0  0
 29 28  1  0  0  0  0
 30 35  1  6  0  0  0
 31 32  1  0  0  0  0
 32 30  1  0  0  0  0
 33 29  1  6  0  0  0
 33 34  1  0  0  0  0
 33 31  1  0  0  0  0
 34 30  1  0  0  0  0
 36 47  1  6  0  0  0
 36 37  1  0  0  0  0
 37 50  1  6  0  0  0
 37 39  1  0  0  0  0
 38 41  1  0  0  0  0
 39 41  1  0  0  0  0
 39 44  1  1  0  0  0
 40 42  1  1  0  0  0
 40 38  1  0  0  0  0
 43 35  1  6  0  0  0
 43 36  1  0  0  0  0
 43 40  1  0  0  0  0
 44 46  2  0  0  0  0
 44 45  1  0  0  0  0
 47 49  1  0  0  0  0
 48 47  2  0  0  0  0
 51 50  1  0  0  0  0
 53 54  1  0  0  0  0
 53 52  1  0  0  0  0
 53 51  1  0  0  0  0
 55 62  1  0  0  0  0
 56 60  1  0  0  0  0
 57 61  1  0  0  0  0
 58 56  1  0  0  0  0
 59 63  1  0  0  0  0
 59 66  1  0  0  0  0
 62 57  2  0  0  0  0
 63 58  1  0  0  0  0
 64 62  1  0  0  0  0
 65 61  1  1  0  0  0
 65 60  1  0  0  0  0
 66 64  1  1  0  0  0
 66 65  1  0  0  0  0
M  END
>  <MODEL>
2

>  <REMARK>
 VINA RESULT:      -4.3      2.886      6.500
  Name = 
  19 active torsions:
  status: ('A' for Active; 'I' for Inactive)
    1  A    between atoms: C_1  and  C_32
    2  A    between atoms: C_2  and  C_37
    3  A    between atoms: C_2  and  C_47
    4  A    between atoms: C_3  and  C_13
    5  A    between atoms: C_10  and  C_59
    6  A    between atoms: N_12  and  C_36
    7  A    between atoms: C_13  and  C_60
    8  A    between atoms: C_14  and  C_21
    9  A    between atoms: C_18  and  C_54
   10  A    between atoms: C_19  and  C_47
   11  A    between atoms: C_29  and  C_49
   12  A    between atoms: C_31  and  S_57
   13  A    between atoms: C_33  and  O_46
   14  A    between atoms: C_38  and  C_49
   15  A    between atoms: C_42  and  O_46
   16  A    between atoms: C_53  and  C_55
   17  A    between atoms: C_53  and  S_57
   18  A    between atoms: C_59  and  C_61
   19  A    between atoms: C_61  and  C_66
                            x       y       z     vdW  Elec       q    Type
                         _______ _______ _______ _____ _____    ______ ____

>  <TORSDO>
F 19

$$$$
=
 OpenBabel10222418383D

 66 71  0  0  1  0  0  0  0  0999 V2000
  189.4980  178.9070  142.7150 C   0  0  0  0  0  1  0  0  0  0  0  0
  189.2120  177.6170  138.3790 C   0  0  1  0  0  3  0  0  0  0  0  0
  189.1250  177.9280  141.6060 C   0  0  2  0  0  3  0  0  0  0  0  0
  190.0430  176.3730  138.7330 C   0  0  2  0  0  3  0  0  0  0  0  0
  188.7590  177.5070  137.0650 O   0  0  0  0  0  1  0  0  0  0  0  0
  188.0160  177.8000  139.3010 C   0  0  0  0  0  2  0  0  0  0  0  0
  190.3960  177.2050  141.1150 C   0  0  2  0  0  3  0  0  0  0  0  0
  188.3890  178.6920  140.4850 C   0  0  1  0  0  3  0  0  0  0  0  0
  190.0550  176.0130  140.2230 C   0  0  0  0  0  2  0  0  0  0  0  0
  191.8530  175.5260  137.1470 N   0  0  0  0  0  2  0  0  0  0  0  0
  192.2450  177.2910  138.6410 O   0  0  0  0  0  0  0  0  0  0  0  0
  191.4410  176.4310  138.1820 C   0  0  0  0  0  0  0  0  0  0  0  0
  194.2100  176.6580  136.1850 S   0  0  0  0  0  0  0  0  0  0  0  0
  193.1740  175.3950  136.6040 C   0  0  0  0  0  0  0  0  0  0  0  0
  193.8260  174.1800  136.3890 C   0  0  0  0  0  0  0  0  0  0  0  0
  195.1290  174.3310  135.8920 C   0  0  0  0  0  3  0  0  0  0  0  0
  195.4850  175.6620  135.7130 C   0  0  0  0  0  0  0  0  0  0  0  0
  193.2660  172.8220  136.7240 C   0  0  2  0  0  3  0  0  0  0  0  0
  193.8840  172.2860  137.8580 O   0  0  0  0  0  1  0  0  0  0  0  0
  192.0210  171.7930  134.7570 C   0  0  0  0  0  1  0  0  0  0  0  0
  193.3100  171.8210  135.5620 C   0  0  0  0  0  3  0  0  0  0  0  0
  193.6610  170.4240  136.0440 C   0  0  0  0  0  1  0  0  0  0  0  0
  196.8250  176.1260  135.2490 C   0  0  0  0  0  2  0  0  0  0  0  0
  199.1120  175.5100  135.0070 O   0  0  0  0  0  1  0  0  0  0  0  0
  197.9020  175.1060  135.5770 C   0  0  1  0  0  3  0  0  0  0  0  0
  198.0530  175.0140  137.0820 C   0  0  0  0  0  2  0  0  0  0  0  0
  198.7150  173.7040  137.4640 C   0  0  0  0  0  1  0  0  0  0  0  0
  187.1020  179.3010  141.0290 C   0  0  0  0  0  2  0  0  0  0  0  0
  186.4420  178.2710  142.3730 S   0  0  0  0  0  0  0  0  0  0  0  0
  182.9290  178.1770  140.9340 C   0  0  2  0  0  3  0  0  0  0  0  0
  184.6910  179.8040  140.9430 C   0  0  0  0  0  2  0  0  0  0  0  0
  183.8290  178.9740  140.0160 C   0  0  0  0  0  2  0  0  0  0  0  0
  184.7960  179.0210  142.2400 C   0  0  1  0  0  3  0  0  0  0  0  0
  183.7450  177.9250  142.1830 C   0  0  0  0  0  2  0  0  0  0  0  0
  182.5240  176.8540  140.3030 C   0  0  0  0  0  2  0  0  0  0  0  0
  180.8080  175.9070  138.6580 C   0  0  1  0  0  3  0  0  0  0  0  0
  179.8020  176.1680  137.5030 C   0  0  1  0  0  3  0  0  0  0  0  0
  182.2830  178.3890  136.8510 C   0  0  0  0  0  2  0  0  0  0  0  0
  180.3930  176.8400  136.2420 C   0  0  2  0  0  3  0  0  0  0  0  0
  182.7800  177.4060  137.9090 C   0  0  2  0  0  3  0  0  0  0  0  0
  180.7930  178.2750  136.5480 C   0  0  0  0  0  2  0  0  0  0  0  0
  183.4070  176.1720  137.2750 C   0  0  0  0  0  1  0  0  0  0  0  0
  181.7530  177.0910  139.0060 C   0  0  2  0  0  3  0  0  0  0  0  0
  179.4220  176.8670  135.1010 C   0  0  0  0  0  0  0  0  0  0  0  0
  179.0250  175.7830  134.5970 O   0  0  0  0  0  1  0  0  0  0  0  0
  178.9630  178.0770  134.5940 O   0  0  0  0  0  0  0  0  0  0  0  0
  180.0510  175.4520  139.8740 C   0  0  0  0  0  0  0  0  0  0  0  0
  179.1820  176.3180  140.5280 O   0  0  0  0  0  1  0  0  0  0  0  0
  180.2040  174.2780  140.3040 O   0  0  0  0  0  0  0  0  0  0  0  0
  179.0470  174.8750  137.1560 C   0  0  0  0  0  2  0  0  0  0  0  0
  179.9930  173.6910  136.9680 C   0  0  0  0  0  2  0  0  0  0  0  0
  180.0080  171.4950  137.9340 O   0  0  0  0  0  1  0  0  0  0  0  0
  179.2660  172.3630  137.1300 C   0  0  0  0  0  3  0  0  0  0  0  0
  179.0360  171.7760  135.8850 O   0  0  0  0  0  1  0  0  0  0  0  0
  191.2330  176.7740  142.1960 O   0  0  0  0  0  0  0  0  0  0  0  0
  188.1050  178.1510  147.8930 C   0  0  0  0  0  2  0  0  0  0  0  0
  191.6790  177.2590  144.5080 C   0  0  0  0  0  3  0  0  0  0  0  0
  186.8630  177.4890  147.5160 N   0  0  0  0  0  2  0  0  0  0  0  0
  187.4850  176.6200  145.3250 C   0  0  0  0  0  2  0  0  0  0  0  0
  189.3020  177.2910  147.5090 C   0  0  0  0  0  2  0  0  0  0  0  0
  191.2450  177.2070  145.9430 C   0  0  0  0  0  2  0  0  0  0  0  0
  190.8750  176.7770  143.5540 C   0  0  0  0  0  0  0  0  0  0  0  0
  186.6610  177.6500  146.0810 C   0  0  0  0  0  2  0  0  0  0  0  0
  189.5390  176.2260  143.9510 C   0  0  0  0  0  2  0  0  0  0  0  0
  189.7820  177.6430  146.1030 C   0  0  1  0  0  3  0  0  0  0  0  0
  188.8500  177.1830  144.9300 C   0  0  2  0  0  3  0  0  0  0  0  0
  2  5  1  6  0  0  0
  2  4  1  0  0  0  0
  2  6  1  0  0  0  0
  3  1  1  1  0  0  0
  4 12  1  1  0  0  0
  4  9  1  0  0  0  0
  6  8  1  0  0  0  0
  7  3  1  0  0  0  0
  7 55  1  1  0  0  0
  8 28  1  1  0  0  0
  8  3  1  0  0  0  0
  9  7  1  0  0  0  0
 10 12  1  0  0  0  0
 12 11  2  0  0  0  0
 13 14  1  0  0  0  0
 14 10  1  0  0  0  0
 15 14  2  0  0  0  0
 15 18  1  0  0  0  0
 16 15  1  0  0  0  0
 17 16  2  0  0  0  0
 17 13  1  0  0  0  0
 18 19  1  1  0  0  0
 20 21  1  0  0  0  0
 21 22  1  0  0  0  0
 21 18  1  0  0  0  0
 23 25  1  0  0  0  0
 23 17  1  0  0  0  0
 25 24  1  6  0  0  0
 25 26  1  0  0  0  0
 26 27  1  0  0  0  0
 28 29  1  0  0  0  0
 30 35  1  6  0  0  0
 30 34  1  0  0  0  0
 31 33  1  0  0  0  0
 32 30  1  0  0  0  0
 32 31  1  0  0  0  0
 33 29  1  6  0  0  0
 34 33  1  0  0  0  0
 36 43  1  0  0  0  0
 36 47  1  1  0  0  0
 37 50  1  6  0  0  0
 37 36  1  0  0  0  0
 38 40  1  0  0  0  0
 39 44  1  6  0  0  0
 39 41  1  0  0  0  0
 39 37  1  0  0  0  0
 40 42  1  6  0  0  0
 40 43  1  0  0  0  0
 41 38  1  0  0  0  0
 43 35  1  1  0  0  0
 45 44  1  0  0  0  0
 46 44  2  0  0  0  0
 47 49  2  0  0  0  0
 47 48  1  0  0  0  0
 51 53  1  0  0  0  0
 51 50  1  0  0  0  0
 53 52  1  0  0  0  0
 54 53  1  0  0  0  0
 55 62  1  0  0  0  0
 57 61  1  0  0  0  0
 58 56  1  0  0  0  0
 59 63  1  0  0  0  0
 60 56  1  0  0  0  0
 62 64  1  0  0  0  0
 62 57  2  0  0  0  0
 63 58  1  0  0  0  0
 65 61  1  6  0  0  0
 65 60  1  0  0  0  0
 66 64  1  1  0  0  0
 66 59  1  0  0  0  0
 66 65  1  0  0  0  0
M  END
>  <MODEL>
3

>  <REMARK>
 VINA RESULT:      -4.1      3.457      9.449
  Name = 
  19 active torsions:
  status: ('A' for Active; 'I' for Inactive)
    1  A    between atoms: C_1  and  C_32
    2  A    between atoms: C_2  and  C_37
    3  A    between atoms: C_2  and  C_47
    4  A    between atoms: C_3  and  C_13
    5  A    between atoms: C_10  and  C_59
    6  A    between atoms: N_12  and  C_36
    7  A    between atoms: C_13  and  C_60
    8  A    between atoms: C_14  and  C_21
    9  A    between atoms: C_18  and  C_54
   10  A    between atoms: C_19  and  C_47
   11  A    between atoms: C_29  and  C_49
   12  A    between atoms: C_31  and  S_57
   13  A    between atoms: C_33  and  O_46
   14  A    between atoms: C_38  and  C_49
   15  A    between atoms: C_42  and  O_46
   16  A    between atoms: C_53  and  C_55
   17  A    between atoms: C_53  and  S_57
   18  A    between atoms: C_59  and  C_61
   19  A    between atoms: C_61  and  C_66
                            x       y       z     vdW  Elec       q    Type
                         _______ _______ _______ _____ _____    ______ ____

>  <TORSDO>
F 19

$$$$
=
 OpenBabel10222418383D

 66 71  0  0  1  0  0  0  0  0999 V2000
  188.0030  177.0990  139.3270 C   0  0  0  0  0  1  0  0  0  0  0  0
  186.9230  174.1300  136.0750 C   0  0  1  0  0  3  0  0  0  0  0  0
  187.9280  176.6350  137.8750 C   0  0  2  0  0  3  0  0  0  0  0  0
  186.0660  175.2220  135.4150 C   0  0  2  0  0  3  0  0  0  0  0  0
  186.9820  173.0220  135.2320 O   0  0  0  0  0  1  0  0  0  0  0  0
  188.3390  174.6010  136.3720 C   0  0  0  0  0  2  0  0  0  0  0  0
  186.4880  176.8200  137.3530 C   0  0  2  0  0  3  0  0  0  0  0  0
  188.4230  175.1750  137.7870 C   0  0  1  0  0  3  0  0  0  0  0  0
  186.4150  176.6540  135.8370 C   0  0  0  0  0  2  0  0  0  0  0  0
  184.0620  174.3780  136.7480 N   0  0  0  0  0  2  0  0  0  0  0  0
  183.8240  175.2790  134.5960 O   0  0  0  0  0  0  0  0  0  0  0  0
  184.5910  174.9660  135.5500 C   0  0  0  0  0  0  0  0  0  0  0  0
  181.6020  174.7340  138.0060 S   0  0  0  0  0  0  0  0  0  0  0  0
  182.7020  173.9800  136.9750 C   0  0  0  0  0  0  0  0  0  0  0  0
  182.0660  172.9230  136.3240 C   0  0  0  0  0  0  0  0  0  0  0  0
  180.7210  172.7720  136.6940 C   0  0  0  0  0  3  0  0  0  0  0  0
  180.3170  173.7080  137.6390 C   0  0  0  0  0  0  0  0  0  0  0  0
  182.6880  172.0580  135.2580 C   0  0  2  0  0  3  0  0  0  0  0  0
  181.7200  171.2980  134.5940 O   0  0  0  0  0  1  0  0  0  0  0  0
  184.7370  170.6750  134.6490 C   0  0  0  0  0  1  0  0  0  0  0  0
  183.8250  171.1600  135.7640 C   0  0  0  0  0  3  0  0  0  0  0  0
  183.2900  169.9810  136.5580 C   0  0  0  0  0  1  0  0  0  0  0  0
  178.9310  173.8230  138.1770 C   0  0  0  0  0  2  0  0  0  0  0  0
  179.5980  173.4600  140.4340 O   0  0  0  0  0  1  0  0  0  0  0  0
  178.9350  174.3620  139.5970 C   0  0  1  0  0  3  0  0  0  0  0  0
  179.6530  175.6970  139.6160 C   0  0  0  0  0  2  0  0  0  0  0  0
  179.4880  176.3620  140.9690 C   0  0  0  0  0  1  0  0  0  0  0  0
  189.8780  175.0910  138.2340 C   0  0  0  0  0  2  0  0  0  0  0  0
  190.8880  176.2790  137.3020 S   0  0  0  0  0  0  0  0  0  0  0  0
  190.9440  177.3740  140.9390 C   0  0  2  0  0  3  0  0  0  0  0  0
  191.8920  178.2440  138.9140 C   0  0  0  0  0  2  0  0  0  0  0  0
  190.9480  178.5950  140.0450 C   0  0  0  0  0  2  0  0  0  0  0  0
  191.8460  176.7320  138.7750 C   0  0  1  0  0  3  0  0  0  0  0  0
  191.1500  176.1940  140.0150 C   0  0  0  0  0  2  0  0  0  0  0  0
  189.6240  177.2300  141.6770 C   0  0  0  0  0  2  0  0  0  0  0  0
  188.5570  177.3770  143.9980 C   0  0  1  0  0  3  0  0  0  0  0  0
  188.6430  177.0490  145.5150 C   0  0  1  0  0  3  0  0  0  0  0  0
  191.8820  177.6320  144.6890 C   0  0  0  0  0  2  0  0  0  0  0  0
  189.9000  177.5800  146.2420 C   0  0  2  0  0  3  0  0  0  0  0  0
  190.9980  178.1020  143.5360 C   0  0  2  0  0  3  0  0  0  0  0  0
  191.1390  176.8420  145.7600 C   0  0  0  0  0  2  0  0  0  0  0  0
  190.5490  179.5450  143.7280 C   0  0  0  0  0  1  0  0  0  0  0  0
  189.8570  177.1360  143.1840 C   0  0  2  0  0  3  0  0  0  0  0  0
  189.8140  177.4130  147.7280 C   0  0  0  0  0  0  0  0  0  0  0  0
  190.4780  176.5030  148.2920 O   0  0  0  0  0  0  0  0  0  0  0  0
  189.0040  178.2510  148.4860 O   0  0  0  0  0  1  0  0  0  0  0  0
  187.4020  176.6240  143.3990 C   0  0  0  0  0  0  0  0  0  0  0  0
  187.2010  175.2830  143.7070 O   0  0  0  0  0  1  0  0  0  0  0  0
  186.6130  177.2100  142.6130 O   0  0  0  0  0  0  0  0  0  0  0  0
  187.3500  177.4840  146.2250 C   0  0  0  0  0  2  0  0  0  0  0  0
  186.9240  178.8960  145.8280 C   0  0  0  0  0  2  0  0  0  0  0  0
  185.2280  178.4840  147.4740 O   0  0  0  0  0  1  0  0  0  0  0  0
  185.5190  179.2140  146.3190 C   0  0  0  0  0  3  0  0  0  0  0  0
  184.5790  178.9270  145.3280 O   0  0  0  0  0  1  0  0  0  0  0  0
  185.9300  178.0860  137.7270 O   0  0  0  0  0  0  0  0  0  0  0  0
  179.8980  180.4500  139.1960 C   0  0  0  0  0  2  0  0  0  0  0  0
  184.5820  178.7410  139.6070 C   0  0  0  0  0  3  0  0  0  0  0  0
  179.2630  179.9260  137.9930 N   0  0  0  0  0  2  0  0  0  0  0  0
  181.1510  178.7620  136.9820 C   0  0  0  0  0  2  0  0  0  0  0  0
  180.8170  179.4020  139.8100 C   0  0  0  0  0  2  0  0  0  0  0  0
  183.2260  178.8960  140.2290 C   0  0  0  0  0  2  0  0  0  0  0  0
  184.6900  178.2770  138.3570 C   0  0  0  0  0  0  0  0  0  0  0  0
  180.2260  179.9660  136.8990 C   0  0  0  0  0  2  0  0  0  0  0  0
  183.4370  177.9550  137.6000 C   0  0  0  0  0  2  0  0  0  0  0  0
  182.2310  179.5390  139.2530 C   0  0  1  0  0  3  0  0  0  0  0  0
  182.4230  179.0910  137.7630 C   0  0  2  0  0  3  0  0  0  0  0  0
  2  5  1  6  0  0  0
  2  6  1  0  0  0  0
  3  1  1  1  0  0  0
  4 12  1  1  0  0  0
  4  9  1  0  0  0  0
  4  2  1  0  0  0  0
  6  8  1  0  0  0  0
  7 55  1  6  0  0  0
  7  3  1  0  0  0  0
  8  3  1  0  0  0  0
  8 28  1  6  0  0  0
  9  7  1  0  0  0  0
 10 14  1  0  0  0  0
 11 12  2  0  0  0  0
 12 10  1  0  0  0  0
 14 13  1  0  0  0  0
 15 16  1  0  0  0  0
 15 14  2  0  0  0  0
 16 17  2  0  0  0  0
 17 13  1  0  0  0  0
 17 23  1  0  0  0  0
 18 19  1  1  0  0  0
 18 21  1  0  0  0  0
 18 15  1  0  0  0  0
 20 21  1  0  0  0  0
 21 22  1  0  0  0  0
 23 25  1  0  0  0  0
 25 26  1  0  0  0  0
 25 24  1  1  0  0  0
 26 27  1  0  0  0  0
 29 28  1  0  0  0  0
 30 35  1  6  0  0  0
 31 32  1  0  0  0  0
 32 30  1  0  0  0  0
 33 29  1  6  0  0  0
 33 31  1  0  0  0  0
 33 34  1  0  0  0  0
 34 30  1  0  0  0  0
 36 47  1  6  0  0  0
 36 37  1  0  0  0  0
 37 50  1  1  0  0  0
 37 39  1  0  0  0  0
 38 41  1  0  0  0  0
 39 44  1  1  0  0  0
 40 42  1  1  0  0  0
 40 38  1  0  0  0  0
 41 39  1  0  0  0  0
 43 35  1  6  0  0  0
 43 40  1  0  0  0  0
 43 36  1  0  0  0  0
 44 45  2  0  0  0  0
 44 46  1  0  0  0  0
 47 48  1  0  0  0  0
 49 47  2  0  0  0  0
 51 50  1  0  0  0  0
 51 53  1  0  0  0  0
 53 52  1  0  0  0  0
 54 53  1  0  0  0  0
 55 62  1  0  0  0  0
 56 60  1  0  0  0  0
 57 61  1  0  0  0  0
 58 56  1  0  0  0  0
 62 57  2  0  0  0  0
 63 59  1  0  0  0  0
 63 58  1  0  0  0  0
 64 66  1  0  0  0  0
 64 62  1  0  0  0  0
 65 60  1  1  0  0  0
 65 61  1  0  0  0  0
 66 59  1  1  0  0  0
 66 65  1  0  0  0  0
M  END
>  <MODEL>
4

>  <REMARK>
 VINA RESULT:      -3.9      2.840      6.958
  Name = 
  19 active torsions:
  status: ('A' for Active; 'I' for Inactive)
    1  A    between atoms: C_1  and  C_32
    2  A    between atoms: C_2  and  C_37
    3  A    between atoms: C_2  and  C_47
    4  A    between atoms: C_3  and  C_13
    5  A    between atoms: C_10  and  C_59
    6  A    between atoms: N_12  and  C_36
    7  A    between atoms: C_13  and  C_60
    8  A    between atoms: C_14  and  C_21
    9  A    between atoms: C_18  and  C_54
   10  A    between atoms: C_19  and  C_47
   11  A    between atoms: C_29  and  C_49
   12  A    between atoms: C_31  and  S_57
   13  A    between atoms: C_33  and  O_46
   14  A    between atoms: C_38  and  C_49
   15  A    between atoms: C_42  and  O_46
   16  A    between atoms: C_53  and  C_55
   17  A    between atoms: C_53  and  S_57
   18  A    between atoms: C_59  and  C_61
   19  A    between atoms: C_61  and  C_66
                            x       y       z     vdW  Elec       q    Type
                         _______ _______ _______ _____ _____    ______ ____

>  <TORSDO>
F 19

$$$$
=
 OpenBabel10222418383D

 66 71  0  0  1  0  0  0  0  0999 V2000
  187.9740  178.4790  135.4460 C   0  0  0  0  0  1  0  0  0  0  0  0
  187.6090  174.4150  137.4220 C   0  0  1  0  0  3  0  0  0  0  0  0
  187.9300  176.9540  135.4280 C   0  0  2  0  0  3  0  0  0  0  0  0
  186.4060  174.1220  136.5110 C   0  0  2  0  0  3  0  0  0  0  0  0
  187.9390  173.2620  138.1300 O   0  0  0  0  0  1  0  0  0  0  0  0
  188.8280  174.8850  136.6440 C   0  0  0  0  0  2  0  0  0  0  0  0
  186.4670  176.4830  135.5560 C   0  0  2  0  0  3  0  0  0  0  0  0
  188.8440  176.4110  136.5490 C   0  0  1  0  0  3  0  0  0  0  0  0
  186.3280  174.9930  135.2520 C   0  0  0  0  0  2  0  0  0  0  0  0
  183.9870  173.3580  136.7740 N   0  0  0  0  0  2  0  0  0  0  0  0
  184.9950  174.8210  138.3050 O   0  0  0  0  0  0  0  0  0  0  0  0
  185.0980  174.1290  137.2530 C   0  0  0  0  0  0  0  0  0  0  0  0
  181.8470  174.6680  137.9850 S   0  0  0  0  0  0  0  0  0  0  0  0
  182.6570  173.3510  137.3130 C   0  0  0  0  0  0  0  0  0  0  0  0
  181.8060  172.2440  137.3120 C   0  0  0  0  0  0  0  0  0  0  0  0
  180.5430  172.5160  137.8590 C   0  0  0  0  0  3  0  0  0  0  0  0
  180.4170  173.8310  138.2910 C   0  0  0  0  0  0  0  0  0  0  0  0
  182.1310  170.8990  136.7160 C   0  0  2  0  0  3  0  0  0  0  0  0
  183.3350  170.3990  137.2220 O   0  0  0  0  0  1  0  0  0  0  0  0
  183.5450  170.8420  134.6000 C   0  0  0  0  0  1  0  0  0  0  0  0
  182.1410  170.8800  135.1820 C   0  0  0  0  0  3  0  0  0  0  0  0
  181.3630  172.0510  134.6060 C   0  0  0  0  0  1  0  0  0  0  0  0
  179.1710  174.4180  138.8640 C   0  0  0  0  0  2  0  0  0  0  0  0
  179.2550  172.8720  140.6740 O   0  0  0  0  0  1  0  0  0  0  0  0
  179.1180  174.2290  140.3700 C   0  0  1  0  0  3  0  0  0  0  0  0
  180.2490  175.0120  141.0070 C   0  0  0  0  0  2  0  0  0  0  0  0
  179.8030  176.4290  141.3080 C   0  0  0  0  0  1  0  0  0  0  0  0
  190.2840  176.8450  136.3020 C   0  0  0  0  0  2  0  0  0  0  0  0
  191.3890  176.0640  137.5140 S   0  0  0  0  0  0  0  0  0  0  0  0
  190.2600  177.3650  140.8990 C   0  0  2  0  0  3  0  0  0  0  0  0
  189.8030  177.9890  138.6280 C   0  0  0  0  0  2  0  0  0  0  0  0
  189.1330  177.5140  139.9000 C   0  0  0  0  0  2  0  0  0  0  0  0
  191.2230  177.4530  138.6700 C   0  0  1  0  0  3  0  0  0  0  0  0
  191.4710  176.9630  140.0870 C   0  0  0  0  0  2  0  0  0  0  0  0
  189.9490  176.2950  141.9320 C   0  0  0  0  0  2  0  0  0  0  0  0
  189.9180  176.5160  144.4810 C   0  0  1  0  0  3  0  0  0  0  0  0
  189.4220  177.2900  145.7330 C   0  0  1  0  0  3  0  0  0  0  0  0
  186.7910  177.5430  143.6060 C   0  0  0  0  0  2  0  0  0  0  0  0
  187.8870  177.4260  145.8700 C   0  0  2  0  0  3  0  0  0  0  0  0
  187.7580  176.4970  143.0560 C   0  0  2  0  0  3  0  0  0  0  0  0
  187.3400  178.3390  144.7840 C   0  0  0  0  0  2  0  0  0  0  0  0
  187.4630  175.1120  143.6180 C   0  0  0  0  0  1  0  0  0  0  0  0
  189.2370  176.9020  143.1390 C   0  0  2  0  0  3  0  0  0  0  0  0
  187.4790  177.9910  147.1960 C   0  0  0  0  0  0  0  0  0  0  0  0
  186.2970  178.3940  147.3630 O   0  0  0  0  0  0  0  0  0  0  0  0
  188.3960  178.0790  148.2370 O   0  0  0  0  0  1  0  0  0  0  0  0
  191.4120  176.6520  144.3810 C   0  0  0  0  0  0  0  0  0  0  0  0
  192.0180  177.8930  144.5380 O   0  0  0  0  0  1  0  0  0  0  0  0
  192.1190  175.6350  144.1540 O   0  0  0  0  0  0  0  0  0  0  0  0
  190.0550  176.7010  147.0050 C   0  0  0  0  0  2  0  0  0  0  0  0
  191.4680  177.2300  147.2410 C   0  0  0  0  0  2  0  0  0  0  0  0
  192.9990  177.0210  149.0750 O   0  0  0  0  0  1  0  0  0  0  0  0
  192.2750  176.2930  148.1290 C   0  0  0  0  0  3  0  0  0  0  0  0
  193.1440  175.5190  147.3590 O   0  0  0  0  0  1  0  0  0  0  0  0
  185.5770  177.2320  134.7190 O   0  0  0  0  0  0  0  0  0  0  0  0
  179.4420  177.6420  137.2330 C   0  0  0  0  0  2  0  0  0  0  0  0
  183.4300  176.1570  134.6040 C   0  0  0  0  0  3  0  0  0  0  0  0
  179.5270  179.0650  137.5370 N   0  0  0  0  0  2  0  0  0  0  0  0
  181.7530  179.5580  136.6730 C   0  0  0  0  0  2  0  0  0  0  0  0
  180.0160  177.3590  135.8520 C   0  0  0  0  0  2  0  0  0  0  0  0
  181.9360  176.2470  134.7070 C   0  0  0  0  0  2  0  0  0  0  0  0
  184.1770  177.2440  134.8230 C   0  0  0  0  0  0  0  0  0  0  0  0
  180.8980  179.3820  137.9180 C   0  0  0  0  0  2  0  0  0  0  0  0
  183.4910  178.5220  135.2020 C   0  0  0  0  0  2  0  0  0  0  0  0
  181.5060  177.0400  135.9480 C   0  0  1  0  0  3  0  0  0  0  0  0
  182.4420  178.2500  136.2850 C   0  0  2  0  0  3  0  0  0  0  0  0
  2  5  1  6  0  0  0
  3  1  1  1  0  0  0
  3  7  1  0  0  0  0
  3  8  1  0  0  0  0
  4 12  1  1  0  0  0
  4  2  1  0  0  0  0
  6  2  1  0  0  0  0
  7 55  1  6  0  0  0
  8 28  1  6  0  0  0
  8  6  1  0  0  0  0
  9  7  1  0  0  0  0
  9  4  1  0  0  0  0
 10 12  1  0  0  0  0
 10 14  1  0  0  0  0
 12 11  2  0  0  0  0
 13 17  1  0  0  0  0
 14 13  1  0  0  0  0
 15 14  2  0  0  0  0
 15 16  1  0  0  0  0
 16 17  2  0  0  0  0
 17 23  1  0  0  0  0
 18 19  1  1  0  0  0
 18 15  1  0  0  0  0
 20 21  1  0  0  0  0
 21 18  1  0  0  0  0
 22 21  1  0  0  0  0
 23 25  1  0  0  0  0
 25 24  1  6  0  0  0
 25 26  1  0  0  0  0
 26 27  1  0  0  0  0
 28 29  1  0  0  0  0
 30 35  1  1  0  0  0
 31 33  1  0  0  0  0
 31 32  1  0  0  0  0
 32 30  1  0  0  0  0
 33 29  1  6  0  0  0
 33 34  1  0  0  0  0
 34 30  1  0  0  0  0
 36 47  1  6  0  0  0
 36 37  1  0  0  0  0
 37 39  1  0  0  0  0
 37 50  1  1  0  0  0
 38 41  1  0  0  0  0
 39 44  1  1  0  0  0
 40 43  1  0  0  0  0
 40 38  1  0  0  0  0
 40 42  1  1  0  0  0
 41 39  1  0  0  0  0
 43 35  1  6  0  0  0
 43 36  1  0  0  0  0
 44 45  2  0  0  0  0
 44 46  1  0  0  0  0
 47 48  1  0  0  0  0
 49 47  2  0  0  0  0
 50 51  1  0  0  0  0
 51 53  1  0  0  0  0
 53 52  1  0  0  0  0
 54 53  1  0  0  0  0
 55 62  1  0  0  0  0
 56 58  1  0  0  0  0
 57 61  1  0  0  0  0
 57 62  2  0  0  0  0
 58 63  1  0  0  0  0
 59 63  1  0  0  0  0
 60 65  1  0  0  0  0
 60 56  1  0  0  0  0
 62 64  1  0  0  0  0
 65 61  1  6  0  0  0
 65 66  1  0  0  0  0
 66 64  1  6  0  0  0
 66 59  1  0  0  0  0
M  END
>  <MODEL>
5

>  <REMARK>
 VINA RESULT:      -2.8      3.017      6.774
  Name = 
  19 active torsions:
  status: ('A' for Active; 'I' for Inactive)
    1  A    between atoms: C_1  and  C_32
    2  A    between atoms: C_2  and  C_37
    3  A    between atoms: C_2  and  C_47
    4  A    between atoms: C_3  and  C_13
    5  A    between atoms: C_10  and  C_59
    6  A    between atoms: N_12  and  C_36
    7  A    between atoms: C_13  and  C_60
    8  A    between atoms: C_14  and  C_21
    9  A    between atoms: C_18  and  C_54
   10  A    between atoms: C_19  and  C_47
   11  A    between atoms: C_29  and  C_49
   12  A    between atoms: C_31  and  S_57
   13  A    between atoms: C_33  and  O_46
   14  A    between atoms: C_38  and  C_49
   15  A    between atoms: C_42  and  O_46
   16  A    between atoms: C_53  and  C_55
   17  A    between atoms: C_53  and  S_57
   18  A    between atoms: C_59  and  C_61
   19  A    between atoms: C_61  and  C_66
                            x       y       z     vdW  Elec       q    Type
                         _______ _______ _______ _____ _____    ______ ____

>  <TORSDO>
F 19

$$$$
=
 OpenBabel10222418383D

 66 71  0  0  1  0  0  0  0  0999 V2000
  190.2620  175.6010  138.9380 C   0  0  0  0  0  1  0  0  0  0  0  0
  187.2720  177.9370  136.4580 C   0  0  1  0  0  3  0  0  0  0  0  0
  189.6590  176.8900  138.3890 C   0  0  2  0  0  3  0  0  0  0  0  0
  186.8550  178.6860  137.7340 C   0  0  2  0  0  3  0  0  0  0  0  0
  186.6420  178.5180  135.3590 O   0  0  0  0  0  1  0  0  0  0  0  0
  188.7770  177.9590  136.2350 C   0  0  0  0  0  2  0  0  0  0  0  0
  188.3700  177.2230  139.1680 C   0  0  2  0  0  3  0  0  0  0  0  0
  189.4280  176.7310  136.8700 C   0  0  1  0  0  3  0  0  0  0  0  0
  187.8840  178.6400  138.8700 C   0  0  0  0  0  2  0  0  0  0  0  0
  184.5210  179.2810  138.5710 N   0  0  0  0  0  2  0  0  0  0  0  0
  185.2160  177.0550  138.3260 O   0  0  0  0  0  0  0  0  0  0  0  0
  185.4920  178.2830  138.2260 C   0  0  0  0  0  0  0  0  0  0  0  0
  182.8740  177.9770  140.4030 S   0  0  0  0  0  0  0  0  0  0  0  0
  183.2280  179.0490  139.1500 C   0  0  0  0  0  0  0  0  0  0  0  0
  182.0640  179.7290  138.7890 C   0  0  0  0  0  0  0  0  0  0  0  0
  180.9430  179.3460  139.5410 C   0  0  0  0  0  3  0  0  0  0  0  0
  181.2360  178.3630  140.4780 C   0  0  0  0  0  0  0  0  0  0  0  0
  181.9840  180.8340  137.7670 C   0  0  2  0  0  3  0  0  0  0  0  0
  181.9050  182.0870  138.3820 O   0  0  0  0  0  1  0  0  0  0  0  0
  181.2660  179.8340  135.5390 C   0  0  0  0  0  1  0  0  0  0  0  0
  180.8520  180.6610  136.7460 C   0  0  0  0  0  3  0  0  0  0  0  0
  180.2970  182.0020  136.3000 C   0  0  0  0  0  1  0  0  0  0  0  0
  180.2550  177.8020  141.4520 C   0  0  0  0  0  2  0  0  0  0  0  0
  180.1510  177.3190  143.7810 O   0  0  0  0  0  1  0  0  0  0  0  0
  180.5320  178.2980  142.8600 C   0  0  1  0  0  3  0  0  0  0  0  0
  182.0150  178.5810  143.0000 C   0  0  0  0  0  2  0  0  0  0  0  0
  182.3040  179.2110  144.3490 C   0  0  0  0  0  1  0  0  0  0  0  0
  190.7570  176.4930  136.1640 C   0  0  0  0  0  2  0  0  0  0  0  0
  191.1890  174.7290  136.2200 S   0  0  0  0  0  0  0  0  0  0  0  0
  194.5260  173.8670  134.6250 C   0  0  2  0  0  3  0  0  0  0  0  0
  193.3960  175.9210  135.1380 C   0  0  0  0  0  2  0  0  0  0  0  0
  194.6640  175.1440  135.4240 C   0  0  0  0  0  2  0  0  0  0  0  0
  192.3290  174.8880  134.8180 C   0  0  1  0  0  3  0  0  0  0  0  0
  193.0440  173.5650  134.5970 C   0  0  0  0  0  2  0  0  0  0  0  0
  195.2770  172.7190  135.2780 C   0  0  0  0  0  2  0  0  0  0  0  0
  195.6290  173.8830  137.5300 C   0  0  1  0  0  3  0  0  0  0  0  0
  196.5830  174.2120  138.7110 C   0  0  1  0  0  3  0  0  0  0  0  0
  198.6740  174.2050  136.0400 C   0  0  0  0  0  2  0  0  0  0  0  0
  197.9010  174.9230  138.3270 C   0  0  2  0  0  3  0  0  0  0  0  0
  197.2370  174.2040  135.5270 C   0  0  2  0  0  3  0  0  0  0  0  0
  198.7990  173.9790  137.5420 C   0  0  0  0  0  2  0  0  0  0  0  0
  196.6910  175.6190  135.3850 C   0  0  0  0  0  1  0  0  0  0  0  0
  196.3010  173.2470  136.2810 C   0  0  2  0  0  3  0  0  0  0  0  0
  198.6660  175.3950  139.5250 C   0  0  0  0  0  0  0  0  0  0  0  0
  198.8480  176.6300  139.7000 O   0  0  0  0  0  0  0  0  0  0  0  0
  199.1800  174.4820  140.4390 O   0  0  0  0  0  1  0  0  0  0  0  0
  194.5080  173.0170  138.0320 C   0  0  0  0  0  0  0  0  0  0  0  0
  194.7770  171.7930  138.6320 O   0  0  0  0  0  1  0  0  0  0  0  0
  193.3160  173.4040  137.9090 O   0  0  0  0  0  0  0  0  0  0  0  0
  195.8240  174.9790  139.8070 C   0  0  0  0  0  2  0  0  0  0  0  0
  195.2800  176.3140  139.3020 C   0  0  0  0  0  2  0  0  0  0  0  0
  193.2160  177.0860  138.3550 O   0  0  0  0  0  1  0  0  0  0  0  0
  193.7650  176.3850  139.4310 C   0  0  0  0  0  3  0  0  0  0  0  0
  193.4060  177.0000  140.6310 O   0  0  0  0  0  1  0  0  0  0  0  0
  188.5280  177.0550  140.5820 O   0  0  0  0  0  0  0  0  0  0  0  0
  185.2830  178.3330  146.2370 C   0  0  0  0  0  2  0  0  0  0  0  0
  186.5000  178.0620  141.3920 C   0  0  0  0  0  3  0  0  0  0  0  0
  186.4800  178.3390  147.0680 N   0  0  0  0  0  2  0  0  0  0  0  0
  188.1880  177.9720  145.3680 C   0  0  0  0  0  2  0  0  0  0  0  0
  185.5290  179.1020  144.9460 C   0  0  0  0  0  2  0  0  0  0  0  0
  185.7670  178.7890  142.4800 C   0  0  0  0  0  2  0  0  0  0  0  0
  187.7790  177.7160  141.5710 C   0  0  0  0  0  0  0  0  0  0  0  0
  187.4260  177.3660  146.5360 C   0  0  0  0  0  2  0  0  0  0  0  0
  188.4350  178.0380  142.8790 C   0  0  0  0  0  2  0  0  0  0  0  0
  186.0420  178.1650  143.8560 C   0  0  1  0  0  3  0  0  0  0  0  0
  187.5100  177.6480  144.0360 C   0  0  2  0  0  3  0  0  0  0  0  0
  2  5  1  6  0  0  0
  2  4  1  0  0  0  0
  3  1  1  1  0  0  0
  3  7  1  0  0  0  0
  4 12  1  1  0  0  0
  4  9  1  0  0  0  0
  6  2  1  0  0  0  0
  6  8  1  0  0  0  0
  7 55  1  1  0  0  0
  8 28  1  6  0  0  0
  8  3  1  0  0  0  0
  9  7  1  0  0  0  0
 10 14  1  0  0  0  0
 12 11  2  0  0  0  0
 12 10  1  0  0  0  0
 13 17  1  0  0  0  0
 14 13  1  0  0  0  0
 15 14  2  0  0  0  0
 15 16  1  0  0  0  0
 16 17  2  0  0  0  0
 17 23  1  0  0  0  0
 18 19  1  1  0  0  0
 18 15  1  0  0  0  0
 20 21  1  0  0  0  0
 21 18  1  0  0  0  0
 22 21  1  0  0  0  0
 23 25  1  0  0  0  0
 25 26  1  0  0  0  0
 25 24  1  1  0  0  0
 26 27  1  0  0  0  0
 28 29  1  0  0  0  0
 30 35  1  1  0  0  0
 30 32  1  0  0  0  0
 31 32  1  0  0  0  0
 33 31  1  0  0  0  0
 33 29  1  1  0  0  0
 34 30  1  0  0  0  0
 34 33  1  0  0  0  0
 36 47  1  1  0  0  0
 36 37  1  0  0  0  0
 37 50  1  1  0  0  0
 38 41  1  0  0  0  0
 39 37  1  0  0  0  0
 39 44  1  1  0  0  0
 40 42  1  1  0  0  0
 40 38  1  0  0  0  0
 40 43  1  0  0  0  0
 41 39  1  0  0  0  0
 43 35  1  6  0  0  0
 43 36  1  0  0  0  0
 44 45  2  0  0  0  0
 44 46  1  0  0  0  0
 47 48  1  0  0  0  0
 49 47  2  0  0  0  0
 51 53  1  0  0  0  0
 51 50  1  0  0  0  0
 52 53  1  0  0  0  0
 53 54  1  0  0  0  0
 55 62  1  0  0  0  0
 56 58  1  0  0  0  0
 57 62  2  0  0  0  0
 57 61  1  0  0  0  0
 59 63  1  0  0  0  0
 60 56  1  0  0  0  0
 62 64  1  0  0  0  0
 63 58  1  0  0  0  0
 65 61  1  6  0  0  0
 65 66  1  0  0  0  0
 65 60  1  0  0  0  0
 66 64  1  6  0  0  0
 66 59  1  0  0  0  0
M  END
>  <MODEL>
6

>  <REMARK>
 VINA RESULT:      -2.8      3.709     10.573
  Name = 
  19 active torsions:
  status: ('A' for Active; 'I' for Inactive)
    1  A    between atoms: C_1  and  C_32
    2  A    between atoms: C_2  and  C_37
    3  A    between atoms: C_2  and  C_47
    4  A    between atoms: C_3  and  C_13
    5  A    between atoms: C_10  and  C_59
    6  A    between atoms: N_12  and  C_36
    7  A    between atoms: C_13  and  C_60
    8  A    between atoms: C_14  and  C_21
    9  A    between atoms: C_18  and  C_54
   10  A    between atoms: C_19  and  C_47
   11  A    between atoms: C_29  and  C_49
   12  A    between atoms: C_31  and  S_57
   13  A    between atoms: C_33  and  O_46
   14  A    between atoms: C_38  and  C_49
   15  A    between atoms: C_42  and  O_46
   16  A    between atoms: C_53  and  C_55
   17  A    between atoms: C_53  and  S_57
   18  A    between atoms: C_59  and  C_61
   19  A    between atoms: C_61  and  C_66
                            x       y       z     vdW  Elec       q    Type
                         _______ _______ _______ _____ _____    ______ ____

>  <TORSDO>
F 19

$$$$
=
 OpenBabel10222418383D

 66 71  0  0  1  0  0  0  0  0999 V2000
  186.1010  177.9260  136.3870 C   0  0  0  0  0  1  0  0  0  0  0  0
  183.3690  174.8520  138.2940 C   0  0  1  0  0  3  0  0  0  0  0  0
  184.7790  177.1770  136.5250 C   0  0  2  0  0  3  0  0  0  0  0  0
  182.3700  175.9810  138.5940 C   0  0  2  0  0  3  0  0  0  0  0  0
  182.7860  173.6270  138.6140 O   0  0  0  0  0  1  0  0  0  0  0  0
  183.8020  174.8290  136.8360 C   0  0  0  0  0  2  0  0  0  0  0  0
  183.9950  177.7410  137.7280 C   0  0  2  0  0  3  0  0  0  0  0  0
  185.0680  175.6640  136.6430 C   0  0  1  0  0  3  0  0  0  0  0  0
  182.5520  177.2410  137.7420 C   0  0  0  0  0  2  0  0  0  0  0  0
  182.6150  177.6520  140.5060 N   0  0  0  0  0  2  0  0  0  0  0  0
  181.9630  175.4310  140.8810 O   0  0  0  0  0  0  0  0  0  0  0  0
  182.3020  176.3250  140.0570 C   0  0  0  0  0  0  0  0  0  0  0  0
  184.0970  178.2040  142.8000 S   0  0  0  0  0  0  0  0  0  0  0  0
  182.6960  178.0940  141.8690 C   0  0  0  0  0  0  0  0  0  0  0  0
  181.6130  178.5560  142.6180 C   0  0  0  0  0  0  0  0  0  0  0  0
  181.9700  178.9720  143.9100 C   0  0  0  0  0  3  0  0  0  0  0  0
  183.3280  178.8240  144.1640 C   0  0  0  0  0  0  0  0  0  0  0  0
  180.2010  178.6990  142.1100 C   0  0  2  0  0  3  0  0  0  0  0  0
  179.5540  177.4600  142.0620 O   0  0  0  0  0  1  0  0  0  0  0  0
  179.1900  180.6400  140.8110 C   0  0  0  0  0  1  0  0  0  0  0  0
  180.0920  179.4170  140.7590 C   0  0  0  0  0  3  0  0  0  0  0  0
  179.6350  178.4720  139.6620 C   0  0  0  0  0  1  0  0  0  0  0  0
  184.0010  179.2330  145.4310 C   0  0  0  0  0  2  0  0  0  0  0  0
  186.0320  178.2480  144.6720 O   0  0  0  0  0  1  0  0  0  0  0  0
  185.1590  178.3070  145.7620 C   0  0  1  0  0  3  0  0  0  0  0  0
  185.8920  178.8460  146.9740 C   0  0  0  0  0  2  0  0  0  0  0  0
  187.3900  178.7050  146.7880 C   0  0  0  0  0  1  0  0  0  0  0  0
  185.7620  175.1670  135.3810 C   0  0  0  0  0  2  0  0  0  0  0  0
  185.1230  173.5300  134.9180 S   0  0  0  0  0  0  0  0  0  0  0  0
  188.7020  173.4380  136.1870 C   0  0  2  0  0  3  0  0  0  0  0  0
  187.3370  171.9300  134.9130 C   0  0  0  0  0  2  0  0  0  0  0  0
  188.6220  172.7300  134.8520 C   0  0  0  0  0  2  0  0  0  0  0  0
  186.4160  172.6770  135.8630 C   0  0  1  0  0  3  0  0  0  0  0  0
  187.2680  173.7040  136.5920 C   0  0  0  0  0  2  0  0  0  0  0  0
  189.4610  174.7500  136.0760 C   0  0  0  0  0  2  0  0  0  0  0  0
  191.3720  175.9010  137.3290 C   0  0  1  0  0  3  0  0  0  0  0  0
  192.6860  175.7650  138.1460 C   0  0  1  0  0  3  0  0  0  0  0  0
  192.9140  173.2050  135.9320 C   0  0  0  0  0  2  0  0  0  0  0  0
  193.8310  174.9950  137.4480 C   0  0  2  0  0  3  0  0  0  0  0  0
  191.7790  174.1260  135.4900 C   0  0  2  0  0  3  0  0  0  0  0  0
  193.4710  173.5240  137.3140 C   0  0  0  0  0  2  0  0  0  0  0  0
  192.2850  175.2480  134.5940 C   0  0  0  0  0  1  0  0  0  0  0  0
  190.8740  174.6020  136.6360 C   0  0  2  0  0  3  0  0  0  0  0  0
  195.1230  175.0870  138.2000 C   0  0  0  0  0  0  0  0  0  0  0  0
  196.0260  175.8660  137.7940 O   0  0  0  0  0  0  0  0  0  0  0  0
  195.3330  174.3150  139.3370 O   0  0  0  0  0  1  0  0  0  0  0  0
  190.3030  176.4800  138.2120 C   0  0  0  0  0  0  0  0  0  0  0  0
  189.7040  177.6930  137.8920 O   0  0  0  0  0  0  0  0  0  0  0  0
  189.9460  175.8620  139.2500 O   0  0  0  0  0  1  0  0  0  0  0  0
  193.1490  177.1470  138.6380 C   0  0  0  0  0  2  0  0  0  0  0  0
  193.3360  177.1840  140.1530 C   0  0  0  0  0  2  0  0  0  0  0  0
  191.4060  178.4340  140.8370 O   0  0  0  0  0  1  0  0  0  0  0  0
  192.0000  177.1700  140.8820 C   0  0  0  0  0  3  0  0  0  0  0  0
  192.1720  176.7740  142.2090 O   0  0  0  0  0  1  0  0  0  0  0  0
  184.0100  179.1730  137.7660 O   0  0  0  0  0  0  0  0  0  0  0  0
  179.5700  184.0940  137.3150 C   0  0  0  0  0  2  0  0  0  0  0  0
  182.7770  180.7160  139.1380 C   0  0  0  0  0  3  0  0  0  0  0  0
  179.0090  183.6400  136.0480 N   0  0  0  0  0  2  0  0  0  0  0  0
  180.3110  181.6070  135.7060 C   0  0  0  0  0  2  0  0  0  0  0  0
  179.7710  182.9160  138.2590 C   0  0  0  0  0  2  0  0  0  0  0  0
  181.5510  181.5520  139.3560 C   0  0  0  0  0  2  0  0  0  0  0  0
  182.8990  179.9940  138.0190 C   0  0  0  0  0  0  0  0  0  0  0  0
  180.0730  183.0400  135.2530 C   0  0  0  0  0  2  0  0  0  0  0  0
  181.8090  180.0720  136.9930 C   0  0  0  0  0  2  0  0  0  0  0  0
  181.1680  182.3270  138.0870 C   0  0  1  0  0  3  0  0  0  0  0  0
  181.4160  181.5340  136.7590 C   0  0  2  0  0  3  0  0  0  0  0  0
  2  4  1  0  0  0  0
  2  5  1  6  0  0  0
  3  1  1  1  0  0  0
  3  8  1  0  0  0  0
  3  7  1  0  0  0  0
  4 12  1  1  0  0  0
  6  2  1  0  0  0  0
  7  9  1  0  0  0  0
  7 55  1  6  0  0  0
  8 28  1  6  0  0  0
  8  6  1  0  0  0  0
  9  4  1  0  0  0  0
 10 14  1  0  0  0  0
 12 10  1  0  0  0  0
 12 11  2  0  0  0  0
 13 17  1  0  0  0  0
 14 15  2  0  0  0  0
 14 13  1  0  0  0  0
 15 16  1  0  0  0  0
 16 17  2  0  0  0  0
 17 23  1  0  0  0  0
 18 19  1  6  0  0  0
 18 15  1  0  0  0  0
 21 20  1  0  0  0  0
 21 18  1  0  0  0  0
 22 21  1  0  0  0  0
 23 25  1  0  0  0  0
 25 24  1  6  0  0  0
 25 26  1  0  0  0  0
 27 26  1  0  0  0  0
 29 28  1  0  0  0  0
 30 35  1  6  0  0  0
 30 34  1  0  0  0  0
 31 33  1  0  0  0  0
 32 31  1  0  0  0  0
 32 30  1  0  0  0  0
 33 29  1  6  0  0  0
 33 34  1  0  0  0  0
 36 37  1  0  0  0  0
 36 47  1  1  0  0  0
 37 50  1  6  0  0  0
 38 41  1  0  0  0  0
 39 37  1  0  0  0  0
 39 44  1  1  0  0  0
 40 42  1  1  0  0  0
 40 38  1  0  0  0  0
 40 43  1  0  0  0  0
 41 39  1  0  0  0  0
 43 35  1  6  0  0  0
 43 36  1  0  0  0  0
 44 46  1  0  0  0  0
 45 44  2  0  0  0  0
 47 49  1  0  0  0  0
 48 47  2  0  0  0  0
 50 51  1  0  0  0  0
 51 53  1  0  0  0  0
 52 53  1  0  0  0  0
 53 54  1  0  0  0  0
 55 62  1  0  0  0  0
 56 60  1  0  0  0  0
 57 61  1  0  0  0  0
 58 56  1  0  0  0  0
 62 57  2  0  0  0  0
 63 59  1  0  0  0  0
 63 58  1  0  0  0  0
 64 62  1  0  0  0  0
 65 60  1  1  0  0  0
 65 61  1  0  0  0  0
 66 59  1  6  0  0  0
 66 64  1  0  0  0  0
 66 65  1  0  0  0  0
M  END
>  <MODEL>
7

>  <REMARK>
 VINA RESULT:      -2.7      3.515      9.615
  Name = 
  19 active torsions:
  status: ('A' for Active; 'I' for Inactive)
    1  A    between atoms: C_1  and  C_32
    2  A    between atoms: C_2  and  C_37
    3  A    between atoms: C_2  and  C_47
    4  A    between atoms: C_3  and  C_13
    5  A    between atoms: C_10  and  C_59
    6  A    between atoms: N_12  and  C_36
    7  A    between atoms: C_13  and  C_60
    8  A    between atoms: C_14  and  C_21
    9  A    between atoms: C_18  and  C_54
   10  A    between atoms: C_19  and  C_47
   11  A    between atoms: C_29  and  C_49
   12  A    between atoms: C_31  and  S_57
   13  A    between atoms: C_33  and  O_46
   14  A    between atoms: C_38  and  C_49
   15  A    between atoms: C_42  and  O_46
   16  A    between atoms: C_53  and  C_55
   17  A    between atoms: C_53  and  S_57
   18  A    between atoms: C_59  and  C_61
   19  A    between atoms: C_61  and  C_66
                            x       y       z     vdW  Elec       q    Type
                         _______ _______ _______ _____ _____    ______ ____

>  <TORSDO>
F 19

$$$$
=
 OpenBabel10222418383D

 66 71  0  0  1  0  0  0  0  0999 V2000
  185.3920  175.8600  138.4010 C   0  0  0  0  0  1  0  0  0  0  0  0
  188.6390  176.8200  135.3850 C   0  0  1  0  0  3  0  0  0  0  0  0
  185.9220  176.0530  136.9830 C   0  0  2  0  0  3  0  0  0  0  0  0
  188.3980  175.4440  134.7440 C   0  0  2  0  0  3  0  0  0  0  0  0
  189.5270  177.5460  134.5930 O   0  0  0  0  0  1  0  0  0  0  0  0
  187.3550  177.6190  135.5490 C   0  0  0  0  0  2  0  0  0  0  0  0
  186.7350  174.8100  136.5670 C   0  0  2  0  0  3  0  0  0  0  0  0
  186.7390  177.3620  136.9240 C   0  0  1  0  0  3  0  0  0  0  0  0
  187.0390  174.8130  135.0710 C   0  0  0  0  0  2  0  0  0  0  0  0
  190.8800  174.9250  135.0180 N   0  0  0  0  0  2  0  0  0  0  0  0
  189.2400  173.2610  135.2210 O   0  0  0  0  0  0  0  0  0  0  0  0
  189.5180  174.4750  135.0070 C   0  0  0  0  0  0  0  0  0  0  0  0
  192.2080  172.5070  134.6310 S   0  0  0  0  0  0  0  0  0  0  0  0
  192.0490  174.1040  135.1470 C   0  0  0  0  0  0  0  0  0  0  0  0
  193.2650  174.5330  135.6820 C   0  0  0  0  0  0  0  0  0  0  0  0
  194.2630  173.5470  135.6520 C   0  0  0  0  0  3  0  0  0  0  0  0
  193.8180  172.3510  135.1010 C   0  0  0  0  0  0  0  0  0  0  0  0
  193.5550  175.9280  136.1720 C   0  0  2  0  0  3  0  0  0  0  0  0
  194.8440  176.3330  135.8120 O   0  0  0  0  0  1  0  0  0  0  0  0
  194.6250  176.2930  138.4530 C   0  0  0  0  0  1  0  0  0  0  0  0
  193.3290  176.1230  137.6770 C   0  0  0  0  0  3  0  0  0  0  0  0
  192.5060  174.9910  138.2670 C   0  0  0  0  0  1  0  0  0  0  0  0
  194.6730  171.1460  134.8910 C   0  0  0  0  0  2  0  0  0  0  0  0
  196.0150  171.1610  136.8590 O   0  0  0  0  0  1  0  0  0  0  0  0
  196.0600  171.3490  135.4750 C   0  0  1  0  0  3  0  0  0  0  0  0
  197.0090  170.3430  134.8540 C   0  0  0  0  0  2  0  0  0  0  0  0
  198.0120  169.8620  135.8850 C   0  0  0  0  0  1  0  0  0  0  0  0
  185.8440  178.5490  137.2600 C   0  0  0  0  0  2  0  0  0  0  0  0
  186.4780  179.4150  138.7270 S   0  0  0  0  0  0  0  0  0  0  0  0
  188.6650  177.6740  141.2980 C   0  0  2  0  0  3  0  0  0  0  0  0
  189.0270  178.4940  139.0720 C   0  0  0  0  0  2  0  0  0  0  0  0
  189.5030  178.6500  140.5010 C   0  0  0  0  0  2  0  0  0  0  0  0
  187.5800  178.0390  139.1540 C   0  0  1  0  0  3  0  0  0  0  0  0
  187.3280  177.6180  140.5930 C   0  0  0  0  0  2  0  0  0  0  0  0
  188.4770  178.1430  142.7310 C   0  0  0  0  0  2  0  0  0  0  0  0
  189.1010  177.6570  145.1640 C   0  0  1  0  0  3  0  0  0  0  0  0
  189.8590  176.7560  146.1780 C   0  0  1  0  0  3  0  0  0  0  0  0
  191.9070  176.7260  143.4740 C   0  0  0  0  0  2  0  0  0  0  0  0
  191.3780  176.6070  145.9330 C   0  0  2  0  0  3  0  0  0  0  0  0
  190.8650  177.8240  143.2770 C   0  0  2  0  0  3  0  0  0  0  0  0
  191.6310  175.8120  144.6620 C   0  0  0  0  0  2  0  0  0  0  0  0
  191.3180  179.1420  143.8910 C   0  0  0  0  0  1  0  0  0  0  0  0
  189.4370  177.4130  143.6670 C   0  0  2  0  0  3  0  0  0  0  0  0
  192.0730  175.9050  147.0600 C   0  0  0  0  0  0  0  0  0  0  0  0
  192.0240  174.6490  147.1360 O   0  0  0  0  0  0  0  0  0  0  0  0
  192.7660  176.6320  148.0220 O   0  0  0  0  0  1  0  0  0  0  0  0
  187.6230  177.5330  145.4080 C   0  0  0  0  0  0  0  0  0  0  0  0
  186.9440  178.5060  146.1310 O   0  0  0  0  0  1  0  0  0  0  0  0
  186.9960  176.5400  144.9540 O   0  0  0  0  0  0  0  0  0  0  0  0
  189.5580  177.2090  147.6160 C   0  0  0  0  0  2  0  0  0  0  0  0
  188.4490  176.3790  148.2600 C   0  0  0  0  0  2  0  0  0  0  0  0
  186.3280  177.1460  149.0760 O   0  0  0  0  0  1  0  0  0  0  0  0
  187.7020  177.1730  149.3230 C   0  0  0  0  0  3  0  0  0  0  0  0
  188.1530  178.4940  149.3520 O   0  0  0  0  0  1  0  0  0  0  0  0
  186.0820  173.5860  136.9240 O   0  0  0  0  0  0  0  0  0  0  0  0
  180.0270  171.3750  135.3160 C   0  0  0  0  0  2  0  0  0  0  0  0
  184.9780  171.6790  135.9610 C   0  0  0  0  0  3  0  0  0  0  0  0
  179.4450  172.7030  135.1670 N   0  0  0  0  0  2  0  0  0  0  0  0
  181.4090  174.0840  135.5930 C   0  0  0  0  0  2  0  0  0  0  0  0
  181.3980  171.3190  134.6560 C   0  0  0  0  0  2  0  0  0  0  0  0
  183.8300  171.1120  135.1800 C   0  0  0  0  0  2  0  0  0  0  0  0
  185.0230  172.9900  136.2190 C   0  0  0  0  0  0  0  0  0  0  0  0
  180.0710  173.6000  136.1310 C   0  0  0  0  0  2  0  0  0  0  0  0
  183.8960  173.8550  135.7410 C   0  0  0  0  0  2  0  0  0  0  0  0
  182.4890  171.6840  135.6590 C   0  0  1  0  0  3  0  0  0  0  0  0
  182.5550  173.1940  136.0750 C   0  0  2  0  0  3  0  0  0  0  0  0
  2  5  1  6  0  0  0
  2  6  1  0  0  0  0
  3  1  1  1  0  0  0
  4 12  1  1  0  0  0
  4  9  1  0  0  0  0
  4  2  1  0  0  0  0
  6  8  1  0  0  0  0
  7 55  1  6  0  0  0
  7  3  1  0  0  0  0
  8  3  1  0  0  0  0
  8 28  1  6  0  0  0
  9  7  1  0  0  0  0
 10 14  1  0  0  0  0
 12 10  1  0  0  0  0
 12 11  2  0  0  0  0
 13 17  1  0  0  0  0
 13 14  1  0  0  0  0
 14 15  2  0  0  0  0
 15 18  1  0  0  0  0
 16 15  1  0  0  0  0
 17 16  2  0  0  0  0
 18 19  1  1  0  0  0
 18 21  1  0  0  0  0
 21 22  1  0  0  0  0
 21 20  1  0  0  0  0
 23 17  1  0  0  0  0
 23 25  1  0  0  0  0
 25 24  1  1  0  0  0
 26 25  1  0  0  0  0
 26 27  1  0  0  0  0
 28 29  1  0  0  0  0
 30 35  1  1  0  0  0
 31 33  1  0  0  0  0
 31 32  1  0  0  0  0
 32 30  1  0  0  0  0
 33 29  1  1  0  0  0
 33 34  1  0  0  0  0
 34 30  1  0  0  0  0
 36 47  1  6  0  0  0
 36 37  1  0  0  0  0
 37 50  1  1  0  0  0
 38 41  1  0  0  0  0
 39 37  1  0  0  0  0
 39 44  1  1  0  0  0
 40 38  1  0  0  0  0
 40 43  1  0  0  0  0
 40 42  1  1  0  0  0
 41 39  1  0  0  0  0
 43 35  1  6  0  0  0
 43 36  1  0  0  0  0
 44 45  2  0  0  0  0
 44 46  1  0  0  0  0
 47 48  1  0  0  0  0
 49 47  2  0  0  0  0
 50 51  1  0  0  0  0
 51 53  1  0  0  0  0
 52 53  1  0  0  0  0
 53 54  1  0  0  0  0
 57 62  2  0  0  0  0
 58 56  1  0  0  0  0
 58 63  1  0  0  0  0
 59 63  1  0  0  0  0
 60 56  1  0  0  0  0
 61 65  1  0  0  0  0
 61 57  1  0  0  0  0
 62 55  1  0  0  0  0
 64 66  1  0  0  0  0
 64 62  1  0  0  0  0
 65 60  1  6  0  0  0
 65 66  1  0  0  0  0
 66 59  1  6  0  0  0
M  END
>  <MODEL>
8

>  <REMARK>
 VINA RESULT:      -2.6      2.488      4.789
  Name = 
  19 active torsions:
  status: ('A' for Active; 'I' for Inactive)
    1  A    between atoms: C_1  and  C_32
    2  A    between atoms: C_2  and  C_37
    3  A    between atoms: C_2  and  C_47
    4  A    between atoms: C_3  and  C_13
    5  A    between atoms: C_10  and  C_59
    6  A    between atoms: N_12  and  C_36
    7  A    between atoms: C_13  and  C_60
    8  A    between atoms: C_14  and  C_21
    9  A    between atoms: C_18  and  C_54
   10  A    between atoms: C_19  and  C_47
   11  A    between atoms: C_29  and  C_49
   12  A    between atoms: C_31  and  S_57
   13  A    between atoms: C_33  and  O_46
   14  A    between atoms: C_38  and  C_49
   15  A    between atoms: C_42  and  O_46
   16  A    between atoms: C_53  and  C_55
   17  A    between atoms: C_53  and  S_57
   18  A    between atoms: C_59  and  C_61
   19  A    between atoms: C_61  and  C_66
                            x       y       z     vdW  Elec       q    Type
                         _______ _______ _______ _____ _____    ______ ____

>  <TORSDO>
F 19

$$$$
=
 OpenBabel10222418383D

 66 71  0  0  1  0  0  0  0  0999 V2000
  187.6400  177.2380  139.9740 C   0  0  0  0  0  1  0  0  0  0  0  0
  187.1410  175.1410  135.9850 C   0  0  1  0  0  3  0  0  0  0  0  0
  187.5800  177.2040  138.4490 C   0  0  2  0  0  3  0  0  0  0  0  0
  185.9780  176.0960  135.6710 C   0  0  2  0  0  3  0  0  0  0  0  0
  187.4280  174.3790  134.8540 O   0  0  0  0  0  1  0  0  0  0  0  0
  188.4000  175.8790  136.4160 C   0  0  0  0  0  2  0  0  0  0  0  0
  186.1080  177.1270  137.9970 C   0  0  2  0  0  3  0  0  0  0  0  0
  188.4360  176.0250  137.9380 C   0  0  1  0  0  3  0  0  0  0  0  0
  185.9660  177.3860  136.4990 C   0  0  0  0  0  2  0  0  0  0  0  0
  183.6780  175.6300  134.6720 N   0  0  0  0  0  2  0  0  0  0  0  0
  184.3730  174.6470  136.6840 O   0  0  0  0  0  0  0  0  0  0  0  0
  184.6380  175.4150  135.7160 C   0  0  0  0  0  0  0  0  0  0  0  0
  181.8600  173.5190  134.7010 S   0  0  0  0  0  0  0  0  0  0  0  0
  182.3310  175.1370  134.6360 C   0  0  0  0  0  0  0  0  0  0  0  0
  181.1920  175.9420  134.5940 C   0  0  0  0  0  0  0  0  0  0  0  0
  179.9950  175.2100  134.6120 C   0  0  0  0  0  3  0  0  0  0  0  0
  180.2060  173.8380  134.6600 C   0  0  0  0  0  0  0  0  0  0  0  0
  181.1920  177.4490  134.6160 C   0  0  2  0  0  3  0  0  0  0  0  0
  182.2740  177.9440  135.3510 O   0  0  0  0  0  1  0  0  0  0  0  0
  179.9960  179.5560  135.3970 C   0  0  0  0  0  1  0  0  0  0  0  0
  179.8770  178.0680  135.1090 C   0  0  0  0  0  3  0  0  0  0  0  0
  179.3400  177.3360  136.3270 C   0  0  0  0  0  1  0  0  0  0  0  0
  179.1210  172.8170  134.7420 C   0  0  0  0  0  2  0  0  0  0  0  0
  178.9770  170.8540  136.0820 O   0  0  0  0  0  1  0  0  0  0  0  0
  179.0060  172.2500  136.1460 C   0  0  1  0  0  3  0  0  0  0  0  0
  180.2040  172.6980  136.9590 C   0  0  0  0  0  2  0  0  0  0  0  0
  179.7560  173.5750  138.1130 C   0  0  0  0  0  1  0  0  0  0  0  0
  189.8910  176.2220  138.3490 C   0  0  0  0  0  2  0  0  0  0  0  0
  190.2520  177.9920  138.5420 S   0  0  0  0  0  0  0  0  0  0  0  0
  190.9700  176.7720  142.0670 C   0  0  2  0  0  3  0  0  0  0  0  0
  191.4120  178.8080  140.8780 C   0  0  0  0  0  2  0  0  0  0  0  0
  190.6970  178.2600  142.0940 C   0  0  0  0  0  2  0  0  0  0  0  0
  191.4550  177.6770  139.8640 C   0  0  1  0  0  3  0  0  0  0  0  0
  191.0710  176.4050  140.6020 C   0  0  0  0  0  2  0  0  0  0  0  0
  189.8440  175.9880  142.7210 C   0  0  0  0  0  2  0  0  0  0  0  0
  188.8030  177.3790  144.5990 C   0  0  1  0  0  3  0  0  0  0  0  0
  188.5100  177.5400  146.1170 C   0  0  1  0  0  3  0  0  0  0  0  0
  191.5580  176.0490  146.0950 C   0  0  0  0  0  2  0  0  0  0  0  0
  189.7500  177.5250  147.0410 C   0  0  2  0  0  3  0  0  0  0  0  0
  191.2470  176.5310  144.6810 C   0  0  2  0  0  3  0  0  0  0  0  0
  190.3790  176.1410  147.0570 C   0  0  0  0  0  2  0  0  0  0  0  0
  191.6960  177.9710  144.4690 C   0  0  0  0  0  1  0  0  0  0  0  0
  189.8060  176.2540  144.2240 C   0  0  2  0  0  3  0  0  0  0  0  0
  189.4140  177.8950  148.4530 C   0  0  0  0  0  0  0  0  0  0  0  0
  190.2960  178.4180  149.1860 O   0  0  0  0  0  1  0  0  0  0  0  0
  188.1410  177.6620  148.9600 O   0  0  0  0  0  0  0  0  0  0  0  0
  187.5020  177.2020  143.8660 C   0  0  0  0  0  0  0  0  0  0  0  0
  187.2120  177.9780  142.7500 O   0  0  0  0  0  0  0  0  0  0  0  0
  186.6710  176.3450  144.2650 O   0  0  0  0  0  1  0  0  0  0  0  0
  187.6360  178.7820  146.3590 C   0  0  0  0  0  2  0  0  0  0  0  0
  186.1460  178.4560  146.2970 C   0  0  0  0  0  2  0  0  0  0  0  0
  184.0250  179.1670  145.4310 O   0  0  0  0  0  1  0  0  0  0  0  0
  185.3710  179.5220  145.5350 C   0  0  0  0  0  3  0  0  0  0  0  0
  185.9140  179.7030  144.2610 O   0  0  0  0  0  1  0  0  0  0  0  0
  185.2640  178.0290  138.7240 O   0  0  0  0  0  0  0  0  0  0  0  0
  179.0020  178.3330  140.9190 C   0  0  0  0  0  2  0  0  0  0  0  0
  183.1750  176.8450  138.5970 C   0  0  0  0  0  3  0  0  0  0  0  0
  179.0080  179.7780  141.1130 N   0  0  0  0  0  2  0  0  0  0  0  0
  181.2490  180.3100  140.3140 C   0  0  0  0  0  2  0  0  0  0  0  0
  179.6550  177.9730  139.5910 C   0  0  0  0  0  2  0  0  0  0  0  0
  181.6760  176.8700  138.6260 C   0  0  0  0  0  2  0  0  0  0  0  0
  183.8610  177.9810  138.7630 C   0  0  0  0  0  0  0  0  0  0  0  0
  180.3430  180.1900  141.5290 C   0  0  0  0  0  2  0  0  0  0  0  0
  183.1010  179.2490  139.0090 C   0  0  0  0  0  2  0  0  0  0  0  0
  181.1500  177.7340  139.7800 C   0  0  1  0  0  3  0  0  0  0  0  0
  182.0150  179.0110  140.0610 C   0  0  2  0  0  3  0  0  0  0  0  0
  2  5  1  6  0  0  0
  2  6  1  0  0  0  0
  3  1  1  1  0  0  0
  4 12  1  1  0  0  0
  4  2  1  0  0  0  0
  4  9  1  0  0  0  0
  6  8  1  0  0  0  0
  7  3  1  0  0  0  0
  7 55  1  1  0  0  0
  8 28  1  6  0  0  0
  8  3  1  0  0  0  0
  9  7  1  0  0  0  0
 10 12  1  0  0  0  0
 12 11  2  0  0  0  0
 14 10  1  0  0  0  0
 14 13  1  0  0  0  0
 15 16  1  0  0  0  0
 15 18  1  0  0  0  0
 15 14  2  0  0  0  0
 16 17  2  0  0  0  0
 17 13  1  0  0  0  0
 17 23  1  0  0  0  0
 18 21  1  0  0  0  0
 18 19  1  1  0  0  0
 21 20  1  0  0  0  0
 21 22  1  0  0  0  0
 23 25  1  0  0  0  0
 25 24  1  6  0  0  0
 25 26  1  0  0  0  0
 26 27  1  0  0  0  0
 28 29  1  0  0  0  0
 30 32  1  0  0  0  0
 30 35  1  6  0  0  0
 31 32  1  0  0  0  0
 33 29  1  6  0  0  0
 33 34  1  0  0  0  0
 33 31  1  0  0  0  0
 34 30  1  0  0  0  0
 36 47  1  6  0  0  0
 36 37  1  0  0  0  0
 37 50  1  6  0  0  0
 37 39  1  0  0  0  0
 38 41  1  0  0  0  0
 39 41  1  0  0  0  0
 39 44  1  1  0  0  0
 40 42  1  1  0  0  0
 40 38  1  0  0  0  0
 43 35  1  6  0  0  0
 43 36  1  0  0  0  0
 43 40  1  0  0  0  0
 44 46  2  0  0  0  0
 44 45  1  0  0  0  0
 47 49  1  0  0  0  0
 48 47  2  0  0  0  0
 51 50  1  0  0  0  0
 52 53  1  0  0  0  0
 53 51  1  0  0  0  0
 54 53  1  0  0  0  0
 55 62  1  0  0  0  0
 56 58  1  0  0  0  0
 57 61  1  0  0  0  0
 57 62  2  0  0  0  0
 58 63  1  0  0  0  0
 59 63  1  0  0  0  0
 60 65  1  0  0  0  0
 60 56  1  0  0  0  0
 62 64  1  0  0  0  0
 65 61  1  6  0  0  0
 65 66  1  0  0  0  0
 66 64  1  6  0  0  0
 66 59  1  0  0  0  0
M  END
>  <MODEL>
9

>  <REMARK>
 VINA RESULT:      -2.3      3.082      6.832
  Name = 
  19 active torsions:
  status: ('A' for Active; 'I' for Inactive)
    1  A    between atoms: C_1  and  C_32
    2  A    between atoms: C_2  and  C_37
    3  A    between atoms: C_2  and  C_47
    4  A    between atoms: C_3  and  C_13
    5  A    between atoms: C_10  and  C_59
    6  A    between atoms: N_12  and  C_36
    7  A    between atoms: C_13  and  C_60
    8  A    between atoms: C_14  and  C_21
    9  A    between atoms: C_18  and  C_54
   10  A    between atoms: C_19  and  C_47
   11  A    between atoms: C_29  and  C_49
   12  A    between atoms: C_31  and  S_57
   13  A    between atoms: C_33  and  O_46
   14  A    between atoms: C_38  and  C_49
   15  A    between atoms: C_42  and  O_46
   16  A    between atoms: C_53  and  C_55
   17  A    between atoms: C_53  and  S_57
   18  A    between atoms: C_59  and  C_61
   19  A    between atoms: C_61  and  C_66
                            x       y       z     vdW  Elec       q    Type
                         _______ _______ _______ _____ _____    ______ ____

>  <TORSDO>
F 19

$$$$
