=
 OpenBabel10222420113D

 27 31  0  0  1  0  0  0  0  0999 V2000
  187.9570  177.1720  143.2240 N   0  0  0  0  0  0  0  0  0  0  0  0
  184.9200  178.9080  143.8190 C   0  0  0  0  0  0  0  0  0  0  0  0
  188.3110  178.0180  148.1890 C   0  0  0  0  0  0  0  0  0  0  0  0
  185.7750  178.2650  142.7620 C   0  0  0  0  0  2  0  0  0  0  0  0
  187.2630  178.0660  147.3620 C   0  0  0  0  0  3  0  0  0  0  0  0
  187.4280  177.6290  145.9660 C   0  0  0  0  0  0  0  0  0  0  0  0
  183.8680  179.5460  143.5550 O   0  0  0  0  0  0  0  0  0  0  0  0
  188.1710  178.4360  149.4710 F   0  0  0  0  0  0  0  0  0  0  0  0
  189.6470  177.6150  147.6950 C   0  0  0  0  0  3  0  0  0  0  0  0
  188.6140  176.7520  145.6120 C   0  0  1  0  0  3  0  0  0  0  0  0
  186.5710  177.9690  145.0070 C   0  0  0  0  0  0  0  0  0  0  0  0
  186.8370  177.6870  143.6220 C   0  0  0  0  0  0  0  0  0  0  0  0
  188.9320  176.7810  144.1670 N   0  0  0  0  0  0  0  0  0  0  0  0
  189.8060  177.0720  146.4810 C   0  0  0  0  0  3  0  0  0  0  0  0
  185.3960  178.7480  145.1580 N   0  0  0  0  0  2  0  0  0  0  0  0
  190.1220  176.0980  143.6760 C   0  0  0  0  0  2  0  0  0  0  0  0
  190.5340  176.6640  142.3600 C   0  0  0  0  0  0  0  0  0  0  0  0
  190.4590  177.3130  140.2600 N   0  0  0  0  0  0  0  0  0  0  0  0
  191.6310  177.7270  140.7860 C   0  0  0  0  0  3  0  0  0  0  0  0
  189.7690  176.6630  141.2170 C   0  0  0  0  0  3  0  0  0  0  0  0
  191.7110  177.3420  142.1130 C   0  0  0  0  0  3  0  0  0  0  0  0
  190.3920  176.6540  137.8840 C   0  0  0  0  0  3  0  0  0  0  0  0
  189.1540  177.9710  136.2730 C   0  0  0  0  0  3  0  0  0  0  0  0
  189.2030  178.6370  138.6010 C   0  0  0  0  0  3  0  0  0  0  0  0
  188.7740  178.8540  137.2870 C   0  0  0  0  0  3  0  0  0  0  0  0
  189.9620  176.8710  136.5720 C   0  0  0  0  0  3  0  0  0  0  0  0
  190.0170  177.5360  138.9110 C   0  0  0  0  0  0  0  0  0  0  0  0
  1 12  2  0  0  0  0
  1 13  1  0  0  0  0
  2 15  1  0  0  0  0
  3  8  1  0  0  0  0
  4 12  1  0  0  0  0
  4  2  1  0  0  0  0
  5  3  2  0  0  0  0
  6  5  1  0  0  0  0
  7  2  2  0  0  0  0
  9  3  1  0  0  0  0
 10  6  1  0  0  0  0
 10 14  1  1  0  0  0
 11 15  1  0  0  0  0
 11  6  2  0  0  0  0
 12 11  1  0  0  0  0
 13 10  1  0  0  0  0
 14  9  2  0  0  0  0
 16 13  1  0  0  0  0
 17 16  1  0  0  0  0
 18 19  1  0  0  0  0
 18 20  1  0  0  0  0
 19 21  2  0  0  0  0
 20 17  2  0  0  0  0
 21 17  1  0  0  0  0
 22 27  1  0  0  0  0
 23 26  1  0  0  0  0
 23 25  2  0  0  0  0
 24 27  2  0  0  0  0
 25 24  1  0  0  0  0
 26 22  2  0  0  0  0
 27 18  1  0  0  0  0
M  END
>  <MODEL>
1

>  <REMARK>
 VINA RESULT:      -9.5      0.000      0.000
  Name = 
  3 active torsions:
  status: ('A' for Active; 'I' for Inactive)
    1  A    between atoms: C_13  and  C_17
    2  A    between atoms: C_17  and  N_20
    3  A    between atoms: N_21  and  C_24
                            x       y       z     vdW  Elec       q    Type
                         _______ _______ _______ _____ _____    ______ ____

>  <TORSDO>
F 3

$$$$
=
 OpenBabel10222420113D

 27 31  0  0  0  0  0  0  0  0999 V2000
  187.8420  177.6700  143.6350 N   0  0  0  0  0  0  0  0  0  0  0  0
  190.4930  177.1930  141.3240 C   0  0  0  0  0  0  0  0  0  0  0  0
  191.6130  176.4470  146.7630 C   0  0  0  0  0  0  0  0  0  0  0  0
  189.0320  177.5250  141.4600 C   0  0  0  0  0  2  0  0  0  0  0  0
  191.6240  176.8550  145.4900 C   0  0  0  0  0  2  0  0  0  0  0  0
  190.3630  177.2810  144.8610 C   0  0  0  0  0  0  0  0  0  0  0  0
  191.0560  177.0240  140.2120 O   0  0  0  0  0  0  0  0  0  0  0  0
  192.7670  176.0350  147.3430 F   0  0  0  0  0  0  0  0  0  0  0  0
  190.3410  176.3390  147.5120 C   0  0  0  0  0  3  0  0  0  0  0  0
  189.1950  177.6580  145.7530 C   0  0  0  0  0  0  0  0  0  0  0  0
  190.2150  177.3540  143.5420 C   0  0  0  0  0  0  0  0  0  0  0  0
  188.9320  177.5990  142.9390 C   0  0  0  0  0  0  0  0  0  0  0  0
  187.8960  177.5990  145.0440 N   0  0  0  0  0  0  0  0  0  0  0  0
  189.2030  176.8530  147.0290 C   0  0  0  0  0  3  0  0  0  0  0  0
  191.2000  177.0760  142.5620 N   0  0  0  0  0  2  0  0  0  0  0  0
  186.6590  177.8040  145.7860 C   0  0  0  0  0  2  0  0  0  0  0  0
  185.6070  178.3580  144.8890 C   0  0  0  0  0  0  0  0  0  0  0  0
  184.4090  178.7600  143.0890 N   0  0  0  0  0  0  0  0  0  0  0  0
  183.7930  179.3390  144.1410 C   0  0  0  0  0  3  0  0  0  0  0  0
  185.5230  178.1460  143.5320 C   0  0  0  0  0  3  0  0  0  0  0  0
  184.5160  179.1010  145.2960 C   0  0  0  0  0  3  0  0  0  0  0  0
  182.5890  178.6030  141.4310 C   0  0  0  0  0  3  0  0  0  0  0  0
  183.0520  178.8320  139.0660 C   0  0  0  0  0  3  0  0  0  0  0  0
  184.8550  178.9920  140.6730 C   0  0  0  0  0  3  0  0  0  0  0  0
  184.4080  179.0150  139.3490 C   0  0  0  0  0  3  0  0  0  0  0  0
  182.1430  178.6270  140.1070 C   0  0  0  0  0  3  0  0  0  0  0  0
  183.9500  178.7850  141.7270 C   0  0  0  0  0  0  0  0  0  0  0  0
  1 13  1  0  0  0  0
  2  4  1  0  0  0  0
  2 15  1  0  0  0  0
  3  8  1  0  0  0  0
  3  9  2  0  0  0  0
  4 12  1  0  0  0  0
  5  3  1  0  0  0  0
  6  5  1  0  0  0  0
  6 10  1  0  0  0  0
  7  2  2  0  0  0  0
 10 14  2  0  0  0  0
 11  6  2  0  0  0  0
 12 11  1  0  0  0  0
 12  1  2  0  0  0  0
 13 10  1  0  0  0  0
 13 16  1  0  0  0  0
 14  9  1  0  0  0  0
 15 11  1  0  0  0  0
 17 21  1  0  0  0  0
 17 16  1  0  0  0  0
 18 20  1  0  0  0  0
 18 19  1  0  0  0  0
 19 21  2  0  0  0  0
 20 17  2  0  0  0  0
 22 27  1  0  0  0  0
 23 25  2  0  0  0  0
 23 26  1  0  0  0  0
 24 27  2  0  0  0  0
 25 24  1  0  0  0  0
 26 22  2  0  0  0  0
 27 18  1  0  0  0  0
M  END
>  <MODEL>
2

>  <REMARK>
 VINA RESULT:      -9.2      2.942      5.551
  Name = 
  3 active torsions:
  status: ('A' for Active; 'I' for Inactive)
    1  A    between atoms: C_13  and  C_17
    2  A    between atoms: C_17  and  N_20
    3  A    between atoms: N_21  and  C_24
                            x       y       z     vdW  Elec       q    Type
                         _______ _______ _______ _____ _____    ______ ____

>  <TORSDO>
F 3

$$$$
=
 OpenBabel10222420113D

 27 31  0  0  1  0  0  0  0  0999 V2000
  190.3210  176.5840  143.8770 N   0  0  0  0  0  0  0  0  0  0  0  0
  191.6830  176.2100  147.1330 C   0  0  0  0  0  0  0  0  0  0  0  0
  186.4340  178.1260  146.7080 C   0  0  0  0  0  0  0  0  0  0  0  0
  191.9520  176.0260  145.6650 C   0  0  0  0  0  2  0  0  0  0  0  0
  187.7290  177.9720  147.0010 C   0  0  0  0  0  3  0  0  0  0  0  0
  188.6760  177.6360  145.9250 C   0  0  0  0  0  0  0  0  0  0  0  0
  192.4790  175.8280  148.0290 O   0  0  0  0  0  0  0  0  0  0  0  0
  185.5550  178.4170  147.6970 F   0  0  0  0  0  0  0  0  0  0  0  0
  185.9340  177.8780  145.3370 C   0  0  0  0  0  3  0  0  0  0  0  0
  188.2640  177.8920  144.4870 C   0  0  1  0  0  3  0  0  0  0  0  0
  189.8780  177.1240  146.1680 C   0  0  0  0  0  0  0  0  0  0  0  0
  190.7200  176.6370  145.1090 C   0  0  0  0  0  0  0  0  0  0  0  0
  189.0560  177.1000  143.5190 N   0  0  0  0  0  0  0  0  0  0  0  0
  186.7760  177.7170  144.3080 C   0  0  0  0  0  3  0  0  0  0  0  0
  190.4420  176.8520  147.4400 N   0  0  0  0  0  2  0  0  0  0  0  0
  188.7050  177.1270  142.1060 C   0  0  0  0  0  2  0  0  0  0  0  0
  189.9380  177.1290  141.2690 C   0  0  0  0  0  0  0  0  0  0  0  0
  191.2830  176.8770  139.5480 N   0  0  0  0  0  0  0  0  0  0  0  0
  191.9680  177.5030  140.5280 C   0  0  0  0  0  3  0  0  0  0  0  0
  190.0310  176.6450  139.9840 C   0  0  0  0  0  3  0  0  0  0  0  0
  191.1500  177.6850  141.6280 C   0  0  0  0  0  3  0  0  0  0  0  0
  190.9310  176.3450  137.1650 C   0  0  0  0  0  3  0  0  0  0  0  0
  192.8080  175.8370  135.7240 C   0  0  0  0  0  3  0  0  0  0  0  0
  193.1810  176.3570  138.0590 C   0  0  0  0  0  3  0  0  0  0  0  0
  193.6820  176.0140  136.7990 C   0  0  0  0  0  3  0  0  0  0  0  0
  191.4330  176.0030  135.9070 C   0  0  0  0  0  3  0  0  0  0  0  0
  191.8000  176.5250  138.2540 C   0  0  0  0  0  0  0  0  0  0  0  0
  1 12  2  0  0  0  0
  2 15  1  0  0  0  0
  2  7  2  0  0  0  0
  3  5  2  0  0  0  0
  3  8  1  0  0  0  0
  4  2  1  0  0  0  0
  6 11  2  0  0  0  0
  6  5  1  0  0  0  0
  9  3  1  0  0  0  0
 10 14  1  1  0  0  0
 10  6  1  0  0  0  0
 11 15  1  0  0  0  0
 12  4  1  0  0  0  0
 12 11  1  0  0  0  0
 13  1  1  0  0  0  0
 13 10  1  0  0  0  0
 14  9  2  0  0  0  0
 16 13  1  0  0  0  0
 17 21  1  0  0  0  0
 17 16  1  0  0  0  0
 18 20  1  0  0  0  0
 18 19  1  0  0  0  0
 19 21  2  0  0  0  0
 20 17  2  0  0  0  0
 22 27  1  0  0  0  0
 23 26  1  0  0  0  0
 23 25  2  0  0  0  0
 24 27  2  0  0  0  0
 25 24  1  0  0  0  0
 26 22  2  0  0  0  0
 27 18  1  0  0  0  0
M  END
>  <MODEL>
3

>  <REMARK>
 VINA RESULT:      -9.2      2.696      4.047
  Name = 
  3 active torsions:
  status: ('A' for Active; 'I' for Inactive)
    1  A    between atoms: C_13  and  C_17
    2  A    between atoms: C_17  and  N_20
    3  A    between atoms: N_21  and  C_24
                            x       y       z     vdW  Elec       q    Type
                         _______ _______ _______ _____ _____    ______ ____

>  <TORSDO>
F 3

$$$$
=
 OpenBabel10222420113D

 27 31  0  0  1  0  0  0  0  0999 V2000
  186.9670  177.6210  143.4770 N   0  0  0  0  0  0  0  0  0  0  0  0
  184.0240  178.8890  145.0020 C   0  0  0  0  0  0  0  0  0  0  0  0
  188.4940  178.0390  148.2720 C   0  0  0  0  0  0  0  0  0  0  0  0
  184.6410  178.4620  143.6980 C   0  0  0  0  0  2  0  0  0  0  0  0
  187.2700  178.0280  147.7370 C   0  0  0  0  0  3  0  0  0  0  0  0
  187.1150  177.7480  146.3000 C   0  0  0  0  0  0  0  0  0  0  0  0
  182.8810  179.4080  145.0820 O   0  0  0  0  0  0  0  0  0  0  0  0
  188.6460  178.3140  149.5900 F   0  0  0  0  0  0  0  0  0  0  0  0
  189.6930  177.8580  147.4220 C   0  0  0  0  0  3  0  0  0  0  0  0
  188.2530  177.0680  145.5630 C   0  0  1  0  0  3  0  0  0  0  0  0
  186.0110  178.0640  145.6280 C   0  0  0  0  0  0  0  0  0  0  0  0
  185.9400  177.9480  144.1960 C   0  0  0  0  0  0  0  0  0  0  0  0
  188.1860  177.2720  144.0990 N   0  0  0  0  0  0  0  0  0  0  0  0
  189.5890  177.4560  146.1480 C   0  0  0  0  0  3  0  0  0  0  0  0
  184.8420  178.6670  146.1550 N   0  0  0  0  0  2  0  0  0  0  0  0
  189.2730  176.7970  143.2530 C   0  0  0  0  0  2  0  0  0  0  0  0
  189.1180  177.3280  141.8700 C   0  0  0  0  0  0  0  0  0  0  0  0
  189.1880  177.4690  139.6760 N   0  0  0  0  0  0  0  0  0  0  0  0
  188.5050  178.5350  140.1440 C   0  0  0  0  0  3  0  0  0  0  0  0
  189.5670  176.7130  140.7240 C   0  0  0  0  0  3  0  0  0  0  0  0
  188.4350  178.4780  141.5240 C   0  0  0  0  0  3  0  0  0  0  0  0
  190.2020  176.0490  137.9330 C   0  0  0  0  0  3  0  0  0  0  0  0
  189.9860  176.6250  135.5920 C   0  0  0  0  0  3  0  0  0  0  0  0
  188.9800  178.0350  137.2840 C   0  0  0  0  0  3  0  0  0  0  0  0
  189.2440  177.7570  135.9390 C   0  0  0  0  0  3  0  0  0  0  0  0
  190.4640  175.7710  136.5890 C   0  0  0  0  0  3  0  0  0  0  0  0
  189.4580  177.1840  138.2940 C   0  0  0  0  0  0  0  0  0  0  0  0
  1 13  1  0  0  0  0
  1 12  2  0  0  0  0
  2  7  2  0  0  0  0
  2 15  1  0  0  0  0
  3  8  1  0  0  0  0
  4 12  1  0  0  0  0
  4  2  1  0  0  0  0
  5  3  2  0  0  0  0
  6  5  1  0  0  0  0
  9  3  1  0  0  0  0
 10 14  1  1  0  0  0
 10  6  1  0  0  0  0
 11 15  1  0  0  0  0
 11  6  2  0  0  0  0
 12 11  1  0  0  0  0
 13 10  1  0  0  0  0
 14  9  2  0  0  0  0
 16 13  1  0  0  0  0
 17 16  1  0  0  0  0
 18 19  1  0  0  0  0
 18 20  1  0  0  0  0
 19 21  2  0  0  0  0
 20 17  2  0  0  0  0
 21 17  1  0  0  0  0
 22 27  1  0  0  0  0
 23 25  2  0  0  0  0
 23 26  1  0  0  0  0
 24 27  2  0  0  0  0
 25 24  1  0  0  0  0
 26 22  2  0  0  0  0
 27 18  1  0  0  0  0
M  END
>  <MODEL>
4

>  <REMARK>
 VINA RESULT:      -9.1      1.145      1.426
  Name = 
  3 active torsions:
  status: ('A' for Active; 'I' for Inactive)
    1  A    between atoms: C_13  and  C_17
    2  A    between atoms: C_17  and  N_20
    3  A    between atoms: N_21  and  C_24
                            x       y       z     vdW  Elec       q    Type
                         _______ _______ _______ _____ _____    ______ ____

>  <TORSDO>
F 3

$$$$
=
 OpenBabel10222420113D

 27 31  0  0  0  0  0  0  0  0999 V2000
  185.8980  178.6350  143.4080 N   0  0  0  0  0  0  0  0  0  0  0  0
  187.0240  178.6160  140.0420 C   0  0  0  0  0  0  0  0  0  0  0  0
  181.5060  178.9820  140.9400 C   0  0  0  0  0  0  0  0  0  0  0  0
  187.4640  178.5870  141.4810 C   0  0  0  0  0  2  0  0  0  0  0  0
  182.7210  178.6130  140.5250 C   0  0  0  0  0  2  0  0  0  0  0  0
  183.8050  178.4690  141.5100 C   0  0  0  0  0  0  0  0  0  0  0  0
  187.8310  178.6940  139.0810 O   0  0  0  0  0  0  0  0  0  0  0  0
  180.5070  179.1350  140.0370 F   0  0  0  0  0  0  0  0  0  0  0  0
  181.2650  179.3300  142.3590 C   0  0  0  0  0  3  0  0  0  0  0  0
  183.4430  178.3180  142.9760 C   0  0  0  0  0  0  0  0  0  0  0  0
  185.0880  178.4610  141.1600 C   0  0  0  0  0  0  0  0  0  0  0  0
  186.1380  178.4990  142.1420 C   0  0  0  0  0  0  0  0  0  0  0  0
  184.5660  178.6590  143.8770 N   0  0  0  0  0  0  0  0  0  0  0  0
  182.1780  179.0720  143.3040 C   0  0  0  0  0  3  0  0  0  0  0  0
  185.6090  178.5560  139.8450 N   0  0  0  0  0  2  0  0  0  0  0  0
  184.3500  178.6930  145.3180 C   0  0  0  0  0  2  0  0  0  0  0  0
  185.6300  178.4320  146.0360 C   0  0  0  0  0  0  0  0  0  0  0  0
  187.7200  177.8680  146.4230 N   0  0  0  0  0  0  0  0  0  0  0  0
  187.2090  178.3900  147.5580 C   0  0  0  0  0  3  0  0  0  0  0  0
  186.7640  177.8930  145.4750 C   0  0  0  0  0  3  0  0  0  0  0  0
  185.8930  178.7640  147.3510 C   0  0  0  0  0  3  0  0  0  0  0  0
  189.6370  177.3140  144.9720 C   0  0  0  0  0  3  0  0  0  0  0  0
  191.6790  176.4200  145.9160 C   0  0  0  0  0  3  0  0  0  0  0  0
  189.8120  176.9580  147.3600 C   0  0  0  0  0  3  0  0  0  0  0  0
  191.1160  176.4810  147.1930 C   0  0  0  0  0  3  0  0  0  0  0  0
  190.9390  176.8370  144.8060 C   0  0  0  0  0  3  0  0  0  0  0  0
  189.0600  177.3780  146.2510 C   0  0  0  0  0  0  0  0  0  0  0  0
  1 13  1  0  0  0  0
  2  4  1  0  0  0  0
  3  9  2  0  0  0  0
  4 12  1  0  0  0  0
  5  3  1  0  0  0  0
  5  6  1  0  0  0  0
  6 10  1  0  0  0  0
  7  2  2  0  0  0  0
  8  3  1  0  0  0  0
  9 14  1  0  0  0  0
 10 14  2  0  0  0  0
 10 13  1  0  0  0  0
 11  6  2  0  0  0  0
 11 12  1  0  0  0  0
 12  1  2  0  0  0  0
 13 16  1  0  0  0  0
 15  2  1  0  0  0  0
 15 11  1  0  0  0  0
 16 17  1  0  0  0  0
 17 21  1  0  0  0  0
 18 19  1  0  0  0  0
 20 17  2  0  0  0  0
 20 18  1  0  0  0  0
 21 19  2  0  0  0  0
 22 27  1  0  0  0  0
 23 25  2  0  0  0  0
 25 24  1  0  0  0  0
 26 22  2  0  0  0  0
 26 23  1  0  0  0  0
 27 18  1  0  0  0  0
 27 24  2  0  0  0  0
M  END
>  <MODEL>
5

>  <REMARK>
 VINA RESULT:      -8.9      3.717      7.328
  Name = 
  3 active torsions:
  status: ('A' for Active; 'I' for Inactive)
    1  A    between atoms: C_13  and  C_17
    2  A    between atoms: C_17  and  N_20
    3  A    between atoms: N_21  and  C_24
                            x       y       z     vdW  Elec       q    Type
                         _______ _______ _______ _____ _____    ______ ____

>  <TORSDO>
F 3

$$$$
=
 OpenBabel10222420113D

 27 31  0  0  1  0  0  0  0  0999 V2000
  187.5140  177.7160  143.1590 N   0  0  0  0  0  0  0  0  0  0  0  0
  190.2300  176.7200  141.1040 C   0  0  0  0  0  0  0  0  0  0  0  0
  191.0360  176.7570  146.6480 C   0  0  0  0  0  0  0  0  0  0  0  0
  188.7920  177.1610  141.1030 C   0  0  0  0  0  2  0  0  0  0  0  0
  191.1350  176.9610  145.3320 C   0  0  0  0  0  3  0  0  0  0  0  0
  189.9390  177.3630  144.5730 C   0  0  0  0  0  0  0  0  0  0  0  0
  190.8320  176.3450  140.0650 O   0  0  0  0  0  0  0  0  0  0  0  0
  192.1280  176.3680  147.3500 F   0  0  0  0  0  0  0  0  0  0  0  0
  189.7250  176.8470  147.3310 C   0  0  0  0  0  3  0  0  0  0  0  0
  188.7600  177.9470  145.3290 C   0  0  1  0  0  3  0  0  0  0  0  0
  189.8600  177.2400  143.2520 C   0  0  0  0  0  0  0  0  0  0  0  0
  188.6280  177.4690  142.5450 C   0  0  0  0  0  0  0  0  0  0  0  0
  187.4960  177.8610  144.5630 N   0  0  0  0  0  0  0  0  0  0  0  0
  188.6500  177.3510  146.7110 C   0  0  0  0  0  3  0  0  0  0  0  0
  190.8680  176.7510  142.3840 N   0  0  0  0  0  2  0  0  0  0  0  0
  186.2430  178.2560  145.1930 C   0  0  0  0  0  2  0  0  0  0  0  0
  185.2000  178.4970  144.1560 C   0  0  0  0  0  0  0  0  0  0  0  0
  183.2360  178.7880  143.2110 N   0  0  0  0  0  0  0  0  0  0  0  0
  184.1870  179.0330  142.2860 C   0  0  0  0  0  3  0  0  0  0  0  0
  183.8410  178.4640  144.3690 C   0  0  0  0  0  3  0  0  0  0  0  0
  185.4410  178.8660  142.8470 C   0  0  0  0  0  3  0  0  0  0  0  0
  180.9260  178.7030  144.0720 C   0  0  0  0  0  3  0  0  0  0  0  0
  179.0420  179.0280  142.5860 C   0  0  0  0  0  3  0  0  0  0  0  0
  181.3000  179.1180  141.7170 C   0  0  0  0  0  3  0  0  0  0  0  0
  179.9190  179.1960  141.5120 C   0  0  0  0  0  3  0  0  0  0  0  0
  179.5460  178.7820  143.8660 C   0  0  0  0  0  3  0  0  0  0  0  0
  181.8170  178.8700  142.9990 C   0  0  0  0  0  0  0  0  0  0  0  0
  1 13  1  0  0  0  0
  2 15  1  0  0  0  0
  3  9  1  0  0  0  0
  3  8  1  0  0  0  0
  4  2  1  0  0  0  0
  4 12  1  0  0  0  0
  5  3  2  0  0  0  0
  6 10  1  0  0  0  0
  6  5  1  0  0  0  0
  7  2  2  0  0  0  0
 10 14  1  1  0  0  0
 11  6  2  0  0  0  0
 12  1  2  0  0  0  0
 12 11  1  0  0  0  0
 13 16  1  0  0  0  0
 13 10  1  0  0  0  0
 14  9  2  0  0  0  0
 15 11  1  0  0  0  0
 17 20  2  0  0  0  0
 17 16  1  0  0  0  0
 18 20  1  0  0  0  0
 19 21  2  0  0  0  0
 19 18  1  0  0  0  0
 21 17  1  0  0  0  0
 23 26  2  0  0  0  0
 24 27  1  0  0  0  0
 25 24  2  0  0  0  0
 25 23  1  0  0  0  0
 26 22  1  0  0  0  0
 27 18  1  0  0  0  0
 27 22  2  0  0  0  0
M  END
>  <MODEL>
6

>  <REMARK>
 VINA RESULT:      -8.8      3.188      6.728
  Name = 
  3 active torsions:
  status: ('A' for Active; 'I' for Inactive)
    1  A    between atoms: C_13  and  C_17
    2  A    between atoms: C_17  and  N_20
    3  A    between atoms: N_21  and  C_24
                            x       y       z     vdW  Elec       q    Type
                         _______ _______ _______ _____ _____    ______ ____

>  <TORSDO>
F 3

$$$$
=
 OpenBabel10222420113D

 27 31  0  0  0  0  0  0  0  0999 V2000
  186.6790  178.6210  139.1650 N   0  0  0  0  0  0  0  0  0  0  0  0
  183.3520  177.9860  138.1080 C   0  0  0  0  0  0  0  0  0  0  0  0
  187.4120  174.7360  136.0240 C   0  0  0  0  0  0  0  0  0  0  0  0
  184.2110  178.8430  138.9960 C   0  0  0  0  0  2  0  0  0  0  0  0
  186.3740  175.5640  136.1700 C   0  0  0  0  0  2  0  0  0  0  0  0
  186.4930  176.7120  137.0840 C   0  0  0  0  0  0  0  0  0  0  0  0
  182.0950  178.0420  138.1100 O   0  0  0  0  0  0  0  0  0  0  0  0
  187.3030  173.6660  135.1980 F   0  0  0  0  0  0  0  0  0  0  0  0
  188.6400  174.9120  136.8310 C   0  0  0  0  0  3  0  0  0  0  0  0
  187.8780  177.1770  137.4940 C   0  0  0  0  0  0  0  0  0  0  0  0
  185.4310  177.3590  137.5570 C   0  0  0  0  0  0  0  0  0  0  0  0
  185.5520  178.3600  138.5820 C   0  0  0  0  0  0  0  0  0  0  0  0
  187.8630  177.9820  138.7360 N   0  0  0  0  0  0  0  0  0  0  0  0
  188.8430  176.0190  137.5570 C   0  0  0  0  0  3  0  0  0  0  0  0
  184.0720  177.0890  137.2570 N   0  0  0  0  0  2  0  0  0  0  0  0
  189.1220  178.3970  139.3410 C   0  0  0  0  0  2  0  0  0  0  0  0
  189.2600  177.8030  140.7000 C   0  0  0  0  0  0  0  0  0  0  0  0
  188.9150  177.3810  142.8310 N   0  0  0  0  0  0  0  0  0  0  0  0
  189.8220  176.4950  142.3690 C   0  0  0  0  0  3  0  0  0  0  0  0
  188.5530  178.1880  141.8160 C   0  0  0  0  0  3  0  0  0  0  0  0
  190.0610  176.7250  141.0260 C   0  0  0  0  0  3  0  0  0  0  0  0
  187.0290  177.5080  144.4160 C   0  0  0  0  0  3  0  0  0  0  0  0
  187.4260  177.5740  146.8030 C   0  0  0  0  0  3  0  0  0  0  0  0
  189.2940  177.4480  145.2680 C   0  0  0  0  0  3  0  0  0  0  0  0
  188.8030  177.5120  146.5760 C   0  0  0  0  0  3  0  0  0  0  0  0
  186.5400  177.5710  145.7240 C   0  0  0  0  0  3  0  0  0  0  0  0
  188.4110  177.4460  144.1750 C   0  0  0  0  0  0  0  0  0  0  0  0
  2  7  2  0  0  0  0
  2  4  1  0  0  0  0
  3  5  1  0  0  0  0
  3  9  2  0  0  0  0
  5  6  1  0  0  0  0
  6 10  1  0  0  0  0
  6 11  2  0  0  0  0
  8  3  1  0  0  0  0
  9 14  1  0  0  0  0
 10 14  2  0  0  0  0
 10 13  1  0  0  0  0
 11 12  1  0  0  0  0
 12  4  1  0  0  0  0
 12  1  2  0  0  0  0
 13  1  1  0  0  0  0
 13 16  1  0  0  0  0
 15 11  1  0  0  0  0
 15  2  1  0  0  0  0
 16 17  1  0  0  0  0
 17 21  1  0  0  0  0
 17 20  2  0  0  0  0
 18 27  1  0  0  0  0
 19 18  1  0  0  0  0
 20 18  1  0  0  0  0
 21 19  2  0  0  0  0
 22 26  1  0  0  0  0
 24 25  2  0  0  0  0
 25 23  1  0  0  0  0
 26 23  2  0  0  0  0
 27 22  2  0  0  0  0
 27 24  1  0  0  0  0
M  END
>  <MODEL>
7

>  <REMARK>
 VINA RESULT:      -8.7      4.176      7.819
  Name = 
  3 active torsions:
  status: ('A' for Active; 'I' for Inactive)
    1  A    between atoms: C_13  and  C_17
    2  A    between atoms: C_17  and  N_20
    3  A    between atoms: N_21  and  C_24
                            x       y       z     vdW  Elec       q    Type
                         _______ _______ _______ _____ _____    ______ ____

>  <TORSDO>
F 3

$$$$
=
 OpenBabel10222420113D

 27 31  0  0  0  0  0  0  0  0999 V2000
  188.4350  177.7390  141.3590 N   0  0  0  0  0  0  0  0  0  0  0  0
  185.3600  178.9470  140.0640 C   0  0  0  0  0  0  0  0  0  0  0  0
  189.0550  176.8120  136.4330 C   0  0  0  0  0  0  0  0  0  0  0  0
  186.1570  178.7270  141.3200 C   0  0  0  0  0  2  0  0  0  0  0  0
  188.1930  177.6060  137.0770 C   0  0  0  0  0  2  0  0  0  0  0  0
  188.3340  177.7910  138.5310 C   0  0  0  0  0  0  0  0  0  0  0  0
  184.1690  179.3530  140.0710 O   0  0  0  0  0  0  0  0  0  0  0  0
  188.9200  176.6230  135.0980 F   0  0  0  0  0  0  0  0  0  0  0  0
  190.0870  176.0560  137.1770 C   0  0  0  0  0  3  0  0  0  0  0  0
  189.6600  177.4490  139.1840 C   0  0  0  0  0  0  0  0  0  0  0  0
  187.3440  178.2530  139.2890 C   0  0  0  0  0  0  0  0  0  0  0  0
  187.4330  178.2610  140.7240 C   0  0  0  0  0  0  0  0  0  0  0  0
  189.5340  177.2190  140.6410 N   0  0  0  0  0  0  0  0  0  0  0  0
  190.3410  176.3090  138.4670 C   0  0  0  0  0  3  0  0  0  0  0  0
  186.0570  178.6530  138.8500 N   0  0  0  0  0  2  0  0  0  0  0  0
  190.6870  176.7530  141.4000 C   0  0  0  0  0  2  0  0  0  0  0  0
  190.6410  177.2930  142.7880 C   0  0  0  0  0  0  0  0  0  0  0  0
  189.9490  177.7200  144.8310 N   0  0  0  0  0  0  0  0  0  0  0  0
  191.2010  178.2070  144.7020 C   0  0  0  0  0  3  0  0  0  0  0  0
  189.5910  177.1480  143.6660 C   0  0  0  0  0  3  0  0  0  0  0  0
  191.6740  177.9510  143.4270 C   0  0  0  0  0  3  0  0  0  0  0  0
  187.7370  177.8390  145.9180 C   0  0  0  0  0  3  0  0  0  0  0  0
  187.5510  177.9280  148.3300 C   0  0  0  0  0  3  0  0  0  0  0  0
  189.7330  177.8100  147.2870 C   0  0  0  0  0  3  0  0  0  0  0  0
  188.9430  177.8800  148.4390 C   0  0  0  0  0  3  0  0  0  0  0  0
  186.9480  177.9070  147.0690 C   0  0  0  0  0  3  0  0  0  0  0  0
  189.1370  177.7900  146.0150 C   0  0  0  0  0  0  0  0  0  0  0  0
  2  7  2  0  0  0  0
  2  4  1  0  0  0  0
  3  5  1  0  0  0  0
  3  9  2  0  0  0  0
  5  6  1  0  0  0  0
  6 10  1  0  0  0  0
  6 11  2  0  0  0  0
  8  3  1  0  0  0  0
  9 14  1  0  0  0  0
 10 13  1  0  0  0  0
 11 12  1  0  0  0  0
 12  4  1  0  0  0  0
 12  1  2  0  0  0  0
 13  1  1  0  0  0  0
 13 16  1  0  0  0  0
 14 10  2  0  0  0  0
 15 11  1  0  0  0  0
 15  2  1  0  0  0  0
 16 17  1  0  0  0  0
 17 21  1  0  0  0  0
 17 20  2  0  0  0  0
 18 27  1  0  0  0  0
 19 18  1  0  0  0  0
 20 18  1  0  0  0  0
 21 19  2  0  0  0  0
 22 27  2  0  0  0  0
 22 26  1  0  0  0  0
 23 25  1  0  0  0  0
 24 25  2  0  0  0  0
 26 23  2  0  0  0  0
 27 24  1  0  0  0  0
M  END
>  <MODEL>
8

>  <REMARK>
 VINA RESULT:      -8.6      3.302      7.478
  Name = 
  3 active torsions:
  status: ('A' for Active; 'I' for Inactive)
    1  A    between atoms: C_13  and  C_17
    2  A    between atoms: C_17  and  N_20
    3  A    between atoms: N_21  and  C_24
                            x       y       z     vdW  Elec       q    Type
                         _______ _______ _______ _____ _____    ______ ____

>  <TORSDO>
F 3

$$$$
=
 OpenBabel10222420113D

 27 31  0  0  0  0  0  0  0  0999 V2000
  190.4460  177.8440  140.0730 N   0  0  0  0  0  0  0  0  0  0  0  0
  193.0100  176.1980  138.2540 C   0  0  0  0  0  0  0  0  0  0  0  0
  187.8510  176.1930  136.0680 C   0  0  0  0  0  0  0  0  0  0  0  0
  192.7080  177.0020  139.4880 C   0  0  0  0  0  2  0  0  0  0  0  0
  189.0450  175.8370  136.5500 C   0  0  0  0  0  2  0  0  0  0  0  0
  189.5000  176.3960  137.8330 C   0  0  0  0  0  0  0  0  0  0  0  0
  194.1770  175.8670  137.9200 O   0  0  0  0  0  0  0  0  0  0  0  0
  187.4340  175.6960  134.8780 F   0  0  0  0  0  0  0  0  0  0  0  0
  187.0240  177.2030  136.7660 C   0  0  0  0  0  3  0  0  0  0  0  0
  188.4700  176.9980  138.7710 C   0  0  0  0  0  0  0  0  0  0  0  0
  190.7780  176.3870  138.2010 C   0  0  0  0  0  0  0  0  0  0  0  0
  191.2320  177.0910  139.3700 C   0  0  0  0  0  0  0  0  0  0  0  0
  189.0720  177.9230  139.7580 N   0  0  0  0  0  0  0  0  0  0  0  0
  187.3320  177.6220  138.0010 C   0  0  0  0  0  3  0  0  0  0  0  0
  191.8650  175.8400  137.4750 N   0  0  0  0  0  2  0  0  0  0  0  0
  188.2090  178.6880  140.6490 C   0  0  0  0  0  2  0  0  0  0  0  0
  188.1950  178.0700  142.0050 C   0  0  0  0  0  0  0  0  0  0  0  0
  188.8480  177.4250  144.0030 N   0  0  0  0  0  0  0  0  0  0  0  0
  187.5320  177.1500  143.8830 C   0  0  0  0  0  3  0  0  0  0  0  0
  189.2700  177.9970  142.8600 C   0  0  0  0  0  3  0  0  0  0  0  0
  187.0820  177.5490  142.6370 C   0  0  0  0  0  3  0  0  0  0  0  0
  190.9870  176.7260  145.0140 C   0  0  0  0  0  3  0  0  0  0  0  0
  191.2460  176.6440  147.4190 C   0  0  0  0  0  3  0  0  0  0  0  0
  189.1370  177.3340  146.4520 C   0  0  0  0  0  3  0  0  0  0  0  0
  189.9270  177.0760  147.5760 C   0  0  0  0  0  3  0  0  0  0  0  0
  191.7760  176.4690  146.1380 C   0  0  0  0  0  3  0  0  0  0  0  0
  189.6590  177.1610  145.1590 C   0  0  0  0  0  0  0  0  0  0  0  0
  2  4  1  0  0  0  0
  3  5  1  0  0  0  0
  3  9  2  0  0  0  0
  5  6  1  0  0  0  0
  6 11  2  0  0  0  0
  6 10  1  0  0  0  0
  7  2  2  0  0  0  0
  8  3  1  0  0  0  0
  9 14  1  0  0  0  0
 10 13  1  0  0  0  0
 11 12  1  0  0  0  0
 12  4  1  0  0  0  0
 12  1  2  0  0  0  0
 13  1  1  0  0  0  0
 13 16  1  0  0  0  0
 14 10  2  0  0  0  0
 15 11  1  0  0  0  0
 15  2  1  0  0  0  0
 16 17  1  0  0  0  0
 17 21  1  0  0  0  0
 17 20  2  0  0  0  0
 18 27  1  0  0  0  0
 19 18  1  0  0  0  0
 20 18  1  0  0  0  0
 21 19  2  0  0  0  0
 22 27  2  0  0  0  0
 22 26  1  0  0  0  0
 23 25  1  0  0  0  0
 24 25  2  0  0  0  0
 26 23  2  0  0  0  0
 27 24  1  0  0  0  0
M  END
>  <MODEL>
9

>  <REMARK>
 VINA RESULT:      -8.6      4.104      8.549
  Name = 
  3 active torsions:
  status: ('A' for Active; 'I' for Inactive)
    1  A    between atoms: C_13  and  C_17
    2  A    between atoms: C_17  and  N_20
    3  A    between atoms: N_21  and  C_24
                            x       y       z     vdW  Elec       q    Type
                         _______ _______ _______ _____ _____    ______ ____

>  <TORSDO>
F 3

$$$$
