=
 OpenBabel10222415393D

 40 43  0  0  1  0  0  0  0  0999 V2000
  186.2390  178.8370  146.2160 C   0  0  0  0  0  0  0  0  0  0  0  0
  190.7700  177.5550  140.4490 C   0  0  0  0  0  0  0  0  0  0  0  0
  186.4370  178.7490  144.9500 N   0  0  0  0  0  0  0  0  0  0  0  0
  187.3810  178.8780  147.1750 C   0  0  0  0  0  2  0  0  0  0  0  0
  184.9240  178.3480  143.1030 C   0  0  0  0  0  0  0  0  0  0  0  0
  188.9340  177.3990  144.9810 C   0  0  0  0  0  3  0  0  0  0  0  0
  187.9310  176.9160  148.3920 O   0  0  0  0  0  0  0  0  0  0  0  0
  186.0240  178.0920  142.2200 N   0  0  0  0  0  2  0  0  0  0  0  0
  188.8130  176.8960  146.2110 C   0  0  0  0  0  3  0  0  0  0  0  0
  184.1860  178.6770  145.4930 C   0  0  0  0  0  3  0  0  0  0  0  0
  190.5600  175.6230  144.2830 C   0  0  0  0  0  1  0  0  0  0  0  0
  189.6760  176.7350  143.9420 N   0  0  0  0  0  0  0  0  0  0  0  0
  189.5740  178.0080  139.8820 C   0  0  0  0  0  3  0  0  0  0  0  0
  188.4110  177.6360  141.9790 C   0  0  0  0  0  0  0  0  0  0  0  0
  184.8600  178.8020  146.5940 N   0  0  0  0  0  0  0  0  0  0  0  0
  189.6170  177.1890  142.5720 C   0  0  0  0  0  0  0  0  0  0  0  0
  185.1460  178.6100  144.3980 C   0  0  0  0  0  0  0  0  0  0  0  0
  190.7810  177.1490  141.7860 C   0  0  0  0  0  3  0  0  0  0  0  0
  188.0390  177.5310  147.3000 C   0  0  0  0  0  0  0  0  0  0  0  0
  188.4040  178.0470  140.6400 C   0  0  0  0  0  3  0  0  0  0  0  0
  187.2360  177.6640  142.7290 O   0  0  0  0  0  0  0  0  0  0  0  0
  191.9930  177.5010  139.7030 N   0  0  0  0  0  2  0  0  0  0  0  0
  191.4800  175.4950  138.3730 O   0  0  0  0  0  1  0  0  0  0  0  0
  192.3360  176.5410  138.6970 C   0  0  0  0  0  0  0  0  0  0  0  0
  193.4400  176.6410  138.1020 O   0  0  0  0  0  0  0  0  0  0  0  0
  183.2540  178.2720  142.4560 S   0  0  0  0  0  0  0  0  0  0  0  0
  183.7980  178.7500  140.7910 C   0  0  0  0  0  2  0  0  0  0  0  0
  184.1360  177.5420  138.5790 N   0  0  0  0  0  2  0  0  0  0  0  0
  183.4340  177.6820  139.8160 C   0  0  0  0  0  0  0  0  0  0  0  0
  182.4750  176.9100  140.0770 O   0  0  0  0  0  0  0  0  0  0  0  0
  185.2480  178.4060  138.2140 C   0  0  0  0  0  2  0  0  0  0  0  0
  188.7580  175.4870  135.9190 C   0  0  0  0  0  2  0  0  0  0  0  0
  187.9050  179.4300  137.1930 O   0  0  0  0  0  1  0  0  0  0  0  0
  187.9160  177.7200  135.6300 O   0  0  0  0  0  0  0  0  0  0  0  0
  187.3150  174.9890  135.8530 C   0  0  0  0  0  2  0  0  0  0  0  0
  188.8520  176.9500  136.3410 C   0  0  0  0  0  2  0  0  0  0  0  0
  187.1340  178.4520  136.5550 C   0  0  1  0  0  3  0  0  0  0  0  0
  186.6290  175.2110  137.1170 N   0  0  0  0  0  2  0  0  0  0  0  0
  185.7460  176.3550  136.9350 C   0  0  0  0  0  2  0  0  0  0  0  0
  186.3610  177.5910  137.5790 C   0  0  2  0  0  3  0  0  0  0  0  0
  1 15  1  0  0  0  0
  1  4  1  0  0  0  0
  2 18  1  0  0  0  0
  3  1  2  0  0  0  0
  4 19  1  0  0  0  0
  5 17  2  0  0  0  0
  6  9  2  0  0  0  0
  8 21  1  0  0  0  0
  8  5  1  0  0  0  0
  9 19  1  0  0  0  0
 10 15  2  0  0  0  0
 12 11  1  0  0  0  0
 12  6  1  0  0  0  0
 13  2  2  0  0  0  0
 13 20  1  0  0  0  0
 14 16  1  0  0  0  0
 14 21  1  0  0  0  0
 16 12  1  0  0  0  0
 17  3  1  0  0  0  0
 17 10  1  0  0  0  0
 18 16  2  0  0  0  0
 19  7  2  0  0  0  0
 20 14  2  0  0  0  0
 22  2  1  0  0  0  0
 23 24  1  0  0  0  0
 24 22  1  0  0  0  0
 25 24  2  0  0  0  0
 26  5  1  0  0  0  0
 27 26  1  0  0  0  0
 28 29  1  0  0  0  0
 29 30  2  0  0  0  0
 29 27  1  0  0  0  0
 31 28  1  0  0  0  0
 32 36  1  0  0  0  0
 34 36  1  0  0  0  0
 34 37  1  0  0  0  0
 35 32  1  0  0  0  0
 35 38  1  0  0  0  0
 37 33  1  1  0  0  0
 37 40  1  0  0  0  0
 39 38  1  0  0  0  0
 39 40  1  0  0  0  0
 40 31  1  6  0  0  0
M  END
>  <MODEL>
1

>  <REMARK>
 VINA RESULT:      -8.6      0.000      0.000
  Name = 
  6 active torsions:
  status: ('A' for Active; 'I' for Inactive)
    1  A    between atoms: C_1  and  N_10
    2  A    between atoms: C_1  and  C_34
    3  A    between atoms: C_3  and  N_4
    4  A    between atoms: C_9  and  S_11
    5  A    between atoms: S_11  and  C_37
    6  A    between atoms: C_18  and  C_37
                            x       y       z     vdW  Elec       q    Type
                         _______ _______ _______ _____ _____    ______ ____

>  <TORSDO>
F 6

$$$$
=
 OpenBabel10222415393D

 40 43  0  0  1  0  0  0  0  0999 V2000
  189.6810  176.5980  143.1220 C   0  0  0  0  0  0  0  0  0  0  0  0
  182.5270  178.6520  143.2930 C   0  0  0  0  0  0  0  0  0  0  0  0
  188.6240  177.0100  142.5210 N   0  0  0  0  0  0  0  0  0  0  0  0
  189.6220  176.0790  144.5200 C   0  0  0  0  0  2  0  0  0  0  0  0
  188.3100  178.1910  140.4310 C   0  0  0  0  0  0  0  0  0  0  0  0
  187.1120  177.8230  144.7830 C   0  0  0  0  0  3  0  0  0  0  0  0
  190.3470  177.4750  146.2970 O   0  0  0  0  0  0  0  0  0  0  0  0
  186.9490  178.4890  140.7700 N   0  0  0  0  0  2  0  0  0  0  0  0
  188.1500  177.9640  145.6100 C   0  0  0  0  0  3  0  0  0  0  0  0
  190.5340  177.3260  141.2500 C   0  0  0  0  0  3  0  0  0  0  0  0
  185.6860  179.4030  146.1090 C   0  0  0  0  0  1  0  0  0  0  0  0
  185.9150  178.6140  144.9010 N   0  0  0  0  0  0  0  0  0  0  0  0
  182.8620  178.6050  141.9350 C   0  0  0  0  0  3  0  0  0  0  0  0
  185.2230  178.5590  142.4970 C   0  0  0  0  0  0  0  0  0  0  0  0
  190.8840  176.7700  142.3680 N   0  0  0  0  0  0  0  0  0  0  0  0
  184.8990  178.5920  143.8750 C   0  0  0  0  0  0  0  0  0  0  0  0
  189.0910  177.5320  141.2970 C   0  0  0  0  0  0  0  0  0  0  0  0
  183.5460  178.6480  144.2490 C   0  0  0  0  0  3  0  0  0  0  0  0
  189.4080  177.1910  145.5090 C   0  0  0  0  0  0  0  0  0  0  0  0
  184.1990  178.5600  141.5400 C   0  0  0  0  0  3  0  0  0  0  0  0
  186.5580  178.5280  142.0960 O   0  0  0  0  0  0  0  0  0  0  0  0
  181.1650  178.6990  143.7400 N   0  0  0  0  0  2  0  0  0  0  0  0
  180.3880  180.4910  142.2440 O   0  0  0  0  0  0  0  0  0  0  0  0
  180.1310  179.5520  143.2350 C   0  0  0  0  0  0  0  0  0  0  0  0
  178.9690  179.4560  143.7070 O   0  0  0  0  0  1  0  0  0  0  0  0
  188.9550  178.7490  138.8550 S   0  0  0  0  0  0  0  0  0  0  0  0
  187.9190  177.5770  137.9320 C   0  0  0  0  0  2  0  0  0  0  0  0
  185.9230  177.7080  136.3620 N   0  0  0  0  0  2  0  0  0  0  0  0
  187.0750  178.3160  136.9510 C   0  0  0  0  0  0  0  0  0  0  0  0
  187.3980  179.4850  136.6160 O   0  0  0  0  0  0  0  0  0  0  0  0
  185.4990  176.3570  136.7000 C   0  0  0  0  0  2  0  0  0  0  0  0
  181.0920  176.7160  139.2600 C   0  0  0  0  0  2  0  0  0  0  0  0
  184.1030  174.0180  138.0150 O   0  0  0  0  0  1  0  0  0  0  0  0
  182.0870  175.1280  137.7530 O   0  0  0  0  0  0  0  0  0  0  0  0
  181.3570  177.7980  138.2140 C   0  0  0  0  0  2  0  0  0  0  0  0
  182.0170  175.5130  139.1030 C   0  0  0  0  0  2  0  0  0  0  0  0
  183.4470  175.0710  137.3680 C   0  0  1  0  0  3  0  0  0  0  0  0
  182.7540  178.2090  138.2340 N   0  0  0  0  0  2  0  0  0  0  0  0
  183.4000  177.5980  137.0800 C   0  0  0  0  0  2  0  0  0  0  0  0
  184.2250  176.3960  137.5250 C   0  0  2  0  0  3  0  0  0  0  0  0
  1  4  1  0  0  0  0
  2 22  1  0  0  0  0
  2 18  1  0  0  0  0
  3  1  2  0  0  0  0
  4 19  1  0  0  0  0
  5  8  1  0  0  0  0
  5 17  2  0  0  0  0
  6 12  1  0  0  0  0
  6  9  2  0  0  0  0
  8 21  1  0  0  0  0
 10 17  1  0  0  0  0
 10 15  2  0  0  0  0
 12 11  1  0  0  0  0
 13  2  2  0  0  0  0
 14 16  1  0  0  0  0
 15  1  1  0  0  0  0
 16 18  2  0  0  0  0
 16 12  1  0  0  0  0
 17  3  1  0  0  0  0
 19  9  1  0  0  0  0
 19  7  2  0  0  0  0
 20 13  1  0  0  0  0
 20 14  2  0  0  0  0
 21 14  1  0  0  0  0
 23 24  2  0  0  0  0
 24 25  1  0  0  0  0
 24 22  1  0  0  0  0
 26  5  1  0  0  0  0
 27 26  1  0  0  0  0
 28 31  1  0  0  0  0
 28 29  1  0  0  0  0
 29 27  1  0  0  0  0
 30 29  2  0  0  0  0
 34 36  1  0  0  0  0
 35 38  1  0  0  0  0
 35 32  1  0  0  0  0
 36 32  1  0  0  0  0
 37 40  1  0  0  0  0
 37 34  1  0  0  0  0
 37 33  1  1  0  0  0
 39 40  1  0  0  0  0
 39 38  1  0  0  0  0
 40 31  1  6  0  0  0
M  END
>  <MODEL>
2

>  <REMARK>
 VINA RESULT:      -8.6      2.540      6.634
  Name = 
  6 active torsions:
  status: ('A' for Active; 'I' for Inactive)
    1  A    between atoms: C_1  and  N_10
    2  A    between atoms: C_1  and  C_34
    3  A    between atoms: C_3  and  N_4
    4  A    between atoms: C_9  and  S_11
    5  A    between atoms: S_11  and  C_37
    6  A    between atoms: C_18  and  C_37
                            x       y       z     vdW  Elec       q    Type
                         _______ _______ _______ _____ _____    ______ ____

>  <TORSDO>
F 6

$$$$
=
 OpenBabel10222415393D

 40 43  0  0  1  0  0  0  0  0999 V2000
  189.0860  175.2660  136.2910 C   0  0  0  0  0  0  0  0  0  0  0  0
  190.9460  177.4890  143.1490 C   0  0  0  0  0  0  0  0  0  0  0  0
  188.8030  175.8890  137.3770 N   0  0  0  0  0  0  0  0  0  0  0  0
  190.2600  174.3470  136.2110 C   0  0  0  0  0  2  0  0  0  0  0  0
  187.2290  177.6650  137.8570 C   0  0  0  0  0  0  0  0  0  0  0  0
  191.4070  176.0390  138.5000 C   0  0  0  0  0  3  0  0  0  0  0  0
  192.2380  175.0990  135.1380 O   0  0  0  0  0  0  0  0  0  0  0  0
  187.8450  177.9060  139.1300 N   0  0  0  0  0  2  0  0  0  0  0  0
  192.0700  175.8730  137.3530 C   0  0  0  0  0  3  0  0  0  0  0  0
  187.4060  176.4920  135.6310 C   0  0  0  0  0  3  0  0  0  0  0  0
  193.3420  177.2000  139.5920 C   0  0  0  0  0  1  0  0  0  0  0  0
  191.9340  176.8090  139.5950 N   0  0  0  0  0  0  0  0  0  0  0  0
  189.6010  177.8440  143.0010 C   0  0  0  0  0  3  0  0  0  0  0  0
  189.7570  177.5230  140.6000 C   0  0  0  0  0  0  0  0  0  0  0  0
  188.2430  175.6060  135.1870 N   0  0  0  0  0  0  0  0  0  0  0  0
  191.1150  177.1470  140.7360 C   0  0  0  0  0  0  0  0  0  0  0  0
  187.7310  176.7390  137.0300 C   0  0  0  0  0  0  0  0  0  0  0  0
  191.6910  177.1460  142.0170 C   0  0  0  0  0  3  0  0  0  0  0  0
  191.5540  175.1120  136.1930 C   0  0  0  0  0  0  0  0  0  0  0  0
  189.0110  177.8620  141.7370 C   0  0  0  0  0  3  0  0  0  0  0  0
  189.1660  177.5550  139.3380 O   0  0  0  0  0  0  0  0  0  0  0  0
  191.5890  177.4580  144.4300 N   0  0  0  0  0  2  0  0  0  0  0  0
  189.6220  176.8410  145.7720 O   0  0  0  0  0  0  0  0  0  0  0  0
  190.9780  177.1300  145.6830 C   0  0  0  0  0  0  0  0  0  0  0  0
  191.6810  177.1140  146.7260 O   0  0  0  0  0  1  0  0  0  0  0  0
  185.8100  178.6490  137.3780 S   0  0  0  0  0  0  0  0  0  0  0  0
  184.8560  178.1130  138.8270 C   0  0  0  0  0  2  0  0  0  0  0  0
  184.0220  179.1650  140.9870 N   0  0  0  0  0  2  0  0  0  0  0  0
  184.4470  179.3010  139.6290 C   0  0  0  0  0  0  0  0  0  0  0  0
  184.4510  180.4390  139.0920 O   0  0  0  0  0  0  0  0  0  0  0  0
  183.9860  177.8770  141.6640 C   0  0  0  0  0  2  0  0  0  0  0  0
  185.3700  178.5700  146.5340 C   0  0  0  0  0  2  0  0  0  0  0  0
  182.1280  178.8740  143.8330 O   0  0  0  0  0  1  0  0  0  0  0  0
  183.9650  179.7230  144.9590 O   0  0  0  0  0  0  0  0  0  0  0  0
  186.4910  178.6260  145.4970 C   0  0  0  0  0  2  0  0  0  0  0  0
  183.9850  178.6820  145.9030 C   0  0  0  0  0  2  0  0  0  0  0  0
  183.4810  179.2130  143.7320 C   0  0  1  0  0  3  0  0  0  0  0  0
  186.3030  177.6100  144.4720 N   0  0  0  0  0  2  0  0  0  0  0  0
  185.8060  178.2850  143.2800 C   0  0  0  0  0  2  0  0  0  0  0  0
  184.3080  178.0500  143.1390 C   0  0  2  0  0  3  0  0  0  0  0  0
  1  3  2  0  0  0  0
  2 22  1  0  0  0  0
  4  1  1  0  0  0  0
  5  8  1  0  0  0  0
  6 12  1  0  0  0  0
  7 19  2  0  0  0  0
  8 21  1  0  0  0  0
  9  6  2  0  0  0  0
 10 17  1  0  0  0  0
 11 12  1  0  0  0  0
 12 16  1  0  0  0  0
 13  2  1  0  0  0  0
 14 16  2  0  0  0  0
 14 20  1  0  0  0  0
 15 10  2  0  0  0  0
 15  1  1  0  0  0  0
 16 18  1  0  0  0  0
 17  3  1  0  0  0  0
 17  5  2  0  0  0  0
 18  2  2  0  0  0  0
 19  4  1  0  0  0  0
 19  9  1  0  0  0  0
 20 13  2  0  0  0  0
 21 14  1  0  0  0  0
 22 24  1  0  0  0  0
 24 23  2  0  0  0  0
 24 25  1  0  0  0  0
 26  5  1  0  0  0  0
 26 27  1  0  0  0  0
 27 29  1  0  0  0  0
 28 31  1  0  0  0  0
 29 28  1  0  0  0  0
 30 29  2  0  0  0  0
 34 36  1  0  0  0  0
 35 32  1  0  0  0  0
 36 32  1  0  0  0  0
 37 33  1  1  0  0  0
 37 34  1  0  0  0  0
 38 35  1  0  0  0  0
 39 38  1  0  0  0  0
 40 31  1  6  0  0  0
 40 39  1  0  0  0  0
 40 37  1  0  0  0  0
M  END
>  <MODEL>
3

>  <REMARK>
 VINA RESULT:      -8.4      2.318      7.639
  Name = 
  6 active torsions:
  status: ('A' for Active; 'I' for Inactive)
    1  A    between atoms: C_1  and  N_10
    2  A    between atoms: C_1  and  C_34
    3  A    between atoms: C_3  and  N_4
    4  A    between atoms: C_9  and  S_11
    5  A    between atoms: S_11  and  C_37
    6  A    between atoms: C_18  and  C_37
                            x       y       z     vdW  Elec       q    Type
                         _______ _______ _______ _____ _____    ______ ____

>  <TORSDO>
F 6

$$$$
=
 OpenBabel10222415393D

 40 43  0  0  1  0  0  0  0  0999 V2000
  189.6420  176.5750  142.4910 C   0  0  0  0  0  0  0  0  0  0  0  0
  182.5040  178.6550  142.8800 C   0  0  0  0  0  0  0  0  0  0  0  0
  188.5750  177.0120  141.9270 N   0  0  0  0  0  0  0  0  0  0  0  0
  189.6090  176.0080  143.8710 C   0  0  0  0  0  2  0  0  0  0  0  0
  188.2250  178.2660  139.8850 C   0  0  0  0  0  0  0  0  0  0  0  0
  187.1140  177.7540  144.2460 C   0  0  0  0  0  3  0  0  0  0  0  0
  190.3770  177.3390  145.6800 O   0  0  0  0  0  0  0  0  0  0  0  0
  186.8720  178.5590  140.2630 N   0  0  0  0  0  2  0  0  0  0  0  0
  188.1700  177.8610  145.0560 C   0  0  0  0  0  3  0  0  0  0  0  0
  190.4600  177.3630  140.6280 C   0  0  0  0  0  3  0  0  0  0  0  0
  185.7240  179.2940  145.6540 C   0  0  0  0  0  1  0  0  0  0  0  0
  185.9240  178.5460  144.4160 N   0  0  0  0  0  0  0  0  0  0  0  0
  182.8110  178.6530  141.5150 C   0  0  0  0  0  3  0  0  0  0  0  0
  185.1830  178.5770  142.0250 C   0  0  0  0  0  0  0  0  0  0  0  0
  190.8310  176.7670  141.7190 N   0  0  0  0  0  0  0  0  0  0  0  0
  184.8870  178.5640  143.4100 C   0  0  0  0  0  0  0  0  0  0  0  0
  189.0200  177.5740  140.7120 C   0  0  0  0  0  0  0  0  0  0  0  0
  183.5420  178.6130  143.8140 C   0  0  0  0  0  3  0  0  0  0  0  0
  189.4210  177.0870  144.9020 C   0  0  0  0  0  0  0  0  0  0  0  0
  184.1390  178.6150  141.0910 C   0  0  0  0  0  3  0  0  0  0  0  0
  186.5090  178.5530  141.5970 O   0  0  0  0  0  0  0  0  0  0  0  0
  181.1520  178.6930  143.3560 N   0  0  0  0  0  2  0  0  0  0  0  0
  180.3640  180.5630  141.9650 O   0  0  0  0  0  0  0  0  0  0  0  0
  180.1170  179.5790  142.9140 C   0  0  0  0  0  0  0  0  0  0  0  0
  178.9640  179.4710  143.4040 O   0  0  0  0  0  1  0  0  0  0  0  0
  188.8400  178.8750  138.3170 S   0  0  0  0  0  0  0  0  0  0  0  0
  188.4760  177.3050  137.4800 C   0  0  0  0  0  2  0  0  0  0  0  0
  186.3390  177.6200  136.1380 N   0  0  0  0  0  2  0  0  0  0  0  0
  187.7670  177.5720  136.1960 C   0  0  0  0  0  0  0  0  0  0  0  0
  188.4360  177.7300  135.1430 O   0  0  0  0  0  0  0  0  0  0  0  0
  185.5070  177.4380  137.3170 C   0  0  0  0  0  2  0  0  0  0  0  0
  182.3980  173.4410  136.6330 C   0  0  0  0  0  2  0  0  0  0  0  0
  182.5740  177.4210  138.0580 O   0  0  0  0  0  1  0  0  0  0  0  0
  182.6980  175.1230  138.3250 O   0  0  0  0  0  0  0  0  0  0  0  0
  183.8890  173.1270  136.7530 C   0  0  0  0  0  2  0  0  0  0  0  0
  182.0590  174.8530  137.1030 C   0  0  0  0  0  2  0  0  0  0  0  0
  183.4330  176.3250  138.1960 C   0  0  1  0  0  3  0  0  0  0  0  0
  184.6880  174.1170  136.0460 N   0  0  0  0  0  2  0  0  0  0  0  0
  185.2730  174.9960  137.0490 C   0  0  0  0  0  2  0  0  0  0  0  0
  184.5110  176.3150  137.0900 C   0  0  2  0  0  3  0  0  0  0  0  0
  1  4  1  0  0  0  0
  2 22  1  0  0  0  0
  2 18  1  0  0  0  0
  3  1  2  0  0  0  0
  4 19  1  0  0  0  0
  5  8  1  0  0  0  0
  5 17  2  0  0  0  0
  6 12  1  0  0  0  0
  6  9  2  0  0  0  0
  8 21  1  0  0  0  0
 10 17  1  0  0  0  0
 10 15  2  0  0  0  0
 12 11  1  0  0  0  0
 13  2  2  0  0  0  0
 14 16  1  0  0  0  0
 15  1  1  0  0  0  0
 16 18  2  0  0  0  0
 16 12  1  0  0  0  0
 17  3  1  0  0  0  0
 19  9  1  0  0  0  0
 19  7  2  0  0  0  0
 20 13  1  0  0  0  0
 20 14  2  0  0  0  0
 21 14  1  0  0  0  0
 23 24  2  0  0  0  0
 24 22  1  0  0  0  0
 24 25  1  0  0  0  0
 26  5  1  0  0  0  0
 27 26  1  0  0  0  0
 28 29  1  0  0  0  0
 28 31  1  0  0  0  0
 29 27  1  0  0  0  0
 30 29  2  0  0  0  0
 32 35  1  0  0  0  0
 32 36  1  0  0  0  0
 36 34  1  0  0  0  0
 37 33  1  6  0  0  0
 37 34  1  0  0  0  0
 38 35  1  0  0  0  0
 38 39  1  0  0  0  0
 39 40  1  0  0  0  0
 40 31  1  1  0  0  0
 40 37  1  0  0  0  0
M  END
>  <MODEL>
4

>  <REMARK>
 VINA RESULT:      -8.4      2.655      6.532
  Name = 
  6 active torsions:
  status: ('A' for Active; 'I' for Inactive)
    1  A    between atoms: C_1  and  N_10
    2  A    between atoms: C_1  and  C_34
    3  A    between atoms: C_3  and  N_4
    4  A    between atoms: C_9  and  S_11
    5  A    between atoms: S_11  and  C_37
    6  A    between atoms: C_18  and  C_37
                            x       y       z     vdW  Elec       q    Type
                         _______ _______ _______ _____ _____    ______ ____

>  <TORSDO>
F 6

$$$$
=
 OpenBabel10222415393D

 40 43  0  0  1  0  0  0  0  0999 V2000
  188.0360  178.4240  138.0060 C   0  0  0  0  0  0  0  0  0  0  0  0
  182.3110  179.1320  142.7120 C   0  0  0  0  0  0  0  0  0  0  0  0
  187.5780  178.4870  139.2040 N   0  0  0  0  0  0  0  0  0  0  0  0
  187.1900  178.7960  136.8350 C   0  0  0  0  0  2  0  0  0  0  0  0
  188.4640  177.7040  141.3170 C   0  0  0  0  0  0  0  0  0  0  0  0
  184.8230  178.0780  138.6490 C   0  0  0  0  0  3  0  0  0  0  0  0
  186.2400  177.0720  135.5090 O   0  0  0  0  0  0  0  0  0  0  0  0
  187.1940  177.8960  141.9540 N   0  0  0  0  0  2  0  0  0  0  0  0
  184.9980  177.4890  137.4640 C   0  0  0  0  0  3  0  0  0  0  0  0
  189.7210  177.6130  139.1310 C   0  0  0  0  0  3  0  0  0  0  0  0
  182.5770  177.0150  138.9810 C   0  0  0  0  0  1  0  0  0  0  0  0
  183.7090  177.7740  139.5080 N   0  0  0  0  0  0  0  0  0  0  0  0
  183.4550  179.1790  143.5170 C   0  0  0  0  0  3  0  0  0  0  0  0
  184.8000  178.3030  141.6970 C   0  0  0  0  0  0  0  0  0  0  0  0
  189.3620  177.8940  137.9170 N   0  0  0  0  0  0  0  0  0  0  0  0
  183.6540  178.2630  140.8660 C   0  0  0  0  0  0  0  0  0  0  0  0
  188.6050  177.9470  140.0070 C   0  0  0  0  0  0  0  0  0  0  0  0
  182.4190  178.6730  141.3970 C   0  0  0  0  0  3  0  0  0  0  0  0
  186.1420  177.7530  136.5630 C   0  0  0  0  0  0  0  0  0  0  0  0
  184.6890  178.7670  143.0140 C   0  0  0  0  0  3  0  0  0  0  0  0
  186.0330  177.8800  141.2030 O   0  0  0  0  0  0  0  0  0  0  0  0
  181.0250  179.5460  143.1920 N   0  0  0  0  0  2  0  0  0  0  0  0
  180.1770  177.3250  143.8270 O   0  0  0  0  0  0  0  0  0  0  0  0
  180.0090  178.7030  143.7460 C   0  0  0  0  0  0  0  0  0  0  0  0
  178.9380  179.2170  144.1570 O   0  0  0  0  0  1  0  0  0  0  0  0
  189.8420  177.0980  142.2890 S   0  0  0  0  0  0  0  0  0  0  0  0
  189.9140  178.6230  143.2730 C   0  0  0  0  0  2  0  0  0  0  0  0
  191.1910  177.7110  145.2740 N   0  0  0  0  0  2  0  0  0  0  0  0
  191.1160  178.5960  144.1550 C   0  0  0  0  0  0  0  0  0  0  0  0
  192.0680  179.3860  143.9240 O   0  0  0  0  0  0  0  0  0  0  0  0
  190.1220  176.7780  145.6010 C   0  0  0  0  0  2  0  0  0  0  0  0
  186.0000  179.0500  147.5900 C   0  0  0  0  0  2  0  0  0  0  0  0
  189.9660  177.8390  148.4290 O   0  0  0  0  0  1  0  0  0  0  0  0
  187.6730  177.5140  148.3800 O   0  0  0  0  0  0  0  0  0  0  0  0
  185.7500  178.0970  146.4210 C   0  0  0  0  0  2  0  0  0  0  0  0
  187.3890  178.8780  148.1970 C   0  0  0  0  0  2  0  0  0  0  0  0
  188.9080  177.2190  147.7550 C   0  0  1  0  0  3  0  0  0  0  0  0
  186.7830  178.2390  145.4050 N   0  0  0  0  0  2  0  0  0  0  0  0
  187.6760  177.0950  145.5340 C   0  0  0  0  0  2  0  0  0  0  0  0
  188.9580  177.5150  146.2400 C   0  0  2  0  0  3  0  0  0  0  0  0
  1  3  2  0  0  0  0
  2 22  1  0  0  0  0
  2 13  1  0  0  0  0
  3 17  1  0  0  0  0
  4  1  1  0  0  0  0
  5  8  1  0  0  0  0
  5 26  1  0  0  0  0
  6 12  1  0  0  0  0
  7 19  2  0  0  0  0
  9  6  2  0  0  0  0
 10 17  1  0  0  0  0
 11 12  1  0  0  0  0
 12 16  1  0  0  0  0
 14 20  1  0  0  0  0
 15  1  1  0  0  0  0
 15 10  2  0  0  0  0
 16 18  1  0  0  0  0
 16 14  2  0  0  0  0
 17  5  2  0  0  0  0
 18  2  2  0  0  0  0
 19  4  1  0  0  0  0
 19  9  1  0  0  0  0
 20 13  2  0  0  0  0
 21 14  1  0  0  0  0
 21  8  1  0  0  0  0
 22 24  1  0  0  0  0
 24 23  2  0  0  0  0
 24 25  1  0  0  0  0
 26 27  1  0  0  0  0
 27 29  1  0  0  0  0
 28 31  1  0  0  0  0
 29 28  1  0  0  0  0
 30 29  2  0  0  0  0
 32 36  1  0  0  0  0
 35 32  1  0  0  0  0
 36 34  1  0  0  0  0
 37 34  1  0  0  0  0
 37 33  1  1  0  0  0
 38 39  1  0  0  0  0
 38 35  1  0  0  0  0
 39 40  1  0  0  0  0
 40 31  1  6  0  0  0
 40 37  1  0  0  0  0
M  END
>  <MODEL>
5

>  <REMARK>
 VINA RESULT:      -8.3      2.583      9.456
  Name = 
  6 active torsions:
  status: ('A' for Active; 'I' for Inactive)
    1  A    between atoms: C_1  and  N_10
    2  A    between atoms: C_1  and  C_34
    3  A    between atoms: C_3  and  N_4
    4  A    between atoms: C_9  and  S_11
    5  A    between atoms: S_11  and  C_37
    6  A    between atoms: C_18  and  C_37
                            x       y       z     vdW  Elec       q    Type
                         _______ _______ _______ _____ _____    ______ ____

>  <TORSDO>
F 6

$$$$
=
 OpenBabel10222415393D

 40 43  0  0  1  0  0  0  0  0999 V2000
  185.8640  178.9290  139.9450 C   0  0  0  0  0  0  0  0  0  0  0  0
  190.9670  177.3880  145.1430 C   0  0  0  0  0  0  0  0  0  0  0  0
  187.0480  178.5510  140.2690 N   0  0  0  0  0  0  0  0  0  0  0  0
  184.9470  179.5430  140.9490 C   0  0  0  0  0  2  0  0  0  0  0  0
  188.7140  177.2570  139.0800 C   0  0  0  0  0  0  0  0  0  0  0  0
  186.6030  177.9970  143.0180 C   0  0  0  0  0  3  0  0  0  0  0  0
  183.2080  178.2220  141.8780 O   0  0  0  0  0  0  0  0  0  0  0  0
  189.4740  177.0770  140.2830 N   0  0  0  0  0  2  0  0  0  0  0  0
  185.2800  177.8410  142.9240 C   0  0  0  0  0  3  0  0  0  0  0  0
  186.5290  178.0200  138.0750 C   0  0  0  0  0  3  0  0  0  0  0  0
  186.7400  176.6120  145.1030 C   0  0  0  0  0  1  0  0  0  0  0  0
  187.3970  177.3000  143.9950 N   0  0  0  0  0  0  0  0  0  0  0  0
  191.6530  177.3220  143.9250 C   0  0  0  0  0  3  0  0  0  0  0  0
  189.5490  177.2420  142.7180 C   0  0  0  0  0  0  0  0  0  0  0  0
  185.5050  178.6240  138.5940 N   0  0  0  0  0  0  0  0  0  0  0  0
  188.8400  177.3240  143.9420 C   0  0  0  0  0  0  0  0  0  0  0  0
  187.5490  177.9170  139.1120 C   0  0  0  0  0  0  0  0  0  0  0  0
  189.5700  177.3870  145.1410 C   0  0  0  0  0  3  0  0  0  0  0  0
  184.4310  178.5170  141.9180 C   0  0  0  0  0  0  0  0  0  0  0  0
  190.9500  177.2480  142.7220 C   0  0  0  0  0  3  0  0  0  0  0  0
  188.8510  177.1550  141.5150 O   0  0  0  0  0  0  0  0  0  0  0  0
  191.6530  177.4650  146.3990 N   0  0  0  0  0  2  0  0  0  0  0  0
  191.6770  175.0590  146.9120 O   0  0  0  0  0  0  0  0  0  0  0  0
  192.0180  176.3660  147.2410 C   0  0  0  0  0  0  0  0  0  0  0  0
  192.6500  176.5880  148.3050 O   0  0  0  0  0  1  0  0  0  0  0  0
  189.3260  176.5520  137.5510 S   0  0  0  0  0  0  0  0  0  0  0  0
  190.8060  175.8850  138.3640 C   0  0  0  0  0  2  0  0  0  0  0  0
  192.5460  174.3770  137.2850 N   0  0  0  0  0  2  0  0  0  0  0  0
  191.2020  174.6020  137.7160 C   0  0  0  0  0  0  0  0  0  0  0  0
  190.3320  173.7150  137.5220 O   0  0  0  0  0  0  0  0  0  0  0  0
  193.5990  175.3650  137.4730 C   0  0  0  0  0  2  0  0  0  0  0  0
  198.0290  172.8280  137.2600 C   0  0  0  0  0  2  0  0  0  0  0  0
  196.0320  176.3200  135.9500 O   0  0  0  0  0  1  0  0  0  0  0  0
  196.7020  174.1140  135.7220 O   0  0  0  0  0  0  0  0  0  0  0  0
  196.7840  171.9930  137.5560 C   0  0  0  0  0  2  0  0  0  0  0  0
  197.6880  174.2130  136.7190 C   0  0  0  0  0  2  0  0  0  0  0  0
  195.6350  174.9820  136.0520 C   0  0  1  0  0  3  0  0  0  0  0  0
  195.8860  172.6980  138.4590 N   0  0  0  0  0  2  0  0  0  0  0  0
  194.7800  173.2060  137.6600 C   0  0  0  0  0  2  0  0  0  0  0  0
  194.9620  174.6990  137.4130 C   0  0  2  0  0  3  0  0  0  0  0  0
  1  3  2  0  0  0  0
  1  4  1  0  0  0  0
  2 22  1  0  0  0  0
  4 19  1  0  0  0  0
  5 17  2  0  0  0  0
  5  8  1  0  0  0  0
  6 12  1  0  0  0  0
  7 19  2  0  0  0  0
  8 21  1  0  0  0  0
  9  6  2  0  0  0  0
 10 15  2  0  0  0  0
 10 17  1  0  0  0  0
 12 11  1  0  0  0  0
 13  2  2  0  0  0  0
 14 20  2  0  0  0  0
 14 16  1  0  0  0  0
 15  1  1  0  0  0  0
 16 12  1  0  0  0  0
 16 18  2  0  0  0  0
 17  3  1  0  0  0  0
 18  2  1  0  0  0  0
 19  9  1  0  0  0  0
 20 13  1  0  0  0  0
 21 14  1  0  0  0  0
 22 24  1  0  0  0  0
 23 24  2  0  0  0  0
 24 25  1  0  0  0  0
 26 27  1  0  0  0  0
 26  5  1  0  0  0  0
 28 31  1  0  0  0  0
 28 29  1  0  0  0  0
 29 27  1  0  0  0  0
 30 29  2  0  0  0  0
 32 35  1  0  0  0  0
 34 37  1  0  0  0  0
 34 36  1  0  0  0  0
 35 38  1  0  0  0  0
 36 32  1  0  0  0  0
 37 33  1  1  0  0  0
 37 40  1  0  0  0  0
 39 38  1  0  0  0  0
 40 31  1  6  0  0  0
 40 39  1  0  0  0  0
M  END
>  <MODEL>
6

>  <REMARK>
 VINA RESULT:      -8.2      3.449      7.239
  Name = 
  6 active torsions:
  status: ('A' for Active; 'I' for Inactive)
    1  A    between atoms: C_1  and  N_10
    2  A    between atoms: C_1  and  C_34
    3  A    between atoms: C_3  and  N_4
    4  A    between atoms: C_9  and  S_11
    5  A    between atoms: S_11  and  C_37
    6  A    between atoms: C_18  and  C_37
                            x       y       z     vdW  Elec       q    Type
                         _______ _______ _______ _____ _____    ______ ____

>  <TORSDO>
F 6

$$$$
=
 OpenBabel10222415393D

 40 43  0  0  1  0  0  0  0  0999 V2000
  189.3590  176.7240  142.1900 C   0  0  0  0  0  0  0  0  0  0  0  0
  182.1860  178.6280  141.5990 C   0  0  0  0  0  0  0  0  0  0  0  0
  188.3650  177.1230  141.4820 N   0  0  0  0  0  0  0  0  0  0  0  0
  189.1580  176.1820  143.5660 C   0  0  0  0  0  2  0  0  0  0  0  0
  188.2570  178.3300  139.3860 C   0  0  0  0  0  0  0  0  0  0  0  0
  186.5960  177.8700  143.5740 C   0  0  0  0  0  3  0  0  0  0  0  0
  189.6520  177.5650  145.4300 O   0  0  0  0  0  0  0  0  0  0  0  0
  186.8610  178.5950  139.5770 N   0  0  0  0  0  2  0  0  0  0  0  0
  187.5340  178.0190  144.5120 C   0  0  0  0  0  3  0  0  0  0  0  0
  190.3960  177.4980  140.4330 C   0  0  0  0  0  3  0  0  0  0  0  0
  184.9990  179.4000  144.7550 C   0  0  0  0  0  1  0  0  0  0  0  0
  185.3770  178.6340  143.5700 N   0  0  0  0  0  0  0  0  0  0  0  0
  182.6690  178.6080  140.2860 C   0  0  0  0  0  3  0  0  0  0  0  0
  184.9540  178.6030  141.1030 C   0  0  0  0  0  0  0  0  0  0  0  0
  190.6340  176.9320  141.5760 N   0  0  0  0  0  0  0  0  0  0  0  0
  184.4800  178.6070  142.4380 C   0  0  0  0  0  0  0  0  0  0  0  0
  188.9530  177.6740  140.3230 C   0  0  0  0  0  0  0  0  0  0  0  0
  183.0930  178.6290  142.6610 C   0  0  0  0  0  3  0  0  0  0  0  0
  188.8120  177.2740  144.5400 C   0  0  0  0  0  0  0  0  0  0  0  0
  184.0420  178.5970  140.0400 C   0  0  0  0  0  3  0  0  0  0  0  0
  186.3250  178.6050  140.8520 O   0  0  0  0  0  0  0  0  0  0  0  0
  180.7830  178.6400  141.8930 N   0  0  0  0  0  2  0  0  0  0  0  0
  180.9560  178.5080  144.3440 O   0  0  0  0  0  1  0  0  0  0  0  0
  180.1830  178.6070  143.1930 C   0  0  0  0  0  0  0  0  0  0  0  0
  178.9310  178.6560  143.2950 O   0  0  0  0  0  0  0  0  0  0  0  0
  189.0590  178.9260  137.8980 S   0  0  0  0  0  0  0  0  0  0  0  0
  188.7210  177.3800  137.0080 C   0  0  0  0  0  2  0  0  0  0  0  0
  190.8260  176.2360  136.1530 N   0  0  0  0  0  2  0  0  0  0  0  0
  189.7580  177.1660  135.9580 C   0  0  0  0  0  0  0  0  0  0  0  0
  189.7060  177.8360  134.8940 O   0  0  0  0  0  0  0  0  0  0  0  0
  190.9480  175.4360  137.3630 C   0  0  0  0  0  2  0  0  0  0  0  0
  195.6430  173.4190  137.4390 C   0  0  0  0  0  2  0  0  0  0  0  0
  193.3250  176.7160  138.7280 O   0  0  0  0  0  1  0  0  0  0  0  0
  194.7180  175.6290  137.2300 O   0  0  0  0  0  0  0  0  0  0  0  0
  194.7390  172.9870  136.2850 C   0  0  0  0  0  2  0  0  0  0  0  0
  195.1160  174.6560  138.1620 C   0  0  0  0  0  2  0  0  0  0  0  0
  193.3880  176.0160  137.5180 C   0  0  1  0  0  3  0  0  0  0  0  0
  193.3730  172.7790  136.7440 N   0  0  0  0  0  2  0  0  0  0  0  0
  192.5900  173.9270  136.3060 C   0  0  0  0  0  2  0  0  0  0  0  0
  192.3530  174.8700  137.4790 C   0  0  2  0  0  3  0  0  0  0  0  0
  1  4  1  0  0  0  0
  2 22  1  0  0  0  0
  2 18  1  0  0  0  0
  3  1  2  0  0  0  0
  4 19  1  0  0  0  0
  5  8  1  0  0  0  0
  5 17  2  0  0  0  0
  6  9  2  0  0  0  0
  8 21  1  0  0  0  0
  9 19  1  0  0  0  0
 10 15  2  0  0  0  0
 12  6  1  0  0  0  0
 12 11  1  0  0  0  0
 13  2  2  0  0  0  0
 14 16  1  0  0  0  0
 15  1  1  0  0  0  0
 16 18  2  0  0  0  0
 16 12  1  0  0  0  0
 17 10  1  0  0  0  0
 17  3  1  0  0  0  0
 19  7  2  0  0  0  0
 20 13  1  0  0  0  0
 20 14  2  0  0  0  0
 21 14  1  0  0  0  0
 22 24  1  0  0  0  0
 24 25  2  0  0  0  0
 24 23  1  0  0  0  0
 26  5  1  0  0  0  0
 27 26  1  0  0  0  0
 28 31  1  0  0  0  0
 29 28  1  0  0  0  0
 29 27  1  0  0  0  0
 30 29  2  0  0  0  0
 32 36  1  0  0  0  0
 34 37  1  0  0  0  0
 34 36  1  0  0  0  0
 35 38  1  0  0  0  0
 35 32  1  0  0  0  0
 37 33  1  1  0  0  0
 39 38  1  0  0  0  0
 39 40  1  0  0  0  0
 40 31  1  6  0  0  0
 40 37  1  0  0  0  0
M  END
>  <MODEL>
7

>  <REMARK>
 VINA RESULT:      -8.0      2.959      7.233
  Name = 
  6 active torsions:
  status: ('A' for Active; 'I' for Inactive)
    1  A    between atoms: C_1  and  N_10
    2  A    between atoms: C_1  and  C_34
    3  A    between atoms: C_3  and  N_4
    4  A    between atoms: C_9  and  S_11
    5  A    between atoms: S_11  and  C_37
    6  A    between atoms: C_18  and  C_37
                            x       y       z     vdW  Elec       q    Type
                         _______ _______ _______ _____ _____    ______ ____

>  <TORSDO>
F 6

$$$$
=
 OpenBabel10222415393D

 40 43  0  0  1  0  0  0  0  0999 V2000
  189.6850  176.5380  143.4480 C   0  0  0  0  0  0  0  0  0  0  0  0
  182.5380  178.6240  143.5340 C   0  0  0  0  0  0  0  0  0  0  0  0
  188.6340  176.9460  142.8330 N   0  0  0  0  0  0  0  0  0  0  0  0
  189.6130  176.0390  144.8530 C   0  0  0  0  0  2  0  0  0  0  0  0
  188.3420  178.0980  140.7240 C   0  0  0  0  0  0  0  0  0  0  0  0
  187.1080  177.7970  145.0710 C   0  0  0  0  0  3  0  0  0  0  0  0
  190.3290  177.4570  146.6150 O   0  0  0  0  0  0  0  0  0  0  0  0
  186.9790  178.4070  141.0480 N   0  0  0  0  0  2  0  0  0  0  0  0
  188.1400  177.9450  145.9040 C   0  0  0  0  0  3  0  0  0  0  0  0
  190.5550  177.2360  141.5730 C   0  0  0  0  0  3  0  0  0  0  0  0
  185.6790  179.4010  146.3630 C   0  0  0  0  0  1  0  0  0  0  0  0
  185.9140  178.5940  145.1680 N   0  0  0  0  0  0  0  0  0  0  0  0
  182.8840  178.5550  142.1790 C   0  0  0  0  0  3  0  0  0  0  0  0
  185.2400  178.5080  142.7590 C   0  0  0  0  0  0  0  0  0  0  0  0
  190.8950  176.6940  142.7010 N   0  0  0  0  0  0  0  0  0  0  0  0
  184.9050  178.5620  144.1340 C   0  0  0  0  0  0  0  0  0  0  0  0
  189.1130  177.4490  141.6050 C   0  0  0  0  0  0  0  0  0  0  0  0
  183.5490  178.6280  144.4970 C   0  0  0  0  0  3  0  0  0  0  0  0
  189.3950  177.1660  145.8240 C   0  0  0  0  0  0  0  0  0  0  0  0
  184.2240  178.4990  141.7950 C   0  0  0  0  0  3  0  0  0  0  0  0
  186.5780  178.4660  142.3700 O   0  0  0  0  0  0  0  0  0  0  0  0
  181.1730  178.6820  143.9680 N   0  0  0  0  0  2  0  0  0  0  0  0
  180.4310  180.4980  142.4840 O   0  0  0  0  0  0  0  0  0  0  0  0
  180.1540  179.5520  143.4630 C   0  0  0  0  0  0  0  0  0  0  0  0
  178.9870  179.4660  143.9240 O   0  0  0  0  0  1  0  0  0  0  0  0
  189.0010  178.6310  139.1460 S   0  0  0  0  0  0  0  0  0  0  0  0
  188.3300  177.1770  138.2900 C   0  0  0  0  0  2  0  0  0  0  0  0
  186.4160  176.6110  136.7140 N   0  0  0  0  0  2  0  0  0  0  0  0
  187.1060  177.5610  137.5300 C   0  0  0  0  0  0  0  0  0  0  0  0
  186.6900  178.7470  137.5890 O   0  0  0  0  0  0  0  0  0  0  0  0
  186.8490  175.2270  136.5980 C   0  0  0  0  0  2  0  0  0  0  0  0
  182.6800  172.3000  137.0120 C   0  0  0  0  0  2  0  0  0  0  0  0
  186.8590  172.2120  136.3540 O   0  0  0  0  0  1  0  0  0  0  0  0
  184.6560  172.3040  135.6420 O   0  0  0  0  0  0  0  0  0  0  0  0
  182.4490  173.7520  136.5940 C   0  0  0  0  0  2  0  0  0  0  0  0
  184.1410  171.8790  136.8780 C   0  0  0  0  0  2  0  0  0  0  0  0
  185.8400  173.0420  135.8740 C   0  0  1  0  0  3  0  0  0  0  0  0
  183.3210  174.6520  137.3350 N   0  0  0  0  0  2  0  0  0  0  0  0
  184.3920  175.0560  136.4350 C   0  0  0  0  0  2  0  0  0  0  0  0
  185.6660  174.2900  136.7680 C   0  0  2  0  0  3  0  0  0  0  0  0
  1  4  1  0  0  0  0
  2 22  1  0  0  0  0
  2 18  1  0  0  0  0
  3  1  2  0  0  0  0
  4 19  1  0  0  0  0
  5  8  1  0  0  0  0
  5 17  2  0  0  0  0
  6 12  1  0  0  0  0
  6  9  2  0  0  0  0
  8 21  1  0  0  0  0
 10 17  1  0  0  0  0
 10 15  2  0  0  0  0
 12 11  1  0  0  0  0
 13  2  2  0  0  0  0
 14 16  1  0  0  0  0
 15  1  1  0  0  0  0
 16 18  2  0  0  0  0
 16 12  1  0  0  0  0
 17  3  1  0  0  0  0
 19  9  1  0  0  0  0
 19  7  2  0  0  0  0
 20 13  1  0  0  0  0
 20 14  2  0  0  0  0
 21 14  1  0  0  0  0
 23 24  2  0  0  0  0
 24 25  1  0  0  0  0
 24 22  1  0  0  0  0
 26  5  1  0  0  0  0
 27 26  1  0  0  0  0
 28 29  1  0  0  0  0
 29 30  2  0  0  0  0
 29 27  1  0  0  0  0
 31 28  1  0  0  0  0
 34 37  1  0  0  0  0
 34 36  1  0  0  0  0
 35 32  1  0  0  0  0
 35 38  1  0  0  0  0
 36 32  1  0  0  0  0
 37 33  1  1  0  0  0
 37 40  1  0  0  0  0
 39 40  1  0  0  0  0
 39 38  1  0  0  0  0
 40 31  1  6  0  0  0
M  END
>  <MODEL>
8

>  <REMARK>
 VINA RESULT:      -7.9      2.967      6.507
  Name = 
  6 active torsions:
  status: ('A' for Active; 'I' for Inactive)
    1  A    between atoms: C_1  and  N_10
    2  A    between atoms: C_1  and  C_34
    3  A    between atoms: C_3  and  N_4
    4  A    between atoms: C_9  and  S_11
    5  A    between atoms: S_11  and  C_37
    6  A    between atoms: C_18  and  C_37
                            x       y       z     vdW  Elec       q    Type
                         _______ _______ _______ _____ _____    ______ ____

>  <TORSDO>
F 6

$$$$
=
 OpenBabel10222415393D

 40 43  0  0  1  0  0  0  0  0999 V2000
  192.4510  176.2300  137.1070 C   0  0  0  0  0  0  0  0  0  0  0  0
  185.2410  177.8820  137.9560 C   0  0  0  0  0  0  0  0  0  0  0  0
  191.5000  176.7570  137.7900 N   0  0  0  0  0  0  0  0  0  0  0  0
  192.2450  175.8170  135.6870 C   0  0  0  0  0  2  0  0  0  0  0  0
  191.2970  177.2730  140.1470 C   0  0  0  0  0  0  0  0  0  0  0  0
  189.2860  175.5730  136.4620 C   0  0  0  0  0  3  0  0  0  0  0  0
  191.9390  173.5170  135.1920 O   0  0  0  0  0  0  0  0  0  0  0  0
  189.8840  177.4760  140.0100 N   0  0  0  0  0  2  0  0  0  0  0  0
  189.9600  174.5440  135.9440 C   0  0  0  0  0  3  0  0  0  0  0  0
  193.4070  176.4180  139.0590 C   0  0  0  0  0  3  0  0  0  0  0  0
  187.0980  174.3560  136.3460 C   0  0  0  0  0  1  0  0  0  0  0  0
  187.8930  175.4890  136.8110 N   0  0  0  0  0  0  0  0  0  0  0  0
  185.8940  178.5410  139.0030 C   0  0  0  0  0  3  0  0  0  0  0  0
  187.8860  177.2070  138.6320 C   0  0  0  0  0  0  0  0  0  0  0  0
  193.6510  176.0090  137.8530 N   0  0  0  0  0  0  0  0  0  0  0  0
  187.2440  176.5410  137.5600 C   0  0  0  0  0  0  0  0  0  0  0  0
  192.0270  176.8880  139.0920 C   0  0  0  0  0  0  0  0  0  0  0  0
  185.9190  176.8880  137.2460 C   0  0  0  0  0  3  0  0  0  0  0  0
  191.3980  174.5790  135.5950 C   0  0  0  0  0  0  0  0  0  0  0  0
  187.2050  178.2060  139.3390 C   0  0  0  0  0  3  0  0  0  0  0  0
  189.1920  176.8660  138.9800 O   0  0  0  0  0  0  0  0  0  0  0  0
  183.8940  178.1970  137.5800 N   0  0  0  0  0  2  0  0  0  0  0  0
  182.7560  176.5550  139.0150 O   0  0  0  0  0  1  0  0  0  0  0  0
  182.7010  177.5920  138.0910 C   0  0  0  0  0  0  0  0  0  0  0  0
  181.5820  177.9990  137.6870 O   0  0  0  0  0  0  0  0  0  0  0  0
  192.0570  177.5010  141.7530 S   0  0  0  0  0  0  0  0  0  0  0  0
  190.4600  177.8520  142.5420 C   0  0  0  0  0  2  0  0  0  0  0  0
  189.8760  178.1830  144.9950 N   0  0  0  0  0  2  0  0  0  0  0  0
  190.6830  178.5100  143.8610 C   0  0  0  0  0  0  0  0  0  0  0  0
  191.5780  179.3870  143.9690 O   0  0  0  0  0  0  0  0  0  0  0  0
  188.8200  177.1840  144.9350 C   0  0  0  0  0  2  0  0  0  0  0  0
  184.1720  179.2340  144.3840 C   0  0  0  0  0  2  0  0  0  0  0  0
  187.1600  178.2700  147.2190 O   0  0  0  0  0  1  0  0  0  0  0  0
  185.2490  177.8100  145.9940 O   0  0  0  0  0  0  0  0  0  0  0  0
  184.6120  178.2540  143.2970 C   0  0  0  0  0  2  0  0  0  0  0  0
  185.0440  179.1520  145.6330 C   0  0  0  0  0  2  0  0  0  0  0  0
  186.6390  177.5810  146.1180 C   0  0  1  0  0  3  0  0  0  0  0  0
  186.0170  178.4430  142.9650 N   0  0  0  0  0  2  0  0  0  0  0  0
  186.7590  177.3550  143.5880 C   0  0  0  0  0  2  0  0  0  0  0  0
  187.4630  177.8590  144.8420 C   0  0  2  0  0  3  0  0  0  0  0  0
  1  3  2  0  0  0  0
  1 15  1  0  0  0  0
  2 13  1  0  0  0  0
  3 17  1  0  0  0  0
  4  1  1  0  0  0  0
  5 26  1  0  0  0  0
  6 12  1  0  0  0  0
  7 19  2  0  0  0  0
  8  5  1  0  0  0  0
  9  6  2  0  0  0  0
 10 17  1  0  0  0  0
 11 12  1  0  0  0  0
 12 16  1  0  0  0  0
 13 20  2  0  0  0  0
 14 21  1  0  0  0  0
 14 20  1  0  0  0  0
 15 10  2  0  0  0  0
 16 14  2  0  0  0  0
 17  5  2  0  0  0  0
 18 16  1  0  0  0  0
 18  2  2  0  0  0  0
 19  4  1  0  0  0  0
 19  9  1  0  0  0  0
 21  8  1  0  0  0  0
 22  2  1  0  0  0  0
 22 24  1  0  0  0  0
 24 23  1  0  0  0  0
 25 24  2  0  0  0  0
 26 27  1  0  0  0  0
 27 29  1  0  0  0  0
 29 30  2  0  0  0  0
 29 28  1  0  0  0  0
 31 28  1  0  0  0  0
 32 36  1  0  0  0  0
 34 37  1  0  0  0  0
 35 32  1  0  0  0  0
 36 34  1  0  0  0  0
 37 33  1  1  0  0  0
 38 35  1  0  0  0  0
 38 39  1  0  0  0  0
 39 40  1  0  0  0  0
 40 31  1  1  0  0  0
 40 37  1  0  0  0  0
M  END
>  <MODEL>
9

>  <REMARK>
 VINA RESULT:      -7.7      2.415      8.967
  Name = 
  6 active torsions:
  status: ('A' for Active; 'I' for Inactive)
    1  A    between atoms: C_1  and  N_10
    2  A    between atoms: C_1  and  C_34
    3  A    between atoms: C_3  and  N_4
    4  A    between atoms: C_9  and  S_11
    5  A    between atoms: S_11  and  C_37
    6  A    between atoms: C_18  and  C_37
                            x       y       z     vdW  Elec       q    Type
                         _______ _______ _______ _____ _____    ______ ____

>  <TORSDO>
F 6

$$$$
