=
 OpenBabel10222419553D

 37 39  0  0  1  0  0  0  0  0999 V2000
  182.5690  178.6630  140.5980 C   0  0  0  0  0  0  0  0  0  0  0  0
  185.3300  178.6460  141.0990 C   0  0  0  0  0  3  0  0  0  0  0  0
  184.8610  178.8630  139.7940 C   0  0  0  0  0  0  0  0  0  0  0  0
  183.0570  178.4450  141.8970 C   0  0  0  0  0  3  0  0  0  0  0  0
  183.4850  178.8710  139.5540 C   0  0  0  0  0  3  0  0  0  0  0  0
  184.4310  178.4370  142.1520 C   0  0  0  0  0  0  0  0  0  0  0  0
  181.0800  178.6780  140.3330 C   0  0  2  0  0  0  0  0  0  0  0  0
  179.5290  177.3820  141.4990 N   0  0  0  0  0  0  0  0  0  0  0  0
  180.3570  179.6040  141.3080 C   0  0  0  0  0  3  0  0  0  0  0  0
  179.3360  178.7210  142.0250 C   0  0  0  0  0  3  0  0  0  0  0  0
  180.4550  177.3600  140.6030 C   0  0  0  0  0  0  0  0  0  0  0  0
  180.7920  179.0720  139.0220 O   0  0  0  0  0  1  0  0  0  0  0  0
  180.8350  176.1640  139.9120 N   0  0  0  0  0  0  0  0  0  0  0  0
  180.2420  175.0530  140.0920 C   0  0  0  0  0  0  0  0  0  0  0  0
  179.6640  173.9720  140.2650 O   0  0  0  0  0  0  0  0  0  0  0  0
  185.7360  179.0760  138.7250 O   0  0  0  0  0  0  0  0  0  0  0  0
  185.8920  178.1550  137.6510 C   0  0  0  0  0  2  0  0  0  0  0  0
  188.0710  178.1330  138.0000 C   0  0  0  0  0  1  0  0  0  0  0  0
  186.9590  177.2950  137.9160 O   0  0  0  0  0  0  0  0  0  0  0  0
  184.8930  178.2120  143.4870 N   0  0  0  0  0  2  0  0  0  0  0  0
  183.6340  179.5690  144.8930 F   0  0  0  0  0  0  0  0  0  0  0  0
  184.9250  179.2510  144.5070 C   0  0  1  0  0  3  0  0  0  0  0  0
  185.4780  179.2690  146.8270 O   0  0  0  0  0  0  0  0  0  0  0  0
  186.6870  177.7590  145.5130 N   0  0  0  0  0  2  0  0  0  0  0  0
  185.7010  178.7780  145.6860 C   0  0  0  0  0  0  0  0  0  0  0  0
  187.5470  177.3050  146.5960 C   0  0  0  0  0  2  0  0  0  0  0  0
  191.0190  176.8780  145.9380 C   0  0  0  0  0  2  0  0  0  0  0  0
  188.9100  177.9750  146.5080 C   0  0  2  0  0  3  0  0  0  0  0  0
  189.7010  177.3590  145.3640 C   0  0  1  0  0  3  0  0  0  0  0  0
  190.7660  176.6940  147.4150 C   0  0  0  0  0  2  0  0  0  0  0  0
  189.7200  177.7280  147.7710 C   0  0  0  0  0  2  0  0  0  0  0  0
  189.9230  178.3600  144.2350 C   0  0  0  0  0  2  0  0  0  0  0  0
  191.0800  178.0500  143.5110 O   0  0  0  0  0  0  0  0  0  0  0  0
  191.5610  177.2930  141.0390 O   0  0  0  0  0  0  0  0  0  0  0  0
  190.3110  175.5570  142.5510 O   0  0  0  0  0  1  0  0  0  0  0  0
  190.5440  177.1860  142.1530 P   0  0  0  0  0  0  0  0  0  0  0  0
  189.0770  177.8410  141.6290 O   0  0  0  0  0  1  0  0  0  0  0  0
  1  4  1  0  0  0  0
  2  6  1  0  0  0  0
  3  2  2  0  0  0  0
  4  6  2  0  0  0  0
  5  3  1  0  0  0  0
  5  1  2  0  0  0  0
  6 20  1  0  0  0  0
  7 12  1  6  0  0  0
  7  1  1  0  0  0  0
  7 11  1  0  0  0  0
  7  9  1  0  0  0  0
  8 10  1  0  0  0  0
  9 10  2  0  0  0  0
 11  8  2  0  0  0  0
 13 14  2  0  0  0  0
 13 11  1  0  0  0  0
 14 15  2  0  0  0  0
 16  3  1  0  0  0  0
 17 19  1  0  0  0  0
 17 16  1  0  0  0  0
 19 18  1  0  0  0  0
 20 22  1  0  0  0  0
 22 21  1  1  0  0  0
 22 25  1  0  0  0  0
 24 25  1  0  0  0  0
 24 26  1  0  0  0  0
 25 23  2  0  0  0  0
 27 30  1  0  0  0  0
 28 26  1  1  0  0  0
 28 31  1  0  0  0  0
 29 32  1  6  0  0  0
 29 27  1  0  0  0  0
 29 28  1  0  0  0  0
 30 31  1  0  0  0  0
 33 32  1  0  0  0  0
 34 36  2  0  0  0  0
 36 35  1  0  0  0  0
 36 33  1  0  0  0  0
 37 36  1  0  0  0  0
M  END
>  <MODEL>
1

>  <REMARK>
 VINA RESULT:      -7.9      0.000      0.000
  Name = 
  13 active torsions:
  status: ('A' for Active; 'I' for Inactive)
    1  A    between atoms: C_2  and  C_4
    2  A    between atoms: O_8  and  C_25
    3  A    between atoms: O_8  and  P_30
    4  A    between atoms: C_9  and  C_28
    5  A    between atoms: N_11  and  C_28
    6  A    between atoms: O_13  and  C_15
    7  A    between atoms: O_13  and  C_36
    8  A    between atoms: C_16  and  C_25
    9  A    between atoms: N_20  and  C_23
   10  A    between atoms: N_20  and  C_37
   11  A    between atoms: C_21  and  N_27
   12  A    between atoms: C_23  and  C_32
   13  A    between atoms: O_24  and  C_36
                            x       y       z     vdW  Elec       q    Type
                         _______ _______ _______ _____ _____    ______ ____

>  <TORSDO>
F 13

$$$$
=
 OpenBabel10222419553D

 37 39  0  0  1  0  0  0  0  0999 V2000
  185.5790  178.5010  144.4260 C   0  0  0  0  0  0  0  0  0  0  0  0
  187.7340  176.9970  145.4110 C   0  0  0  0  0  3  0  0  0  0  0  0
  186.9900  177.8040  146.2860 C   0  0  0  0  0  0  0  0  0  0  0  0
  186.3360  177.6900  143.5640 C   0  0  0  0  0  3  0  0  0  0  0  0
  185.9180  178.5490  145.7880 C   0  0  0  0  0  3  0  0  0  0  0  0
  187.4090  176.9380  144.0500 C   0  0  0  0  0  0  0  0  0  0  0  0
  184.4140  179.3050  143.8920 C   0  0  2  0  0  0  0  0  0  0  0  0
  183.0130  178.5940  142.1670 N   0  0  0  0  0  0  0  0  0  0  0  0
  183.1010  178.8610  144.5290 C   0  0  0  0  0  3  0  0  0  0  0  0
  182.2090  178.4340  143.3640 C   0  0  0  0  0  3  0  0  0  0  0  0
  184.1840  179.0550  142.4480 C   0  0  0  0  0  0  0  0  0  0  0  0
  184.5920  180.6760  144.1060 O   0  0  0  0  0  1  0  0  0  0  0  0
  185.1720  179.3210  141.4460 N   0  0  0  0  0  0  0  0  0  0  0  0
  184.8980  179.3330  140.2030 C   0  0  0  0  0  0  0  0  0  0  0  0
  184.6330  179.3470  138.9930 O   0  0  0  0  0  0  0  0  0  0  0  0
  187.2920  177.8810  147.6500 O   0  0  0  0  0  0  0  0  0  0  0  0
  188.3690  177.1710  148.2500 C   0  0  0  0  0  2  0  0  0  0  0  0
  190.4760  177.0750  147.5970 C   0  0  0  0  0  1  0  0  0  0  0  0
  189.5370  177.9310  148.1720 O   0  0  0  0  0  0  0  0  0  0  0  0
  188.1580  176.1230  143.1450 N   0  0  0  0  0  2  0  0  0  0  0  0
  190.1940  175.0260  142.9140 F   0  0  0  0  0  0  0  0  0  0  0  0
  189.5910  176.2720  142.9350 C   0  0  1  0  0  3  0  0  0  0  0  0
  191.0260  177.1580  141.2480 O   0  0  0  0  0  0  0  0  0  0  0  0
  188.7350  177.4240  140.8650 N   0  0  0  0  0  2  0  0  0  0  0  0
  189.8440  176.9750  141.6460 C   0  0  0  0  0  0  0  0  0  0  0  0
  188.8980  178.1940  139.6400 C   0  0  0  0  0  2  0  0  0  0  0  0
  189.0200  177.9640  136.0900 C   0  0  0  0  0  2  0  0  0  0  0  0
  188.7060  177.3020  138.4230 C   0  0  2  0  0  3  0  0  0  0  0  0
  189.7550  177.6460  137.3770 C   0  0  1  0  0  3  0  0  0  0  0  0
  187.6240  178.3530  136.5160 C   0  0  0  0  0  2  0  0  0  0  0  0
  187.3540  177.5540  137.7720 C   0  0  0  0  0  2  0  0  0  0  0  0
  190.7430  176.5000  137.1790 C   0  0  0  0  0  2  0  0  0  0  0  0
  191.6950  176.4770  138.2050 O   0  0  0  0  0  0  0  0  0  0  0  0
  194.2470  175.8870  138.4370 O   0  0  0  0  0  1  0  0  0  0  0  0
  192.7160  174.0070  137.4440 O   0  0  0  0  0  1  0  0  0  0  0  0
  193.0360  175.6660  137.5590 P   0  0  0  0  0  0  0  0  0  0  0  0
  193.3540  176.2740  136.0140 O   0  0  0  0  0  0  0  0  0  0  0  0
  1  5  1  0  0  0  0
  2  3  1  0  0  0  0
  3 16  1  0  0  0  0
  4  6  1  0  0  0  0
  4  1  2  0  0  0  0
  5  3  2  0  0  0  0
  6  2  2  0  0  0  0
  7 12  1  1  0  0  0
  7  1  1  0  0  0  0
  7  9  1  0  0  0  0
  8 11  2  0  0  0  0
  8 10  1  0  0  0  0
 10  9  2  0  0  0  0
 11  7  1  0  0  0  0
 13 11  1  0  0  0  0
 14 13  2  0  0  0  0
 15 14  2  0  0  0  0
 16 17  1  0  0  0  0
 18 19  1  0  0  0  0
 19 17  1  0  0  0  0
 20  6  1  0  0  0  0
 22 21  1  6  0  0  0
 22 20  1  0  0  0  0
 23 25  2  0  0  0  0
 24 25  1  0  0  0  0
 25 22  1  0  0  0  0
 26 24  1  0  0  0  0
 27 30  1  0  0  0  0
 27 29  1  0  0  0  0
 28 26  1  1  0  0  0
 29 32  1  6  0  0  0
 29 28  1  0  0  0  0
 30 31  1  0  0  0  0
 31 28  1  0  0  0  0
 32 33  1  0  0  0  0
 35 36  1  0  0  0  0
 36 33  1  0  0  0  0
 36 34  1  0  0  0  0
 37 36  2  0  0  0  0
M  END
>  <MODEL>
2

>  <REMARK>
 VINA RESULT:      -7.6      3.075      7.022
  Name = 
  13 active torsions:
  status: ('A' for Active; 'I' for Inactive)
    1  A    between atoms: C_2  and  C_4
    2  A    between atoms: O_8  and  C_25
    3  A    between atoms: O_8  and  P_30
    4  A    between atoms: C_9  and  C_28
    5  A    between atoms: N_11  and  C_28
    6  A    between atoms: O_13  and  C_15
    7  A    between atoms: O_13  and  C_36
    8  A    between atoms: C_16  and  C_25
    9  A    between atoms: N_20  and  C_23
   10  A    between atoms: N_20  and  C_37
   11  A    between atoms: C_21  and  N_27
   12  A    between atoms: C_23  and  C_32
   13  A    between atoms: O_24  and  C_36
                            x       y       z     vdW  Elec       q    Type
                         _______ _______ _______ _____ _____    ______ ____

>  <TORSDO>
F 13

$$$$
=
 OpenBabel10222419553D

 37 39  0  0  1  0  0  0  0  0999 V2000
  187.8160  177.2910  144.2730 C   0  0  0  0  0  0  0  0  0  0  0  0
  185.6670  178.3480  145.7360 C   0  0  0  0  0  3  0  0  0  0  0  0
  186.8910  178.1020  146.3760 C   0  0  0  0  0  0  0  0  0  0  0  0
  186.5820  177.5410  143.6490 C   0  0  0  0  0  3  0  0  0  0  0  0
  187.9560  177.5770  145.6410 C   0  0  0  0  0  3  0  0  0  0  0  0
  185.5090  178.0680  144.3720 C   0  0  0  0  0  0  0  0  0  0  0  0
  188.9740  176.7270  143.4790 C   0  0  2  0  0  0  0  0  0  0  0  0
  190.6770  178.0210  142.5470 N   0  0  0  0  0  0  0  0  0  0  0  0
  190.2090  176.5510  144.3570 C   0  0  0  0  0  3  0  0  0  0  0  0
  191.3010  177.3890  143.6940 C   0  0  0  0  0  3  0  0  0  0  0  0
  189.4410  177.6710  142.4340 C   0  0  0  0  0  0  0  0  0  0  0  0
  188.6470  175.5020  142.8890 O   0  0  0  0  0  1  0  0  0  0  0  0
  188.5970  178.1390  141.3760 N   0  0  0  0  0  0  0  0  0  0  0  0
  188.7560  177.7810  140.1650 C   0  0  0  0  0  0  0  0  0  0  0  0
  188.9090  177.4310  138.9880 O   0  0  0  0  0  0  0  0  0  0  0  0
  187.0760  178.3730  147.7360 O   0  0  0  0  0  0  0  0  0  0  0  0
  187.9550  177.6230  148.5670 C   0  0  0  0  0  2  0  0  0  0  0  0
  190.1230  177.7630  148.1730 C   0  0  0  0  0  1  0  0  0  0  0  0
  189.0850  178.3850  148.8670 O   0  0  0  0  0  0  0  0  0  0  0  0
  184.2680  178.3100  143.7050 N   0  0  0  0  0  2  0  0  0  0  0  0
  183.4710  180.4110  144.2970 F   0  0  0  0  0  0  0  0  0  0  0  0
  183.1730  179.0600  144.3040 C   0  0  1  0  0  3  0  0  0  0  0  0
  180.8280  178.6510  144.1540 O   0  0  0  0  0  0  0  0  0  0  0  0
  181.9590  178.7890  142.1130 N   0  0  0  0  0  2  0  0  0  0  0  0
  181.9170  178.8170  143.5410 C   0  0  0  0  0  0  0  0  0  0  0  0
  180.7950  178.4720  141.2990 C   0  0  0  0  0  2  0  0  0  0  0  0
  180.1040  177.8140  137.8690 C   0  0  0  0  0  2  0  0  0  0  0  0
  181.2130  177.7170  140.0460 C   0  0  2  0  0  3  0  0  0  0  0  0
  180.9810  178.5960  138.8260 C   0  0  1  0  0  3  0  0  0  0  0  0
  179.3940  176.7930  138.7260 C   0  0  0  0  0  2  0  0  0  0  0  0
  180.3570  176.4750  139.8480 C   0  0  0  0  0  2  0  0  0  0  0  0
  182.2970  178.9970  138.1680 C   0  0  0  0  0  2  0  0  0  0  0  0
  183.3010  178.0620  138.4450 O   0  0  0  0  0  0  0  0  0  0  0  0
  184.2730  180.4410  139.0030 O   0  0  0  0  0  1  0  0  0  0  0  0
  185.0410  178.4870  140.5690 O   0  0  0  0  0  1  0  0  0  0  0  0
  184.6210  178.9690  139.0020 P   0  0  0  0  0  0  0  0  0  0  0  0
  185.9380  178.7110  137.9740 O   0  0  0  0  0  0  0  0  0  0  0  0
  1  5  1  0  0  0  0
  2  3  1  0  0  0  0
  3 16  1  0  0  0  0
  4  1  2  0  0  0  0
  4  6  1  0  0  0  0
  5  3  2  0  0  0  0
  6  2  2  0  0  0  0
  7 12  1  6  0  0  0
  7  1  1  0  0  0  0
  7  9  1  0  0  0  0
  8 10  1  0  0  0  0
 10  9  2  0  0  0  0
 11  8  2  0  0  0  0
 11  7  1  0  0  0  0
 13 11  1  0  0  0  0
 14 13  2  0  0  0  0
 15 14  2  0  0  0  0
 16 17  1  0  0  0  0
 17 19  1  0  0  0  0
 18 19  1  0  0  0  0
 20 22  1  0  0  0  0
 20  6  1  0  0  0  0
 22 21  1  6  0  0  0
 24 25  1  0  0  0  0
 25 23  2  0  0  0  0
 25 22  1  0  0  0  0
 26 24  1  0  0  0  0
 27 30  1  0  0  0  0
 27 29  1  0  0  0  0
 28 26  1  1  0  0  0
 29 32  1  6  0  0  0
 29 28  1  0  0  0  0
 30 31  1  0  0  0  0
 31 28  1  0  0  0  0
 32 33  1  0  0  0  0
 33 36  1  0  0  0  0
 36 34  1  0  0  0  0
 36 35  1  0  0  0  0
 37 36  2  0  0  0  0
M  END
>  <MODEL>
3

>  <REMARK>
 VINA RESULT:      -7.5      2.557      8.708
  Name = 
  13 active torsions:
  status: ('A' for Active; 'I' for Inactive)
    1  A    between atoms: C_2  and  C_4
    2  A    between atoms: O_8  and  C_25
    3  A    between atoms: O_8  and  P_30
    4  A    between atoms: C_9  and  C_28
    5  A    between atoms: N_11  and  C_28
    6  A    between atoms: O_13  and  C_15
    7  A    between atoms: O_13  and  C_36
    8  A    between atoms: C_16  and  C_25
    9  A    between atoms: N_20  and  C_23
   10  A    between atoms: N_20  and  C_37
   11  A    between atoms: C_21  and  N_27
   12  A    between atoms: C_23  and  C_32
   13  A    between atoms: O_24  and  C_36
                            x       y       z     vdW  Elec       q    Type
                         _______ _______ _______ _____ _____    ______ ____

>  <TORSDO>
F 13

$$$$
=
 OpenBabel10222419553D

 37 39  0  0  1  0  0  0  0  0999 V2000
  186.5290  177.8590  143.7210 C   0  0  0  0  0  0  0  0  0  0  0  0
  184.5910  179.1540  142.1580 C   0  0  0  0  0  3  0  0  0  0  0  0
  184.3460  178.9220  143.5200 C   0  0  0  0  0  0  0  0  0  0  0  0
  186.7560  178.0970  142.3550 C   0  0  0  0  0  3  0  0  0  0  0  0
  185.3160  178.2780  144.2910 C   0  0  0  0  0  3  0  0  0  0  0  0
  185.7960  178.7430  141.5730 C   0  0  0  0  0  0  0  0  0  0  0  0
  187.5780  177.1650  144.5610 C   0  0  2  0  0  0  0  0  0  0  0  0
  188.9710  178.2570  146.0820 N   0  0  0  0  0  0  0  0  0  0  0  0
  187.0500  176.8600  145.9590 C   0  0  0  0  0  3  0  0  0  0  0  0
  188.0060  177.5680  146.9180 C   0  0  0  0  0  3  0  0  0  0  0  0
  188.7420  178.0450  144.8310 C   0  0  0  0  0  0  0  0  0  0  0  0
  188.0180  175.9800  143.9630 O   0  0  0  0  0  1  0  0  0  0  0  0
  189.5570  178.5970  143.7910 N   0  0  0  0  0  0  0  0  0  0  0  0
  190.8100  178.7790  143.9270 C   0  0  0  0  0  0  0  0  0  0  0  0
  192.0280  178.9540  144.0580 O   0  0  0  0  0  0  0  0  0  0  0  0
  183.1530  179.3230  144.1300 O   0  0  0  0  0  0  0  0  0  0  0  0
  181.8810  179.2160  143.4990 C   0  0  0  0  0  2  0  0  0  0  0  0
  179.7450  178.7450  143.7940 C   0  0  0  0  0  1  0  0  0  0  0  0
  181.0150  178.4760  144.3050 O   0  0  0  0  0  0  0  0  0  0  0  0
  186.0610  178.9700  140.1860 N   0  0  0  0  0  2  0  0  0  0  0  0
  184.3610  179.7040  138.7810 F   0  0  0  0  0  0  0  0  0  0  0  0
  185.1320  178.6070  139.1260 C   0  0  1  0  0  3  0  0  0  0  0  0
  185.3000  177.4500  137.0460 O   0  0  0  0  0  0  0  0  0  0  0  0
  187.2700  178.4550  137.8040 N   0  0  0  0  0  2  0  0  0  0  0  0
  185.8860  178.1280  137.9340 C   0  0  0  0  0  0  0  0  0  0  0  0
  188.0970  177.9520  136.7160 C   0  0  0  0  0  2  0  0  0  0  0  0
  190.5240  175.4870  135.8760 C   0  0  0  0  0  2  0  0  0  0  0  0
  188.7630  176.6440  137.1160 C   0  0  2  0  0  3  0  0  0  0  0  0
  190.2370  176.6950  136.7450 C   0  0  1  0  0  3  0  0  0  0  0  0
  189.1870  175.0880  135.2970 C   0  0  0  0  0  2  0  0  0  0  0  0
  188.1680  175.4740  136.3460 C   0  0  0  0  0  2  0  0  0  0  0  0
  191.1250  176.7060  137.9850 C   0  0  0  0  0  2  0  0  0  0  0  0
  190.5650  175.9320  139.0080 O   0  0  0  0  0  0  0  0  0  0  0  0
  189.5740  177.9920  140.3100 O   0  0  0  0  0  0  0  0  0  0  0  0
  190.3570  175.9700  141.7790 O   0  0  0  0  0  1  0  0  0  0  0  0
  190.6240  176.9070  140.3950 P   0  0  0  0  0  0  0  0  0  0  0  0
  192.1520  177.6220  140.5000 O   0  0  0  0  0  1  0  0  0  0  0  0
  1  5  1  0  0  0  0
  1  7  1  0  0  0  0
  2  3  1  0  0  0  0
  3 16  1  0  0  0  0
  3  5  2  0  0  0  0
  4  1  2  0  0  0  0
  6  2  2  0  0  0  0
  6  4  1  0  0  0  0
  7 12  1  6  0  0  0
  7 11  1  0  0  0  0
  7  9  1  0  0  0  0
  8 10  1  0  0  0  0
  9 10  2  0  0  0  0
 11  8  2  0  0  0  0
 13 14  2  0  0  0  0
 13 11  1  0  0  0  0
 14 15  2  0  0  0  0
 17 16  1  0  0  0  0
 17 19  1  0  0  0  0
 18 19  1  0  0  0  0
 20  6  1  0  0  0  0
 22 21  1  6  0  0  0
 22 20  1  0  0  0  0
 23 25  2  0  0  0  0
 24 25  1  0  0  0  0
 25 22  1  0  0  0  0
 26 24  1  0  0  0  0
 27 29  1  0  0  0  0
 28 26  1  6  0  0  0
 29 28  1  0  0  0  0
 29 32  1  1  0  0  0
 30 27  1  0  0  0  0
 30 31  1  0  0  0  0
 31 28  1  0  0  0  0
 32 33  1  0  0  0  0
 33 36  1  0  0  0  0
 34 36  2  0  0  0  0
 36 37  1  0  0  0  0
 36 35  1  0  0  0  0
M  END
>  <MODEL>
4

>  <REMARK>
 VINA RESULT:      -7.4      3.032      7.966
  Name = 
  13 active torsions:
  status: ('A' for Active; 'I' for Inactive)
    1  A    between atoms: C_2  and  C_4
    2  A    between atoms: O_8  and  C_25
    3  A    between atoms: O_8  and  P_30
    4  A    between atoms: C_9  and  C_28
    5  A    between atoms: N_11  and  C_28
    6  A    between atoms: O_13  and  C_15
    7  A    between atoms: O_13  and  C_36
    8  A    between atoms: C_16  and  C_25
    9  A    between atoms: N_20  and  C_23
   10  A    between atoms: N_20  and  C_37
   11  A    between atoms: C_21  and  N_27
   12  A    between atoms: C_23  and  C_32
   13  A    between atoms: O_24  and  C_36
                            x       y       z     vdW  Elec       q    Type
                         _______ _______ _______ _____ _____    ______ ____

>  <TORSDO>
F 13

$$$$
=
 OpenBabel10222419553D

 37 39  0  0  1  0  0  0  0  0999 V2000
  184.4350  177.7100  137.5690 C   0  0  0  0  0  0  0  0  0  0  0  0
  183.1590  179.4140  139.3980 C   0  0  0  0  0  3  0  0  0  0  0  0
  182.4600  178.9520  138.2720 C   0  0  0  0  0  0  0  0  0  0  0  0
  185.1200  178.1850  138.7010 C   0  0  0  0  0  3  0  0  0  0  0  0
  183.1020  178.1030  137.3670 C   0  0  0  0  0  3  0  0  0  0  0  0
  184.4890  179.0320  139.6150 C   0  0  0  0  0  0  0  0  0  0  0  0
  185.1250  176.7870  136.5890 C   0  0  2  0  0  0  0  0  0  0  0  0
  187.3190  176.0290  136.8250 N   0  0  0  0  0  0  0  0  0  0  0  0
  185.0550  175.3370  137.0570 C   0  0  0  0  0  3  0  0  0  0  0  0
  186.5080  174.8760  137.1690 C   0  0  0  0  0  3  0  0  0  0  0  0
  186.5850  177.0440  136.5190 C   0  0  0  0  0  0  0  0  0  0  0  0
  184.5710  176.8870  135.3080 O   0  0  0  0  0  1  0  0  0  0  0  0
  187.1340  178.3060  136.1260 N   0  0  0  0  0  0  0  0  0  0  0  0
  188.0680  178.8780  136.7750 C   0  0  0  0  0  0  0  0  0  0  0  0
  188.9770  179.4330  137.4050 O   0  0  0  0  0  0  0  0  0  0  0  0
  181.1310  179.3160  138.0320 O   0  0  0  0  0  0  0  0  0  0  0  0
  180.7410  180.6300  137.6490 C   0  0  0  0  0  2  0  0  0  0  0  0
  180.5770  181.4030  135.5870 C   0  0  0  0  0  1  0  0  0  0  0  0
  179.9400  180.5710  136.5070 O   0  0  0  0  0  0  0  0  0  0  0  0
  185.2160  179.4950  140.7550 N   0  0  0  0  0  2  0  0  0  0  0  0
  183.8380  178.2120  142.1170 F   0  0  0  0  0  0  0  0  0  0  0  0
  184.9370  179.0530  142.1140 C   0  0  1  0  0  3  0  0  0  0  0  0
  187.1750  178.2390  141.9830 O   0  0  0  0  0  0  0  0  0  0  0  0
  186.0500  177.7790  143.9800 N   0  0  0  0  0  2  0  0  0  0  0  0
  186.1200  178.3370  142.6670 C   0  0  0  0  0  0  0  0  0  0  0  0
  187.1290  176.9900  144.5570 C   0  0  0  0  0  2  0  0  0  0  0  0
  189.5430  177.0610  147.1720 C   0  0  0  0  0  2  0  0  0  0  0  0
  188.0020  177.8590  145.4500 C   0  0  2  0  0  3  0  0  0  0  0  0
  189.3390  177.1680  145.6740 C   0  0  1  0  0  3  0  0  0  0  0  0
  188.1590  177.1490  147.7700 C   0  0  0  0  0  2  0  0  0  0  0  0
  187.3730  178.0300  146.8250 C   0  0  0  0  0  2  0  0  0  0  0  0
  190.4810  177.9340  145.0140 C   0  0  0  0  0  2  0  0  0  0  0  0
  190.1830  178.2230  143.6780 O   0  0  0  0  0  0  0  0  0  0  0  0
  189.7330  176.0580  142.2530 O   0  0  0  0  0  1  0  0  0  0  0  0
  191.7520  177.5410  141.4870 O   0  0  0  0  0  0  0  0  0  0  0  0
  190.8410  176.9410  142.7820 P   0  0  0  0  0  0  0  0  0  0  0  0
  191.8460  176.0270  143.7870 O   0  0  0  0  0  1  0  0  0  0  0  0
  1  4  1  0  0  0  0
  2  6  1  0  0  0  0
  3  2  2  0  0  0  0
  4  6  2  0  0  0  0
  5  1  2  0  0  0  0
  5  3  1  0  0  0  0
  6 20  1  0  0  0  0
  7 12  1  6  0  0  0
  7  9  1  0  0  0  0
  7  1  1  0  0  0  0
  8 10  1  0  0  0  0
  9 10  2  0  0  0  0
 11  7  1  0  0  0  0
 11  8  2  0  0  0  0
 13 11  1  0  0  0  0
 13 14  2  0  0  0  0
 14 15  2  0  0  0  0
 16  3  1  0  0  0  0
 17 16  1  0  0  0  0
 18 19  1  0  0  0  0
 19 17  1  0  0  0  0
 20 22  1  0  0  0  0
 22 21  1  6  0  0  0
 22 25  1  0  0  0  0
 23 25  2  0  0  0  0
 24 26  1  0  0  0  0
 25 24  1  0  0  0  0
 27 30  1  0  0  0  0
 28 26  1  6  0  0  0
 28 29  1  0  0  0  0
 28 31  1  0  0  0  0
 29 32  1  1  0  0  0
 29 27  1  0  0  0  0
 31 30  1  0  0  0  0
 33 32  1  0  0  0  0
 34 36  1  0  0  0  0
 35 36  2  0  0  0  0
 36 33  1  0  0  0  0
 36 37  1  0  0  0  0
M  END
>  <MODEL>
5

>  <REMARK>
 VINA RESULT:      -7.3      2.752      5.171
  Name = 
  13 active torsions:
  status: ('A' for Active; 'I' for Inactive)
    1  A    between atoms: C_2  and  C_4
    2  A    between atoms: O_8  and  C_25
    3  A    between atoms: O_8  and  P_30
    4  A    between atoms: C_9  and  C_28
    5  A    between atoms: N_11  and  C_28
    6  A    between atoms: O_13  and  C_15
    7  A    between atoms: O_13  and  C_36
    8  A    between atoms: C_16  and  C_25
    9  A    between atoms: N_20  and  C_23
   10  A    between atoms: N_20  and  C_37
   11  A    between atoms: C_21  and  N_27
   12  A    between atoms: C_23  and  C_32
   13  A    between atoms: O_24  and  C_36
                            x       y       z     vdW  Elec       q    Type
                         _______ _______ _______ _____ _____    ______ ____

>  <TORSDO>
F 13

$$$$
=
 OpenBabel10222419553D

 37 39  0  0  1  0  0  0  0  0999 V2000
  189.5310  177.5040  144.2880 C   0  0  0  0  0  0  0  0  0  0  0  0
  187.0820  177.5610  142.9190 C   0  0  0  0  0  3  0  0  0  0  0  0
  187.0970  177.5860  144.3220 C   0  0  0  0  0  0  0  0  0  0  0  0
  189.4980  177.4770  142.8830 C   0  0  0  0  0  3  0  0  0  0  0  0
  188.3200  177.5590  144.9960 C   0  0  0  0  0  3  0  0  0  0  0  0
  188.2820  177.5060  142.1970 C   0  0  0  0  0  0  0  0  0  0  0  0
  190.8540  177.4790  145.0220 C   0  0  2  0  0  0  0  0  0  0  0  0
  191.2470  176.2650  146.9750 N   0  0  0  0  0  0  0  0  0  0  0  0
  191.6750  176.2530  144.6350 C   0  0  0  0  0  3  0  0  0  0  0  0
  191.9320  175.5070  145.9440 C   0  0  0  0  0  3  0  0  0  0  0  0
  190.6730  177.3100  146.4850 C   0  0  0  0  0  0  0  0  0  0  0  0
  191.6030  178.6340  144.7740 O   0  0  0  0  0  1  0  0  0  0  0  0
  189.9410  178.2400  147.2900 N   0  0  0  0  0  0  0  0  0  0  0  0
  189.0090  177.8770  148.0780 C   0  0  0  0  0  0  0  0  0  0  0  0
  188.1050  177.5250  148.8460 O   0  0  0  0  0  0  0  0  0  0  0  0
  185.9140  177.6420  145.0670 O   0  0  0  0  0  0  0  0  0  0  0  0
  185.5740  178.7410  145.9050 C   0  0  0  0  0  2  0  0  0  0  0  0
  183.7140  179.0000  144.7440 C   0  0  0  0  0  1  0  0  0  0  0  0
  184.1870  178.8170  146.0440 O   0  0  0  0  0  0  0  0  0  0  0  0
  188.2850  177.4770  140.7670 N   0  0  0  0  0  2  0  0  0  0  0  0
  190.1250  176.4100  139.8300 F   0  0  0  0  0  0  0  0  0  0  0  0
  189.4920  177.6340  139.9680 C   0  0  1  0  0  3  0  0  0  0  0  0
  189.0550  179.4210  138.4500 O   0  0  0  0  0  0  0  0  0  0  0  0
  188.9250  177.2700  137.5410 N   0  0  0  0  0  2  0  0  0  0  0  0
  189.1430  178.1750  138.6250 C   0  0  0  0  0  0  0  0  0  0  0  0
  188.4960  177.7130  136.2220 C   0  0  0  0  0  2  0  0  0  0  0  0
  186.0560  175.2060  136.8820 C   0  0  0  0  0  2  0  0  0  0  0  0
  187.0980  177.1960  135.9180 C   0  0  2  0  0  3  0  0  0  0  0  0
  186.4820  176.6280  137.1870 C   0  0  1  0  0  3  0  0  0  0  0  0
  186.8980  174.7830  135.7010 C   0  0  0  0  0  2  0  0  0  0  0  0
  187.1470  176.0520  134.9160 C   0  0  0  0  0  2  0  0  0  0  0  0
  185.3010  177.4690  137.6610 C   0  0  0  0  0  2  0  0  0  0  0  0
  185.7340  178.7020  138.1610 O   0  0  0  0  0  0  0  0  0  0  0  0
  183.8970  180.4190  138.9320 O   0  0  0  0  0  0  0  0  0  0  0  0
  183.4430  177.9070  139.5190 O   0  0  0  0  0  1  0  0  0  0  0  0
  184.5910  179.1380  139.3360 P   0  0  0  0  0  0  0  0  0  0  0  0
  185.3820  179.3780  140.8100 O   0  0  0  0  0  1  0  0  0  0  0  0
  1  5  1  0  0  0  0
  1  7  1  0  0  0  0
  2  3  1  0  0  0  0
  3  5  2  0  0  0  0
  3 16  1  0  0  0  0
  4  1  2  0  0  0  0
  6  4  1  0  0  0  0
  6  2  2  0  0  0  0
  7 12  1  6  0  0  0
  7 11  1  0  0  0  0
  9  7  1  0  0  0  0
  9 10  2  0  0  0  0
 10  8  1  0  0  0  0
 11  8  2  0  0  0  0
 11 13  1  0  0  0  0
 13 14  2  0  0  0  0
 14 15  2  0  0  0  0
 16 17  1  0  0  0  0
 17 19  1  0  0  0  0
 18 19  1  0  0  0  0
 20  6  1  0  0  0  0
 22 21  1  6  0  0  0
 22 20  1  0  0  0  0
 23 25  2  0  0  0  0
 24 25  1  0  0  0  0
 25 22  1  0  0  0  0
 26 24  1  0  0  0  0
 27 29  1  0  0  0  0
 28 26  1  1  0  0  0
 28 29  1  0  0  0  0
 29 32  1  6  0  0  0
 30 27  1  0  0  0  0
 31 30  1  0  0  0  0
 31 28  1  0  0  0  0
 32 33  1  0  0  0  0
 33 36  1  0  0  0  0
 34 36  2  0  0  0  0
 36 35  1  0  0  0  0
 36 37  1  0  0  0  0
M  END
>  <MODEL>
6

>  <REMARK>
 VINA RESULT:      -7.3      4.031      9.361
  Name = 
  13 active torsions:
  status: ('A' for Active; 'I' for Inactive)
    1  A    between atoms: C_2  and  C_4
    2  A    between atoms: O_8  and  C_25
    3  A    between atoms: O_8  and  P_30
    4  A    between atoms: C_9  and  C_28
    5  A    between atoms: N_11  and  C_28
    6  A    between atoms: O_13  and  C_15
    7  A    between atoms: O_13  and  C_36
    8  A    between atoms: C_16  and  C_25
    9  A    between atoms: N_20  and  C_23
   10  A    between atoms: N_20  and  C_37
   11  A    between atoms: C_21  and  N_27
   12  A    between atoms: C_23  and  C_32
   13  A    between atoms: O_24  and  C_36
                            x       y       z     vdW  Elec       q    Type
                         _______ _______ _______ _____ _____    ______ ____

>  <TORSDO>
F 13

$$$$
=
 OpenBabel10222419553D

 37 39  0  0  1  0  0  0  0  0999 V2000
  187.8430  177.2500  144.0160 C   0  0  0  0  0  0  0  0  0  0  0  0
  185.6970  178.3830  145.4260 C   0  0  0  0  0  3  0  0  0  0  0  0
  186.8670  178.0200  146.1110 C   0  0  0  0  0  0  0  0  0  0  0  0
  186.6630  177.6170  143.3460 C   0  0  0  0  0  3  0  0  0  0  0  0
  187.9310  177.4580  145.4020 C   0  0  0  0  0  3  0  0  0  0  0  0
  185.5930  178.1820  144.0430 C   0  0  0  0  0  0  0  0  0  0  0  0
  189.0000  176.6450  143.2510 C   0  0  2  0  0  0  0  0  0  0  0  0
  190.4920  177.8740  141.9440 N   0  0  0  0  0  0  0  0  0  0  0  0
  190.3010  176.7620  144.0390 C   0  0  0  0  0  3  0  0  0  0  0  0
  191.2530  177.5450  143.1350 C   0  0  0  0  0  3  0  0  0  0  0  0
  189.2950  177.3980  142.0070 C   0  0  0  0  0  0  0  0  0  0  0  0
  188.7660  175.3010  142.9400 O   0  0  0  0  0  1  0  0  0  0  0  0
  188.3400  177.5650  140.9540 N   0  0  0  0  0  0  0  0  0  0  0  0
  188.5660  178.2930  139.9350 C   0  0  0  0  0  0  0  0  0  0  0  0
  188.7850  179.0000  138.9420 O   0  0  0  0  0  0  0  0  0  0  0  0
  186.9990  178.2110  147.4910 O   0  0  0  0  0  0  0  0  0  0  0  0
  187.9490  177.5120  148.2860 C   0  0  0  0  0  2  0  0  0  0  0  0
  190.1370  177.5350  147.9950 C   0  0  0  0  0  1  0  0  0  0  0  0
  189.0800  178.3070  148.4770 O   0  0  0  0  0  0  0  0  0  0  0  0
  184.4070  178.5440  143.3300 N   0  0  0  0  0  2  0  0  0  0  0  0
  183.1650  179.7660  144.8670 F   0  0  0  0  0  0  0  0  0  0  0  0
  183.1110  178.7140  143.9700 C   0  0  1  0  0  3  0  0  0  0  0  0
  180.9730  179.5110  143.2740 O   0  0  0  0  0  0  0  0  0  0  0  0
  182.3310  178.6510  141.5760 N   0  0  0  0  0  2  0  0  0  0  0  0
  182.0690  178.9840  142.9400 C   0  0  0  0  0  0  0  0  0  0  0  0
  181.3340  178.8020  140.5250 C   0  0  0  0  0  2  0  0  0  0  0  0
  181.0370  179.6850  137.0900 C   0  0  0  0  0  2  0  0  0  0  0  0
  181.8920  179.6320  139.3800 C   0  0  2  0  0  3  0  0  0  0  0  0
  180.7460  180.1260  138.5110 C   0  0  1  0  0  3  0  0  0  0  0  0
  181.9810  178.5140  137.2230 C   0  0  0  0  0  2  0  0  0  0  0  0
  182.7800  178.7880  138.4780 C   0  0  0  0  0  2  0  0  0  0  0  0
  180.5910  181.6410  138.5980 C   0  0  0  0  0  2  0  0  0  0  0  0
  181.6340  182.2900  137.9270 O   0  0  0  0  0  0  0  0  0  0  0  0
  179.5730  183.9200  137.8240 O   0  0  0  0  0  1  0  0  0  0  0  0
  181.9230  185.0080  137.4250 O   0  0  0  0  0  1  0  0  0  0  0  0
  180.9290  183.6550  137.2090 P   0  0  0  0  0  0  0  0  0  0  0  0
  180.7400  183.3690  135.5540 O   0  0  0  0  0  0  0  0  0  0  0  0
  1  5  1  0  0  0  0
  2  3  1  0  0  0  0
  3 16  1  0  0  0  0
  4  1  2  0  0  0  0
  4  6  1  0  0  0  0
  5  3  2  0  0  0  0
  6  2  2  0  0  0  0
  7 12  1  6  0  0  0
  7  1  1  0  0  0  0
  7  9  1  0  0  0  0
  8 11  2  0  0  0  0
  8 10  1  0  0  0  0
 10  9  2  0  0  0  0
 11  7  1  0  0  0  0
 13 11  1  0  0  0  0
 14 13  2  0  0  0  0
 15 14  2  0  0  0  0
 16 17  1  0  0  0  0
 17 19  1  0  0  0  0
 18 19  1  0  0  0  0
 20 22  1  0  0  0  0
 20  6  1  0  0  0  0
 22 21  1  1  0  0  0
 24 25  1  0  0  0  0
 25 23  2  0  0  0  0
 25 22  1  0  0  0  0
 26 24  1  0  0  0  0
 27 30  1  0  0  0  0
 27 29  1  0  0  0  0
 28 26  1  1  0  0  0
 29 32  1  6  0  0  0
 29 28  1  0  0  0  0
 30 31  1  0  0  0  0
 31 28  1  0  0  0  0
 33 32  1  0  0  0  0
 36 35  1  0  0  0  0
 36 34  1  0  0  0  0
 36 33  1  0  0  0  0
 37 36  2  0  0  0  0
M  END
>  <MODEL>
7

>  <REMARK>
 VINA RESULT:      -7.2      3.527      9.502
  Name = 
  13 active torsions:
  status: ('A' for Active; 'I' for Inactive)
    1  A    between atoms: C_2  and  C_4
    2  A    between atoms: O_8  and  C_25
    3  A    between atoms: O_8  and  P_30
    4  A    between atoms: C_9  and  C_28
    5  A    between atoms: N_11  and  C_28
    6  A    between atoms: O_13  and  C_15
    7  A    between atoms: O_13  and  C_36
    8  A    between atoms: C_16  and  C_25
    9  A    between atoms: N_20  and  C_23
   10  A    between atoms: N_20  and  C_37
   11  A    between atoms: C_21  and  N_27
   12  A    between atoms: C_23  and  C_32
   13  A    between atoms: O_24  and  C_36
                            x       y       z     vdW  Elec       q    Type
                         _______ _______ _______ _____ _____    ______ ____

>  <TORSDO>
F 13

$$$$
=
 OpenBabel10222419553D

 37 39  0  0  1  0  0  0  0  0999 V2000
  186.6700  177.8860  143.4500 C   0  0  0  0  0  0  0  0  0  0  0  0
  184.4790  179.2230  142.3150 C   0  0  0  0  0  3  0  0  0  0  0  0
  184.4450  178.8530  143.6690 C   0  0  0  0  0  0  0  0  0  0  0  0
  186.6860  178.2610  142.0960 C   0  0  0  0  0  3  0  0  0  0  0  0
  185.5400  178.1890  144.2260 C   0  0  0  0  0  3  0  0  0  0  0  0
  185.5990  178.9280  141.5260 C   0  0  0  0  0  0  0  0  0  0  0  0
  187.8560  177.1710  144.0590 C   0  0  2  0  0  0  0  0  0  0  0  0
  189.7320  178.2520  144.9310 N   0  0  0  0  0  0  0  0  0  0  0  0
  187.7450  177.1170  145.5800 C   0  0  0  0  0  3  0  0  0  0  0  0
  189.0030  177.8080  146.1040 C   0  0  0  0  0  3  0  0  0  0  0  0
  189.1220  177.9160  143.8460 C   0  0  0  0  0  0  0  0  0  0  0  0
  187.9890  175.8720  143.5590 O   0  0  0  0  0  1  0  0  0  0  0  0
  189.6350  178.2190  142.5440 N   0  0  0  0  0  0  0  0  0  0  0  0
  190.8010  177.8710  142.1710 C   0  0  0  0  0  0  0  0  0  0  0  0
  191.9350  177.5310  141.8060 O   0  0  0  0  0  0  0  0  0  0  0  0
  183.3410  179.1360  144.4790 O   0  0  0  0  0  0  0  0  0  0  0  0
  182.0080  178.7740  144.1340 C   0  0  0  0  0  2  0  0  0  0  0  0
  181.0110  179.0470  142.1840 C   0  0  0  0  0  1  0  0  0  0  0  0
  181.4540  179.7500  143.3040 O   0  0  0  0  0  0  0  0  0  0  0  0
  185.6490  179.2950  140.1450 N   0  0  0  0  0  2  0  0  0  0  0  0
  184.0360  180.1160  138.6880 F   0  0  0  0  0  0  0  0  0  0  0  0
  184.6020  178.9580  139.1910 C   0  0  1  0  0  3  0  0  0  0  0  0
  184.5940  177.0950  137.7020 O   0  0  0  0  0  0  0  0  0  0  0  0
  186.3690  178.5930  137.4340 N   0  0  0  0  0  2  0  0  0  0  0  0
  185.1730  178.1510  138.0770 C   0  0  0  0  0  0  0  0  0  0  0  0
  187.0370  177.8180  136.3990 C   0  0  0  0  0  2  0  0  0  0  0  0
  189.4640  177.1200  138.9080 C   0  0  0  0  0  2  0  0  0  0  0  0
  188.5160  177.6640  136.7210 C   0  0  2  0  0  3  0  0  0  0  0  0
  188.6970  176.5440  137.7340 C   0  0  1  0  0  3  0  0  0  0  0  0
  189.2270  178.6100  138.8440 C   0  0  0  0  0  2  0  0  0  0  0  0
  189.0640  178.9250  137.3740 C   0  0  0  0  0  2  0  0  0  0  0  0
  189.4320  175.3540  137.1260 C   0  0  0  0  0  2  0  0  0  0  0  0
  190.4950  174.9510  137.9420 O   0  0  0  0  0  0  0  0  0  0  0  0
  192.8640  176.0510  137.6360 O   0  0  0  0  0  1  0  0  0  0  0  0
  192.6160  173.5910  136.7690 O   0  0  0  0  0  1  0  0  0  0  0  0
  191.8840  175.1030  136.9820 P   0  0  0  0  0  0  0  0  0  0  0  0
  191.4430  175.7190  135.4710 O   0  0  0  0  0  0  0  0  0  0  0  0
  1  7  1  0  0  0  0
  1  5  1  0  0  0  0
  2  3  1  0  0  0  0
  3  5  2  0  0  0  0
  3 16  1  0  0  0  0
  4  1  2  0  0  0  0
  6  4  1  0  0  0  0
  6  2  2  0  0  0  0
  7 12  1  6  0  0  0
  7  9  1  0  0  0  0
  8 10  1  0  0  0  0
  9 10  2  0  0  0  0
 11  7  1  0  0  0  0
 11  8  2  0  0  0  0
 13 11  1  0  0  0  0
 14 13  2  0  0  0  0
 15 14  2  0  0  0  0
 17 16  1  0  0  0  0
 18 19  1  0  0  0  0
 19 17  1  0  0  0  0
 20  6  1  0  0  0  0
 22 21  1  6  0  0  0
 22 20  1  0  0  0  0
 23 25  2  0  0  0  0
 24 25  1  0  0  0  0
 25 22  1  0  0  0  0
 26 24  1  0  0  0  0
 28 26  1  1  0  0  0
 28 31  1  0  0  0  0
 28 29  1  0  0  0  0
 29 32  1  6  0  0  0
 29 27  1  0  0  0  0
 30 27  1  0  0  0  0
 31 30  1  0  0  0  0
 32 33  1  0  0  0  0
 35 36  1  0  0  0  0
 36 34  1  0  0  0  0
 36 33  1  0  0  0  0
 37 36  2  0  0  0  0
M  END
>  <MODEL>
8

>  <REMARK>
 VINA RESULT:      -7.2      3.062      7.824
  Name = 
  13 active torsions:
  status: ('A' for Active; 'I' for Inactive)
    1  A    between atoms: C_2  and  C_4
    2  A    between atoms: O_8  and  C_25
    3  A    between atoms: O_8  and  P_30
    4  A    between atoms: C_9  and  C_28
    5  A    between atoms: N_11  and  C_28
    6  A    between atoms: O_13  and  C_15
    7  A    between atoms: O_13  and  C_36
    8  A    between atoms: C_16  and  C_25
    9  A    between atoms: N_20  and  C_23
   10  A    between atoms: N_20  and  C_37
   11  A    between atoms: C_21  and  N_27
   12  A    between atoms: C_23  and  C_32
   13  A    between atoms: O_24  and  C_36
                            x       y       z     vdW  Elec       q    Type
                         _______ _______ _______ _____ _____    ______ ____

>  <TORSDO>
F 13

$$$$
=
 OpenBabel10222419553D

 37 39  0  0  1  0  0  0  0  0999 V2000
  187.2970  177.7340  143.0880 C   0  0  0  0  0  0  0  0  0  0  0  0
  184.8630  179.1110  142.8470 C   0  0  0  0  0  3  0  0  0  0  0  0
  185.2530  178.5990  144.0940 C   0  0  0  0  0  0  0  0  0  0  0  0
  186.8900  178.2520  141.8470 C   0  0  0  0  0  3  0  0  0  0  0  0
  186.4660  177.9160  144.2060 C   0  0  0  0  0  3  0  0  0  0  0  0
  185.6800  178.9400  141.7220 C   0  0  0  0  0  0  0  0  0  0  0  0
  188.6120  176.9990  143.2150 C   0  0  2  0  0  0  0  0  0  0  0  0
  190.7000  177.9710  142.8360 N   0  0  0  0  0  0  0  0  0  0  0  0
  189.2520  177.2450  144.5780 C   0  0  0  0  0  3  0  0  0  0  0  0
  190.6220  177.8530  144.2790 C   0  0  0  0  0  3  0  0  0  0  0  0
  189.6320  177.5190  142.2710 C   0  0  0  0  0  0  0  0  0  0  0  0
  188.4550  175.6220  143.0200 O   0  0  0  0  0  1  0  0  0  0  0  0
  189.4550  177.5040  140.8500 N   0  0  0  0  0  0  0  0  0  0  0  0
  190.1390  176.7510  140.0840 C   0  0  0  0  0  0  0  0  0  0  0  0
  190.8030  176.0190  139.3390 O   0  0  0  0  0  0  0  0  0  0  0  0
  184.4580  178.7570  145.2340 O   0  0  0  0  0  0  0  0  0  0  0  0
  184.8750  178.3590  146.5350 C   0  0  0  0  0  2  0  0  0  0  0  0
  186.7070  178.6570  147.7290 C   0  0  0  0  0  1  0  0  0  0  0  0
  185.6760  179.3530  147.0990 O   0  0  0  0  0  0  0  0  0  0  0  0
  185.2970  179.4530  140.4430 N   0  0  0  0  0  2  0  0  0  0  0  0
  183.8390  180.0690  138.7410 F   0  0  0  0  0  0  0  0  0  0  0  0
  183.9530  179.3210  139.9000 C   0  0  1  0  0  3  0  0  0  0  0  0
  183.1410  177.1560  140.4870 O   0  0  0  0  0  0  0  0  0  0  0  0
  183.9740  177.3650  138.3130 N   0  0  0  0  0  2  0  0  0  0  0  0
  183.6640  177.8900  139.6050 C   0  0  0  0  0  0  0  0  0  0  0  0
  183.8050  175.9600  137.9740 C   0  0  0  0  0  2  0  0  0  0  0  0
  184.0100  177.4400  134.7430 C   0  0  0  0  0  2  0  0  0  0  0  0
  184.0720  175.7340  136.4930 C   0  0  2  0  0  3  0  0  0  0  0  0
  184.8120  176.9360  135.9260 C   0  0  1  0  0  3  0  0  0  0  0  0
  182.6050  176.9340  134.9710 C   0  0  0  0  0  2  0  0  0  0  0  0
  182.7690  175.6270  135.7150 C   0  0  0  0  0  2  0  0  0  0  0  0
  186.2350  176.5740  135.5140 C   0  0  0  0  0  2  0  0  0  0  0  0
  187.0630  177.7010  135.5290 O   0  0  0  0  0  0  0  0  0  0  0  0
  189.4350  177.8850  136.6500 O   0  0  0  0  0  0  0  0  0  0  0  0
  187.4030  178.6270  138.1270 O   0  0  0  0  0  1  0  0  0  0  0  0
  187.9860  177.5650  136.9450 P   0  0  0  0  0  0  0  0  0  0  0  0
  187.8750  175.9810  137.5230 O   0  0  0  0  0  1  0  0  0  0  0  0
  1  7  1  0  0  0  0
  1  5  1  0  0  0  0
  2  3  1  0  0  0  0
  3  5  2  0  0  0  0
  3 16  1  0  0  0  0
  4  1  2  0  0  0  0
  6  4  1  0  0  0  0
  6  2  2  0  0  0  0
  7 12  1  6  0  0  0
  7  9  1  0  0  0  0
  8 10  1  0  0  0  0
 10  9  2  0  0  0  0
 11  8  2  0  0  0  0
 11  7  1  0  0  0  0
 13 11  1  0  0  0  0
 14 13  2  0  0  0  0
 15 14  2  0  0  0  0
 16 17  1  0  0  0  0
 17 19  1  0  0  0  0
 19 18  1  0  0  0  0
 20  6  1  0  0  0  0
 22 21  1  6  0  0  0
 22 20  1  0  0  0  0
 24 25  1  0  0  0  0
 25 22  1  0  0  0  0
 25 23  2  0  0  0  0
 26 24  1  0  0  0  0
 27 30  1  0  0  0  0
 27 29  1  0  0  0  0
 28 26  1  1  0  0  0
 29 32  1  6  0  0  0
 29 28  1  0  0  0  0
 30 31  1  0  0  0  0
 31 28  1  0  0  0  0
 32 33  1  0  0  0  0
 33 36  1  0  0  0  0
 34 36  2  0  0  0  0
 36 37  1  0  0  0  0
 36 35  1  0  0  0  0
M  END
>  <MODEL>
9

>  <REMARK>
 VINA RESULT:      -7.2      3.116      8.627
  Name = 
  13 active torsions:
  status: ('A' for Active; 'I' for Inactive)
    1  A    between atoms: C_2  and  C_4
    2  A    between atoms: O_8  and  C_25
    3  A    between atoms: O_8  and  P_30
    4  A    between atoms: C_9  and  C_28
    5  A    between atoms: N_11  and  C_28
    6  A    between atoms: O_13  and  C_15
    7  A    between atoms: O_13  and  C_36
    8  A    between atoms: C_16  and  C_25
    9  A    between atoms: N_20  and  C_23
   10  A    between atoms: N_20  and  C_37
   11  A    between atoms: C_21  and  N_27
   12  A    between atoms: C_23  and  C_32
   13  A    between atoms: O_24  and  C_36
                            x       y       z     vdW  Elec       q    Type
                         _______ _______ _______ _____ _____    ______ ____

>  <TORSDO>
F 13

$$$$
