=
 OpenBabel10222416073D

 26 30  0  0  1  0  0  0  0  0999 V2000
  185.0670  178.4520  143.4880 C   0  0  0  0  0  0  0  0  0  0  0  0
  187.3890  177.8560  143.7260 C   0  0  0  0  0  0  0  0  0  0  0  0
  185.2770  178.5890  142.1080 C   0  0  0  0  0  0  0  0  0  0  0  0
  186.5170  178.3540  141.6000 N   0  0  0  0  0  0  0  0  0  0  0  0
  186.1370  178.0830  144.3000 C   0  0  0  0  0  3  0  0  0  0  0  0
  183.7340  178.6900  144.1110 C   0  0  0  0  0  1  0  0  0  0  0  0
  187.5390  178.0010  142.3830 N   0  0  0  0  0  0  0  0  0  0  0  0
  190.4110  176.8570  145.1640 C   0  0  0  0  0  0  0  0  0  0  0  0
  191.6680  176.4600  145.3930 N   0  0  0  0  0  0  0  0  0  0  0  0
  188.5360  177.4660  144.5580 C   0  0  0  0  0  0  0  0  0  0  0  0
  188.4890  177.4300  145.9270 N   0  0  0  0  0  0  0  0  0  0  0  0
  190.4260  176.7760  147.3100 C   0  0  0  0  0  3  0  0  0  0  0  0
  189.7050  177.0380  146.2220 N   0  0  0  0  0  0  0  0  0  0  0  0
  189.7520  177.1070  144.0250 N   0  0  0  0  0  2  0  0  0  0  0  0
  191.6760  176.4080  146.7650 C   0  0  0  0  0  3  0  0  0  0  0  0
  183.4150  177.7510  140.6990 C   0  0  0  0  0  2  0  0  0  0  0  0
  184.6740  179.6880  140.0280 N   0  0  0  0  0  2  0  0  0  0  0  0
  183.1420  178.0140  139.2370 C   0  0  1  0  0  3  0  0  0  0  0  0
  183.7720  179.3610  138.9340 C   0  0  0  0  0  2  0  0  0  0  0  0
  184.1580  178.9760  141.1890 C   0  0  2  0  0  3  0  0  0  0  0  0
  184.6000  174.9760  136.7230 O   0  0  0  0  0  0  0  0  0  0  0  0
  183.6580  174.6750  137.7140 C   0  0  0  0  0  3  0  0  0  0  0  0
  183.7250  176.9650  138.4080 N   0  0  0  0  0  0  0  0  0  0  0  0
  183.2080  175.6330  138.5230 C   0  0  0  0  0  3  0  0  0  0  0  0
  184.9230  177.2110  137.5980 C   0  0  0  0  0  2  0  0  0  0  0  0
  184.8940  176.3250  136.3550 C   0  0  0  0  0  2  0  0  0  0  0  0
  1  6  1  0  0  0  0
  1  5  1  0  0  0  0
  2  5  2  0  0  0  0
  2 10  1  0  0  0  0
  3  1  2  0  0  0  0
  4  3  1  0  0  0  0
  4  7  2  0  0  0  0
  7  2  1  0  0  0  0
  8  9  2  0  0  0  0
  8 13  1  0  0  0  0
  9 15  1  0  0  0  0
 10 11  2  0  0  0  0
 11 13  1  0  0  0  0
 13 12  1  0  0  0  0
 14 10  1  0  0  0  0
 14  8  1  0  0  0  0
 15 12  2  0  0  0  0
 16 20  1  0  0  0  0
 17 20  1  0  0  0  0
 18 23  1  6  0  0  0
 18 16  1  0  0  0  0
 19 18  1  0  0  0  0
 19 17  1  0  0  0  0
 20  3  1  1  0  0  0
 21 22  1  0  0  0  0
 22 24  2  0  0  0  0
 23 24  1  0  0  0  0
 25 23  1  0  0  0  0
 26 21  1  0  0  0  0
 26 25  1  0  0  0  0
M  END
>  <MODEL>
1

>  <REMARK>
 VINA RESULT:      -8.2      0.000      0.000
  Name = 
  3 active torsions:
  status: ('A' for Active; 'I' for Inactive)
    1  A    between atoms: C_6  and  C_10
    2  A    between atoms: C_7  and  C_26
    3  A    between atoms: N_11  and  C_14
                            x       y       z     vdW  Elec       q    Type
                         _______ _______ _______ _____ _____    ______ ____

>  <TORSDO>
F 3

$$$$
=
 OpenBabel10222416073D

 26 30  0  0  1  0  0  0  0  0999 V2000
  187.3530  177.8240  145.0680 C   0  0  0  0  0  0  0  0  0  0  0  0
  185.5410  178.2380  143.5350 C   0  0  0  0  0  0  0  0  0  0  0  0
  188.2270  177.7760  143.9720 C   0  0  0  0  0  0  0  0  0  0  0  0
  187.7290  177.9620  142.7200 N   0  0  0  0  0  0  0  0  0  0  0  0
  185.9980  178.0560  144.8410 C   0  0  0  0  0  3  0  0  0  0  0  0
  187.8310  177.6320  146.4670 C   0  0  0  0  0  1  0  0  0  0  0  0
  186.4300  178.1830  142.5080 N   0  0  0  0  0  0  0  0  0  0  0  0
  182.1040  178.8550  143.5130 C   0  0  0  0  0  0  0  0  0  0  0  0
  180.8300  179.0990  143.8390 N   0  0  0  0  0  0  0  0  0  0  0  0
  184.1180  178.4840  143.2670 C   0  0  0  0  0  0  0  0  0  0  0  0
  183.5930  178.5360  142.0020 N   0  0  0  0  0  0  0  0  0  0  0  0
  181.2000  178.9550  141.5680 C   0  0  0  0  0  3  0  0  0  0  0  0
  182.3280  178.7710  142.2510 N   0  0  0  0  0  0  0  0  0  0  0  0
  183.1970  178.6850  144.2690 N   0  0  0  0  0  2  0  0  0  0  0  0
  180.2520  179.1630  142.5950 C   0  0  0  0  0  3  0  0  0  0  0  0
  190.5050  178.3710  143.1920 C   0  0  0  0  0  2  0  0  0  0  0  0
  190.0170  176.1350  143.9330 N   0  0  0  0  0  2  0  0  0  0  0  0
  191.6110  177.4590  142.7170 C   0  0  1  0  0  3  0  0  0  0  0  0
  191.3700  176.1260  143.3990 C   0  0  0  0  0  2  0  0  0  0  0  0
  189.6940  177.5370  144.1610 C   0  0  2  0  0  3  0  0  0  0  0  0
  191.6200  176.8260  138.5600 O   0  0  0  0  0  0  0  0  0  0  0  0
  192.8140  177.1280  139.2270 C   0  0  0  0  0  3  0  0  0  0  0  0
  191.5730  177.3180  141.2650 N   0  0  0  0  0  0  0  0  0  0  0  0
  192.8100  177.3470  140.5410 C   0  0  0  0  0  3  0  0  0  0  0  0
  190.3020  177.3180  140.5320 C   0  0  0  0  0  2  0  0  0  0  0  0
  190.4350  176.4650  139.2740 C   0  0  0  0  0  2  0  0  0  0  0  0
  1  6  1  0  0  0  0
  2  5  2  0  0  0  0
  3  1  2  0  0  0  0
  4  3  1  0  0  0  0
  5  1  1  0  0  0  0
  7  4  2  0  0  0  0
  7  2  1  0  0  0  0
  8  9  2  0  0  0  0
  8 14  1  0  0  0  0
 10  2  1  0  0  0  0
 10 14  1  0  0  0  0
 11 13  1  0  0  0  0
 11 10  2  0  0  0  0
 12 13  1  0  0  0  0
 12 15  2  0  0  0  0
 13  8  1  0  0  0  0
 15  9  1  0  0  0  0
 16 20  1  0  0  0  0
 17 20  1  0  0  0  0
 18 23  1  6  0  0  0
 18 16  1  0  0  0  0
 18 19  1  0  0  0  0
 19 17  1  0  0  0  0
 20  3  1  6  0  0  0
 21 22  1  0  0  0  0
 21 26  1  0  0  0  0
 22 24  2  0  0  0  0
 24 23  1  0  0  0  0
 25 23  1  0  0  0  0
 26 25  1  0  0  0  0
M  END
>  <MODEL>
2

>  <REMARK>
 VINA RESULT:      -8.1      3.431      7.432
  Name = 
  3 active torsions:
  status: ('A' for Active; 'I' for Inactive)
    1  A    between atoms: C_6  and  C_10
    2  A    between atoms: C_7  and  C_26
    3  A    between atoms: N_11  and  C_14
                            x       y       z     vdW  Elec       q    Type
                         _______ _______ _______ _____ _____    ______ ____

>  <TORSDO>
F 3

$$$$
=
 OpenBabel10222416073D

 26 30  0  0  1  0  0  0  0  0999 V2000
  186.3720  177.9040  144.7970 C   0  0  0  0  0  0  0  0  0  0  0  0
  184.4360  178.3380  143.4310 C   0  0  0  0  0  0  0  0  0  0  0  0
  187.1230  177.7410  143.6240 C   0  0  0  0  0  0  0  0  0  0  0  0
  186.5080  177.8840  142.4190 N   0  0  0  0  0  0  0  0  0  0  0  0
  185.0160  178.2040  144.6940 C   0  0  0  0  0  3  0  0  0  0  0  0
  186.9820  177.7640  146.1510 C   0  0  0  0  0  1  0  0  0  0  0  0
  185.2090  178.1720  142.3250 N   0  0  0  0  0  0  0  0  0  0  0  0
  181.1760  179.1790  142.5020 C   0  0  0  0  0  0  0  0  0  0  0  0
  180.0670  179.5290  141.8400 N   0  0  0  0  0  0  0  0  0  0  0  0
  183.0080  178.6540  143.2920 C   0  0  0  0  0  0  0  0  0  0  0  0
  182.1290  178.6260  144.3430 N   0  0  0  0  0  0  0  0  0  0  0  0
  179.7320  179.1560  144.0900 C   0  0  0  0  0  3  0  0  0  0  0  0
  181.0070  178.9680  143.7570 N   0  0  0  0  0  0  0  0  0  0  0  0
  182.4380  179.0040  142.0890 N   0  0  0  0  0  2  0  0  0  0  0  0
  179.1440  179.5140  142.8560 C   0  0  0  0  0  3  0  0  0  0  0  0
  189.3620  178.2930  142.7110 C   0  0  0  0  0  2  0  0  0  0  0  0
  188.8220  176.0310  143.3280 N   0  0  0  0  0  2  0  0  0  0  0  0
  190.3840  177.3720  142.0870 C   0  0  1  0  0  3  0  0  0  0  0  0
  190.1300  176.0030  142.6900 C   0  0  0  0  0  2  0  0  0  0  0  0
  188.5880  177.4250  143.6800 C   0  0  2  0  0  3  0  0  0  0  0  0
  189.9510  177.0260  137.9180 O   0  0  0  0  0  0  0  0  0  0  0  0
  191.1860  176.7580  138.5210 C   0  0  0  0  0  3  0  0  0  0  0  0
  190.2290  177.3400  140.6360 N   0  0  0  0  0  0  0  0  0  0  0  0
  191.3300  176.8840  139.8390 C   0  0  0  0  0  3  0  0  0  0  0  0
  189.0500  177.9180  139.9820 C   0  0  0  0  0  2  0  0  0  0  0  0
  188.7560  177.1600  138.6910 C   0  0  0  0  0  2  0  0  0  0  0  0
  1  6  1  0  0  0  0
  2  5  2  0  0  0  0
  3  1  2  0  0  0  0
  4  3  1  0  0  0  0
  5  1  1  0  0  0  0
  7  4  2  0  0  0  0
  7  2  1  0  0  0  0
  8 13  1  0  0  0  0
  9  8  2  0  0  0  0
  9 15  1  0  0  0  0
 10  2  1  0  0  0  0
 10 11  2  0  0  0  0
 13 12  1  0  0  0  0
 13 11  1  0  0  0  0
 14  8  1  0  0  0  0
 14 10  1  0  0  0  0
 15 12  2  0  0  0  0
 16 20  1  0  0  0  0
 17 20  1  0  0  0  0
 18 23  1  6  0  0  0
 18 19  1  0  0  0  0
 18 16  1  0  0  0  0
 19 17  1  0  0  0  0
 20  3  1  6  0  0  0
 21 22  1  0  0  0  0
 21 26  1  0  0  0  0
 22 24  2  0  0  0  0
 24 23  1  0  0  0  0
 25 23  1  0  0  0  0
 26 25  1  0  0  0  0
M  END
>  <MODEL>
3

>  <REMARK>
 VINA RESULT:      -8.0      3.507      7.143
  Name = 
  3 active torsions:
  status: ('A' for Active; 'I' for Inactive)
    1  A    between atoms: C_6  and  C_10
    2  A    between atoms: C_7  and  C_26
    3  A    between atoms: N_11  and  C_14
                            x       y       z     vdW  Elec       q    Type
                         _______ _______ _______ _____ _____    ______ ____

>  <TORSDO>
F 3

$$$$
=
 OpenBabel10222416073D

 26 30  0  0  1  0  0  0  0  0999 V2000
  187.9700  178.1100  141.5290 C   0  0  0  0  0  0  0  0  0  0  0  0
  189.7910  177.3550  142.9140 C   0  0  0  0  0  0  0  0  0  0  0  0
  188.7700  177.8720  140.4020 C   0  0  0  0  0  0  0  0  0  0  0  0
  190.0310  177.3890  140.5750 N   0  0  0  0  0  0  0  0  0  0  0  0
  188.4910  177.8480  142.7940 C   0  0  0  0  0  3  0  0  0  0  0  0
  186.5800  178.6350  141.4120 C   0  0  0  0  0  1  0  0  0  0  0  0
  190.5250  177.1400  141.7900 N   0  0  0  0  0  0  0  0  0  0  0  0
  191.5640  176.3310  145.7430 C   0  0  0  0  0  0  0  0  0  0  0  0
  192.4300  175.7750  146.5980 N   0  0  0  0  0  0  0  0  0  0  0  0
  190.3660  177.0710  144.2360 C   0  0  0  0  0  0  0  0  0  0  0  0
  189.8640  177.5930  145.3980 N   0  0  0  0  0  0  0  0  0  0  0  0
  190.8450  177.1080  147.6110 C   0  0  0  0  0  3  0  0  0  0  0  0
  190.6740  177.0770  146.2910 N   0  0  0  0  0  0  0  0  0  0  0  0
  191.4600  176.2550  144.4100 N   0  0  0  0  0  2  0  0  0  0  0  0
  191.9690  176.2710  147.7920 C   0  0  0  0  0  3  0  0  0  0  0  0
  188.3200  176.8710  138.1780 C   0  0  0  0  0  2  0  0  0  0  0  0
  189.0530  179.1550  138.3600 N   0  0  0  0  0  2  0  0  0  0  0  0
  188.7980  177.3280  136.8190 C   0  0  1  0  0  3  0  0  0  0  0  0
  189.0290  178.8230  136.9440 C   0  0  0  0  0  2  0  0  0  0  0  0
  188.2560  178.1290  139.0180 C   0  0  2  0  0  3  0  0  0  0  0  0
  192.4320  175.5620  135.6550 O   0  0  0  0  0  0  0  0  0  0  0  0
  191.4880  175.9290  134.6880 C   0  0  0  0  0  3  0  0  0  0  0  0
  190.0290  176.6380  136.4490 N   0  0  0  0  0  0  0  0  0  0  0  0
  190.3290  176.4730  135.0570 C   0  0  0  0  0  3  0  0  0  0  0  0
  190.8640  175.9740  137.4550 C   0  0  0  0  0  2  0  0  0  0  0  0
  192.3240  176.0020  137.0110 C   0  0  0  0  0  2  0  0  0  0  0  0
  1  5  1  0  0  0  0
  2 10  1  0  0  0  0
  3  4  1  0  0  0  0
  3  1  2  0  0  0  0
  4  7  2  0  0  0  0
  5  2  2  0  0  0  0
  6  1  1  0  0  0  0
  7  2  1  0  0  0  0
  8 13  1  0  0  0  0
  8  9  2  0  0  0  0
  9 15  1  0  0  0  0
 10 14  1  0  0  0  0
 10 11  2  0  0  0  0
 11 13  1  0  0  0  0
 12 15  2  0  0  0  0
 13 12  1  0  0  0  0
 14  8  1  0  0  0  0
 16 20  1  0  0  0  0
 17 20  1  0  0  0  0
 18 23  1  1  0  0  0
 18 19  1  0  0  0  0
 18 16  1  0  0  0  0
 19 17  1  0  0  0  0
 20  3  1  1  0  0  0
 21 26  1  0  0  0  0
 22 24  2  0  0  0  0
 22 21  1  0  0  0  0
 23 25  1  0  0  0  0
 24 23  1  0  0  0  0
 26 25  1  0  0  0  0
M  END
>  <MODEL>
4

>  <REMARK>
 VINA RESULT:      -7.8      3.947      4.720
  Name = 
  3 active torsions:
  status: ('A' for Active; 'I' for Inactive)
    1  A    between atoms: C_6  and  C_10
    2  A    between atoms: C_7  and  C_26
    3  A    between atoms: N_11  and  C_14
                            x       y       z     vdW  Elec       q    Type
                         _______ _______ _______ _____ _____    ______ ____

>  <TORSDO>
F 3

$$$$
=
 OpenBabel10222416073D

 26 30  0  0  1  0  0  0  0  0999 V2000
  186.7860  178.4170  140.9470 C   0  0  0  0  0  0  0  0  0  0  0  0
  188.0250  177.8460  142.9330 C   0  0  0  0  0  0  0  0  0  0  0  0
  187.8840  178.0000  140.1810 C   0  0  0  0  0  0  0  0  0  0  0  0
  188.9920  177.5270  140.8140 N   0  0  0  0  0  0  0  0  0  0  0  0
  186.8630  178.3380  142.3360 C   0  0  0  0  0  3  0  0  0  0  0  0
  185.5400  178.9420  140.3200 C   0  0  0  0  0  1  0  0  0  0  0  0
  189.0610  177.4540  142.1450 N   0  0  0  0  0  0  0  0  0  0  0  0
  187.6900  177.7960  146.4090 C   0  0  0  0  0  0  0  0  0  0  0  0
  187.2460  177.8700  147.6690 N   0  0  0  0  0  0  0  0  0  0  0  0
  188.1340  177.7510  144.3950 C   0  0  0  0  0  0  0  0  0  0  0  0
  189.2870  177.3810  145.0370 N   0  0  0  0  0  0  0  0  0  0  0  0
  189.4510  177.2230  147.4950 C   0  0  0  0  0  3  0  0  0  0  0  0
  188.9180  177.4380  146.2940 N   0  0  0  0  0  0  0  0  0  0  0  0
  187.0820  178.0260  145.2380 N   0  0  0  0  0  2  0  0  0  0  0  0
  188.3720  177.5040  148.3620 C   0  0  0  0  0  3  0  0  0  0  0  0
  188.3140  176.7460  138.0850 C   0  0  0  0  0  2  0  0  0  0  0  0
  188.7250  179.1150  138.1940 N   0  0  0  0  0  2  0  0  0  0  0  0
  189.1810  177.1340  136.9100 C   0  0  1  0  0  3  0  0  0  0  0  0
  189.2150  178.6520  136.9040 C   0  0  0  0  0  2  0  0  0  0  0  0
  187.8510  178.0580  138.6840 C   0  0  2  0  0  3  0  0  0  0  0  0
  193.1370  175.7410  137.1980 O   0  0  0  0  0  0  0  0  0  0  0  0
  192.4560  175.6710  135.9770 C   0  0  0  0  0  3  0  0  0  0  0  0
  190.5230  176.5820  137.0570 N   0  0  0  0  0  0  0  0  0  0  0  0
  191.1960  176.0960  135.8880 C   0  0  0  0  0  3  0  0  0  0  0  0
  191.1170  176.3620  138.3800 C   0  0  0  0  0  2  0  0  0  0  0  0
  192.6340  176.5080  138.2930 C   0  0  0  0  0  2  0  0  0  0  0  0
  1  5  1  0  0  0  0
  2 10  1  0  0  0  0
  3  4  1  0  0  0  0
  3  1  2  0  0  0  0
  4  7  2  0  0  0  0
  5  2  2  0  0  0  0
  6  1  1  0  0  0  0
  7  2  1  0  0  0  0
  8  9  2  0  0  0  0
  9 15  1  0  0  0  0
 10 11  2  0  0  0  0
 10 14  1  0  0  0  0
 11 13  1  0  0  0  0
 12 15  2  0  0  0  0
 13  8  1  0  0  0  0
 13 12  1  0  0  0  0
 14  8  1  0  0  0  0
 16 20  1  0  0  0  0
 17 20  1  0  0  0  0
 18 19  1  1  0  0  0
 18 23  1  0  0  0  0
 18 16  1  0  0  0  0
 19 17  1  0  0  0  0
 20  3  1  1  0  0  0
 21 26  1  0  0  0  0
 22 21  1  0  0  0  0
 23 25  1  0  0  0  0
 24 22  2  0  0  0  0
 24 23  1  0  0  0  0
 26 25  1  0  0  0  0
M  END
>  <MODEL>
5

>  <REMARK>
 VINA RESULT:      -7.8      4.070      4.981
  Name = 
  3 active torsions:
  status: ('A' for Active; 'I' for Inactive)
    1  A    between atoms: C_6  and  C_10
    2  A    between atoms: C_7  and  C_26
    3  A    between atoms: N_11  and  C_14
                            x       y       z     vdW  Elec       q    Type
                         _______ _______ _______ _____ _____    ______ ____

>  <TORSDO>
F 3

$$$$
=
 OpenBabel10222416073D

 26 30  0  0  1  0  0  0  0  0999 V2000
  187.9110  178.1760  141.5080 C   0  0  0  0  0  0  0  0  0  0  0  0
  189.7070  177.3260  142.8700 C   0  0  0  0  0  0  0  0  0  0  0  0
  188.6730  177.8720  140.3700 C   0  0  0  0  0  0  0  0  0  0  0  0
  189.9040  177.3120  140.5280 N   0  0  0  0  0  0  0  0  0  0  0  0
  188.4390  177.8990  142.7670 C   0  0  0  0  0  3  0  0  0  0  0  0
  186.5550  178.7880  141.4090 C   0  0  0  0  0  1  0  0  0  0  0  0
  190.4040  177.0490  141.7360 N   0  0  0  0  0  0  0  0  0  0  0  0
  190.6410  176.9740  146.2170 C   0  0  0  0  0  0  0  0  0  0  0  0
  190.7350  177.0430  147.5500 N   0  0  0  0  0  0  0  0  0  0  0  0
  190.2880  177.0230  144.1850 C   0  0  0  0  0  0  0  0  0  0  0  0
  191.3740  176.2040  144.3530 N   0  0  0  0  0  0  0  0  0  0  0  0
  192.3350  175.7030  146.5700 C   0  0  0  0  0  3  0  0  0  0  0  0
  191.5260  176.2310  145.6550 N   0  0  0  0  0  0  0  0  0  0  0  0
  189.7840  177.5390  145.3570 N   0  0  0  0  0  2  0  0  0  0  0  0
  191.8190  176.2310  147.7750 C   0  0  0  0  0  3  0  0  0  0  0  0
  188.0360  176.8590  138.1980 C   0  0  0  0  0  2  0  0  0  0  0  0
  189.0420  179.0430  138.2750 N   0  0  0  0  0  2  0  0  0  0  0  0
  188.5220  177.2090  136.8110 C   0  0  1  0  0  3  0  0  0  0  0  0
  188.9330  178.6690  136.8730 C   0  0  0  0  0  2  0  0  0  0  0  0
  188.1500  178.1430  138.9920 C   0  0  2  0  0  3  0  0  0  0  0  0
  191.6220  174.5700  135.7590 O   0  0  0  0  0  0  0  0  0  0  0  0
  191.2140  174.6780  137.0940 C   0  0  0  0  0  3  0  0  0  0  0  0
  189.6490  176.3650  136.4320 N   0  0  0  0  0  0  0  0  0  0  0  0
  190.2440  175.5270  137.4320 C   0  0  0  0  0  3  0  0  0  0  0  0
  190.2820  176.4820  135.1140 C   0  0  0  0  0  2  0  0  0  0  0  0
  190.8500  175.1300  134.6940 C   0  0  0  0  0  2  0  0  0  0  0  0
  1  5  1  0  0  0  0
  2 10  1  0  0  0  0
  3  4  1  0  0  0  0
  3  1  2  0  0  0  0
  4  7  2  0  0  0  0
  5  2  2  0  0  0  0
  6  1  1  0  0  0  0
  7  2  1  0  0  0  0
  8  9  2  0  0  0  0
  9 15  1  0  0  0  0
 10 11  2  0  0  0  0
 10 14  1  0  0  0  0
 11 13  1  0  0  0  0
 12 15  2  0  0  0  0
 13  8  1  0  0  0  0
 13 12  1  0  0  0  0
 14  8  1  0  0  0  0
 16 20  1  0  0  0  0
 17 20  1  0  0  0  0
 18 23  1  1  0  0  0
 18 19  1  0  0  0  0
 18 16  1  0  0  0  0
 19 17  1  0  0  0  0
 20  3  1  1  0  0  0
 21 22  1  0  0  0  0
 22 24  2  0  0  0  0
 23 24  1  0  0  0  0
 25 23  1  0  0  0  0
 26 25  1  0  0  0  0
 26 21  1  0  0  0  0
M  END
>  <MODEL>
6

>  <REMARK>
 VINA RESULT:      -7.7      3.713      4.504
  Name = 
  3 active torsions:
  status: ('A' for Active; 'I' for Inactive)
    1  A    between atoms: C_6  and  C_10
    2  A    between atoms: C_7  and  C_26
    3  A    between atoms: N_11  and  C_14
                            x       y       z     vdW  Elec       q    Type
                         _______ _______ _______ _____ _____    ______ ____

>  <TORSDO>
F 3

$$$$
=
 OpenBabel10222416073D

 26 30  0  0  1  0  0  0  0  0999 V2000
  191.1660  177.4070  141.4240 C   0  0  0  0  0  0  0  0  0  0  0  0
  189.5200  177.4780  143.1820 C   0  0  0  0  0  0  0  0  0  0  0  0
  190.1240  177.2620  140.4970 C   0  0  0  0  0  0  0  0  0  0  0  0
  188.8390  177.2340  140.9450 N   0  0  0  0  0  0  0  0  0  0  0  0
  190.8550  177.5140  142.7780 C   0  0  0  0  0  3  0  0  0  0  0  0
  192.5960  177.4480  141.0040 C   0  0  0  0  0  1  0  0  0  0  0  0
  188.5470  177.3370  142.2430 N   0  0  0  0  0  0  0  0  0  0  0  0
  189.2770  177.6660  146.6610 C   0  0  0  0  0  0  0  0  0  0  0  0
  189.5190  177.6960  147.9760 N   0  0  0  0  0  0  0  0  0  0  0  0
  189.1630  177.5890  144.6030 C   0  0  0  0  0  0  0  0  0  0  0  0
  187.8780  177.7810  145.0380 N   0  0  0  0  0  0  0  0  0  0  0  0
  187.2960  177.9700  147.4300 C   0  0  0  0  0  3  0  0  0  0  0  0
  188.0430  177.8160  146.3380 N   0  0  0  0  0  0  0  0  0  0  0  0
  190.0950  177.5100  145.6110 N   0  0  0  0  0  2  0  0  0  0  0  0
  188.2520  177.8900  148.4670 C   0  0  0  0  0  3  0  0  0  0  0  0
  189.4610  178.0280  138.2340 C   0  0  0  0  0  2  0  0  0  0  0  0
  190.2310  175.7750  138.5800 N   0  0  0  0  0  2  0  0  0  0  0  0
  189.0740  177.2010  137.0300 C   0  0  1  0  0  3  0  0  0  0  0  0
  189.7760  175.8670  137.2010 C   0  0  0  0  0  2  0  0  0  0  0  0
  190.4030  177.1500  139.0290 C   0  0  2  0  0  3  0  0  0  0  0  0
  184.9220  176.5340  137.0550 O   0  0  0  0  0  0  0  0  0  0  0  0
  185.7920  175.5320  136.6060 C   0  0  0  0  0  3  0  0  0  0  0  0
  187.6270  177.0260  136.9700 N   0  0  0  0  0  0  0  0  0  0  0  0
  187.1060  175.7490  136.5810 C   0  0  0  0  0  3  0  0  0  0  0  0
  186.7130  178.1630  137.1330 C   0  0  0  0  0  2  0  0  0  0  0  0
  185.4040  177.6840  137.7530 C   0  0  0  0  0  2  0  0  0  0  0  0
  1  5  1  0  0  0  0
  2 10  1  0  0  0  0
  3  4  1  0  0  0  0
  3  1  2  0  0  0  0
  4  7  2  0  0  0  0
  5  2  2  0  0  0  0
  6  1  1  0  0  0  0
  7  2  1  0  0  0  0
  8  9  2  0  0  0  0
  9 15  1  0  0  0  0
 10 11  2  0  0  0  0
 10 14  1  0  0  0  0
 11 13  1  0  0  0  0
 12 15  2  0  0  0  0
 13  8  1  0  0  0  0
 13 12  1  0  0  0  0
 14  8  1  0  0  0  0
 16 20  1  0  0  0  0
 17 20  1  0  0  0  0
 18 23  1  1  0  0  0
 18 19  1  0  0  0  0
 18 16  1  0  0  0  0
 19 17  1  0  0  0  0
 20  3  1  1  0  0  0
 21 26  1  0  0  0  0
 22 21  1  0  0  0  0
 23 25  1  0  0  0  0
 24 22  2  0  0  0  0
 24 23  1  0  0  0  0
 25 26  1  0  0  0  0
M  END
>  <MODEL>
7

>  <REMARK>
 VINA RESULT:      -7.6      3.105      4.537
  Name = 
  3 active torsions:
  status: ('A' for Active; 'I' for Inactive)
    1  A    between atoms: C_6  and  C_10
    2  A    between atoms: C_7  and  C_26
    3  A    between atoms: N_11  and  C_14
                            x       y       z     vdW  Elec       q    Type
                         _______ _______ _______ _____ _____    ______ ____

>  <TORSDO>
F 3

$$$$
=
 OpenBabel10222416073D

 26 30  0  0  1  0  0  0  0  0999 V2000
  191.0050  177.5210  141.4720 C   0  0  0  0  0  0  0  0  0  0  0  0
  189.3460  177.6310  143.2150 C   0  0  0  0  0  0  0  0  0  0  0  0
  189.9670  177.4550  140.5320 C   0  0  0  0  0  0  0  0  0  0  0  0
  188.6770  177.4830  140.9660 N   0  0  0  0  0  0  0  0  0  0  0  0
  190.6860  177.6080  142.8250 C   0  0  0  0  0  3  0  0  0  0  0  0
  192.4390  177.4980  141.0660 C   0  0  0  0  0  1  0  0  0  0  0  0
  188.3770  177.5670  142.2640 N   0  0  0  0  0  0  0  0  0  0  0  0
  187.8930  177.8760  146.3810 C   0  0  0  0  0  0  0  0  0  0  0  0
  187.0500  177.9760  147.4160 N   0  0  0  0  0  0  0  0  0  0  0  0
  188.9800  177.7230  144.6350 C   0  0  0  0  0  0  0  0  0  0  0  0
  189.9030  177.7120  145.6480 N   0  0  0  0  0  0  0  0  0  0  0  0
  189.2690  177.8630  148.0290 C   0  0  0  0  0  3  0  0  0  0  0  0
  189.1340  177.8130  146.7050 N   0  0  0  0  0  0  0  0  0  0  0  0
  187.6760  177.8260  145.0610 N   0  0  0  0  0  2  0  0  0  0  0  0
  187.9310  177.9680  148.4680 C   0  0  0  0  0  3  0  0  0  0  0  0
  189.3210  178.2630  138.2770 C   0  0  0  0  0  2  0  0  0  0  0  0
  190.0800  176.0010  138.5900 N   0  0  0  0  0  2  0  0  0  0  0  0
  188.9380  177.4590  137.0570 C   0  0  1  0  0  3  0  0  0  0  0  0
  189.6350  176.1190  137.2090 C   0  0  0  0  0  2  0  0  0  0  0  0
  190.2550  177.3670  139.0630 C   0  0  2  0  0  3  0  0  0  0  0  0
  184.7490  177.2210  136.7930 O   0  0  0  0  0  0  0  0  0  0  0  0
  185.3480  177.8780  137.8750 C   0  0  0  0  0  3  0  0  0  0  0  0
  187.4910  177.2900  136.9850 N   0  0  0  0  0  0  0  0  0  0  0  0
  186.6760  177.9380  137.9690 C   0  0  0  0  0  3  0  0  0  0  0  0
  186.8790  176.3470  136.0420 C   0  0  0  0  0  2  0  0  0  0  0  0
  185.4990  176.8530  135.6330 C   0  0  0  0  0  2  0  0  0  0  0  0
  1  5  1  0  0  0  0
  2 10  1  0  0  0  0
  3  4  1  0  0  0  0
  3  1  2  0  0  0  0
  4  7  2  0  0  0  0
  5  2  2  0  0  0  0
  6  1  1  0  0  0  0
  7  2  1  0  0  0  0
  8 13  1  0  0  0  0
  8  9  2  0  0  0  0
  9 15  1  0  0  0  0
 10 14  1  0  0  0  0
 10 11  2  0  0  0  0
 11 13  1  0  0  0  0
 12 15  2  0  0  0  0
 13 12  1  0  0  0  0
 14  8  1  0  0  0  0
 16 20  1  0  0  0  0
 17 20  1  0  0  0  0
 18 23  1  1  0  0  0
 18 19  1  0  0  0  0
 18 16  1  0  0  0  0
 19 17  1  0  0  0  0
 20  3  1  1  0  0  0
 21 22  1  0  0  0  0
 22 24  2  0  0  0  0
 23 24  1  0  0  0  0
 25 23  1  0  0  0  0
 26 25  1  0  0  0  0
 26 21  1  0  0  0  0
M  END
>  <MODEL>
8

>  <REMARK>
 VINA RESULT:      -7.6      3.018      4.523
  Name = 
  3 active torsions:
  status: ('A' for Active; 'I' for Inactive)
    1  A    between atoms: C_6  and  C_10
    2  A    between atoms: C_7  and  C_26
    3  A    between atoms: N_11  and  C_14
                            x       y       z     vdW  Elec       q    Type
                         _______ _______ _______ _____ _____    ______ ____

>  <TORSDO>
F 3

$$$$
=
 OpenBabel10222416073D

 26 30  0  0  1  0  0  0  0  0999 V2000
  188.3070  177.9840  140.3720 C   0  0  0  0  0  0  0  0  0  0  0  0
  185.9570  178.5120  140.3430 C   0  0  0  0  0  0  0  0  0  0  0  0
  188.2390  177.9040  141.7700 C   0  0  0  0  0  0  0  0  0  0  0  0
  187.0470  178.1260  142.3890 N   0  0  0  0  0  0  0  0  0  0  0  0
  187.1520  178.2920  139.6570 C   0  0  0  0  0  3  0  0  0  0  0  0
  189.5780  177.7490  139.6290 C   0  0  0  0  0  1  0  0  0  0  0  0
  185.9440  178.4210  141.6990 N   0  0  0  0  0  0  0  0  0  0  0  0
  183.1430  179.8720  138.7830 C   0  0  0  0  0  0  0  0  0  0  0  0
  182.1910  180.6810  138.3070 N   0  0  0  0  0  0  0  0  0  0  0  0
  184.7230  178.8380  139.6140 C   0  0  0  0  0  0  0  0  0  0  0  0
  183.9610  177.8970  138.9730 N   0  0  0  0  0  0  0  0  0  0  0  0
  181.8930  178.4640  137.7500 C   0  0  0  0  0  3  0  0  0  0  0  0
  182.9930  178.6320  138.4820 N   0  0  0  0  0  0  0  0  0  0  0  0
  184.2360  180.1210  139.5170 N   0  0  0  0  0  2  0  0  0  0  0  0
  181.3910  179.7810  137.6480 C   0  0  0  0  0  3  0  0  0  0  0  0
  189.1030  176.5880  143.6870 C   0  0  0  0  0  2  0  0  0  0  0  0
  189.9970  178.7690  143.2050 N   0  0  0  0  0  2  0  0  0  0  0  0
  189.8650  177.0690  144.8990 C   0  0  1  0  0  3  0  0  0  0  0  0
  190.5880  178.3290  144.4600 C   0  0  0  0  0  2  0  0  0  0  0  0
  189.4500  177.5690  142.5870 C   0  0  2  0  0  3  0  0  0  0  0  0
  187.3460  178.1010  148.1040 O   0  0  0  0  0  0  0  0  0  0  0  0
  188.7000  177.8260  148.3350 C   0  0  0  0  0  3  0  0  0  0  0  0
  188.9530  177.3470  146.0030 N   0  0  0  0  0  0  0  0  0  0  0  0
  189.4950  177.4810  147.3230 C   0  0  0  0  0  3  0  0  0  0  0  0
  187.4980  177.3230  145.8150 C   0  0  0  0  0  2  0  0  0  0  0  0
  186.8390  178.3020  146.7830 C   0  0  0  0  0  2  0  0  0  0  0  0
  1  3  1  0  0  0  0
  2  7  2  0  0  0  0
  3  4  2  0  0  0  0
  5  2  1  0  0  0  0
  5  1  2  0  0  0  0
  6  1  1  0  0  0  0
  7  4  1  0  0  0  0
  8 14  1  0  0  0  0
  9  8  2  0  0  0  0
 10  2  1  0  0  0  0
 11 10  2  0  0  0  0
 12 13  1  0  0  0  0
 13  8  1  0  0  0  0
 13 11  1  0  0  0  0
 14 10  1  0  0  0  0
 15 12  2  0  0  0  0
 15  9  1  0  0  0  0
 17 19  1  0  0  0  0
 18 16  1  6  0  0  0
 18 23  1  0  0  0  0
 19 18  1  0  0  0  0
 20  3  1  1  0  0  0
 20 17  1  0  0  0  0
 20 16  1  0  0  0  0
 21 22  1  0  0  0  0
 23 24  1  0  0  0  0
 24 22  2  0  0  0  0
 25 23  1  0  0  0  0
 25 26  1  0  0  0  0
 26 21  1  0  0  0  0
M  END
>  <MODEL>
9

>  <REMARK>
 VINA RESULT:      -7.6      3.244      8.753
  Name = 
  3 active torsions:
  status: ('A' for Active; 'I' for Inactive)
    1  A    between atoms: C_6  and  C_10
    2  A    between atoms: C_7  and  C_26
    3  A    between atoms: N_11  and  C_14
                            x       y       z     vdW  Elec       q    Type
                         _______ _______ _______ _____ _____    ______ ____

>  <TORSDO>
F 3

$$$$
