=
 OpenBabel10222420453D

 39 44  0  0  1  0  0  0  0  0999 V2000
  185.0950  179.4200  138.6910 N   0  0  0  0  0  0  0  0  0  0  0  0
  186.8280  178.8560  137.1580 N   0  0  0  0  0  2  0  0  0  0  0  0
  185.7600  175.0760  137.2310 O   0  0  0  0  0  0  0  0  0  0  0  0
  185.6140  178.5760  137.8630 C   0  0  0  0  0  0  0  0  0  0  0  0
  185.2960  176.1960  137.4810 C   0  0  0  0  0  0  0  0  0  0  0  0
  184.8010  177.3790  137.7400 C   0  0  0  0  0  0  0  0  0  0  0  0
  183.6840  177.5710  138.5990 N   0  0  0  0  0  0  0  0  0  0  0  0
  183.8530  178.8750  139.2410 C   0  0  1  0  0  3  0  0  0  0  0  0
  186.6910  177.9670  143.2480 C   0  0  0  0  0  2  0  0  0  0  0  0
  182.8550  178.9470  141.5600 C   0  0  0  0  0  3  0  0  0  0  0  0
  183.9630  178.7310  140.7290 C   0  0  0  0  0  0  0  0  0  0  0  0
  186.6260  177.4830  144.6940 C   0  0  0  0  0  2  0  0  0  0  0  0
  185.3310  178.2570  142.6780 C   0  0  0  0  0  0  0  0  0  0  0  0
  182.9830  178.8270  142.9450 C   0  0  0  0  0  3  0  0  0  0  0  0
  185.1960  178.3920  141.2920 C   0  0  0  0  0  3  0  0  0  0  0  0
  185.7400  178.4130  145.5080 C   0  0  0  0  0  2  0  0  0  0  0  0
  184.2180  178.5010  143.5150 C   0  0  0  0  0  0  0  0  0  0  0  0
  184.3030  178.3230  145.0030 C   0  0  0  0  0  2  0  0  0  0  0  0
  181.0700  177.4750  136.5090 C   0  0  2  0  0  3  0  0  0  0  0  0
  180.7790  175.3750  139.4170 O   0  0  0  0  0  0  0  0  0  0  0  0
  182.0780  175.8670  139.7930 C   0  0  0  0  0  2  0  0  0  0  0  0
  180.4760  175.9760  138.2170 C   0  0  0  0  0  0  0  0  0  0  0  0
  179.4270  175.8930  137.4810 N   0  0  0  0  0  0  0  0  0  0  0  0
  178.9310  176.9640  135.4330 O   0  0  0  0  0  0  0  0  0  0  0  0
  180.8660  178.9630  136.7410 C   0  0  0  0  0  1  0  0  0  0  0  0
  182.4730  176.7950  138.6510 C   0  0  0  0  0  0  0  0  0  0  0  0
  179.7250  176.7850  136.3940 C   0  0  0  0  0  0  0  0  0  0  0  0
  181.4870  176.8200  137.7690 C   0  0  0  0  0  0  0  0  0  0  0  0
  187.3500  178.0160  136.0870 C   0  0  0  0  0  2  0  0  0  0  0  0
  189.7120  177.4480  138.5030 C   0  0  0  0  0  0  0  0  0  0  0  0
  188.9030  176.2950  136.8210 N   0  0  0  0  0  2  0  0  0  0  0  0
  190.2780  177.7300  139.7830 N   0  0  0  0  0  2  0  0  0  0  0  0
  189.4580  176.2550  138.0990 N   0  0  0  0  0  0  0  0  0  0  0  0
  188.8060  177.6680  136.3530 C   0  0  2  0  0  3  0  0  0  0  0  0
  189.3470  178.5010  137.5170 C   0  0  0  0  0  2  0  0  0  0  0  0
  190.6780  176.6700  140.6960 C   0  0  0  0  0  2  0  0  0  0  0  0
  190.3540  177.0450  142.1360 C   0  0  1  0  0  3  0  0  0  0  0  0
  190.0740  175.8110  142.9730 C   0  0  0  0  0  1  0  0  0  0  0  0
  191.4070  177.7720  142.6950 O   0  0  0  0  0  1  0  0  0  0  0  0
  1  8  1  0  0  0  0
  2  4  1  0  0  0  0
  3  5  2  0  0  0  0
  4  1  2  0  0  0  0
  5  6  2  0  0  0  0
  6  4  1  0  0  0  0
  6  7  1  0  0  0  0
  7 26  1  0  0  0  0
  7  8  1  0  0  0  0
  8 11  1  1  0  0  0
  9 12  1  0  0  0  0
 10 14  1  0  0  0  0
 11 15  1  0  0  0  0
 11 10  2  0  0  0  0
 12 16  1  0  0  0  0
 13  9  1  0  0  0  0
 13 17  1  0  0  0  0
 14 17  2  0  0  0  0
 15 13  2  0  0  0  0
 17 18  1  0  0  0  0
 18 16  1  0  0  0  0
 19 25  1  1  0  0  0
 19 28  1  0  0  0  0
 20 21  1  0  0  0  0
 22 20  1  0  0  0  0
 23 22  2  0  0  0  0
 24 27  2  0  0  0  0
 26 21  1  0  0  0  0
 27 19  1  0  0  0  0
 27 23  1  0  0  0  0
 28 22  1  0  0  0  0
 28 26  2  0  0  0  0
 29  2  1  0  0  0  0
 30 32  1  0  0  0  0
 31 33  1  0  0  0  0
 32 36  1  0  0  0  0
 33 30  2  0  0  0  0
 34 29  1  1  0  0  0
 34 31  1  0  0  0  0
 34 35  1  0  0  0  0
 35 30  1  0  0  0  0
 36 37  1  0  0  0  0
 37 39  1  0  0  0  0
 37 38  1  1  0  0  0
M  END
>  <MODEL>
1

>  <REMARK>
 VINA RESULT:      -8.3      0.000      0.000
  Name = 
  6 active torsions:
  status: ('A' for Active; 'I' for Inactive)
    1  A    between atoms: C_6  and  C_33
    2  A    between atoms: N_8  and  C_33
    3  A    between atoms: N_9  and  C_14
    4  A    between atoms: C_13  and  C_37
    5  A    between atoms: C_14  and  C_30
    6  A    between atoms: C_23  and  N_36
                            x       y       z     vdW  Elec       q    Type
                         _______ _______ _______ _____ _____    ______ ____

>  <TORSDO>
F 6

$$$$
=
 OpenBabel10222420453D

 39 44  0  0  1  0  0  0  0  0999 V2000
  185.8180  179.0100  138.7610 N   0  0  0  0  0  0  0  0  0  0  0  0
  186.7740  177.7940  136.9510 N   0  0  0  0  0  2  0  0  0  0  0  0
  184.0140  175.0170  137.2650 O   0  0  0  0  0  0  0  0  0  0  0  0
  185.7120  178.0860  137.8650 C   0  0  0  0  0  0  0  0  0  0  0  0
  184.2080  176.1990  137.5780 C   0  0  0  0  0  0  0  0  0  0  0  0
  184.4080  177.4490  137.9060 C   0  0  0  0  0  0  0  0  0  0  0  0
  183.6870  178.0930  138.9480 N   0  0  0  0  0  0  0  0  0  0  0  0
  184.5770  179.0980  139.5320 C   0  0  1  0  0  3  0  0  0  0  0  0
  187.8000  177.7380  143.0950 C   0  0  0  0  0  2  0  0  0  0  0  0
  183.8370  178.9610  141.9430 C   0  0  0  0  0  3  0  0  0  0  0  0
  184.8420  178.8060  140.9780 C   0  0  0  0  0  0  0  0  0  0  0  0
  187.8760  177.1160  144.4870 C   0  0  0  0  0  2  0  0  0  0  0  0
  186.3960  178.1130  142.7100 C   0  0  0  0  0  0  0  0  0  0  0  0
  184.1100  178.7040  143.2880 C   0  0  0  0  0  3  0  0  0  0  0  0
  186.1170  178.3860  141.3660 C   0  0  0  0  0  3  0  0  0  0  0  0
  187.1130  177.9800  145.4790 C   0  0  0  0  0  2  0  0  0  0  0  0
  185.3880  178.2960  143.6830 C   0  0  0  0  0  0  0  0  0  0  0  0
  185.6280  177.9700  145.1290 C   0  0  0  0  0  2  0  0  0  0  0  0
  181.1440  180.0360  137.9610 C   0  0  2  0  0  3  0  0  0  0  0  0
  180.2390  177.3310  140.1560 O   0  0  0  0  0  0  0  0  0  0  0  0
  181.6360  176.9840  140.1610 C   0  0  0  0  0  2  0  0  0  0  0  0
  180.1200  178.4270  139.3330 C   0  0  0  0  0  0  0  0  0  0  0  0
  179.0920  179.1300  139.0190 N   0  0  0  0  0  0  0  0  0  0  0  0
  178.9320  181.0260  137.6170 O   0  0  0  0  0  0  0  0  0  0  0  0
  181.8320  181.2220  138.6170 C   0  0  0  0  0  1  0  0  0  0  0  0
  182.2780  178.0020  139.2260 C   0  0  0  0  0  0  0  0  0  0  0  0
  179.6450  180.1400  138.1590 C   0  0  0  0  0  0  0  0  0  0  0  0
  181.3360  178.8210  138.7860 C   0  0  0  0  0  0  0  0  0  0  0  0
  186.6340  176.8910  135.8150 C   0  0  0  0  0  2  0  0  0  0  0  0
  189.8180  176.2730  136.9210 C   0  0  0  0  0  0  0  0  0  0  0  0
  187.9080  175.1960  137.0050 N   0  0  0  0  0  2  0  0  0  0  0  0
  191.1140  176.7310  137.3060 N   0  0  0  0  0  2  0  0  0  0  0  0
  189.1290  175.4480  137.6260 N   0  0  0  0  0  0  0  0  0  0  0  0
  187.8130  175.9320  135.7550 C   0  0  2  0  0  3  0  0  0  0  0  0
  189.1270  176.7130  135.6780 C   0  0  0  0  0  2  0  0  0  0  0  0
  191.7810  176.2320  138.4980 C   0  0  0  0  0  2  0  0  0  0  0  0
  191.7270  177.2620  139.6190 C   0  0  1  0  0  3  0  0  0  0  0  0
  190.6090  176.9510  140.5960 C   0  0  0  0  0  1  0  0  0  0  0  0
  192.9500  177.3070  140.2930 O   0  0  0  0  0  1  0  0  0  0  0  0
  1  8  1  0  0  0  0
  2  4  1  0  0  0  0
  3  5  2  0  0  0  0
  4  6  1  0  0  0  0
  4  1  2  0  0  0  0
  5  6  2  0  0  0  0
  6  7  1  0  0  0  0
  7 26  1  0  0  0  0
  7  8  1  0  0  0  0
  8 11  1  1  0  0  0
  9 12  1  0  0  0  0
 10 14  1  0  0  0  0
 11 15  1  0  0  0  0
 11 10  2  0  0  0  0
 12 16  1  0  0  0  0
 13  9  1  0  0  0  0
 13 17  1  0  0  0  0
 14 17  2  0  0  0  0
 15 13  2  0  0  0  0
 17 18  1  0  0  0  0
 18 16  1  0  0  0  0
 19 27  1  0  0  0  0
 19 25  1  1  0  0  0
 19 28  1  0  0  0  0
 20 21  1  0  0  0  0
 22 20  1  0  0  0  0
 23 22  2  0  0  0  0
 24 27  2  0  0  0  0
 26 21  1  0  0  0  0
 27 23  1  0  0  0  0
 28 26  2  0  0  0  0
 28 22  1  0  0  0  0
 29  2  1  0  0  0  0
 30 32  1  0  0  0  0
 30 33  2  0  0  0  0
 31 33  1  0  0  0  0
 32 36  1  0  0  0  0
 34 29  1  1  0  0  0
 34 31  1  0  0  0  0
 35 34  1  0  0  0  0
 35 30  1  0  0  0  0
 36 37  1  0  0  0  0
 37 39  1  0  0  0  0
 37 38  1  1  0  0  0
M  END
>  <MODEL>
2

>  <REMARK>
 VINA RESULT:      -8.0      1.834      2.067
  Name = 
  6 active torsions:
  status: ('A' for Active; 'I' for Inactive)
    1  A    between atoms: C_6  and  C_33
    2  A    between atoms: N_8  and  C_33
    3  A    between atoms: N_9  and  C_14
    4  A    between atoms: C_13  and  C_37
    5  A    between atoms: C_14  and  C_30
    6  A    between atoms: C_23  and  N_36
                            x       y       z     vdW  Elec       q    Type
                         _______ _______ _______ _____ _____    ______ ____

>  <TORSDO>
F 6

$$$$
=
 OpenBabel10222420453D

 39 44  0  0  1  0  0  0  0  0999 V2000
  184.2200  178.6070  138.8600 N   0  0  0  0  0  0  0  0  0  0  0  0
  185.7690  179.0870  140.6040 N   0  0  0  0  0  2  0  0  0  0  0  0
  182.8650  179.2180  143.2460 O   0  0  0  0  0  0  0  0  0  0  0  0
  184.4840  178.6800  140.1220 C   0  0  0  0  0  0  0  0  0  0  0  0
  183.1000  178.7620  142.1190 C   0  0  0  0  0  0  0  0  0  0  0  0
  183.3470  178.2760  140.9310 C   0  0  0  0  0  0  0  0  0  0  0  0
  182.3170  177.9270  140.0150 N   0  0  0  0  0  0  0  0  0  0  0  0
  182.8450  178.1450  138.6680 C   0  0  1  0  0  3  0  0  0  0  0  0
  181.4580  182.9200  138.2030 C   0  0  0  0  0  2  0  0  0  0  0  0
  181.2890  178.8520  136.8080 C   0  0  0  0  0  3  0  0  0  0  0  0
  182.0460  179.1840  137.9400 C   0  0  0  0  0  0  0  0  0  0  0  0
  180.3500  183.8110  137.6490 C   0  0  0  0  0  2  0  0  0  0  0  0
  181.3420  181.4980  137.7300 C   0  0  0  0  0  0  0  0  0  0  0  0
  180.5670  179.8380  136.1320 C   0  0  0  0  0  3  0  0  0  0  0  0
  182.0720  180.5060  138.3920 C   0  0  0  0  0  3  0  0  0  0  0  0
  180.2300  183.6100  136.1470 C   0  0  0  0  0  2  0  0  0  0  0  0
  180.6000  181.1640  136.5730 C   0  0  0  0  0  0  0  0  0  0  0  0
  179.7650  182.1860  135.8570 C   0  0  0  0  0  2  0  0  0  0  0  0
  181.1940  174.9590  138.9440 C   0  0  2  0  0  3  0  0  0  0  0  0
  178.9310  176.7720  141.0770 O   0  0  0  0  0  0  0  0  0  0  0  0
  179.9410  177.7950  141.1310 C   0  0  0  0  0  2  0  0  0  0  0  0
  179.4460  175.7680  140.2900 C   0  0  0  0  0  0  0  0  0  0  0  0
  178.9310  174.6540  139.9110 N   0  0  0  0  0  0  0  0  0  0  0  0
  179.8400  172.9620  138.5340 O   0  0  0  0  0  0  0  0  0  0  0  0
  181.3080  175.4630  137.5150 C   0  0  0  0  0  1  0  0  0  0  0  0
  181.0880  177.2340  140.2990 C   0  0  0  0  0  0  0  0  0  0  0  0
  179.9610  174.0880  139.0840 C   0  0  0  0  0  0  0  0  0  0  0  0
  180.7270  176.0510  139.8300 C   0  0  0  0  0  0  0  0  0  0  0  0
  186.1650  179.0100  142.0050 C   0  0  0  0  0  2  0  0  0  0  0  0
  188.8100  177.8170  143.8290 C   0  0  0  0  0  0  0  0  0  0  0  0
  186.7520  177.1530  143.4610 N   0  0  0  0  0  2  0  0  0  0  0  0
  190.0490  178.0230  144.5080 N   0  0  0  0  0  2  0  0  0  0  0  0
  187.8220  177.1840  144.3530 N   0  0  0  0  0  0  0  0  0  0  0  0
  187.1010  177.8310  142.2240 C   0  0  2  0  0  3  0  0  0  0  0  0
  188.5310  178.3260  142.4580 C   0  0  0  0  0  2  0  0  0  0  0  0
  190.3050  177.4580  145.8240 C   0  0  0  0  0  2  0  0  0  0  0  0
  191.6690  176.7810  145.8660 C   0  0  1  0  0  3  0  0  0  0  0  0
  191.8700  176.0380  147.1730 C   0  0  0  0  0  1  0  0  0  0  0  0
  191.8040  175.9000  144.7910 O   0  0  0  0  0  1  0  0  0  0  0  0
  1  4  2  0  0  0  0
  2 29  1  0  0  0  0
  4  2  1  0  0  0  0
  4  6  1  0  0  0  0
  5  3  2  0  0  0  0
  6  5  2  0  0  0  0
  7 26  1  0  0  0  0
  7  6  1  0  0  0  0
  8 11  1  1  0  0  0
  8  1  1  0  0  0  0
  8  7  1  0  0  0  0
 10 11  1  0  0  0  0
 11 15  2  0  0  0  0
 12  9  1  0  0  0  0
 13  9  1  0  0  0  0
 13 15  1  0  0  0  0
 14 17  1  0  0  0  0
 14 10  2  0  0  0  0
 16 12  1  0  0  0  0
 17 13  2  0  0  0  0
 18 16  1  0  0  0  0
 18 17  1  0  0  0  0
 19 25  1  6  0  0  0
 19 27  1  0  0  0  0
 19 28  1  0  0  0  0
 20 21  1  0  0  0  0
 22 20  1  0  0  0  0
 23 22  2  0  0  0  0
 24 27  2  0  0  0  0
 26 21  1  0  0  0  0
 27 23  1  0  0  0  0
 28 22  1  0  0  0  0
 28 26  2  0  0  0  0
 30 33  2  0  0  0  0
 30 32  1  0  0  0  0
 31 33  1  0  0  0  0
 32 36  1  0  0  0  0
 34 29  1  1  0  0  0
 34 35  1  0  0  0  0
 34 31  1  0  0  0  0
 35 30  1  0  0  0  0
 36 37  1  0  0  0  0
 37 38  1  1  0  0  0
 39 37  1  0  0  0  0
M  END
>  <MODEL>
3

>  <REMARK>
 VINA RESULT:      -7.6      3.146      5.685
  Name = 
  6 active torsions:
  status: ('A' for Active; 'I' for Inactive)
    1  A    between atoms: C_6  and  C_33
    2  A    between atoms: N_8  and  C_33
    3  A    between atoms: N_9  and  C_14
    4  A    between atoms: C_13  and  C_37
    5  A    between atoms: C_14  and  C_30
    6  A    between atoms: C_23  and  N_36
                            x       y       z     vdW  Elec       q    Type
                         _______ _______ _______ _____ _____    ______ ____

>  <TORSDO>
F 6

$$$$
=
 OpenBabel10222420453D

 39 44  0  0  1  0  0  0  0  0999 V2000
  187.8730  178.6110  140.5940 N   0  0  0  0  0  0  0  0  0  0  0  0
  187.0910  177.8200  142.7000 N   0  0  0  0  0  2  0  0  0  0  0  0
  189.7780  174.9540  142.7010 O   0  0  0  0  0  0  0  0  0  0  0  0
  188.0590  177.8870  141.6470 C   0  0  0  0  0  0  0  0  0  0  0  0
  189.5660  176.0520  142.1710 C   0  0  0  0  0  0  0  0  0  0  0  0
  189.3460  177.2150  141.6130 C   0  0  0  0  0  0  0  0  0  0  0  0
  189.9650  177.6110  140.3960 N   0  0  0  0  0  0  0  0  0  0  0  0
  189.0310  178.5010  139.7060 C   0  0  1  0  0  3  0  0  0  0  0  0
  186.4970  175.0370  137.1540 C   0  0  0  0  0  2  0  0  0  0  0  0
  189.0080  178.5340  137.1810 C   0  0  0  0  0  3  0  0  0  0  0  0
  188.6190  177.9280  138.3840 C   0  0  0  0  0  0  0  0  0  0  0  0
  186.4420  174.3250  135.8050 C   0  0  0  0  0  2  0  0  0  0  0  0
  187.4170  176.2270  137.1380 C   0  0  0  0  0  0  0  0  0  0  0  0
  188.5970  177.9960  135.9600 C   0  0  0  0  0  3  0  0  0  0  0  0
  187.8220  176.7810  138.3570 C   0  0  0  0  0  3  0  0  0  0  0  0
  186.2110  175.3390  134.6960 C   0  0  0  0  0  2  0  0  0  0  0  0
  187.7890  176.8550  135.9270 C   0  0  0  0  0  0  0  0  0  0  0  0
  187.4160  176.2700  134.5950 C   0  0  0  0  0  2  0  0  0  0  0  0
  191.2800  176.1620  137.6780 C   0  0  2  0  0  3  0  0  0  0  0  0
  193.6750  177.3610  140.0820 O   0  0  0  0  0  0  0  0  0  0  0  0
  192.5460  177.7920  140.8620 C   0  0  0  0  0  2  0  0  0  0  0  0
  193.1580  176.7980  138.9380 C   0  0  0  0  0  0  0  0  0  0  0  0
  193.7450  176.2420  137.9400 N   0  0  0  0  0  0  0  0  0  0  0  0
  192.8170  175.2600  136.0000 O   0  0  0  0  0  0  0  0  0  0  0  0
  190.5550  174.8780  138.0460 C   0  0  0  0  0  1  0  0  0  0  0  0
  191.3380  177.4220  140.0080 C   0  0  0  0  0  0  0  0  0  0  0  0
  192.6460  175.8340  137.1080 C   0  0  0  0  0  0  0  0  0  0  0  0
  191.7690  176.8360  138.9030 C   0  0  0  0  0  0  0  0  0  0  0  0
  187.3370  177.1640  143.9790 C   0  0  0  0  0  2  0  0  0  0  0  0
  189.5660  177.4700  146.5630 C   0  0  0  0  0  0  0  0  0  0  0  0
  189.3850  178.3410  144.5570 N   0  0  0  0  0  2  0  0  0  0  0  0
  190.1710  176.9640  147.7530 N   0  0  0  0  0  2  0  0  0  0  0  0
  190.2450  177.9310  145.5740 N   0  0  0  0  0  0  0  0  0  0  0  0
  188.0010  178.1300  144.9480 C   0  0  2  0  0  3  0  0  0  0  0  0
  188.0940  177.5030  146.3410 C   0  0  0  0  0  2  0  0  0  0  0  0
  191.6110  177.0050  147.9570 C   0  0  0  0  0  2  0  0  0  0  0  0
  192.2320  175.6360  147.7080 C   0  0  1  0  0  3  0  0  0  0  0  0
  192.1350  175.2500  146.2450 C   0  0  0  0  0  1  0  0  0  0  0  0
  193.5680  175.6300  148.1170 O   0  0  0  0  0  1  0  0  0  0  0  0
  1  4  2  0  0  0  0
  2 29  1  0  0  0  0
  4  2  1  0  0  0  0
  5  3  2  0  0  0  0
  6  4  1  0  0  0  0
  6  5  2  0  0  0  0
  7  6  1  0  0  0  0
  8 11  1  6  0  0  0
  8  7  1  0  0  0  0
  8  1  1  0  0  0  0
 10 11  1  0  0  0  0
 12  9  1  0  0  0  0
 13  9  1  0  0  0  0
 13 15  1  0  0  0  0
 14 10  2  0  0  0  0
 15 11  2  0  0  0  0
 16 12  1  0  0  0  0
 17 14  1  0  0  0  0
 17 13  2  0  0  0  0
 18 16  1  0  0  0  0
 18 17  1  0  0  0  0
 19 25  1  1  0  0  0
 19 28  1  0  0  0  0
 20 21  1  0  0  0  0
 22 20  1  0  0  0  0
 23 22  2  0  0  0  0
 24 27  2  0  0  0  0
 26  7  1  0  0  0  0
 26 21  1  0  0  0  0
 27 19  1  0  0  0  0
 27 23  1  0  0  0  0
 28 22  1  0  0  0  0
 28 26  2  0  0  0  0
 30 32  1  0  0  0  0
 31 34  1  0  0  0  0
 31 33  1  0  0  0  0
 32 36  1  0  0  0  0
 33 30  2  0  0  0  0
 34 29  1  6  0  0  0
 34 35  1  0  0  0  0
 35 30  1  0  0  0  0
 37 38  1  6  0  0  0
 37 36  1  0  0  0  0
 37 39  1  0  0  0  0
M  END
>  <MODEL>
4

>  <REMARK>
 VINA RESULT:      -7.5      4.777      8.735
  Name = 
  6 active torsions:
  status: ('A' for Active; 'I' for Inactive)
    1  A    between atoms: C_6  and  C_33
    2  A    between atoms: N_8  and  C_33
    3  A    between atoms: N_9  and  C_14
    4  A    between atoms: C_13  and  C_37
    5  A    between atoms: C_14  and  C_30
    6  A    between atoms: C_23  and  N_36
                            x       y       z     vdW  Elec       q    Type
                         _______ _______ _______ _____ _____    ______ ____

>  <TORSDO>
F 6

$$$$
=
 OpenBabel10222420453D

 39 44  0  0  1  0  0  0  0  0999 V2000
  184.9260  179.5510  138.7550 N   0  0  0  0  0  0  0  0  0  0  0  0
  186.9840  178.6000  138.0250 N   0  0  0  0  0  2  0  0  0  0  0  0
  185.2060  175.1880  137.2310 O   0  0  0  0  0  0  0  0  0  0  0  0
  185.5560  178.6140  138.1280 C   0  0  0  0  0  0  0  0  0  0  0  0
  184.9310  176.3840  137.3880 C   0  0  0  0  0  0  0  0  0  0  0  0
  184.6390  177.6480  137.5490 C   0  0  0  0  0  0  0  0  0  0  0  0
  183.3310  178.0970  137.8840 N   0  0  0  0  0  0  0  0  0  0  0  0
  183.4840  179.3160  138.6780 C   0  0  1  0  0  3  0  0  0  0  0  0
  179.5640  179.6610  141.7530 C   0  0  0  0  0  2  0  0  0  0  0  0
  183.6850  178.6050  141.0930 C   0  0  0  0  0  3  0  0  0  0  0  0
  182.9120  179.1380  140.0520 C   0  0  0  0  0  0  0  0  0  0  0  0
  179.1890  179.7980  143.2260 C   0  0  0  0  0  2  0  0  0  0  0  0
  181.0190  179.3350  141.5600 C   0  0  0  0  0  0  0  0  0  0  0  0
  183.1280  178.4280  142.3610 C   0  0  0  0  0  3  0  0  0  0  0  0
  181.5820  179.4960  140.2890 C   0  0  0  0  0  3  0  0  0  0  0  0
  179.7210  178.6060  144.0060 C   0  0  0  0  0  2  0  0  0  0  0  0
  181.7940  178.7730  142.6000 C   0  0  0  0  0  0  0  0  0  0  0  0
  181.2460  178.6240  143.9910 C   0  0  0  0  0  2  0  0  0  0  0  0
  180.9570  176.1640  139.2400 C   0  0  2  0  0  3  0  0  0  0  0  0
  180.3450  177.1810  135.8420 O   0  0  0  0  0  0  0  0  0  0  0  0
  181.6010  177.8800  135.9180 C   0  0  0  0  0  2  0  0  0  0  0  0
  180.1570  176.5960  137.0730 C   0  0  0  0  0  0  0  0  0  0  0  0
  179.2100  175.8450  137.5080 N   0  0  0  0  0  0  0  0  0  0  0  0
  178.9360  174.8370  139.6280 O   0  0  0  0  0  0  0  0  0  0  0  0
  181.9950  175.0700  139.4290 C   0  0  0  0  0  1  0  0  0  0  0  0
  182.0800  177.6350  137.3440 C   0  0  0  0  0  0  0  0  0  0  0  0
  179.6280  175.5470  138.8500 C   0  0  0  0  0  0  0  0  0  0  0  0
  181.1940  176.8690  137.9590 C   0  0  0  0  0  0  0  0  0  0  0  0
  187.7210  177.6680  137.1800 C   0  0  0  0  0  2  0  0  0  0  0  0
  189.7700  177.2320  139.8920 C   0  0  0  0  0  0  0  0  0  0  0  0
  189.4610  176.1760  137.9930 N   0  0  0  0  0  2  0  0  0  0  0  0
  190.0760  177.4460  141.2700 N   0  0  0  0  0  2  0  0  0  0  0  0
  189.8200  176.0740  139.3360 N   0  0  0  0  0  0  0  0  0  0  0  0
  189.1630  177.5570  137.6510 C   0  0  2  0  0  3  0  0  0  0  0  0
  189.3510  178.3190  138.9660 C   0  0  0  0  0  2  0  0  0  0  0  0
  190.5400  176.3670  142.1280 C   0  0  0  0  0  2  0  0  0  0  0  0
  189.6390  176.2200  143.3480 C   0  0  1  0  0  3  0  0  0  0  0  0
  189.7240  177.4430  144.2410 C   0  0  0  0  0  1  0  0  0  0  0  0
  188.3170  176.0120  142.9480 O   0  0  0  0  0  1  0  0  0  0  0  0
  2  4  1  0  0  0  0
  3  5  2  0  0  0  0
  4  1  2  0  0  0  0
  5  6  2  0  0  0  0
  6  7  1  0  0  0  0
  6  4  1  0  0  0  0
  7  8  1  0  0  0  0
  8  1  1  0  0  0  0
  8 11  1  1  0  0  0
  9 12  1  0  0  0  0
 10 14  1  0  0  0  0
 11 15  1  0  0  0  0
 11 10  2  0  0  0  0
 12 16  1  0  0  0  0
 13  9  1  0  0  0  0
 13 17  1  0  0  0  0
 14 17  2  0  0  0  0
 15 13  2  0  0  0  0
 17 18  1  0  0  0  0
 18 16  1  0  0  0  0
 19 25  1  6  0  0  0
 20 21  1  0  0  0  0
 20 22  1  0  0  0  0
 21 26  1  0  0  0  0
 22 23  2  0  0  0  0
 22 28  1  0  0  0  0
 23 27  1  0  0  0  0
 26  7  1  0  0  0  0
 26 28  2  0  0  0  0
 27 19  1  0  0  0  0
 27 24  2  0  0  0  0
 28 19  1  0  0  0  0
 29  2  1  0  0  0  0
 30 32  1  0  0  0  0
 31 33  1  0  0  0  0
 32 36  1  0  0  0  0
 33 30  2  0  0  0  0
 34 29  1  1  0  0  0
 34 31  1  0  0  0  0
 34 35  1  0  0  0  0
 35 30  1  0  0  0  0
 36 37  1  0  0  0  0
 37 38  1  1  0  0  0
 39 37  1  0  0  0  0
M  END
>  <MODEL>
5

>  <REMARK>
 VINA RESULT:      -7.3      1.594      3.016
  Name = 
  6 active torsions:
  status: ('A' for Active; 'I' for Inactive)
    1  A    between atoms: C_6  and  C_33
    2  A    between atoms: N_8  and  C_33
    3  A    between atoms: N_9  and  C_14
    4  A    between atoms: C_13  and  C_37
    5  A    between atoms: C_14  and  C_30
    6  A    between atoms: C_23  and  N_36
                            x       y       z     vdW  Elec       q    Type
                         _______ _______ _______ _____ _____    ______ ____

>  <TORSDO>
F 6

$$$$
=
 OpenBabel10222420453D

 39 44  0  0  1  0  0  0  0  0999 V2000
  185.9900  178.6990  139.0450 N   0  0  0  0  0  0  0  0  0  0  0  0
  186.8820  177.1250  137.4970 N   0  0  0  0  0  2  0  0  0  0  0  0
  183.4520  175.2160  137.3510 O   0  0  0  0  0  0  0  0  0  0  0  0
  185.7960  177.7640  138.1750 C   0  0  0  0  0  0  0  0  0  0  0  0
  183.9060  176.3260  137.6590 C   0  0  0  0  0  0  0  0  0  0  0  0
  184.3810  177.5010  137.9800 C   0  0  0  0  0  0  0  0  0  0  0  0
  183.6910  178.3990  138.8390 N   0  0  0  0  0  0  0  0  0  0  0  0
  184.7030  179.1770  139.5540 C   0  0  1  0  0  3  0  0  0  0  0  0
  186.9460  177.8770  143.8220 C   0  0  0  0  0  2  0  0  0  0  0  0
  183.4210  179.1890  141.7300 C   0  0  0  0  0  3  0  0  0  0  0  0
  184.6120  178.9480  141.0320 C   0  0  0  0  0  0  0  0  0  0  0  0
  186.6680  177.3230  145.2160 C   0  0  0  0  0  2  0  0  0  0  0  0
  185.6890  178.2840  143.1050 C   0  0  0  0  0  0  0  0  0  0  0  0
  183.3620  178.9880  143.1100 C   0  0  0  0  0  3  0  0  0  0  0  0
  185.7420  178.5010  141.7240 C   0  0  0  0  0  3  0  0  0  0  0  0
  185.7390  178.2630  145.9680 C   0  0  0  0  0  2  0  0  0  0  0  0
  184.4930  178.5540  143.8090 C   0  0  0  0  0  0  0  0  0  0  0  0
  184.3760  178.2920  145.2830 C   0  0  0  0  0  2  0  0  0  0  0  0
  181.1460  176.9700  140.4810 C   0  0  2  0  0  3  0  0  0  0  0  0
  180.2230  179.6580  138.2720 O   0  0  0  0  0  0  0  0  0  0  0  0
  181.6240  179.7650  137.9600 C   0  0  0  0  0  2  0  0  0  0  0  0
  180.1140  178.6460  139.1980 C   0  0  0  0  0  0  0  0  0  0  0  0
  179.0800  178.1450  139.7710 N   0  0  0  0  0  0  0  0  0  0  0  0
  178.9310  176.3860  141.3430 O   0  0  0  0  0  0  0  0  0  0  0  0
  181.4930  175.6500  139.8130 C   0  0  0  0  0  1  0  0  0  0  0  0
  182.2850  178.7090  138.8380 C   0  0  0  0  0  0  0  0  0  0  0  0
  179.6400  177.1070  140.5940 C   0  0  0  0  0  0  0  0  0  0  0  0
  181.3430  178.0870  139.5280 C   0  0  0  0  0  0  0  0  0  0  0  0
  186.7040  176.2000  136.3850 C   0  0  0  0  0  2  0  0  0  0  0  0
  190.0900  175.7460  136.6560 C   0  0  0  0  0  0  0  0  0  0  0  0
  188.4500  174.6560  135.6880 N   0  0  0  0  0  2  0  0  0  0  0  0
  191.3290  175.9810  137.3250 N   0  0  0  0  0  2  0  0  0  0  0  0
  189.6940  174.5730  136.3090 N   0  0  0  0  0  0  0  0  0  0  0  0
  188.0090  176.0390  135.6190 C   0  0  2  0  0  3  0  0  0  0  0  0
  189.1270  176.8260  136.3070 C   0  0  0  0  0  2  0  0  0  0  0  0
  192.2710  174.9050  137.5960 C   0  0  0  0  0  2  0  0  0  0  0  0
  193.6990  175.4330  137.6310 C   0  0  1  0  0  3  0  0  0  0  0  0
  194.0860  176.0530  136.3010 C   0  0  0  0  0  1  0  0  0  0  0  0
  193.8420  176.3730  138.6540 O   0  0  0  0  0  1  0  0  0  0  0  0
  1  8  1  0  0  0  0
  2  4  1  0  0  0  0
  3  5  2  0  0  0  0
  4  1  2  0  0  0  0
  5  6  2  0  0  0  0
  6  4  1  0  0  0  0
  6  7  1  0  0  0  0
  7  8  1  0  0  0  0
  8 11  1  1  0  0  0
  9 12  1  0  0  0  0
 10 14  1  0  0  0  0
 11 15  1  0  0  0  0
 11 10  2  0  0  0  0
 12 16  1  0  0  0  0
 13 17  1  0  0  0  0
 13  9  1  0  0  0  0
 14 17  2  0  0  0  0
 15 13  2  0  0  0  0
 17 18  1  0  0  0  0
 18 16  1  0  0  0  0
 19 25  1  6  0  0  0
 19 27  1  0  0  0  0
 20 22  1  0  0  0  0
 21 20  1  0  0  0  0
 21 26  1  0  0  0  0
 22 28  1  0  0  0  0
 22 23  2  0  0  0  0
 23 27  1  0  0  0  0
 26  7  1  0  0  0  0
 26 28  2  0  0  0  0
 27 24  2  0  0  0  0
 28 19  1  0  0  0  0
 29  2  1  0  0  0  0
 30 32  1  0  0  0  0
 31 33  1  0  0  0  0
 32 36  1  0  0  0  0
 33 30  2  0  0  0  0
 34 31  1  0  0  0  0
 34 35  1  0  0  0  0
 34 29  1  1  0  0  0
 35 30  1  0  0  0  0
 36 37  1  0  0  0  0
 37 38  1  6  0  0  0
 37 39  1  0  0  0  0
M  END
>  <MODEL>
6

>  <REMARK>
 VINA RESULT:      -7.2      2.203      2.981
  Name = 
  6 active torsions:
  status: ('A' for Active; 'I' for Inactive)
    1  A    between atoms: C_6  and  C_33
    2  A    between atoms: N_8  and  C_33
    3  A    between atoms: N_9  and  C_14
    4  A    between atoms: C_13  and  C_37
    5  A    between atoms: C_14  and  C_30
    6  A    between atoms: C_23  and  N_36
                            x       y       z     vdW  Elec       q    Type
                         _______ _______ _______ _____ _____    ______ ____

>  <TORSDO>
F 6

$$$$
=
 OpenBabel10222420453D

 39 44  0  0  1  0  0  0  0  0999 V2000
  188.4810  176.1710  142.5320 N   0  0  0  0  0  0  0  0  0  0  0  0
  190.0720  176.6920  140.8390 N   0  0  0  0  0  2  0  0  0  0  0  0
  191.7170  179.4300  143.1250 O   0  0  0  0  0  0  0  0  0  0  0  0
  189.5900  176.7360  142.1860 C   0  0  0  0  0  0  0  0  0  0  0  0
  191.0020  178.4240  143.2180 C   0  0  0  0  0  0  0  0  0  0  0  0
  190.2500  177.3590  143.3190 C   0  0  0  0  0  0  0  0  0  0  0  0
  189.4160  177.1130  144.4450 N   0  0  0  0  0  0  0  0  0  0  0  0
  188.2560  176.3610  143.9660 C   0  0  1  0  0  3  0  0  0  0  0  0
  184.0400  178.2980  142.1190 C   0  0  0  0  0  2  0  0  0  0  0  0
  186.6280  177.5610  145.4790 C   0  0  0  0  0  3  0  0  0  0  0  0
  186.9870  177.1260  144.1960 C   0  0  0  0  0  0  0  0  0  0  0  0
  182.9910  179.3780  142.3700 C   0  0  0  0  0  2  0  0  0  0  0  0
  184.9530  178.0990  143.2970 C   0  0  0  0  0  0  0  0  0  0  0  0
  185.4320  178.2550  145.6750 C   0  0  0  0  0  3  0  0  0  0  0  0
  186.1460  177.3920  143.1120 C   0  0  0  0  0  3  0  0  0  0  0  0
  182.3160  179.1370  143.7120 C   0  0  0  0  0  2  0  0  0  0  0  0
  184.5810  178.5140  144.5960 C   0  0  0  0  0  0  0  0  0  0  0  0
  183.3330  179.3140  144.8350 C   0  0  0  0  0  2  0  0  0  0  0  0
  192.0550  176.0780  146.2270 C   0  0  2  0  0  3  0  0  0  0  0  0
  189.5600  177.8770  148.0950 O   0  0  0  0  0  0  0  0  0  0  0  0
  188.8360  177.9850  146.8560 C   0  0  0  0  0  2  0  0  0  0  0  0
  190.7200  177.1960  147.8030 C   0  0  0  0  0  0  0  0  0  0  0  0
  191.6840  176.8210  148.5630 N   0  0  0  0  0  0  0  0  0  0  0  0
  193.6520  175.6280  148.0270 O   0  0  0  0  0  0  0  0  0  0  0  0
  191.7060  174.6450  145.8590 C   0  0  0  0  0  1  0  0  0  0  0  0
  189.7390  177.3030  145.8340 C   0  0  0  0  0  0  0  0  0  0  0  0
  192.5600  176.1330  147.6550 C   0  0  0  0  0  0  0  0  0  0  0  0
  190.8170  176.8570  146.4580 C   0  0  0  0  0  0  0  0  0  0  0  0
  191.3960  177.1550  140.4420 C   0  0  0  0  0  2  0  0  0  0  0  0
  193.1410  175.3980  138.0730 C   0  0  0  0  0  0  0  0  0  0  0  0
  191.0170  175.6690  138.5550 N   0  0  0  0  0  2  0  0  0  0  0  0
  194.3400  174.7720  137.6190 N   0  0  0  0  0  2  0  0  0  0  0  0
  191.9930  174.8190  138.0380 N   0  0  0  0  0  0  0  0  0  0  0  0
  191.6060  176.9370  138.9510 C   0  0  2  0  0  3  0  0  0  0  0  0
  193.0970  176.7710  138.6450 C   0  0  0  0  0  2  0  0  0  0  0  0
  194.3330  173.4500  137.0100 C   0  0  0  0  0  2  0  0  0  0  0  0
  195.1690  172.4740  137.8270 C   0  0  1  0  0  3  0  0  0  0  0  0
  196.4730  172.1480  137.1230 C   0  0  0  0  0  1  0  0  0  0  0  0
  195.4300  173.0030  139.0930 O   0  0  0  0  0  1  0  0  0  0  0  0
  1  8  1  0  0  0  0
  2  4  1  0  0  0  0
  3  5  2  0  0  0  0
  4  1  2  0  0  0  0
  4  6  1  0  0  0  0
  5  6  2  0  0  0  0
  6  7  1  0  0  0  0
  7 26  1  0  0  0  0
  8 11  1  6  0  0  0
  8  7  1  0  0  0  0
  9 12  1  0  0  0  0
  9 13  1  0  0  0  0
 10 14  1  0  0  0  0
 11 10  2  0  0  0  0
 12 16  1  0  0  0  0
 13 17  1  0  0  0  0
 15 13  2  0  0  0  0
 15 11  1  0  0  0  0
 16 18  1  0  0  0  0
 17 18  1  0  0  0  0
 17 14  2  0  0  0  0
 19 25  1  1  0  0  0
 19 28  1  0  0  0  0
 19 27  1  0  0  0  0
 21 20  1  0  0  0  0
 22 20  1  0  0  0  0
 22 23  2  0  0  0  0
 26 28  2  0  0  0  0
 26 21  1  0  0  0  0
 27 24  2  0  0  0  0
 27 23  1  0  0  0  0
 28 22  1  0  0  0  0
 29  2  1  0  0  0  0
 30 35  1  0  0  0  0
 31 34  1  0  0  0  0
 32 30  1  0  0  0  0
 33 30  2  0  0  0  0
 33 31  1  0  0  0  0
 34 29  1  1  0  0  0
 35 34  1  0  0  0  0
 36 32  1  0  0  0  0
 36 37  1  0  0  0  0
 37 38  1  6  0  0  0
 37 39  1  0  0  0  0
M  END
>  <MODEL>
7

>  <REMARK>
 VINA RESULT:      -7.2      5.228      8.828
  Name = 
  6 active torsions:
  status: ('A' for Active; 'I' for Inactive)
    1  A    between atoms: C_6  and  C_33
    2  A    between atoms: N_8  and  C_33
    3  A    between atoms: N_9  and  C_14
    4  A    between atoms: C_13  and  C_37
    5  A    between atoms: C_14  and  C_30
    6  A    between atoms: C_23  and  N_36
                            x       y       z     vdW  Elec       q    Type
                         _______ _______ _______ _____ _____    ______ ____

>  <TORSDO>
F 6

$$$$
=
 OpenBabel10222420453D

 39 44  0  0  1  0  0  0  0  0999 V2000
  191.8370  176.6790  138.4900 N   0  0  0  0  0  0  0  0  0  0  0  0
  193.0360  174.6990  137.9310 N   0  0  0  0  0  2  0  0  0  0  0  0
  189.8350  173.1440  136.2670 O   0  0  0  0  0  0  0  0  0  0  0  0
  191.9170  175.5840  137.8110 C   0  0  0  0  0  0  0  0  0  0  0  0
  190.2920  174.2480  136.5920 C   0  0  0  0  0  0  0  0  0  0  0  0
  190.7740  175.4150  136.9300 C   0  0  0  0  0  0  0  0  0  0  0  0
  189.9500  176.5570  137.1320 N   0  0  0  0  0  0  0  0  0  0  0  0
  190.6020  177.3860  138.1460 C   0  0  1  0  0  3  0  0  0  0  0  0
  189.8930  176.5590  143.0190 C   0  0  0  0  0  2  0  0  0  0  0  0
  188.5180  178.2290  139.2980 C   0  0  0  0  0  3  0  0  0  0  0  0
  189.7330  177.5330  139.3590 C   0  0  0  0  0  0  0  0  0  0  0  0
  188.8030  176.4300  144.0800 C   0  0  0  0  0  2  0  0  0  0  0  0
  189.3670  177.1040  141.7200 C   0  0  0  0  0  0  0  0  0  0  0  0
  187.7330  178.3720  140.4430 C   0  0  0  0  0  3  0  0  0  0  0  0
  190.1540  176.9780  140.5700 C   0  0  0  0  0  3  0  0  0  0  0  0
  188.0120  177.7260  144.1650 C   0  0  0  0  0  2  0  0  0  0  0  0
  188.1550  177.8290  141.6610 C   0  0  0  0  0  0  0  0  0  0  0  0
  187.2570  177.9510  142.8580 C   0  0  0  0  0  2  0  0  0  0  0  0
  186.6840  175.8630  137.3860 C   0  0  2  0  0  3  0  0  0  0  0  0
  187.5920  177.9450  134.5940 O   0  0  0  0  0  0  0  0  0  0  0  0
  188.9480  177.8320  135.0630 C   0  0  0  0  0  2  0  0  0  0  0  0
  186.8190  177.2310  135.4800 C   0  0  0  0  0  0  0  0  0  0  0  0
  185.5560  177.0000  135.4910 N   0  0  0  0  0  0  0  0  0  0  0  0
  184.2660  175.7430  137.0210 O   0  0  0  0  0  0  0  0  0  0  0  0
  187.0160  174.3860  137.2490 C   0  0  0  0  0  1  0  0  0  0  0  0
  188.8370  176.9880  136.3280 C   0  0  0  0  0  0  0  0  0  0  0  0
  185.3920  176.1690  136.6530 C   0  0  0  0  0  0  0  0  0  0  0  0
  187.5670  176.6630  136.5060 C   0  0  0  0  0  0  0  0  0  0  0  0
  193.2530  173.5520  137.0590 C   0  0  0  0  0  2  0  0  0  0  0  0
  196.3590  174.2710  138.3150 C   0  0  0  0  0  0  0  0  0  0  0  0
  195.0940  172.4810  138.2330 N   0  0  0  0  0  2  0  0  0  0  0  0
  197.3220  175.2080  138.7970 N   0  0  0  0  0  2  0  0  0  0  0  0
  196.0690  173.1840  138.9370 N   0  0  0  0  0  0  0  0  0  0  0  0
  194.7310  173.1920  137.0190 C   0  0  2  0  0  3  0  0  0  0  0  0
  195.5860  174.4610  137.0570 C   0  0  0  0  0  2  0  0  0  0  0  0
  198.1010  174.9580  140.0000 C   0  0  0  0  0  2  0  0  0  0  0  0
  197.4120  175.5490  141.2230 C   0  0  1  0  0  3  0  0  0  0  0  0
  198.3550  175.5990  142.4110 C   0  0  0  0  0  1  0  0  0  0  0  0
  196.9360  176.8310  140.9370 O   0  0  0  0  0  1  0  0  0  0  0  0
  3  5  2  0  0  0  0
  4  2  1  0  0  0  0
  4  1  2  0  0  0  0
  5  6  2  0  0  0  0
  6  7  1  0  0  0  0
  6  4  1  0  0  0  0
  7  8  1  0  0  0  0
  8  1  1  0  0  0  0
  8 11  1  1  0  0  0
  9 12  1  0  0  0  0
 10 11  2  0  0  0  0
 10 14  1  0  0  0  0
 11 15  1  0  0  0  0
 12 16  1  0  0  0  0
 13  9  1  0  0  0  0
 14 17  2  0  0  0  0
 15 13  2  0  0  0  0
 17 13  1  0  0  0  0
 17 18  1  0  0  0  0
 18 16  1  0  0  0  0
 19 25  1  6  0  0  0
 20 21  1  0  0  0  0
 20 22  1  0  0  0  0
 21 26  1  0  0  0  0
 22 23  2  0  0  0  0
 22 28  1  0  0  0  0
 23 27  1  0  0  0  0
 26 28  2  0  0  0  0
 26  7  1  0  0  0  0
 27 24  2  0  0  0  0
 27 19  1  0  0  0  0
 28 19  1  0  0  0  0
 29  2  1  0  0  0  0
 30 32  1  0  0  0  0
 30 33  2  0  0  0  0
 31 33  1  0  0  0  0
 32 36  1  0  0  0  0
 34 35  1  0  0  0  0
 34 29  1  1  0  0  0
 34 31  1  0  0  0  0
 35 30  1  0  0  0  0
 36 37  1  0  0  0  0
 37 38  1  1  0  0  0
 39 37  1  0  0  0  0
M  END
>  <MODEL>
8

>  <REMARK>
 VINA RESULT:      -7.1      4.110      6.475
  Name = 
  6 active torsions:
  status: ('A' for Active; 'I' for Inactive)
    1  A    between atoms: C_6  and  C_33
    2  A    between atoms: N_8  and  C_33
    3  A    between atoms: N_9  and  C_14
    4  A    between atoms: C_13  and  C_37
    5  A    between atoms: C_14  and  C_30
    6  A    between atoms: C_23  and  N_36
                            x       y       z     vdW  Elec       q    Type
                         _______ _______ _______ _____ _____    ______ ____

>  <TORSDO>
F 6

$$$$
=
 OpenBabel10222420453D

 39 44  0  0  1  0  0  0  0  0999 V2000
  189.7820  178.2020  139.1660 N   0  0  0  0  0  0  0  0  0  0  0  0
  191.0150  176.7840  137.7020 N   0  0  0  0  0  2  0  0  0  0  0  0
  187.8530  174.5300  137.1090 O   0  0  0  0  0  0  0  0  0  0  0  0
  189.7930  177.2820  138.2600 C   0  0  0  0  0  0  0  0  0  0  0  0
  188.1440  175.6710  137.4910 C   0  0  0  0  0  0  0  0  0  0  0  0
  188.4480  176.8780  137.8910 C   0  0  0  0  0  0  0  0  0  0  0  0
  187.5690  177.6690  138.6810 N   0  0  0  0  0  0  0  0  0  0  0  0
  188.4010  178.5250  139.5270 C   0  0  1  0  0  3  0  0  0  0  0  0
  185.3700  178.7560  143.4890 C   0  0  0  0  0  2  0  0  0  0  0  0
  189.1220  177.5630  141.7490 C   0  0  0  0  0  3  0  0  0  0  0  0
  188.1640  178.2370  140.9800 C   0  0  0  0  0  0  0  0  0  0  0  0
  185.3700  178.7620  145.0160 C   0  0  0  0  0  2  0  0  0  0  0  0
  186.7080  178.3770  142.9170 C   0  0  0  0  0  0  0  0  0  0  0  0
  188.8740  177.2870  143.0950 C   0  0  0  0  0  3  0  0  0  0  0  0
  186.9600  178.6370  141.5660 C   0  0  0  0  0  3  0  0  0  0  0  0
  185.9840  177.4720  145.5360 C   0  0  0  0  0  2  0  0  0  0  0  0
  187.6650  177.6740  143.6840 C   0  0  0  0  0  0  0  0  0  0  0  0
  187.4580  177.4140  145.1480 C   0  0  0  0  0  2  0  0  0  0  0  0
  185.5800  176.9400  136.0880 C   0  0  2  0  0  3  0  0  0  0  0  0
  183.9290  178.4630  138.9000 O   0  0  0  0  0  0  0  0  0  0  0  0
  185.2210  178.4880  139.5330 C   0  0  0  0  0  2  0  0  0  0  0  0
  184.1170  177.8780  137.6690 C   0  0  0  0  0  0  0  0  0  0  0  0
  183.2880  177.6490  136.7160 N   0  0  0  0  0  0  0  0  0  0  0  0
  183.6560  176.6630  134.6000 O   0  0  0  0  0  0  0  0  0  0  0  0
  186.4140  177.8700  135.2230 C   0  0  0  0  0  1  0  0  0  0  0  0
  186.1480  177.8280  138.5190 C   0  0  0  0  0  0  0  0  0  0  0  0
  184.1180  177.0550  135.7040 C   0  0  0  0  0  0  0  0  0  0  0  0
  185.4390  177.5060  137.4490 C   0  0  0  0  0  0  0  0  0  0  0  0
  191.0690  175.8830  136.5580 C   0  0  0  0  0  2  0  0  0  0  0  0
  194.2980  175.0020  137.2930 C   0  0  0  0  0  0  0  0  0  0  0  0
  192.8310  174.4020  135.7750 N   0  0  0  0  0  2  0  0  0  0  0  0
  195.3860  174.9100  138.2120 N   0  0  0  0  0  2  0  0  0  0  0  0
  193.9160  174.0170  136.5590 N   0  0  0  0  0  0  0  0  0  0  0  0
  192.4910  175.7920  136.0260 C   0  0  2  0  0  3  0  0  0  0  0  0
  193.4880  176.2350  137.1000 C   0  0  0  0  0  2  0  0  0  0  0  0
  196.1920  173.7040  138.3290 C   0  0  0  0  0  2  0  0  0  0  0  0
  197.6420  173.9840  137.9560 C   0  0  1  0  0  3  0  0  0  0  0  0
  197.9700  173.4310  136.5820 C   0  0  0  0  0  1  0  0  0  0  0  0
  197.8920  175.3580  137.9890 O   0  0  0  0  0  1  0  0  0  0  0  0
  1  8  1  0  0  0  0
  2  4  1  0  0  0  0
  3  5  2  0  0  0  0
  4  1  2  0  0  0  0
  5  6  2  0  0  0  0
  6  4  1  0  0  0  0
  6  7  1  0  0  0  0
  7  8  1  0  0  0  0
  8 11  1  1  0  0  0
  9 12  1  0  0  0  0
 10 14  1  0  0  0  0
 11 15  1  0  0  0  0
 11 10  2  0  0  0  0
 12 16  1  0  0  0  0
 13  9  1  0  0  0  0
 13 17  1  0  0  0  0
 14 17  2  0  0  0  0
 15 13  2  0  0  0  0
 17 18  1  0  0  0  0
 18 16  1  0  0  0  0
 19 25  1  6  0  0  0
 19 28  1  0  0  0  0
 20 21  1  0  0  0  0
 22 20  1  0  0  0  0
 23 22  2  0  0  0  0
 24 27  2  0  0  0  0
 26  7  1  0  0  0  0
 26 21  1  0  0  0  0
 27 19  1  0  0  0  0
 27 23  1  0  0  0  0
 28 22  1  0  0  0  0
 28 26  2  0  0  0  0
 29  2  1  0  0  0  0
 30 32  1  0  0  0  0
 31 34  1  0  0  0  0
 31 33  1  0  0  0  0
 32 36  1  0  0  0  0
 33 30  2  0  0  0  0
 34 29  1  1  0  0  0
 34 35  1  0  0  0  0
 35 30  1  0  0  0  0
 37 38  1  6  0  0  0
 37 39  1  0  0  0  0
 37 36  1  0  0  0  0
M  END
>  <MODEL>
9

>  <REMARK>
 VINA RESULT:      -6.5      3.603      4.896
  Name = 
  6 active torsions:
  status: ('A' for Active; 'I' for Inactive)
    1  A    between atoms: C_6  and  C_33
    2  A    between atoms: N_8  and  C_33
    3  A    between atoms: N_9  and  C_14
    4  A    between atoms: C_13  and  C_37
    5  A    between atoms: C_14  and  C_30
    6  A    between atoms: C_23  and  N_36
                            x       y       z     vdW  Elec       q    Type
                         _______ _______ _______ _____ _____    ______ ____

>  <TORSDO>
F 6

$$$$
