=
 OpenBabel10222420083D

 48 54  0  0  1  0  0  0  0  0999 V2000
  188.4870  177.4900  135.9430 C   0  0  0  0  0  0  0  0  0  0  0  0
  188.9070  177.5670  134.7610 O   0  0  0  0  0  0  0  0  0  0  0  0
  186.5980  177.6090  137.5670 C   0  0  0  0  0  0  0  0  0  0  0  0
  187.0730  177.0700  136.2300 C   0  0  2  0  0  3  0  0  0  0  0  0
  188.9020  177.8850  138.2680 N   0  0  0  0  0  0  0  0  0  0  0  0
  185.6220  173.5790  135.7070 C   0  0  0  0  0  3  0  0  0  0  0  0
  184.1890  177.7800  136.7640 C   0  0  0  0  0  2  0  0  0  0  0  0
  183.4680  175.7550  135.4630 C   0  0  0  0  0  2  0  0  0  0  0  0
  187.4890  177.8700  138.5450 C   0  0  1  0  0  3  0  0  0  0  0  0
  189.3880  177.7420  137.0710 C   0  0  0  0  0  3  0  0  0  0  0  0
  185.1990  177.7960  137.8160 N   0  0  0  0  0  0  0  0  0  0  0  0
  181.8220  177.0300  136.9320 C   0  0  2  0  0  3  0  0  0  0  0  0
  181.4880  176.2020  139.1220 C   0  0  0  0  0  2  0  0  0  0  0  0
  187.7200  173.3590  136.8860 C   0  0  0  0  0  3  0  0  0  0  0  0
  183.2860  176.5250  136.7800 C   0  0  2  0  0  0  0  0  0  0  0  0
  186.5860  172.7760  136.3240 C   0  0  0  0  0  3  0  0  0  0  0  0
  181.0160  176.1230  137.7430 N   0  0  0  0  0  2  0  0  0  0  0  0
  186.9370  175.5630  136.2020 C   0  0  0  0  0  0  0  0  0  0  0  0
  183.6330  175.5470  137.9310 C   0  0  0  0  0  2  0  0  0  0  0  0
  184.8270  175.7690  135.0320 O   0  0  0  0  0  0  0  0  0  0  0  0
  185.7950  174.9680  135.6400 C   0  0  0  0  0  0  0  0  0  0  0  0
  182.9900  175.9580  139.2550 C   0  0  0  0  0  2  0  0  0  0  0  0
  187.8880  174.7440  136.8350 C   0  0  0  0  0  3  0  0  0  0  0  0
  181.0980  177.3620  135.6280 C   0  0  1  0  0  3  0  0  0  0  0  0
  179.7360  177.6210  135.9020 O   0  0  0  0  0  0  0  0  0  0  0  0
  180.5180  178.7380  135.5440 C   0  0  1  0  0  3  0  0  0  0  0  0
  180.7750  179.5490  136.7240 N   0  0  0  0  0  2  0  0  0  0  0  0
  181.5080  182.0680  138.2210 C   0  0  0  0  0  1  0  0  0  0  0  0
  179.0460  183.6830  137.7820 C   0  0  0  0  0  1  0  0  0  0  0  0
  179.3590  183.8220  134.6000 C   0  0  0  0  0  1  0  0  0  0  0  0
  179.1360  182.7380  135.6420 C   0  0  2  0  0  3  0  0  0  0  0  0
  179.9390  183.0280  136.8310 N   0  0  0  0  0  0  0  0  0  0  0  0
  179.6040  181.1400  134.9440 S   0  0  0  0  0  0  0  0  0  0  0  0
  180.3290  181.8010  137.4000 N   0  0  0  0  0  0  0  0  0  0  0  0
  180.7670  180.9450  136.3030 C   0  0  1  0  0  3  0  0  0  0  0  0
  187.0280  178.2240  139.9220 C   0  0  0  0  0  2  0  0  0  0  0  0
  188.1970  178.3970  140.8520 C   0  0  0  0  0  2  0  0  0  0  0  0
  188.3030  177.2840  141.6900 O   0  0  0  0  0  0  0  0  0  0  0  0
  188.4390  177.8090  142.9790 C   0  0  1  0  0  3  0  0  0  0  0  0
  187.1460  177.7480  143.6680 C   0  0  0  0  0  0  0  0  0  0  0  0
  186.0850  177.6980  144.2350 C   0  0  0  0  0  3  0  0  0  0  0  0
  189.4970  177.0860  143.7850 C   0  0  0  0  0  0  0  0  0  0  0  0
  189.7910  175.9430  143.4660 O   0  0  0  0  0  0  0  0  0  0  0  0
  189.5580  177.2970  146.2740 C   0  0  0  0  0  2  0  0  0  0  0  0
  191.5860  177.1570  145.1390 C   0  0  0  0  0  2  0  0  0  0  0  0
  190.1950  177.6800  144.9790 C   0  0  1  0  0  3  0  0  0  0  0  0
  191.8020  176.9760  146.5120 O   0  0  0  0  0  0  0  0  0  0  0  0
  190.5970  176.6290  147.0430 N   0  0  0  0  0  2  0  0  0  0  0  0
  1 10  1  0  0  0  0
  2  1  2  0  0  0  0
  3 11  2  0  0  0  0
  3  9  1  0  0  0  0
  4  1  1  1  0  0  0
  4  3  1  0  0  0  0
  5  9  1  0  0  0  0
  6 16  1  0  0  0  0
  7 15  1  0  0  0  0
  7 11  1  0  0  0  0
  9 36  1  6  0  0  0
 10  5  2  0  0  0  0
 12 17  1  6  0  0  0
 13 22  1  0  0  0  0
 15  8  1  6  0  0  0
 15 12  1  0  0  0  0
 15 19  1  0  0  0  0
 16 14  2  0  0  0  0
 17 13  1  0  0  0  0
 18  4  1  0  0  0  0
 18 23  2  0  0  0  0
 19 22  1  0  0  0  0
 20  8  1  0  0  0  0
 20 21  1  0  0  0  0
 21  6  2  0  0  0  0
 21 18  1  0  0  0  0
 23 14  1  0  0  0  0
 24 25  1  1  0  0  0
 24 12  1  0  0  0  0
 26 24  1  0  0  0  0
 26 25  1  0  0  0  0
 26 27  1  1  0  0  0
 31 30  1  6  0  0  0
 31 32  1  0  0  0  0
 32 34  1  0  0  0  0
 32 29  1  0  0  0  0
 33 31  1  0  0  0  0
 33 35  1  0  0  0  0
 34 28  1  0  0  0  0
 35 27  1  1  0  0  0
 35 34  1  0  0  0  0
 36 37  1  0  0  0  0
 37 38  1  0  0  0  0
 38 39  1  0  0  0  0
 39 40  1  1  0  0  0
 39 42  1  0  0  0  0
 40 41  3  0  0  0  0
 43 42  2  0  0  0  0
 44 48  1  0  0  0  0
 45 47  1  0  0  0  0
 46 42  1  6  0  0  0
 46 45  1  0  0  0  0
 46 44  1  0  0  0  0
 47 48  1  0  0  0  0
M  END
>  <MODEL>
1

>  <REMARK>
 VINA RESULT:      -7.3      0.000      0.000
  Name = 
  10 active torsions:
  status: ('A' for Active; 'I' for Inactive)
    1  A    between atoms: C_3  and  C_42
    2  A    between atoms: C_5  and  C_9
    3  A    between atoms: C_5  and  C_42
    4  A    between atoms: N_6  and  C_44
    5  A    between atoms: N_6  and  C_45
    6  A    between atoms: C_21  and  C_48
    7  A    between atoms: C_22  and  C_25
    8  A    between atoms: C_31  and  O_38
    9  A    between atoms: C_31  and  C_48
   10  A    between atoms: O_38  and  C_42
                            x       y       z     vdW  Elec       q    Type
                         _______ _______ _______ _____ _____    ______ ____

>  <TORSDO>
F 10

$$$$
=
 OpenBabel10222420083D

 48 54  0  0  1  0  0  0  0  0999 V2000
  188.5030  177.4800  135.9330 C   0  0  0  0  0  0  0  0  0  0  0  0
  188.9150  177.5530  134.7480 O   0  0  0  0  0  0  0  0  0  0  0  0
  186.6250  177.6110  137.5690 C   0  0  0  0  0  0  0  0  0  0  0  0
  187.0870  177.0680  136.2290 C   0  0  2  0  0  3  0  0  0  0  0  0
  188.9350  177.8750  138.2550 N   0  0  0  0  0  0  0  0  0  0  0  0
  185.6140  173.5850  135.7180 C   0  0  0  0  0  3  0  0  0  0  0  0
  184.2110  177.7940  136.7820 C   0  0  0  0  0  2  0  0  0  0  0  0
  183.4710  175.7730  135.4880 C   0  0  0  0  0  2  0  0  0  0  0  0
  187.5240  177.8670  138.5420 C   0  0  1  0  0  3  0  0  0  0  0  0
  189.4120  177.7270  137.0550 C   0  0  0  0  0  3  0  0  0  0  0  0
  185.2290  177.8050  137.8280 N   0  0  0  0  0  0  0  0  0  0  0  0
  181.8410  177.0580  136.9680 C   0  0  2  0  0  3  0  0  0  0  0  0
  181.5180  176.2330  139.1600 C   0  0  0  0  0  2  0  0  0  0  0  0
  187.7180  173.3540  136.8840 C   0  0  0  0  0  3  0  0  0  0  0  0
  183.3020  176.5450  136.8060 C   0  0  2  0  0  0  0  0  0  0  0  0
  186.5770  172.7770  136.3300 C   0  0  0  0  0  3  0  0  0  0  0  0
  181.0360  176.1560  137.7850 N   0  0  0  0  0  2  0  0  0  0  0  0
  186.9430  175.5620  136.2040 C   0  0  0  0  0  0  0  0  0  0  0  0
  183.6510  175.5660  137.9560 C   0  0  0  0  0  2  0  0  0  0  0  0
  184.8260  175.7780  135.0480 O   0  0  0  0  0  0  0  0  0  0  0  0
  185.7940  174.9730  135.6490 C   0  0  0  0  0  0  0  0  0  0  0  0
  183.0190  175.9800  139.2830 C   0  0  0  0  0  2  0  0  0  0  0  0
  187.8940  174.7380  136.8310 C   0  0  0  0  0  3  0  0  0  0  0  0
  181.1110  177.3920  135.6680 C   0  0  1  0  0  3  0  0  0  0  0  0
  179.7210  177.4580  135.9170 O   0  0  0  0  0  0  0  0  0  0  0  0
  180.3610  178.6880  135.6640 C   0  0  1  0  0  3  0  0  0  0  0  0
  180.4870  179.4340  136.9070 N   0  0  0  0  0  2  0  0  0  0  0  0
  181.5560  181.7010  138.5910 C   0  0  0  0  0  1  0  0  0  0  0  0
  179.5400  183.8070  137.9890 C   0  0  0  0  0  1  0  0  0  0  0  0
  180.2160  183.9650  134.8640 C   0  0  0  0  0  1  0  0  0  0  0  0
  179.6640  182.9230  135.8250 C   0  0  2  0  0  3  0  0  0  0  0  0
  180.3770  183.0060  137.1010 N   0  0  0  0  0  0  0  0  0  0  0  0
  179.8660  181.2820  135.1000 S   0  0  0  0  0  0  0  0  0  0  0  0
  180.4420  181.7100  137.6450 N   0  0  0  0  0  0  0  0  0  0  0  0
  180.8110  180.8120  136.5560 C   0  0  1  0  0  3  0  0  0  0  0  0
  187.0740  178.2250  139.9210 C   0  0  0  0  0  2  0  0  0  0  0  0
  188.1150  177.8480  140.9390 C   0  0  0  0  0  2  0  0  0  0  0  0
  187.7640  178.3680  142.1880 O   0  0  0  0  0  0  0  0  0  0  0  0
  187.7340  177.2650  143.0470 C   0  0  1  0  0  3  0  0  0  0  0  0
  188.9940  176.5220  142.9270 C   0  0  0  0  0  0  0  0  0  0  0  0
  190.0270  175.9130  142.8290 C   0  0  0  0  0  3  0  0  0  0  0  0
  187.4980  177.6650  144.4880 C   0  0  0  0  0  0  0  0  0  0  0  0
  188.4570  178.0170  145.1580 O   0  0  0  0  0  0  0  0  0  0  0  0
  186.2210  177.9360  146.6190 C   0  0  0  0  0  2  0  0  0  0  0  0
  185.2410  178.7030  144.6520 C   0  0  0  0  0  2  0  0  0  0  0  0
  186.1510  177.6320  145.1590 C   0  0  1  0  0  3  0  0  0  0  0  0
  184.5280  179.1940  145.7550 O   0  0  0  0  0  0  0  0  0  0  0  0
  185.3680  179.0980  146.8220 N   0  0  0  0  0  2  0  0  0  0  0  0
  1 10  1  0  0  0  0
  2  1  2  0  0  0  0
  3 11  2  0  0  0  0
  3  9  1  0  0  0  0
  4  1  1  1  0  0  0
  4  3  1  0  0  0  0
  5  9  1  0  0  0  0
  6 16  1  0  0  0  0
  7 15  1  0  0  0  0
  7 11  1  0  0  0  0
  9 36  1  6  0  0  0
 10  5  2  0  0  0  0
 12 17  1  6  0  0  0
 13 22  1  0  0  0  0
 15  8  1  6  0  0  0
 15 12  1  0  0  0  0
 15 19  1  0  0  0  0
 16 14  2  0  0  0  0
 17 13  1  0  0  0  0
 18  4  1  0  0  0  0
 18 23  2  0  0  0  0
 19 22  1  0  0  0  0
 20  8  1  0  0  0  0
 20 21  1  0  0  0  0
 21  6  2  0  0  0  0
 21 18  1  0  0  0  0
 23 14  1  0  0  0  0
 24 25  1  1  0  0  0
 24 12  1  0  0  0  0
 26 24  1  0  0  0  0
 26 25  1  0  0  0  0
 26 27  1  1  0  0  0
 31 30  1  6  0  0  0
 31 32  1  0  0  0  0
 32 34  1  0  0  0  0
 32 29  1  0  0  0  0
 33 31  1  0  0  0  0
 33 35  1  0  0  0  0
 34 28  1  0  0  0  0
 35 27  1  1  0  0  0
 35 34  1  0  0  0  0
 36 37  1  0  0  0  0
 37 38  1  0  0  0  0
 38 39  1  0  0  0  0
 39 40  1  1  0  0  0
 39 42  1  0  0  0  0
 41 40  3  0  0  0  0
 42 43  2  0  0  0  0
 44 48  1  0  0  0  0
 45 46  1  0  0  0  0
 45 47  1  0  0  0  0
 46 42  1  6  0  0  0
 46 44  1  0  0  0  0
 47 48  1  0  0  0  0
M  END
>  <MODEL>
2

>  <REMARK>
 VINA RESULT:      -7.3      1.410      2.082
  Name = 
  10 active torsions:
  status: ('A' for Active; 'I' for Inactive)
    1  A    between atoms: C_3  and  C_42
    2  A    between atoms: C_5  and  C_9
    3  A    between atoms: C_5  and  C_42
    4  A    between atoms: N_6  and  C_44
    5  A    between atoms: N_6  and  C_45
    6  A    between atoms: C_21  and  C_48
    7  A    between atoms: C_22  and  C_25
    8  A    between atoms: C_31  and  O_38
    9  A    between atoms: C_31  and  C_48
   10  A    between atoms: O_38  and  C_42
                            x       y       z     vdW  Elec       q    Type
                         _______ _______ _______ _____ _____    ______ ____

>  <TORSDO>
F 10

$$$$
=
 OpenBabel10222420083D

 48 54  0  0  1  0  0  0  0  0999 V2000
  180.1410  178.3700  142.3650 C   0  0  0  0  0  0  0  0  0  0  0  0
  178.9580  177.9720  142.5110 O   0  0  0  0  0  0  0  0  0  0  0  0
  182.3880  178.0980  141.3190 C   0  0  0  0  0  0  0  0  0  0  0  0
  180.8880  178.1040  141.0880 C   0  0  2  0  0  3  0  0  0  0  0  0
  182.0750  179.3750  143.3550 N   0  0  0  0  0  0  0  0  0  0  0  0
  180.1550  179.6820  137.6910 C   0  0  0  0  0  3  0  0  0  0  0  0
  182.7740  176.3950  139.4660 C   0  0  0  0  0  2  0  0  0  0  0  0
  181.4350  176.9040  137.4040 C   0  0  0  0  0  2  0  0  0  0  0  0
  182.9190  178.8100  142.3340 C   0  0  1  0  0  3  0  0  0  0  0  0
  180.7940  179.1630  143.4090 C   0  0  0  0  0  3  0  0  0  0  0  0
  183.2540  177.3800  140.4310 N   0  0  0  0  0  0  0  0  0  0  0  0
  183.7440  175.8380  137.2430 C   0  0  2  0  0  3  0  0  0  0  0  0
  185.5660  177.2990  136.8720 C   0  0  0  0  0  2  0  0  0  0  0  0
  180.2150  181.4410  139.3470 C   0  0  0  0  0  3  0  0  0  0  0  0
  182.8520  176.8670  137.9970 C   0  0  2  0  0  0  0  0  0  0  0  0
  180.0660  181.0370  138.0210 C   0  0  0  0  0  3  0  0  0  0  0  0
  184.5570  176.4760  136.2130 N   0  0  0  0  0  2  0  0  0  0  0  0
  180.5320  179.1220  140.0270 C   0  0  0  0  0  0  0  0  0  0  0  0
  183.4440  178.2920  137.8510 C   0  0  0  0  0  2  0  0  0  0  0  0
  180.4810  177.3720  138.3550 O   0  0  0  0  0  0  0  0  0  0  0  0
  180.3830  178.7230  138.6880 C   0  0  0  0  0  0  0  0  0  0  0  0
  184.9720  178.2890  137.8710 C   0  0  0  0  0  2  0  0  0  0  0  0
  180.4580  180.4900  140.3410 C   0  0  0  0  0  3  0  0  0  0  0  0
  183.0140  174.6260  136.6690 C   0  0  1  0  0  3  0  0  0  0  0  0
  183.6770  174.1910  135.5000 O   0  0  0  0  0  0  0  0  0  0  0  0
  183.8040  173.3560  136.6280 C   0  0  1  0  0  3  0  0  0  0  0  0
  185.1420  173.4880  137.1820 N   0  0  0  0  0  2  0  0  0  0  0  0
  185.3750  171.1160  135.3250 C   0  0  0  0  0  1  0  0  0  0  0  0
  188.2330  170.3940  135.7420 C   0  0  0  0  0  1  0  0  0  0  0  0
  189.3930  173.1560  134.6130 C   0  0  0  0  0  1  0  0  0  0  0  0
  188.5300  172.7160  135.7860 C   0  0  2  0  0  3  0  0  0  0  0  0
  187.6150  171.6580  135.3520 N   0  0  0  0  0  0  0  0  0  0  0  0
  187.6000  174.1350  136.4030 S   0  0  0  0  0  0  0  0  0  0  0  0
  186.4240  171.7870  136.0910 N   0  0  0  0  0  0  0  0  0  0  0  0
  186.0880  173.2060  136.1080 C   0  0  1  0  0  3  0  0  0  0  0  0
  184.4000  178.9640  142.4650 C   0  0  0  0  0  2  0  0  0  0  0  0
  184.9780  177.8770  143.3290 C   0  0  0  0  0  2  0  0  0  0  0  0
  185.9950  178.4030  144.1300 O   0  0  0  0  0  0  0  0  0  0  0  0
  187.0690  177.5200  143.9820 C   0  0  1  0  0  3  0  0  0  0  0  0
  187.6790  177.7130  142.6620 C   0  0  0  0  0  0  0  0  0  0  0  0
  188.1780  177.8710  141.5780 C   0  0  0  0  0  3  0  0  0  0  0  0
  188.1090  177.6930  145.0690 C   0  0  0  0  0  0  0  0  0  0  0  0
  189.1750  178.2140  144.7760 O   0  0  0  0  0  0  0  0  0  0  0  0
  189.2120  177.0850  147.2280 C   0  0  0  0  0  2  0  0  0  0  0  0
  187.1970  178.2480  147.3180 C   0  0  0  0  0  2  0  0  0  0  0  0
  187.9220  177.2370  146.4910 C   0  0  1  0  0  3  0  0  0  0  0  0
  187.8010  178.2550  148.5830 O   0  0  0  0  0  0  0  0  0  0  0  0
  189.1170  177.9730  148.3760 N   0  0  0  0  0  2  0  0  0  0  0  0
  1  2  2  0  0  0  0
  1 10  1  0  0  0  0
  3  9  1  0  0  0  0
  4 18  1  6  0  0  0
  4  3  1  0  0  0  0
  4  1  1  0  0  0  0
  5 10  2  0  0  0  0
  6 16  2  0  0  0  0
  6 21  1  0  0  0  0
  7 11  1  0  0  0  0
  8 20  1  0  0  0  0
  9 36  1  1  0  0  0
  9  5  1  0  0  0  0
 11  3  2  0  0  0  0
 12 17  1  6  0  0  0
 12 15  1  0  0  0  0
 13 22  1  0  0  0  0
 14 23  2  0  0  0  0
 15  8  1  6  0  0  0
 15  7  1  0  0  0  0
 16 14  1  0  0  0  0
 17 13  1  0  0  0  0
 18 23  1  0  0  0  0
 19 22  1  0  0  0  0
 19 15  1  0  0  0  0
 20 21  1  0  0  0  0
 21 18  2  0  0  0  0
 24 25  1  6  0  0  0
 24 12  1  0  0  0  0
 25 26  1  0  0  0  0
 26 24  1  0  0  0  0
 26 27  1  1  0  0  0
 28 34  1  0  0  0  0
 31 30  1  6  0  0  0
 31 33  1  0  0  0  0
 32 29  1  0  0  0  0
 32 31  1  0  0  0  0
 32 34  1  0  0  0  0
 34 35  1  0  0  0  0
 35 33  1  0  0  0  0
 35 27  1  1  0  0  0
 36 37  1  0  0  0  0
 37 38  1  0  0  0  0
 39 40  1  6  0  0  0
 39 38  1  0  0  0  0
 39 42  1  0  0  0  0
 41 40  3  0  0  0  0
 43 42  2  0  0  0  0
 44 48  1  0  0  0  0
 45 47  1  0  0  0  0
 46 42  1  6  0  0  0
 46 44  1  0  0  0  0
 46 45  1  0  0  0  0
 48 47  1  0  0  0  0
M  END
>  <MODEL>
3

>  <REMARK>
 VINA RESULT:      -6.6      3.427      7.729
  Name = 
  10 active torsions:
  status: ('A' for Active; 'I' for Inactive)
    1  A    between atoms: C_3  and  C_42
    2  A    between atoms: C_5  and  C_9
    3  A    between atoms: C_5  and  C_42
    4  A    between atoms: N_6  and  C_44
    5  A    between atoms: N_6  and  C_45
    6  A    between atoms: C_21  and  C_48
    7  A    between atoms: C_22  and  C_25
    8  A    between atoms: C_31  and  O_38
    9  A    between atoms: C_31  and  C_48
   10  A    between atoms: O_38  and  C_42
                            x       y       z     vdW  Elec       q    Type
                         _______ _______ _______ _____ _____    ______ ____

>  <TORSDO>
F 10

$$$$
=
 OpenBabel10222420083D

 48 54  0  0  1  0  0  0  0  0999 V2000
  188.3490  178.5410  137.0990 C   0  0  0  0  0  0  0  0  0  0  0  0
  188.8910  178.8830  136.0190 O   0  0  0  0  0  0  0  0  0  0  0  0
  186.2830  178.1880  138.4520 C   0  0  0  0  0  0  0  0  0  0  0  0
  186.9610  177.9620  137.1130 C   0  0  2  0  0  3  0  0  0  0  0  0
  188.4510  178.5000  139.4920 N   0  0  0  0  0  0  0  0  0  0  0  0
  185.9470  174.5410  135.7600 C   0  0  0  0  0  3  0  0  0  0  0  0
  183.9770  178.3230  137.3830 C   0  0  0  0  0  2  0  0  0  0  0  0
  183.6230  176.5460  135.6440 C   0  0  0  0  0  2  0  0  0  0  0  0
  187.0250  178.3190  139.5710 C   0  0  1  0  0  3  0  0  0  0  0  0
  189.0830  178.6340  138.3640 C   0  0  0  0  0  3  0  0  0  0  0  0
  184.8530  178.2100  138.5440 N   0  0  0  0  0  0  0  0  0  0  0  0
  181.6960  177.3710  137.0940 C   0  0  2  0  0  3  0  0  0  0  0  0
  181.2010  176.1020  139.0270 C   0  0  0  0  0  2  0  0  0  0  0  0
  187.9060  174.2580  137.1450 C   0  0  0  0  0  3  0  0  0  0  0  0
  183.2120  177.0230  137.0460 C   0  0  2  0  0  0  0  0  0  0  0  0
  186.9100  173.7100  136.3390 C   0  0  0  0  0  3  0  0  0  0  0  0
  180.9000  176.2610  137.6080 N   0  0  0  0  0  2  0  0  0  0  0  0
  186.9850  176.4850  136.7870 C   0  0  0  0  0  0  0  0  0  0  0  0
  183.5240  175.8670  138.0300 C   0  0  0  0  0  2  0  0  0  0  0  0
  185.0130  176.7510  135.4070 O   0  0  0  0  0  0  0  0  0  0  0  0
  185.9820  175.9250  135.9770 C   0  0  0  0  0  0  0  0  0  0  0  0
  182.6940  175.9560  139.3100 C   0  0  0  0  0  2  0  0  0  0  0  0
  187.9370  175.6350  137.3760 C   0  0  0  0  0  3  0  0  0  0  0  0
  181.0970  177.8960  135.7910 C   0  0  1  0  0  3  0  0  0  0  0  0
  179.7130  178.1190  135.9690 O   0  0  0  0  0  0  0  0  0  0  0  0
  180.5140  179.2730  135.8560 C   0  0  1  0  0  3  0  0  0  0  0  0
  180.6510  179.8990  137.1620 N   0  0  0  0  0  2  0  0  0  0  0  0
  180.1790  181.8230  134.8830 C   0  0  0  0  0  1  0  0  0  0  0  0
  181.1360  184.3570  136.1200 C   0  0  0  0  0  1  0  0  0  0  0  0
  178.9320  184.3920  138.4410 C   0  0  0  0  0  1  0  0  0  0  0  0
  180.0920  183.4980  138.0310 C   0  0  2  0  0  3  0  0  0  0  0  0
  180.1380  183.3920  136.5720 N   0  0  0  0  0  0  0  0  0  0  0  0
  179.8740  181.8660  138.7720 S   0  0  0  0  0  0  0  0  0  0  0  0
  180.6200  182.1100  136.2470 N   0  0  0  0  0  0  0  0  0  0  0  0
  179.9280  181.1640  137.1170 C   0  0  1  0  0  3  0  0  0  0  0  0
  186.3750  178.3560  140.9160 C   0  0  0  0  0  2  0  0  0  0  0  0
  187.4040  178.4700  142.0070 C   0  0  0  0  0  2  0  0  0  0  0  0
  187.1830  177.4820  142.9700 O   0  0  0  0  0  0  0  0  0  0  0  0
  187.5360  178.0730  144.1870 C   0  0  1  0  0  3  0  0  0  0  0  0
  186.3360  178.2290  145.0170 C   0  0  0  0  0  0  0  0  0  0  0  0
  185.3520  178.3580  145.6980 C   0  0  0  0  0  3  0  0  0  0  0  0
  188.5870  177.2760  144.9310 C   0  0  0  0  0  0  0  0  0  0  0  0
  188.2590  176.6980  145.9570 O   0  0  0  0  0  0  0  0  0  0  0  0
  190.2180  176.2210  143.3590 C   0  0  0  0  0  2  0  0  0  0  0  0
  190.5400  178.4540  143.9340 C   0  0  0  0  0  2  0  0  0  0  0  0
  190.0240  177.1700  144.4960 C   0  0  1  0  0  3  0  0  0  0  0  0
  191.3570  178.1260  142.8430 O   0  0  0  0  0  0  0  0  0  0  0  0
  190.8200  177.0040  142.2910 N   0  0  0  0  0  2  0  0  0  0  0  0
  1  4  1  0  0  0  0
  1 10  1  0  0  0  0
  2  1  2  0  0  0  0
  3 11  2  0  0  0  0
  3  9  1  0  0  0  0
  4 18  1  1  0  0  0
  4  3  1  0  0  0  0
  5  9  1  0  0  0  0
  6 21  2  0  0  0  0
  6 16  1  0  0  0  0
  7 11  1  0  0  0  0
  9 36  1  6  0  0  0
 10  5  2  0  0  0  0
 12 17  1  6  0  0  0
 13 22  1  0  0  0  0
 14 23  1  0  0  0  0
 15  8  1  6  0  0  0
 15 12  1  0  0  0  0
 15  7  1  0  0  0  0
 15 19  1  0  0  0  0
 16 14  2  0  0  0  0
 17 13  1  0  0  0  0
 18 23  2  0  0  0  0
 19 22  1  0  0  0  0
 20  8  1  0  0  0  0
 20 21  1  0  0  0  0
 21 18  1  0  0  0  0
 24 26  1  0  0  0  0
 24 25  1  1  0  0  0
 24 12  1  0  0  0  0
 26 25  1  0  0  0  0
 26 27  1  1  0  0  0
 28 34  1  0  0  0  0
 29 32  1  0  0  0  0
 31 30  1  6  0  0  0
 31 33  1  0  0  0  0
 32 31  1  0  0  0  0
 34 32  1  0  0  0  0
 34 35  1  0  0  0  0
 35 27  1  1  0  0  0
 35 33  1  0  0  0  0
 36 37  1  0  0  0  0
 37 38  1  0  0  0  0
 38 39  1  0  0  0  0
 39 42  1  0  0  0  0
 39 40  1  1  0  0  0
 40 41  3  0  0  0  0
 42 43  2  0  0  0  0
 44 46  1  0  0  0  0
 45 46  1  0  0  0  0
 46 42  1  6  0  0  0
 47 45  1  0  0  0  0
 48 47  1  0  0  0  0
 48 44  1  0  0  0  0
M  END
>  <MODEL>
4

>  <REMARK>
 VINA RESULT:      -6.5      1.528      1.861
  Name = 
  10 active torsions:
  status: ('A' for Active; 'I' for Inactive)
    1  A    between atoms: C_3  and  C_42
    2  A    between atoms: C_5  and  C_9
    3  A    between atoms: C_5  and  C_42
    4  A    between atoms: N_6  and  C_44
    5  A    between atoms: N_6  and  C_45
    6  A    between atoms: C_21  and  C_48
    7  A    between atoms: C_22  and  C_25
    8  A    between atoms: C_31  and  O_38
    9  A    between atoms: C_31  and  C_48
   10  A    between atoms: O_38  and  C_42
                            x       y       z     vdW  Elec       q    Type
                         _______ _______ _______ _____ _____    ______ ____

>  <TORSDO>
F 10

$$$$
=
 OpenBabel10222420083D

 48 54  0  0  1  0  0  0  0  0999 V2000
  180.1110  177.6730  141.0490 C   0  0  0  0  0  0  0  0  0  0  0  0
  178.9330  177.2350  141.0570 O   0  0  0  0  0  0  0  0  0  0  0  0
  182.4640  177.5020  140.2400 C   0  0  0  0  0  0  0  0  0  0  0  0
  180.9970  177.4700  139.8510 C   0  0  2  0  0  3  0  0  0  0  0  0
  181.8960  178.7040  142.2680 N   0  0  0  0  0  0  0  0  0  0  0  0
  180.5730  179.1330  136.4430 C   0  0  0  0  0  3  0  0  0  0  0  0
  183.0990  175.8720  138.3920 C   0  0  0  0  0  2  0  0  0  0  0  0
  181.9680  176.4060  136.2140 C   0  0  0  0  0  2  0  0  0  0  0  0
  182.8600  178.1970  141.3260 C   0  0  1  0  0  3  0  0  0  0  0  0
  180.6230  178.4520  142.1790 C   0  0  0  0  0  3  0  0  0  0  0  0
  183.4420  176.8390  139.4290 N   0  0  0  0  0  0  0  0  0  0  0  0
  184.3160  175.4160  136.2690 C   0  0  2  0  0  3  0  0  0  0  0  0
  186.1180  176.9420  136.1360 C   0  0  0  0  0  2  0  0  0  0  0  0
  180.4010  180.8390  138.1450 C   0  0  0  0  0  3  0  0  0  0  0  0
  183.3160  176.3920  136.9530 C   0  0  2  0  0  0  0  0  0  0  0  0
  180.4050  180.4740  136.8000 C   0  0  0  0  0  3  0  0  0  0  0  0
  185.2110  176.1100  135.3500 N   0  0  0  0  0  2  0  0  0  0  0  0
  180.7210  178.5110  138.7880 C   0  0  0  0  0  0  0  0  0  0  0  0
  183.8720  177.8380  136.9120 C   0  0  0  0  0  2  0  0  0  0  0  0
  180.9050  176.8140  137.0710 O   0  0  0  0  0  0  0  0  0  0  0  0
  180.7270  178.1510  137.4300 C   0  0  0  0  0  0  0  0  0  0  0  0
  185.3890  177.8810  137.0940 C   0  0  0  0  0  2  0  0  0  0  0  0
  180.5680  179.8650  139.1310 C   0  0  0  0  0  3  0  0  0  0  0  0
  183.6910  174.2010  135.5860 C   0  0  1  0  0  3  0  0  0  0  0  0
  184.6950  173.4820  134.8990 O   0  0  0  0  0  0  0  0  0  0  0  0
  184.1830  172.8690  136.0600 C   0  0  1  0  0  3  0  0  0  0  0  0
  185.1630  172.9610  137.1310 N   0  0  0  0  0  2  0  0  0  0  0  0
  188.1520  173.3210  137.3710 C   0  0  0  0  0  1  0  0  0  0  0  0
  188.9920  172.6530  134.5940 C   0  0  0  0  0  1  0  0  0  0  0  0
  187.9480  169.6290  134.7000 C   0  0  0  0  0  1  0  0  0  0  0  0
  187.3290  171.0150  134.7760 C   0  0  2  0  0  3  0  0  0  0  0  0
  188.1970  171.8980  135.5580 N   0  0  0  0  0  0  0  0  0  0  0  0
  185.7000  170.8950  135.5460 S   0  0  0  0  0  0  0  0  0  0  0  0
  187.3780  172.8190  136.2370 N   0  0  0  0  0  0  0  0  0  0  0  0
  186.2610  172.0630  136.7940 C   0  0  1  0  0  3  0  0  0  0  0  0
  184.3130  178.3920  141.6180 C   0  0  0  0  0  2  0  0  0  0  0  0
  184.6190  178.0690  143.0550 C   0  0  0  0  0  2  0  0  0  0  0  0
  186.0020  177.9710  143.2320 O   0  0  0  0  0  0  0  0  0  0  0  0
  186.2670  178.6510  144.4250 C   0  0  1  0  0  3  0  0  0  0  0  0
  185.0390  178.7230  145.2260 C   0  0  0  0  0  0  0  0  0  0  0  0
  184.0320  178.7810  145.8820 C   0  0  0  0  0  3  0  0  0  0  0  0
  187.3750  177.9990  145.2240 C   0  0  0  0  0  0  0  0  0  0  0  0
  187.3690  178.1290  146.4400 O   0  0  0  0  0  0  0  0  0  0  0  0
  189.1460  177.9280  143.4620 C   0  0  0  0  0  2  0  0  0  0  0  0
  189.6490  177.0420  145.5550 C   0  0  0  0  0  2  0  0  0  0  0  0
  188.5060  177.2180  144.6100 C   0  0  1  0  0  3  0  0  0  0  0  0
  190.8270  177.1800  144.8070 O   0  0  0  0  0  0  0  0  0  0  0  0
  190.5470  178.0780  143.8230 N   0  0  0  0  0  2  0  0  0  0  0  0
  1  2  2  0  0  0  0
  1 10  1  0  0  0  0
  3  9  1  0  0  0  0
  4 18  1  6  0  0  0
  4  3  1  0  0  0  0
  4  1  1  0  0  0  0
  6 16  2  0  0  0  0
  6 21  1  0  0  0  0
  7 11  1  0  0  0  0
  8 20  1  0  0  0  0
  9 36  1  1  0  0  0
  9  5  1  0  0  0  0
 10  5  2  0  0  0  0
 11  3  2  0  0  0  0
 12 17  1  6  0  0  0
 12 15  1  0  0  0  0
 13 22  1  0  0  0  0
 14 23  2  0  0  0  0
 15  8  1  6  0  0  0
 15  7  1  0  0  0  0
 16 14  1  0  0  0  0
 17 13  1  0  0  0  0
 18 23  1  0  0  0  0
 19 15  1  0  0  0  0
 19 22  1  0  0  0  0
 20 21  1  0  0  0  0
 21 18  2  0  0  0  0
 24 25  1  6  0  0  0
 24 26  1  0  0  0  0
 24 12  1  0  0  0  0
 25 26  1  0  0  0  0
 26 27  1  1  0  0  0
 29 32  1  0  0  0  0
 31 30  1  1  0  0  0
 31 33  1  0  0  0  0
 31 32  1  0  0  0  0
 32 34  1  0  0  0  0
 33 35  1  0  0  0  0
 34 35  1  0  0  0  0
 34 28  1  0  0  0  0
 35 27  1  6  0  0  0
 36 37  1  0  0  0  0
 37 38  1  0  0  0  0
 38 39  1  0  0  0  0
 39 42  1  0  0  0  0
 39 40  1  1  0  0  0
 40 41  3  0  0  0  0
 42 43  2  0  0  0  0
 44 48  1  0  0  0  0
 44 46  1  0  0  0  0
 46 42  1  1  0  0  0
 46 45  1  0  0  0  0
 47 45  1  0  0  0  0
 48 47  1  0  0  0  0
M  END
>  <MODEL>
5

>  <REMARK>
 VINA RESULT:      -5.2      3.211      7.601
  Name = 
  10 active torsions:
  status: ('A' for Active; 'I' for Inactive)
    1  A    between atoms: C_3  and  C_42
    2  A    between atoms: C_5  and  C_9
    3  A    between atoms: C_5  and  C_42
    4  A    between atoms: N_6  and  C_44
    5  A    between atoms: N_6  and  C_45
    6  A    between atoms: C_21  and  C_48
    7  A    between atoms: C_22  and  C_25
    8  A    between atoms: C_31  and  O_38
    9  A    between atoms: C_31  and  C_48
   10  A    between atoms: O_38  and  C_42
                            x       y       z     vdW  Elec       q    Type
                         _______ _______ _______ _____ _____    ______ ____

>  <TORSDO>
F 10

$$$$
=
 OpenBabel10222420083D

 48 54  0  0  1  0  0  0  0  0999 V2000
  180.1580  178.1050  140.6910 C   0  0  0  0  0  0  0  0  0  0  0  0
  178.9320  177.8830  140.5290 O   0  0  0  0  0  0  0  0  0  0  0  0
  182.5220  177.7320  139.9900 C   0  0  0  0  0  0  0  0  0  0  0  0
  181.1100  178.0420  139.5290 C   0  0  2  0  0  3  0  0  0  0  0  0
  181.9590  178.5010  142.2190 N   0  0  0  0  0  0  0  0  0  0  0  0
  181.2590  180.5070  136.6200 C   0  0  0  0  0  3  0  0  0  0  0  0
  183.0700  176.4980  137.8320 C   0  0  0  0  0  2  0  0  0  0  0  0
  182.2390  177.7140  135.7980 C   0  0  0  0  0  2  0  0  0  0  0  0
  182.9180  178.0740  141.2330 C   0  0  1  0  0  3  0  0  0  0  0  0
  180.6770  178.4970  142.0040 C   0  0  0  0  0  3  0  0  0  0  0  0
  183.4580  177.1220  139.0930 N   0  0  0  0  0  0  0  0  0  0  0  0
  184.3930  176.3550  135.7290 C   0  0  2  0  0  3  0  0  0  0  0  0
  186.4100  177.5410  136.0720 C   0  0  0  0  0  2  0  0  0  0  0  0
  181.1920  181.7690  138.6800 C   0  0  0  0  0  3  0  0  0  0  0  0
  183.4940  177.2990  136.5800 C   0  0  2  0  0  0  0  0  0  0  0  0
  181.2640  181.7350  137.2880 C   0  0  0  0  0  3  0  0  0  0  0  0
  185.4650  177.0840  135.0580 N   0  0  0  0  0  2  0  0  0  0  0  0
  181.0940  179.3350  138.7430 C   0  0  0  0  0  0  0  0  0  0  0  0
  184.2660  178.5970  136.9270 C   0  0  0  0  0  2  0  0  0  0  0  0
  181.1760  178.0840  136.6720 O   0  0  0  0  0  0  0  0  0  0  0  0
  181.1700  179.3080  137.3410 C   0  0  0  0  0  0  0  0  0  0  0  0
  185.7480  178.3380  137.1930 C   0  0  0  0  0  2  0  0  0  0  0  0
  181.1180  180.5760  139.4020 C   0  0  0  0  0  3  0  0  0  0  0  0
  183.6570  175.4590  134.7350 C   0  0  1  0  0  3  0  0  0  0  0  0
  184.3420  174.2290  134.6170 O   0  0  0  0  0  0  0  0  0  0  0  0
  183.1080  174.1850  135.2970 C   0  0  1  0  0  3  0  0  0  0  0  0
  183.3440  174.0320  136.7240 N   0  0  0  0  0  2  0  0  0  0  0  0
  183.3060  171.0140  136.8490 C   0  0  0  0  0  1  0  0  0  0  0  0
  180.7000  170.4600  135.5220 C   0  0  0  0  0  1  0  0  0  0  0  0
  178.9310  171.9610  137.7280 C   0  0  0  0  0  1  0  0  0  0  0  0
  180.0000  172.3470  136.7180 C   0  0  2  0  0  3  0  0  0  0  0  0
  181.0260  171.3050  136.6670 N   0  0  0  0  0  0  0  0  0  0  0  0
  180.7310  173.9250  137.2030 S   0  0  0  0  0  0  0  0  0  0  0  0
  182.2590  171.9250  136.3900 N   0  0  0  0  0  0  0  0  0  0  0  0
  182.3360  173.1110  137.2360 C   0  0  1  0  0  3  0  0  0  0  0  0
  184.3500  177.9450  141.6400 C   0  0  0  0  0  2  0  0  0  0  0  0
  184.5220  178.2470  143.1040 C   0  0  0  0  0  2  0  0  0  0  0  0
  185.5020  179.2280  143.2710 O   0  0  0  0  0  0  0  0  0  0  0  0
  186.2250  178.8330  144.4010 C   0  0  1  0  0  3  0  0  0  0  0  0
  185.3040  178.6520  145.5290 C   0  0  0  0  0  0  0  0  0  0  0  0
  184.5490  178.5050  146.4540 C   0  0  0  0  0  3  0  0  0  0  0  0
  187.0160  177.5630  144.1620 C   0  0  0  0  0  0  0  0  0  0  0  0
  187.0680  176.7340  145.0580 O   0  0  0  0  0  0  0  0  0  0  0  0
  188.7420  178.3400  142.5310 C   0  0  0  0  0  2  0  0  0  0  0  0
  188.6430  176.0660  143.0190 C   0  0  0  0  0  2  0  0  0  0  0  0
  187.7660  177.2680  142.8910 C   0  0  1  0  0  3  0  0  0  0  0  0
  189.8320  176.3480  142.3310 O   0  0  0  0  0  0  0  0  0  0  0  0
  190.0410  177.6860  142.4690 N   0  0  0  0  0  2  0  0  0  0  0  0
  1 10  1  0  0  0  0
  2  1  2  0  0  0  0
  3  9  1  0  0  0  0
  4 18  1  1  0  0  0
  4  3  1  0  0  0  0
  4  1  1  0  0  0  0
  6 16  2  0  0  0  0
  6 21  1  0  0  0  0
  7 11  1  0  0  0  0
  8 20  1  0  0  0  0
  9 36  1  1  0  0  0
  9  5  1  0  0  0  0
 10  5  2  0  0  0  0
 11  3  2  0  0  0  0
 12 17  1  6  0  0  0
 12 15  1  0  0  0  0
 13 22  1  0  0  0  0
 14 23  2  0  0  0  0
 15  8  1  6  0  0  0
 15 19  1  0  0  0  0
 15  7  1  0  0  0  0
 16 14  1  0  0  0  0
 17 13  1  0  0  0  0
 18 23  1  0  0  0  0
 19 22  1  0  0  0  0
 20 21  1  0  0  0  0
 21 18  2  0  0  0  0
 24 25  1  6  0  0  0
 24 26  1  0  0  0  0
 24 12  1  0  0  0  0
 25 26  1  0  0  0  0
 26 27  1  1  0  0  0
 29 32  1  0  0  0  0
 31 33  1  0  0  0  0
 31 30  1  1  0  0  0
 32 31  1  0  0  0  0
 33 35  1  0  0  0  0
 34 32  1  0  0  0  0
 34 28  1  0  0  0  0
 34 35  1  0  0  0  0
 35 27  1  6  0  0  0
 36 37  1  0  0  0  0
 37 38  1  0  0  0  0
 38 39  1  0  0  0  0
 39 40  1  1  0  0  0
 40 41  3  0  0  0  0
 42 39  1  0  0  0  0
 42 43  2  0  0  0  0
 44 46  1  0  0  0  0
 46 45  1  0  0  0  0
 46 42  1  1  0  0  0
 47 48  1  0  0  0  0
 47 45  1  0  0  0  0
 48 44  1  0  0  0  0
M  END
>  <MODEL>
6

>  <REMARK>
 VINA RESULT:      -4.5      3.112      6.946
  Name = 
  10 active torsions:
  status: ('A' for Active; 'I' for Inactive)
    1  A    between atoms: C_3  and  C_42
    2  A    between atoms: C_5  and  C_9
    3  A    between atoms: C_5  and  C_42
    4  A    between atoms: N_6  and  C_44
    5  A    between atoms: N_6  and  C_45
    6  A    between atoms: C_21  and  C_48
    7  A    between atoms: C_22  and  C_25
    8  A    between atoms: C_31  and  O_38
    9  A    between atoms: C_31  and  C_48
   10  A    between atoms: O_38  and  C_42
                            x       y       z     vdW  Elec       q    Type
                         _______ _______ _______ _____ _____    ______ ____

>  <TORSDO>
F 10

$$$$
