=
 OpenBabel10222417093D

 25 28  0  0  1  0  0  0  0  0999 V2000
  186.4700  177.9020  146.7660 C   0  0  0  0  0  3  0  0  0  0  0  0
  183.6600  178.6310  142.1810 C   0  0  0  0  0  0  0  0  0  0  0  0
  187.1400  177.4010  145.7420 C   0  0  0  0  0  3  0  0  0  0  0  0
  182.6610  178.7290  141.2900 N   0  0  0  0  0  0  0  0  0  0  0  0
  185.6700  179.1300  146.6120 C   0  0  0  0  0  2  0  0  0  0  0  0
  184.6820  178.7510  140.2250 N   0  0  0  0  0  2  0  0  0  0  0  0
  186.0360  178.3830  143.6800 C   0  0  0  0  0  0  0  0  0  0  0  0
  183.3330  178.7930  140.1150 C   0  0  0  0  0  0  0  0  0  0  0  0
  182.6710  178.9050  138.8610 N   0  0  0  0  0  1  0  0  0  0  0  0
  182.2640  178.7040  144.1670 N   0  0  0  0  0  1  0  0  0  0  0  0
  187.3120  178.6250  141.4100 C   0  0  0  0  0  1  0  0  0  0  0  0
  184.8590  178.6500  141.5550 C   0  0  0  0  0  0  0  0  0  0  0  0
  184.7460  178.5810  144.3320 C   0  0  0  0  0  0  0  0  0  0  0  0
  184.5860  178.8810  145.6320 C   0  0  0  0  0  2  0  0  0  0  0  0
  187.1590  177.9410  144.3570 C   0  0  2  0  0  3  0  0  0  0  0  0
  183.5540  178.6060  143.5590 C   0  0  0  0  0  0  0  0  0  0  0  0
  186.0670  178.5530  142.2430 C   0  0  0  0  0  0  0  0  0  0  0  0
  188.4020  177.7640  143.6630 N   0  0  0  0  0  2  0  0  0  0  0  0
  190.7550  177.5890  144.3550 C   0  0  0  0  0  2  0  0  0  0  0  0
  189.6750  175.7920  142.9640 C   0  0  0  0  0  2  0  0  0  0  0  0
  190.3510  176.4280  141.7500 C   0  0  0  0  0  2  0  0  0  0  0  0
  191.3690  178.1200  143.0600 C   0  0  0  0  0  2  0  0  0  0  0  0
  189.4550  176.8340  144.0620 C   0  0  0  0  0  3  0  0  0  0  0  0
  192.2040  177.5980  140.9420 C   0  0  0  0  0  1  0  0  0  0  0  0
  191.6300  177.0160  142.1410 N   0  0  0  0  0  0  0  0  0  0  0  0
  2 16  1  0  0  0  0
  3  1  2  0  0  0  0
  4  2  1  0  0  0  0
  5  1  1  0  0  0  0
  6 12  1  0  0  0  0
  7 13  1  0  0  0  0
  7 15  1  0  0  0  0
  8  6  1  0  0  0  0
  8  4  2  0  0  0  0
  9  8  1  0  0  0  0
 11 17  1  0  0  0  0
 12  2  2  0  0  0  0
 12 17  1  0  0  0  0
 13 14  1  0  0  0  0
 14  5  1  0  0  0  0
 15 18  1  6  0  0  0
 15  3  1  0  0  0  0
 16 10  1  0  0  0  0
 16 13  2  0  0  0  0
 17  7  2  0  0  0  0
 18 23  1  0  0  0  0
 20 23  1  0  0  0  0
 21 25  1  0  0  0  0
 21 20  1  0  0  0  0
 22 19  1  0  0  0  0
 23 19  1  0  0  0  0
 24 25  1  0  0  0  0
 25 22  1  0  0  0  0
M  END
>  <MODEL>
1

>  <REMARK>
 VINA RESULT:      -9.4      0.000      0.000
  Name = 
  2 active torsions:
  status: ('A' for Active; 'I' for Inactive)
    1  A    between atoms: C_18  and  N_21
    2  A    between atoms: N_21  and  C_23
                            x       y       z     vdW  Elec       q    Type
                         _______ _______ _______ _____ _____    ______ ____

>  <TORSDO>
F 2

$$$$
=
 OpenBabel10222417093D

 25 28  0  0  1  0  0  0  0  0999 V2000
  187.9920  177.5480  148.0120 C   0  0  0  0  0  3  0  0  0  0  0  0
  184.6520  178.4360  143.8270 C   0  0  0  0  0  0  0  0  0  0  0  0
  188.3700  176.8240  146.9710 C   0  0  0  0  0  3  0  0  0  0  0  0
  183.5570  178.6620  143.0860 N   0  0  0  0  0  0  0  0  0  0  0  0
  187.4340  178.8980  147.8250 C   0  0  0  0  0  2  0  0  0  0  0  0
  185.3360  178.1560  141.7450 N   0  0  0  0  0  2  0  0  0  0  0  0
  187.1510  177.8260  144.9860 C   0  0  0  0  0  0  0  0  0  0  0  0
  184.0220  178.4740  141.8270 C   0  0  0  0  0  0  0  0  0  0  0  0
  183.1950  178.6090  140.6780 N   0  0  0  0  0  1  0  0  0  0  0  0
  183.6500  178.9840  145.9710 N   0  0  0  0  0  1  0  0  0  0  0  0
  188.0510  177.5830  142.5420 C   0  0  0  0  0  1  0  0  0  0  0  0
  185.7100  178.1410  143.0370 C   0  0  0  0  0  0  0  0  0  0  0  0
  186.0510  178.3520  145.7880 C   0  0  0  0  0  0  0  0  0  0  0  0
  186.1730  178.7960  147.0500 C   0  0  0  0  0  2  0  0  0  0  0  0
  188.2620  177.2190  145.5420 C   0  0  2  0  0  3  0  0  0  0  0  0
  184.7750  178.5590  145.1990 C   0  0  0  0  0  0  0  0  0  0  0  0
  186.9740  177.8540  143.5500 C   0  0  0  0  0  0  0  0  0  0  0  0
  189.3130  176.7190  144.7020 N   0  0  0  0  0  2  0  0  0  0  0  0
  191.1490  178.3400  144.4810 C   0  0  0  0  0  2  0  0  0  0  0  0
  191.5540  175.8740  144.1930 C   0  0  0  0  0  2  0  0  0  0  0  0
  191.5050  176.1170  142.6840 C   0  0  0  0  0  2  0  0  0  0  0  0
  191.1240  178.4400  142.9560 C   0  0  0  0  0  2  0  0  0  0  0  0
  190.7390  176.9350  144.9330 C   0  0  0  0  0  3  0  0  0  0  0  0
  191.9430  177.6020  140.9350 C   0  0  0  0  0  1  0  0  0  0  0  0
  192.0250  177.4470  142.3760 N   0  0  0  0  0  0  0  0  0  0  0  0
  2 16  1  0  0  0  0
  3  1  2  0  0  0  0
  4  2  1  0  0  0  0
  5  1  1  0  0  0  0
  6  8  1  0  0  0  0
  6 12  1  0  0  0  0
  7 15  1  0  0  0  0
  7 13  1  0  0  0  0
  8  4  2  0  0  0  0
  9  8  1  0  0  0  0
 11 17  1  0  0  0  0
 12 17  1  0  0  0  0
 12  2  2  0  0  0  0
 13 14  1  0  0  0  0
 14  5  1  0  0  0  0
 15 18  1  6  0  0  0
 15  3  1  0  0  0  0
 16 13  2  0  0  0  0
 16 10  1  0  0  0  0
 17  7  2  0  0  0  0
 18 23  1  0  0  0  0
 19 23  1  0  0  0  0
 20 23  1  0  0  0  0
 21 20  1  0  0  0  0
 22 19  1  0  0  0  0
 24 25  1  0  0  0  0
 25 21  1  0  0  0  0
 25 22  1  0  0  0  0
M  END
>  <MODEL>
2

>  <REMARK>
 VINA RESULT:      -9.1      1.296      1.761
  Name = 
  2 active torsions:
  status: ('A' for Active; 'I' for Inactive)
    1  A    between atoms: C_18  and  N_21
    2  A    between atoms: N_21  and  C_23
                            x       y       z     vdW  Elec       q    Type
                         _______ _______ _______ _____ _____    ______ ____

>  <TORSDO>
F 2

$$$$
=
 OpenBabel10222417093D

 25 28  0  0  1  0  0  0  0  0999 V2000
  185.6610  178.7700  142.6910 C   0  0  0  0  0  3  0  0  0  0  0  0
  189.5010  177.3040  146.2340 C   0  0  0  0  0  0  0  0  0  0  0  0
  186.8260  178.6590  142.0730 C   0  0  0  0  0  3  0  0  0  0  0  0
  190.2450  177.1880  147.3450 N   0  0  0  0  0  0  0  0  0  0  0  0
  185.3010  177.8540  143.7870 C   0  0  0  0  0  2  0  0  0  0  0  0
  191.3030  176.2090  145.5730 N   0  0  0  0  0  2  0  0  0  0  0  0
  188.3090  177.3720  143.6780 C   0  0  0  0  0  0  0  0  0  0  0  0
  191.3340  176.5210  146.8900 C   0  0  0  0  0  0  0  0  0  0  0  0
  192.4220  176.1670  147.7350 N   0  0  0  0  0  1  0  0  0  0  0  0
  187.5820  178.3470  147.2960 N   0  0  0  0  0  1  0  0  0  0  0  0
  190.3650  175.9830  142.8510 C   0  0  0  0  0  1  0  0  0  0  0  0
  190.1210  176.7200  145.1830 C   0  0  0  0  0  0  0  0  0  0  0  0
  187.5790  177.7990  144.8670 C   0  0  0  0  0  0  0  0  0  0  0  0
  186.2570  178.0400  144.9050 C   0  0  0  0  0  2  0  0  0  0  0  0
  187.8990  177.6820  142.3940 C   0  0  2  0  0  3  0  0  0  0  0  0
  188.2340  177.8460  146.1270 C   0  0  0  0  0  0  0  0  0  0  0  0
  189.5720  176.7020  143.9020 C   0  0  0  0  0  0  0  0  0  0  0  0
  188.6590  177.2340  141.2620 N   0  0  0  0  0  2  0  0  0  0  0  0
  188.1820  178.0560  138.9940 C   0  0  0  0  0  2  0  0  0  0  0  0
  190.5460  177.6680  139.7630 C   0  0  0  0  0  2  0  0  0  0  0  0
  190.4950  176.3380  139.0110 C   0  0  0  0  0  2  0  0  0  0  0  0
  188.2690  176.7040  138.2860 C   0  0  0  0  0  2  0  0  0  0  0  0
  189.1410  178.0980  140.1880 C   0  0  0  0  0  3  0  0  0  0  0  0
  189.6380  175.1670  137.1810 C   0  0  0  0  0  1  0  0  0  0  0  0
  189.6370  176.4630  137.8350 N   0  0  0  0  0  0  0  0  0  0  0  0
  1  5  1  0  0  0  0
  2  4  1  0  0  0  0
  3 15  1  0  0  0  0
  3  1  2  0  0  0  0
  5 14  1  0  0  0  0
  6  8  1  0  0  0  0
  7 17  2  0  0  0  0
  7 13  1  0  0  0  0
  8  4  2  0  0  0  0
  8  9  1  0  0  0  0
 11 17  1  0  0  0  0
 12  6  1  0  0  0  0
 12  2  2  0  0  0  0
 13 14  1  0  0  0  0
 13 16  2  0  0  0  0
 15 18  1  6  0  0  0
 15  7  1  0  0  0  0
 16  2  1  0  0  0  0
 16 10  1  0  0  0  0
 17 12  1  0  0  0  0
 19 23  1  0  0  0  0
 20 23  1  0  0  0  0
 21 20  1  0  0  0  0
 22 19  1  0  0  0  0
 23 18  1  0  0  0  0
 24 25  1  0  0  0  0
 25 22  1  0  0  0  0
 25 21  1  0  0  0  0
M  END
>  <MODEL>
3

>  <REMARK>
 VINA RESULT:      -8.9      2.884      6.012
  Name = 
  2 active torsions:
  status: ('A' for Active; 'I' for Inactive)
    1  A    between atoms: C_18  and  N_21
    2  A    between atoms: N_21  and  C_23
                            x       y       z     vdW  Elec       q    Type
                         _______ _______ _______ _____ _____    ______ ____

>  <TORSDO>
F 2

$$$$
=
 OpenBabel10222417093D

 25 28  0  0  1  0  0  0  0  0999 V2000
  191.5250  176.1940  143.5970 C   0  0  0  0  0  3  0  0  0  0  0  0
  186.7160  177.9100  145.4360 C   0  0  0  0  0  0  0  0  0  0  0  0
  190.6070  176.0590  142.6540 C   0  0  0  0  0  3  0  0  0  0  0  0
  185.6590  178.1600  146.2240 N   0  0  0  0  0  0  0  0  0  0  0  0
  191.4880  177.3380  144.5240 C   0  0  0  0  0  2  0  0  0  0  0  0
  185.1670  178.6590  144.0490 N   0  0  0  0  0  2  0  0  0  0  0  0
  188.6470  177.4710  143.4270 C   0  0  0  0  0  0  0  0  0  0  0  0
  184.7400  178.6080  145.3330 C   0  0  0  0  0  0  0  0  0  0  0  0
  183.4300  179.0030  145.7200 N   0  0  0  0  0  1  0  0  0  0  0  0
  188.2480  177.3010  147.2200 N   0  0  0  0  0  1  0  0  0  0  0  0
  186.8970  178.4480  141.7470 C   0  0  0  0  0  1  0  0  0  0  0  0
  186.4310  178.2090  144.1480 C   0  0  0  0  0  0  0  0  0  0  0  0
  188.9860  177.3630  144.8420 C   0  0  0  0  0  0  0  0  0  0  0  0
  190.2390  177.2740  145.3210 C   0  0  0  0  0  2  0  0  0  0  0  0
  189.4490  176.9620  142.4220 C   0  0  2  0  0  3  0  0  0  0  0  0
  187.9740  177.4930  145.8300 C   0  0  0  0  0  0  0  0  0  0  0  0
  187.3510  178.0350  143.1150 C   0  0  0  0  0  0  0  0  0  0  0  0
  189.0630  177.0980  141.0460 N   0  0  0  0  0  2  0  0  0  0  0  0
  189.0580  178.6260  139.1200 C   0  0  0  0  0  2  0  0  0  0  0  0
  190.5380  176.5930  139.1590 C   0  0  0  0  0  2  0  0  0  0  0  0
  189.4910  175.9040  138.2840 C   0  0  0  0  0  2  0  0  0  0  0  0
  188.0970  177.8200  138.2470 C   0  0  0  0  0  2  0  0  0  0  0  0
  189.8930  177.6920  140.0020 C   0  0  0  0  0  3  0  0  0  0  0  0
  187.8690  176.1570  136.6220 C   0  0  0  0  0  1  0  0  0  0  0  0
  188.8450  176.8830  137.4130 N   0  0  0  0  0  0  0  0  0  0  0  0
  1  5  1  0  0  0  0
  2 16  1  0  0  0  0
  2  4  1  0  0  0  0
  3  1  2  0  0  0  0
  5 14  1  0  0  0  0
  6 12  1  0  0  0  0
  6  8  1  0  0  0  0
  7 13  1  0  0  0  0
  8  9  1  0  0  0  0
  8  4  2  0  0  0  0
 11 17  1  0  0  0  0
 12  2  2  0  0  0  0
 13 14  1  0  0  0  0
 13 16  2  0  0  0  0
 15 18  1  6  0  0  0
 15  3  1  0  0  0  0
 15  7  1  0  0  0  0
 16 10  1  0  0  0  0
 17  7  2  0  0  0  0
 17 12  1  0  0  0  0
 19 23  1  0  0  0  0
 20 23  1  0  0  0  0
 21 20  1  0  0  0  0
 22 19  1  0  0  0  0
 23 18  1  0  0  0  0
 24 25  1  0  0  0  0
 25 22  1  0  0  0  0
 25 21  1  0  0  0  0
M  END
>  <MODEL>
4

>  <REMARK>
 VINA RESULT:      -8.7      2.556      4.881
  Name = 
  2 active torsions:
  status: ('A' for Active; 'I' for Inactive)
    1  A    between atoms: C_18  and  N_21
    2  A    between atoms: N_21  and  C_23
                            x       y       z     vdW  Elec       q    Type
                         _______ _______ _______ _____ _____    ______ ____

>  <TORSDO>
F 2

$$$$
=
 OpenBabel10222417093D

 25 28  0  0  1  0  0  0  0  0999 V2000
  184.7270  178.8840  140.7850 C   0  0  0  0  0  3  0  0  0  0  0  0
  186.3740  178.2620  145.9190 C   0  0  0  0  0  0  0  0  0  0  0  0
  186.0490  178.8600  140.8350 C   0  0  0  0  0  3  0  0  0  0  0  0
  186.4710  178.3500  147.2540 N   0  0  0  0  0  0  0  0  0  0  0  0
  183.9260  178.0410  141.6890 C   0  0  0  0  0  2  0  0  0  0  0  0
  188.3280  177.3430  146.3850 N   0  0  0  0  0  2  0  0  0  0  0  0
  186.6110  177.9320  143.1270 C   0  0  0  0  0  0  0  0  0  0  0  0
  187.6800  177.7830  147.4900 C   0  0  0  0  0  0  0  0  0  0  0  0
  188.2210  177.6520  148.7980 N   0  0  0  0  0  1  0  0  0  0  0  0
  184.1210  179.1550  145.7490 N   0  0  0  0  0  1  0  0  0  0  0  0
  188.8850  176.7380  143.6170 C   0  0  0  0  0  1  0  0  0  0  0  0
  187.4690  177.6610  145.4000 C   0  0  0  0  0  0  0  0  0  0  0  0
  185.3610  178.3780  143.7350 C   0  0  0  0  0  0  0  0  0  0  0  0
  184.1850  178.4540  143.0900 C   0  0  0  0  0  2  0  0  0  0  0  0
  186.8760  178.0610  141.7760 C   0  0  2  0  0  3  0  0  0  0  0  0
  185.2980  178.6290  145.1310 C   0  0  0  0  0  0  0  0  0  0  0  0
  187.6330  177.4500  144.0320 C   0  0  0  0  0  0  0  0  0  0  0  0
  188.1250  177.6040  141.2350 N   0  0  0  0  0  2  0  0  0  0  0  0
  188.4220  178.3240  138.9030 C   0  0  0  0  0  2  0  0  0  0  0  0
  190.4050  177.8390  140.3740 C   0  0  0  0  0  2  0  0  0  0  0  0
  190.4860  176.4740  139.6900 C   0  0  0  0  0  2  0  0  0  0  0  0
  188.6190  176.9310  138.3040 C   0  0  0  0  0  2  0  0  0  0  0  0
  188.9740  178.3760  140.3310 C   0  0  0  0  0  3  0  0  0  0  0  0
  190.1400  175.2550  137.7270 C   0  0  0  0  0  1  0  0  0  0  0  0
  190.0370  176.5830  138.3030 N   0  0  0  0  0  0  0  0  0  0  0  0
  1  3  2  0  0  0  0
  1  5  1  0  0  0  0
  2  4  1  0  0  0  0
  3 15  1  0  0  0  0
  4  8  2  0  0  0  0
  5 14  1  0  0  0  0
  6  8  1  0  0  0  0
  7 13  2  0  0  0  0
  7 17  1  0  0  0  0
  8  9  1  0  0  0  0
 11 17  1  0  0  0  0
 12  2  1  0  0  0  0
 12  6  1  0  0  0  0
 13 16  1  0  0  0  0
 14 13  1  0  0  0  0
 15 18  1  1  0  0  0
 15  7  1  0  0  0  0
 16 10  1  0  0  0  0
 16  2  2  0  0  0  0
 17 12  2  0  0  0  0
 19 23  1  0  0  0  0
 21 20  1  0  0  0  0
 22 19  1  0  0  0  0
 23 20  1  0  0  0  0
 23 18  1  0  0  0  0
 24 25  1  0  0  0  0
 25 22  1  0  0  0  0
 25 21  1  0  0  0  0
M  END
>  <MODEL>
5

>  <REMARK>
 VINA RESULT:      -8.7      2.390      5.045
  Name = 
  2 active torsions:
  status: ('A' for Active; 'I' for Inactive)
    1  A    between atoms: C_18  and  N_21
    2  A    between atoms: N_21  and  C_23
                            x       y       z     vdW  Elec       q    Type
                         _______ _______ _______ _____ _____    ______ ____

>  <TORSDO>
F 2

$$$$
=
 OpenBabel10222417093D

 25 28  0  0  1  0  0  0  0  0999 V2000
  186.3530  177.6850  146.5750 C   0  0  0  0  0  3  0  0  0  0  0  0
  184.1210  178.7750  141.7510 C   0  0  0  0  0  0  0  0  0  0  0  0
  187.0590  177.1140  145.6120 C   0  0  0  0  0  3  0  0  0  0  0  0
  183.2340  178.9980  140.7680 N   0  0  0  0  0  0  0  0  0  0  0  0
  185.7230  179.0000  146.3670 C   0  0  0  0  0  2  0  0  0  0  0  0
  185.3400  178.7860  139.9070 N   0  0  0  0  0  2  0  0  0  0  0  0
  186.2900  178.2350  143.4710 C   0  0  0  0  0  0  0  0  0  0  0  0
  184.0220  178.9890  139.6650 C   0  0  0  0  0  0  0  0  0  0  0  0
  183.5070  179.1880  138.3550 N   0  0  0  0  0  1  0  0  0  0  0  0
  182.5520  178.9990  143.5910 N   0  0  0  0  0  1  0  0  0  0  0  0
  187.8050  178.3400  141.3420 C   0  0  0  0  0  1  0  0  0  0  0  0
  185.3700  178.6550  141.2460 C   0  0  0  0  0  0  0  0  0  0  0  0
  184.9730  178.5810  143.9960 C   0  0  0  0  0  0  0  0  0  0  0  0
  184.7210  178.8880  145.2800 C   0  0  0  0  0  2  0  0  0  0  0  0
  187.2790  177.6590  144.2470 C   0  0  2  0  0  3  0  0  0  0  0  0
  183.8750  178.7530  143.1110 C   0  0  0  0  0  0  0  0  0  0  0  0
  186.4840  178.4110  142.0480 C   0  0  0  0  0  0  0  0  0  0  0  0
  188.5560  177.3390  143.6740 N   0  0  0  0  0  2  0  0  0  0  0  0
  190.9670  177.4410  143.2020 C   0  0  0  0  0  2  0  0  0  0  0  0
  190.0060  178.4930  145.2750 C   0  0  0  0  0  2  0  0  0  0  0  0
  190.4710  177.2500  146.0330 C   0  0  0  0  0  2  0  0  0  0  0  0
  191.3770  176.2600  144.0800 C   0  0  0  0  0  2  0  0  0  0  0  0
  189.7560  178.1620  143.8040 C   0  0  0  0  0  3  0  0  0  0  0  0
  192.0670  175.5520  146.1960 C   0  0  0  0  0  1  0  0  0  0  0  0
  191.6930  176.7250  145.4280 N   0  0  0  0  0  0  0  0  0  0  0  0
  2 16  1  0  0  0  0
  3  1  2  0  0  0  0
  4  2  1  0  0  0  0
  5  1  1  0  0  0  0
  6 12  1  0  0  0  0
  7 13  1  0  0  0  0
  7 15  1  0  0  0  0
  8  6  1  0  0  0  0
  8  4  2  0  0  0  0
  9  8  1  0  0  0  0
 11 17  1  0  0  0  0
 12  2  2  0  0  0  0
 12 17  1  0  0  0  0
 13 14  1  0  0  0  0
 14  5  1  0  0  0  0
 15 18  1  6  0  0  0
 15  3  1  0  0  0  0
 16 10  1  0  0  0  0
 16 13  2  0  0  0  0
 17  7  2  0  0  0  0
 18 23  1  0  0  0  0
 19 23  1  0  0  0  0
 19 22  1  0  0  0  0
 20 21  1  0  0  0  0
 22 25  1  0  0  0  0
 23 20  1  0  0  0  0
 25 21  1  0  0  0  0
 25 24  1  0  0  0  0
M  END
>  <MODEL>
6

>  <REMARK>
 VINA RESULT:      -8.7      1.201      1.881
  Name = 
  2 active torsions:
  status: ('A' for Active; 'I' for Inactive)
    1  A    between atoms: C_18  and  N_21
    2  A    between atoms: N_21  and  C_23
                            x       y       z     vdW  Elec       q    Type
                         _______ _______ _______ _____ _____    ______ ____

>  <TORSDO>
F 2

$$$$
=
 OpenBabel10222417093D

 25 28  0  0  1  0  0  0  0  0999 V2000
  187.4620  177.9470  148.2270 C   0  0  0  0  0  3  0  0  0  0  0  0
  190.6170  177.4890  143.8350 C   0  0  0  0  0  0  0  0  0  0  0  0
  186.8540  178.4750  147.1770 C   0  0  0  0  0  3  0  0  0  0  0  0
  191.6810  177.4550  143.0170 N   0  0  0  0  0  0  0  0  0  0  0  0
  188.3060  176.7480  148.0820 C   0  0  0  0  0  2  0  0  0  0  0  0
  189.7440  177.4280  141.8060 N   0  0  0  0  0  2  0  0  0  0  0  0
  188.1320  177.6110  145.1640 C   0  0  0  0  0  0  0  0  0  0  0  0
  191.0990  177.4250  141.7940 C   0  0  0  0  0  0  0  0  0  0  0  0
  191.8520  177.3840  140.5890 N   0  0  0  0  0  1  0  0  0  0  0  0
  191.8670  177.3670  145.9140 N   0  0  0  0  0  1  0  0  0  0  0  0
  187.0320  177.4350  142.7980 C   0  0  0  0  0  1  0  0  0  0  0  0
  189.4680  177.4670  143.1220 C   0  0  0  0  0  0  0  0  0  0  0  0
  189.3770  177.4180  145.9000 C   0  0  0  0  0  0  0  0  0  0  0  0
  189.4500  177.0670  147.1950 C   0  0  0  0  0  2  0  0  0  0  0  0
  186.9520  177.9950  145.7740 C   0  0  2  0  0  3  0  0  0  0  0  0
  190.6220  177.4580  145.2180 C   0  0  0  0  0  0  0  0  0  0  0  0
  188.2110  177.5030  143.7230 C   0  0  0  0  0  0  0  0  0  0  0  0
  185.7570  178.1700  144.9970 N   0  0  0  0  0  2  0  0  0  0  0  0
  183.4560  179.0030  145.2350 C   0  0  0  0  0  2  0  0  0  0  0  0
  185.0900  180.1290  143.6890 C   0  0  0  0  0  2  0  0  0  0  0  0
  184.4200  179.3690  142.5450 C   0  0  0  0  0  2  0  0  0  0  0  0
  182.8800  178.3080  144.0010 C   0  0  0  0  0  2  0  0  0  0  0  0
  184.9260  179.3700  145.0060 C   0  0  0  0  0  3  0  0  0  0  0  0
  182.4390  178.4520  141.7120 C   0  0  0  0  0  1  0  0  0  0  0  0
  183.0010  179.1800  142.8350 N   0  0  0  0  0  0  0  0  0  0  0  0
  2 16  1  0  0  0  0
  3  1  2  0  0  0  0
  4  2  1  0  0  0  0
  5  1  1  0  0  0  0
  6 12  1  0  0  0  0
  7 15  1  0  0  0  0
  7 13  1  0  0  0  0
  8  6  1  0  0  0  0
  8  4  2  0  0  0  0
  9  8  1  0  0  0  0
 11 17  1  0  0  0  0
 12 17  1  0  0  0  0
 12  2  2  0  0  0  0
 13 14  1  0  0  0  0
 14  5  1  0  0  0  0
 15 18  1  6  0  0  0
 15  3  1  0  0  0  0
 16 13  2  0  0  0  0
 16 10  1  0  0  0  0
 17  7  2  0  0  0  0
 18 23  1  0  0  0  0
 20 23  1  0  0  0  0
 21 25  1  0  0  0  0
 21 20  1  0  0  0  0
 22 19  1  0  0  0  0
 23 19  1  0  0  0  0
 24 25  1  0  0  0  0
 25 22  1  0  0  0  0
M  END
>  <MODEL>
7

>  <REMARK>
 VINA RESULT:      -8.6      1.715      6.395
  Name = 
  2 active torsions:
  status: ('A' for Active; 'I' for Inactive)
    1  A    between atoms: C_18  and  N_21
    2  A    between atoms: N_21  and  C_23
                            x       y       z     vdW  Elec       q    Type
                         _______ _______ _______ _____ _____    ______ ____

>  <TORSDO>
F 2

$$$$
=
 OpenBabel10222417093D

 25 28  0  0  1  0  0  0  0  0999 V2000
  185.6490  177.7740  146.2140 C   0  0  0  0  0  3  0  0  0  0  0  0
  185.5880  178.4520  140.8310 C   0  0  0  0  0  0  0  0  0  0  0  0
  186.7090  177.1950  145.6750 C   0  0  0  0  0  3  0  0  0  0  0  0
  185.1830  178.5630  139.5560 N   0  0  0  0  0  0  0  0  0  0  0  0
  185.1200  179.0340  145.6650 C   0  0  0  0  0  2  0  0  0  0  0  0
  187.4610  178.4340  139.6590 N   0  0  0  0  0  2  0  0  0  0  0  0
  186.8630  178.1440  143.3280 C   0  0  0  0  0  0  0  0  0  0  0  0
  186.3580  178.5410  138.8810 C   0  0  0  0  0  0  0  0  0  0  0  0
  186.4270  178.6340  137.4640 N   0  0  0  0  0  1  0  0  0  0  0  0
  183.3900  178.6810  141.8380 N   0  0  0  0  0  1  0  0  0  0  0  0
  189.1210  178.2220  142.0120 C   0  0  0  0  0  1  0  0  0  0  0  0
  186.9370  178.3810  140.8960 C   0  0  0  0  0  0  0  0  0  0  0  0
  185.4360  178.4370  143.2360 C   0  0  0  0  0  0  0  0  0  0  0  0
  184.6630  178.8000  144.2740 C   0  0  0  0  0  2  0  0  0  0  0  0
  187.4580  177.6740  144.4840 C   0  0  2  0  0  3  0  0  0  0  0  0
  184.8010  178.4900  141.9670 C   0  0  0  0  0  0  0  0  0  0  0  0
  187.6240  178.2510  142.1020 C   0  0  0  0  0  0  0  0  0  0  0  0
  188.8680  177.4030  144.5160 N   0  0  0  0  0  2  0  0  0  0  0  0
  191.2760  177.8650  144.7020 C   0  0  0  0  0  2  0  0  0  0  0  0
  189.7460  178.1380  146.6800 C   0  0  0  0  0  2  0  0  0  0  0  0
  190.2360  176.7700  147.1550 C   0  0  0  0  0  2  0  0  0  0  0  0
  191.6780  176.5140  145.2920 C   0  0  0  0  0  2  0  0  0  0  0  0
  189.8660  178.2520  145.1600 C   0  0  0  0  0  3  0  0  0  0  0  0
  192.0150  175.2570  147.2320 C   0  0  0  0  0  1  0  0  0  0  0  0
  191.6260  176.5700  146.7500 N   0  0  0  0  0  0  0  0  0  0  0  0
  2 12  2  0  0  0  0
  2 16  1  0  0  0  0
  3  1  2  0  0  0  0
  4  2  1  0  0  0  0
  5  1  1  0  0  0  0
  6 12  1  0  0  0  0
  7 15  1  0  0  0  0
  8  4  2  0  0  0  0
  8  6  1  0  0  0  0
  9  8  1  0  0  0  0
 10 16  1  0  0  0  0
 11 17  1  0  0  0  0
 12 17  1  0  0  0  0
 13  7  1  0  0  0  0
 13 14  1  0  0  0  0
 14  5  1  0  0  0  0
 15 18  1  6  0  0  0
 15  3  1  0  0  0  0
 16 13  2  0  0  0  0
 17  7  2  0  0  0  0
 18 23  1  0  0  0  0
 19 23  1  0  0  0  0
 19 22  1  0  0  0  0
 20 21  1  0  0  0  0
 22 25  1  0  0  0  0
 23 20  1  0  0  0  0
 25 21  1  0  0  0  0
 25 24  1  0  0  0  0
M  END
>  <MODEL>
8

>  <REMARK>
 VINA RESULT:      -8.5      1.956      2.876
  Name = 
  2 active torsions:
  status: ('A' for Active; 'I' for Inactive)
    1  A    between atoms: C_18  and  N_21
    2  A    between atoms: N_21  and  C_23
                            x       y       z     vdW  Elec       q    Type
                         _______ _______ _______ _____ _____    ______ ____

>  <TORSDO>
F 2

$$$$
=
 OpenBabel10222417093D

 25 28  0  0  1  0  0  0  0  0999 V2000
  189.5260  177.9480  139.0890 C   0  0  0  0  0  3  0  0  0  0  0  0
  185.3400  178.8680  142.4180 C   0  0  0  0  0  0  0  0  0  0  0  0
  189.9380  177.9330  140.3460 C   0  0  0  0  0  3  0  0  0  0  0  0
  184.2050  179.3470  142.9490 N   0  0  0  0  0  0  0  0  0  0  0  0
  188.2020  177.4160  138.7260 C   0  0  0  0  0  2  0  0  0  0  0  0
  185.3510  178.1170  144.4960 N   0  0  0  0  0  2  0  0  0  0  0  0
  187.8260  177.7230  141.7350 C   0  0  0  0  0  0  0  0  0  0  0  0
  184.2590  178.8690  144.2160 C   0  0  0  0  0  0  0  0  0  0  0  0
  183.2430  179.1280  145.1760 N   0  0  0  0  0  1  0  0  0  0  0  0
  184.9520  179.6830  140.1630 N   0  0  0  0  0  1  0  0  0  0  0  0
  187.8510  176.7150  144.1470 C   0  0  0  0  0  1  0  0  0  0  0  0
  186.0190  178.1340  143.3290 C   0  0  0  0  0  0  0  0  0  0  0  0
  186.9700  178.3360  140.7240 C   0  0  0  0  0  0  0  0  0  0  0  0
  187.1560  178.2240  139.3980 C   0  0  0  0  0  2  0  0  0  0  0  0
  189.1630  177.4440  141.5160 C   0  0  2  0  0  3  0  0  0  0  0  0
  185.7700  178.9910  141.1090 C   0  0  0  0  0  0  0  0  0  0  0  0
  187.2400  177.5250  143.0430 C   0  0  0  0  0  0  0  0  0  0  0  0
  189.9560  176.8400  142.5490 N   0  0  0  0  0  2  0  0  0  0  0  0
  192.0490  176.0270  143.5520 C   0  0  0  0  0  2  0  0  0  0  0  0
  191.3900  178.4490  143.7120 C   0  0  0  0  0  2  0  0  0  0  0  0
  190.8990  178.1470  145.1270 C   0  0  0  0  0  2  0  0  0  0  0  0
  191.5200  175.8650  144.9760 C   0  0  0  0  0  2  0  0  0  0  0  0
  191.3430  177.1890  142.8470 C   0  0  0  0  0  3  0  0  0  0  0  0
  191.1950  176.8690  147.0600 C   0  0  0  0  0  1  0  0  0  0  0  0
  191.7230  177.1000  145.7280 N   0  0  0  0  0  0  0  0  0  0  0  0
  1  3  2  0  0  0  0
  2  4  1  0  0  0  0
  2 12  1  0  0  0  0
  3 15  1  0  0  0  0
  4  8  2  0  0  0  0
  5  1  1  0  0  0  0
  5 14  1  0  0  0  0
  7 17  1  0  0  0  0
  8  6  1  0  0  0  0
  8  9  1  0  0  0  0
 10 16  1  0  0  0  0
 12  6  1  0  0  0  0
 13 16  1  0  0  0  0
 13  7  2  0  0  0  0
 14 13  1  0  0  0  0
 15  7  1  0  0  0  0
 15 18  1  1  0  0  0
 16  2  2  0  0  0  0
 17 12  2  0  0  0  0
 17 11  1  0  0  0  0
 18 23  1  0  0  0  0
 19 22  1  0  0  0  0
 20 21  1  0  0  0  0
 21 25  1  0  0  0  0
 22 25  1  0  0  0  0
 23 19  1  0  0  0  0
 23 20  1  0  0  0  0
 25 24  1  0  0  0  0
M  END
>  <MODEL>
9

>  <REMARK>
 VINA RESULT:      -8.4      1.922      4.477
  Name = 
  2 active torsions:
  status: ('A' for Active; 'I' for Inactive)
    1  A    between atoms: C_18  and  N_21
    2  A    between atoms: N_21  and  C_23
                            x       y       z     vdW  Elec       q    Type
                         _______ _______ _______ _____ _____    ______ ____

>  <TORSDO>
F 2

$$$$
