=
 OpenBabel10222419363D

 39 41  0  0  0  0  0  0  0  0999 V2000
  186.7870  177.4140  143.7690 C   0  0  0  0  0  0  0  0  0  0  0  0
  186.9860  177.8650  145.1030 C   0  0  0  0  0  0  0  0  0  0  0  0
  185.5930  177.7080  143.1030 C   0  0  0  0  0  3  0  0  0  0  0  0
  185.9380  178.5740  145.7180 C   0  0  0  0  0  3  0  0  0  0  0  0
  184.7520  178.8560  145.0410 C   0  0  0  0  0  3  0  0  0  0  0  0
  184.5680  178.4410  143.7170 C   0  0  0  0  0  0  0  0  0  0  0  0
  189.4370  177.2220  145.3080 C   0  0  0  0  0  3  0  0  0  0  0  0
  190.5770  177.2960  147.4440 C   0  0  0  0  0  0  0  0  0  0  0  0
  190.6000  177.0510  146.0640 C   0  0  0  0  0  0  0  0  0  0  0  0
  188.2350  177.8850  147.2880 C   0  0  0  0  0  3  0  0  0  0  0  0
  189.3930  177.7160  148.0520 C   0  0  0  0  0  3  0  0  0  0  0  0
  188.2350  177.6370  145.9000 C   0  0  0  0  0  0  0  0  0  0  0  0
  191.7230  177.1260  148.2130 O   0  0  0  0  0  1  0  0  0  0  0  0
  191.8490  176.6070  145.3840 C   0  0  0  0  0  1  0  0  0  0  0  0
  180.9180  179.2030  143.0850 C   0  0  0  0  0  3  0  0  0  0  0  0
  182.1430  178.9790  143.7130 C   0  0  0  0  0  3  0  0  0  0  0  0
  180.8300  179.1740  141.6960 C   0  0  0  0  0  3  0  0  0  0  0  0
  183.3090  178.7250  142.9680 C   0  0  0  0  0  0  0  0  0  0  0  0
  183.2060  178.6980  141.5470 C   0  0  0  0  0  0  0  0  0  0  0  0
  181.9680  178.9220  140.9330 C   0  0  0  0  0  3  0  0  0  0  0  0
  184.3670  178.4170  140.6510 C   0  0  0  0  0  2  0  0  0  0  0  0
  184.7740  179.6410  139.9790 N   0  0  0  0  0  1  0  0  0  0  0  0
  187.7640  176.6100  143.0210 C   0  0  0  0  0  0  0  0  0  0  0  0
  188.4200  177.1270  141.8630 N   0  0  0  0  0  2  0  0  0  0  0  0
  187.9960  175.4280  143.3860 O   0  0  0  0  0  0  0  0  0  0  0  0
  188.3170  178.5220  141.4570 C   0  0  0  0  0  2  0  0  0  0  0  0
  188.9460  178.7160  140.0870 C   0  0  0  0  0  2  0  0  0  0  0  0
  190.7980  175.8350  138.8120 O   0  0  0  0  0  0  0  0  0  0  0  0
  189.2120  177.4360  139.4390 N   0  0  0  0  0  0  0  0  0  0  0  0
  190.5050  176.8200  139.5370 C   0  0  0  0  0  0  0  0  0  0  0  0
  191.4520  177.3100  140.4300 O   0  0  0  0  0  1  0  0  0  0  0  0
  188.1980  176.8890  138.5460 C   0  0  0  0  0  2  0  0  0  0  0  0
  187.3160  178.0050  138.0150 C   0  0  0  0  0  2  0  0  0  0  0  0
  186.5120  177.4870  136.8400 C   0  0  0  0  0  2  0  0  0  0  0  0
  183.2140  176.0250  137.6760 N   0  0  0  0  0  2  0  0  0  0  0  0
  185.1110  177.3420  137.2160 N   0  0  0  0  0  2  0  0  0  0  0  0
  184.4530  176.0720  137.3080 C   0  0  0  0  0  0  0  0  0  0  0  0
  185.2020  174.7950  137.1090 C   0  0  0  0  0  2  0  0  0  0  0  0
  184.6050  173.7810  137.8570 O   0  0  0  0  0  1  0  0  0  0  0  0
  1  2  1  0  0  0  0
  2  4  2  0  0  0  0
  2 12  1  0  0  0  0
  3  6  1  0  0  0  0
  3  1  2  0  0  0  0
  5  4  1  0  0  0  0
  6  5  2  0  0  0  0
  7 12  2  0  0  0  0
  7  9  1  0  0  0  0
  8 11  1  0  0  0  0
  8 13  1  0  0  0  0
  9  8  2  0  0  0  0
 10 11  2  0  0  0  0
 12 10  1  0  0  0  0
 14  9  1  0  0  0  0
 15 16  1  0  0  0  0
 17 15  2  0  0  0  0
 18 16  2  0  0  0  0
 18  6  1  0  0  0  0
 19 18  1  0  0  0  0
 20 19  2  0  0  0  0
 20 17  1  0  0  0  0
 21 19  1  0  0  0  0
 22 21  1  0  0  0  0
 23 25  2  0  0  0  0
 23  1  1  0  0  0  0
 24 23  1  0  0  0  0
 26 24  1  0  0  0  0
 27 26  1  0  0  0  0
 28 30  2  0  0  0  0
 29 30  1  0  0  0  0
 29 27  1  0  0  0  0
 30 31  1  0  0  0  0
 32 29  1  0  0  0  0
 33 32  1  0  0  0  0
 34 36  1  0  0  0  0
 34 33  1  0  0  0  0
 36 37  1  0  0  0  0
 37 35  2  0  0  0  0
 38 37  1  0  0  0  0
 38 39  1  0  0  0  0
M  END
>  <MODEL>
1

>  <REMARK>
 VINA RESULT:      -9.5      0.000      0.000
  Name = 
  12 active torsions:
  status: ('A' for Active; 'I' for Inactive)
    1  A    between atoms: C_1  and  C_14
    2  A    between atoms: C_2  and  C_21
    3  A    between atoms: N_8  and  C_33
    4  A    between atoms: C_9  and  C_32
    5  A    between atoms: C_13  and  C_25
    6  A    between atoms: C_13  and  C_33
    7  A    between atoms: C_18  and  N_20
    8  A    between atoms: C_18  and  C_23
    9  A    between atoms: C_19  and  C_30
   10  A    between atoms: N_22  and  C_23
   11  A    between atoms: N_22  and  C_25
   12  A    between atoms: C_27  and  C_34
                            x       y       z     vdW  Elec       q    Type
                         _______ _______ _______ _____ _____    ______ ____

>  <TORSDO>
F 12

$$$$
=
 OpenBabel10222419363D

 39 41  0  0  0  0  0  0  0  0999 V2000
  186.7700  177.4460  143.7450 C   0  0  0  0  0  0  0  0  0  0  0  0
  186.9690  177.8930  145.0810 C   0  0  0  0  0  0  0  0  0  0  0  0
  185.5760  177.7450  143.0800 C   0  0  0  0  0  3  0  0  0  0  0  0
  185.9220  178.6020  145.6970 C   0  0  0  0  0  3  0  0  0  0  0  0
  184.7370  178.8880  145.0210 C   0  0  0  0  0  3  0  0  0  0  0  0
  184.5520  178.4770  143.6960 C   0  0  0  0  0  0  0  0  0  0  0  0
  189.4300  177.2870  145.2780 C   0  0  0  0  0  3  0  0  0  0  0  0
  190.5570  177.3100  147.4220 C   0  0  0  0  0  0  0  0  0  0  0  0
  190.5920  177.1120  146.0350 C   0  0  0  0  0  0  0  0  0  0  0  0
  188.2060  177.8640  147.2720 C   0  0  0  0  0  3  0  0  0  0  0  0
  189.3630  177.6890  148.0370 C   0  0  0  0  0  3  0  0  0  0  0  0
  188.2180  177.6620  145.8770 C   0  0  0  0  0  0  0  0  0  0  0  0
  191.7010  177.1350  148.1920 O   0  0  0  0  0  1  0  0  0  0  0  0
  191.8530  176.7120  145.3490 C   0  0  0  0  0  1  0  0  0  0  0  0
  180.9110  179.2820  143.0660 C   0  0  0  0  0  3  0  0  0  0  0  0
  182.1360  179.0520  143.6930 C   0  0  0  0  0  3  0  0  0  0  0  0
  180.8150  179.2270  141.6790 C   0  0  0  0  0  3  0  0  0  0  0  0
  183.2940  178.7650  142.9470 C   0  0  0  0  0  0  0  0  0  0  0  0
  183.1840  178.7110  141.5280 C   0  0  0  0  0  0  0  0  0  0  0  0
  181.9460  178.9420  140.9160 C   0  0  0  0  0  3  0  0  0  0  0  0
  184.3350  178.3940  140.6320 C   0  0  0  0  0  2  0  0  0  0  0  0
  184.8350  179.6180  140.0260 N   0  0  0  0  0  1  0  0  0  0  0  0
  187.7460  176.6430  142.9950 C   0  0  0  0  0  0  0  0  0  0  0  0
  188.3640  177.1430  141.8090 N   0  0  0  0  0  2  0  0  0  0  0  0
  188.0100  175.4750  143.3850 O   0  0  0  0  0  0  0  0  0  0  0  0
  188.2230  178.5250  141.3710 C   0  0  0  0  0  2  0  0  0  0  0  0
  189.0030  178.7470  140.0850 C   0  0  0  0  0  2  0  0  0  0  0  0
  190.5870  175.8060  138.6030 O   0  0  0  0  0  0  0  0  0  0  0  0
  189.1560  177.5050  139.3340 N   0  0  0  0  0  0  0  0  0  0  0  0
  190.3760  176.7520  139.4040 C   0  0  0  0  0  0  0  0  0  0  0  0
  191.3420  177.0640  140.3550 O   0  0  0  0  0  1  0  0  0  0  0  0
  188.1170  177.1440  138.3770 C   0  0  0  0  0  2  0  0  0  0  0  0
  187.9550  178.2450  137.3440 C   0  0  0  0  0  2  0  0  0  0  0  0
  187.8970  177.6260  135.9630 C   0  0  0  0  0  2  0  0  0  0  0  0
  191.0800  176.2570  134.6580 N   0  0  0  0  0  2  0  0  0  0  0  0
  189.2390  177.5200  135.4030 N   0  0  0  0  0  2  0  0  0  0  0  0
  189.9000  176.2680  135.1850 C   0  0  0  0  0  0  0  0  0  0  0  0
  189.2040  174.9710  135.4390 C   0  0  0  0  0  2  0  0  0  0  0  0
  190.1270  173.9270  135.3910 O   0  0  0  0  0  1  0  0  0  0  0  0
  1  2  1  0  0  0  0
  2  4  2  0  0  0  0
  2 12  1  0  0  0  0
  3  6  1  0  0  0  0
  3  1  2  0  0  0  0
  5  4  1  0  0  0  0
  6  5  2  0  0  0  0
  7 12  2  0  0  0  0
  7  9  1  0  0  0  0
  8 11  1  0  0  0  0
  8 13  1  0  0  0  0
  9  8  2  0  0  0  0
 10 11  2  0  0  0  0
 12 10  1  0  0  0  0
 14  9  1  0  0  0  0
 15 16  1  0  0  0  0
 17 15  2  0  0  0  0
 18 16  2  0  0  0  0
 18  6  1  0  0  0  0
 19 18  1  0  0  0  0
 20 19  2  0  0  0  0
 20 17  1  0  0  0  0
 21 19  1  0  0  0  0
 22 21  1  0  0  0  0
 23 25  2  0  0  0  0
 23  1  1  0  0  0  0
 24 23  1  0  0  0  0
 26 24  1  0  0  0  0
 27 26  1  0  0  0  0
 28 30  2  0  0  0  0
 29 30  1  0  0  0  0
 29 27  1  0  0  0  0
 30 31  1  0  0  0  0
 32 29  1  0  0  0  0
 33 32  1  0  0  0  0
 34 33  1  0  0  0  0
 35 37  2  0  0  0  0
 36 34  1  0  0  0  0
 37 36  1  0  0  0  0
 37 38  1  0  0  0  0
 39 38  1  0  0  0  0
M  END
>  <MODEL>
2

>  <REMARK>
 VINA RESULT:      -9.2      1.650      2.178
  Name = 
  12 active torsions:
  status: ('A' for Active; 'I' for Inactive)
    1  A    between atoms: C_1  and  C_14
    2  A    between atoms: C_2  and  C_21
    3  A    between atoms: N_8  and  C_33
    4  A    between atoms: C_9  and  C_32
    5  A    between atoms: C_13  and  C_25
    6  A    between atoms: C_13  and  C_33
    7  A    between atoms: C_18  and  N_20
    8  A    between atoms: C_18  and  C_23
    9  A    between atoms: C_19  and  C_30
   10  A    between atoms: N_22  and  C_23
   11  A    between atoms: N_22  and  C_25
   12  A    between atoms: C_27  and  C_34
                            x       y       z     vdW  Elec       q    Type
                         _______ _______ _______ _____ _____    ______ ____

>  <TORSDO>
F 12

$$$$
=
 OpenBabel10222419363D

 39 41  0  0  0  0  0  0  0  0999 V2000
  186.8450  177.4200  143.7190 C   0  0  0  0  0  0  0  0  0  0  0  0
  187.0410  177.8760  145.0520 C   0  0  0  0  0  0  0  0  0  0  0  0
  185.6580  177.7260  143.0450 C   0  0  0  0  0  3  0  0  0  0  0  0
  185.9990  178.6030  145.6560 C   0  0  0  0  0  3  0  0  0  0  0  0
  184.8210  178.8960  144.9700 C   0  0  0  0  0  3  0  0  0  0  0  0
  184.6390  178.4760  143.6480 C   0  0  0  0  0  0  0  0  0  0  0  0
  189.5000  177.2650  145.2670 C   0  0  0  0  0  3  0  0  0  0  0  0
  190.6080  177.2730  147.4210 C   0  0  0  0  0  0  0  0  0  0  0  0
  190.6550  177.0820  146.0330 C   0  0  0  0  0  0  0  0  0  0  0  0
  188.2590  177.8320  147.2540 C   0  0  0  0  0  3  0  0  0  0  0  0
  189.4100  177.6510  148.0280 C   0  0  0  0  0  3  0  0  0  0  0  0
  188.2830  177.6380  145.8580 C   0  0  0  0  0  0  0  0  0  0  0  0
  191.7460  177.0910  148.2000 O   0  0  0  0  0  1  0  0  0  0  0  0
  191.9200  176.6840  145.3550 C   0  0  0  0  0  1  0  0  0  0  0  0
  180.9680  179.0730  142.9680 C   0  0  0  0  0  3  0  0  0  0  0  0
  182.1840  178.8510  143.6120 C   0  0  0  0  0  3  0  0  0  0  0  0
  180.9270  179.2190  141.5840 C   0  0  0  0  0  3  0  0  0  0  0  0
  183.3890  178.7710  142.8900 C   0  0  0  0  0  0  0  0  0  0  0  0
  183.3350  178.9210  141.4740 C   0  0  0  0  0  0  0  0  0  0  0  0
  182.1050  179.1410  140.8430 C   0  0  0  0  0  3  0  0  0  0  0  0
  184.5400  178.8340  140.5980 C   0  0  0  0  0  2  0  0  0  0  0  0
  184.4390  179.8130  139.5270 N   0  0  0  0  0  1  0  0  0  0  0  0
  187.8160  176.5990  142.9820 C   0  0  0  0  0  0  0  0  0  0  0  0
  188.4690  177.0920  141.8120 N   0  0  0  0  0  2  0  0  0  0  0  0
  188.0440  175.4220  143.3680 O   0  0  0  0  0  0  0  0  0  0  0  0
  188.3690  178.4800  141.3820 C   0  0  0  0  0  2  0  0  0  0  0  0
  189.2070  178.7010  140.1330 C   0  0  0  0  0  2  0  0  0  0  0  0
  187.8170  176.3770  137.6790 O   0  0  0  0  0  0  0  0  0  0  0  0
  189.1130  177.5650  139.2220 N   0  0  0  0  0  0  0  0  0  0  0  0
  188.0120  177.4490  138.3070 C   0  0  0  0  0  0  0  0  0  0  0  0
  187.1450  178.5170  138.1110 O   0  0  0  0  0  1  0  0  0  0  0  0
  190.0570  176.4670  139.3870 C   0  0  0  0  0  2  0  0  0  0  0  0
  191.4750  176.9590  139.1540 C   0  0  0  0  0  2  0  0  0  0  0  0
  191.9000  176.6000  137.7450 C   0  0  0  0  0  2  0  0  0  0  0  0
  195.3330  175.4120  137.0270 N   0  0  0  0  0  2  0  0  0  0  0  0
  193.3530  176.5140  137.6660 N   0  0  0  0  0  2  0  0  0  0  0  0
  194.0410  175.4000  137.0850 C   0  0  0  0  0  0  0  0  0  0  0  0
  193.2930  174.2830  136.4320 C   0  0  0  0  0  2  0  0  0  0  0  0
  193.7780  173.0610  136.8970 O   0  0  0  0  0  1  0  0  0  0  0  0
  1  2  1  0  0  0  0
  2  4  2  0  0  0  0
  2 12  1  0  0  0  0
  3  6  1  0  0  0  0
  3  1  2  0  0  0  0
  5  4  1  0  0  0  0
  6  5  2  0  0  0  0
  7 12  2  0  0  0  0
  7  9  1  0  0  0  0
  8 11  1  0  0  0  0
  8 13  1  0  0  0  0
  9  8  2  0  0  0  0
 10 11  2  0  0  0  0
 12 10  1  0  0  0  0
 14  9  1  0  0  0  0
 15 16  1  0  0  0  0
 17 15  2  0  0  0  0
 18 16  2  0  0  0  0
 18  6  1  0  0  0  0
 19 18  1  0  0  0  0
 20 19  2  0  0  0  0
 20 17  1  0  0  0  0
 21 19  1  0  0  0  0
 22 21  1  0  0  0  0
 23 25  2  0  0  0  0
 23  1  1  0  0  0  0
 24 23  1  0  0  0  0
 26 24  1  0  0  0  0
 27 26  1  0  0  0  0
 28 30  2  0  0  0  0
 29 32  1  0  0  0  0
 29 27  1  0  0  0  0
 30 29  1  0  0  0  0
 31 30  1  0  0  0  0
 33 32  1  0  0  0  0
 34 33  1  0  0  0  0
 35 37  2  0  0  0  0
 36 34  1  0  0  0  0
 37 36  1  0  0  0  0
 38 39  1  0  0  0  0
 38 37  1  0  0  0  0
M  END
>  <MODEL>
3

>  <REMARK>
 VINA RESULT:      -9.1      2.105      3.791
  Name = 
  12 active torsions:
  status: ('A' for Active; 'I' for Inactive)
    1  A    between atoms: C_1  and  C_14
    2  A    between atoms: C_2  and  C_21
    3  A    between atoms: N_8  and  C_33
    4  A    between atoms: C_9  and  C_32
    5  A    between atoms: C_13  and  C_25
    6  A    between atoms: C_13  and  C_33
    7  A    between atoms: C_18  and  N_20
    8  A    between atoms: C_18  and  C_23
    9  A    between atoms: C_19  and  C_30
   10  A    between atoms: N_22  and  C_23
   11  A    between atoms: N_22  and  C_25
   12  A    between atoms: C_27  and  C_34
                            x       y       z     vdW  Elec       q    Type
                         _______ _______ _______ _____ _____    ______ ____

>  <TORSDO>
F 12

$$$$
=
 OpenBabel10222419363D

 39 41  0  0  0  0  0  0  0  0999 V2000
  186.5280  178.3500  142.7530 C   0  0  0  0  0  0  0  0  0  0  0  0
  185.3280  178.1470  143.4900 C   0  0  0  0  0  0  0  0  0  0  0  0
  187.7630  178.0310  143.3280 C   0  0  0  0  0  3  0  0  0  0  0  0
  185.4410  177.6540  144.8020 C   0  0  0  0  0  3  0  0  0  0  0  0
  186.6800  177.3450  145.3620 C   0  0  0  0  0  3  0  0  0  0  0  0
  187.8590  177.5130  144.6280 C   0  0  0  0  0  0  0  0  0  0  0  0
  183.5300  177.9790  141.7000 C   0  0  0  0  0  3  0  0  0  0  0  0
  181.3200  178.9040  142.0550 C   0  0  0  0  0  0  0  0  0  0  0  0
  182.2300  178.2130  141.2430 C   0  0  0  0  0  0  0  0  0  0  0  0
  183.0180  179.1060  143.7670 C   0  0  0  0  0  3  0  0  0  0  0  0
  181.7160  179.3460  143.3180 C   0  0  0  0  0  3  0  0  0  0  0  0
  183.9510  178.4200  142.9630 C   0  0  0  0  0  0  0  0  0  0  0  0
  180.0240  179.1510  141.6150 O   0  0  0  0  0  1  0  0  0  0  0  0
  181.8360  177.7230  139.8920 C   0  0  0  0  0  1  0  0  0  0  0  0
  191.5040  176.5140  144.7670 C   0  0  0  0  0  3  0  0  0  0  0  0
  190.2370  176.8720  144.3060 C   0  0  0  0  0  3  0  0  0  0  0  0
  191.7620  176.4670  146.1340 C   0  0  0  0  0  3  0  0  0  0  0  0
  189.2000  177.1950  145.2000 C   0  0  0  0  0  0  0  0  0  0  0  0
  189.4750  177.1420  146.5970 C   0  0  0  0  0  0  0  0  0  0  0  0
  190.7510  176.7780  147.0430 C   0  0  0  0  0  3  0  0  0  0  0  0
  188.4510  177.4400  147.6420 C   0  0  0  0  0  2  0  0  0  0  0  0
  189.0170  178.3330  148.6410 N   0  0  0  0  0  1  0  0  0  0  0  0
  186.5720  178.9150  141.3970 C   0  0  0  0  0  0  0  0  0  0  0  0
  187.5850  178.5330  140.4660 N   0  0  0  0  0  2  0  0  0  0  0  0
  185.7240  179.7840  141.0660 O   0  0  0  0  0  0  0  0  0  0  0  0
  188.5130  177.4390  140.7180 C   0  0  0  0  0  2  0  0  0  0  0  0
  189.9320  177.8710  140.3820 C   0  0  0  0  0  2  0  0  0  0  0  0
  192.2490  176.5760  137.8700 O   0  0  0  0  0  0  0  0  0  0  0  0
  190.4130  177.2190  139.1690 N   0  0  0  0  0  0  0  0  0  0  0  0
  191.8100  176.9390  138.9910 C   0  0  0  0  0  0  0  0  0  0  0  0
  192.6950  177.0740  140.0550 O   0  0  0  0  0  1  0  0  0  0  0  0
  189.4740  177.0230  138.0710 C   0  0  0  0  0  2  0  0  0  0  0  0
  189.3500  178.3000  137.2580 C   0  0  0  0  0  2  0  0  0  0  0  0
  188.1080  178.2210  136.3950 C   0  0  0  0  0  2  0  0  0  0  0  0
  184.8480  178.2310  138.1500 N   0  0  0  0  0  2  0  0  0  0  0  0
  186.9400  178.6490  137.1550 N   0  0  0  0  0  2  0  0  0  0  0  0
  185.8350  177.7840  137.4450 C   0  0  0  0  0  0  0  0  0  0  0  0
  185.8570  176.3420  137.0550 C   0  0  0  0  0  2  0  0  0  0  0  0
  184.6220  175.7610  137.3390 O   0  0  0  0  0  1  0  0  0  0  0  0
  1  3  2  0  0  0  0
  1  2  1  0  0  0  0
  2  4  2  0  0  0  0
  3  6  1  0  0  0  0
  4  5  1  0  0  0  0
  6 18  1  0  0  0  0
  6  5  2  0  0  0  0
  7 12  1  0  0  0  0
  8 11  2  0  0  0  0
  9  7  2  0  0  0  0
  9  8  1  0  0  0  0
 11 10  1  0  0  0  0
 12  2  1  0  0  0  0
 12 10  2  0  0  0  0
 13  8  1  0  0  0  0
 14  9  1  0  0  0  0
 15 17  1  0  0  0  0
 16 15  2  0  0  0  0
 16 18  1  0  0  0  0
 17 20  2  0  0  0  0
 18 19  2  0  0  0  0
 19 20  1  0  0  0  0
 19 21  1  0  0  0  0
 21 22  1  0  0  0  0
 23  1  1  0  0  0  0
 24 26  1  0  0  0  0
 24 23  1  0  0  0  0
 25 23  2  0  0  0  0
 27 26  1  0  0  0  0
 28 30  2  0  0  0  0
 29 27  1  0  0  0  0
 30 29  1  0  0  0  0
 30 31  1  0  0  0  0
 32 29  1  0  0  0  0
 33 32  1  0  0  0  0
 34 36  1  0  0  0  0
 34 33  1  0  0  0  0
 36 37  1  0  0  0  0
 37 35  2  0  0  0  0
 38 39  1  0  0  0  0
 38 37  1  0  0  0  0
M  END
>  <MODEL>
4

>  <REMARK>
 VINA RESULT:      -8.8      2.283      6.367
  Name = 
  12 active torsions:
  status: ('A' for Active; 'I' for Inactive)
    1  A    between atoms: C_1  and  C_14
    2  A    between atoms: C_2  and  C_21
    3  A    between atoms: N_8  and  C_33
    4  A    between atoms: C_9  and  C_32
    5  A    between atoms: C_13  and  C_25
    6  A    between atoms: C_13  and  C_33
    7  A    between atoms: C_18  and  N_20
    8  A    between atoms: C_18  and  C_23
    9  A    between atoms: C_19  and  C_30
   10  A    between atoms: N_22  and  C_23
   11  A    between atoms: N_22  and  C_25
   12  A    between atoms: C_27  and  C_34
                            x       y       z     vdW  Elec       q    Type
                         _______ _______ _______ _____ _____    ______ ____

>  <TORSDO>
F 12

$$$$
=
 OpenBabel10222419363D

 39 41  0  0  0  0  0  0  0  0999 V2000
  188.5340  177.8880  140.0920 C   0  0  0  0  0  0  0  0  0  0  0  0
  189.6310  177.1210  140.5730 C   0  0  0  0  0  0  0  0  0  0  0  0
  187.4620  178.1810  140.9420 C   0  0  0  0  0  3  0  0  0  0  0  0
  189.5730  176.6550  141.8990 C   0  0  0  0  0  3  0  0  0  0  0  0
  188.4950  176.9530  142.7320 C   0  0  0  0  0  3  0  0  0  0  0  0
  187.4300  177.7340  142.2710 C   0  0  0  0  0  0  0  0  0  0  0  0
  190.7910  175.9150  138.6580 C   0  0  0  0  0  3  0  0  0  0  0  0
  193.1560  176.2210  138.2360 C   0  0  0  0  0  0  0  0  0  0  0  0
  191.9290  175.6360  137.8970 C   0  0  0  0  0  0  0  0  0  0  0  0
  192.0880  177.3610  140.0850 C   0  0  0  0  0  3  0  0  0  0  0  0
  193.2310  177.0860  139.3290 C   0  0  0  0  0  3  0  0  0  0  0  0
  190.8460  176.7760  139.7650 C   0  0  0  0  0  0  0  0  0  0  0  0
  194.3000  175.9510  137.4930 O   0  0  0  0  0  1  0  0  0  0  0  0
  191.8140  174.7130  136.7330 C   0  0  0  0  0  1  0  0  0  0  0  0
  183.9190  178.7440  143.2450 C   0  0  0  0  0  3  0  0  0  0  0  0
  185.0420  178.3750  142.5060 C   0  0  0  0  0  3  0  0  0  0  0  0
  183.9890  178.8180  144.6330 C   0  0  0  0  0  3  0  0  0  0  0  0
  186.2610  178.0670  143.1360 C   0  0  0  0  0  0  0  0  0  0  0  0
  186.3220  178.1460  144.5570 C   0  0  0  0  0  0  0  0  0  0  0  0
  185.1860  178.5210  145.2840 C   0  0  0  0  0  3  0  0  0  0  0  0
  187.5640  177.8660  145.3380 C   0  0  0  0  0  2  0  0  0  0  0  0
  187.2340  177.7240  146.7470 N   0  0  0  0  0  1  0  0  0  0  0  0
  188.4240  178.3890  138.7160 C   0  0  0  0  0  0  0  0  0  0  0  0
  187.8100  177.6090  137.6880 N   0  0  0  0  0  2  0  0  0  0  0  0
  188.9180  179.5110  138.4280 O   0  0  0  0  0  0  0  0  0  0  0  0
  187.0930  176.3720  137.9620 C   0  0  0  0  0  2  0  0  0  0  0  0
  186.6550  175.7220  136.6590 C   0  0  0  0  0  2  0  0  0  0  0  0
  184.9580  172.5190  137.1190 O   0  0  0  0  0  0  0  0  0  0  0  0
  185.5800  174.7610  136.8800 N   0  0  0  0  0  0  0  0  0  0  0  0
  185.8740  173.3800  137.1400 C   0  0  0  0  0  0  0  0  0  0  0  0
  187.1770  172.9770  137.4110 O   0  0  0  0  0  1  0  0  0  0  0  0
  184.2070  175.1950  136.6530 C   0  0  0  0  0  2  0  0  0  0  0  0
  183.5680  175.6110  137.9670 C   0  0  0  0  0  2  0  0  0  0  0  0
  182.9260  176.9720  137.7970 C   0  0  0  0  0  2  0  0  0  0  0  0
  184.5860  179.9560  139.2310 N   0  0  0  0  0  2  0  0  0  0  0  0
  183.8960  178.0240  138.0750 N   0  0  0  0  0  2  0  0  0  0  0  0
  183.6620  179.0750  139.0190 C   0  0  0  0  0  0  0  0  0  0  0  0
  182.4240  179.1040  139.8550 C   0  0  0  0  0  2  0  0  0  0  0  0
  181.4410  179.8550  139.2100 O   0  0  0  0  0  1  0  0  0  0  0  0
  1  2  2  0  0  0  0
  1  3  1  0  0  0  0
  2  4  1  0  0  0  0
  3  6  2  0  0  0  0
  4  5  2  0  0  0  0
  6  5  1  0  0  0  0
  6 18  1  0  0  0  0
  7 12  1  0  0  0  0
  8 11  2  0  0  0  0
  9  8  1  0  0  0  0
  9  7  2  0  0  0  0
 11 10  1  0  0  0  0
 12 10  2  0  0  0  0
 12  2  1  0  0  0  0
 13  8  1  0  0  0  0
 14  9  1  0  0  0  0
 15 17  1  0  0  0  0
 16 18  1  0  0  0  0
 16 15  2  0  0  0  0
 17 20  2  0  0  0  0
 18 19  2  0  0  0  0
 19 20  1  0  0  0  0
 19 21  1  0  0  0  0
 21 22  1  0  0  0  0
 23  1  1  0  0  0  0
 24 26  1  0  0  0  0
 24 23  1  0  0  0  0
 25 23  2  0  0  0  0
 27 29  1  0  0  0  0
 27 26  1  0  0  0  0
 28 30  2  0  0  0  0
 29 30  1  0  0  0  0
 30 31  1  0  0  0  0
 32 29  1  0  0  0  0
 32 33  1  0  0  0  0
 34 33  1  0  0  0  0
 34 36  1  0  0  0  0
 36 37  1  0  0  0  0
 37 35  2  0  0  0  0
 37 38  1  0  0  0  0
 39 38  1  0  0  0  0
M  END
>  <MODEL>
5

>  <REMARK>
 VINA RESULT:      -8.7      2.859      5.945
  Name = 
  12 active torsions:
  status: ('A' for Active; 'I' for Inactive)
    1  A    between atoms: C_1  and  C_14
    2  A    between atoms: C_2  and  C_21
    3  A    between atoms: N_8  and  C_33
    4  A    between atoms: C_9  and  C_32
    5  A    between atoms: C_13  and  C_25
    6  A    between atoms: C_13  and  C_33
    7  A    between atoms: C_18  and  N_20
    8  A    between atoms: C_18  and  C_23
    9  A    between atoms: C_19  and  C_30
   10  A    between atoms: N_22  and  C_23
   11  A    between atoms: N_22  and  C_25
   12  A    between atoms: C_27  and  C_34
                            x       y       z     vdW  Elec       q    Type
                         _______ _______ _______ _____ _____    ______ ____

>  <TORSDO>
F 12

$$$$
=
 OpenBabel10222419363D

 39 41  0  0  0  0  0  0  0  0999 V2000
  189.4620  176.7770  142.0440 C   0  0  0  0  0  0  0  0  0  0  0  0
  190.6260  177.0880  142.8000 C   0  0  0  0  0  0  0  0  0  0  0  0
  189.5410  176.6720  140.6520 C   0  0  0  0  0  3  0  0  0  0  0  0
  191.8230  177.3120  142.0960 C   0  0  0  0  0  3  0  0  0  0  0  0
  191.8840  177.2070  140.7070 C   0  0  0  0  0  3  0  0  0  0  0  0
  190.7470  176.8690  139.9650 C   0  0  0  0  0  0  0  0  0  0  0  0
  191.4910  176.3750  145.0820 C   0  0  0  0  0  3  0  0  0  0  0  0
  190.7520  177.4850  147.1040 C   0  0  0  0  0  0  0  0  0  0  0  0
  191.5400  176.5130  146.4720 C   0  0  0  0  0  0  0  0  0  0  0  0
  189.8880  178.1690  144.9490 C   0  0  0  0  0  3  0  0  0  0  0  0
  189.9300  178.3130  146.3390 C   0  0  0  0  0  3  0  0  0  0  0  0
  190.6660  177.1920  144.2950 C   0  0  0  0  0  0  0  0  0  0  0  0
  190.7840  177.6340  148.4860 O   0  0  0  0  0  1  0  0  0  0  0  0
  192.4330  175.6170  147.2600 C   0  0  0  0  0  1  0  0  0  0  0  0
  191.9140  175.8390  136.5180 C   0  0  0  0  0  3  0  0  0  0  0  0
  191.7870  175.9570  137.9020 C   0  0  0  0  0  3  0  0  0  0  0  0
  191.0370  176.5180  135.6770 C   0  0  0  0  0  3  0  0  0  0  0  0
  190.7800  176.7530  138.4770 C   0  0  0  0  0  0  0  0  0  0  0  0
  189.8890  177.4440  137.6070 C   0  0  0  0  0  0  0  0  0  0  0  0
  190.0320  177.3160  136.2200 C   0  0  0  0  0  3  0  0  0  0  0  0
  188.7960  178.3350  138.0970 C   0  0  0  0  0  2  0  0  0  0  0  0
  188.6800  179.4920  137.2240 N   0  0  0  0  0  1  0  0  0  0  0  0
  188.1300  176.5790  142.6340 C   0  0  0  0  0  0  0  0  0  0  0  0
  187.0930  177.5460  142.4680 N   0  0  0  0  0  2  0  0  0  0  0  0
  187.9140  175.5550  143.3330 O   0  0  0  0  0  0  0  0  0  0  0  0
  187.2140  178.6820  141.5640 C   0  0  0  0  0  2  0  0  0  0  0  0
  185.9620  179.5420  141.6350 C   0  0  0  0  0  2  0  0  0  0  0  0
  183.3900  178.1760  139.4270 O   0  0  0  0  0  1  0  0  0  0  0  0
  184.7840  178.8010  141.1990 N   0  0  0  0  0  0  0  0  0  0  0  0
  184.5040  178.6250  139.8020 C   0  0  0  0  0  0  0  0  0  0  0  0
  185.4590  178.9550  138.8460 O   0  0  0  0  0  0  0  0  0  0  0  0
  183.8070  178.4020  142.2050 C   0  0  0  0  0  2  0  0  0  0  0  0
  183.8910  179.3250  143.4080 C   0  0  0  0  0  2  0  0  0  0  0  0
  183.3330  178.6110  144.6220 C   0  0  0  0  0  2  0  0  0  0  0  0
  185.6790  179.3560  147.3880 N   0  0  0  0  0  2  0  0  0  0  0  0
  183.9170  179.1600  145.8390 N   0  0  0  0  0  2  0  0  0  0  0  0
  185.2210  178.8030  146.3130 C   0  0  0  0  0  0  0  0  0  0  0  0
  186.1100  177.8990  145.5230 C   0  0  0  0  0  2  0  0  0  0  0  0
  186.8810  177.1260  146.3910 O   0  0  0  0  0  1  0  0  0  0  0  0
  1 23  1  0  0  0  0
  1  2  1  0  0  0  0
  2 12  1  0  0  0  0
  3  1  2  0  0  0  0
  4  2  2  0  0  0  0
  5  4  1  0  0  0  0
  6  3  1  0  0  0  0
  6  5  2  0  0  0  0
  7  9  1  0  0  0  0
  8 13  1  0  0  0  0
  9  8  2  0  0  0  0
  9 14  1  0  0  0  0
 10 11  2  0  0  0  0
 11  8  1  0  0  0  0
 12 10  1  0  0  0  0
 12  7  2  0  0  0  0
 15 16  1  0  0  0  0
 16 18  2  0  0  0  0
 17 20  1  0  0  0  0
 17 15  2  0  0  0  0
 18  6  1  0  0  0  0
 19 21  1  0  0  0  0
 19 18  1  0  0  0  0
 20 19  2  0  0  0  0
 22 21  1  0  0  0  0
 23 25  2  0  0  0  0
 24 23  1  0  0  0  0
 26 27  1  0  0  0  0
 26 24  1  0  0  0  0
 28 30  1  0  0  0  0
 29 27  1  0  0  0  0
 29 32  1  0  0  0  0
 30 29  1  0  0  0  0
 31 30  2  0  0  0  0
 32 33  1  0  0  0  0
 33 34  1  0  0  0  0
 34 36  1  0  0  0  0
 36 37  1  0  0  0  0
 37 35  2  0  0  0  0
 38 37  1  0  0  0  0
 38 39  1  0  0  0  0
M  END
>  <MODEL>
6

>  <REMARK>
 VINA RESULT:      -8.5      2.573      6.760
  Name = 
  12 active torsions:
  status: ('A' for Active; 'I' for Inactive)
    1  A    between atoms: C_1  and  C_14
    2  A    between atoms: C_2  and  C_21
    3  A    between atoms: N_8  and  C_33
    4  A    between atoms: C_9  and  C_32
    5  A    between atoms: C_13  and  C_25
    6  A    between atoms: C_13  and  C_33
    7  A    between atoms: C_18  and  N_20
    8  A    between atoms: C_18  and  C_23
    9  A    between atoms: C_19  and  C_30
   10  A    between atoms: N_22  and  C_23
   11  A    between atoms: N_22  and  C_25
   12  A    between atoms: C_27  and  C_34
                            x       y       z     vdW  Elec       q    Type
                         _______ _______ _______ _____ _____    ______ ____

>  <TORSDO>
F 12

$$$$
=
 OpenBabel10222419363D

 39 41  0  0  0  0  0  0  0  0999 V2000
  188.9100  177.7550  141.5700 C   0  0  0  0  0  0  0  0  0  0  0  0
  189.8770  176.8120  141.1230 C   0  0  0  0  0  0  0  0  0  0  0  0
  188.6380  177.8810  142.9370 C   0  0  0  0  0  3  0  0  0  0  0  0
  190.5060  176.0100  142.0920 C   0  0  0  0  0  3  0  0  0  0  0  0
  190.2210  176.1450  143.4500 C   0  0  0  0  0  3  0  0  0  0  0  0
  189.2940  177.0950  143.8950 C   0  0  0  0  0  0  0  0  0  0  0  0
  191.6010  176.7390  139.2560 C   0  0  0  0  0  3  0  0  0  0  0  0
  190.9680  176.1620  136.9900 C   0  0  0  0  0  0  0  0  0  0  0  0
  191.9530  176.5160  137.9220 C   0  0  0  0  0  0  0  0  0  0  0  0
  189.2980  176.2520  138.7390 C   0  0  0  0  0  3  0  0  0  0  0  0
  189.6410  176.0280  137.4020 C   0  0  0  0  0  3  0  0  0  0  0  0
  190.2720  176.6160  139.6900 C   0  0  0  0  0  0  0  0  0  0  0  0
  191.2990  175.9420  135.6570 O   0  0  0  0  0  1  0  0  0  0  0  0
  193.3790  176.6620  137.5140 C   0  0  0  0  0  1  0  0  0  0  0  0
  187.2780  177.8510  147.0040 C   0  0  0  0  0  3  0  0  0  0  0  0
  187.6500  177.6280  145.6780 C   0  0  0  0  0  3  0  0  0  0  0  0
  188.2160  177.7150  148.0230 C   0  0  0  0  0  3  0  0  0  0  0  0
  188.9650  177.2610  145.3410 C   0  0  0  0  0  0  0  0  0  0  0  0
  189.9160  177.1250  146.3920 C   0  0  0  0  0  0  0  0  0  0  0  0
  189.5270  177.3560  147.7180 C   0  0  0  0  0  3  0  0  0  0  0  0
  191.3450  176.7630  146.1590 C   0  0  0  0  0  2  0  0  0  0  0  0
  192.0460  176.6910  147.4310 N   0  0  0  0  0  1  0  0  0  0  0  0
  188.1270  178.6160  140.6730 C   0  0  0  0  0  0  0  0  0  0  0  0
  186.7500  178.8960  140.9260 N   0  0  0  0  0  2  0  0  0  0  0  0
  188.6730  179.0830  139.6390 O   0  0  0  0  0  0  0  0  0  0  0  0
  186.0840  178.5140  142.1640 C   0  0  0  0  0  2  0  0  0  0  0  0
  185.1060  179.5990  142.5860 C   0  0  0  0  0  2  0  0  0  0  0  0
  183.6100  178.6440  145.7810 O   0  0  0  0  0  1  0  0  0  0  0  0
  184.1300  179.0900  143.5440 N   0  0  0  0  0  0  0  0  0  0  0  0
  184.3320  179.2610  144.9550 C   0  0  0  0  0  0  0  0  0  0  0  0
  185.3320  180.1040  145.4260 O   0  0  0  0  0  0  0  0  0  0  0  0
  183.0460  178.2510  143.0480 C   0  0  0  0  0  2  0  0  0  0  0  0
  181.9080  179.1180  142.5380 C   0  0  0  0  0  2  0  0  0  0  0  0
  181.3500  178.5090  141.2680 C   0  0  0  0  0  2  0  0  0  0  0  0
  184.0900  177.7390  138.9000 N   0  0  0  0  0  2  0  0  0  0  0  0
  182.4030  177.8120  140.5410 N   0  0  0  0  0  2  0  0  0  0  0  0
  183.1510  178.4150  139.4770 C   0  0  0  0  0  0  0  0  0  0  0  0
  182.9520  179.8480  139.1070 C   0  0  0  0  0  2  0  0  0  0  0  0
  184.1830  180.5030  139.0930 O   0  0  0  0  0  1  0  0  0  0  0  0
  1  3  1  0  0  0  0
  2  1  2  0  0  0  0
  2  4  1  0  0  0  0
  3  6  2  0  0  0  0
  4  5  2  0  0  0  0
  5  6  1  0  0  0  0
  6 18  1  0  0  0  0
  7 12  1  0  0  0  0
  8 11  2  0  0  0  0
  8  9  1  0  0  0  0
  9  7  2  0  0  0  0
 10 12  2  0  0  0  0
 11 10  1  0  0  0  0
 12  2  1  0  0  0  0
 13  8  1  0  0  0  0
 14  9  1  0  0  0  0
 15 17  1  0  0  0  0
 16 15  2  0  0  0  0
 18 16  1  0  0  0  0
 18 19  2  0  0  0  0
 19 20  1  0  0  0  0
 20 17  2  0  0  0  0
 21 19  1  0  0  0  0
 21 22  1  0  0  0  0
 23 24  1  0  0  0  0
 23  1  1  0  0  0  0
 24 26  1  0  0  0  0
 25 23  2  0  0  0  0
 26 27  1  0  0  0  0
 27 29  1  0  0  0  0
 29 30  1  0  0  0  0
 30 31  2  0  0  0  0
 30 28  1  0  0  0  0
 32 29  1  0  0  0  0
 33 32  1  0  0  0  0
 34 33  1  0  0  0  0
 35 37  2  0  0  0  0
 36 34  1  0  0  0  0
 37 36  1  0  0  0  0
 38 37  1  0  0  0  0
 39 38  1  0  0  0  0
M  END
>  <MODEL>
7

>  <REMARK>
 VINA RESULT:      -8.5      2.705      7.282
  Name = 
  12 active torsions:
  status: ('A' for Active; 'I' for Inactive)
    1  A    between atoms: C_1  and  C_14
    2  A    between atoms: C_2  and  C_21
    3  A    between atoms: N_8  and  C_33
    4  A    between atoms: C_9  and  C_32
    5  A    between atoms: C_13  and  C_25
    6  A    between atoms: C_13  and  C_33
    7  A    between atoms: C_18  and  N_20
    8  A    between atoms: C_18  and  C_23
    9  A    between atoms: C_19  and  C_30
   10  A    between atoms: N_22  and  C_23
   11  A    between atoms: N_22  and  C_25
   12  A    between atoms: C_27  and  C_34
                            x       y       z     vdW  Elec       q    Type
                         _______ _______ _______ _____ _____    ______ ____

>  <TORSDO>
F 12

$$$$
=
 OpenBabel10222419363D

 39 41  0  0  0  0  0  0  0  0999 V2000
  188.5230  178.0310  140.3290 C   0  0  0  0  0  0  0  0  0  0  0  0
  189.5790  177.1670  140.7330 C   0  0  0  0  0  0  0  0  0  0  0  0
  187.4700  178.3040  141.2080 C   0  0  0  0  0  3  0  0  0  0  0  0
  189.4990  176.5910  142.0130 C   0  0  0  0  0  3  0  0  0  0  0  0
  188.4410  176.8710  142.8760 C   0  0  0  0  0  3  0  0  0  0  0  0
  187.4180  177.7450  142.4930 C   0  0  0  0  0  0  0  0  0  0  0  0
  190.6800  176.0090  138.7560 C   0  0  0  0  0  3  0  0  0  0  0  0
  193.0420  176.2920  138.2960 C   0  0  0  0  0  0  0  0  0  0  0  0
  191.7980  175.7370  137.9620 C   0  0  0  0  0  0  0  0  0  0  0  0
  192.0290  177.3850  140.2030 C   0  0  0  0  0  3  0  0  0  0  0  0
  193.1530  177.1180  139.4150 C   0  0  0  0  0  3  0  0  0  0  0  0
  190.7720  176.8310  139.8890 C   0  0  0  0  0  0  0  0  0  0  0  0
  194.1660  176.0280  137.5210 O   0  0  0  0  0  1  0  0  0  0  0  0
  191.6460  174.8550  136.7710 C   0  0  0  0  0  1  0  0  0  0  0  0
  183.9390  178.7630  143.5700 C   0  0  0  0  0  3  0  0  0  0  0  0
  185.0430  178.4060  142.7970 C   0  0  0  0  0  3  0  0  0  0  0  0
  184.0380  178.7890  144.9580 C   0  0  0  0  0  3  0  0  0  0  0  0
  186.2700  178.0620  143.3920 C   0  0  0  0  0  0  0  0  0  0  0  0
  186.3600  178.0920  144.8140 C   0  0  0  0  0  0  0  0  0  0  0  0
  185.2430  178.4560  145.5750 C   0  0  0  0  0  3  0  0  0  0  0  0
  187.6130  177.7710  145.5590 C   0  0  0  0  0  2  0  0  0  0  0  0
  187.3660  177.8540  146.9900 N   0  0  0  0  0  1  0  0  0  0  0  0
  188.4370  178.6550  139.0010 C   0  0  0  0  0  0  0  0  0  0  0  0
  187.4220  178.2810  138.0680 N   0  0  0  0  0  2  0  0  0  0  0  0
  189.3000  179.5090  138.6670 O   0  0  0  0  0  0  0  0  0  0  0  0
  186.3090  177.4120  138.4240 C   0  0  0  0  0  2  0  0  0  0  0  0
  185.0630  177.8190  137.6540 C   0  0  0  0  0  2  0  0  0  0  0  0
  182.6660  178.8870  140.1980 O   0  0  0  0  0  1  0  0  0  0  0  0
  183.8830  177.8140  138.5130 N   0  0  0  0  0  0  0  0  0  0  0  0
  183.5500  178.9640  139.3060 C   0  0  0  0  0  0  0  0  0  0  0  0
  184.2060  180.1730  139.1030 O   0  0  0  0  0  0  0  0  0  0  0  0
  183.1580  176.5620  138.6850 C   0  0  0  0  0  2  0  0  0  0  0  0
  182.3370  176.2610  137.4430 C   0  0  0  0  0  2  0  0  0  0  0  0
  183.1790  175.4580  136.4730 C   0  0  0  0  0  2  0  0  0  0  0  0
  183.4930  171.8480  137.2390 N   0  0  0  0  0  2  0  0  0  0  0  0
  182.8880  174.0360  136.6140 N   0  0  0  0  0  2  0  0  0  0  0  0
  183.8370  173.0890  137.1180 C   0  0  0  0  0  0  0  0  0  0  0  0
  185.1740  173.5260  137.6220 C   0  0  0  0  0  2  0  0  0  0  0  0
  186.1430  172.5960  137.2460 O   0  0  0  0  0  1  0  0  0  0  0  0
  1  2  2  0  0  0  0
  1  3  1  0  0  0  0
  2  4  1  0  0  0  0
  3  6  2  0  0  0  0
  4  5  2  0  0  0  0
  6  5  1  0  0  0  0
  6 18  1  0  0  0  0
  7 12  1  0  0  0  0
  8 11  2  0  0  0  0
  9  8  1  0  0  0  0
  9  7  2  0  0  0  0
 11 10  1  0  0  0  0
 12 10  2  0  0  0  0
 12  2  1  0  0  0  0
 13  8  1  0  0  0  0
 14  9  1  0  0  0  0
 15 17  1  0  0  0  0
 16 18  1  0  0  0  0
 16 15  2  0  0  0  0
 17 20  2  0  0  0  0
 18 19  2  0  0  0  0
 19 21  1  0  0  0  0
 19 20  1  0  0  0  0
 21 22  1  0  0  0  0
 23  1  1  0  0  0  0
 24 26  1  0  0  0  0
 24 23  1  0  0  0  0
 25 23  2  0  0  0  0
 27 26  1  0  0  0  0
 27 29  1  0  0  0  0
 29 32  1  0  0  0  0
 29 30  1  0  0  0  0
 30 28  1  0  0  0  0
 31 30  2  0  0  0  0
 33 32  1  0  0  0  0
 34 36  1  0  0  0  0
 34 33  1  0  0  0  0
 36 37  1  0  0  0  0
 37 35  2  0  0  0  0
 37 38  1  0  0  0  0
 39 38  1  0  0  0  0
M  END
>  <MODEL>
8

>  <REMARK>
 VINA RESULT:      -8.4      2.878      5.917
  Name = 
  12 active torsions:
  status: ('A' for Active; 'I' for Inactive)
    1  A    between atoms: C_1  and  C_14
    2  A    between atoms: C_2  and  C_21
    3  A    between atoms: N_8  and  C_33
    4  A    between atoms: C_9  and  C_32
    5  A    between atoms: C_13  and  C_25
    6  A    between atoms: C_13  and  C_33
    7  A    between atoms: C_18  and  N_20
    8  A    between atoms: C_18  and  C_23
    9  A    between atoms: C_19  and  C_30
   10  A    between atoms: N_22  and  C_23
   11  A    between atoms: N_22  and  C_25
   12  A    between atoms: C_27  and  C_34
                            x       y       z     vdW  Elec       q    Type
                         _______ _______ _______ _____ _____    ______ ____

>  <TORSDO>
F 12

$$$$
=
 OpenBabel10222419363D

 39 41  0  0  0  0  0  0  0  0999 V2000
  186.2990  178.4330  142.4630 C   0  0  0  0  0  0  0  0  0  0  0  0
  185.1290  178.2530  143.2520 C   0  0  0  0  0  0  0  0  0  0  0  0
  187.5550  178.1290  142.9990 C   0  0  0  0  0  3  0  0  0  0  0  0
  185.2930  177.7980  144.5730 C   0  0  0  0  0  3  0  0  0  0  0  0
  186.5530  177.5040  145.0930 C   0  0  0  0  0  3  0  0  0  0  0  0
  187.7020  177.6490  144.3080 C   0  0  0  0  0  0  0  0  0  0  0  0
  183.2860  178.1030  141.5070 C   0  0  0  0  0  3  0  0  0  0  0  0
  181.0670  178.9670  141.9520 C   0  0  0  0  0  0  0  0  0  0  0  0
  181.9690  178.3230  141.0940 C   0  0  0  0  0  0  0  0  0  0  0  0
  182.8080  179.1520  143.6230 C   0  0  0  0  0  3  0  0  0  0  0  0
  181.4890  179.3770  143.2170 C   0  0  0  0  0  3  0  0  0  0  0  0
  183.7320  178.5130  142.7720 C   0  0  0  0  0  0  0  0  0  0  0  0
  179.7550  179.2000  141.5560 O   0  0  0  0  0  1  0  0  0  0  0  0
  181.5480  177.8690  139.7390 C   0  0  0  0  0  1  0  0  0  0  0  0
  191.3030  176.4960  144.3640 C   0  0  0  0  0  3  0  0  0  0  0  0
  190.0240  176.8500  143.9360 C   0  0  0  0  0  3  0  0  0  0  0  0
  191.6510  176.6250  145.7050 C   0  0  0  0  0  3  0  0  0  0  0  0
  189.0640  177.3450  144.8370 C   0  0  0  0  0  0  0  0  0  0  0  0
  189.4310  177.4720  146.2070 C   0  0  0  0  0  0  0  0  0  0  0  0
  190.7180  177.1100  146.6210 C   0  0  0  0  0  3  0  0  0  0  0  0
  188.4930  177.9630  147.2610 C   0  0  0  0  0  2  0  0  0  0  0  0
  188.3080  176.9320  148.2700 N   0  0  0  0  0  1  0  0  0  0  0  0
  186.2900  178.9590  141.0910 C   0  0  0  0  0  0  0  0  0  0  0  0
  187.3210  178.6230  140.1610 N   0  0  0  0  0  2  0  0  0  0  0  0
  185.3780  179.7530  140.7430 O   0  0  0  0  0  0  0  0  0  0  0  0
  188.3280  177.6080  140.4350 C   0  0  0  0  0  2  0  0  0  0  0  0
  189.4870  177.7460  139.4600 C   0  0  0  0  0  2  0  0  0  0  0  0
  188.2030  178.2070  136.0700 O   0  0  0  0  0  0  0  0  0  0  0  0
  189.0740  177.4300  138.0970 N   0  0  0  0  0  0  0  0  0  0  0  0
  188.7580  178.4760  137.1660 C   0  0  0  0  0  0  0  0  0  0  0  0
  189.0550  179.8000  137.4680 O   0  0  0  0  0  1  0  0  0  0  0  0
  188.8150  176.0360  137.7580 C   0  0  0  0  0  2  0  0  0  0  0  0
  189.8840  175.5230  136.8090 C   0  0  0  0  0  2  0  0  0  0  0  0
  190.9060  174.7280  137.5940 C   0  0  0  0  0  2  0  0  0  0  0  0
  194.3270  176.0040  136.9750 N   0  0  0  0  0  2  0  0  0  0  0  0
  192.2360  174.9240  137.0290 N   0  0  0  0  0  2  0  0  0  0  0  0
  193.1540  175.9120  137.5110 C   0  0  0  0  0  0  0  0  0  0  0  0
  192.8310  176.7540  138.7020 C   0  0  0  0  0  2  0  0  0  0  0  0
  193.9320  176.8000  139.5560 O   0  0  0  0  0  1  0  0  0  0  0  0
  1  3  2  0  0  0  0
  1  2  1  0  0  0  0
  2  4  2  0  0  0  0
  3  6  1  0  0  0  0
  4  5  1  0  0  0  0
  6 18  1  0  0  0  0
  6  5  2  0  0  0  0
  7 12  1  0  0  0  0
  8 11  2  0  0  0  0
  9  7  2  0  0  0  0
  9  8  1  0  0  0  0
 11 10  1  0  0  0  0
 12  2  1  0  0  0  0
 12 10  2  0  0  0  0
 13  8  1  0  0  0  0
 14  9  1  0  0  0  0
 15 17  1  0  0  0  0
 16 15  2  0  0  0  0
 16 18  1  0  0  0  0
 17 20  2  0  0  0  0
 18 19  2  0  0  0  0
 19 20  1  0  0  0  0
 19 21  1  0  0  0  0
 21 22  1  0  0  0  0
 23  1  1  0  0  0  0
 24 26  1  0  0  0  0
 24 23  1  0  0  0  0
 25 23  2  0  0  0  0
 27 26  1  0  0  0  0
 28 30  2  0  0  0  0
 29 27  1  0  0  0  0
 30 31  1  0  0  0  0
 30 29  1  0  0  0  0
 32 29  1  0  0  0  0
 33 34  1  0  0  0  0
 33 32  1  0  0  0  0
 35 37  2  0  0  0  0
 36 37  1  0  0  0  0
 36 34  1  0  0  0  0
 37 38  1  0  0  0  0
 38 39  1  0  0  0  0
M  END
>  <MODEL>
9

>  <REMARK>
 VINA RESULT:      -8.4      2.838      7.270
  Name = 
  12 active torsions:
  status: ('A' for Active; 'I' for Inactive)
    1  A    between atoms: C_1  and  C_14
    2  A    between atoms: C_2  and  C_21
    3  A    between atoms: N_8  and  C_33
    4  A    between atoms: C_9  and  C_32
    5  A    between atoms: C_13  and  C_25
    6  A    between atoms: C_13  and  C_33
    7  A    between atoms: C_18  and  N_20
    8  A    between atoms: C_18  and  C_23
    9  A    between atoms: C_19  and  C_30
   10  A    between atoms: N_22  and  C_23
   11  A    between atoms: N_22  and  C_25
   12  A    between atoms: C_27  and  C_34
                            x       y       z     vdW  Elec       q    Type
                         _______ _______ _______ _____ _____    ______ ____

>  <TORSDO>
F 12

$$$$
